
     RDKit          3D

 29 29  0  0  0  0  0  0  0  0999 V2000
    3.2286    3.8192    4.4858 N   0  0  0  0  0  0  0  0  0  0  0  0
    2.7047    3.6262    3.1395 C   0  0  0  0  0  0  0  0  0  0  0  0
    3.1071    2.2641    2.6024 C   0  0  0  0  0  0  0  0  0  0  0  0
    4.5185    2.2002    2.5540 O   0  0  0  0  0  0  0  0  0  0  0  0
    5.0382    0.9548    2.1771 C   0  0  0  0  0  0  0  0  0  0  0  0
    6.5356    0.8423    2.4719 C   0  0  0  0  0  0  0  0  0  0  0  0
    7.1842    0.0033    1.8866 O   0  0  0  0  0  0  0  0  0  0  0  0
    7.1032    1.7552    3.5461 C   0  0  1  0  0  0  0  0  0  0  0  0
    6.5086    1.4282    4.9519 C   0  0  0  0  0  0  0  0  0  0  0  0
    7.6211    1.8518    5.9185 C   0  0  0  0  0  0  0  0  0  0  0  0
    8.8986    1.3794    5.2088 C   0  0  0  0  0  0  0  0  0  0  0  0
    8.6435    1.6703    3.7113 C   0  0  0  0  0  0  0  0  0  0  0  0
    2.8850    4.6926    4.8837 H   0  0  0  0  0  0  0  0  0  0  0  0
    4.2444    3.9005    4.4420 H   0  0  0  0  0  0  0  0  0  0  0  0
    3.0252    4.3973    2.4059 H   0  0  0  0  0  0  0  0  0  0  0  0
    1.6024    3.6607    3.1731 H   0  0  0  0  0  0  0  0  0  0  0  0
    2.6735    2.1057    1.5937 H   0  0  0  0  0  0  0  0  0  0  0  0
    2.7172    1.4712    3.2718 H   0  0  0  0  0  0  0  0  0  0  0  0
    4.8864    0.7405    1.1008 H   0  0  0  0  0  0  0  0  0  0  0  0
    4.5451    0.1306    2.7378 H   0  0  0  0  0  0  0  0  0  0  0  0
    6.7891    2.7775    3.2803 H   0  0  0  0  0  0  0  0  0  0  0  0
    6.3428    0.3401    5.0467 H   0  0  0  0  0  0  0  0  0  0  0  0
    5.5425    1.9230    5.1277 H   0  0  0  0  0  0  0  0  0  0  0  0
    7.4974    1.4300    6.9289 H   0  0  0  0  0  0  0  0  0  0  0  0
    7.6275    2.9519    6.0214 H   0  0  0  0  0  0  0  0  0  0  0  0
    9.0218    0.2943    5.3668 H   0  0  0  0  0  0  0  0  0  0  0  0
    9.8112    1.8636    5.5899 H   0  0  0  0  0  0  0  0  0  0  0  0
    9.0576    0.8888    3.0587 H   0  0  0  0  0  0  0  0  0  0  0  0
    9.1064    2.6240    3.4126 H   0  0  0  0  0  0  0  0  0  0  0  0
  1  2  1  0
  1 13  1  0
  1 14  1  0
  2  3  1  0
  2 15  1  0
  2 16  1  0
  3  4  1  0
  3 17  1  0
  3 18  1  0
  4  5  1  0
  5  6  1  0
  5 19  1  0
  5 20  1  0
  6  7  2  0
  6  8  1  0
  8  9  1  0
  8 12  1  0
  8 21  1  6
  9 10  1  0
  9 22  1  0
  9 23  1  0
 10 11  1  0
 10 24  1  0
 10 25  1  0
 11 12  1  0
 11 26  1  0
 11 27  1  0
 12 28  1  0
 12 29  1  0
M  END

