
     RDKit          3D

 53 55  0  0  0  0  0  0  0  0999 V2000
    1.2697   -0.1070    0.3800 C   0  0  0  0  0  0  0  0  0  0  0  0
    2.7483    0.0239    0.1230 C   0  0  0  0  0  0  0  0  0  0  0  0
    3.3715    1.2713    0.1146 C   0  0  0  0  0  0  0  0  0  0  0  0
    4.7555    1.4063   -0.1256 C   0  0  0  0  0  0  0  0  0  0  0  0
    5.3898    2.6745   -0.1255 N   0  0  0  0  0  0  0  0  0  0  0  0
    6.8505    2.7977   -0.1640 C   0  0  0  0  0  0  0  0  0  0  0  0
    7.1132    4.2723    0.1715 C   0  0  0  0  0  0  0  0  0  0  0  0
    5.8672    4.9646   -0.3584 C   0  0  2  0  0  0  0  0  0  0  0  0
    5.5595    6.1341    0.3812 O   0  0  0  0  0  0  0  0  0  0  0  0
    4.9221    7.1590   -0.2191 C   0  0  0  0  0  0  0  0  0  0  0  0
    4.4805    8.2065    0.6138 C   0  0  0  0  0  0  0  0  0  0  0  0
    3.8491    9.2866    0.0179 C   0  0  0  0  0  0  0  0  0  0  0  0
    3.6766    9.2970   -1.3756 C   0  0  0  0  0  0  0  0  0  0  0  0
    3.0004   10.4352   -2.0891 C   0  0  1  0  0  0  0  0  0  0  0  0
    2.5933   11.3912   -1.2359 F   0  0  0  0  0  0  0  0  0  0  0  0
    3.8216   11.0197   -2.9836 F   0  0  0  0  0  0  0  0  0  0  0  0
    1.9189   10.0221   -2.7764 F   0  0  0  0  0  0  0  0  0  0  0  0
    4.1584    8.2061   -2.1028 C   0  0  0  0  0  0  0  0  0  0  0  0
    4.7671    7.1644   -1.5361 N   0  0  0  0  0  0  0  0  0  0  0  0
    4.7645    3.9058   -0.1916 C   0  0  0  0  0  0  0  0  0  0  0  0
    3.5771    4.1471   -0.1459 O   0  0  0  0  0  0  0  0  0  0  0  0
    5.5068    0.2469   -0.3620 C   0  0  0  0  0  0  0  0  0  0  0  0
    4.8975   -1.0128   -0.3531 C   0  0  0  0  0  0  0  0  0  0  0  0
    3.5266   -1.1330   -0.1121 C   0  0  0  0  0  0  0  0  0  0  0  0
    2.8566   -2.3218   -0.0885 O   0  0  0  0  0  0  0  0  0  0  0  0
    3.5563   -3.5386   -0.2966 C   0  0  0  0  0  0  0  0  0  0  0  0
    2.5500   -4.6898   -0.1363 C   0  0  1  0  0  0  0  0  0  0  0  0
    1.4605   -4.6254   -1.2180 C   0  0  0  0  0  0  0  0  0  0  0  0
    3.2918   -6.0252   -0.1800 C   0  0  0  0  0  0  0  0  0  0  0  0
    1.9642   -4.6002    1.1569 O   0  0  0  0  0  0  0  0  0  0  0  0
    0.8089    0.8776    0.5403 H   0  0  0  0  0  0  0  0  0  0  0  0
    1.0709   -0.7299    1.2683 H   0  0  0  0  0  0  0  0  0  0  0  0
    0.7587   -0.5961   -0.4657 H   0  0  0  0  0  0  0  0  0  0  0  0
    2.7786    2.1667    0.2873 H   0  0  0  0  0  0  0  0  0  0  0  0
    7.2403    2.5316   -1.1639 H   0  0  0  0  0  0  0  0  0  0  0  0
    7.3128    2.1138    0.5637 H   0  0  0  0  0  0  0  0  0  0  0  0
    8.0501    4.6464   -0.2640 H   0  0  0  0  0  0  0  0  0  0  0  0
    7.1547    4.4160    1.2626 H   0  0  0  0  0  0  0  0  0  0  0  0
    5.9382    5.2148   -1.4291 H   0  0  0  0  0  0  0  0  0  0  0  0
    4.6371    8.1429    1.6911 H   0  0  0  0  0  0  0  0  0  0  0  0
    3.4854   10.1198    0.6217 H   0  0  0  0  0  0  0  0  0  0  0  0
    4.0468    8.1737   -3.1924 H   0  0  0  0  0  0  0  0  0  0  0  0
    6.5759    0.3004   -0.5667 H   0  0  0  0  0  0  0  0  0  0  0  0
    5.5122   -1.8927   -0.5415 H   0  0  0  0  0  0  0  0  0  0  0  0
    4.3549   -3.6468    0.4592 H   0  0  0  0  0  0  0  0  0  0  0  0
    4.0177   -3.5523   -1.3013 H   0  0  0  0  0  0  0  0  0  0  0  0
    1.8816   -4.7559   -2.2280 H   0  0  0  0  0  0  0  0  0  0  0  0
    0.9426   -3.6548   -1.1891 H   0  0  0  0  0  0  0  0  0  0  0  0
    0.7201   -5.4196   -1.0409 H   0  0  0  0  0  0  0  0  0  0  0  0
    3.7943   -6.1756   -1.1481 H   0  0  0  0  0  0  0  0  0  0  0  0
    2.5779   -6.8484   -0.0272 H   0  0  0  0  0  0  0  0  0  0  0  0
    4.0414   -6.0754    0.6244 H   0  0  0  0  0  0  0  0  0  0  0  0
    1.6399   -3.6927    1.2512 H   0  0  0  0  0  0  0  0  0  0  0  0
  1  2  1  0
  1 31  1  0
  1 32  1  0
  1 33  1  0
  2  3  2  0
  2 24  1  0
  3  4  1  0
  3 34  1  0
  4  5  1  0
  4 22  2  0
  5  6  1  0
  5 20  1  0
  6  7  1  0
  6 35  1  0
  6 36  1  0
  7  8  1  0
  7 37  1  0
  7 38  1  0
  8  9  1  0
  8 20  1  0
  8 39  1  6
  9 10  1  0
 10 11  2  0
 10 19  1  0
 11 12  1  0
 11 40  1  0
 12 13  2  0
 12 41  1  0
 13 14  1  0
 13 18  1  0
 14 15  1  1
 14 16  1  0
 14 17  1  0
 18 19  2  0
 18 42  1  0
 20 21  2  0
 22 23  1  0
 22 43  1  0
 23 24  2  0
 23 44  1  0
 24 25  1  0
 25 26  1  0
 26 27  1  0
 26 45  1  0
 26 46  1  0
 27 28  1  0
 27 29  1  0
 27 30  1  1
 28 47  1  0
 28 48  1  0
 28 49  1  0
 29 50  1  0
 29 51  1  0
 29 52  1  0
 30 53  1  0
M  END

