
     RDKit          3D

 63 68  0  0  0  0  0  0  0  0999 V2000
   -1.3819   -0.5166   -2.8143 C   0  0  0  0  0  0  0  0  0  0  0  0
   -1.0555   -1.2741   -1.6839 C   0  0  0  0  0  0  0  0  0  0  0  0
    0.0190   -0.8924   -0.8769 C   0  0  0  0  0  0  0  0  0  0  0  0
    0.8045    0.2440   -1.1611 C   0  0  0  0  0  0  0  0  0  0  0  0
    2.0684    0.6162   -0.1942 B   0  0  1  0  0  0  0  0  0  0  0  0
    3.1973   -0.4220   -0.3431 N   0  0  0  0  0  0  0  0  0  0  0  0
    4.1340   -0.2835   -1.2952 C   0  0  0  0  0  0  0  0  0  0  0  0
    4.9622   -1.5173   -1.6409 C   0  0  1  0  0  0  0  0  0  0  0  0
    4.1105   -2.5964   -2.3618 C   0  0  0  0  0  0  0  0  0  0  0  0
    3.8582   -2.2640   -3.8370 C   0  0  0  0  0  0  0  0  0  0  0  0
    5.1776   -2.0521   -4.5891 C   0  0  0  0  0  0  0  0  0  0  0  0
    6.0212   -0.9550   -3.9288 C   0  0  0  0  0  0  0  0  0  0  0  0
    6.2510   -1.2223   -2.4337 C   0  0  0  0  0  0  0  0  0  0  0  0
    4.3664    0.8530   -1.9146 N   0  0  0  0  0  0  0  0  0  0  0  0
    3.7469    1.9993   -1.5094 C   0  0  0  0  0  0  0  0  0  0  0  0
    4.1728    3.2355   -2.0256 C   0  0  0  0  0  0  0  0  0  0  0  0
    3.6005    4.4138   -1.5519 C   0  0  0  0  0  0  0  0  0  0  0  0
    2.6393    4.3774   -0.5459 C   0  0  0  0  0  0  0  0  0  0  0  0
    2.2197    3.1380   -0.0291 C   0  0  0  0  0  0  0  0  0  0  0  0
    2.7357    1.9856   -0.5763 N   0  0  0  0  0  0  0  0  0  0  0  0
    1.3542    3.1083    1.0230 N   0  0  0  0  0  0  0  0  0  0  0  0
    1.1345    1.9865    1.6756 C   0  0  0  0  0  0  0  0  0  0  0  0
    0.2493    2.0454    2.9245 C   0  0  1  0  0  0  0  0  0  0  0  0
    0.6003    1.0011    4.0069 C   0  0  0  0  0  0  0  0  0  0  0  0
    1.9081    1.3318    4.7392 C   0  0  0  0  0  0  0  0  0  0  0  0
    1.8593    2.7380    5.3519 C   0  0  0  0  0  0  0  0  0  0  0  0
    1.4982    3.7971    4.3020 C   0  0  0  0  0  0  0  0  0  0  0  0
    0.2026    3.4501    3.5564 C   0  0  0  0  0  0  0  0  0  0  0  0
    1.6084    0.8013    1.2661 N   0  0  0  0  0  0  0  0  0  0  0  0
    0.4515    0.9857   -2.3027 C   0  0  0  0  0  0  0  0  0  0  0  0
   -0.6241    0.6161   -3.1200 C   0  0  0  0  0  0  0  0  0  0  0  0
   -2.2225   -0.8079   -3.4500 H   0  0  0  0  0  0  0  0  0  0  0  0
   -1.6425   -2.1622   -1.4318 H   0  0  0  0  0  0  0  0  0  0  0  0
    0.2460   -1.5049    0.0049 H   0  0  0  0  0  0  0  0  0  0  0  0
    3.0998   -1.3530    0.0478 H   0  0  0  0  0  0  0  0  0  0  0  0
    5.2584   -1.9386   -0.6621 H   0  0  0  0  0  0  0  0  0  0  0  0
    3.1539   -2.7472   -1.8343 H   0  0  0  0  0  0  0  0  0  0  0  0
    4.6563   -3.5547   -2.2966 H   0  0  0  0  0  0  0  0  0  0  0  0
    3.2396   -1.3523   -3.9105 H   0  0  0  0  0  0  0  0  0  0  0  0
    3.2727   -3.0749   -4.3022 H   0  0  0  0  0  0  0  0  0  0  0  0
    4.9804   -1.7983   -5.6443 H   0  0  0  0  0  0  0  0  0  0  0  0
    5.7436   -3.0034   -4.5996 H   0  0  0  0  0  0  0  0  0  0  0  0
    5.5110    0.0141   -4.0365 H   0  0  0  0  0  0  0  0  0  0  0  0
    6.9965   -0.8660   -4.4373 H   0  0  0  0  0  0  0  0  0  0  0  0
    6.7782   -0.3713   -1.9763 H   0  0  0  0  0  0  0  0  0  0  0  0
    6.9095   -2.1033   -2.3238 H   0  0  0  0  0  0  0  0  0  0  0  0
    4.9618    3.2245   -2.7764 H   0  0  0  0  0  0  0  0  0  0  0  0
    3.9284    5.3760   -1.9546 H   0  0  0  0  0  0  0  0  0  0  0  0
    2.2023    5.2769   -0.1143 H   0  0  0  0  0  0  0  0  0  0  0  0
   -0.7624    1.8089    2.5426 H   0  0  0  0  0  0  0  0  0  0  0  0
    0.6277   -0.0242    3.5977 H   0  0  0  0  0  0  0  0  0  0  0  0
   -0.2288    0.9891    4.7356 H   0  0  0  0  0  0  0  0  0  0  0  0
    2.7517    1.2679    4.0284 H   0  0  0  0  0  0  0  0  0  0  0  0
    2.1022    0.5778    5.5207 H   0  0  0  0  0  0  0  0  0  0  0  0
    2.8246    2.9800    5.8277 H   0  0  0  0  0  0  0  0  0  0  0  0
    1.1038    2.7511    6.1598 H   0  0  0  0  0  0  0  0  0  0  0  0
    2.3183    3.8862    3.5687 H   0  0  0  0  0  0  0  0  0  0  0  0
    1.4007    4.7871    4.7786 H   0  0  0  0  0  0  0  0  0  0  0  0
    0.0022    4.1940    2.7743 H   0  0  0  0  0  0  0  0  0  0  0  0
   -0.6454    3.4747    4.2638 H   0  0  0  0  0  0  0  0  0  0  0  0
    1.3653    0.0024    1.8395 H   0  0  0  0  0  0  0  0  0  0  0  0
    1.0237    1.8805   -2.5657 H   0  0  0  0  0  0  0  0  0  0  0  0
   -0.8714    1.2182   -3.9991 H   0  0  0  0  0  0  0  0  0  0  0  0
  1  2  2  0
  1 31  1  0
  1 32  1  0
  2  3  1  0
  2 33  1  0
  3  4  2  0
  3 34  1  0
  5  4  1  6
  4 30  1  0
  5  6  1  0
  5 20  1  0
  5 29  1  0
  6  7  1  0
  6 35  1  0
  7  8  1  0
  7 14  2  0
  8  9  1  0
  8 13  1  0
  8 36  1  1
  9 10  1  0
  9 37  1  0
  9 38  1  0
 10 11  1  0
 10 39  1  0
 10 40  1  0
 11 12  1  0
 11 41  1  0
 11 42  1  0
 12 13  1  0
 12 43  1  0
 12 44  1  0
 13 45  1  0
 13 46  1  0
 14 15  1  0
 15 16  2  0
 15 20  1  0
 16 17  1  0
 16 47  1  0
 17 18  2  0
 17 48  1  0
 18 19  1  0
 18 49  1  0
 19 20  1  0
 19 21  2  0
 21 22  1  0
 22 23  1  0
 22 29  2  0
 23 24  1  0
 23 28  1  0
 23 50  1  6
 24 25  1  0
 24 51  1  0
 24 52  1  0
 25 26  1  0
 25 53  1  0
 25 54  1  0
 26 27  1  0
 26 55  1  0
 26 56  1  0
 27 28  1  0
 27 57  1  0
 27 58  1  0
 28 59  1  0
 28 60  1  0
 29 61  1  0
 30 31  2  0
 30 62  1  0
 31 63  1  0
M  CHG  2   5  -1  29   1
M  END

