
     RDKit          3D

 34 36  0  0  0  0  0  0  0  0999 V2000
    2.3000   -4.8094    3.1120 O   0  0  0  0  0  0  0  0  0  0  0  0
    1.8114   -3.8241    2.5815 N   0  0  0  0  0  0  0  0  0  0  0  0
    0.6619   -3.4335    2.7567 O   0  0  0  0  0  0  0  0  0  0  0  0
    2.6798   -2.9904    1.7531 C   0  0  0  0  0  0  0  0  0  0  0  0
    3.9303   -2.7084    2.3232 C   0  0  0  0  0  0  0  0  0  0  0  0
    4.7811   -1.8146    1.8465 N   0  0  0  0  0  0  0  0  0  0  0  0
    4.3801   -1.1473    0.7579 C   0  0  0  0  0  0  0  0  0  0  0  0
    5.3680   -0.1213    0.2177 C   0  0  1  0  0  0  0  0  0  0  0  0
    6.0041    0.5226    1.1954 F   0  0  0  0  0  0  0  0  0  0  0  0
    6.2931   -0.7136   -0.5569 F   0  0  0  0  0  0  0  0  0  0  0  0
    4.7448    0.7987   -0.5459 F   0  0  0  0  0  0  0  0  0  0  0  0
    3.1907   -1.3683    0.0856 C   0  0  0  0  0  0  0  0  0  0  0  0
    2.2797   -2.3753    0.5254 C   0  0  0  0  0  0  0  0  0  0  0  0
    1.2021   -2.7144   -0.2320 N   0  0  0  0  0  0  0  0  0  0  0  0
    0.3561   -3.9092   -0.0364 C   0  0  0  0  0  0  0  0  0  0  0  0
   -0.6107   -3.9039   -1.2247 C   0  0  0  0  0  0  0  0  0  0  0  0
    0.1349   -3.1469   -2.3345 C   0  0  1  0  0  0  0  0  0  0  0  0
    0.8051   -3.8384   -2.8686 H   0  0  0  0  0  0  0  0  0  0  0  0
   -0.7227   -2.3199   -3.3079 C   0  0  0  0  0  0  0  0  0  0  0  0
   -0.6434   -0.9355   -2.8202 N   0  0  0  0  0  0  0  0  0  0  0  0
    0.0108   -0.8719   -1.5219 C   0  0  0  0  0  0  0  0  0  0  0  0
    0.9427   -2.1018   -1.5418 C   0  0  1  0  0  0  0  0  0  0  0  0
    1.8858   -1.8628   -2.0516 H   0  0  0  0  0  0  0  0  0  0  0  0
    4.2056   -3.2415    3.2387 H   0  0  0  0  0  0  0  0  0  0  0  0
    2.9654   -0.7627   -0.7876 H   0  0  0  0  0  0  0  0  0  0  0  0
   -0.1762   -3.8709    0.9207 H   0  0  0  0  0  0  0  0  0  0  0  0
    0.9967   -4.8114   -0.0232 H   0  0  0  0  0  0  0  0  0  0  0  0
   -1.5371   -3.3711   -0.9547 H   0  0  0  0  0  0  0  0  0  0  0  0
   -0.8978   -4.9231   -1.5213 H   0  0  0  0  0  0  0  0  0  0  0  0
   -1.7577   -2.7087   -3.3504 H   0  0  0  0  0  0  0  0  0  0  0  0
   -0.3211   -2.3908   -4.3352 H   0  0  0  0  0  0  0  0  0  0  0  0
   -1.5231   -0.4315   -2.8585 H   0  0  0  0  0  0  0  0  0  0  0  0
   -0.6726   -0.9521   -0.6505 H   0  0  0  0  0  0  0  0  0  0  0  0
    0.5730    0.0705   -1.4000 H   0  0  0  0  0  0  0  0  0  0  0  0
  1  2  2  0
  2  3  1  0
  2  4  1  0
  4  5  2  0
  4 13  1  0
  5  6  1  0
  5 24  1  0
  6  7  2  0
  7  8  1  0
  7 12  1  0
  8  9  1  1
  8 10  1  0
  8 11  1  0
 12 13  2  0
 12 25  1  0
 13 14  1  0
 14 15  1  0
 14 22  1  0
 15 16  1  0
 15 26  1  0
 15 27  1  0
 16 17  1  0
 16 28  1  0
 16 29  1  0
 17 18  1  6
 17 19  1  0
 17 22  1  0
 19 20  1  0
 19 30  1  0
 19 31  1  0
 20 21  1  0
 20 32  1  0
 21 22  1  0
 21 33  1  0
 21 34  1  0
 22 23  1  6
M  CHG  2   2   1   3  -1
M  END

