
     RDKit          3D

 53 57  0  0  0  0  0  0  0  0999 V2000
    3.9716    0.8760    0.3009 C   0  0  0  0  0  0  0  0  0  0  0  0
    3.1633   -0.2792    0.4061 O   0  0  0  0  0  0  0  0  0  0  0  0
    3.4850   -1.3877   -0.3000 C   0  0  0  0  0  0  0  0  0  0  0  0
    4.5660   -1.4617   -1.1804 C   0  0  0  0  0  0  0  0  0  0  0  0
    4.8616   -2.6479   -1.8797 C   0  0  0  0  0  0  0  0  0  0  0  0
    6.0101   -2.6678   -2.8061 C   0  0  0  0  0  0  0  0  0  0  0  0
    6.5362   -1.5257   -3.2135 N   0  0  0  0  0  0  0  0  0  0  0  0
    7.5887   -1.8425   -4.0403 O   0  0  0  0  0  0  0  0  0  0  0  0
    7.6837   -3.1756   -4.1332 C   0  0  0  0  0  0  0  0  0  0  0  0
    6.7249   -3.7826   -3.3739 C   0  0  0  0  0  0  0  0  0  0  0  0
    6.6315   -5.2761   -3.2382 C   0  0  0  0  0  0  0  0  0  0  0  0
    7.9472   -5.9233   -3.7130 C   0  0  0  0  0  0  0  0  0  0  0  0
    8.4434   -5.3313   -5.0403 C   0  0  0  0  0  0  0  0  0  0  0  0
    8.7708   -3.8284   -4.9302 C   0  0  1  0  0  0  0  0  0  0  0  0
    8.8304   -3.1999   -6.2024 O   0  0  0  0  0  0  0  0  0  0  0  0
    9.9899   -3.1642   -6.9202 C   0  0  0  0  0  0  0  0  0  0  0  0
    9.9484   -2.3963   -8.0972 C   0  0  0  0  0  0  0  0  0  0  0  0
   11.0716   -2.2870   -8.9122 C   0  0  0  0  0  0  0  0  0  0  0  0
   12.2461   -2.9465   -8.5476 C   0  0  0  0  0  0  0  0  0  0  0  0
   13.3318   -2.8417   -9.3322 F   0  0  0  0  0  0  0  0  0  0  0  0
   12.3089   -3.7106   -7.3891 C   0  0  0  0  0  0  0  0  0  0  0  0
   11.1770   -3.8251   -6.5718 C   0  0  0  0  0  0  0  0  0  0  0  0
    4.0425   -3.7681   -1.6875 C   0  0  0  0  0  0  0  0  0  0  0  0
    2.9556   -3.6983   -0.8136 C   0  0  0  0  0  0  0  0  0  0  0  0
    2.6623   -2.5299   -0.1059 C   0  0  0  0  0  0  0  0  0  0  0  0
    1.5822   -2.5066    0.8088 N   0  0  0  0  0  0  0  0  0  0  0  0
    0.6448   -1.5140    0.9984 C   0  0  0  0  0  0  0  0  0  0  0  0
   -0.2660   -1.8551    1.8729 N   0  0  0  0  0  0  0  0  0  0  0  0
    0.0663   -3.1253    2.2991 C   0  0  0  0  0  0  0  0  0  0  0  0
   -0.7450   -3.8450    3.3294 C   0  0  0  0  0  0  0  0  0  0  0  0
    1.2010   -3.5498    1.6472 C   0  0  0  0  0  0  0  0  0  0  0  0
    3.5290    1.6231    0.9725 H   0  0  0  0  0  0  0  0  0  0  0  0
    3.9818    1.2749   -0.7283 H   0  0  0  0  0  0  0  0  0  0  0  0
    5.0100    0.6753    0.6171 H   0  0  0  0  0  0  0  0  0  0  0  0
    5.2111   -0.6000   -1.3409 H   0  0  0  0  0  0  0  0  0  0  0  0
    5.7875   -5.6635   -3.8385 H   0  0  0  0  0  0  0  0  0  0  0  0
    6.4225   -5.5621   -2.1948 H   0  0  0  0  0  0  0  0  0  0  0  0
    7.8120   -7.0109   -3.8212 H   0  0  0  0  0  0  0  0  0  0  0  0
    8.7204   -5.7821   -2.9367 H   0  0  0  0  0  0  0  0  0  0  0  0
    7.6639   -5.4340   -5.8145 H   0  0  0  0  0  0  0  0  0  0  0  0
    9.3259   -5.8790   -5.4033 H   0  0  0  0  0  0  0  0  0  0  0  0
    9.7305   -3.6761   -4.4005 H   0  0  0  0  0  0  0  0  0  0  0  0
    9.0170   -1.8864   -8.3499 H   0  0  0  0  0  0  0  0  0  0  0  0
   11.0520   -1.6921   -9.8275 H   0  0  0  0  0  0  0  0  0  0  0  0
   13.2403   -4.2188   -7.1318 H   0  0  0  0  0  0  0  0  0  0  0  0
   11.2416   -4.4390   -5.6733 H   0  0  0  0  0  0  0  0  0  0  0  0
    4.2210   -4.6917   -2.2368 H   0  0  0  0  0  0  0  0  0  0  0  0
    2.3046   -4.5647   -0.6856 H   0  0  0  0  0  0  0  0  0  0  0  0
    0.6957   -0.5735    0.4549 H   0  0  0  0  0  0  0  0  0  0  0  0
   -1.7894   -3.9599    2.9953 H   0  0  0  0  0  0  0  0  0  0  0  0
   -0.7726   -3.2781    4.2747 H   0  0  0  0  0  0  0  0  0  0  0  0
   -0.3361   -4.8447    3.5379 H   0  0  0  0  0  0  0  0  0  0  0  0
    1.7851   -4.4625    1.7259 H   0  0  0  0  0  0  0  0  0  0  0  0
  1  2  1  0
  1 32  1  0
  1 33  1  0
  1 34  1  0
  2  3  1  0
  3  4  2  0
  3 25  1  0
  4  5  1  0
  4 35  1  0
  5  6  1  0
  5 23  2  0
  6  7  2  0
  6 10  1  0
  7  8  1  0
  8  9  1  0
  9 10  2  0
  9 14  1  0
 10 11  1  0
 11 12  1  0
 11 36  1  0
 11 37  1  0
 12 13  1  0
 12 38  1  0
 12 39  1  0
 13 14  1  0
 13 40  1  0
 13 41  1  0
 14 15  1  0
 14 42  1  1
 15 16  1  0
 16 17  2  0
 16 22  1  0
 17 18  1  0
 17 43  1  0
 18 19  2  0
 18 44  1  0
 19 20  1  0
 19 21  1  0
 21 22  2  0
 21 45  1  0
 22 46  1  0
 23 24  1  0
 23 47  1  0
 24 25  2  0
 24 48  1  0
 25 26  1  0
 26 27  1  0
 26 31  1  0
 27 28  2  0
 27 49  1  0
 28 29  1  0
 29 30  1  0
 29 31  2  0
 30 50  1  0
 30 51  1  0
 30 52  1  0
 31 53  1  0
M  END

