
     RDKit          3D

 41 42  0  0  0  0  0  0  0  0999 V2000
    5.0735   -3.0554    0.0761 C   0  0  0  0  0  0  0  0  0  0  0  0
    4.8187   -2.7765   -1.4068 C   0  0  0  0  0  0  0  0  0  0  0  0
    5.2027   -1.3530   -1.8132 C   0  0  0  0  0  0  0  0  0  0  0  0
    4.8809   -1.0992   -3.5991 S   0  0  0  0  0  0  0  0  0  0  0  0
    5.3632    0.6691   -3.8026 C   0  0  0  0  0  0  0  0  0  0  0  0
    6.8186    0.9678   -3.5453 C   0  0  0  0  0  0  0  0  0  0  0  0
    7.7984    0.6094   -4.4753 C   0  0  0  0  0  0  0  0  0  0  0  0
    9.1619    0.8706   -4.2715 C   0  0  0  0  0  0  0  0  0  0  0  0
   10.1950    0.4382   -5.2917 C   0  0  0  0  0  0  0  0  0  0  0  0
    9.7548    0.6835   -6.6578 N   0  0  0  0  0  0  0  0  0  0  0  0
   10.6457    0.2178   -7.6803 C   0  0  1  0  0  0  0  0  0  0  0  0
   10.7513    0.9561   -8.9791 C   0  0  0  0  0  0  0  0  0  0  0  0
   11.9380    0.9329   -8.0382 C   0  0  0  0  0  0  0  0  0  0  0  0
    9.5346    1.5185   -3.0896 C   0  0  0  0  0  0  0  0  0  0  0  0
    8.5826    1.8847   -2.1327 C   0  0  0  0  0  0  0  0  0  0  0  0
    7.2255    1.6096   -2.3515 C   0  0  0  0  0  0  0  0  0  0  0  0
    6.2369    1.9348   -1.4698 O   0  0  0  0  0  0  0  0  0  0  0  0
    6.5656    2.6000   -0.2728 C   0  0  0  0  0  0  0  0  0  0  0  0
    4.7889   -4.0858    0.3425 H   0  0  0  0  0  0  0  0  0  0  0  0
    4.4929   -2.3730    0.7193 H   0  0  0  0  0  0  0  0  0  0  0  0
    6.1384   -2.9271    0.3325 H   0  0  0  0  0  0  0  0  0  0  0  0
    3.7534   -2.9458   -1.6416 H   0  0  0  0  0  0  0  0  0  0  0  0
    5.3865   -3.4940   -2.0246 H   0  0  0  0  0  0  0  0  0  0  0  0
    6.2714   -1.1718   -1.6109 H   0  0  0  0  0  0  0  0  0  0  0  0
    4.6254   -0.6129   -1.2348 H   0  0  0  0  0  0  0  0  0  0  0  0
    4.7162    1.2898   -3.1693 H   0  0  0  0  0  0  0  0  0  0  0  0
    5.1118    0.8770   -4.8537 H   0  0  0  0  0  0  0  0  0  0  0  0
    7.4950    0.1121   -5.3999 H   0  0  0  0  0  0  0  0  0  0  0  0
   10.3729   -0.6502   -5.1966 H   0  0  0  0  0  0  0  0  0  0  0  0
   11.1685    0.9190   -5.0505 H   0  0  0  0  0  0  0  0  0  0  0  0
    9.5190    1.6659   -6.7876 H   0  0  0  0  0  0  0  0  0  0  0  0
   10.6773   -0.8779   -7.7409 H   0  0  0  0  0  0  0  0  0  0  0  0
   10.1964    1.8955   -9.0764 H   0  0  0  0  0  0  0  0  0  0  0  0
   10.8004    0.3784   -9.9064 H   0  0  0  0  0  0  0  0  0  0  0  0
   12.1693    1.8569   -7.4984 H   0  0  0  0  0  0  0  0  0  0  0  0
   12.8158    0.3410   -8.3154 H   0  0  0  0  0  0  0  0  0  0  0  0
   10.5885    1.7467   -2.9045 H   0  0  0  0  0  0  0  0  0  0  0  0
    8.9091    2.3888   -1.2231 H   0  0  0  0  0  0  0  0  0  0  0  0
    5.6219    2.7618    0.2656 H   0  0  0  0  0  0  0  0  0  0  0  0
    7.0409    3.5795   -0.4629 H   0  0  0  0  0  0  0  0  0  0  0  0
    7.2400    1.9978    0.3628 H   0  0  0  0  0  0  0  0  0  0  0  0
  1  2  1  0
  1 19  1  0
  1 20  1  0
  1 21  1  0
  2  3  1  0
  2 22  1  0
  2 23  1  0
  3  4  1  0
  3 24  1  0
  3 25  1  0
  4  5  1  0
  5  6  1  0
  5 26  1  0
  5 27  1  0
  6  7  2  0
  6 16  1  0
  7  8  1  0
  7 28  1  0
  8  9  1  0
  8 14  2  0
  9 10  1  0
  9 29  1  0
  9 30  1  0
 10 11  1  0
 10 31  1  0
 11 12  1  0
 11 13  1  0
 11 32  1  6
 12 13  1  0
 12 33  1  0
 12 34  1  0
 13 35  1  0
 13 36  1  0
 14 15  1  0
 14 37  1  0
 15 16  2  0
 15 38  1  0
 16 17  1  0
 17 18  1  0
 18 39  1  0
 18 40  1  0
 18 41  1  0
M  END

