
     RDKit          3D

 86 89  0  0  0  0  0  0  0  0999 V2000
    1.0334   -1.8729    0.8066 C   0  0  0  0  0  0  0  0  0  0  0  0
    2.3334   -1.3899    0.5499 O   0  0  0  0  0  0  0  0  0  0  0  0
    2.5272   -0.4720   -0.4413 C   0  0  0  0  0  0  0  0  0  0  0  0
    1.4896    0.0891   -1.2013 C   0  0  0  0  0  0  0  0  0  0  0  0
    1.7708    1.0594   -2.1675 C   0  0  0  0  0  0  0  0  0  0  0  0
    3.0789    1.4999   -2.4115 C   0  0  0  0  0  0  0  0  0  0  0  0
    3.3457    2.6476   -3.3856 C   0  0  0  0  0  0  0  0  0  0  0  0
    4.7425    2.8263   -3.9314 C   0  0  0  0  0  0  0  0  0  0  0  0
    4.1491    4.6369   -6.3820 P   0  0  0  0  0  0  0  0  0  0  0  0
    3.5186    5.6689   -5.2661 O   0  0  0  0  0  0  0  0  0  0  0  0
    4.0826    5.7246   -7.6883 O   0  0  0  0  0  0  0  0  0  0  0  0
    5.3478    5.9422   -8.3138 C   0  0  1  0  0  0  0  0  0  0  0  0
    5.3060    7.2227   -9.1272 C   0  0  0  0  0  0  0  0  0  0  0  0
    6.3775    5.8807   -7.1618 C   0  0  1  0  0  0  0  0  0  0  0  0
    6.5961    7.1647   -6.3689 C   0  0  0  0  0  0  0  0  0  0  0  0
    5.8597    4.8411   -6.3103 O   0  0  0  0  0  0  0  0  0  0  0  0
    5.9779    3.5905   -3.1217 P   0  0  2  0  0  0  0  0  0  0  0  0
    7.1538    4.0212   -4.1211 O   0  0  0  0  0  0  0  0  0  0  0  0
    6.9235    2.9792   -1.9017 O   0  0  0  0  0  0  0  0  0  0  0  0
    6.5447    3.5201   -0.6224 C   0  0  1  0  0  0  0  0  0  0  0  0
    7.6893    3.3620    0.3569 C   0  0  0  0  0  0  0  0  0  0  0  0
    6.0737    4.9594   -0.9464 C   0  0  1  0  0  0  0  0  0  0  0  0
    7.1687    6.0124   -1.0503 C   0  0  0  0  0  0  0  0  0  0  0  0
    5.3988    4.8268   -2.2186 O   0  0  0  0  0  0  0  0  0  0  0  0
    4.1006    0.9059   -1.6624 C   0  0  0  0  0  0  0  0  0  0  0  0
    3.8563   -0.0711   -0.6897 C   0  0  0  0  0  0  0  0  0  0  0  0
    5.0355   -0.5135    0.1463 C   0  0  0  0  0  0  0  0  0  0  0  0
    5.7079    0.3357    0.7341 O   0  0  0  0  0  0  0  0  0  0  0  0
    5.3562   -1.8385    0.2131 N   0  0  0  0  0  0  0  0  0  0  0  0
    4.7166   -2.8900   -0.5599 C   0  0  0  0  0  0  0  0  0  0  0  0
    6.4832   -2.2272    1.0638 C   0  0  0  0  0  0  0  0  0  0  0  0
    6.2450   -2.0300    2.5731 C   0  0  0  0  0  0  0  0  0  0  0  0
    4.9949   -2.6759    3.0799 C   0  0  0  0  0  0  0  0  0  0  0  0
    4.8121   -4.0504    3.0664 N   0  0  0  0  0  0  0  0  0  0  0  0
    3.6198   -4.2491    3.5484 C   0  0  0  0  0  0  0  0  0  0  0  0
    2.9261   -5.5190    3.7595 C   0  0  0  0  0  0  0  0  0  0  0  0
    3.5621   -6.7208    3.3950 C   0  0  0  0  0  0  0  0  0  0  0  0
    2.9178   -7.9417    3.5875 C   0  0  0  0  0  0  0  0  0  0  0  0
    1.6341   -7.9833    4.1453 C   0  0  0  0  0  0  0  0  0  0  0  0
    0.9986   -6.7925    4.5116 C   0  0  0  0  0  0  0  0  0  0  0  0
    1.6375   -5.5659    4.3220 C   0  0  0  0  0  0  0  0  0  0  0  0
    2.9828   -3.0939    3.8806 O   0  0  0  0  0  0  0  0  0  0  0  0
    3.8633   -2.0860    3.5773 C   0  0  0  0  0  0  0  0  0  0  0  0
    3.4326   -0.6861    3.8192 C   0  0  0  0  0  0  0  0  0  0  0  0
    1.1273   -2.5921    1.6310 H   0  0  0  0  0  0  0  0  0  0  0  0
    0.6041   -2.3845   -0.0738 H   0  0  0  0  0  0  0  0  0  0  0  0
    0.3468   -1.0638    1.1145 H   0  0  0  0  0  0  0  0  0  0  0  0
    0.4553   -0.2134   -1.0355 H   0  0  0  0  0  0  0  0  0  0  0  0
    0.9411    1.4928   -2.7351 H   0  0  0  0  0  0  0  0  0  0  0  0
    3.0378    3.5842   -2.8863 H   0  0  0  0  0  0  0  0  0  0  0  0
    2.6477    2.5469   -4.2361 H   0  0  0  0  0  0  0  0  0  0  0  0
    5.0988    2.1345   -4.7018 H   0  0  0  0  0  0  0  0  0  0  0  0
    3.5683    6.5947   -5.5540 H   0  0  0  0  0  0  0  0  0  0  0  0
    5.5607    5.0928   -8.9923 H   0  0  0  0  0  0  0  0  0  0  0  0
    5.0530    8.0885   -8.4976 H   0  0  0  0  0  0  0  0  0  0  0  0
    4.5416    7.1393   -9.9136 H   0  0  0  0  0  0  0  0  0  0  0  0
    6.2783    7.4083   -9.6111 H   0  0  0  0  0  0  0  0  0  0  0  0
    7.3443    5.5195   -7.5495 H   0  0  0  0  0  0  0  0  0  0  0  0
    5.6440    7.6025   -6.0329 H   0  0  0  0  0  0  0  0  0  0  0  0
    7.1309    7.9177   -6.9681 H   0  0  0  0  0  0  0  0  0  0  0  0
    7.1980    6.9436   -5.4750 H   0  0  0  0  0  0  0  0  0  0  0  0
    6.7511    4.2844   -4.9906 H   0  0  0  0  0  0  0  0  0  0  0  0
    5.6824    2.9440   -0.2431 H   0  0  0  0  0  0  0  0  0  0  0  0
    8.6164    3.8123   -0.0273 H   0  0  0  0  0  0  0  0  0  0  0  0
    7.8568    2.2914    0.5403 H   0  0  0  0  0  0  0  0  0  0  0  0
    7.4337    3.8322    1.3204 H   0  0  0  0  0  0  0  0  0  0  0  0
    5.3072    5.2757   -0.2212 H   0  0  0  0  0  0  0  0  0  0  0  0
    7.9655    5.6884   -1.7369 H   0  0  0  0  0  0  0  0  0  0  0  0
    7.6148    6.2150   -0.0644 H   0  0  0  0  0  0  0  0  0  0  0  0
    6.7415    6.9511   -1.4338 H   0  0  0  0  0  0  0  0  0  0  0  0
    5.1338    1.2115   -1.8306 H   0  0  0  0  0  0  0  0  0  0  0  0
    4.0100   -2.4603   -1.2781 H   0  0  0  0  0  0  0  0  0  0  0  0
    4.1776   -3.5969    0.0911 H   0  0  0  0  0  0  0  0  0  0  0  0
    5.4766   -3.4537   -1.1282 H   0  0  0  0  0  0  0  0  0  0  0  0
    7.3743   -1.6460    0.7742 H   0  0  0  0  0  0  0  0  0  0  0  0
    6.6873   -3.2885    0.8645 H   0  0  0  0  0  0  0  0  0  0  0  0
    6.2213   -0.9538    2.7861 H   0  0  0  0  0  0  0  0  0  0  0  0
    7.1168   -2.4524    3.1024 H   0  0  0  0  0  0  0  0  0  0  0  0
    4.5634   -6.6725    2.9632 H   0  0  0  0  0  0  0  0  0  0  0  0
    3.4197   -8.8696    3.3014 H   0  0  0  0  0  0  0  0  0  0  0  0
    1.1316   -8.9422    4.2956 H   0  0  0  0  0  0  0  0  0  0  0  0
   -0.0021   -6.8190    4.9504 H   0  0  0  0  0  0  0  0  0  0  0  0
    1.1445   -4.6365    4.6127 H   0  0  0  0  0  0  0  0  0  0  0  0
    3.2802   -0.4842    4.8933 H   0  0  0  0  0  0  0  0  0  0  0  0
    2.4867   -0.4715    3.2971 H   0  0  0  0  0  0  0  0  0  0  0  0
    4.1886    0.0102    3.4324 H   0  0  0  0  0  0  0  0  0  0  0  0
  1  2  1  0
  1 45  1  0
  1 46  1  0
  1 47  1  0
  2  3  1  0
  3  4  2  0
  3 26  1  0
  4  5  1  0
  4 48  1  0
  5  6  2  0
  5 49  1  0
  6  7  1  0
  6 25  1  0
  7  8  1  0
  7 50  1  0
  7 51  1  0
  8 17  2  0
  8 52  1  0
  9 10  1  0
  9 11  1  0
  9 16  1  0
 10 53  1  0
 11 12  1  0
 12 13  1  0
 12 14  1  0
 12 54  1  6
 13 55  1  0
 13 56  1  0
 13 57  1  0
 14 15  1  0
 14 16  1  0
 14 58  1  6
 15 59  1  0
 15 60  1  0
 15 61  1  0
 17 18  1  6
 17 19  1  0
 17 24  1  0
 18 62  1  0
 19 20  1  0
 20 21  1  0
 20 22  1  0
 20 63  1  1
 21 64  1  0
 21 65  1  0
 21 66  1  0
 22 23  1  0
 22 24  1  0
 22 67  1  1
 23 68  1  0
 23 69  1  0
 23 70  1  0
 25 26  2  0
 25 71  1  0
 26 27  1  0
 27 28  2  0
 27 29  1  0
 29 30  1  0
 29 31  1  0
 30 72  1  0
 30 73  1  0
 30 74  1  0
 31 32  1  0
 31 75  1  0
 31 76  1  0
 32 33  1  0
 32 77  1  0
 32 78  1  0
 33 34  1  0
 33 43  2  0
 34 35  2  0
 35 36  1  0
 35 42  1  0
 36 37  2  0
 36 41  1  0
 37 38  1  0
 37 79  1  0
 38 39  2  0
 38 80  1  0
 39 40  1  0
 39 81  1  0
 40 41  2  0
 40 82  1  0
 41 83  1  0
 42 43  1  0
 43 44  1  0
 44 84  1  0
 44 85  1  0
 44 86  1  0
M  END

