
     RDKit          3D

 38 41  0  0  0  0  0  0  0  0999 V2000
    1.2831   -0.1676   -0.2779 C   0  0  0  0  0  0  0  0  0  0  0  0
    0.3133    0.3530    0.5105 C   0  0  0  0  0  0  0  0  0  0  0  0
   -1.1155    0.4284    0.1982 C   0  0  0  0  0  0  0  0  0  0  0  0
   -1.5654    0.3436   -1.1185 C   0  0  0  0  0  0  0  0  0  0  0  0
   -2.9337    0.4227   -1.4475 C   0  0  0  0  0  0  0  0  0  0  0  0
   -3.8771    0.5995   -0.4570 C   0  0  0  0  0  0  0  0  0  0  0  0
   -3.4836    0.6991    0.9050 C   0  0  0  0  0  0  0  0  0  0  0  0
   -4.4497    0.8802    1.9354 C   0  0  0  0  0  0  0  0  0  0  0  0
   -4.0729    0.9660    3.2576 C   0  0  0  0  0  0  0  0  0  0  0  0
   -2.7038    0.8684    3.6050 C   0  0  0  0  0  0  0  0  0  0  0  0
   -1.7427    0.6925    2.6301 C   0  0  0  0  0  0  0  0  0  0  0  0
   -2.0899    0.6104    1.2510 C   0  0  0  0  0  0  0  0  0  0  0  0
    2.6774   -0.1710    0.0998 C   0  0  0  0  0  0  0  0  0  0  0  0
    3.2521    0.3027    1.1762 N   0  0  0  0  0  0  0  0  0  0  0  0
    4.5843    0.0256    1.0230 C   0  0  0  0  0  0  0  0  0  0  0  0
    4.7925   -0.6243   -0.1733 C   0  0  0  0  0  0  0  0  0  0  0  0
    5.9585   -1.1537   -0.8667 C   0  0  0  0  0  0  0  0  0  0  0  0
    7.2424   -1.0437   -0.2943 C   0  0  0  0  0  0  0  0  0  0  0  0
    8.3595   -1.5500   -0.9560 C   0  0  0  0  0  0  0  0  0  0  0  0
    8.2215   -2.1758   -2.2006 C   0  0  0  0  0  0  0  0  0  0  0  0
    6.9526   -2.2898   -2.7767 C   0  0  0  0  0  0  0  0  0  0  0  0
    5.8299   -1.7851   -2.1196 C   0  0  0  0  0  0  0  0  0  0  0  0
    3.5632   -0.7474   -0.7603 O   0  0  0  0  0  0  0  0  0  0  0  0
    1.0601   -0.6310   -1.2419 H   0  0  0  0  0  0  0  0  0  0  0  0
    0.6455    0.7551    1.4704 H   0  0  0  0  0  0  0  0  0  0  0  0
   -0.8377    0.2402   -1.9260 H   0  0  0  0  0  0  0  0  0  0  0  0
   -3.2392    0.3562   -2.4947 H   0  0  0  0  0  0  0  0  0  0  0  0
   -4.9393    0.6699   -0.7057 H   0  0  0  0  0  0  0  0  0  0  0  0
   -5.5043    0.9481    1.6544 H   0  0  0  0  0  0  0  0  0  0  0  0
   -4.8250    1.1050    4.0382 H   0  0  0  0  0  0  0  0  0  0  0  0
   -2.4052    0.9295    4.6546 H   0  0  0  0  0  0  0  0  0  0  0  0
   -0.6987    0.6080    2.9324 H   0  0  0  0  0  0  0  0  0  0  0  0
    5.3205    0.3062    1.7741 H   0  0  0  0  0  0  0  0  0  0  0  0
    7.3657   -0.5578    0.6763 H   0  0  0  0  0  0  0  0  0  0  0  0
    9.3470   -1.4557   -0.4971 H   0  0  0  0  0  0  0  0  0  0  0  0
    9.0991   -2.5719   -2.7173 H   0  0  0  0  0  0  0  0  0  0  0  0
    6.8348   -2.7768   -3.7481 H   0  0  0  0  0  0  0  0  0  0  0  0
    4.8413   -1.8762   -2.5723 H   0  0  0  0  0  0  0  0  0  0  0  0
  1  2  2  0
  1 13  1  0
  1 24  1  0
  2  3  1  0
  2 25  1  0
  3  4  2  0
  3 12  1  0
  4  5  1  0
  4 26  1  0
  5  6  2  0
  5 27  1  0
  6  7  1  0
  6 28  1  0
  7  8  1  0
  7 12  2  0
  8  9  2  0
  8 29  1  0
  9 10  1  0
  9 30  1  0
 10 11  2  0
 10 31  1  0
 11 12  1  0
 11 32  1  0
 13 14  2  0
 13 23  1  0
 14 15  1  0
 15 16  2  0
 15 33  1  0
 16 17  1  0
 16 23  1  0
 17 18  2  0
 17 22  1  0
 18 19  1  0
 18 34  1  0
 19 20  2  0
 19 35  1  0
 20 21  1  0
 20 36  1  0
 21 22  2  0
 21 37  1  0
 22 38  1  0
M  END

