
     RDKit          3D

 35 36  0  0  0  0  0  0  0  0999 V2000
    2.7780   -0.4637   -0.2350 C   0  0  0  0  0  0  0  0  0  0  0  0
    3.8990   -0.0415    0.7171 C   0  0  1  0  0  0  0  0  0  0  0  0
    5.1004   -0.9952    0.6564 C   0  0  0  0  0  0  0  0  0  0  0  0
    4.2616    1.3475    0.4233 N   0  0  0  0  0  0  0  0  0  0  0  0
    5.0523    2.1556    1.2184 C   0  0  0  0  0  0  0  0  0  0  0  0
    5.1847    1.7599    2.5449 N   0  0  0  0  0  0  0  0  0  0  0  0
    5.6710    3.2159    0.8243 N   0  0  0  0  0  0  0  0  0  0  0  0
    5.6049    3.5783   -0.5477 C   0  0  2  0  0  0  0  0  0  0  0  0
    4.6011    3.8051   -0.9455 H   0  0  0  0  0  0  0  0  0  0  0  0
    6.5940    3.0278   -1.5550 C   0  0  0  0  0  0  0  0  0  0  0  0
    6.7025    4.4704   -1.0984 C   0  0  1  0  0  0  0  0  0  0  0  0
    7.4892    4.6624   -0.3635 H   0  0  0  0  0  0  0  0  0  0  0  0
    6.4152    5.6209   -1.9975 C   0  0  0  0  0  0  0  0  0  0  0  0
    7.0489    6.8567   -1.7754 C   0  0  0  0  0  0  0  0  0  0  0  0
    6.7912    7.9626   -2.5862 C   0  0  0  0  0  0  0  0  0  0  0  0
    5.8872    7.8628   -3.6466 C   0  0  0  0  0  0  0  0  0  0  0  0
    5.5449    9.2244   -4.6773 Cl  0  0  0  0  0  0  0  0  0  0  0  0
    5.2533    6.6365   -3.8753 C   0  0  0  0  0  0  0  0  0  0  0  0
    4.3864    6.5159   -4.8859 F   0  0  0  0  0  0  0  0  0  0  0  0
    5.5109    5.5323   -3.0700 C   0  0  0  0  0  0  0  0  0  0  0  0
    2.4412   -1.4878   -0.0136 H   0  0  0  0  0  0  0  0  0  0  0  0
    3.1276   -0.4502   -1.2821 H   0  0  0  0  0  0  0  0  0  0  0  0
    1.9150    0.2145   -0.1539 H   0  0  0  0  0  0  0  0  0  0  0  0
    3.4879   -0.0718    1.7411 H   0  0  0  0  0  0  0  0  0  0  0  0
    5.5321   -1.0100   -0.3585 H   0  0  0  0  0  0  0  0  0  0  0  0
    4.8011   -2.0242    0.9139 H   0  0  0  0  0  0  0  0  0  0  0  0
    5.8817   -0.6758    1.3616 H   0  0  0  0  0  0  0  0  0  0  0  0
    4.3491    1.5558   -0.5660 H   0  0  0  0  0  0  0  0  0  0  0  0
    4.3527    1.3805    2.9858 H   0  0  0  0  0  0  0  0  0  0  0  0
    5.6249    2.4894    3.0976 H   0  0  0  0  0  0  0  0  0  0  0  0
    6.2688    2.8406   -2.5836 H   0  0  0  0  0  0  0  0  0  0  0  0
    7.3516    2.3340   -1.1806 H   0  0  0  0  0  0  0  0  0  0  0  0
    7.7582    6.9544   -0.9502 H   0  0  0  0  0  0  0  0  0  0  0  0
    7.2893    8.9168   -2.4050 H   0  0  0  0  0  0  0  0  0  0  0  0
    4.9859    4.6053   -3.3091 H   0  0  0  0  0  0  0  0  0  0  0  0
  1  2  1  0
  1 21  1  0
  1 22  1  0
  1 23  1  0
  2  3  1  0
  2  4  1  0
  2 24  1  1
  3 25  1  0
  3 26  1  0
  3 27  1  0
  4  5  1  0
  4 28  1  0
  5  6  1  0
  5  7  2  0
  6 29  1  0
  6 30  1  0
  7  8  1  0
  8  9  1  6
  8 10  1  0
  8 11  1  0
 10 11  1  0
 10 31  1  0
 10 32  1  0
 11 12  1  1
 11 13  1  0
 13 14  2  0
 13 20  1  0
 14 15  1  0
 14 33  1  0
 15 16  2  0
 15 34  1  0
 16 17  1  0
 16 18  1  0
 18 19  1  0
 18 20  2  0
 20 35  1  0
M  END

