
     RDKit          3D

 28 29  0  0  0  0  0  0  0  0999 V2000
    4.7828   -2.4268    0.1421 N   0  0  0  0  0  0  0  0  0  0  0  0
    4.1933   -1.1809    0.0402 C   0  0  0  0  0  0  0  0  0  0  0  0
    4.9182    0.0166    0.0269 C   0  0  0  0  0  0  0  0  0  0  0  0
    4.3147    1.2775   -0.1323 C   0  0  0  0  0  0  0  0  0  0  0  0
    5.2648    2.4562   -0.1172 C   0  0  0  0  0  0  0  0  0  0  0  0
    6.4616    2.2661    0.0387 O   0  0  0  0  0  0  0  0  0  0  0  0
    4.7071    3.7023   -0.2854 N   0  0  0  0  0  0  0  0  0  0  0  0
    5.3571    4.9443   -0.3121 C   0  0  0  0  0  0  0  0  0  0  0  0
    6.7525    5.0920   -0.1656 C   0  0  0  0  0  0  0  0  0  0  0  0
    7.3451    6.3538   -0.2007 C   0  0  0  0  0  0  0  0  0  0  0  0
    6.5757    7.5048   -0.3815 C   0  0  0  0  0  0  0  0  0  0  0  0
    5.1929    7.3835   -0.5290 C   0  0  0  0  0  0  0  0  0  0  0  0
    4.5959    6.1236   -0.4945 C   0  0  0  0  0  0  0  0  0  0  0  0
    2.6926    6.0306   -0.7039 Br  0  0  0  0  0  0  0  0  0  0  0  0
    2.9219    1.3073   -0.2823 C   0  0  0  0  0  0  0  0  0  0  0  0
    2.2596    2.4778   -0.4405 F   0  0  0  0  0  0  0  0  0  0  0  0
    2.1547    0.1453   -0.2701 C   0  0  0  0  0  0  0  0  0  0  0  0
    2.7959   -1.0722   -0.1109 C   0  0  0  0  0  0  0  0  0  0  0  0
    2.0742   -2.2071   -0.0842 F   0  0  0  0  0  0  0  0  0  0  0  0
    5.7109   -2.4618    0.5451 H   0  0  0  0  0  0  0  0  0  0  0  0
    4.1760   -3.1890    0.4192 H   0  0  0  0  0  0  0  0  0  0  0  0
    6.0037    0.0057    0.1406 H   0  0  0  0  0  0  0  0  0  0  0  0
    3.6987    3.7414   -0.4053 H   0  0  0  0  0  0  0  0  0  0  0  0
    7.3502    4.1956   -0.0249 H   0  0  0  0  0  0  0  0  0  0  0  0
    8.4289    6.4312   -0.0839 H   0  0  0  0  0  0  0  0  0  0  0  0
    7.0411    8.4926   -0.4087 H   0  0  0  0  0  0  0  0  0  0  0  0
    4.5677    8.2664   -0.6719 H   0  0  0  0  0  0  0  0  0  0  0  0
    1.0710    0.1931   -0.3815 H   0  0  0  0  0  0  0  0  0  0  0  0
  1  2  1  0
  1 20  1  0
  1 21  1  0
  2  3  2  0
  2 18  1  0
  3  4  1  0
  3 22  1  0
  4  5  1  0
  4 15  2  0
  5  6  2  0
  5  7  1  0
  7  8  1  0
  7 23  1  0
  8  9  2  0
  8 13  1  0
  9 10  1  0
  9 24  1  0
 10 11  2  0
 10 25  1  0
 11 12  1  0
 11 26  1  0
 12 13  2  0
 12 27  1  0
 13 14  1  0
 15 16  1  0
 15 17  1  0
 17 18  2  0
 17 28  1  0
 18 19  1  0
M  END

