
     RDKit          3D

 44 45  0  0  0  0  0  0  0  0999 V2000
    2.1141   -0.2784   -2.0211 C   0  0  0  0  0  0  0  0  0  0  0  0
    2.2476   -0.0201   -0.5295 C   0  0  1  0  0  0  0  0  0  0  0  0
    2.3460   -1.2567    0.1031 O   0  0  0  0  0  0  0  0  0  0  0  0
    2.3387   -1.2314    1.5155 C   0  0  0  0  0  0  0  0  0  0  0  0
    2.4717   -2.6718    2.0043 C   0  0  0  0  0  0  0  0  0  0  0  0
    2.4267   -2.7546    3.4594 N   0  0  0  0  0  0  0  0  0  0  0  0
    1.1027   -2.8767    4.0491 C   0  0  0  0  0  0  0  0  0  0  0  0
    0.4989   -4.2953    3.9748 C   0  0  0  0  0  0  0  0  0  0  0  0
    1.5767   -5.4886    4.8202 S   0  0  2  0  0  0  0  0  0  0  0  0
    1.1732   -6.8535    4.4612 O   0  0  0  0  0  0  0  0  0  0  0  0
    1.6694   -5.0716    6.2308 O   0  0  0  0  0  0  0  0  0  0  0  0
    3.1683   -5.0955    4.0373 C   0  0  0  0  0  0  0  0  0  0  0  0
    3.4336   -3.5771    4.1082 C   0  0  0  0  0  0  0  0  0  0  0  0
    3.4119    0.7323   -0.2379 O   0  0  0  0  0  0  0  0  0  0  0  0
    3.2864    2.1414   -0.2458 C   0  0  1  0  0  0  0  0  0  0  0  0
    2.7692    2.7671    1.0609 C   0  0  0  0  0  0  0  0  0  0  0  0
    3.1720    4.2420    0.9175 C   0  0  0  0  0  0  0  0  0  0  0  0
    4.5338    4.2176    0.1643 C   0  0  0  0  0  0  0  0  0  0  0  0
    4.6670    2.7898   -0.4222 C   0  0  0  0  0  0  0  0  0  0  0  0
    1.2121   -0.8726   -2.2307 H   0  0  0  0  0  0  0  0  0  0  0  0
    2.9980   -0.8340   -2.3675 H   0  0  0  0  0  0  0  0  0  0  0  0
    2.0489    0.6692   -2.5763 H   0  0  0  0  0  0  0  0  0  0  0  0
    1.3586    0.5296   -0.1445 H   0  0  0  0  0  0  0  0  0  0  0  0
    1.3963   -0.7784    1.8882 H   0  0  0  0  0  0  0  0  0  0  0  0
    3.1728   -0.6261    1.9084 H   0  0  0  0  0  0  0  0  0  0  0  0
    3.4367   -3.0607    1.6436 H   0  0  0  0  0  0  0  0  0  0  0  0
    1.6929   -3.2846    1.5059 H   0  0  0  0  0  0  0  0  0  0  0  0
    0.4142   -2.1745    3.5532 H   0  0  0  0  0  0  0  0  0  0  0  0
    1.1505   -2.5818    5.1105 H   0  0  0  0  0  0  0  0  0  0  0  0
    0.3731   -4.6622    2.9451 H   0  0  0  0  0  0  0  0  0  0  0  0
   -0.4650   -4.3703    4.5014 H   0  0  0  0  0  0  0  0  0  0  0  0
    3.1188   -5.4803    3.0072 H   0  0  0  0  0  0  0  0  0  0  0  0
    3.9083   -5.6806    4.6050 H   0  0  0  0  0  0  0  0  0  0  0  0
    4.4179   -3.3654    3.6618 H   0  0  0  0  0  0  0  0  0  0  0  0
    3.4950   -3.2948    5.1726 H   0  0  0  0  0  0  0  0  0  0  0  0
    2.6248    2.4578   -1.0781 H   0  0  0  0  0  0  0  0  0  0  0  0
    3.3044    2.2924    1.9018 H   0  0  0  0  0  0  0  0  0  0  0  0
    1.6899    2.6239    1.2275 H   0  0  0  0  0  0  0  0  0  0  0  0
    3.2270    4.7630    1.8854 H   0  0  0  0  0  0  0  0  0  0  0  0
    2.4170    4.7755    0.3161 H   0  0  0  0  0  0  0  0  0  0  0  0
    5.3702    4.4390    0.8450 H   0  0  0  0  0  0  0  0  0  0  0  0
    4.5632    4.9880   -0.6216 H   0  0  0  0  0  0  0  0  0  0  0  0
    5.3835    2.1858    0.1575 H   0  0  0  0  0  0  0  0  0  0  0  0
    5.0045    2.7721   -1.4693 H   0  0  0  0  0  0  0  0  0  0  0  0
  1  2  1  0
  1 20  1  0
  1 21  1  0
  1 22  1  0
  2  3  1  0
  2 14  1  0
  2 23  1  1
  3  4  1  0
  4  5  1  0
  4 24  1  0
  4 25  1  0
  5  6  1  0
  5 26  1  0
  5 27  1  0
  6  7  1  0
  6 13  1  0
  7  8  1  0
  7 28  1  0
  7 29  1  0
  9  8  1  6
  8 30  1  0
  8 31  1  0
  9 10  2  0
  9 11  2  0
  9 12  1  0
 12 13  1  0
 12 32  1  0
 12 33  1  0
 13 34  1  0
 13 35  1  0
 14 15  1  0
 15 16  1  0
 15 19  1  0
 15 36  1  6
 16 17  1  0
 16 37  1  0
 16 38  1  0
 17 18  1  0
 17 39  1  0
 17 40  1  0
 18 19  1  0
 18 41  1  0
 18 42  1  0
 19 43  1  0
 19 44  1  0
M  END

