
     RDKit          3D

 55 58  0  0  0  0  0  0  0  0999 V2000
    1.2332    0.4543    0.1105 N   0  0  0  0  0  0  0  0  0  0  0  0
    1.3305    1.4958   -0.8901 C   0  0  1  0  0  0  0  0  0  0  0  0
    2.1724    0.9648   -2.0187 C   0  0  0  0  0  0  0  0  0  0  0  0
    3.1406    1.6310   -2.5906 N   0  0  0  0  0  0  0  0  0  0  0  0
    3.5888    0.7653   -3.5881 O   0  0  0  0  0  0  0  0  0  0  0  0
    2.8415   -0.3455   -3.5137 C   0  0  0  0  0  0  0  0  0  0  0  0
    3.0873   -1.4408   -4.5136 C   0  0  1  0  0  0  0  0  0  0  0  0
    4.5951   -1.6688   -4.7710 C   0  0  0  0  0  0  0  0  0  0  0  0
    5.2858   -2.3663   -3.5920 C   0  0  0  0  0  0  0  0  0  0  0  0
    4.5992   -3.6914   -3.2039 C   0  0  2  0  0  0  0  0  0  0  0  0
    4.8150   -4.7326   -4.2055 N   0  0  0  0  0  0  0  0  0  0  0  0
    5.5651   -5.8539   -3.9676 C   0  0  0  0  0  0  0  0  0  0  0  0
    6.0983   -6.0798   -2.8932 O   0  0  0  0  0  0  0  0  0  0  0  0
    5.7137   -6.8006   -5.1584 C   0  0  0  0  0  0  0  0  0  0  0  0
    5.6595   -8.2725   -4.7504 C   0  0  1  0  0  0  0  0  0  0  0  0
    4.2863   -8.7617   -4.2502 C   0  0  0  0  0  0  0  0  0  0  0  0
    4.3382  -10.3069   -4.3606 C   0  0  0  0  0  0  0  0  0  0  0  0
    5.5393  -10.6263   -5.2980 C   0  0  0  0  0  0  0  0  0  0  0  0
    5.9793   -9.2692   -5.8756 C   0  0  0  0  0  0  0  0  0  0  0  0
    3.1006   -3.4567   -2.9361 C   0  0  0  0  0  0  0  0  0  0  0  0
    2.3881   -2.7515   -4.0996 C   0  0  0  0  0  0  0  0  0  0  0  0
    1.9511   -0.2800   -2.5685 N   0  0  0  0  0  0  0  0  0  0  0  0
    0.0338    2.1996   -1.4575 C   0  0  0  0  0  0  0  0  0  0  0  0
    0.7434    3.5660   -1.3044 C   0  0  0  0  0  0  0  0  0  0  0  0
    1.7913    2.8919   -0.3842 C   0  0  0  0  0  0  0  0  0  0  0  0
    0.9400   -0.4234   -0.3206 H   0  0  0  0  0  0  0  0  0  0  0  0
    0.5366    0.7002    0.8127 H   0  0  0  0  0  0  0  0  0  0  0  0
    2.6323   -1.0816   -5.4555 H   0  0  0  0  0  0  0  0  0  0  0  0
    5.0888   -0.7116   -4.9962 H   0  0  0  0  0  0  0  0  0  0  0  0
    4.6931   -2.2860   -5.6810 H   0  0  0  0  0  0  0  0  0  0  0  0
    5.2759   -1.6983   -2.7129 H   0  0  0  0  0  0  0  0  0  0  0  0
    6.3450   -2.5550   -3.8283 H   0  0  0  0  0  0  0  0  0  0  0  0
    5.0734   -4.0870   -2.2951 H   0  0  0  0  0  0  0  0  0  0  0  0
    4.3975   -4.6300   -5.1218 H   0  0  0  0  0  0  0  0  0  0  0  0
    6.6981   -6.5825   -5.6108 H   0  0  0  0  0  0  0  0  0  0  0  0
    4.9563   -6.5858   -5.9335 H   0  0  0  0  0  0  0  0  0  0  0  0
    6.3930   -8.4081   -3.9365 H   0  0  0  0  0  0  0  0  0  0  0  0
    3.4979   -8.3604   -4.9127 H   0  0  0  0  0  0  0  0  0  0  0  0
    4.0622   -8.4102   -3.2317 H   0  0  0  0  0  0  0  0  0  0  0  0
    3.3924  -10.7092   -4.7559 H   0  0  0  0  0  0  0  0  0  0  0  0
    4.4824  -10.7709   -3.3725 H   0  0  0  0  0  0  0  0  0  0  0  0
    5.2866  -11.3574   -6.0816 H   0  0  0  0  0  0  0  0  0  0  0  0
    6.3666  -11.0625   -4.7149 H   0  0  0  0  0  0  0  0  0  0  0  0
    5.3786   -9.0188   -6.7699 H   0  0  0  0  0  0  0  0  0  0  0  0
    7.0380   -9.2517   -6.1821 H   0  0  0  0  0  0  0  0  0  0  0  0
    3.0015   -2.8384   -2.0289 H   0  0  0  0  0  0  0  0  0  0  0  0
    2.6100   -4.4189   -2.7190 H   0  0  0  0  0  0  0  0  0  0  0  0
    1.3407   -2.5476   -3.8325 H   0  0  0  0  0  0  0  0  0  0  0  0
    2.3608   -3.4129   -4.9838 H   0  0  0  0  0  0  0  0  0  0  0  0
   -0.7948    2.0739   -0.7420 H   0  0  0  0  0  0  0  0  0  0  0  0
   -0.3163    1.8970   -2.4568 H   0  0  0  0  0  0  0  0  0  0  0  0
    0.1527    4.3874   -0.8726 H   0  0  0  0  0  0  0  0  0  0  0  0
    1.1885    3.9130   -2.2484 H   0  0  0  0  0  0  0  0  0  0  0  0
    1.5413    2.9978    0.6827 H   0  0  0  0  0  0  0  0  0  0  0  0
    2.8504    3.1453   -0.5295 H   0  0  0  0  0  0  0  0  0  0  0  0
  2  1  1  1
  1 26  1  0
  1 27  1  0
  2  3  1  0
  2 23  1  0
  2 25  1  0
  3  4  2  0
  3 22  1  0
  4  5  1  0
  5  6  1  0
  6  7  1  0
  6 22  2  0
  7  8  1  0
  7 21  1  0
  7 28  1  6
  8  9  1  0
  8 29  1  0
  8 30  1  0
  9 10  1  0
  9 31  1  0
  9 32  1  0
 10 11  1  0
 10 20  1  0
 10 33  1  1
 11 12  1  0
 11 34  1  0
 12 13  2  0
 12 14  1  0
 14 15  1  0
 14 35  1  0
 14 36  1  0
 15 16  1  0
 15 19  1  0
 15 37  1  1
 16 17  1  0
 16 38  1  0
 16 39  1  0
 17 18  1  0
 17 40  1  0
 17 41  1  0
 18 19  1  0
 18 42  1  0
 18 43  1  0
 19 44  1  0
 19 45  1  0
 20 21  1  0
 20 46  1  0
 20 47  1  0
 21 48  1  0
 21 49  1  0
 23 24  1  0
 23 50  1  0
 23 51  1  0
 24 25  1  0
 24 52  1  0
 24 53  1  0
 25 54  1  0
 25 55  1  0
M  END

