
     RDKit          3D

 42 44  0  0  0  0  0  0  0  0999 V2000
    1.0189   -0.0243   -0.0616 C   0  0  0  0  0  0  0  0  0  0  0  0
    2.5209   -0.0272   -0.2239 C   0  0  0  0  0  0  0  0  0  0  0  0
    3.1748    1.1759   -0.5421 C   0  0  0  0  0  0  0  0  0  0  0  0
    4.5510    1.2684   -0.7065 C   0  0  0  0  0  0  0  0  0  0  0  0
    5.3723    0.1284   -0.5604 C   0  0  0  0  0  0  0  0  0  0  0  0
    6.7438    0.2440   -0.7217 N   0  0  0  0  0  0  0  0  0  0  0  0
    7.6671   -0.8842   -0.7845 C   0  0  1  0  0  0  0  0  0  0  0  0
    8.9203   -0.4900   -1.5863 C   0  0  0  0  0  0  0  0  0  0  0  0
    9.8023    0.5297   -0.8505 C   0  0  0  0  0  0  0  0  0  0  0  0
   10.2115    0.0371    0.5593 C   0  0  2  0  0  0  0  0  0  0  0  0
   11.2660   -1.0756    0.4990 C   0  0  0  0  0  0  0  0  0  0  0  0
   11.1370   -2.1759    0.9620 O   0  0  0  0  0  0  0  0  0  0  0  0
   12.4234   -0.7414   -0.1253 O   0  0  0  0  0  0  0  0  0  0  0  0
    8.9698   -0.3854    1.3629 C   0  0  0  0  0  0  0  0  0  0  0  0
    8.0826   -1.3884    0.6144 C   0  0  0  0  0  0  0  0  0  0  0  0
    4.7393   -1.0837   -0.2453 C   0  0  0  0  0  0  0  0  0  0  0  0
    3.3427   -1.1714   -0.0773 C   0  0  0  0  0  0  0  0  0  0  0  0
    2.8388   -2.5117    0.2500 C   0  0  0  0  0  0  0  0  0  0  0  0
    3.5448   -3.6010    0.4004 N   0  0  0  0  0  0  0  0  0  0  0  0
    2.6354   -4.5907    0.6969 C   0  0  0  0  0  0  0  0  0  0  0  0
    1.3842   -4.0524    0.7153 C   0  0  0  0  0  0  0  0  0  0  0  0
    1.5065   -2.7259    0.4309 O   0  0  0  0  0  0  0  0  0  0  0  0
    0.6231    0.9890   -0.2248 H   0  0  0  0  0  0  0  0  0  0  0  0
    0.7084   -0.3529    0.9427 H   0  0  0  0  0  0  0  0  0  0  0  0
    0.5222   -0.7022   -0.7734 H   0  0  0  0  0  0  0  0  0  0  0  0
    2.5714    2.0798   -0.6651 H   0  0  0  0  0  0  0  0  0  0  0  0
    5.0045    2.2338   -0.9510 H   0  0  0  0  0  0  0  0  0  0  0  0
    7.0430    1.0961   -1.1781 H   0  0  0  0  0  0  0  0  0  0  0  0
    7.1750   -1.7167   -1.3208 H   0  0  0  0  0  0  0  0  0  0  0  0
    8.6251   -0.0955   -2.5736 H   0  0  0  0  0  0  0  0  0  0  0  0
    9.5033   -1.4056   -1.7805 H   0  0  0  0  0  0  0  0  0  0  0  0
    9.2639    1.4852   -0.7310 H   0  0  0  0  0  0  0  0  0  0  0  0
   10.6859    0.7665   -1.4684 H   0  0  0  0  0  0  0  0  0  0  0  0
   10.7047    0.8781    1.0831 H   0  0  0  0  0  0  0  0  0  0  0  0
   12.3975    0.1802   -0.4185 H   0  0  0  0  0  0  0  0  0  0  0  0
    8.3829    0.5218    1.5836 H   0  0  0  0  0  0  0  0  0  0  0  0
    9.2830   -0.8125    2.3271 H   0  0  0  0  0  0  0  0  0  0  0  0
    7.1850   -1.6025    1.2144 H   0  0  0  0  0  0  0  0  0  0  0  0
    8.6232   -2.3409    0.4999 H   0  0  0  0  0  0  0  0  0  0  0  0
    5.3105   -2.0015   -0.1172 H   0  0  0  0  0  0  0  0  0  0  0  0
    2.9361   -5.6214    0.8774 H   0  0  0  0  0  0  0  0  0  0  0  0
    0.3827   -4.4308    0.8962 H   0  0  0  0  0  0  0  0  0  0  0  0
  1  2  1  0
  1 23  1  0
  1 24  1  0
  1 25  1  0
  2  3  2  0
  2 17  1  0
  3  4  1  0
  3 26  1  0
  4  5  2  0
  4 27  1  0
  5  6  1  0
  5 16  1  0
  6  7  1  0
  6 28  1  0
  7  8  1  0
  7 15  1  0
  7 29  1  6
  8  9  1  0
  8 30  1  0
  8 31  1  0
  9 10  1  0
  9 32  1  0
  9 33  1  0
 10 11  1  0
 10 14  1  0
 10 34  1  1
 11 12  2  0
 11 13  1  0
 13 35  1  0
 14 15  1  0
 14 36  1  0
 14 37  1  0
 15 38  1  0
 15 39  1  0
 16 17  2  0
 16 40  1  0
 17 18  1  0
 18 19  2  0
 18 22  1  0
 19 20  1  0
 20 21  2  0
 20 41  1  0
 21 22  1  0
 21 42  1  0
M  END

