
     RDKit          3D

 33 33  0  0  0  0  0  0  0  0999 V2000
    0.9297    0.1660    0.4477 C   0  0  0  0  0  0  0  0  0  0  0  0
    2.3979    0.1541    0.0965 C   0  0  0  0  0  0  0  0  0  0  0  0
    3.0611    1.2943   -0.3724 C   0  0  0  0  0  0  0  0  0  0  0  0
    4.4179    1.2842   -0.7030 C   0  0  0  0  0  0  0  0  0  0  0  0
    5.1965    0.1105   -0.5700 C   0  0  0  0  0  0  0  0  0  0  0  0
    6.5557    0.1086   -0.8690 N   0  0  0  0  0  0  0  0  0  0  0  0
    7.1636    1.2960   -1.4308 C   0  0  0  0  0  0  0  0  0  0  0  0
    7.3332   -1.1179   -0.8625 C   0  0  0  0  0  0  0  0  0  0  0  0
    7.2144   -1.9709   -2.1374 C   0  0  0  0  0  0  0  0  0  0  0  0
    8.0519   -3.2524   -2.0720 C   0  0  0  0  0  0  0  0  0  0  0  0
    7.9511   -4.0968   -3.3417 C   0  0  0  0  0  0  0  0  0  0  0  0
    8.8684   -5.6879   -3.2830 S   0  0  0  0  0  0  0  0  0  0  0  0
    4.5222   -1.0475   -0.1073 C   0  0  0  0  0  0  0  0  0  0  0  0
    3.1682   -1.0137    0.2167 C   0  0  0  0  0  0  0  0  0  0  0  0
    0.4948    1.1692    0.3223 H   0  0  0  0  0  0  0  0  0  0  0  0
    0.7582   -0.1422    1.4933 H   0  0  0  0  0  0  0  0  0  0  0  0
    0.3521   -0.5273   -0.1881 H   0  0  0  0  0  0  0  0  0  0  0  0
    2.5038    2.2290   -0.4887 H   0  0  0  0  0  0  0  0  0  0  0  0
    4.8682    2.2078   -1.0646 H   0  0  0  0  0  0  0  0  0  0  0  0
    7.0606    2.1659   -0.7576 H   0  0  0  0  0  0  0  0  0  0  0  0
    6.7323    1.5839   -2.4097 H   0  0  0  0  0  0  0  0  0  0  0  0
    8.2377    1.1185   -1.5774 H   0  0  0  0  0  0  0  0  0  0  0  0
    7.0566   -1.7243    0.0155 H   0  0  0  0  0  0  0  0  0  0  0  0
    8.3908   -0.8461   -0.7068 H   0  0  0  0  0  0  0  0  0  0  0  0
    7.5259   -1.3623   -3.0054 H   0  0  0  0  0  0  0  0  0  0  0  0
    6.1534   -2.2242   -2.3053 H   0  0  0  0  0  0  0  0  0  0  0  0
    7.7399   -3.8662   -1.2091 H   0  0  0  0  0  0  0  0  0  0  0  0
    9.1118   -2.9945   -1.8917 H   0  0  0  0  0  0  0  0  0  0  0  0
    8.2741   -3.5253   -4.2265 H   0  0  0  0  0  0  0  0  0  0  0  0
    6.9063   -4.3961   -3.5244 H   0  0  0  0  0  0  0  0  0  0  0  0
   10.1094   -5.1516   -3.2090 H   0  0  0  0  0  0  0  0  0  0  0  0
    5.0549   -1.9916    0.0034 H   0  0  0  0  0  0  0  0  0  0  0  0
    2.6953   -1.9348    0.5725 H   0  0  0  0  0  0  0  0  0  0  0  0
  1  2  1  0
  1 15  1  0
  1 16  1  0
  1 17  1  0
  2  3  2  0
  2 14  1  0
  3  4  1  0
  3 18  1  0
  4  5  2  0
  4 19  1  0
  5  6  1  0
  5 13  1  0
  6  7  1  0
  6  8  1  0
  7 20  1  0
  7 21  1  0
  7 22  1  0
  8  9  1  0
  8 23  1  0
  8 24  1  0
  9 10  1  0
  9 25  1  0
  9 26  1  0
 10 11  1  0
 10 27  1  0
 10 28  1  0
 11 12  1  0
 11 29  1  0
 11 30  1  0
 12 31  1  0
 13 14  2  0
 13 32  1  0
 14 33  1  0
M  END

