
     RDKit          3D

 62 67  0  0  0  0  0  0  0  0999 V2000
    5.9783   -2.6950    2.4620 C   0  0  0  0  0  0  0  0  0  0  0  0
    6.0508   -1.4804    1.7138 O   0  0  0  0  0  0  0  0  0  0  0  0
    5.5050   -1.5123    0.4716 C   0  0  0  0  0  0  0  0  0  0  0  0
    4.9842   -2.5021    0.0131 O   0  0  0  0  0  0  0  0  0  0  0  0
    5.6270   -0.1964   -0.1810 C   0  0  0  0  0  0  0  0  0  0  0  0
    6.0917    0.8668    0.5665 N   0  0  0  0  0  0  0  0  0  0  0  0
    6.3680    0.7787    1.5357 H   0  0  0  0  0  0  0  0  0  0  0  0
    6.1206    1.9927   -0.1989 C   0  0  0  0  0  0  0  0  0  0  0  0
    6.5137    3.2937    0.1587 C   0  0  0  0  0  0  0  0  0  0  0  0
    6.4449    4.2789   -0.8135 C   0  0  0  0  0  0  0  0  0  0  0  0
    5.9895    3.9730   -2.1168 C   0  0  0  0  0  0  0  0  0  0  0  0
    5.6031    2.6876   -2.4676 C   0  0  0  0  0  0  0  0  0  0  0  0
    5.6587    1.6418   -1.5086 C   0  0  0  0  0  0  0  0  0  0  0  0
    5.3463    0.2242   -1.4862 C   0  0  0  0  0  0  0  0  0  0  0  0
    4.8786   -0.6986   -2.6051 C   0  0  2  0  0  0  0  0  0  0  0  0
    4.5585   -0.0022   -3.9630 C   0  0  0  0  0  0  0  0  0  0  0  0
    3.1205    0.4990   -3.8289 C   0  0  0  0  0  0  0  0  0  0  0  0
    2.4993   -0.5321   -2.9880 N   0  0  0  0  0  0  0  0  0  0  0  0
    1.1941   -0.9263   -2.9388 C   0  0  0  0  0  0  0  0  0  0  0  0
    0.8621   -1.9693   -2.3837 O   0  0  0  0  0  0  0  0  0  0  0  0
    0.1412   -0.0588   -3.5868 C   0  0  0  0  0  0  0  0  0  0  0  0
   -0.9082   -0.7143   -4.2529 C   0  0  0  0  0  0  0  0  0  0  0  0
   -1.9490    0.0138   -4.8267 C   0  0  0  0  0  0  0  0  0  0  0  0
   -1.9551    1.4059   -4.6940 C   0  0  0  0  0  0  0  0  0  0  0  0
   -3.3001    2.3594   -5.4297 S   0  0  1  0  0  0  0  0  0  0  0  0
   -4.5584    2.4238   -4.1334 C   0  0  0  0  0  0  0  0  0  0  0  0
   -2.8176    3.7324   -5.6345 O   0  0  0  0  0  0  0  0  0  0  0  0
   -3.8577    1.5709   -6.5369 O   0  0  0  0  0  0  0  0  0  0  0  0
   -0.9316    2.0787   -4.0243 C   0  0  0  0  0  0  0  0  0  0  0  0
    0.1184    1.3398   -3.4737 C   0  0  0  0  0  0  0  0  0  0  0  0
    3.4934   -1.3843   -2.3216 C   0  0  1  0  0  0  0  0  0  0  0  0
    3.2389   -1.4514   -1.2560 H   0  0  0  0  0  0  0  0  0  0  0  0
    3.6335   -2.7100   -2.9058 N   0  0  0  0  0  0  0  0  0  0  0  0
    4.9754   -3.0348   -3.0411 C   0  0  0  0  0  0  0  0  0  0  0  0
    5.5511   -4.2719   -3.3466 C   0  0  0  0  0  0  0  0  0  0  0  0
    6.9462   -4.3465   -3.4636 C   0  0  0  0  0  0  0  0  0  0  0  0
    7.7538   -3.2182   -3.2871 C   0  0  0  0  0  0  0  0  0  0  0  0
    7.1655   -1.9781   -2.9826 C   0  0  0  0  0  0  0  0  0  0  0  0
    5.7865   -1.8970   -2.8576 C   0  0  0  0  0  0  0  0  0  0  0  0
    6.4585   -2.4891    3.4265 H   0  0  0  0  0  0  0  0  0  0  0  0
    6.5048   -3.5063    1.9377 H   0  0  0  0  0  0  0  0  0  0  0  0
    4.9316   -2.9995    2.6123 H   0  0  0  0  0  0  0  0  0  0  0  0
    6.8606    3.5146    1.1710 H   0  0  0  0  0  0  0  0  0  0  0  0
    6.7433    5.3019   -0.5718 H   0  0  0  0  0  0  0  0  0  0  0  0
    5.9407    4.7674   -2.8653 H   0  0  0  0  0  0  0  0  0  0  0  0
    5.2593    2.5110   -3.4841 H   0  0  0  0  0  0  0  0  0  0  0  0
    4.5940   -0.7745   -4.7439 H   0  0  0  0  0  0  0  0  0  0  0  0
    5.2822    0.7694   -4.2444 H   0  0  0  0  0  0  0  0  0  0  0  0
    2.6110    0.5851   -4.7999 H   0  0  0  0  0  0  0  0  0  0  0  0
    3.0854    1.4885   -3.3412 H   0  0  0  0  0  0  0  0  0  0  0  0
   -0.8920   -1.8041   -4.3118 H   0  0  0  0  0  0  0  0  0  0  0  0
   -2.7485   -0.4811   -5.3817 H   0  0  0  0  0  0  0  0  0  0  0  0
   -4.1493    2.9389   -3.2549 H   0  0  0  0  0  0  0  0  0  0  0  0
   -4.8841    1.4039   -3.8915 H   0  0  0  0  0  0  0  0  0  0  0  0
   -5.3855    3.0009   -4.5708 H   0  0  0  0  0  0  0  0  0  0  0  0
   -0.9562    3.1678   -3.9526 H   0  0  0  0  0  0  0  0  0  0  0  0
    0.9120    1.8617   -2.9369 H   0  0  0  0  0  0  0  0  0  0  0  0
    2.9611   -3.4070   -2.6064 H   0  0  0  0  0  0  0  0  0  0  0  0
    4.9297   -5.1606   -3.4810 H   0  0  0  0  0  0  0  0  0  0  0  0
    7.4087   -5.3102   -3.6943 H   0  0  0  0  0  0  0  0  0  0  0  0
    8.8390   -3.3005   -3.3815 H   0  0  0  0  0  0  0  0  0  0  0  0
    7.7887   -1.0915   -2.8343 H   0  0  0  0  0  0  0  0  0  0  0  0
  1  2  1  0
  1 40  1  0
  1 41  1  0
  1 42  1  0
  2  3  1  0
  3  4  2  0
  3  5  1  0
  5  6  1  0
  5 14  2  0
  6  7  1  0
  6  8  1  0
  8  9  2  0
  8 13  1  0
  9 10  1  0
  9 43  1  0
 10 11  2  0
 10 44  1  0
 11 12  1  0
 11 45  1  0
 12 13  2  0
 12 46  1  0
 13 14  1  0
 15 14  1  1
 15 16  1  0
 15 31  1  0
 15 39  1  0
 16 17  1  0
 16 47  1  0
 16 48  1  0
 17 18  1  0
 17 49  1  0
 17 50  1  0
 18 19  1  0
 18 31  1  0
 19 20  2  0
 19 21  1  0
 21 22  2  0
 21 30  1  0
 22 23  1  0
 22 51  1  0
 23 24  2  0
 23 52  1  0
 24 25  1  0
 24 29  1  0
 25 26  1  1
 25 27  2  0
 25 28  2  0
 26 53  1  0
 26 54  1  0
 26 55  1  0
 29 30  2  0
 29 56  1  0
 30 57  1  0
 31 32  1  1
 31 33  1  0
 33 34  1  0
 33 58  1  0
 34 35  1  0
 34 39  2  0
 35 36  2  0
 35 59  1  0
 36 37  1  0
 36 60  1  0
 37 38  2  0
 37 61  1  0
 38 39  1  0
 38 62  1  0
M  END

