
     RDKit          3D

 34 36  0  0  0  0  0  0  0  0999 V2000
    2.7344    0.7536    2.5782 O   0  0  0  0  0  0  0  0  0  0  0  0
    3.7769    0.5321    2.0219 C   0  0  0  0  0  0  0  0  0  0  0  0
    4.6223    1.5472    1.7273 O   0  0  0  0  0  0  0  0  0  0  0  0
    4.2157   -0.8479    1.6093 C   0  0  0  0  0  0  0  0  0  0  0  0
    5.5517   -1.1734    1.3212 C   0  0  0  0  0  0  0  0  0  0  0  0
    5.8876   -2.4772    0.9542 C   0  0  0  0  0  0  0  0  0  0  0  0
    4.8959   -3.4588    0.8734 C   0  0  0  0  0  0  0  0  0  0  0  0
    3.5600   -3.1577    1.1780 C   0  0  0  0  0  0  0  0  0  0  0  0
    2.4952   -4.2399    1.1596 C   0  0  0  0  0  0  0  0  0  0  0  0
    1.2184   -3.7958    0.6253 N   0  0  0  0  0  0  0  0  0  0  0  0
    1.2419   -3.5380   -0.8088 C   0  0  0  0  0  0  0  0  0  0  0  0
    0.0101   -2.7357   -1.2201 C   0  0  0  0  0  0  0  0  0  0  0  0
   -1.1822   -3.3823   -0.6960 N   0  0  0  0  0  0  0  0  0  0  0  0
   -2.4935   -3.1901   -1.0422 C   0  0  0  0  0  0  0  0  0  0  0  0
   -3.3092   -3.8614   -0.2623 N   0  0  0  0  0  0  0  0  0  0  0  0
   -2.5049   -4.5110    0.6402 C   0  0  0  0  0  0  0  0  0  0  0  0
   -1.1765   -4.2251    0.3965 C   0  0  0  0  0  0  0  0  0  0  0  0
    0.1199   -4.6892    0.9907 C   0  0  0  0  0  0  0  0  0  0  0  0
    3.2351   -1.8478    1.5511 C   0  0  0  0  0  0  0  0  0  0  0  0
    5.3470    1.2341    1.1688 H   0  0  0  0  0  0  0  0  0  0  0  0
    6.3471   -0.4269    1.4075 H   0  0  0  0  0  0  0  0  0  0  0  0
    6.9268   -2.7307    0.7318 H   0  0  0  0  0  0  0  0  0  0  0  0
    5.1655   -4.4761    0.5748 H   0  0  0  0  0  0  0  0  0  0  0  0
    2.3190   -4.5684    2.1991 H   0  0  0  0  0  0  0  0  0  0  0  0
    2.8886   -5.1333    0.6227 H   0  0  0  0  0  0  0  0  0  0  0  0
    1.2904   -4.4855   -1.3949 H   0  0  0  0  0  0  0  0  0  0  0  0
    2.1412   -2.9561   -1.0586 H   0  0  0  0  0  0  0  0  0  0  0  0
   -0.0606   -2.6688   -2.3171 H   0  0  0  0  0  0  0  0  0  0  0  0
    0.0865   -1.7120   -0.8156 H   0  0  0  0  0  0  0  0  0  0  0  0
   -2.7815   -2.5430   -1.8720 H   0  0  0  0  0  0  0  0  0  0  0  0
   -2.9163   -5.1559    1.4166 H   0  0  0  0  0  0  0  0  0  0  0  0
    0.3313   -5.7338    0.6552 H   0  0  0  0  0  0  0  0  0  0  0  0
    0.0350   -4.7260    2.0890 H   0  0  0  0  0  0  0  0  0  0  0  0
    2.2032   -1.5884    1.7932 H   0  0  0  0  0  0  0  0  0  0  0  0
  1  2  2  0
  2  3  1  0
  2  4  1  0
  3 20  1  0
  4  5  2  0
  4 19  1  0
  5  6  1  0
  5 21  1  0
  6  7  2  0
  6 22  1  0
  7  8  1  0
  7 23  1  0
  8  9  1  0
  8 19  2  0
  9 10  1  0
  9 24  1  0
  9 25  1  0
 10 11  1  0
 10 18  1  0
 11 12  1  0
 11 26  1  0
 11 27  1  0
 12 13  1  0
 12 28  1  0
 12 29  1  0
 13 14  1  0
 13 17  1  0
 14 15  2  0
 14 30  1  0
 15 16  1  0
 16 17  2  0
 16 31  1  0
 17 18  1  0
 18 32  1  0
 18 33  1  0
 19 34  1  0
M  END

