
     RDKit          3D

 54 57  0  0  0  0  0  0  0  0999 V2000
    5.2330   -0.1798   -1.4103 C   0  0  0  0  0  0  0  0  0  0  0  0
    3.9362    0.2967   -0.7309 C   0  0  2  0  0  0  0  0  0  0  0  0
    3.2267    0.5716   -1.5298 H   0  0  0  0  0  0  0  0  0  0  0  0
    4.1826    1.4724    0.0863 N   0  0  0  0  0  0  0  0  0  0  0  0
    4.2199    1.3072    1.3518 C   0  0  0  0  0  0  0  0  0  0  0  0
    4.4968    2.4652    2.3001 C   0  0  0  0  0  0  0  0  0  0  0  0
    4.3922    2.3075    3.5117 O   0  0  0  0  0  0  0  0  0  0  0  0
    4.8379    3.6040    1.6677 N   0  0  0  0  0  0  0  0  0  0  0  0
    5.1108    4.8514    2.3484 C   0  0  0  0  0  0  0  0  0  0  0  0
    4.1295    6.0017    1.9799 C   0  0  1  0  0  0  0  0  0  0  0  0
    2.7133    5.6088    2.4333 C   0  0  0  0  0  0  0  0  0  0  0  0
    4.5634    7.2566    2.7692 C   0  0  0  0  0  0  0  0  0  0  0  0
    4.2067    6.2811    0.4630 C   0  0  0  0  0  0  0  0  0  0  0  0
    5.4301    6.6634   -0.1163 C   0  0  0  0  0  0  0  0  0  0  0  0
    5.5731    6.9337   -1.4905 C   0  0  0  0  0  0  0  0  0  0  0  0
    4.4413    6.8126   -2.2760 C   0  0  0  0  0  0  0  0  0  0  0  0
    3.2197    6.4332   -1.7219 C   0  0  0  0  0  0  0  0  0  0  0  0
    3.0707    6.1600   -0.3735 C   0  0  0  0  0  0  0  0  0  0  0  0
    2.2773    6.3626   -2.7114 O   0  0  0  0  0  0  0  0  0  0  0  0
    2.9015    6.8625   -3.8908 C   0  0  0  0  0  0  0  0  0  0  0  0
    4.2963    6.9890   -3.6243 O   0  0  0  0  0  0  0  0  0  0  0  0
    4.0390    0.1289    2.0259 N   0  0  0  0  0  0  0  0  0  0  0  0
    3.3563   -0.9130    1.3680 N   0  0  0  0  0  0  0  0  0  0  0  0
    3.0264   -2.0346    2.1835 C   0  0  0  0  0  0  0  0  0  0  0  0
    1.9340   -2.8614    1.8673 C   0  0  0  0  0  0  0  0  0  0  0  0
    1.6248   -3.9404    2.6962 C   0  0  0  0  0  0  0  0  0  0  0  0
    2.3789   -4.2080    3.8431 C   0  0  0  0  0  0  0  0  0  0  0  0
    3.4616   -3.3835    4.1551 C   0  0  0  0  0  0  0  0  0  0  0  0
    3.7919   -2.3046    3.3317 C   0  0  0  0  0  0  0  0  0  0  0  0
    3.2677   -0.8893   -0.0161 C   0  0  0  0  0  0  0  0  0  0  0  0
    2.7194   -1.7676   -0.6544 O   0  0  0  0  0  0  0  0  0  0  0  0
    5.9684   -0.5174   -0.6625 H   0  0  0  0  0  0  0  0  0  0  0  0
    5.6762    0.6523   -1.9773 H   0  0  0  0  0  0  0  0  0  0  0  0
    5.0195   -1.0115   -2.0969 H   0  0  0  0  0  0  0  0  0  0  0  0
    4.8455    3.5557    0.6498 H   0  0  0  0  0  0  0  0  0  0  0  0
    6.1453    5.1680    2.1321 H   0  0  0  0  0  0  0  0  0  0  0  0
    5.0511    4.6441    3.4267 H   0  0  0  0  0  0  0  0  0  0  0  0
    2.7072    5.4108    3.5160 H   0  0  0  0  0  0  0  0  0  0  0  0
    2.3567    4.6981    1.9302 H   0  0  0  0  0  0  0  0  0  0  0  0
    1.9899    6.4147    2.2361 H   0  0  0  0  0  0  0  0  0  0  0  0
    4.5125    7.0688    3.8543 H   0  0  0  0  0  0  0  0  0  0  0  0
    3.9025    8.1065    2.5389 H   0  0  0  0  0  0  0  0  0  0  0  0
    5.5936    7.5611    2.5302 H   0  0  0  0  0  0  0  0  0  0  0  0
    6.3164    6.7650    0.5133 H   0  0  0  0  0  0  0  0  0  0  0  0
    6.5330    7.2261   -1.9189 H   0  0  0  0  0  0  0  0  0  0  0  0
    2.0960    5.8612    0.0072 H   0  0  0  0  0  0  0  0  0  0  0  0
    2.4790    7.8551   -4.1446 H   0  0  0  0  0  0  0  0  0  0  0  0
    2.7441    6.1570   -4.7233 H   0  0  0  0  0  0  0  0  0  0  0  0
    3.7614    0.2592    3.0002 H   0  0  0  0  0  0  0  0  0  0  0  0
    1.3481   -2.6636    0.9735 H   0  0  0  0  0  0  0  0  0  0  0  0
    0.7739   -4.5769    2.4405 H   0  0  0  0  0  0  0  0  0  0  0  0
    2.1241   -5.0526    4.4875 H   0  0  0  0  0  0  0  0  0  0  0  0
    4.0669   -3.5810    5.0434 H   0  0  0  0  0  0  0  0  0  0  0  0
    4.6577   -1.6864    3.5726 H   0  0  0  0  0  0  0  0  0  0  0  0
  1  2  1  0
  1 32  1  0
  1 33  1  0
  1 34  1  0
  2  3  1  6
  2  4  1  0
  2 30  1  0
  4  5  2  0
  5  6  1  0
  5 22  1  0
  6  7  2  0
  6  8  1  0
  8  9  1  0
  8 35  1  0
 10  9  1  6
  9 36  1  0
  9 37  1  0
 10 11  1  0
 10 12  1  0
 10 13  1  0
 11 38  1  0
 11 39  1  0
 11 40  1  0
 12 41  1  0
 12 42  1  0
 12 43  1  0
 13 14  2  0
 13 18  1  0
 14 15  1  0
 14 44  1  0
 15 16  2  0
 15 45  1  0
 16 17  1  0
 16 21  1  0
 17 18  2  0
 17 19  1  0
 18 46  1  0
 19 20  1  0
 20 21  1  0
 20 47  1  0
 20 48  1  0
 22 23  1  0
 22 49  1  0
 23 24  1  0
 23 30  1  0
 24 25  2  0
 24 29  1  0
 25 26  1  0
 25 50  1  0
 26 27  2  0
 26 51  1  0
 27 28  1  0
 27 52  1  0
 28 29  2  0
 28 53  1  0
 29 54  1  0
 30 31  2  0
M  END

