
     RDKit          3D

 42 45  0  0  0  0  0  0  0  0999 V2000
    2.9025    1.8028   -1.4286 C   0  0  0  0  0  0  0  0  0  0  0  0
    2.5188    0.4663   -1.0163 N   0  0  0  0  0  0  0  0  0  0  0  0
    1.3859    0.2874   -0.1281 C   0  0  0  0  0  0  0  0  0  0  0  0
    3.2115   -0.6271   -1.4834 C   0  0  0  0  0  0  0  0  0  0  0  0
    4.3201   -0.4835   -2.3610 C   0  0  0  0  0  0  0  0  0  0  0  0
    5.0078   -1.5949   -2.8228 C   0  0  0  0  0  0  0  0  0  0  0  0
    4.6536   -2.9111   -2.4513 C   0  0  0  0  0  0  0  0  0  0  0  0
    5.4680   -4.0049   -2.9676 C   0  0  0  0  0  0  0  0  0  0  0  0
    5.4182   -5.2815   -2.7699 N   0  0  0  0  0  0  0  0  0  0  0  0
    4.6253   -5.8191   -1.8364 N   0  0  0  0  0  0  0  0  0  0  0  0
    3.9060   -6.8533   -2.1305 C   0  0  0  0  0  0  0  0  0  0  0  0
    3.1071   -7.5711   -1.1175 C   0  0  0  0  0  0  0  0  0  0  0  0
    2.9498   -7.3751    0.2517 C   0  0  0  0  0  0  0  0  0  0  0  0
    2.0974   -8.2588    0.9236 C   0  0  0  0  0  0  0  0  0  0  0  0
    1.4538   -9.2783    0.2042 C   0  0  0  0  0  0  0  0  0  0  0  0
    1.6007   -9.4776   -1.1112 N   0  0  0  0  0  0  0  0  0  0  0  0
    2.4129   -8.6355   -1.7411 C   0  0  0  0  0  0  0  0  0  0  0  0
    2.7695   -8.6282   -3.1809 C   0  0  0  0  0  0  0  0  0  0  0  0
    2.3475   -9.4730   -4.1136 N   0  0  0  0  0  0  0  0  0  0  0  0
    2.8264   -9.2761   -5.3488 C   0  0  0  0  0  0  0  0  0  0  0  0
    3.7254   -8.2560   -5.6895 C   0  0  0  0  0  0  0  0  0  0  0  0
    4.1618   -7.3619   -4.7037 C   0  0  0  0  0  0  0  0  0  0  0  0
    3.6693   -7.5520   -3.4126 C   0  0  0  0  0  0  0  0  0  0  0  0
    3.5419   -3.0530   -1.5903 C   0  0  0  0  0  0  0  0  0  0  0  0
    2.8450   -1.9503   -1.1169 C   0  0  0  0  0  0  0  0  0  0  0  0
    2.2407    2.5356   -0.9502 H   0  0  0  0  0  0  0  0  0  0  0  0
    2.8235    1.9410   -2.5226 H   0  0  0  0  0  0  0  0  0  0  0  0
    3.9400    2.0457   -1.1355 H   0  0  0  0  0  0  0  0  0  0  0  0
    0.9759    1.2690    0.1408 H   0  0  0  0  0  0  0  0  0  0  0  0
    1.6702   -0.2263    0.8080 H   0  0  0  0  0  0  0  0  0  0  0  0
    0.5753   -0.2992   -0.5981 H   0  0  0  0  0  0  0  0  0  0  0  0
    4.6461    0.5045   -2.6829 H   0  0  0  0  0  0  0  0  0  0  0  0
    5.8592   -1.4442   -3.4932 H   0  0  0  0  0  0  0  0  0  0  0  0
    6.2636   -3.7011   -3.6616 H   0  0  0  0  0  0  0  0  0  0  0  0
    3.4749   -6.5689    0.7693 H   0  0  0  0  0  0  0  0  0  0  0  0
    1.9284   -8.1660    1.9989 H   0  0  0  0  0  0  0  0  0  0  0  0
    0.7841   -9.9708    0.7278 H   0  0  0  0  0  0  0  0  0  0  0  0
    2.4764   -9.9718   -6.1205 H   0  0  0  0  0  0  0  0  0  0  0  0
    4.0751   -8.1638   -6.7203 H   0  0  0  0  0  0  0  0  0  0  0  0
    4.8590   -6.5543   -4.9262 H   0  0  0  0  0  0  0  0  0  0  0  0
    3.2231   -4.0489   -1.2870 H   0  0  0  0  0  0  0  0  0  0  0  0
    1.9948   -2.1215   -0.4581 H   0  0  0  0  0  0  0  0  0  0  0  0
  1  2  1  0
  1 26  1  0
  1 27  1  0
  1 28  1  0
  2  3  1  0
  2  4  1  0
  3 29  1  0
  3 30  1  0
  3 31  1  0
  4  5  2  0
  4 25  1  0
  5  6  1  0
  5 32  1  0
  6  7  2  0
  6 33  1  0
  7  8  1  0
  7 24  1  0
  8  9  2  0
  8 34  1  0
  9 10  1  0
 10 11  2  0
 11 12  1  0
 11 23  1  0
 12 13  2  0
 12 17  1  0
 13 14  1  0
 13 35  1  0
 14 15  2  0
 14 36  1  0
 15 16  1  0
 15 37  1  0
 16 17  2  0
 17 18  1  0
 18 19  2  0
 18 23  1  0
 19 20  1  0
 20 21  2  0
 20 38  1  0
 21 22  1  0
 21 39  1  0
 22 23  2  0
 22 40  1  0
 24 25  2  0
 24 41  1  0
 25 42  1  0
M  END

