
     RDKit          3D

 45 46  0  0  0  0  0  0  0  0999 V2000
    1.3109    0.4732    0.2640 C   0  0  0  0  0  0  0  0  0  0  0  0
    2.8171    0.1826    0.1943 C   0  0  1  0  0  0  0  0  0  0  0  0
    3.1322   -1.2757   -0.1939 C   0  0  0  0  0  0  0  0  0  0  0  0
    2.8581   -1.5624   -1.6716 C   0  0  0  0  0  0  0  0  0  0  0  0
    3.5464   -0.6098   -2.5397 N   0  0  0  0  0  0  0  0  0  0  0  0
    4.1397   -1.0976   -3.6952 C   0  0  0  0  0  0  0  0  0  0  0  0
    4.3246   -2.2989   -3.8791 O   0  0  0  0  0  0  0  0  0  0  0  0
    4.5306   -0.1705   -4.6281 N   0  0  0  0  0  0  0  0  0  0  0  0
    5.2159   -0.5758   -5.8355 C   0  0  1  0  0  0  0  0  0  0  0  0
    4.2491   -1.1404   -6.8963 C   0  0  0  0  0  0  0  0  0  0  0  0
    5.9367    0.6749   -6.3683 C   0  0  0  0  0  0  0  0  0  0  0  0
    5.5137    1.7873   -6.0711 O   0  0  0  0  0  0  0  0  0  0  0  0
    7.0036    0.5076   -7.2089 N   0  0  0  0  0  0  0  0  0  0  0  0
    7.6666   -0.7493   -7.5444 C   0  0  0  0  0  0  0  0  0  0  0  0
    7.9003   -0.8259   -9.0554 C   0  0  0  0  0  0  0  0  0  0  0  0
    8.5982    0.3040   -9.5297 O   0  0  0  0  0  0  0  0  0  0  0  0
    7.9048    1.5063   -9.2528 C   0  0  0  0  0  0  0  0  0  0  0  0
    7.6781    1.6858   -7.7541 C   0  0  0  0  0  0  0  0  0  0  0  0
    3.3040    0.7982   -2.2548 C   0  0  0  0  0  0  0  0  0  0  0  0
    3.5638    1.1187   -0.7750 C   0  0  0  0  0  0  0  0  0  0  0  0
    0.8164   -0.1896    0.9928 H   0  0  0  0  0  0  0  0  0  0  0  0
    0.8042    0.3292   -0.7035 H   0  0  0  0  0  0  0  0  0  0  0  0
    1.1248    1.5130    0.5793 H   0  0  0  0  0  0  0  0  0  0  0  0
    3.2266    0.3587    1.2046 H   0  0  0  0  0  0  0  0  0  0  0  0
    2.5466   -1.9752    0.4267 H   0  0  0  0  0  0  0  0  0  0  0  0
    4.1975   -1.4800    0.0098 H   0  0  0  0  0  0  0  0  0  0  0  0
    1.7673   -1.5267   -1.8701 H   0  0  0  0  0  0  0  0  0  0  0  0
    3.2045   -2.5641   -1.9520 H   0  0  0  0  0  0  0  0  0  0  0  0
    4.3030    0.8160   -4.5842 H   0  0  0  0  0  0  0  0  0  0  0  0
    5.9303   -1.3661   -5.5612 H   0  0  0  0  0  0  0  0  0  0  0  0
    3.5151   -0.3725   -7.1865 H   0  0  0  0  0  0  0  0  0  0  0  0
    3.7201   -2.0014   -6.4644 H   0  0  0  0  0  0  0  0  0  0  0  0
    4.7770   -1.4729   -7.8041 H   0  0  0  0  0  0  0  0  0  0  0  0
    7.0715   -1.6089   -7.2161 H   0  0  0  0  0  0  0  0  0  0  0  0
    8.6440   -0.7985   -7.0273 H   0  0  0  0  0  0  0  0  0  0  0  0
    6.9223   -0.9224   -9.5723 H   0  0  0  0  0  0  0  0  0  0  0  0
    8.5088   -1.7098   -9.3004 H   0  0  0  0  0  0  0  0  0  0  0  0
    6.9279    1.5156   -9.7791 H   0  0  0  0  0  0  0  0  0  0  0  0
    8.5182    2.3293   -9.6495 H   0  0  0  0  0  0  0  0  0  0  0  0
    7.0575    2.5648   -7.5392 H   0  0  0  0  0  0  0  0  0  0  0  0
    8.6539    1.8164   -7.2492 H   0  0  0  0  0  0  0  0  0  0  0  0
    2.2680    1.0817   -2.5338 H   0  0  0  0  0  0  0  0  0  0  0  0
    3.9786    1.4217   -2.8560 H   0  0  0  0  0  0  0  0  0  0  0  0
    3.2941    2.1713   -0.5836 H   0  0  0  0  0  0  0  0  0  0  0  0
    4.6483    1.0265   -0.5929 H   0  0  0  0  0  0  0  0  0  0  0  0
  1  2  1  0
  1 21  1  0
  1 22  1  0
  1 23  1  0
  2  3  1  0
  2 20  1  0
  2 24  1  1
  3  4  1  0
  3 25  1  0
  3 26  1  0
  4  5  1  0
  4 27  1  0
  4 28  1  0
  5  6  1  0
  5 19  1  0
  6  7  2  0
  6  8  1  0
  8  9  1  0
  8 29  1  0
  9 10  1  0
  9 11  1  0
  9 30  1  1
 10 31  1  0
 10 32  1  0
 10 33  1  0
 11 12  2  0
 11 13  1  0
 13 14  1  0
 13 18  1  0
 14 15  1  0
 14 34  1  0
 14 35  1  0
 15 16  1  0
 15 36  1  0
 15 37  1  0
 16 17  1  0
 17 18  1  0
 17 38  1  0
 17 39  1  0
 18 40  1  0
 18 41  1  0
 19 20  1  0
 19 42  1  0
 19 43  1  0
 20 44  1  0
 20 45  1  0
M  END

