
     RDKit          3D

 35 36  0  0  0  0  0  0  0  0999 V2000
    1.7314    1.6097   -0.7703 O   0  0  0  0  0  0  0  0  0  0  0  0
    2.5576    0.7749   -0.3883 C   0  0  0  0  0  0  0  0  0  0  0  0
    3.3267   -0.1098   -1.3583 C   0  0  0  0  0  0  0  0  0  0  0  0
    2.4828   -0.6730   -2.5239 C   0  0  1  0  0  0  0  0  0  0  0  0
    2.3371    0.3281   -3.6957 C   0  0  0  0  0  0  0  0  0  0  0  0
    2.6041    0.0331   -4.8357 O   0  0  0  0  0  0  0  0  0  0  0  0
    1.8655    1.5319   -3.3827 O   0  0  0  0  0  0  0  0  0  0  0  0
    2.8987   -2.0735   -3.0609 C   0  0  0  0  0  0  0  0  0  0  0  0
    1.4076   -2.4898   -3.0805 C   0  0  0  0  0  0  0  0  0  0  0  0
    1.0877   -1.2904   -2.1562 C   0  0  0  0  0  0  0  0  0  0  0  0
    2.8223    0.5989    0.9267 N   0  0  0  0  0  0  0  0  0  0  0  0
    2.2463    1.4557    1.9595 C   0  0  0  0  0  0  0  0  0  0  0  0
    3.1064    2.6545    2.2992 C   0  0  0  0  0  0  0  0  0  0  0  0
    2.7856    3.9578    1.8958 C   0  0  0  0  0  0  0  0  0  0  0  0
    3.6026    5.0443    2.2191 C   0  0  0  0  0  0  0  0  0  0  0  0
    4.7636    4.8140    2.9545 C   0  0  0  0  0  0  0  0  0  0  0  0
    5.5552    5.8432    3.2720 F   0  0  0  0  0  0  0  0  0  0  0  0
    5.1315    3.5345    3.3707 C   0  0  0  0  0  0  0  0  0  0  0  0
    4.2900    2.4835    3.0261 C   0  0  0  0  0  0  0  0  0  0  0  0
    4.6278    1.2337    3.4032 F   0  0  0  0  0  0  0  0  0  0  0  0
    3.7726   -0.9508   -0.8043 H   0  0  0  0  0  0  0  0  0  0  0  0
    4.1723    0.4862   -1.7473 H   0  0  0  0  0  0  0  0  0  0  0  0
    1.7088    1.6280   -2.4034 H   0  0  0  0  0  0  0  0  0  0  0  0
    3.4794   -2.6372   -2.3138 H   0  0  0  0  0  0  0  0  0  0  0  0
    3.4314   -2.0667   -4.0203 H   0  0  0  0  0  0  0  0  0  0  0  0
    1.1568   -3.4918   -2.7013 H   0  0  0  0  0  0  0  0  0  0  0  0
    0.9660   -2.3697   -4.0802 H   0  0  0  0  0  0  0  0  0  0  0  0
    1.0508   -1.5813   -1.0934 H   0  0  0  0  0  0  0  0  0  0  0  0
    0.1988   -0.6808   -2.3769 H   0  0  0  0  0  0  0  0  0  0  0  0
    3.5546   -0.0471    1.1977 H   0  0  0  0  0  0  0  0  0  0  0  0
    2.0828    0.8386    2.8558 H   0  0  0  0  0  0  0  0  0  0  0  0
    1.2696    1.7937    1.5915 H   0  0  0  0  0  0  0  0  0  0  0  0
    1.8776    4.1201    1.3102 H   0  0  0  0  0  0  0  0  0  0  0  0
    3.3563    6.0606    1.9081 H   0  0  0  0  0  0  0  0  0  0  0  0
    6.0444    3.3648    3.9422 H   0  0  0  0  0  0  0  0  0  0  0  0
  1  2  2  0
  2  3  1  0
  2 11  1  0
  3  4  1  0
  3 21  1  0
  3 22  1  0
  4  5  1  6
  4  8  1  0
  4 10  1  0
  5  6  2  0
  5  7  1  0
  7 23  1  0
  8  9  1  0
  8 24  1  0
  8 25  1  0
  9 10  1  0
  9 26  1  0
  9 27  1  0
 10 28  1  0
 10 29  1  0
 11 12  1  0
 11 30  1  0
 12 13  1  0
 12 31  1  0
 12 32  1  0
 13 14  2  0
 13 19  1  0
 14 15  1  0
 14 33  1  0
 15 16  2  0
 15 34  1  0
 16 17  1  0
 16 18  1  0
 18 19  2  0
 18 35  1  0
 19 20  1  0
M  END

