
     RDKit          3D

 46 48  0  0  0  0  0  0  0  0999 V2000
   13.1511    2.7671   -2.8961 C   0  0  0  0  0  0  0  0  0  0  0  0
   12.8419    2.7591   -1.3938 C   0  0  0  0  0  0  0  0  0  0  0  0
   11.4275    2.6922   -1.0455 N   0  0  0  0  0  0  0  0  0  0  0  0
   10.7356    3.9444   -0.7614 C   0  0  0  0  0  0  0  0  0  0  0  0
    9.9650    4.5534   -1.9392 C   0  0  0  0  0  0  0  0  0  0  0  0
   10.7511    1.4821   -1.0359 C   0  0  0  0  0  0  0  0  0  0  0  0
   11.4035    0.2576   -1.3311 C   0  0  0  0  0  0  0  0  0  0  0  0
   10.7208   -0.9567   -1.2775 C   0  0  0  0  0  0  0  0  0  0  0  0
    9.3645   -1.0248   -0.9422 C   0  0  0  0  0  0  0  0  0  0  0  0
    8.6302   -2.3448   -0.8937 C   0  0  1  0  0  0  0  0  0  0  0  0
    9.3553   -3.1538   -1.1487 H   0  0  0  0  0  0  0  0  0  0  0  0
    8.0560   -2.5948    0.4230 N   0  0  0  0  0  0  0  0  0  0  0  0
    7.1796   -3.6433    0.6780 C   0  0  0  0  0  0  0  0  0  0  0  0
    6.9849   -4.0491    1.8149 O   0  0  0  0  0  0  0  0  0  0  0  0
    6.4943   -4.1325   -0.5319 C   0  0  0  0  0  0  0  0  0  0  0  0
    6.6774   -3.4516   -1.7244 C   0  0  0  0  0  0  0  0  0  0  0  0
    5.6699   -4.0885   -2.9846 S   0  0  0  0  0  0  0  0  0  0  0  0
    4.9818   -5.2960   -1.8901 C   0  0  0  0  0  0  0  0  0  0  0  0
    3.9494   -6.2525   -2.4180 C   0  0  0  0  0  0  0  0  0  0  0  0
    5.5148   -5.1919   -0.6303 C   0  0  0  0  0  0  0  0  0  0  0  0
    5.1317   -6.0728    0.5257 C   0  0  0  0  0  0  0  0  0  0  0  0
    7.5239   -2.3738   -1.8565 N   0  0  0  0  0  0  0  0  0  0  0  0
    8.7044    0.1817   -0.6632 C   0  0  0  0  0  0  0  0  0  0  0  0
    9.3687    1.4018   -0.7120 C   0  0  0  0  0  0  0  0  0  0  0  0
   14.2406    2.7928   -3.0618 H   0  0  0  0  0  0  0  0  0  0  0  0
   12.7135    3.6481   -3.3906 H   0  0  0  0  0  0  0  0  0  0  0  0
   12.7531    1.8705   -3.3955 H   0  0  0  0  0  0  0  0  0  0  0  0
   13.2495    3.6738   -0.9351 H   0  0  0  0  0  0  0  0  0  0  0  0
   13.3744    1.9240   -0.9086 H   0  0  0  0  0  0  0  0  0  0  0  0
   11.4928    4.6643   -0.4126 H   0  0  0  0  0  0  0  0  0  0  0  0
   10.0542    3.7972    0.0931 H   0  0  0  0  0  0  0  0  0  0  0  0
   10.6391    4.8033   -2.7731 H   0  0  0  0  0  0  0  0  0  0  0  0
    9.4575    5.4802   -1.6252 H   0  0  0  0  0  0  0  0  0  0  0  0
    9.1998    3.8614   -2.3228 H   0  0  0  0  0  0  0  0  0  0  0  0
   12.4566    0.2430   -1.6065 H   0  0  0  0  0  0  0  0  0  0  0  0
   11.2670   -1.8770   -1.5067 H   0  0  0  0  0  0  0  0  0  0  0  0
    8.6001   -2.2946    1.2253 H   0  0  0  0  0  0  0  0  0  0  0  0
    3.7386   -6.0685   -3.4823 H   0  0  0  0  0  0  0  0  0  0  0  0
    2.9919   -6.1608   -1.8776 H   0  0  0  0  0  0  0  0  0  0  0  0
    4.2793   -7.3016   -2.3293 H   0  0  0  0  0  0  0  0  0  0  0  0
    4.3493   -6.7926    0.2455 H   0  0  0  0  0  0  0  0  0  0  0  0
    4.7789   -5.4706    1.3764 H   0  0  0  0  0  0  0  0  0  0  0  0
    6.0036   -6.6334    0.8997 H   0  0  0  0  0  0  0  0  0  0  0  0
    7.7761   -2.0864   -2.7957 H   0  0  0  0  0  0  0  0  0  0  0  0
    7.6427    0.1596   -0.4058 H   0  0  0  0  0  0  0  0  0  0  0  0
    8.8003    2.3044   -0.4937 H   0  0  0  0  0  0  0  0  0  0  0  0
  1  2  1  0
  1 25  1  0
  1 26  1  0
  1 27  1  0
  2  3  1  0
  2 28  1  0
  2 29  1  0
  3  4  1  0
  3  6  1  0
  4  5  1  0
  4 30  1  0
  4 31  1  0
  5 32  1  0
  5 33  1  0
  5 34  1  0
  6  7  2  0
  6 24  1  0
  7  8  1  0
  7 35  1  0
  8  9  2  0
  8 36  1  0
  9 10  1  0
  9 23  1  0
 10 11  1  6
 10 12  1  0
 10 22  1  0
 12 13  1  0
 12 37  1  0
 13 14  2  0
 13 15  1  0
 15 16  2  0
 15 20  1  0
 16 17  1  0
 16 22  1  0
 17 18  1  0
 18 19  1  0
 18 20  2  0
 19 38  1  0
 19 39  1  0
 19 40  1  0
 20 21  1  0
 21 41  1  0
 21 42  1  0
 21 43  1  0
 22 44  1  0
 23 24  2  0
 23 45  1  0
 24 46  1  0
M  END

