
     RDKit          3D

 48 50  0  0  0  0  0  0  0  0999 V2000
    3.6479    0.6182   -2.0305 C   0  0  0  0  0  0  0  0  0  0  0  0
    4.8514    1.1652   -1.3022 C   0  0  0  0  0  0  0  0  0  0  0  0
    5.6383    0.3655   -0.4632 C   0  0  0  0  0  0  0  0  0  0  0  0
    6.7548    0.8694    0.2057 C   0  0  0  0  0  0  0  0  0  0  0  0
    7.1340    2.2154    0.0577 C   0  0  0  0  0  0  0  0  0  0  0  0
    8.2373    2.7864    0.7041 N   0  0  0  0  0  0  0  0  0  0  0  0
    9.1688    2.1761    1.4975 C   0  0  0  0  0  0  0  0  0  0  0  0
    9.1657    0.9996    1.8142 O   0  0  0  0  0  0  0  0  0  0  0  0
   10.2456    3.1012    2.0839 C   0  0  0  0  0  0  0  0  0  0  0  0
   10.6190    4.6772    1.2369 S   0  0  0  0  0  0  0  0  0  0  0  0
   11.4333    4.0379   -0.1995 C   0  0  0  0  0  0  0  0  0  0  0  0
   12.1157    4.8244   -1.0165 N   0  0  0  0  0  0  0  0  0  0  0  0
   12.5317    3.9447   -1.9558 N   0  0  0  0  0  0  0  0  0  0  0  0
   13.0897    4.2654   -2.7395 H   0  0  0  0  0  0  0  0  0  0  0  0
   12.1023    2.6899   -1.6798 C   0  0  0  0  0  0  0  0  0  0  0  0
   12.4021    1.4853   -2.5158 C   0  0  0  0  0  0  0  0  0  0  0  0
   13.3311    0.4447   -1.8518 C   0  0  0  0  0  0  0  0  0  0  0  0
   12.7901   -0.2108   -0.5782 C   0  0  1  0  0  0  0  0  0  0  0  0
   11.4671   -0.9827   -0.7225 C   0  0  0  0  0  0  0  0  0  0  0  0
   11.3727   -1.7962    0.5828 C   0  0  0  0  0  0  0  0  0  0  0  0
   12.8436   -2.0732    1.0127 C   0  0  0  0  0  0  0  0  0  0  0  0
   13.7279   -1.2734    0.0253 C   0  0  0  0  0  0  0  0  0  0  0  0
   11.3931    2.7280   -0.5596 N   0  0  0  0  0  0  0  0  0  0  0  0
    6.3379    3.0196   -0.7892 C   0  0  0  0  0  0  0  0  0  0  0  0
    6.7536    4.7137   -1.0202 Cl  0  0  0  0  0  0  0  0  0  0  0  0
    5.2251    2.5093   -1.4518 C   0  0  0  0  0  0  0  0  0  0  0  0
    3.4492   -0.4261   -1.7478 H   0  0  0  0  0  0  0  0  0  0  0  0
    3.7914    0.6468   -3.1241 H   0  0  0  0  0  0  0  0  0  0  0  0
    2.7410    1.2053   -1.8099 H   0  0  0  0  0  0  0  0  0  0  0  0
    5.3750   -0.6863   -0.3219 H   0  0  0  0  0  0  0  0  0  0  0  0
    7.3535    0.2342    0.8543 H   0  0  0  0  0  0  0  0  0  0  0  0
    8.4069    3.7708    0.5012 H   0  0  0  0  0  0  0  0  0  0  0  0
   11.1578    2.5008    2.1889 H   0  0  0  0  0  0  0  0  0  0  0  0
    9.9221    3.3999    3.0945 H   0  0  0  0  0  0  0  0  0  0  0  0
   12.8520    1.8208   -3.4648 H   0  0  0  0  0  0  0  0  0  0  0  0
   11.4438    1.0075   -2.7755 H   0  0  0  0  0  0  0  0  0  0  0  0
   14.3039    0.9212   -1.6345 H   0  0  0  0  0  0  0  0  0  0  0  0
   13.5351   -0.3402   -2.6025 H   0  0  0  0  0  0  0  0  0  0  0  0
   12.6276    0.5765    0.1780 H   0  0  0  0  0  0  0  0  0  0  0  0
   11.5284   -1.6538   -1.6005 H   0  0  0  0  0  0  0  0  0  0  0  0
   10.5964   -0.3247   -0.8621 H   0  0  0  0  0  0  0  0  0  0  0  0
   10.7869   -2.7201    0.4570 H   0  0  0  0  0  0  0  0  0  0  0  0
   10.8548   -1.1918    1.3433 H   0  0  0  0  0  0  0  0  0  0  0  0
   13.0895   -3.1466    0.9902 H   0  0  0  0  0  0  0  0  0  0  0  0
   13.0126   -1.7389    2.0486 H   0  0  0  0  0  0  0  0  0  0  0  0
   14.0916   -1.9333   -0.7832 H   0  0  0  0  0  0  0  0  0  0  0  0
   14.6195   -0.8350    0.5025 H   0  0  0  0  0  0  0  0  0  0  0  0
    4.6465    3.1786   -2.0923 H   0  0  0  0  0  0  0  0  0  0  0  0
  1  2  1  0
  1 27  1  0
  1 28  1  0
  1 29  1  0
  2  3  2  0
  2 26  1  0
  3  4  1  0
  3 30  1  0
  4  5  2  0
  4 31  1  0
  5  6  1  0
  5 24  1  0
  6  7  1  0
  6 32  1  0
  7  8  2  0
  7  9  1  0
  9 10  1  0
  9 33  1  0
  9 34  1  0
 10 11  1  0
 11 12  2  0
 11 23  1  0
 12 13  1  0
 13 14  1  0
 13 15  1  0
 15 16  1  0
 15 23  2  0
 16 17  1  0
 16 35  1  0
 16 36  1  0
 17 18  1  0
 17 37  1  0
 17 38  1  0
 18 19  1  0
 18 22  1  0
 18 39  1  1
 19 20  1  0
 19 40  1  0
 19 41  1  0
 20 21  1  0
 20 42  1  0
 20 43  1  0
 21 22  1  0
 21 44  1  0
 21 45  1  0
 22 46  1  0
 22 47  1  0
 24 25  1  0
 24 26  2  0
 26 48  1  0
M  END

