
     RDKit          3D

 33 34  0  0  0  0  0  0  0  0999 V2000
    1.1653    0.1083    0.1472 C   0  0  0  0  0  0  0  0  0  0  0  0
    2.6579    0.0630   -0.0689 C   0  0  0  0  0  0  0  0  0  0  0  0
    3.4697    1.1773    0.1837 C   0  0  0  0  0  0  0  0  0  0  0  0
    4.8507    1.1280   -0.0229 C   0  0  0  0  0  0  0  0  0  0  0  0
    5.4606   -0.0432   -0.4972 C   0  0  0  0  0  0  0  0  0  0  0  0
    6.9290   -0.1107   -0.7204 C   0  0  0  0  0  0  0  0  0  0  0  0
    7.6061    1.0628   -0.9180 N   0  0  0  0  0  0  0  0  0  0  0  0
    7.4742   -1.2856   -0.6681 N   0  0  0  0  0  0  0  0  0  0  0  0
    8.8485   -1.1777   -0.9977 O   0  0  0  0  0  0  0  0  0  0  0  0
    9.5909   -2.2746   -0.6730 C   0  0  0  0  0  0  0  0  0  0  0  0
    9.1868   -3.2074   -0.0343 O   0  0  0  0  0  0  0  0  0  0  0  0
   10.9862   -2.1472   -1.2039 C   0  0  0  0  0  0  0  0  0  0  0  0
   11.3745   -1.1516   -2.1152 C   0  0  0  0  0  0  0  0  0  0  0  0
   12.6916   -1.0989   -2.5763 C   0  0  0  0  0  0  0  0  0  0  0  0
   13.6295   -2.0361   -2.1307 C   0  0  0  0  0  0  0  0  0  0  0  0
   13.2462   -3.0327   -1.2262 C   0  0  0  0  0  0  0  0  0  0  0  0
   11.9302   -3.0905   -0.7675 C   0  0  0  0  0  0  0  0  0  0  0  0
    4.6539   -1.1681   -0.7457 C   0  0  0  0  0  0  0  0  0  0  0  0
    3.2797   -1.1105   -0.5338 C   0  0  0  0  0  0  0  0  0  0  0  0
    0.8428    1.0782    0.5535 H   0  0  0  0  0  0  0  0  0  0  0  0
    0.8393   -0.6780    0.8482 H   0  0  0  0  0  0  0  0  0  0  0  0
    0.6206   -0.0592   -0.7974 H   0  0  0  0  0  0  0  0  0  0  0  0
    3.0172    2.0990    0.5601 H   0  0  0  0  0  0  0  0  0  0  0  0
    5.4589    2.0031    0.2178 H   0  0  0  0  0  0  0  0  0  0  0  0
    7.1023    1.8459   -1.3128 H   0  0  0  0  0  0  0  0  0  0  0  0
    8.5880    0.9863   -1.1524 H   0  0  0  0  0  0  0  0  0  0  0  0
   10.6383   -0.4304   -2.4719 H   0  0  0  0  0  0  0  0  0  0  0  0
   12.9875   -0.3251   -3.2892 H   0  0  0  0  0  0  0  0  0  0  0  0
   14.6604   -1.9919   -2.4921 H   0  0  0  0  0  0  0  0  0  0  0  0
   13.9766   -3.7681   -0.8795 H   0  0  0  0  0  0  0  0  0  0  0  0
   11.6063   -3.8623   -0.0667 H   0  0  0  0  0  0  0  0  0  0  0  0
    5.1264   -2.0832   -1.1054 H   0  0  0  0  0  0  0  0  0  0  0  0
    2.6707   -1.9966   -0.7358 H   0  0  0  0  0  0  0  0  0  0  0  0
  1  2  1  0
  1 20  1  0
  1 21  1  0
  1 22  1  0
  2  3  2  0
  2 19  1  0
  3  4  1  0
  3 23  1  0
  4  5  2  0
  4 24  1  0
  5  6  1  0
  5 18  1  0
  6  7  1  0
  6  8  2  0
  7 25  1  0
  7 26  1  0
  8  9  1  0
  9 10  1  0
 10 11  2  0
 10 12  1  0
 12 13  2  0
 12 17  1  0
 13 14  1  0
 13 27  1  0
 14 15  2  0
 14 28  1  0
 15 16  1  0
 15 29  1  0
 16 17  2  0
 16 30  1  0
 17 31  1  0
 18 19  2  0
 18 32  1  0
 19 33  1  0
M  END

