
     RDKit          3D

 53 54  0  0  0  0  0  0  0  0999 V2000
    2.1621   -0.2139    1.2835 C   0  0  0  0  0  0  0  0  0  0  0  0
    1.9034    0.1757   -0.1784 C   0  0  1  0  0  0  0  0  0  0  0  0
    0.4118    0.4569   -0.4074 C   0  0  0  0  0  0  0  0  0  0  0  0
    2.7473    1.3870   -0.6268 C   0  0  0  0  0  0  0  0  0  0  0  0
    4.2885    1.2585   -0.5811 C   0  0  1  0  0  0  0  0  0  0  0  0
    4.5950    0.8784    0.4045 H   0  0  0  0  0  0  0  0  0  0  0  0
    4.7937    0.2313   -1.6114 C   0  0  0  0  0  0  0  0  0  0  0  0
    6.2105   -0.0747   -1.5265 N   0  0  0  0  0  0  0  0  0  0  0  0
    6.5784   -1.4589   -1.8061 C   0  0  0  0  0  0  0  0  0  0  0  0
    8.1161   -1.4340   -1.8235 C   0  0  0  0  0  0  0  0  0  0  0  0
    8.4696    0.0290   -2.2119 C   0  0  0  0  0  0  0  0  0  0  0  0
    7.1045    0.7243   -2.3576 C   0  0  0  0  0  0  0  0  0  0  0  0
    4.9646    2.5463   -0.7672 N   0  0  0  0  0  0  0  0  0  0  0  0
    4.9313    3.5128    0.3352 C   0  0  1  0  0  0  0  0  0  0  0  0
    5.7540    3.0401    1.5490 C   0  0  0  0  0  0  0  0  0  0  0  0
    7.2569    2.9545    1.2558 C   0  0  0  0  0  0  0  0  0  0  0  0
    7.8275    4.2756    0.7123 C   0  0  2  0  0  0  0  0  0  0  0  0
    7.9643    5.3334    1.8153 C   0  0  0  0  0  0  0  0  0  0  0  0
    7.6474    5.1809    2.9640 O   0  0  0  0  0  0  0  0  0  0  0  0
    8.5068    6.5133    1.4216 O   0  0  0  0  0  0  0  0  0  0  0  0
    6.9911    4.7835   -0.4881 C   0  0  0  0  0  0  0  0  0  0  0  0
    5.4938    4.8578   -0.1610 C   0  0  0  0  0  0  0  0  0  0  0  0
    1.5263   -1.0624    1.5841 H   0  0  0  0  0  0  0  0  0  0  0  0
    1.9346    0.6272    1.9614 H   0  0  0  0  0  0  0  0  0  0  0  0
    3.2078   -0.5102    1.4605 H   0  0  0  0  0  0  0  0  0  0  0  0
    2.1714   -0.6911   -0.8103 H   0  0  0  0  0  0  0  0  0  0  0  0
    0.0737    1.3135    0.2011 H   0  0  0  0  0  0  0  0  0  0  0  0
   -0.2079   -0.4116   -0.1311 H   0  0  0  0  0  0  0  0  0  0  0  0
    0.2028    0.6965   -1.4628 H   0  0  0  0  0  0  0  0  0  0  0  0
    2.4533    2.2495   -0.0027 H   0  0  0  0  0  0  0  0  0  0  0  0
    2.4598    1.6541   -1.6618 H   0  0  0  0  0  0  0  0  0  0  0  0
    4.5141    0.5763   -2.6352 H   0  0  0  0  0  0  0  0  0  0  0  0
    4.2341   -0.7032   -1.4497 H   0  0  0  0  0  0  0  0  0  0  0  0
    6.1900   -1.7971   -2.7966 H   0  0  0  0  0  0  0  0  0  0  0  0
    6.1640   -2.1399   -1.0447 H   0  0  0  0  0  0  0  0  0  0  0  0
    8.5267   -2.1744   -2.5264 H   0  0  0  0  0  0  0  0  0  0  0  0
    8.5139   -1.6737   -0.8260 H   0  0  0  0  0  0  0  0  0  0  0  0
    9.0560    0.0915   -3.1412 H   0  0  0  0  0  0  0  0  0  0  0  0
    9.0659    0.5057   -1.4192 H   0  0  0  0  0  0  0  0  0  0  0  0
    6.7761    0.7044   -3.4254 H   0  0  0  0  0  0  0  0  0  0  0  0
    7.0993    1.7727   -2.0333 H   0  0  0  0  0  0  0  0  0  0  0  0
    4.6115    2.9887   -1.6169 H   0  0  0  0  0  0  0  0  0  0  0  0
    3.8945    3.7001    0.6905 H   0  0  0  0  0  0  0  0  0  0  0  0
    5.3915    2.0626    1.9045 H   0  0  0  0  0  0  0  0  0  0  0  0
    5.5834    3.7470    2.3758 H   0  0  0  0  0  0  0  0  0  0  0  0
    7.4335    2.1628    0.5112 H   0  0  0  0  0  0  0  0  0  0  0  0
    7.7977    2.6741    2.1721 H   0  0  0  0  0  0  0  0  0  0  0  0
    8.8598    4.0972    0.3547 H   0  0  0  0  0  0  0  0  0  0  0  0
    8.7265    6.4845    0.4797 H   0  0  0  0  0  0  0  0  0  0  0  0
    7.1473    4.0892   -1.3277 H   0  0  0  0  0  0  0  0  0  0  0  0
    7.3454    5.7695   -0.8377 H   0  0  0  0  0  0  0  0  0  0  0  0
    4.9327    5.1948   -1.0508 H   0  0  0  0  0  0  0  0  0  0  0  0
    5.3165    5.6192    0.6179 H   0  0  0  0  0  0  0  0  0  0  0  0
  1  2  1  0
  1 23  1  0
  1 24  1  0
  1 25  1  0
  2  3  1  0
  2  4  1  0
  2 26  1  6
  3 27  1  0
  3 28  1  0
  3 29  1  0
  4  5  1  0
  4 30  1  0
  4 31  1  0
  5  6  1  1
  5  7  1  0
  5 13  1  0
  7  8  1  0
  7 32  1  0
  7 33  1  0
  8  9  1  0
  8 12  1  0
  9 10  1  0
  9 34  1  0
  9 35  1  0
 10 11  1  0
 10 36  1  0
 10 37  1  0
 11 12  1  0
 11 38  1  0
 11 39  1  0
 12 40  1  0
 12 41  1  0
 13 14  1  0
 13 42  1  0
 14 15  1  0
 14 22  1  0
 14 43  1  1
 15 16  1  0
 15 44  1  0
 15 45  1  0
 16 17  1  0
 16 46  1  0
 16 47  1  0
 17 18  1  0
 17 21  1  0
 17 48  1  6
 18 19  2  0
 18 20  1  0
 20 49  1  0
 21 22  1  0
 21 50  1  0
 21 51  1  0
 22 52  1  0
 22 53  1  0
M  END

