
     RDKit          3D

 35 35  0  0  0  0  0  0  0  0999 V2000
    1.0717   -0.7326   -4.5421 C   0  0  0  0  0  0  0  0  0  0  0  0
    2.5189   -0.8309   -4.6086 N   0  0  0  0  0  0  0  0  0  0  0  0
    3.0775   -0.8804   -5.9448 C   0  0  0  0  0  0  0  0  0  0  0  0
    3.2408   -0.8402   -3.4366 C   0  0  0  0  0  0  0  0  0  0  0  0
    2.6967   -0.7734   -2.3430 O   0  0  0  0  0  0  0  0  0  0  0  0
    4.7651   -0.9268   -3.5435 C   0  0  0  0  0  0  0  0  0  0  0  0
    5.4185   -1.1204   -2.1756 C   0  0  0  0  0  0  0  0  0  0  0  0
    6.9370   -1.1006   -2.2252 C   0  0  0  0  0  0  0  0  0  0  0  0
    7.3721   -2.1090   -3.1294 O   0  0  0  0  0  0  0  0  0  0  0  0
    8.6895   -2.2931   -3.3696 C   0  0  0  0  0  0  0  0  0  0  0  0
    9.7336   -1.6590   -2.6834 C   0  0  0  0  0  0  0  0  0  0  0  0
   11.0651   -1.9336   -3.0001 C   0  0  0  0  0  0  0  0  0  0  0  0
   11.4132   -2.8481   -4.0122 C   0  0  0  0  0  0  0  0  0  0  0  0
   12.7428   -3.1586   -4.2794 N   0  0  0  0  0  0  0  0  0  0  0  0
   10.3666   -3.4758   -4.7073 C   0  0  0  0  0  0  0  0  0  0  0  0
    9.0237   -3.2054   -4.3999 C   0  0  0  0  0  0  0  0  0  0  0  0
    7.9752   -3.8383   -5.1464 C   0  0  0  0  0  0  0  0  0  0  0  0
    7.1365   -4.3453   -5.7701 N   0  0  0  0  0  0  0  0  0  0  0  0
    0.7150    0.1832   -5.0480 H   0  0  0  0  0  0  0  0  0  0  0  0
    0.7704   -0.7043   -3.4889 H   0  0  0  0  0  0  0  0  0  0  0  0
    0.5980   -1.5999   -5.0357 H   0  0  0  0  0  0  0  0  0  0  0  0
    2.8430    0.0430   -6.5071 H   0  0  0  0  0  0  0  0  0  0  0  0
    2.6554   -1.7295   -6.5121 H   0  0  0  0  0  0  0  0  0  0  0  0
    4.1653   -1.0001   -5.9271 H   0  0  0  0  0  0  0  0  0  0  0  0
    5.1397   -0.0009   -4.0187 H   0  0  0  0  0  0  0  0  0  0  0  0
    5.0624   -1.7508   -4.2098 H   0  0  0  0  0  0  0  0  0  0  0  0
    5.0802   -2.0739   -1.7403 H   0  0  0  0  0  0  0  0  0  0  0  0
    5.0784   -0.3356   -1.4827 H   0  0  0  0  0  0  0  0  0  0  0  0
    7.3523   -1.2891   -1.2181 H   0  0  0  0  0  0  0  0  0  0  0  0
    7.3127   -0.1156   -2.5652 H   0  0  0  0  0  0  0  0  0  0  0  0
    9.5175   -0.9442   -1.8895 H   0  0  0  0  0  0  0  0  0  0  0  0
   11.8570   -1.4269   -2.4412 H   0  0  0  0  0  0  0  0  0  0  0  0
   13.4262   -2.4614   -4.0070 H   0  0  0  0  0  0  0  0  0  0  0  0
   12.9347   -3.5519   -5.1938 H   0  0  0  0  0  0  0  0  0  0  0  0
   10.5884   -4.1887   -5.5046 H   0  0  0  0  0  0  0  0  0  0  0  0
  1  2  1  0
  1 19  1  0
  1 20  1  0
  1 21  1  0
  2  3  1  0
  2  4  1  0
  3 22  1  0
  3 23  1  0
  3 24  1  0
  4  5  2  0
  4  6  1  0
  6  7  1  0
  6 25  1  0
  6 26  1  0
  7  8  1  0
  7 27  1  0
  7 28  1  0
  8  9  1  0
  8 29  1  0
  8 30  1  0
  9 10  1  0
 10 11  2  0
 10 16  1  0
 11 12  1  0
 11 31  1  0
 12 13  2  0
 12 32  1  0
 13 14  1  0
 13 15  1  0
 14 33  1  0
 14 34  1  0
 15 16  2  0
 15 35  1  0
 16 17  1  0
 17 18  3  0
M  END

