
     RDKit          3D

 89 91  0  0  0  0  0  0  0  0999 V2000
    9.5557   -2.4193   -5.8881 C   0  0  0  0  0  0  0  0  0  0  0  0
   10.1224   -1.6061   -4.8611 O   0  0  0  0  0  0  0  0  0  0  0  0
   10.1720   -2.1572   -3.6246 C   0  0  0  0  0  0  0  0  0  0  0  0
    9.7669   -3.2679   -3.3843 O   0  0  0  0  0  0  0  0  0  0  0  0
   10.7492   -1.2050   -2.6243 C   0  0  0  0  0  0  0  0  0  0  0  0
   10.7648   -1.5681   -1.3257 C   0  0  0  0  0  0  0  0  0  0  0  0
   11.1830   -0.7139   -0.1660 C   0  0  0  0  0  0  0  0  0  0  0  0
   10.5353   -1.0871    1.0331 O   0  0  0  0  0  0  0  0  0  0  0  0
   11.1705   -2.1068    1.8086 C   0  0  2  0  0  0  0  0  0  0  0  0
   11.6494   -2.8315    1.1253 H   0  0  0  0  0  0  0  0  0  0  0  0
   10.0578   -2.8415    2.5753 C   0  0  0  0  0  0  0  0  0  0  0  0
    9.1585   -3.6726    1.6874 C   0  0  0  0  0  0  0  0  0  0  0  0
    9.3892   -5.0494    1.5312 C   0  0  0  0  0  0  0  0  0  0  0  0
    8.5808   -5.8267    0.6963 C   0  0  0  0  0  0  0  0  0  0  0  0
    7.5222   -5.2375   -0.0003 C   0  0  0  0  0  0  0  0  0  0  0  0
    7.2803   -3.8680    0.1456 C   0  0  0  0  0  0  0  0  0  0  0  0
    8.0907   -3.0942    0.9807 C   0  0  0  0  0  0  0  0  0  0  0  0
   12.2749   -1.4654    2.6935 C   0  0  1  0  0  0  0  0  0  0  0  0
   12.8304   -0.8007    2.0101 H   0  0  0  0  0  0  0  0  0  0  0  0
   11.6784   -0.5644    3.8029 C   0  0  0  0  0  0  0  0  0  0  0  0
   12.6024    0.5445    4.2627 C   0  0  0  0  0  0  0  0  0  0  0  0
   12.8114    1.6726    3.4484 C   0  0  0  0  0  0  0  0  0  0  0  0
   13.6640    2.7040    3.8471 C   0  0  0  0  0  0  0  0  0  0  0  0
   14.3283    2.6306    5.0765 C   0  0  0  0  0  0  0  0  0  0  0  0
   14.1281    1.5189    5.8980 C   0  0  0  0  0  0  0  0  0  0  0  0
   13.2736    0.4866    5.4942 C   0  0  0  0  0  0  0  0  0  0  0  0
   13.3435   -2.4458    3.2271 C   0  0  2  0  0  0  0  0  0  0  0  0
   14.0009   -1.8608    3.8989 H   0  0  0  0  0  0  0  0  0  0  0  0
   14.2149   -3.0478    2.1192 C   0  0  0  0  0  0  0  0  0  0  0  0
   12.6967   -3.4684    3.9882 O   0  0  0  0  0  0  0  0  0  0  0  0
   13.4962   -4.1934    4.9103 C   0  0  0  0  0  0  0  0  0  0  0  0
   13.7619   -3.4645    6.2108 C   0  0  0  0  0  0  0  0  0  0  0  0
   12.6966   -3.1328    7.0705 C   0  0  0  0  0  0  0  0  0  0  0  0
   12.9189   -2.4753    8.2739 C   0  0  0  0  0  0  0  0  0  0  0  0
   14.2277   -2.1255    8.6602 C   0  0  0  0  0  0  0  0  0  0  0  0
   14.3477   -1.4924    9.8540 O   0  0  0  0  0  0  0  0  0  0  0  0
   15.6274   -1.1212   10.3134 C   0  0  0  0  0  0  0  0  0  0  0  0
   15.3001   -2.4449    7.8158 C   0  0  0  0  0  0  0  0  0  0  0  0
   15.0538   -3.1064    6.6049 C   0  0  0  0  0  0  0  0  0  0  0  0
   11.2135    0.0272   -3.1301 N   0  0  0  0  0  0  0  0  0  0  0  0
   12.4549    0.5716   -2.8755 C   0  0  0  0  0  0  0  0  0  0  0  0
   13.2452    0.1583   -2.0538 O   0  0  0  0  0  0  0  0  0  0  0  0
   12.6325    1.6330   -3.6875 O   0  0  0  0  0  0  0  0  0  0  0  0
   13.8567    2.4405   -3.6567 C   0  0  1  0  0  0  0  0  0  0  0  0
   15.0643    1.5763   -4.0341 C   0  0  0  0  0  0  0  0  0  0  0  0
   13.5907    3.4992   -4.7285 C   0  0  0  0  0  0  0  0  0  0  0  0
   14.0198    3.0914   -2.2793 C   0  0  0  0  0  0  0  0  0  0  0  0
    9.5928   -1.8229   -6.8081 H   0  0  0  0  0  0  0  0  0  0  0  0
    8.5160   -2.6868   -5.6459 H   0  0  0  0  0  0  0  0  0  0  0  0
   10.1326   -3.3483   -6.0112 H   0  0  0  0  0  0  0  0  0  0  0  0
   10.4003   -2.5753   -1.1052 H   0  0  0  0  0  0  0  0  0  0  0  0
   10.9180    0.3383   -0.3683 H   0  0  0  0  0  0  0  0  0  0  0  0
   12.2843   -0.7268   -0.0684 H   0  0  0  0  0  0  0  0  0  0  0  0
    9.4598   -2.0879    3.1115 H   0  0  0  0  0  0  0  0  0  0  0  0
   10.5385   -3.4798    3.3268 H   0  0  0  0  0  0  0  0  0  0  0  0
   10.2143   -5.5173    2.0768 H   0  0  0  0  0  0  0  0  0  0  0  0
    8.7779   -6.8971    0.5911 H   0  0  0  0  0  0  0  0  0  0  0  0
    6.8892   -5.8420   -0.6550 H   0  0  0  0  0  0  0  0  0  0  0  0
    6.4552   -3.3983   -0.3968 H   0  0  0  0  0  0  0  0  0  0  0  0
    7.9042   -2.0230    1.0848 H   0  0  0  0  0  0  0  0  0  0  0  0
   11.3847   -1.1873    4.6611 H   0  0  0  0  0  0  0  0  0  0  0  0
   10.7618   -0.1074    3.3987 H   0  0  0  0  0  0  0  0  0  0  0  0
   12.2884    1.7443    2.4898 H   0  0  0  0  0  0  0  0  0  0  0  0
   13.8062    3.5730    3.1987 H   0  0  0  0  0  0  0  0  0  0  0  0
   14.9936    3.4385    5.3923 H   0  0  0  0  0  0  0  0  0  0  0  0
   14.6363    1.4513    6.8636 H   0  0  0  0  0  0  0  0  0  0  0  0
   13.1221   -0.3748    6.1490 H   0  0  0  0  0  0  0  0  0  0  0  0
   15.0140   -3.6797    2.5361 H   0  0  0  0  0  0  0  0  0  0  0  0
   14.7015   -2.2515    1.5347 H   0  0  0  0  0  0  0  0  0  0  0  0
   13.6231   -3.6714    1.4322 H   0  0  0  0  0  0  0  0  0  0  0  0
   14.4557   -4.4990    4.4553 H   0  0  0  0  0  0  0  0  0  0  0  0
   12.9284   -5.1165    5.1118 H   0  0  0  0  0  0  0  0  0  0  0  0
   11.6751   -3.4004    6.7862 H   0  0  0  0  0  0  0  0  0  0  0  0
   12.0966   -2.2212    8.9459 H   0  0  0  0  0  0  0  0  0  0  0  0
   15.4819   -0.6355   11.2877 H   0  0  0  0  0  0  0  0  0  0  0  0
   16.1204   -0.4071    9.6288 H   0  0  0  0  0  0  0  0  0  0  0  0
   16.2877   -1.9974   10.4459 H   0  0  0  0  0  0  0  0  0  0  0  0
   16.3246   -2.1863    8.0839 H   0  0  0  0  0  0  0  0  0  0  0  0
   15.9017   -3.3500    5.9576 H   0  0  0  0  0  0  0  0  0  0  0  0
   10.7760    0.3472   -3.9876 H   0  0  0  0  0  0  0  0  0  0  0  0
   14.8982    1.0901   -5.0082 H   0  0  0  0  0  0  0  0  0  0  0  0
   15.2485    0.8019   -3.2787 H   0  0  0  0  0  0  0  0  0  0  0  0
   15.9615    2.2093   -4.1179 H   0  0  0  0  0  0  0  0  0  0  0  0
   13.4285    3.0260   -5.7088 H   0  0  0  0  0  0  0  0  0  0  0  0
   14.4485    4.1838   -4.8090 H   0  0  0  0  0  0  0  0  0  0  0  0
   12.6957    4.0884   -4.4775 H   0  0  0  0  0  0  0  0  0  0  0  0
   14.1947    2.3361   -1.5028 H   0  0  0  0  0  0  0  0  0  0  0  0
   13.1183    3.6680   -2.0189 H   0  0  0  0  0  0  0  0  0  0  0  0
   14.8749    3.7850   -2.2960 H   0  0  0  0  0  0  0  0  0  0  0  0
  1  2  1  0
  1 48  1  0
  1 49  1  0
  1 50  1  0
  2  3  1  0
  3  4  2  0
  3  5  1  0
  5  6  2  0
  5 40  1  0
  6  7  1  0
  6 51  1  0
  7  8  1  0
  7 52  1  0
  7 53  1  0
  8  9  1  0
  9 10  1  6
  9 11  1  0
  9 18  1  0
 11 12  1  0
 11 54  1  0
 11 55  1  0
 12 13  2  0
 12 17  1  0
 13 14  1  0
 13 56  1  0
 14 15  2  0
 14 57  1  0
 15 16  1  0
 15 58  1  0
 16 17  2  0
 16 59  1  0
 17 60  1  0
 18 19  1  6
 18 20  1  0
 18 27  1  0
 20 21  1  0
 20 61  1  0
 20 62  1  0
 21 22  2  0
 21 26  1  0
 22 23  1  0
 22 63  1  0
 23 24  2  0
 23 64  1  0
 24 25  1  0
 24 65  1  0
 25 26  2  0
 25 66  1  0
 26 67  1  0
 27 28  1  1
 27 29  1  0
 27 30  1  0
 29 68  1  0
 29 69  1  0
 29 70  1  0
 30 31  1  0
 31 32  1  0
 31 71  1  0
 31 72  1  0
 32 33  2  0
 32 39  1  0
 33 34  1  0
 33 73  1  0
 34 35  2  0
 34 74  1  0
 35 36  1  0
 35 38  1  0
 36 37  1  0
 37 75  1  0
 37 76  1  0
 37 77  1  0
 38 39  2  0
 38 78  1  0
 39 79  1  0
 40 41  1  0
 40 80  1  0
 41 42  2  0
 41 43  1  0
 44 43  1  1
 44 45  1  0
 44 46  1  0
 44 47  1  0
 45 81  1  0
 45 82  1  0
 45 83  1  0
 46 84  1  0
 46 85  1  0
 46 86  1  0
 47 87  1  0
 47 88  1  0
 47 89  1  0
M  END

