
     RDKit          3D

 23 24  0  0  0  0  0  0  0  0999 V2000
    1.0113    2.4277   -0.4270 N   0  0  0  0  0  0  0  0  0  0  0  0
    2.4467    2.4558   -0.6745 C   0  0  0  0  0  0  0  0  0  0  0  0
    2.9316    1.0655   -1.0960 C   0  0  0  0  0  0  0  0  0  0  0  0
    4.3928    1.0132   -1.4129 C   0  0  0  0  0  0  0  0  0  0  0  0
    5.3419    2.0017   -1.5924 C   0  0  0  0  0  0  0  0  0  0  0  0
    6.5516    1.4233   -1.8390 N   0  0  0  0  0  0  0  0  0  0  0  0
    6.4303    0.1432   -1.8365 N   0  0  0  0  0  0  0  0  0  0  0  0
    5.1154   -0.1438   -1.5747 N   0  0  0  0  0  0  0  0  0  0  0  0
    4.7128   -1.4833   -1.4668 C   0  0  0  0  0  0  0  0  0  0  0  0
    5.3514   -2.4675   -0.7541 C   0  0  0  0  0  0  0  0  0  0  0  0
    4.7507   -3.7498   -0.9220 C   0  0  0  0  0  0  0  0  0  0  0  0
    3.6685   -3.7117   -1.7645 C   0  0  0  0  0  0  0  0  0  0  0  0
    2.5424   -5.1425   -2.2324 Br  0  0  0  0  0  0  0  0  0  0  0  0
    3.3677   -2.1187   -2.3927 S   0  0  0  0  0  0  0  0  0  0  0  0
    0.6552    3.3705   -0.2741 H   0  0  0  0  0  0  0  0  0  0  0  0
    0.8057    1.9045    0.4254 H   0  0  0  0  0  0  0  0  0  0  0  0
    3.0597    2.8050    0.1844 H   0  0  0  0  0  0  0  0  0  0  0  0
    2.6372    3.1655   -1.4973 H   0  0  0  0  0  0  0  0  0  0  0  0
    2.3289    0.7436   -1.9628 H   0  0  0  0  0  0  0  0  0  0  0  0
    2.7076    0.3387   -0.2938 H   0  0  0  0  0  0  0  0  0  0  0  0
    5.2238    3.0819   -1.5510 H   0  0  0  0  0  0  0  0  0  0  0  0
    6.2309   -2.2691   -0.1420 H   0  0  0  0  0  0  0  0  0  0  0  0
    5.0961   -4.6597   -0.4316 H   0  0  0  0  0  0  0  0  0  0  0  0
  1  2  1  0
  1 15  1  0
  1 16  1  0
  2  3  1  0
  2 17  1  0
  2 18  1  0
  3  4  1  0
  3 19  1  0
  3 20  1  0
  4  5  2  0
  4  8  1  0
  5  6  1  0
  5 21  1  0
  6  7  2  0
  7  8  1  0
  8  9  1  0
  9 10  2  0
  9 14  1  0
 10 11  1  0
 10 22  1  0
 11 12  2  0
 11 23  1  0
 12 13  1  0
 12 14  1  0
M  END

