
     RDKit          3D

 64 66  0  0  0  0  0  0  0  0999 V2000
    1.7947   -2.8995    1.4966 C   0  0  0  0  0  0  0  0  0  0  0  0
    2.3705   -1.5991    2.0624 C   0  0  0  0  0  0  0  0  0  0  0  0
    3.3452   -0.9314    1.2063 N   0  0  0  0  0  0  0  0  0  0  0  0
    4.6158   -1.4195    0.9143 C   0  0  0  0  0  0  0  0  0  0  0  0
    5.2675   -1.1922   -0.1720 N   0  0  0  0  0  0  0  0  0  0  0  0
    4.6619   -0.4887   -1.2668 C   0  0  0  0  0  0  0  0  0  0  0  0
    5.2893   -0.8282   -2.6111 C   0  0  0  0  0  0  0  0  0  0  0  0
    5.2339    0.0850   -3.6729 C   0  0  0  0  0  0  0  0  0  0  0  0
    5.7530   -0.2438   -4.9279 C   0  0  0  0  0  0  0  0  0  0  0  0
    6.3299   -1.4957   -5.1087 C   0  0  0  0  0  0  0  0  0  0  0  0
    6.8320   -1.8165   -6.3209 F   0  0  0  0  0  0  0  0  0  0  0  0
    6.4142   -2.4357   -4.0764 C   0  0  0  0  0  0  0  0  0  0  0  0
    7.0458   -3.7928   -4.3233 C   0  0  0  0  0  0  0  0  0  0  0  0
    7.4661   -4.4531   -3.1485 O   0  0  0  0  0  0  0  0  0  0  0  0
    5.8843   -2.0777   -2.8300 C   0  0  0  0  0  0  0  0  0  0  0  0
    5.1795   -2.1843    1.9230 N   0  0  0  0  0  0  0  0  0  0  0  0
    6.5616   -2.6185    1.8702 C   0  0  0  0  0  0  0  0  0  0  0  0
    6.7359   -4.0893    2.3159 C   0  0  1  0  0  0  0  0  0  0  0  0
    5.9117   -5.0234    1.4419 C   0  0  0  0  0  0  0  0  0  0  0  0
    6.2423   -5.2068    0.0867 C   0  0  0  0  0  0  0  0  0  0  0  0
    5.4939   -6.0369   -0.7378 C   0  0  0  0  0  0  0  0  0  0  0  0
    4.3761   -6.7201   -0.2244 C   0  0  0  0  0  0  0  0  0  0  0  0
    3.7021   -7.5125   -1.1002 O   0  0  0  0  0  0  0  0  0  0  0  0
    2.5759   -8.2278   -0.6535 C   0  0  0  0  0  0  0  0  0  0  0  0
    4.0312   -6.5531    1.1241 C   0  0  0  0  0  0  0  0  0  0  0  0
    4.8022   -5.7097    1.9381 C   0  0  0  0  0  0  0  0  0  0  0  0
    8.1472   -4.4676    2.2906 N   0  0  0  0  0  0  0  0  0  0  0  0
    9.0700   -3.6339    3.0621 C   0  0  0  0  0  0  0  0  0  0  0  0
   10.3795   -4.4511    3.1238 C   0  0  0  0  0  0  0  0  0  0  0  0
    9.9572   -5.8960    2.7551 C   0  0  0  0  0  0  0  0  0  0  0  0
    8.4266   -5.8355    2.7231 C   0  0  0  0  0  0  0  0  0  0  0  0
    1.0489   -3.3270    2.1872 H   0  0  0  0  0  0  0  0  0  0  0  0
    2.5881   -3.6461    1.3405 H   0  0  0  0  0  0  0  0  0  0  0  0
    1.2964   -2.7198    0.5298 H   0  0  0  0  0  0  0  0  0  0  0  0
    2.8139   -1.7857    3.0548 H   0  0  0  0  0  0  0  0  0  0  0  0
    1.5598   -0.8743    2.2460 H   0  0  0  0  0  0  0  0  0  0  0  0
    2.9320   -0.4235    0.4338 H   0  0  0  0  0  0  0  0  0  0  0  0
    4.7317    0.6105   -1.1259 H   0  0  0  0  0  0  0  0  0  0  0  0
    3.5692   -0.6984   -1.3676 H   0  0  0  0  0  0  0  0  0  0  0  0
    4.7834    1.0706   -3.5217 H   0  0  0  0  0  0  0  0  0  0  0  0
    5.7247    0.4563   -5.7655 H   0  0  0  0  0  0  0  0  0  0  0  0
    7.8720   -3.6845   -5.0515 H   0  0  0  0  0  0  0  0  0  0  0  0
    6.3077   -4.4629   -4.7972 H   0  0  0  0  0  0  0  0  0  0  0  0
    8.1113   -3.8887   -2.7010 H   0  0  0  0  0  0  0  0  0  0  0  0
    5.9393   -2.7860   -2.0027 H   0  0  0  0  0  0  0  0  0  0  0  0
    4.8044   -2.0246    2.8494 H   0  0  0  0  0  0  0  0  0  0  0  0
    7.1877   -1.9613    2.4985 H   0  0  0  0  0  0  0  0  0  0  0  0
    6.9038   -2.4919    0.8354 H   0  0  0  0  0  0  0  0  0  0  0  0
    6.3400   -4.1701    3.3599 H   0  0  0  0  0  0  0  0  0  0  0  0
    7.1113   -4.6943   -0.3293 H   0  0  0  0  0  0  0  0  0  0  0  0
    5.7643   -6.1603   -1.7878 H   0  0  0  0  0  0  0  0  0  0  0  0
    2.1972   -8.7912   -1.5174 H   0  0  0  0  0  0  0  0  0  0  0  0
    1.7765   -7.5566   -0.2883 H   0  0  0  0  0  0  0  0  0  0  0  0
    2.8306   -8.9409    0.1523 H   0  0  0  0  0  0  0  0  0  0  0  0
    3.1752   -7.0728    1.5555 H   0  0  0  0  0  0  0  0  0  0  0  0
    4.5245   -5.5951    2.9903 H   0  0  0  0  0  0  0  0  0  0  0  0
    8.6827   -3.4523    4.0929 H   0  0  0  0  0  0  0  0  0  0  0  0
    9.2173   -2.6499    2.5936 H   0  0  0  0  0  0  0  0  0  0  0  0
   10.8315   -4.3898    4.1254 H   0  0  0  0  0  0  0  0  0  0  0  0
   11.1227   -4.0626    2.4118 H   0  0  0  0  0  0  0  0  0  0  0  0
   10.3269   -6.6482    3.4681 H   0  0  0  0  0  0  0  0  0  0  0  0
   10.3417   -6.1674    1.7602 H   0  0  0  0  0  0  0  0  0  0  0  0
    8.0097   -6.0304    3.7407 H   0  0  0  0  0  0  0  0  0  0  0  0
    7.9752   -6.5700    2.0415 H   0  0  0  0  0  0  0  0  0  0  0  0
  1  2  1  0
  1 32  1  0
  1 33  1  0
  1 34  1  0
  2  3  1  0
  2 35  1  0
  2 36  1  0
  3  4  1  0
  3 37  1  0
  4  5  2  0
  4 16  1  0
  5  6  1  0
  6  7  1  0
  6 38  1  0
  6 39  1  0
  7  8  2  0
  7 15  1  0
  8  9  1  0
  8 40  1  0
  9 10  2  0
  9 41  1  0
 10 11  1  0
 10 12  1  0
 12 13  1  0
 12 15  2  0
 13 14  1  0
 13 42  1  0
 13 43  1  0
 14 44  1  0
 15 45  1  0
 16 17  1  0
 16 46  1  0
 17 18  1  0
 17 47  1  0
 17 48  1  0
 18 19  1  0
 18 27  1  0
 18 49  1  1
 19 20  2  0
 19 26  1  0
 20 21  1  0
 20 50  1  0
 21 22  2  0
 21 51  1  0
 22 23  1  0
 22 25  1  0
 23 24  1  0
 24 52  1  0
 24 53  1  0
 24 54  1  0
 25 26  2  0
 25 55  1  0
 26 56  1  0
 27 28  1  0
 27 31  1  0
 28 29  1  0
 28 57  1  0
 28 58  1  0
 29 30  1  0
 29 59  1  0
 29 60  1  0
 30 31  1  0
 30 61  1  0
 30 62  1  0
 31 63  1  0
 31 64  1  0
M  END

