
     RDKit          3D

 52 54  0  0  0  0  0  0  0  0999 V2000
   -5.4417   -2.5464    2.9781 C   0  0  0  0  0  0  0  0  0  0  0  0
   -4.2419   -1.7275    3.3430 C   0  0  0  0  0  0  0  0  0  0  0  0
   -4.3478   -0.4352    3.6454 N   0  0  0  0  0  0  0  0  0  0  0  0
   -3.1040   -0.0229    3.9562 N   0  0  0  0  0  0  0  0  0  0  0  0
   -2.8788    1.3536    4.3353 C   0  0  0  0  0  0  0  0  0  0  0  0
   -2.1703   -1.0158    3.8561 C   0  0  0  0  0  0  0  0  0  0  0  0
   -0.7238   -0.8438    4.1736 C   0  0  0  0  0  0  0  0  0  0  0  0
   -2.8846   -2.1395    3.4544 C   0  0  0  0  0  0  0  0  0  0  0  0
   -2.3855   -3.4096    3.3158 O   0  0  0  0  0  0  0  0  0  0  0  0
   -2.3449   -3.9501    2.0216 C   0  0  0  0  0  0  0  0  0  0  0  0
   -1.0728   -3.5592    1.2478 C   0  0  0  0  0  0  0  0  0  0  0  0
   -0.2112   -2.8469    1.7302 O   0  0  0  0  0  0  0  0  0  0  0  0
   -0.9594   -4.0530   -0.0250 N   0  0  0  0  0  0  0  0  0  0  0  0
   -1.8312   -4.9884   -0.7351 C   0  0  1  0  0  0  0  0  0  0  0  0
   -1.9095   -4.5857   -2.2242 C   0  0  0  0  0  0  0  0  0  0  0  0
   -0.6250   -4.8973   -3.0038 C   0  0  0  0  0  0  0  0  0  0  0  0
   -0.2233   -6.3666   -2.8351 C   0  0  0  0  0  0  0  0  0  0  0  0
   -0.0718   -6.7238   -1.3528 C   0  0  0  0  0  0  0  0  0  0  0  0
   -1.3602   -6.4608   -0.5314 C   0  0  2  0  0  0  0  0  0  0  0  0
   -2.4315   -7.5345   -0.7450 C   0  0  0  0  0  0  0  0  0  0  0  0
   -2.1220   -8.8615   -0.3872 C   0  0  0  0  0  0  0  0  0  0  0  0
   -3.0522   -9.8921   -0.5220 C   0  0  0  0  0  0  0  0  0  0  0  0
   -4.3325   -9.6234   -1.0178 C   0  0  0  0  0  0  0  0  0  0  0  0
   -4.6642   -8.3142   -1.3655 C   0  0  0  0  0  0  0  0  0  0  0  0
   -3.7256   -7.2836   -1.2287 C   0  0  0  0  0  0  0  0  0  0  0  0
   -6.3570   -2.0173    3.2794 H   0  0  0  0  0  0  0  0  0  0  0  0
   -5.4195   -3.5275    3.4795 H   0  0  0  0  0  0  0  0  0  0  0  0
   -5.5092   -2.7344    1.8917 H   0  0  0  0  0  0  0  0  0  0  0  0
   -3.8586    1.8451    4.3680 H   0  0  0  0  0  0  0  0  0  0  0  0
   -2.2376    1.8753    3.6052 H   0  0  0  0  0  0  0  0  0  0  0  0
   -2.4052    1.4221    5.3281 H   0  0  0  0  0  0  0  0  0  0  0  0
   -0.5552   -0.6792    5.2525 H   0  0  0  0  0  0  0  0  0  0  0  0
   -0.2881    0.0137    3.6342 H   0  0  0  0  0  0  0  0  0  0  0  0
   -0.1841   -1.7435    3.8546 H   0  0  0  0  0  0  0  0  0  0  0  0
   -3.2327   -3.6579    1.4317 H   0  0  0  0  0  0  0  0  0  0  0  0
   -2.3754   -5.0474    2.1296 H   0  0  0  0  0  0  0  0  0  0  0  0
   -0.0903   -3.7775   -0.4738 H   0  0  0  0  0  0  0  0  0  0  0  0
   -2.8362   -4.8835   -0.3035 H   0  0  0  0  0  0  0  0  0  0  0  0
   -2.1586   -3.5139   -2.2858 H   0  0  0  0  0  0  0  0  0  0  0  0
   -2.7405   -5.1321   -2.6965 H   0  0  0  0  0  0  0  0  0  0  0  0
    0.2021   -4.2488   -2.6583 H   0  0  0  0  0  0  0  0  0  0  0  0
   -0.7707   -4.6498   -4.0680 H   0  0  0  0  0  0  0  0  0  0  0  0
    0.7194   -6.5714   -3.3689 H   0  0  0  0  0  0  0  0  0  0  0  0
   -0.9907   -7.0137   -3.2963 H   0  0  0  0  0  0  0  0  0  0  0  0
    0.7444   -6.1199   -0.9180 H   0  0  0  0  0  0  0  0  0  0  0  0
    0.2367   -7.7741   -1.2386 H   0  0  0  0  0  0  0  0  0  0  0  0
   -1.0760   -6.5385    0.5324 H   0  0  0  0  0  0  0  0  0  0  0  0
   -1.1325   -9.0913    0.0181 H   0  0  0  0  0  0  0  0  0  0  0  0
   -2.7784  -10.9099   -0.2317 H   0  0  0  0  0  0  0  0  0  0  0  0
   -5.0647  -10.4275   -1.1249 H   0  0  0  0  0  0  0  0  0  0  0  0
   -5.6625   -8.0840   -1.7469 H   0  0  0  0  0  0  0  0  0  0  0  0
   -4.0307   -6.2737   -1.5050 H   0  0  0  0  0  0  0  0  0  0  0  0
  1  2  1  0
  1 26  1  0
  1 27  1  0
  1 28  1  0
  2  3  2  0
  2  8  1  0
  3  4  1  0
  4  5  1  0
  4  6  1  0
  5 29  1  0
  5 30  1  0
  5 31  1  0
  6  7  1  0
  6  8  2  0
  7 32  1  0
  7 33  1  0
  7 34  1  0
  8  9  1  0
  9 10  1  0
 10 11  1  0
 10 35  1  0
 10 36  1  0
 11 12  2  0
 11 13  1  0
 13 14  1  0
 13 37  1  0
 14 15  1  0
 14 19  1  0
 14 38  1  1
 15 16  1  0
 15 39  1  0
 15 40  1  0
 16 17  1  0
 16 41  1  0
 16 42  1  0
 17 18  1  0
 17 43  1  0
 17 44  1  0
 18 19  1  0
 18 45  1  0
 18 46  1  0
 19 20  1  0
 19 47  1  1
 20 21  2  0
 20 25  1  0
 21 22  1  0
 21 48  1  0
 22 23  2  0
 22 49  1  0
 23 24  1  0
 23 50  1  0
 24 25  2  0
 24 51  1  0
 25 52  1  0
M  END

