
     RDKit          3D

 40 40  0  0  0  0  0  0  0  0999 V2000
    0.7445    0.0084    0.3195 C   0  0  0  0  0  0  0  0  0  0  0  0
    2.2706    0.0778    0.1588 C   0  0  1  0  0  0  0  0  0  0  0  0
    2.9016   -1.3018   -0.1271 C   0  0  0  0  0  0  0  0  0  0  0  0
    2.6325   -1.8106   -1.5519 C   0  0  0  0  0  0  0  0  0  0  0  0
    3.0535   -0.8008   -2.6405 C   0  0  2  0  0  0  0  0  0  0  0  0
    4.5789   -0.7245   -2.8319 C   0  0  0  0  0  0  0  0  0  0  0  0
    5.1412   -2.0084   -3.2249 N   0  0  0  0  0  0  0  0  0  0  0  0
    6.5816   -2.0131   -3.4051 C   0  0  0  0  0  0  0  0  0  0  0  0
    7.1065   -3.4184   -3.7078 C   0  0  1  0  0  0  0  0  0  0  0  0
    6.6666   -3.9900   -5.0500 C   0  0  0  0  0  0  0  0  0  0  0  0
    8.9965   -3.3797   -3.7166 S   0  0  0  0  0  0  0  0  0  0  0  0
    9.2338   -3.6385   -1.9133 C   0  0  0  0  0  0  0  0  0  0  0  0
    9.4583   -4.6641   -4.3714 O   0  0  0  0  0  0  0  0  0  0  0  0
    2.4370    0.5843   -2.3553 C   0  0  0  0  0  0  0  0  0  0  0  0
    2.7080    1.0844   -0.9271 C   0  0  0  0  0  0  0  0  0  0  0  0
    0.4660   -0.6819    1.1326 H   0  0  0  0  0  0  0  0  0  0  0  0
    0.2364   -0.3412   -0.5932 H   0  0  0  0  0  0  0  0  0  0  0  0
    0.3286    0.9990    0.5666 H   0  0  0  0  0  0  0  0  0  0  0  0
    2.6751    0.4352    1.1229 H   0  0  0  0  0  0  0  0  0  0  0  0
    2.5368   -2.0414    0.6064 H   0  0  0  0  0  0  0  0  0  0  0  0
    3.9919   -1.2330    0.0348 H   0  0  0  0  0  0  0  0  0  0  0  0
    1.5562   -2.0254   -1.6698 H   0  0  0  0  0  0  0  0  0  0  0  0
    3.1633   -2.7609   -1.7158 H   0  0  0  0  0  0  0  0  0  0  0  0
    2.6410   -1.1536   -3.6053 H   0  0  0  0  0  0  0  0  0  0  0  0
    5.0722   -0.4152   -1.8940 H   0  0  0  0  0  0  0  0  0  0  0  0
    4.8025    0.0814   -3.5684 H   0  0  0  0  0  0  0  0  0  0  0  0
    4.6824   -2.3347   -4.0750 H   0  0  0  0  0  0  0  0  0  0  0  0
    7.0330   -1.6399   -2.4680 H   0  0  0  0  0  0  0  0  0  0  0  0
    6.9299   -1.3190   -4.2054 H   0  0  0  0  0  0  0  0  0  0  0  0
    6.8142   -4.1046   -2.8966 H   0  0  0  0  0  0  0  0  0  0  0  0
    6.8539   -3.2808   -5.8741 H   0  0  0  0  0  0  0  0  0  0  0  0
    5.5912   -4.2296   -5.0339 H   0  0  0  0  0  0  0  0  0  0  0  0
    7.2233   -4.9146   -5.2614 H   0  0  0  0  0  0  0  0  0  0  0  0
    8.7610   -2.8334   -1.3321 H   0  0  0  0  0  0  0  0  0  0  0  0
   10.3191   -3.6405   -1.7427 H   0  0  0  0  0  0  0  0  0  0  0  0
    8.8133   -4.6221   -1.6591 H   0  0  0  0  0  0  0  0  0  0  0  0
    1.3476    0.5215   -2.5192 H   0  0  0  0  0  0  0  0  0  0  0  0
    2.8089    1.3222   -3.0872 H   0  0  0  0  0  0  0  0  0  0  0  0
    2.2014    2.0522   -0.7698 H   0  0  0  0  0  0  0  0  0  0  0  0
    3.7871    1.2874   -0.8076 H   0  0  0  0  0  0  0  0  0  0  0  0
  1  2  1  0
  1 16  1  0
  1 17  1  0
  1 18  1  0
  2  3  1  0
  2 15  1  0
  2 19  1  1
  3  4  1  0
  3 20  1  0
  3 21  1  0
  4  5  1  0
  4 22  1  0
  4 23  1  0
  5  6  1  0
  5 14  1  0
  5 24  1  6
  6  7  1  0
  6 25  1  0
  6 26  1  0
  7  8  1  0
  7 27  1  0
  8  9  1  0
  8 28  1  0
  8 29  1  0
  9 10  1  0
  9 11  1  0
  9 30  1  1
 10 31  1  0
 10 32  1  0
 10 33  1  0
 11 12  1  0
 11 13  1  6
 12 34  1  0
 12 35  1  0
 12 36  1  0
 14 15  1  0
 14 37  1  0
 14 38  1  0
 15 39  1  0
 15 40  1  0
M  CHG  2  11   1  13  -1
M  END

