
     RDKit          3D

 39 40  0  0  0  0  0  0  0  0999 V2000
    4.1353    3.0902   -1.8235 C   0  0  0  0  0  0  0  0  0  0  0  0
    5.1972    2.7563   -2.8690 C   0  0  0  0  0  0  0  0  0  0  0  0
    6.3901    1.9344   -2.3607 C   0  0  0  0  0  0  0  0  0  0  0  0
    6.0612    0.6225   -1.7950 N   0  0  0  0  0  0  0  0  0  0  0  0
    6.2858    0.1854   -0.5038 C   0  0  0  0  0  0  0  0  0  0  0  0
    6.9450    0.9321    0.5890 C   0  0  0  0  0  0  0  0  0  0  0  0
    5.7807    2.2529    1.5262 Br  0  0  0  0  0  0  0  0  0  0  0  0
    5.9036   -1.0664   -0.3783 N   0  0  0  0  0  0  0  0  0  0  0  0
    5.4373   -1.4810   -1.5848 N   0  0  0  0  0  0  0  0  0  0  0  0
    5.5343   -0.4781   -2.4340 C   0  0  0  0  0  0  0  0  0  0  0  0
    5.1495   -0.5684   -3.8893 C   0  0  1  0  0  0  0  0  0  0  0  0
    5.5921   -1.9281   -4.4908 C   0  0  0  0  0  0  0  0  0  0  0  0
    7.1043   -2.1466   -4.5007 C   0  0  0  0  0  0  0  0  0  0  0  0
    3.6547   -0.3381   -4.1251 C   0  0  0  0  0  0  0  0  0  0  0  0
    3.2274    0.3856   -5.2496 C   0  0  0  0  0  0  0  0  0  0  0  0
    1.8664    0.5606   -5.5173 C   0  0  0  0  0  0  0  0  0  0  0  0
    0.9089    0.0103   -4.6608 C   0  0  0  0  0  0  0  0  0  0  0  0
    1.3236   -0.7163   -3.5405 C   0  0  0  0  0  0  0  0  0  0  0  0
    2.6847   -0.8903   -3.2734 C   0  0  0  0  0  0  0  0  0  0  0  0
    3.3288    3.6877   -2.2761 H   0  0  0  0  0  0  0  0  0  0  0  0
    4.5564    3.6630   -0.9833 H   0  0  0  0  0  0  0  0  0  0  0  0
    3.6771    2.1799   -1.4067 H   0  0  0  0  0  0  0  0  0  0  0  0
    5.6229    3.6872   -3.2834 H   0  0  0  0  0  0  0  0  0  0  0  0
    4.7271    2.2376   -3.7184 H   0  0  0  0  0  0  0  0  0  0  0  0
    6.9144    2.4958   -1.5745 H   0  0  0  0  0  0  0  0  0  0  0  0
    7.1123    1.7837   -3.1805 H   0  0  0  0  0  0  0  0  0  0  0  0
    7.8173    1.5103    0.2626 H   0  0  0  0  0  0  0  0  0  0  0  0
    7.2359    0.2123    1.3600 H   0  0  0  0  0  0  0  0  0  0  0  0
    5.6937    0.2210   -4.4339 H   0  0  0  0  0  0  0  0  0  0  0  0
    5.1985   -1.9767   -5.5195 H   0  0  0  0  0  0  0  0  0  0  0  0
    5.0991   -2.7320   -3.9228 H   0  0  0  0  0  0  0  0  0  0  0  0
    7.6267   -1.3522   -5.0614 H   0  0  0  0  0  0  0  0  0  0  0  0
    7.3557   -3.1063   -4.9791 H   0  0  0  0  0  0  0  0  0  0  0  0
    7.5145   -2.1717   -3.4793 H   0  0  0  0  0  0  0  0  0  0  0  0
    3.9699    0.8167   -5.9286 H   0  0  0  0  0  0  0  0  0  0  0  0
    1.5546    1.1301   -6.3968 H   0  0  0  0  0  0  0  0  0  0  0  0
   -0.1560    0.1472   -4.8654 H   0  0  0  0  0  0  0  0  0  0  0  0
    0.5818   -1.1521   -2.8660 H   0  0  0  0  0  0  0  0  0  0  0  0
    3.0043   -1.4605   -2.3979 H   0  0  0  0  0  0  0  0  0  0  0  0
  1  2  1  0
  1 20  1  0
  1 21  1  0
  1 22  1  0
  2  3  1  0
  2 23  1  0
  2 24  1  0
  3  4  1  0
  3 25  1  0
  3 26  1  0
  4  5  1  0
  4 10  1  0
  5  6  1  0
  5  8  2  0
  6  7  1  0
  6 27  1  0
  6 28  1  0
  8  9  1  0
  9 10  2  0
 10 11  1  0
 11 12  1  0
 11 14  1  0
 11 29  1  6
 12 13  1  0
 12 30  1  0
 12 31  1  0
 13 32  1  0
 13 33  1  0
 13 34  1  0
 14 15  2  0
 14 19  1  0
 15 16  1  0
 15 35  1  0
 16 17  2  0
 16 36  1  0
 17 18  1  0
 17 37  1  0
 18 19  2  0
 18 38  1  0
 19 39  1  0
M  END

