
     RDKit          3D

 48 49  0  0  0  0  0  0  0  0999 V2000
    2.2822   -1.2192   -0.3952 C   0  0  0  0  0  0  0  0  0  0  0  0
    3.6763   -1.4052   -0.9705 C   0  0  0  0  0  0  0  0  0  0  0  0
    4.0318   -0.3450   -1.8723 O   0  0  0  0  0  0  0  0  0  0  0  0
    4.5404    0.7819   -1.3165 C   0  0  0  0  0  0  0  0  0  0  0  0
    4.7254    0.9218   -0.1241 O   0  0  0  0  0  0  0  0  0  0  0  0
    4.8124    1.7354   -2.2627 N   0  0  0  0  0  0  0  0  0  0  0  0
    4.6608    1.5525   -3.6999 C   0  0  0  0  0  0  0  0  0  0  0  0
    3.9424    2.7543   -4.3190 C   0  0  0  0  0  0  0  0  0  0  0  0
    4.6048    4.0048   -3.9397 N   0  0  0  0  0  0  0  0  0  0  0  0
    5.0192    4.8420   -4.9264 C   0  0  0  0  0  0  0  0  0  0  0  0
    4.8461    4.5948   -6.1197 O   0  0  0  0  0  0  0  0  0  0  0  0
    5.7530    6.1737   -4.5685 C   0  0  0  0  0  0  0  0  0  0  0  0
    6.0508    6.5394   -3.4391 O   0  0  0  0  0  0  0  0  0  0  0  0
    6.0098    6.8480   -5.7155 N   0  0  0  0  0  0  0  0  0  0  0  0
    6.6535    8.0841   -5.9037 C   0  0  0  0  0  0  0  0  0  0  0  0
    7.1554    8.8667   -4.8444 C   0  0  0  0  0  0  0  0  0  0  0  0
    7.7787   10.0800   -5.1135 C   0  0  0  0  0  0  0  0  0  0  0  0
    7.9231   10.5514   -6.4298 C   0  0  0  0  0  0  0  0  0  0  0  0
    8.5475   11.7475   -6.5777 O   0  0  0  0  0  0  0  0  0  0  0  0
    8.7315   12.2908   -7.8745 C   0  0  0  0  0  0  0  0  0  0  0  0
    9.4499   13.6190   -7.7315 C   0  0  0  0  0  0  0  0  0  0  0  0
    7.4243    9.7740   -7.4864 C   0  0  0  0  0  0  0  0  0  0  0  0
    6.7977    8.5551   -7.2167 C   0  0  0  0  0  0  0  0  0  0  0  0
    4.7100    4.1835   -2.4860 C   0  0  0  0  0  0  0  0  0  0  0  0
    5.4322    2.9902   -1.8584 C   0  0  0  0  0  0  0  0  0  0  0  0
    2.0146   -2.0872    0.2288 H   0  0  0  0  0  0  0  0  0  0  0  0
    1.5322   -1.1285   -1.1969 H   0  0  0  0  0  0  0  0  0  0  0  0
    2.2413   -0.3190    0.2356 H   0  0  0  0  0  0  0  0  0  0  0  0
    3.7379   -2.3194   -1.5792 H   0  0  0  0  0  0  0  0  0  0  0  0
    4.4264   -1.4574   -0.1678 H   0  0  0  0  0  0  0  0  0  0  0  0
    4.0932    0.6353   -3.8905 H   0  0  0  0  0  0  0  0  0  0  0  0
    5.6565    1.4431   -4.1721 H   0  0  0  0  0  0  0  0  0  0  0  0
    2.8982    2.7832   -3.9577 H   0  0  0  0  0  0  0  0  0  0  0  0
    3.9345    2.6864   -5.4128 H   0  0  0  0  0  0  0  0  0  0  0  0
    5.6856    6.3424   -6.5409 H   0  0  0  0  0  0  0  0  0  0  0  0
    7.0503    8.5115   -3.8217 H   0  0  0  0  0  0  0  0  0  0  0  0
    8.1713   10.6941   -4.3004 H   0  0  0  0  0  0  0  0  0  0  0  0
    7.7515   12.4274   -8.3708 H   0  0  0  0  0  0  0  0  0  0  0  0
    9.3215   11.5921   -8.4982 H   0  0  0  0  0  0  0  0  0  0  0  0
    8.8578   14.3171   -7.1201 H   0  0  0  0  0  0  0  0  0  0  0  0
    9.6127   14.0732   -8.7212 H   0  0  0  0  0  0  0  0  0  0  0  0
   10.4278   13.4811   -7.2455 H   0  0  0  0  0  0  0  0  0  0  0  0
    7.5151   10.1022   -8.5217 H   0  0  0  0  0  0  0  0  0  0  0  0
    6.4127    7.9585   -8.0488 H   0  0  0  0  0  0  0  0  0  0  0  0
    3.6863    4.2462   -2.0735 H   0  0  0  0  0  0  0  0  0  0  0  0
    5.2387    5.1144   -2.2689 H   0  0  0  0  0  0  0  0  0  0  0  0
    5.3996    3.0513   -0.7637 H   0  0  0  0  0  0  0  0  0  0  0  0
    6.4939    3.0044   -2.1725 H   0  0  0  0  0  0  0  0  0  0  0  0
  1  2  1  0
  1 26  1  0
  1 27  1  0
  1 28  1  0
  2  3  1  0
  2 29  1  0
  2 30  1  0
  3  4  1  0
  4  5  2  0
  4  6  1  0
  6  7  1  0
  6 25  1  0
  7  8  1  0
  7 31  1  0
  7 32  1  0
  8  9  1  0
  8 33  1  0
  8 34  1  0
  9 10  1  0
  9 24  1  0
 10 11  2  0
 10 12  1  0
 12 13  2  0
 12 14  1  0
 14 15  1  0
 14 35  1  0
 15 16  2  0
 15 23  1  0
 16 17  1  0
 16 36  1  0
 17 18  2  0
 17 37  1  0
 18 19  1  0
 18 22  1  0
 19 20  1  0
 20 21  1  0
 20 38  1  0
 20 39  1  0
 21 40  1  0
 21 41  1  0
 21 42  1  0
 22 23  2  0
 22 43  1  0
 23 44  1  0
 24 25  1  0
 24 45  1  0
 24 46  1  0
 25 47  1  0
 25 48  1  0
M  END

