
     RDKit          3D

 42 43  0  0  0  0  0  0  0  0999 V2000
    3.2053   -1.1785   -4.8971 C   0  0  0  0  0  0  0  0  0  0  0  0
    3.3066   -1.3110   -3.4914 O   0  0  0  0  0  0  0  0  0  0  0  0
    3.7748   -0.2854   -2.7456 C   0  0  0  0  0  0  0  0  0  0  0  0
    4.1906    0.9501   -3.2535 C   0  0  0  0  0  0  0  0  0  0  0  0
    4.6588    1.9427   -2.3898 C   0  0  0  0  0  0  0  0  0  0  0  0
    4.7024    1.6783   -1.0244 C   0  0  0  0  0  0  0  0  0  0  0  0
    5.1961    2.7241   -0.1106 N   0  0  0  0  0  0  0  0  0  0  0  0
    5.5465    3.7860   -0.6043 O   0  0  0  0  0  0  0  0  0  0  0  0
    5.2254    2.4677    1.0822 O   0  0  0  0  0  0  0  0  0  0  0  0
    4.2947    0.4552   -0.4839 C   0  0  0  0  0  0  0  0  0  0  0  0
    3.8264   -0.5383   -1.3450 C   0  0  0  0  0  0  0  0  0  0  0  0
    3.3925   -1.7967   -0.9224 N   0  0  0  0  0  0  0  0  0  0  0  0
    3.3330   -2.2944    0.3378 C   0  0  0  0  0  0  0  0  0  0  0  0
    3.6543   -1.7319    1.3734 O   0  0  0  0  0  0  0  0  0  0  0  0
    2.7808   -3.7394    0.3306 C   0  0  0  0  0  0  0  0  0  0  0  0
    2.4596   -4.2934   -0.7116 O   0  0  0  0  0  0  0  0  0  0  0  0
    2.7200   -4.2579    1.5715 N   0  0  0  0  0  0  0  0  0  0  0  0
    2.2358   -5.5977    1.8696 C   0  0  1  0  0  0  0  0  0  0  0  0
    3.1791   -6.2779    2.8736 C   0  0  0  0  0  0  0  0  0  0  0  0
    0.7863   -5.6179    2.3551 C   0  0  0  0  0  0  0  0  0  0  0  0
    0.0069   -6.7654    2.1422 C   0  0  0  0  0  0  0  0  0  0  0  0
   -1.3047   -6.8394    2.6166 C   0  0  0  0  0  0  0  0  0  0  0  0
   -1.8608   -5.7609    3.3118 C   0  0  0  0  0  0  0  0  0  0  0  0
   -1.0960   -4.6111    3.5239 C   0  0  0  0  0  0  0  0  0  0  0  0
    0.2174   -4.5407    3.0485 C   0  0  0  0  0  0  0  0  0  0  0  0
    2.8037   -2.1295   -5.2689 H   0  0  0  0  0  0  0  0  0  0  0  0
    4.1922   -0.9968   -5.3563 H   0  0  0  0  0  0  0  0  0  0  0  0
    2.5186   -0.3608   -5.1756 H   0  0  0  0  0  0  0  0  0  0  0  0
    4.1526    1.1472   -4.3245 H   0  0  0  0  0  0  0  0  0  0  0  0
    4.9882    2.9126   -2.7600 H   0  0  0  0  0  0  0  0  0  0  0  0
    4.3416    0.2814    0.5880 H   0  0  0  0  0  0  0  0  0  0  0  0
    3.0692   -2.4445   -1.6425 H   0  0  0  0  0  0  0  0  0  0  0  0
    3.0508   -3.6449    2.3137 H   0  0  0  0  0  0  0  0  0  0  0  0
    2.2732   -6.1422    0.9133 H   0  0  0  0  0  0  0  0  0  0  0  0
    3.1918   -5.7308    3.8308 H   0  0  0  0  0  0  0  0  0  0  0  0
    4.2060   -6.3176    2.4781 H   0  0  0  0  0  0  0  0  0  0  0  0
    2.8438   -7.3039    3.0839 H   0  0  0  0  0  0  0  0  0  0  0  0
    0.4303   -7.6101    1.5902 H   0  0  0  0  0  0  0  0  0  0  0  0
   -1.8977   -7.7398    2.4356 H   0  0  0  0  0  0  0  0  0  0  0  0
   -2.8882   -5.8147    3.6807 H   0  0  0  0  0  0  0  0  0  0  0  0
   -1.5234   -3.7595    4.0595 H   0  0  0  0  0  0  0  0  0  0  0  0
    0.7959   -3.6278    3.2089 H   0  0  0  0  0  0  0  0  0  0  0  0
  1  2  1  0
  1 26  1  0
  1 27  1  0
  1 28  1  0
  2  3  1  0
  3  4  2  0
  3 11  1  0
  4  5  1  0
  4 29  1  0
  5  6  2  0
  5 30  1  0
  6  7  1  0
  6 10  1  0
  7  8  2  0
  7  9  1  0
 10 11  2  0
 10 31  1  0
 11 12  1  0
 12 13  1  0
 12 32  1  0
 13 14  2  0
 13 15  1  0
 15 16  2  0
 15 17  1  0
 17 18  1  0
 17 33  1  0
 18 19  1  0
 18 20  1  0
 18 34  1  6
 19 35  1  0
 19 36  1  0
 19 37  1  0
 20 21  2  0
 20 25  1  0
 21 22  1  0
 21 38  1  0
 22 23  2  0
 22 39  1  0
 23 24  1  0
 23 40  1  0
 24 25  2  0
 24 41  1  0
 25 42  1  0
M  CHG  2   7   1   9  -1
M  END

