
     RDKit          3D

 47 50  0  0  0  0  0  0  0  0999 V2000
    1.0383    0.5543   -0.3750 C   0  0  0  0  0  0  0  0  0  0  0  0
    2.3226    0.3355    0.2472 N   0  0  0  0  0  0  0  0  0  0  0  0
    2.9366   -0.9700    0.1032 C   0  0  0  0  0  0  0  0  0  0  0  0
    4.0266   -1.1270    1.1547 C   0  0  0  0  0  0  0  0  0  0  0  0
    5.0110   -0.1213    1.0169 O   0  0  0  0  0  0  0  0  0  0  0  0
    4.5354    1.1535    0.8482 C   0  0  0  0  0  0  0  0  0  0  0  0
    5.4143    2.2120    1.0577 C   0  0  0  0  0  0  0  0  0  0  0  0
    5.0247    3.5420    0.8796 C   0  0  0  0  0  0  0  0  0  0  0  0
    3.7076    3.8102    0.4822 C   0  0  0  0  0  0  0  0  0  0  0  0
    3.2027    5.1141    0.2826 N   0  0  0  0  0  0  0  0  0  0  0  0
    3.8607    6.3026    0.3541 C   0  0  0  0  0  0  0  0  0  0  0  0
    5.0439    6.4576    0.6089 O   0  0  0  0  0  0  0  0  0  0  0  0
    2.9608    7.5400    0.1446 C   0  0  1  0  0  0  0  0  0  0  0  0
    3.7331    8.7879   -0.2847 C   0  0  0  0  0  0  0  0  0  0  0  0
    2.7041    9.6070   -1.0729 C   0  0  0  0  0  0  0  0  0  0  0  0
    1.7481    8.6098   -1.5739 N   0  0  0  0  0  0  0  0  0  0  0  0
    0.7695    8.9441   -2.5419 C   0  0  0  0  0  0  0  0  0  0  0  0
   -0.0271    7.9637   -3.1678 C   0  0  0  0  0  0  0  0  0  0  0  0
   -0.9710    8.3280   -4.1263 C   0  0  0  0  0  0  0  0  0  0  0  0
   -1.1372    9.6699   -4.4788 C   0  0  0  0  0  0  0  0  0  0  0  0
   -2.3220   10.1180   -5.6841 Cl  0  0  0  0  0  0  0  0  0  0  0  0
   -0.3577   10.6531   -3.8688 C   0  0  0  0  0  0  0  0  0  0  0  0
    0.5870   10.2915   -2.9073 C   0  0  0  0  0  0  0  0  0  0  0  0
    1.8414    7.4171   -0.8909 C   0  0  0  0  0  0  0  0  0  0  0  0
    1.1335    6.4319   -1.0473 O   0  0  0  0  0  0  0  0  0  0  0  0
    2.8137    2.7466    0.2600 C   0  0  0  0  0  0  0  0  0  0  0  0
    3.1968    1.4079    0.4442 C   0  0  0  0  0  0  0  0  0  0  0  0
    0.4767   -0.3911   -0.3822 H   0  0  0  0  0  0  0  0  0  0  0  0
    1.1116    0.9183   -1.4212 H   0  0  0  0  0  0  0  0  0  0  0  0
    0.4420    1.2865    0.1932 H   0  0  0  0  0  0  0  0  0  0  0  0
    3.3761   -1.1238   -0.9060 H   0  0  0  0  0  0  0  0  0  0  0  0
    2.1715   -1.7495    0.2513 H   0  0  0  0  0  0  0  0  0  0  0  0
    4.5434   -2.0916    1.0440 H   0  0  0  0  0  0  0  0  0  0  0  0
    3.5748   -1.0838    2.1641 H   0  0  0  0  0  0  0  0  0  0  0  0
    6.4335    1.9690    1.3662 H   0  0  0  0  0  0  0  0  0  0  0  0
    5.7221    4.3598    1.0395 H   0  0  0  0  0  0  0  0  0  0  0  0
    2.2377    5.1839   -0.0477 H   0  0  0  0  0  0  0  0  0  0  0  0
    2.4491    7.7078    1.1125 H   0  0  0  0  0  0  0  0  0  0  0  0
    4.5738    8.4896   -0.9279 H   0  0  0  0  0  0  0  0  0  0  0  0
    4.1561    9.3475    0.5590 H   0  0  0  0  0  0  0  0  0  0  0  0
    3.1571   10.1559   -1.9118 H   0  0  0  0  0  0  0  0  0  0  0  0
    2.1832   10.3431   -0.4339 H   0  0  0  0  0  0  0  0  0  0  0  0
    0.0911    6.9196   -2.8909 H   0  0  0  0  0  0  0  0  0  0  0  0
   -1.5825    7.5622   -4.6067 H   0  0  0  0  0  0  0  0  0  0  0  0
   -0.4897   11.7012   -4.1420 H   0  0  0  0  0  0  0  0  0  0  0  0
    1.1752   11.0814   -2.4415 H   0  0  0  0  0  0  0  0  0  0  0  0
    1.7992    2.9777   -0.0660 H   0  0  0  0  0  0  0  0  0  0  0  0
  1  2  1  0
  1 28  1  0
  1 29  1  0
  1 30  1  0
  2  3  1  0
  2 27  1  0
  3  4  1  0
  3 31  1  0
  3 32  1  0
  4  5  1  0
  4 33  1  0
  4 34  1  0
  5  6  1  0
  6  7  1  0
  6 27  2  0
  7  8  2  0
  7 35  1  0
  8  9  1  0
  8 36  1  0
  9 10  1  0
  9 26  2  0
 10 11  1  0
 10 37  1  0
 11 12  2  0
 11 13  1  0
 13 14  1  0
 13 24  1  0
 13 38  1  1
 14 15  1  0
 14 39  1  0
 14 40  1  0
 15 16  1  0
 15 41  1  0
 15 42  1  0
 16 17  1  0
 16 24  1  0
 17 18  2  0
 17 23  1  0
 18 19  1  0
 18 43  1  0
 19 20  2  0
 19 44  1  0
 20 21  1  0
 20 22  1  0
 22 23  2  0
 22 45  1  0
 23 46  1  0
 24 25  2  0
 26 27  1  0
 26 47  1  0
M  END

