
     RDKit          3D

 56 60  0  0  0  0  0  0  0  0999 V2000
    0.9740   -0.5915    1.5346 C   0  0  0  0  0  0  0  0  0  0  0  0
    2.3215   -0.3623    0.9002 C   0  0  0  0  0  0  0  0  0  0  0  0
    2.7310    0.8823    0.4198 C   0  0  0  0  0  0  0  0  0  0  0  0
    3.9940    1.0737   -0.1820 C   0  0  0  0  0  0  0  0  0  0  0  0
    4.8967    0.0244   -0.3138 C   0  0  0  0  0  0  0  0  0  0  0  0
    4.5338   -1.2494    0.1685 C   0  0  0  0  0  0  0  0  0  0  0  0
    5.1862   -2.5455    0.1942 C   0  0  0  0  0  0  0  0  0  0  0  0
    6.5306   -2.8822   -0.2864 C   0  0  0  0  0  0  0  0  0  0  0  0
    7.6479   -2.0568   -0.2318 C   0  0  0  0  0  0  0  0  0  0  0  0
    8.7213   -2.7486   -0.7293 N   0  0  0  0  0  0  0  0  0  0  0  0
    9.6602   -2.3824   -0.8103 H   0  0  0  0  0  0  0  0  0  0  0  0
    8.3293   -4.0054   -1.1088 C   0  0  0  0  0  0  0  0  0  0  0  0
    6.9731   -4.1381   -0.8565 C   0  0  0  0  0  0  0  0  0  0  0  0
    6.1672   -5.3513   -1.1467 C   0  0  0  0  0  0  0  0  0  0  0  0
    6.4698   -6.5589   -0.5057 C   0  0  0  0  0  0  0  0  0  0  0  0
    5.7636   -7.7549   -0.7446 C   0  0  0  0  0  0  0  0  0  0  0  0
    6.1138   -8.9376   -0.0433 N   0  0  0  0  0  0  0  0  0  0  0  0
    7.5084   -9.3753   -0.1319 C   0  0  0  0  0  0  0  0  0  0  0  0
    7.8185  -10.4043    0.9638 C   0  0  0  0  0  0  0  0  0  0  0  0
    6.9074  -11.5416    0.9712 N   0  0  0  0  0  0  0  0  0  0  0  0
    7.1872  -12.5677   -0.0158 C   0  0  0  0  0  0  0  0  0  0  0  0
    5.5285  -11.0748    1.0131 C   0  0  0  0  0  0  0  0  0  0  0  0
    5.1804  -10.0533   -0.0821 C   0  0  0  0  0  0  0  0  0  0  0  0
    4.6983   -7.6921   -1.6590 C   0  0  0  0  0  0  0  0  0  0  0  0
    4.3700   -6.4941   -2.2981 C   0  0  0  0  0  0  0  0  0  0  0  0
    5.0922   -5.3105   -2.0786 C   0  0  0  0  0  0  0  0  0  0  0  0
    4.8031   -4.1557   -2.7967 N   0  0  0  0  0  0  0  0  0  0  0  0
    4.2826   -3.4141    0.7768 C   0  0  0  0  0  0  0  0  0  0  0  0
    3.1273   -2.7407    1.1126 N   0  0  0  0  0  0  0  0  0  0  0  0
    2.3226   -3.1599    1.5567 H   0  0  0  0  0  0  0  0  0  0  0  0
    3.2470   -1.4143    0.7565 C   0  0  0  0  0  0  0  0  0  0  0  0
    0.3836    0.3355    1.5650 H   0  0  0  0  0  0  0  0  0  0  0  0
    1.0684   -0.9589    2.5723 H   0  0  0  0  0  0  0  0  0  0  0  0
    0.3836   -1.3423    0.9791 H   0  0  0  0  0  0  0  0  0  0  0  0
    2.0482    1.7322    0.5094 H   0  0  0  0  0  0  0  0  0  0  0  0
    4.2604    2.0672   -0.5520 H   0  0  0  0  0  0  0  0  0  0  0  0
    5.8653    0.1824   -0.7929 H   0  0  0  0  0  0  0  0  0  0  0  0
    7.7572   -1.0527    0.1703 H   0  0  0  0  0  0  0  0  0  0  0  0
    9.0238   -4.7109   -1.5595 H   0  0  0  0  0  0  0  0  0  0  0  0
    7.2717   -6.5518    0.2355 H   0  0  0  0  0  0  0  0  0  0  0  0
    8.1756   -8.5103   -0.0145 H   0  0  0  0  0  0  0  0  0  0  0  0
    7.7227   -9.8077   -1.1359 H   0  0  0  0  0  0  0  0  0  0  0  0
    7.7442   -9.8955    1.9423 H   0  0  0  0  0  0  0  0  0  0  0  0
    8.8541  -10.7665    0.8561 H   0  0  0  0  0  0  0  0  0  0  0  0
    8.2205  -12.9303    0.1127 H   0  0  0  0  0  0  0  0  0  0  0  0
    7.0774  -12.2577   -1.0783 H   0  0  0  0  0  0  0  0  0  0  0  0
    6.5142  -13.4261    0.1447 H   0  0  0  0  0  0  0  0  0  0  0  0
    5.3568  -10.5934    1.9931 H   0  0  0  0  0  0  0  0  0  0  0  0
    4.8481  -11.9396    0.9459 H   0  0  0  0  0  0  0  0  0  0  0  0
    4.1614   -9.6747    0.0941 H   0  0  0  0  0  0  0  0  0  0  0  0
    5.1696  -10.5539   -1.0778 H   0  0  0  0  0  0  0  0  0  0  0  0
    4.1118   -8.5813   -1.8925 H   0  0  0  0  0  0  0  0  0  0  0  0
    3.5422   -6.4832   -3.0140 H   0  0  0  0  0  0  0  0  0  0  0  0
    3.8558   -4.0871   -3.1505 H   0  0  0  0  0  0  0  0  0  0  0  0
    5.1281   -3.2878   -2.3855 H   0  0  0  0  0  0  0  0  0  0  0  0
    4.3908   -4.4766    0.9825 H   0  0  0  0  0  0  0  0  0  0  0  0
  1  2  1  0
  1 32  1  0
  1 33  1  0
  1 34  1  0
  2  3  2  0
  2 31  1  0
  3  4  1  0
  3 35  1  0
  4  5  2  0
  4 36  1  0
  5  6  1  0
  5 37  1  0
  6  7  1  0
  6 31  2  0
  7  8  1  0
  7 28  2  0
  8  9  2  0
  8 13  1  0
  9 10  1  0
  9 38  1  0
 10 11  1  0
 10 12  1  0
 12 13  2  0
 12 39  1  0
 13 14  1  0
 14 15  2  0
 14 26  1  0
 15 16  1  0
 15 40  1  0
 16 17  1  0
 16 24  2  0
 17 18  1  0
 17 23  1  0
 18 19  1  0
 18 41  1  0
 18 42  1  0
 19 20  1  0
 19 43  1  0
 19 44  1  0
 20 21  1  0
 20 22  1  0
 21 45  1  0
 21 46  1  0
 21 47  1  0
 22 23  1  0
 22 48  1  0
 22 49  1  0
 23 50  1  0
 23 51  1  0
 24 25  1  0
 24 52  1  0
 25 26  2  0
 25 53  1  0
 26 27  1  0
 27 54  1  0
 27 55  1  0
 28 29  1  0
 28 56  1  0
 29 30  1  0
 29 31  1  0
M  END

