
     RDKit          3D

 55 58  0  0  0  0  0  0  0  0999 V2000
    5.9554    0.4764   -0.4765 C   0  0  0  0  0  0  0  0  0  0  0  0
    6.6161    1.8466   -0.6819 C   0  0  1  0  0  0  0  0  0  0  0  0
    7.4685    1.9123    0.0155 H   0  0  0  0  0  0  0  0  0  0  0  0
    7.1786    2.0226   -2.1113 C   0  0  0  0  0  0  0  0  0  0  0  0
    6.0940    2.0086   -3.2070 C   0  0  0  0  0  0  0  0  0  0  0  0
    4.9260    2.8526   -2.7884 C   0  0  0  0  0  0  0  0  0  0  0  0
    4.7548    3.2721   -1.5015 C   0  0  0  0  0  0  0  0  0  0  0  0
    3.6214    4.0245   -1.3453 O   0  0  0  0  0  0  0  0  0  0  0  0
    3.0335    4.0919   -2.5761 C   0  0  0  0  0  0  0  0  0  0  0  0
    1.8507    4.7507   -2.8953 C   0  0  0  0  0  0  0  0  0  0  0  0
    1.4111    4.6775   -4.2172 C   0  0  0  0  0  0  0  0  0  0  0  0
    2.1626    3.9844   -5.1961 C   0  0  0  0  0  0  0  0  0  0  0  0
    1.6730    3.8975   -6.5273 N   0  0  0  0  0  0  0  0  0  0  0  0
    1.3309    5.2347   -7.5127 S   0  0  1  0  0  0  0  0  0  0  0  0
    0.9292    4.6346   -8.7843 O   0  0  0  0  0  0  0  0  0  0  0  0
    0.4585    6.1257   -6.7496 O   0  0  0  0  0  0  0  0  0  0  0  0
    2.8840    6.0948   -7.7738 C   0  0  0  0  0  0  0  0  0  0  0  0
    3.6778    5.7573   -8.8708 C   0  0  0  0  0  0  0  0  0  0  0  0
    4.8960    6.4139   -9.0644 C   0  0  0  0  0  0  0  0  0  0  0  0
    5.3434    7.4107   -8.1802 C   0  0  0  0  0  0  0  0  0  0  0  0
    6.6801    8.1532   -8.3687 C   0  0  1  0  0  0  0  0  0  0  0  0
    7.4481    7.6661   -9.6106 C   0  0  0  0  0  0  0  0  0  0  0  0
    6.4053    9.6666   -8.5319 C   0  0  0  0  0  0  0  0  0  0  0  0
    7.5717    7.9220   -7.1262 C   0  0  0  0  0  0  0  0  0  0  0  0
    4.5112    7.7314   -7.0894 C   0  0  0  0  0  0  0  0  0  0  0  0
    3.2916    7.0904   -6.8801 C   0  0  0  0  0  0  0  0  0  0  0  0
    3.3597    3.3389   -4.8582 C   0  0  0  0  0  0  0  0  0  0  0  0
    3.7960    3.3767   -3.5250 C   0  0  0  0  0  0  0  0  0  0  0  0
    5.6474    3.0067   -0.3392 C   0  0  0  0  0  0  0  0  0  0  0  0
    6.6441   -0.3402   -0.7480 H   0  0  0  0  0  0  0  0  0  0  0  0
    5.0440    0.3641   -1.0855 H   0  0  0  0  0  0  0  0  0  0  0  0
    5.6661    0.3323    0.5768 H   0  0  0  0  0  0  0  0  0  0  0  0
    7.9256    1.2375   -2.3137 H   0  0  0  0  0  0  0  0  0  0  0  0
    7.7171    2.9854   -2.1581 H   0  0  0  0  0  0  0  0  0  0  0  0
    5.7612    0.9733   -3.4093 H   0  0  0  0  0  0  0  0  0  0  0  0
    6.5188    2.3738   -4.1580 H   0  0  0  0  0  0  0  0  0  0  0  0
    1.2787    5.2862   -2.1354 H   0  0  0  0  0  0  0  0  0  0  0  0
    0.4793    5.1548   -4.5184 H   0  0  0  0  0  0  0  0  0  0  0  0
    2.0624    3.1488   -7.0954 H   0  0  0  0  0  0  0  0  0  0  0  0
    3.3318    5.0004   -9.5774 H   0  0  0  0  0  0  0  0  0  0  0  0
    5.4945    6.1385   -9.9325 H   0  0  0  0  0  0  0  0  0  0  0  0
    6.8788    7.8316  -10.5386 H   0  0  0  0  0  0  0  0  0  0  0  0
    7.6981    6.5954   -9.5471 H   0  0  0  0  0  0  0  0  0  0  0  0
    8.3950    8.2205   -9.7024 H   0  0  0  0  0  0  0  0  0  0  0  0
    5.7709    9.8611   -9.4111 H   0  0  0  0  0  0  0  0  0  0  0  0
    7.3521   10.2145   -8.6672 H   0  0  0  0  0  0  0  0  0  0  0  0
    5.8982   10.0911   -7.6523 H   0  0  0  0  0  0  0  0  0  0  0  0
    7.7863    6.8505   -6.9868 H   0  0  0  0  0  0  0  0  0  0  0  0
    7.0983    8.2917   -6.2040 H   0  0  0  0  0  0  0  0  0  0  0  0
    8.5327    8.4493   -7.2418 H   0  0  0  0  0  0  0  0  0  0  0  0
    4.8139    8.5077   -6.3834 H   0  0  0  0  0  0  0  0  0  0  0  0
    2.6495    7.3666   -6.0424 H   0  0  0  0  0  0  0  0  0  0  0  0
    3.9364    2.8136   -5.6242 H   0  0  0  0  0  0  0  0  0  0  0  0
    5.0479    2.7691    0.5562 H   0  0  0  0  0  0  0  0  0  0  0  0
    6.2168    3.9218   -0.0902 H   0  0  0  0  0  0  0  0  0  0  0  0
  1  2  1  0
  1 30  1  0
  1 31  1  0
  1 32  1  0
  2  3  1  1
  2  4  1  0
  2 29  1  0
  4  5  1  0
  4 33  1  0
  4 34  1  0
  5  6  1  0
  5 35  1  0
  5 36  1  0
  6  7  2  0
  6 28  1  0
  7  8  1  0
  7 29  1  0
  8  9  1  0
  9 10  1  0
  9 28  2  0
 10 11  2  0
 10 37  1  0
 11 12  1  0
 11 38  1  0
 12 13  1  0
 12 27  2  0
 14 13  1  1
 13 39  1  0
 14 15  2  0
 14 16  2  0
 14 17  1  0
 17 18  2  0
 17 26  1  0
 18 19  1  0
 18 40  1  0
 19 20  2  0
 19 41  1  0
 20 21  1  0
 20 25  1  0
 21 22  1  6
 21 23  1  0
 21 24  1  0
 22 42  1  0
 22 43  1  0
 22 44  1  0
 23 45  1  0
 23 46  1  0
 23 47  1  0
 24 48  1  0
 24 49  1  0
 24 50  1  0
 25 26  2  0
 25 51  1  0
 26 52  1  0
 27 28  1  0
 27 53  1  0
 29 54  1  0
 29 55  1  0
M  END

