
     RDKit          3D

 35 36  0  0  0  0  0  0  0  0999 V2000
    0.6175    0.2097   -0.0024 C   0  0  0  0  0  0  0  0  0  0  0  0
    2.1403    0.0649   -0.1016 C   0  0  1  0  0  0  0  0  0  0  0  0
    2.5718   -0.3444   -1.4407 N   0  0  0  0  0  0  0  0  0  0  0  0
    2.5050   -1.6571   -1.9014 C   0  0  0  0  0  0  0  0  0  0  0  0
    2.5837   -1.8746   -3.3201 C   0  0  0  0  0  0  0  0  0  0  0  0
    2.5780   -3.0445   -3.8992 N   0  0  0  0  0  0  0  0  0  0  0  0
    2.4930   -4.1632   -3.1231 C   0  0  0  0  0  0  0  0  0  0  0  0
    2.4891   -5.4395   -3.7459 C   0  0  0  0  0  0  0  0  0  0  0  0
    2.4014   -6.5891   -2.9873 C   0  0  0  0  0  0  0  0  0  0  0  0
    2.3131   -6.5046   -1.5743 C   0  0  0  0  0  0  0  0  0  0  0  0
    2.3140   -5.2776   -0.9417 C   0  0  0  0  0  0  0  0  0  0  0  0
    2.4047   -4.0742   -1.6956 C   0  0  0  0  0  0  0  0  0  0  0  0
    2.4073   -2.7850   -1.1003 C   0  0  0  0  0  0  0  0  0  0  0  0
    2.9744    1.3134    0.3279 C   0  0  1  0  0  0  0  0  0  0  0  0
    2.6944    2.5479   -0.5485 C   0  0  0  0  0  0  0  0  0  0  0  0
    2.7424    1.6488    1.8029 C   0  0  0  0  0  0  0  0  0  0  0  0
    4.3466    0.9585    0.2206 O   0  0  0  0  0  0  0  0  0  0  0  0
    0.1277   -0.7349   -0.2851 H   0  0  0  0  0  0  0  0  0  0  0  0
    0.2416    0.9959   -0.6772 H   0  0  0  0  0  0  0  0  0  0  0  0
    0.2975    0.4582    1.0206 H   0  0  0  0  0  0  0  0  0  0  0  0
    2.4690   -0.7276    0.5871 H   0  0  0  0  0  0  0  0  0  0  0  0
    2.3405    0.3333   -2.1622 H   0  0  0  0  0  0  0  0  0  0  0  0
    2.6575   -0.9933   -3.9756 H   0  0  0  0  0  0  0  0  0  0  0  0
    2.5579   -5.4696   -4.8353 H   0  0  0  0  0  0  0  0  0  0  0  0
    2.3996   -7.5687   -3.4717 H   0  0  0  0  0  0  0  0  0  0  0  0
    2.2441   -7.4212   -0.9827 H   0  0  0  0  0  0  0  0  0  0  0  0
    2.2465   -5.2162    0.1482 H   0  0  0  0  0  0  0  0  0  0  0  0
    2.3360   -2.7095   -0.0137 H   0  0  0  0  0  0  0  0  0  0  0  0
    1.6518    2.8941   -0.4723 H   0  0  0  0  0  0  0  0  0  0  0  0
    2.9187    2.3503   -1.6098 H   0  0  0  0  0  0  0  0  0  0  0  0
    3.3547    3.3687   -0.2314 H   0  0  0  0  0  0  0  0  0  0  0  0
    1.7327    2.0449    1.9852 H   0  0  0  0  0  0  0  0  0  0  0  0
    3.4728    2.4097    2.1159 H   0  0  0  0  0  0  0  0  0  0  0  0
    2.8960    0.7585    2.4324 H   0  0  0  0  0  0  0  0  0  0  0  0
    4.4270    0.4650   -0.6117 H   0  0  0  0  0  0  0  0  0  0  0  0
  1  2  1  0
  1 18  1  0
  1 19  1  0
  1 20  1  0
  2  3  1  0
  2 14  1  0
  2 21  1  1
  3  4  1  0
  3 22  1  0
  4  5  2  0
  4 13  1  0
  5  6  1  0
  5 23  1  0
  6  7  2  0
  7  8  1  0
  7 12  1  0
  8  9  2  0
  8 24  1  0
  9 10  1  0
  9 25  1  0
 10 11  2  0
 10 26  1  0
 11 12  1  0
 11 27  1  0
 12 13  2  0
 13 28  1  0
 14 15  1  0
 14 16  1  0
 14 17  1  1
 15 29  1  0
 15 30  1  0
 15 31  1  0
 16 32  1  0
 16 33  1  0
 16 34  1  0
 17 35  1  0
M  END

