
     RDKit          3D

 53 54  0  0  0  0  0  0  0  0999 V2000
    4.1891    8.2891   -2.8291 C   0  0  0  0  0  0  0  0  0  0  0  0
    4.5554    7.9811   -1.3877 C   0  0  0  0  0  0  0  0  0  0  0  0
    4.4456    6.5714   -1.1041 O   0  0  0  0  0  0  0  0  0  0  0  0
    5.5113    5.7738   -1.3788 C   0  0  0  0  0  0  0  0  0  0  0  0
    6.5355    6.2031   -1.8621 O   0  0  0  0  0  0  0  0  0  0  0  0
    5.2423    4.3818   -0.9928 C   0  0  0  0  0  0  0  0  0  0  0  0
    4.2144    3.9683   -0.1570 C   0  0  0  0  0  0  0  0  0  0  0  0
    3.1638    4.6696    0.3920 N   0  0  0  0  0  0  0  0  0  0  0  0
    2.3235    4.2590    1.4161 C   0  0  0  0  0  0  0  0  0  0  0  0
    2.4100    3.2066    2.0060 O   0  0  0  0  0  0  0  0  0  0  0  0
    1.2447    5.2902    1.7818 C   0  0  0  0  0  0  0  0  0  0  0  0
    0.2919    5.5103    0.7310 O   0  0  0  0  0  0  0  0  0  0  0  0
    0.5253    6.5037   -0.1443 C   0  0  0  0  0  0  0  0  0  0  0  0
    1.5576    7.1376   -0.1666 O   0  0  0  0  0  0  0  0  0  0  0  0
   -0.6663    6.7398   -1.0502 C   0  0  0  0  0  0  0  0  0  0  0  0
   -1.7309    7.5640   -0.3467 C   0  0  0  0  0  0  0  0  0  0  0  0
   -1.6053    8.9618   -0.2503 C   0  0  0  0  0  0  0  0  0  0  0  0
   -2.5574    9.7244    0.4162 C   0  0  0  0  0  0  0  0  0  0  0  0
   -3.6700    9.1058    1.0150 C   0  0  0  0  0  0  0  0  0  0  0  0
   -4.5473    9.9290    1.6394 O   0  0  0  0  0  0  0  0  0  0  0  0
   -5.6876    9.3813    2.2626 C   0  0  0  0  0  0  0  0  0  0  0  0
   -3.8058    7.7117    0.9313 C   0  0  0  0  0  0  0  0  0  0  0  0
   -2.8374    6.9589    0.2574 C   0  0  0  0  0  0  0  0  0  0  0  0
    4.3257    2.6623    0.1188 O   0  0  0  0  0  0  0  0  0  0  0  0
    5.4396    2.1761   -0.5135 C   0  0  0  0  0  0  0  0  0  0  0  0
    5.7078    0.7306   -0.3119 C   0  0  0  0  0  0  0  0  0  0  0  0
    6.0458    3.1827   -1.2269 C   0  0  0  0  0  0  0  0  0  0  0  0
    7.2203    2.9172   -2.1176 C   0  0  0  0  0  0  0  0  0  0  0  0
    7.4200    3.7626   -3.3540 C   0  0  0  0  0  0  0  0  0  0  0  0
    7.9667    1.9846   -1.8738 O   0  0  0  0  0  0  0  0  0  0  0  0
    4.2162    9.3780   -2.9956 H   0  0  0  0  0  0  0  0  0  0  0  0
    3.1724    7.9322   -3.0547 H   0  0  0  0  0  0  0  0  0  0  0  0
    4.8988    7.8190   -3.5257 H   0  0  0  0  0  0  0  0  0  0  0  0
    3.8496    8.4527   -0.6913 H   0  0  0  0  0  0  0  0  0  0  0  0
    5.5802    8.3074   -1.1593 H   0  0  0  0  0  0  0  0  0  0  0  0
    3.0749    5.6260    0.0371 H   0  0  0  0  0  0  0  0  0  0  0  0
    1.7055    6.2484    2.0687 H   0  0  0  0  0  0  0  0  0  0  0  0
    0.6806    4.8679    2.6204 H   0  0  0  0  0  0  0  0  0  0  0  0
   -1.0765    5.7644   -1.3497 H   0  0  0  0  0  0  0  0  0  0  0  0
   -0.2955    7.2595   -1.9445 H   0  0  0  0  0  0  0  0  0  0  0  0
   -0.7455    9.4597   -0.7073 H   0  0  0  0  0  0  0  0  0  0  0  0
   -2.4670   10.8100    0.4882 H   0  0  0  0  0  0  0  0  0  0  0  0
   -6.2426   10.2241    2.6959 H   0  0  0  0  0  0  0  0  0  0  0  0
   -5.4171    8.6783    3.0710 H   0  0  0  0  0  0  0  0  0  0  0  0
   -6.3398    8.8578    1.5403 H   0  0  0  0  0  0  0  0  0  0  0  0
   -4.6568    7.2013    1.3822 H   0  0  0  0  0  0  0  0  0  0  0  0
   -2.9553    5.8732    0.2044 H   0  0  0  0  0  0  0  0  0  0  0  0
    6.0061    0.5393    0.7332 H   0  0  0  0  0  0  0  0  0  0  0  0
    6.5299    0.4109   -0.9608 H   0  0  0  0  0  0  0  0  0  0  0  0
    4.8013    0.1355   -0.5083 H   0  0  0  0  0  0  0  0  0  0  0  0
    6.4740    3.8926   -3.9044 H   0  0  0  0  0  0  0  0  0  0  0  0
    8.1690    3.2755   -3.9919 H   0  0  0  0  0  0  0  0  0  0  0  0
    7.7544    4.7694   -3.0664 H   0  0  0  0  0  0  0  0  0  0  0  0
  1  2  1  0
  1 31  1  0
  1 32  1  0
  1 33  1  0
  2  3  1  0
  2 34  1  0
  2 35  1  0
  3  4  1  0
  4  5  2  0
  4  6  1  0
  6  7  2  0
  6 27  1  0
  7  8  1  0
  7 24  1  0
  8  9  1  0
  8 36  1  0
  9 10  2  0
  9 11  1  0
 11 12  1  0
 11 37  1  0
 11 38  1  0
 12 13  1  0
 13 14  2  0
 13 15  1  0
 15 16  1  0
 15 39  1  0
 15 40  1  0
 16 17  2  0
 16 23  1  0
 17 18  1  0
 17 41  1  0
 18 19  2  0
 18 42  1  0
 19 20  1  0
 19 22  1  0
 20 21  1  0
 21 43  1  0
 21 44  1  0
 21 45  1  0
 22 23  2  0
 22 46  1  0
 23 47  1  0
 24 25  1  0
 25 26  1  0
 25 27  2  0
 26 48  1  0
 26 49  1  0
 26 50  1  0
 27 28  1  0
 28 29  1  0
 28 30  2  0
 29 51  1  0
 29 52  1  0
 29 53  1  0
M  END

