
     RDKit          3D

 54 57  0  0  0  0  0  0  0  0999 V2000
    7.0639    4.8036   -5.9320 C   0  0  0  0  0  0  0  0  0  0  0  0
    7.8093    3.9907   -4.8832 C   0  0  0  0  0  0  0  0  0  0  0  0
    8.9720    3.6688   -5.0349 O   0  0  0  0  0  0  0  0  0  0  0  0
    7.0606    3.6778   -3.7662 N   0  0  0  0  0  0  0  0  0  0  0  0
    7.4426    2.9694   -2.6121 C   0  0  0  0  0  0  0  0  0  0  0  0
    8.7393    2.4628   -2.4051 C   0  0  0  0  0  0  0  0  0  0  0  0
    9.0376    1.7770   -1.2268 C   0  0  0  0  0  0  0  0  0  0  0  0
    8.0692    1.5557   -0.2346 C   0  0  0  0  0  0  0  0  0  0  0  0
    8.3948    0.8483    1.0668 C   0  0  0  0  0  0  0  0  0  0  0  0
    9.0300   -0.4881    0.9658 N   0  0  0  0  0  0  0  0  0  0  0  0
   10.4188   -0.5418    0.9624 C   0  0  0  0  0  0  0  0  0  0  0  0
   11.1154    0.4510    0.8958 O   0  0  0  0  0  0  0  0  0  0  0  0
   10.9480   -1.9681    1.0642 C   0  0  1  0  0  0  0  0  0  0  0  0
   12.4087   -2.0293    1.5012 C   0  0  0  0  0  0  0  0  0  0  0  0
   13.0602   -3.3818    1.3045 C   0  0  0  0  0  0  0  0  0  0  0  0
   14.0484   -3.5568    0.3234 C   0  0  0  0  0  0  0  0  0  0  0  0
   14.6550   -4.8014    0.1266 C   0  0  0  0  0  0  0  0  0  0  0  0
   14.2795   -5.8944    0.9115 C   0  0  0  0  0  0  0  0  0  0  0  0
   13.2957   -5.7329    1.8928 C   0  0  0  0  0  0  0  0  0  0  0  0
   12.6919   -4.4886    2.0886 C   0  0  0  0  0  0  0  0  0  0  0  0
   10.1537   -2.6498    2.0372 O   0  0  0  0  0  0  0  0  0  0  0  0
    8.8086   -2.7413    1.6973 N   0  0  0  0  0  0  0  0  0  0  0  0
    8.3010   -1.6761    1.1765 C   0  0  0  0  0  0  0  0  0  0  0  0
    6.8605   -1.7495    0.8069 C   0  0  0  0  0  0  0  0  0  0  0  0
    6.4047   -1.3161   -0.4490 C   0  0  0  0  0  0  0  0  0  0  0  0
    5.0587   -1.4661   -0.7933 C   0  0  0  0  0  0  0  0  0  0  0  0
    4.1534   -2.0405    0.1019 C   0  0  0  0  0  0  0  0  0  0  0  0
    4.6247   -2.4703    1.3418 C   0  0  0  0  0  0  0  0  0  0  0  0
    3.7651   -3.0240    2.2080 F   0  0  0  0  0  0  0  0  0  0  0  0
    5.9595   -2.3395    1.7086 C   0  0  0  0  0  0  0  0  0  0  0  0
    6.7823    2.0686   -0.4511 C   0  0  0  0  0  0  0  0  0  0  0  0
    6.4710    2.7671   -1.6158 C   0  0  0  0  0  0  0  0  0  0  0  0
    7.2328    4.3404   -6.9147 H   0  0  0  0  0  0  0  0  0  0  0  0
    7.5020    5.8135   -5.9708 H   0  0  0  0  0  0  0  0  0  0  0  0
    5.9821    4.8928   -5.7534 H   0  0  0  0  0  0  0  0  0  0  0  0
    6.1018    4.0037   -3.7672 H   0  0  0  0  0  0  0  0  0  0  0  0
    9.4993    2.6230   -3.1659 H   0  0  0  0  0  0  0  0  0  0  0  0
   10.0578    1.4225   -1.0689 H   0  0  0  0  0  0  0  0  0  0  0  0
    7.4828    0.7370    1.6673 H   0  0  0  0  0  0  0  0  0  0  0  0
    9.1049    1.4612    1.6427 H   0  0  0  0  0  0  0  0  0  0  0  0
   10.8168   -2.4692    0.0827 H   0  0  0  0  0  0  0  0  0  0  0  0
   12.4479   -1.7249    2.5605 H   0  0  0  0  0  0  0  0  0  0  0  0
   12.9469   -1.2568    0.9341 H   0  0  0  0  0  0  0  0  0  0  0  0
   14.3517   -2.7046   -0.2922 H   0  0  0  0  0  0  0  0  0  0  0  0
   15.4248   -4.9151   -0.6413 H   0  0  0  0  0  0  0  0  0  0  0  0
   14.7526   -6.8683    0.7615 H   0  0  0  0  0  0  0  0  0  0  0  0
   12.9964   -6.5828    2.5120 H   0  0  0  0  0  0  0  0  0  0  0  0
   11.9187   -4.3705    2.8505 H   0  0  0  0  0  0  0  0  0  0  0  0
    7.1030   -0.8788   -1.1628 H   0  0  0  0  0  0  0  0  0  0  0  0
    4.7116   -1.1348   -1.7748 H   0  0  0  0  0  0  0  0  0  0  0  0
    3.0969   -2.1655   -0.1432 H   0  0  0  0  0  0  0  0  0  0  0  0
    6.2973   -2.7024    2.6797 H   0  0  0  0  0  0  0  0  0  0  0  0
    6.0027    1.9175    0.3005 H   0  0  0  0  0  0  0  0  0  0  0  0
    5.4579    3.1565   -1.7572 H   0  0  0  0  0  0  0  0  0  0  0  0
  1  2  1  0
  1 33  1  0
  1 34  1  0
  1 35  1  0
  2  3  2  0
  2  4  1  0
  4  5  1  0
  4 36  1  0
  5  6  2  0
  5 32  1  0
  6  7  1  0
  6 37  1  0
  7  8  2  0
  7 38  1  0
  8  9  1  0
  8 31  1  0
  9 10  1  0
  9 39  1  0
  9 40  1  0
 10 11  1  0
 10 23  1  0
 11 12  2  0
 11 13  1  0
 13 14  1  0
 13 21  1  0
 13 41  1  6
 14 15  1  0
 14 42  1  0
 14 43  1  0
 15 16  2  0
 15 20  1  0
 16 17  1  0
 16 44  1  0
 17 18  2  0
 17 45  1  0
 18 19  1  0
 18 46  1  0
 19 20  2  0
 19 47  1  0
 20 48  1  0
 21 22  1  0
 22 23  2  0
 23 24  1  0
 24 25  2  0
 24 30  1  0
 25 26  1  0
 25 49  1  0
 26 27  2  0
 26 50  1  0
 27 28  1  0
 27 51  1  0
 28 29  1  0
 28 30  2  0
 30 52  1  0
 31 32  2  0
 31 53  1  0
 32 54  1  0
M  END

