
     RDKit          3D

 55 59  0  0  0  0  0  0  0  0999 V2000
    2.4226    0.6628    1.9721 O   0  0  0  0  0  0  0  0  0  0  0  0
    3.7383    0.6554    1.3370 S   0  0  2  0  0  0  0  0  0  0  0  0
    4.9349    0.8412    2.1548 O   0  0  0  0  0  0  0  0  0  0  0  0
    3.7566    1.7176    0.0303 N   0  0  0  0  0  0  0  0  0  0  0  0
    3.8965    1.0693   -1.0960 C   0  0  0  0  0  0  0  0  0  0  0  0
    3.9560    1.7493   -2.2507 N   0  0  0  0  0  0  0  0  0  0  0  0
    3.7930    3.1855   -2.4489 C   0  0  0  0  0  0  0  0  0  0  0  0
    3.9463    2.9511   -3.9812 C   0  0  2  0  0  0  0  0  0  0  0  0
    2.8287    3.3839   -4.7894 N   0  0  0  0  0  0  0  0  0  0  0  0
    2.5697    4.8295   -4.7648 C   0  0  0  0  0  0  0  0  0  0  0  0
    3.4868    5.6223   -5.7130 C   0  0  0  0  0  0  0  0  0  0  0  0
    3.4418    5.1454   -7.0965 N   0  0  0  0  0  0  0  0  0  0  0  0
    2.2978    5.5389   -7.9463 C   0  0  1  0  0  0  0  0  0  0  0  0
    1.8689    7.0064   -7.7405 C   0  0  0  0  0  0  0  0  0  0  0  0
    2.9327    8.0178   -8.1912 C   0  0  0  0  0  0  0  0  0  0  0  0
    3.3307    7.7928   -9.6560 C   0  0  0  0  0  0  0  0  0  0  0  0
    3.7378    6.3357   -9.9093 C   0  0  0  0  0  0  0  0  0  0  0  0
    2.6491    5.3612   -9.4430 C   0  0  0  0  0  0  0  0  0  0  0  0
    3.7551    3.7142   -7.1065 C   0  0  0  0  0  0  0  0  0  0  0  0
    2.8452    2.8918   -6.1722 C   0  0  0  0  0  0  0  0  0  0  0  0
    3.9807    1.4223   -3.6756 C   0  0  0  0  0  0  0  0  0  0  0  0
    3.9962   -0.4261   -1.0212 C   0  0  0  0  0  0  0  0  0  0  0  0
    4.1403   -1.3950   -2.0199 C   0  0  0  0  0  0  0  0  0  0  0  0
    4.2049   -2.7435   -1.6452 C   0  0  0  0  0  0  0  0  0  0  0  0
    4.1271   -3.1234   -0.2998 C   0  0  0  0  0  0  0  0  0  0  0  0
    3.9821   -2.1572    0.7050 C   0  0  0  0  0  0  0  0  0  0  0  0
    3.9197   -0.8279    0.3141 C   0  0  0  0  0  0  0  0  0  0  0  0
    4.5676    3.7927   -1.9546 H   0  0  0  0  0  0  0  0  0  0  0  0
    2.7977    3.5435   -2.1394 H   0  0  0  0  0  0  0  0  0  0  0  0
    4.9391    3.2980   -4.3352 H   0  0  0  0  0  0  0  0  0  0  0  0
    2.6701    5.2016   -3.7324 H   0  0  0  0  0  0  0  0  0  0  0  0
    1.5149    4.9883   -5.0533 H   0  0  0  0  0  0  0  0  0  0  0  0
    4.5330    5.5288   -5.3664 H   0  0  0  0  0  0  0  0  0  0  0  0
    3.2507    6.6931   -5.6611 H   0  0  0  0  0  0  0  0  0  0  0  0
    1.4050    4.9097   -7.7363 H   0  0  0  0  0  0  0  0  0  0  0  0
    1.5622    7.1941   -6.6997 H   0  0  0  0  0  0  0  0  0  0  0  0
    0.9563    7.1556   -8.3435 H   0  0  0  0  0  0  0  0  0  0  0  0
    3.8288    7.9271   -7.5535 H   0  0  0  0  0  0  0  0  0  0  0  0
    2.5523    9.0439   -8.0517 H   0  0  0  0  0  0  0  0  0  0  0  0
    4.1482    8.4767   -9.9402 H   0  0  0  0  0  0  0  0  0  0  0  0
    2.4730    8.0480  -10.3064 H   0  0  0  0  0  0  0  0  0  0  0  0
    4.6700    6.1157   -9.3623 H   0  0  0  0  0  0  0  0  0  0  0  0
    3.9497    6.1783  -10.9804 H   0  0  0  0  0  0  0  0  0  0  0  0
    2.9470    4.3236   -9.6603 H   0  0  0  0  0  0  0  0  0  0  0  0
    1.7248    5.5310  -10.0234 H   0  0  0  0  0  0  0  0  0  0  0  0
    4.8092    3.5918   -6.7954 H   0  0  0  0  0  0  0  0  0  0  0  0
    3.6912    3.3160   -8.1290 H   0  0  0  0  0  0  0  0  0  0  0  0
    3.1491    1.8319   -6.1811 H   0  0  0  0  0  0  0  0  0  0  0  0
    1.8081    2.9196   -6.5512 H   0  0  0  0  0  0  0  0  0  0  0  0
    4.8851    0.8855   -4.0061 H   0  0  0  0  0  0  0  0  0  0  0  0
    3.0791    0.8888   -4.0201 H   0  0  0  0  0  0  0  0  0  0  0  0
    4.2024   -1.1274   -3.0745 H   0  0  0  0  0  0  0  0  0  0  0  0
    4.3173   -3.5091   -2.4165 H   0  0  0  0  0  0  0  0  0  0  0  0
    4.1794   -4.1813   -0.0313 H   0  0  0  0  0  0  0  0  0  0  0  0
    3.9196   -2.4374    1.7588 H   0  0  0  0  0  0  0  0  0  0  0  0
  1  2  2  0
  2  3  2  0
  2  4  1  6
  2 27  1  0
  4  5  2  0
  5  6  1  0
  5 22  1  0
  6  7  1  0
  6 21  1  0
  7  8  1  0
  7 28  1  0
  7 29  1  0
  8  9  1  0
  8 21  1  0
  8 30  1  6
  9 10  1  0
  9 20  1  0
 10 11  1  0
 10 31  1  0
 10 32  1  0
 11 12  1  0
 11 33  1  0
 11 34  1  0
 12 13  1  0
 12 19  1  0
 13 14  1  0
 13 18  1  0
 13 35  1  1
 14 15  1  0
 14 36  1  0
 14 37  1  0
 15 16  1  0
 15 38  1  0
 15 39  1  0
 16 17  1  0
 16 40  1  0
 16 41  1  0
 17 18  1  0
 17 42  1  0
 17 43  1  0
 18 44  1  0
 18 45  1  0
 19 20  1  0
 19 46  1  0
 19 47  1  0
 20 48  1  0
 20 49  1  0
 21 50  1  0
 21 51  1  0
 22 23  2  0
 22 27  1  0
 23 24  1  0
 23 52  1  0
 24 25  2  0
 24 53  1  0
 25 26  1  0
 25 54  1  0
 26 27  2  0
 26 55  1  0
M  END

