
     RDKit          3D

 38 41  0  0  0  0  0  0  0  0999 V2000
    1.3983   -0.4902   -0.2347 O   0  0  0  0  0  0  0  0  0  0  0  0
    2.4946   -0.0047   -0.0895 C   0  0  0  0  0  0  0  0  0  0  0  0
    2.6633    1.4177    0.4484 C   0  0  0  0  0  0  0  0  0  0  0  0
    3.5459    2.2688   -0.3224 N   0  0  0  0  0  0  0  0  0  0  0  0
    3.4830    2.4114   -1.7247 C   0  0  0  0  0  0  0  0  0  0  0  0
    2.7622    1.7709   -2.4501 O   0  0  0  0  0  0  0  0  0  0  0  0
    4.4711    3.4803   -2.0613 C   0  0  0  0  0  0  0  0  0  0  0  0
    4.8425    4.0013   -3.2949 C   0  0  0  0  0  0  0  0  0  0  0  0
    5.8098    5.0179   -3.3015 C   0  0  0  0  0  0  0  0  0  0  0  0
    6.3765    5.4867   -2.1070 C   0  0  0  0  0  0  0  0  0  0  0  0
    5.9944    4.9548   -0.8661 C   0  0  0  0  0  0  0  0  0  0  0  0
    5.0364    3.9477   -0.8698 C   0  0  0  0  0  0  0  0  0  0  0  0
    4.4277    3.1938    0.2663 C   0  0  0  0  0  0  0  0  0  0  0  0
    4.6101    3.3206    1.4550 O   0  0  0  0  0  0  0  0  0  0  0  0
    3.6268   -0.7568   -0.4087 N   0  0  0  0  0  0  0  0  0  0  0  0
    4.9570   -0.6228   -0.1042 C   0  0  0  0  0  0  0  0  0  0  0  0
    5.9268   -1.2970   -0.6432 N   0  0  0  0  0  0  0  0  0  0  0  0
    7.0677   -0.9255    0.0376 N   0  0  0  0  0  0  0  0  0  0  0  0
    6.7256   -0.0520    0.9321 C   0  0  0  0  0  0  0  0  0  0  0  0
    7.5700    0.6371    1.9004 C   0  0  0  0  0  0  0  0  0  0  0  0
    8.9377    0.3051    1.9577 C   0  0  0  0  0  0  0  0  0  0  0  0
    9.7779    0.9309    2.8731 C   0  0  0  0  0  0  0  0  0  0  0  0
    9.2528    1.8973    3.7406 C   0  0  0  0  0  0  0  0  0  0  0  0
   10.3050    2.6843    4.8903 Cl  0  0  0  0  0  0  0  0  0  0  0  0
    7.8986    2.2400    3.6946 C   0  0  0  0  0  0  0  0  0  0  0  0
    7.0584    1.6101    2.7761 C   0  0  0  0  0  0  0  0  0  0  0  0
    5.3660    0.1870    0.8961 O   0  0  0  0  0  0  0  0  0  0  0  0
    3.0592    1.3956    1.4749 H   0  0  0  0  0  0  0  0  0  0  0  0
    1.6416    1.8251    0.4789 H   0  0  0  0  0  0  0  0  0  0  0  0
    4.3947    3.6289   -4.2186 H   0  0  0  0  0  0  0  0  0  0  0  0
    6.1285    5.4528   -4.2519 H   0  0  0  0  0  0  0  0  0  0  0  0
    7.1278    6.2792   -2.1458 H   0  0  0  0  0  0  0  0  0  0  0  0
    6.4294    5.3119    0.0697 H   0  0  0  0  0  0  0  0  0  0  0  0
    3.4101   -1.6089   -0.9218 H   0  0  0  0  0  0  0  0  0  0  0  0
    9.3283   -0.4519    1.2754 H   0  0  0  0  0  0  0  0  0  0  0  0
   10.8376    0.6758    2.9223 H   0  0  0  0  0  0  0  0  0  0  0  0
    7.5063    2.9992    4.3728 H   0  0  0  0  0  0  0  0  0  0  0  0
    6.0074    1.8965    2.7281 H   0  0  0  0  0  0  0  0  0  0  0  0
  1  2  2  0
  2  3  1  0
  2 15  1  0
  3  4  1  0
  3 28  1  0
  3 29  1  0
  4  5  1  0
  4 13  1  0
  5  6  2  0
  5  7  1  0
  7  8  1  0
  7 12  2  0
  8  9  2  0
  8 30  1  0
  9 10  1  0
  9 31  1  0
 10 11  2  0
 10 32  1  0
 11 12  1  0
 11 33  1  0
 12 13  1  0
 13 14  2  0
 15 16  1  0
 15 34  1  0
 16 17  2  0
 16 27  1  0
 17 18  1  0
 18 19  2  0
 19 20  1  0
 19 27  1  0
 20 21  2  0
 20 26  1  0
 21 22  1  0
 21 35  1  0
 22 23  2  0
 22 36  1  0
 23 24  1  0
 23 25  1  0
 25 26  2  0
 25 37  1  0
 26 38  1  0
M  END

