
     RDKit          3D

 45 46  0  0  0  0  0  0  0  0999 V2000
    1.4852    3.5270   -0.6454 C   0  0  0  0  0  0  0  0  0  0  0  0
    2.2746    2.2243   -0.3995 C   0  0  1  0  0  0  0  0  0  0  0  0
    1.5102    0.9935   -0.5907 N   0  0  0  0  0  0  0  0  0  0  0  0
    1.0878    0.7166   -1.9594 C   0  0  0  0  0  0  0  0  0  0  0  0
    2.3190    0.5692   -2.8524 C   0  0  0  0  0  0  0  0  0  0  0  0
    3.2395    1.7906   -2.7283 C   0  0  0  0  0  0  0  0  0  0  0  0
    3.5693    2.1546   -1.2645 C   0  0  2  0  0  0  0  0  0  0  0  0
    4.6012    1.1768   -0.6718 C   0  0  0  0  0  0  0  0  0  0  0  0
    4.8629    0.1174   -1.2229 O   0  0  0  0  0  0  0  0  0  0  0  0
    5.2267    1.5336    0.5086 N   0  0  0  0  0  0  0  0  0  0  0  0
    6.1678    0.5979    1.1189 C   0  0  0  0  0  0  0  0  0  0  0  0
    7.5718    1.2011    1.1618 C   0  0  0  0  0  0  0  0  0  0  0  0
    7.5774    2.5773    1.8389 C   0  0  0  0  0  0  0  0  0  0  0  0
    6.5562    3.5287    1.1944 C   0  0  2  0  0  0  0  0  0  0  0  0
    6.4411    4.8188    1.8854 N   0  0  0  0  0  0  0  0  0  0  0  0
    7.6840    5.3883    2.3789 C   0  0  0  0  0  0  0  0  0  0  0  0
    5.7056    5.8081    1.1155 C   0  0  0  0  0  0  0  0  0  0  0  0
    5.1742    2.8271    1.1707 C   0  0  0  0  0  0  0  0  0  0  0  0
    0.5701    3.5394   -0.0302 H   0  0  0  0  0  0  0  0  0  0  0  0
    1.1823    3.6488   -1.6962 H   0  0  0  0  0  0  0  0  0  0  0  0
    2.0824    4.4118   -0.3684 H   0  0  0  0  0  0  0  0  0  0  0  0
    2.5717    2.2294    0.6622 H   0  0  0  0  0  0  0  0  0  0  0  0
    0.7218    0.9637    0.0520 H   0  0  0  0  0  0  0  0  0  0  0  0
    0.4140    1.4978   -2.3811 H   0  0  0  0  0  0  0  0  0  0  0  0
    0.5093   -0.2218   -1.9560 H   0  0  0  0  0  0  0  0  0  0  0  0
    2.0069    0.4380   -3.9024 H   0  0  0  0  0  0  0  0  0  0  0  0
    2.8786   -0.3263   -2.5488 H   0  0  0  0  0  0  0  0  0  0  0  0
    2.7554    2.6641   -3.1992 H   0  0  0  0  0  0  0  0  0  0  0  0
    4.1761    1.6143   -3.2784 H   0  0  0  0  0  0  0  0  0  0  0  0
    4.0226    3.1593   -1.2678 H   0  0  0  0  0  0  0  0  0  0  0  0
    6.1423   -0.3283    0.5337 H   0  0  0  0  0  0  0  0  0  0  0  0
    5.8253    0.3718    2.1472 H   0  0  0  0  0  0  0  0  0  0  0  0
    7.9514    1.2909    0.1292 H   0  0  0  0  0  0  0  0  0  0  0  0
    8.2545    0.5183    1.6945 H   0  0  0  0  0  0  0  0  0  0  0  0
    8.5910    3.0025    1.7906 H   0  0  0  0  0  0  0  0  0  0  0  0
    7.3248    2.4667    2.9097 H   0  0  0  0  0  0  0  0  0  0  0  0
    6.8681    3.6808    0.1324 H   0  0  0  0  0  0  0  0  0  0  0  0
    8.1680    4.7309    3.1132 H   0  0  0  0  0  0  0  0  0  0  0  0
    7.4633    6.3375    2.8916 H   0  0  0  0  0  0  0  0  0  0  0  0
    8.4244    5.6119    1.5756 H   0  0  0  0  0  0  0  0  0  0  0  0
    4.7060    5.4446    0.8377 H   0  0  0  0  0  0  0  0  0  0  0  0
    6.2270    6.1061    0.1757 H   0  0  0  0  0  0  0  0  0  0  0  0
    5.5599    6.7181    1.7182 H   0  0  0  0  0  0  0  0  0  0  0  0
    4.4329    3.4648    0.6844 H   0  0  0  0  0  0  0  0  0  0  0  0
    4.8489    2.7002    2.2206 H   0  0  0  0  0  0  0  0  0  0  0  0
  1  2  1  0
  1 19  1  0
  1 20  1  0
  1 21  1  0
  2  3  1  0
  2  7  1  0
  2 22  1  1
  3  4  1  0
  3 23  1  0
  4  5  1  0
  4 24  1  0
  4 25  1  0
  5  6  1  0
  5 26  1  0
  5 27  1  0
  6  7  1  0
  6 28  1  0
  6 29  1  0
  7  8  1  0
  7 30  1  6
  8  9  2  0
  8 10  1  0
 10 11  1  0
 10 18  1  0
 11 12  1  0
 11 31  1  0
 11 32  1  0
 12 13  1  0
 12 33  1  0
 12 34  1  0
 13 14  1  0
 13 35  1  0
 13 36  1  0
 14 15  1  0
 14 18  1  0
 14 37  1  6
 15 16  1  0
 15 17  1  0
 16 38  1  0
 16 39  1  0
 16 40  1  0
 17 41  1  0
 17 42  1  0
 17 43  1  0
 18 44  1  0
 18 45  1  0
M  END

