
     RDKit          3D

 23 23  0  0  0  0  0  0  0  0999 V2000
    1.3017   -0.5256    0.4185 N   0  0  0  0  0  0  0  0  0  0  0  0
    2.5717   -0.0098   -0.0709 C   0  0  1  0  0  0  0  0  0  0  0  0
    2.6276    0.2813   -1.5921 C   0  0  0  0  0  0  0  0  0  0  0  0
    2.3989   -0.9614   -2.4432 C   0  0  0  0  0  0  0  0  0  0  0  0
    2.1827   -2.0603   -2.0065 O   0  0  0  0  0  0  0  0  0  0  0  0
    2.4560   -0.7625   -3.7790 O   0  0  0  0  0  0  0  0  0  0  0  0
    2.9872    1.2230    0.7184 C   0  0  0  0  0  0  0  0  0  0  0  0
    2.2039    2.3807    0.7803 C   0  0  0  0  0  0  0  0  0  0  0  0
    1.0443    2.4013    0.0908 F   0  0  0  0  0  0  0  0  0  0  0  0
    2.5457    3.5171    1.5075 C   0  0  0  0  0  0  0  0  0  0  0  0
    3.7503    3.5029    2.2158 C   0  0  0  0  0  0  0  0  0  0  0  0
    4.3205    5.2090    3.3400 I   0  0  0  0  0  0  0  0  0  0  0  0
    4.5832    2.3832    2.1931 C   0  0  0  0  0  0  0  0  0  0  0  0
    4.1818    1.2757    1.4457 C   0  0  0  0  0  0  0  0  0  0  0  0
    4.9935    0.2091    1.4262 F   0  0  0  0  0  0  0  0  0  0  0  0
    1.1154   -1.4221   -0.0298 H   0  0  0  0  0  0  0  0  0  0  0  0
    0.5354    0.1066    0.1886 H   0  0  0  0  0  0  0  0  0  0  0  0
    3.3238   -0.7862    0.1269 H   0  0  0  0  0  0  0  0  0  0  0  0
    3.6099    0.7072   -1.8683 H   0  0  0  0  0  0  0  0  0  0  0  0
    1.8715    1.0400   -1.8614 H   0  0  0  0  0  0  0  0  0  0  0  0
    2.6427    0.1664   -3.9782 H   0  0  0  0  0  0  0  0  0  0  0  0
    1.8741    4.3754    1.5051 H   0  0  0  0  0  0  0  0  0  0  0  0
    5.5276    2.3430    2.7357 H   0  0  0  0  0  0  0  0  0  0  0  0
  1  2  1  0
  1 16  1  0
  1 17  1  0
  2  3  1  0
  2  7  1  0
  2 18  1  6
  3  4  1  0
  3 19  1  0
  3 20  1  0
  4  5  2  0
  4  6  1  0
  6 21  1  0
  7  8  2  0
  7 14  1  0
  8  9  1  0
  8 10  1  0
 10 11  2  0
 10 22  1  0
 11 12  1  0
 11 13  1  0
 13 14  2  0
 13 23  1  0
 14 15  1  0
M  END

