
     RDKit          3D

 52 53  0  0  0  0  0  0  0  0999 V2000
    0.6883   -0.1849   -2.7286 C   0  0  0  0  0  0  0  0  0  0  0  0
    0.6411   -1.2880   -3.7531 C   0  0  0  0  0  0  0  0  0  0  0  0
    0.9616   -1.0267   -5.0939 C   0  0  0  0  0  0  0  0  0  0  0  0
    0.9080   -2.0316   -6.0590 C   0  0  0  0  0  0  0  0  0  0  0  0
    0.5357   -3.3263   -5.6942 C   0  0  0  0  0  0  0  0  0  0  0  0
    0.2203   -3.6359   -4.3647 C   0  0  0  0  0  0  0  0  0  0  0  0
   -0.1494   -5.0431   -3.9641 C   0  0  0  0  0  0  0  0  0  0  0  0
    0.2732   -2.6037   -3.4018 C   0  0  0  0  0  0  0  0  0  0  0  0
   -0.0826   -2.9220   -2.0557 N   0  0  0  0  0  0  0  0  0  0  0  0
    0.7896   -2.8916   -1.0032 C   0  0  0  0  0  0  0  0  0  0  0  0
    1.9409   -2.5005   -1.0673 O   0  0  0  0  0  0  0  0  0  0  0  0
    0.2475   -3.4301    0.3335 C   0  0  0  0  0  0  0  0  0  0  0  0
   -1.1895   -3.4253    0.5010 N   0  0  0  0  0  0  0  0  0  0  0  0
   -1.9437   -4.5530    0.3532 C   0  0  0  0  0  0  0  0  0  0  0  0
   -1.4740   -5.6547    0.1403 O   0  0  0  0  0  0  0  0  0  0  0  0
   -3.4721   -4.3891    0.5364 C   0  0  1  0  0  0  0  0  0  0  0  0
   -4.0262   -2.9799    0.7180 C   0  0  0  0  0  0  0  0  0  0  0  0
   -4.1645   -5.0808   -0.5185 O   0  0  0  0  0  0  0  0  0  0  0  0
   -3.8433   -4.7888   -1.7920 C   0  0  0  0  0  0  0  0  0  0  0  0
   -2.9957   -3.9648   -2.0915 O   0  0  0  0  0  0  0  0  0  0  0  0
   -4.6489   -5.5754   -2.7410 C   0  0  0  0  0  0  0  0  0  0  0  0
   -4.5374   -5.3675   -4.0700 C   0  0  0  0  0  0  0  0  0  0  0  0
   -5.2559   -6.0481   -5.1477 C   0  0  0  0  0  0  0  0  0  0  0  0
   -6.1953   -7.0759   -4.9183 C   0  0  0  0  0  0  0  0  0  0  0  0
   -6.8508   -7.6904   -5.9823 C   0  0  0  0  0  0  0  0  0  0  0  0
   -6.5848   -7.2944   -7.2999 C   0  0  0  0  0  0  0  0  0  0  0  0
   -5.6570   -6.2787   -7.5453 C   0  0  0  0  0  0  0  0  0  0  0  0
   -4.9997   -5.6629   -6.4792 C   0  0  0  0  0  0  0  0  0  0  0  0
    0.7598    0.8007   -3.2111 H   0  0  0  0  0  0  0  0  0  0  0  0
    1.5535   -0.3171   -2.0598 H   0  0  0  0  0  0  0  0  0  0  0  0
   -0.2111   -0.1946   -2.0915 H   0  0  0  0  0  0  0  0  0  0  0  0
    1.2495   -0.0114   -5.3803 H   0  0  0  0  0  0  0  0  0  0  0  0
    1.1584   -1.8059   -7.0990 H   0  0  0  0  0  0  0  0  0  0  0  0
    0.5021   -4.1185   -6.4473 H   0  0  0  0  0  0  0  0  0  0  0  0
   -0.0680   -5.7299   -4.8190 H   0  0  0  0  0  0  0  0  0  0  0  0
   -1.1788   -5.1017   -3.5754 H   0  0  0  0  0  0  0  0  0  0  0  0
    0.5063   -5.4168   -3.1608 H   0  0  0  0  0  0  0  0  0  0  0  0
   -0.9972   -3.3526   -1.9184 H   0  0  0  0  0  0  0  0  0  0  0  0
    0.7408   -2.8465    1.1251 H   0  0  0  0  0  0  0  0  0  0  0  0
    0.5835   -4.4741    0.4264 H   0  0  0  0  0  0  0  0  0  0  0  0
   -1.6555   -2.5294    0.5631 H   0  0  0  0  0  0  0  0  0  0  0  0
   -3.7117   -4.9925    1.4251 H   0  0  0  0  0  0  0  0  0  0  0  0
   -3.7997   -2.3391   -0.1469 H   0  0  0  0  0  0  0  0  0  0  0  0
   -3.6182   -2.5193    1.6313 H   0  0  0  0  0  0  0  0  0  0  0  0
   -5.1191   -3.0270    0.8327 H   0  0  0  0  0  0  0  0  0  0  0  0
   -5.3302   -6.3082   -2.3050 H   0  0  0  0  0  0  0  0  0  0  0  0
   -3.8255   -4.5956   -4.3830 H   0  0  0  0  0  0  0  0  0  0  0  0
   -6.4123   -7.3978   -3.8976 H   0  0  0  0  0  0  0  0  0  0  0  0
   -7.5746   -8.4855   -5.7867 H   0  0  0  0  0  0  0  0  0  0  0  0
   -7.1011   -7.7796   -8.1320 H   0  0  0  0  0  0  0  0  0  0  0  0
   -5.4439   -5.9654   -8.5703 H   0  0  0  0  0  0  0  0  0  0  0  0
   -4.2732   -4.8691   -6.6727 H   0  0  0  0  0  0  0  0  0  0  0  0
  1  2  1  0
  1 29  1  0
  1 30  1  0
  1 31  1  0
  2  3  2  0
  2  8  1  0
  3  4  1  0
  3 32  1  0
  4  5  2  0
  4 33  1  0
  5  6  1  0
  5 34  1  0
  6  7  1  0
  6  8  2  0
  7 35  1  0
  7 36  1  0
  7 37  1  0
  8  9  1  0
  9 10  1  0
  9 38  1  0
 10 11  2  0
 10 12  1  0
 12 13  1  0
 12 39  1  0
 12 40  1  0
 13 14  1  0
 13 41  1  0
 14 15  2  0
 14 16  1  0
 16 17  1  0
 16 18  1  0
 16 42  1  1
 17 43  1  0
 17 44  1  0
 17 45  1  0
 18 19  1  0
 19 20  2  0
 19 21  1  0
 21 22  2  0
 21 46  1  0
 22 23  1  0
 22 47  1  0
 23 24  2  0
 23 28  1  0
 24 25  1  0
 24 48  1  0
 25 26  2  0
 25 49  1  0
 26 27  1  0
 26 50  1  0
 27 28  2  0
 27 51  1  0
 28 52  1  0
M  END

