
     RDKit          3D

 46 45  0  0  0  0  0  0  0  0999 V2000
    2.3571    0.1412   -2.3131 C   0  0  0  0  0  0  0  0  0  0  0  0
    2.1312   -0.3715   -0.8867 C   0  0  1  0  0  0  0  0  0  0  0  0
    2.3905    0.7139    0.1636 C   0  0  0  0  0  0  0  0  0  0  0  0
    0.7223   -0.9480   -0.7344 C   0  0  0  0  0  0  0  0  0  0  0  0
    2.9870   -1.5329   -0.6300 O   0  0  0  0  0  0  0  0  0  0  0  0
    4.3316   -1.4512   -0.6662 C   0  0  0  0  0  0  0  0  0  0  0  0
    4.9878   -0.4526   -0.9037 O   0  0  0  0  0  0  0  0  0  0  0  0
    4.8806   -2.6678   -0.3892 N   0  0  0  0  0  0  0  0  0  0  0  0
    6.3063   -2.8866   -0.4378 C   0  0  1  0  0  0  0  0  0  0  0  0
    6.9945   -2.3645    0.8551 C   0  0  0  0  0  0  0  0  0  0  0  0
    8.4904   -2.6421    1.0196 C   0  0  0  0  0  0  0  0  0  0  0  0
    9.4557   -2.1097   -0.4573 S   0  0  0  0  0  0  0  0  0  0  0  0
   11.0928   -2.7963   -0.0043 C   0  0  0  0  0  0  0  0  0  0  0  0
   12.1130   -2.4847   -1.0914 C   0  0  0  0  0  0  0  0  0  0  0  0
   13.3510   -3.0089   -0.6794 O   0  0  0  0  0  0  0  0  0  0  0  0
   14.4175   -2.7897   -1.5846 C   0  0  0  0  0  0  0  0  0  0  0  0
   15.6279   -3.5267   -1.0379 C   0  0  0  0  0  0  0  0  0  0  0  0
   15.3860   -4.9072   -0.9249 O   0  0  0  0  0  0  0  0  0  0  0  0
    6.5395   -4.3870   -0.6779 C   0  0  0  0  0  0  0  0  0  0  0  0
    5.6840   -5.2132   -0.4873 O   0  0  0  0  0  0  0  0  0  0  0  0
    7.7633   -4.7296   -1.0956 O   0  0  0  0  0  0  0  0  0  0  0  0
    1.6366    0.9430   -2.5386 H   0  0  0  0  0  0  0  0  0  0  0  0
    2.2020   -0.6710   -3.0406 H   0  0  0  0  0  0  0  0  0  0  0  0
    3.3740    0.5357   -2.4335 H   0  0  0  0  0  0  0  0  0  0  0  0
    1.6695    1.5363    0.0342 H   0  0  0  0  0  0  0  0  0  0  0  0
    3.4069    1.1170    0.0711 H   0  0  0  0  0  0  0  0  0  0  0  0
    2.2609    0.3038    1.1776 H   0  0  0  0  0  0  0  0  0  0  0  0
   -0.0313   -0.1645   -0.9063 H   0  0  0  0  0  0  0  0  0  0  0  0
    0.5781   -1.3561    0.2774 H   0  0  0  0  0  0  0  0  0  0  0  0
    0.5556   -1.7589   -1.4595 H   0  0  0  0  0  0  0  0  0  0  0  0
    4.2918   -3.4859   -0.2604 H   0  0  0  0  0  0  0  0  0  0  0  0
    6.7200   -2.3237   -1.2924 H   0  0  0  0  0  0  0  0  0  0  0  0
    6.4715   -2.8073    1.7190 H   0  0  0  0  0  0  0  0  0  0  0  0
    6.8052   -1.2805    0.8796 H   0  0  0  0  0  0  0  0  0  0  0  0
    8.6835   -3.7152    1.1739 H   0  0  0  0  0  0  0  0  0  0  0  0
    8.8717   -2.1005    1.8990 H   0  0  0  0  0  0  0  0  0  0  0  0
   11.0129   -3.8860    0.1342 H   0  0  0  0  0  0  0  0  0  0  0  0
   11.4205   -2.3484    0.9468 H   0  0  0  0  0  0  0  0  0  0  0  0
   12.1812   -1.3885   -1.2459 H   0  0  0  0  0  0  0  0  0  0  0  0
   11.7963   -2.9302   -2.0569 H   0  0  0  0  0  0  0  0  0  0  0  0
   14.6301   -1.7059   -1.6903 H   0  0  0  0  0  0  0  0  0  0  0  0
   14.1558   -3.1865   -2.5862 H   0  0  0  0  0  0  0  0  0  0  0  0
   15.9105   -3.0736   -0.0648 H   0  0  0  0  0  0  0  0  0  0  0  0
   16.4790   -3.3894   -1.7247 H   0  0  0  0  0  0  0  0  0  0  0  0
   14.5574   -4.9955   -0.4319 H   0  0  0  0  0  0  0  0  0  0  0  0
    8.3379   -3.9386   -1.2133 H   0  0  0  0  0  0  0  0  0  0  0  0
  1  2  1  0
  1 22  1  0
  1 23  1  0
  1 24  1  0
  2  3  1  0
  2  4  1  0
  2  5  1  1
  3 25  1  0
  3 26  1  0
  3 27  1  0
  4 28  1  0
  4 29  1  0
  4 30  1  0
  5  6  1  0
  6  7  2  0
  6  8  1  0
  8  9  1  0
  8 31  1  0
  9 10  1  0
  9 19  1  0
  9 32  1  6
 10 11  1  0
 10 33  1  0
 10 34  1  0
 11 12  1  0
 11 35  1  0
 11 36  1  0
 12 13  1  0
 13 14  1  0
 13 37  1  0
 13 38  1  0
 14 15  1  0
 14 39  1  0
 14 40  1  0
 15 16  1  0
 16 17  1  0
 16 41  1  0
 16 42  1  0
 17 18  1  0
 17 43  1  0
 17 44  1  0
 18 45  1  0
 19 20  2  0
 19 21  1  0
 21 46  1  0
M  END

