
     RDKit          3D

 50 51  0  0  0  0  0  0  0  0999 V2000
    1.1830    0.5026    0.7386 C   0  0  0  0  0  0  0  0  0  0  0  0
    2.6726    0.4608    0.9574 C   0  0  0  0  0  0  0  0  0  0  0  0
    3.2323    0.0505    1.9407 O   0  0  0  0  0  0  0  0  0  0  0  0
    3.3332    0.9732   -0.1163 O   0  0  0  0  0  0  0  0  0  0  0  0
    4.7626    1.0560   -0.0378 C   0  0  1  0  0  0  0  0  0  0  0  0
    5.3592    0.8779   -1.4362 C   0  0  1  0  0  0  0  0  0  0  0  0
    4.9272   -0.3979   -2.1348 C   0  0  0  0  0  0  0  0  0  0  0  0
    4.9818    1.9732   -2.2939 O   0  0  0  0  0  0  0  0  0  0  0  0
    5.3359    3.2401   -1.8662 C   0  0  2  0  0  0  0  0  0  0  0  0
    6.7619    3.3695   -1.8672 O   0  0  0  0  0  0  0  0  0  0  0  0
    7.4063    4.2901   -2.6049 C   0  0  0  0  0  0  0  0  0  0  0  0
    6.8715    5.5570   -2.9025 C   0  0  0  0  0  0  0  0  0  0  0  0
    7.5778    6.4642   -3.6919 C   0  0  0  0  0  0  0  0  0  0  0  0
    8.8373    6.1402   -4.2079 C   0  0  0  0  0  0  0  0  0  0  0  0
    9.3890    4.8959   -3.9166 C   0  0  0  0  0  0  0  0  0  0  0  0
    8.6926    3.9897   -3.1123 C   0  0  0  0  0  0  0  0  0  0  0  0
    9.3523    2.7086   -2.8209 N   0  0  0  0  0  0  0  0  0  0  0  0
    9.1669    2.1954   -1.7279 O   0  0  0  0  0  0  0  0  0  0  0  0
   10.0759    2.2477   -3.6909 O   0  0  0  0  0  0  0  0  0  0  0  0
    4.7807    3.5191   -0.4647 C   0  0  2  0  0  0  0  0  0  0  0  0
    5.2175    4.8108   -0.0586 O   0  0  0  0  0  0  0  0  0  0  0  0
    4.4240    5.4758    0.8327 C   0  0  0  0  0  0  0  0  0  0  0  0
    5.1091    6.7091    1.3479 C   0  0  0  0  0  0  0  0  0  0  0  0
    3.3359    5.0767    1.1561 O   0  0  0  0  0  0  0  0  0  0  0  0
    5.1507    2.4253    0.5473 C   0  0  2  0  0  0  0  0  0  0  0  0
    6.5569    2.3557    0.7849 O   0  0  0  0  0  0  0  0  0  0  0  0
    7.1115    3.1244    1.7518 C   0  0  0  0  0  0  0  0  0  0  0  0
    8.5987    2.8992    1.8052 C   0  0  0  0  0  0  0  0  0  0  0  0
    6.4759    3.8671    2.4585 O   0  0  0  0  0  0  0  0  0  0  0  0
    0.6791   -0.0542    1.5374 H   0  0  0  0  0  0  0  0  0  0  0  0
    0.9244    0.0875   -0.2465 H   0  0  0  0  0  0  0  0  0  0  0  0
    0.8452    1.5512    0.7526 H   0  0  0  0  0  0  0  0  0  0  0  0
    5.1372    0.2738    0.6376 H   0  0  0  0  0  0  0  0  0  0  0  0
    6.4552    0.8932   -1.3140 H   0  0  0  0  0  0  0  0  0  0  0  0
    3.8363   -0.4114   -2.2707 H   0  0  0  0  0  0  0  0  0  0  0  0
    5.2239   -1.2778   -1.5439 H   0  0  0  0  0  0  0  0  0  0  0  0
    5.4054   -0.4631   -3.1226 H   0  0  0  0  0  0  0  0  0  0  0  0
    4.9007    3.9430   -2.5927 H   0  0  0  0  0  0  0  0  0  0  0  0
    5.9069    5.8365   -2.4800 H   0  0  0  0  0  0  0  0  0  0  0  0
    7.1378    7.4430   -3.8982 H   0  0  0  0  0  0  0  0  0  0  0  0
    9.3870    6.8531   -4.8252 H   0  0  0  0  0  0  0  0  0  0  0  0
   10.3636    4.5963   -4.3028 H   0  0  0  0  0  0  0  0  0  0  0  0
    3.6836    3.5078   -0.5427 H   0  0  0  0  0  0  0  0  0  0  0  0
    5.8234    6.3825    2.1210 H   0  0  0  0  0  0  0  0  0  0  0  0
    4.3702    7.3840    1.7967 H   0  0  0  0  0  0  0  0  0  0  0  0
    5.6767    7.2153    0.5548 H   0  0  0  0  0  0  0  0  0  0  0  0
    4.6250    2.6060    1.4953 H   0  0  0  0  0  0  0  0  0  0  0  0
    8.8007    1.8769    2.1626 H   0  0  0  0  0  0  0  0  0  0  0  0
    9.0597    3.6244    2.4862 H   0  0  0  0  0  0  0  0  0  0  0  0
    9.0204    2.9744    0.7919 H   0  0  0  0  0  0  0  0  0  0  0  0
  1  2  1  0
  1 30  1  0
  1 31  1  0
  1 32  1  0
  2  3  2  0
  2  4  1  0
  4  5  1  0
  5  6  1  0
  5 25  1  0
  5 33  1  1
  6  7  1  0
  6  8  1  0
  6 34  1  1
  7 35  1  0
  7 36  1  0
  7 37  1  0
  8  9  1  0
  9 10  1  0
  9 20  1  0
  9 38  1  6
 10 11  1  0
 11 12  2  0
 11 16  1  0
 12 13  1  0
 12 39  1  0
 13 14  2  0
 13 40  1  0
 14 15  1  0
 14 41  1  0
 15 16  2  0
 15 42  1  0
 16 17  1  0
 17 18  2  0
 17 19  1  0
 20 21  1  0
 20 25  1  0
 20 43  1  6
 21 22  1  0
 22 23  1  0
 22 24  2  0
 23 44  1  0
 23 45  1  0
 23 46  1  0
 25 26  1  0
 25 47  1  1
 26 27  1  0
 27 28  1  0
 27 29  2  0
 28 48  1  0
 28 49  1  0
 28 50  1  0
M  CHG  2  17   1  19  -1
M  END

