
     RDKit          3D

 36 35  0  0  0  0  0  0  0  0999 V2000
    3.4263    0.9695    1.1314 C   0  0  0  0  0  0  0  0  0  0  0  0
    2.6937    0.1057    0.1044 C   0  0  0  0  0  0  0  0  0  0  0  0
    3.0556   -1.3720    0.1820 C   0  0  0  0  0  0  0  0  0  0  0  0
    4.4472   -1.5052   -0.0541 O   0  0  0  0  0  0  0  0  0  0  0  0
    5.0085   -2.7537    0.2377 C   0  0  1  0  0  0  0  0  0  0  0  0
    4.6050   -3.8577   -0.7622 C   0  0  0  0  0  0  0  0  0  0  0  0
    4.9144   -3.4962   -2.2185 C   0  0  0  0  0  0  0  0  0  0  0  0
    4.3054   -4.4625   -3.2342 C   0  0  0  0  0  0  0  0  0  0  0  0
    2.7949   -4.3745   -3.3391 C   0  0  0  0  0  0  0  0  0  0  0  0
    2.0861   -3.5863   -2.7587 O   0  0  0  0  0  0  0  0  0  0  0  0
    2.3148   -5.2993   -4.1914 O   0  0  0  0  0  0  0  0  0  0  0  0
    0.9013   -5.3064   -4.3929 C   0  0  0  0  0  0  0  0  0  0  0  0
    6.5252   -2.5586    0.3016 C   0  0  0  0  0  0  0  0  0  0  0  0
    7.1223   -1.5394    0.0836 O   0  0  0  0  0  0  0  0  0  0  0  0
    7.1269   -3.7153    0.6573 O   0  0  0  0  0  0  0  0  0  0  0  0
    8.5485   -3.6745    0.7750 C   0  0  0  0  0  0  0  0  0  0  0  0
    3.1650    2.0339    1.0203 H   0  0  0  0  0  0  0  0  0  0  0  0
    4.5151    0.8664    1.0107 H   0  0  0  0  0  0  0  0  0  0  0  0
    3.1712    0.6687    2.1621 H   0  0  0  0  0  0  0  0  0  0  0  0
    2.9187    0.4623   -0.9156 H   0  0  0  0  0  0  0  0  0  0  0  0
    1.6001    0.1927    0.2301 H   0  0  0  0  0  0  0  0  0  0  0  0
    2.4744   -1.9466   -0.5629 H   0  0  0  0  0  0  0  0  0  0  0  0
    2.8072   -1.7751    1.1877 H   0  0  0  0  0  0  0  0  0  0  0  0
    4.7020   -3.0908    1.2516 H   0  0  0  0  0  0  0  0  0  0  0  0
    3.5248   -4.0362   -0.6495 H   0  0  0  0  0  0  0  0  0  0  0  0
    5.1155   -4.7904   -0.4733 H   0  0  0  0  0  0  0  0  0  0  0  0
    6.0067   -3.4700   -2.3721 H   0  0  0  0  0  0  0  0  0  0  0  0
    4.5483   -2.4780   -2.4192 H   0  0  0  0  0  0  0  0  0  0  0  0
    4.5659   -5.5124   -3.0135 H   0  0  0  0  0  0  0  0  0  0  0  0
    4.7032   -4.2737   -4.2463 H   0  0  0  0  0  0  0  0  0  0  0  0
    0.6979   -6.1127   -5.1085 H   0  0  0  0  0  0  0  0  0  0  0  0
    0.5574   -4.3422   -4.7973 H   0  0  0  0  0  0  0  0  0  0  0  0
    0.3709   -5.4940   -3.4468 H   0  0  0  0  0  0  0  0  0  0  0  0
    8.8617   -4.6832    1.0720 H   0  0  0  0  0  0  0  0  0  0  0  0
    8.8578   -2.9403    1.5346 H   0  0  0  0  0  0  0  0  0  0  0  0
    9.0148   -3.3972   -0.1828 H   0  0  0  0  0  0  0  0  0  0  0  0
  1  2  1  0
  1 17  1  0
  1 18  1  0
  1 19  1  0
  2  3  1  0
  2 20  1  0
  2 21  1  0
  3  4  1  0
  3 22  1  0
  3 23  1  0
  4  5  1  0
  5  6  1  0
  5 13  1  0
  5 24  1  1
  6  7  1  0
  6 25  1  0
  6 26  1  0
  7  8  1  0
  7 27  1  0
  7 28  1  0
  8  9  1  0
  8 29  1  0
  8 30  1  0
  9 10  2  0
  9 11  1  0
 11 12  1  0
 12 31  1  0
 12 32  1  0
 12 33  1  0
 13 14  2  0
 13 15  1  0
 15 16  1  0
 16 34  1  0
 16 35  1  0
 16 36  1  0
M  END

