
     RDKit          3D

 63 66  0  0  0  0  0  0  0  0999 V2000
    8.9521    2.7755   -0.4405 C   0  0  0  0  0  0  0  0  0  0  0  0
    8.4148    3.9181   -1.3176 C   0  0  1  0  0  0  0  0  0  0  0  0
    9.4715    4.5152   -2.2644 C   0  0  0  0  0  0  0  0  0  0  0  0
    9.8031    3.5847   -3.4338 C   0  0  0  0  0  0  0  0  0  0  0  0
    8.5240    3.1475   -4.1513 C   0  0  0  0  0  0  0  0  0  0  0  0
    7.4807    2.5664   -3.1804 C   0  0  2  0  0  0  0  0  0  0  0  0
    6.2734    2.0276   -3.9483 C   0  0  0  0  0  0  0  0  0  0  0  0
    7.2131    3.5659   -2.1134 N   0  0  0  0  0  0  0  0  0  0  0  0
    5.9866    3.7066   -1.4549 C   0  0  0  0  0  0  0  0  0  0  0  0
    4.8974    3.9184   -2.2834 N   0  0  0  0  0  0  0  0  0  0  0  0
    5.9333    3.6852   -0.1685 N   0  0  0  0  0  0  0  0  0  0  0  0
    4.7103    4.0563    0.5011 C   0  0  0  0  0  0  0  0  0  0  0  0
    4.9550    4.3688    1.9467 C   0  0  0  0  0  0  0  0  0  0  0  0
    5.0831    5.5348    2.6479 C   0  0  0  0  0  0  0  0  0  0  0  0
    5.3503    5.1049    3.9861 C   0  0  0  0  0  0  0  0  0  0  0  0
    5.5603    5.9361    5.2176 C   0  0  0  0  0  0  0  0  0  0  0  0
    4.2564    6.5837    5.7409 C   0  0  0  0  0  0  0  0  0  0  0  0
    4.4705    7.4165    6.9842 C   0  0  0  0  0  0  0  0  0  0  0  0
    4.4384    6.8381    8.2631 C   0  0  0  0  0  0  0  0  0  0  0  0
    4.6772    7.6049    9.4028 C   0  0  0  0  0  0  0  0  0  0  0  0
    4.9615    8.9827    9.3338 C   0  0  0  0  0  0  0  0  0  0  0  0
    5.1935    9.7898   10.5611 C   0  0  0  0  0  0  0  0  0  0  0  0
    6.1866   10.7869   10.6158 C   0  0  0  0  0  0  0  0  0  0  0  0
    6.4089   11.5114   11.7882 C   0  0  0  0  0  0  0  0  0  0  0  0
    5.6434   11.2616   12.9312 C   0  0  0  0  0  0  0  0  0  0  0  0
    4.6504   10.2789   12.8907 C   0  0  0  0  0  0  0  0  0  0  0  0
    4.4282    9.5527   11.7190 C   0  0  0  0  0  0  0  0  0  0  0  0
    4.9884    9.5347    8.0422 C   0  0  0  0  0  0  0  0  0  0  0  0
    5.2329   10.8492    7.8866 F   0  0  0  0  0  0  0  0  0  0  0  0
    4.7511    8.7865    6.8934 C   0  0  0  0  0  0  0  0  0  0  0  0
    5.3689    3.7924    4.0626 N   0  0  0  0  0  0  0  0  0  0  0  0
    5.1203    3.3307    2.7832 O   0  0  0  0  0  0  0  0  0  0  0  0
    9.7850    3.1445    0.1797 H   0  0  0  0  0  0  0  0  0  0  0  0
    9.3329    1.9210   -1.0214 H   0  0  0  0  0  0  0  0  0  0  0  0
    8.1553    2.4235    0.2285 H   0  0  0  0  0  0  0  0  0  0  0  0
    8.0850    4.7073   -0.6290 H   0  0  0  0  0  0  0  0  0  0  0  0
   10.3806    4.7579   -1.6893 H   0  0  0  0  0  0  0  0  0  0  0  0
    9.0796    5.4678   -2.6616 H   0  0  0  0  0  0  0  0  0  0  0  0
   10.3373    2.6913   -3.0656 H   0  0  0  0  0  0  0  0  0  0  0  0
   10.4889    4.0820   -4.1399 H   0  0  0  0  0  0  0  0  0  0  0  0
    8.7548    2.3947   -4.9238 H   0  0  0  0  0  0  0  0  0  0  0  0
    8.0683    4.0119   -4.6684 H   0  0  0  0  0  0  0  0  0  0  0  0
    7.9410    1.6833   -2.6933 H   0  0  0  0  0  0  0  0  0  0  0  0
    5.7899    2.7958   -4.5717 H   0  0  0  0  0  0  0  0  0  0  0  0
    5.5104    1.5921   -3.2907 H   0  0  0  0  0  0  0  0  0  0  0  0
    6.6326    1.2363   -4.6250 H   0  0  0  0  0  0  0  0  0  0  0  0
    5.0624    4.3837   -3.1662 H   0  0  0  0  0  0  0  0  0  0  0  0
    3.9974    4.0933   -1.8578 H   0  0  0  0  0  0  0  0  0  0  0  0
    3.9625    3.2369    0.4633 H   0  0  0  0  0  0  0  0  0  0  0  0
    4.2193    4.9477    0.0533 H   0  0  0  0  0  0  0  0  0  0  0  0
    5.0124    6.5506    2.2670 H   0  0  0  0  0  0  0  0  0  0  0  0
    6.2993    6.7269    5.0068 H   0  0  0  0  0  0  0  0  0  0  0  0
    5.9905    5.2914    5.9988 H   0  0  0  0  0  0  0  0  0  0  0  0
    3.5292    5.7824    5.9494 H   0  0  0  0  0  0  0  0  0  0  0  0
    3.8172    7.2097    4.9467 H   0  0  0  0  0  0  0  0  0  0  0  0
    4.2264    5.7707    8.3682 H   0  0  0  0  0  0  0  0  0  0  0  0
    4.6624    7.1239   10.3834 H   0  0  0  0  0  0  0  0  0  0  0  0
    6.7954   10.9906    9.7342 H   0  0  0  0  0  0  0  0  0  0  0  0
    7.1899   12.2760   11.8089 H   0  0  0  0  0  0  0  0  0  0  0  0
    5.8178   11.8319   13.8471 H   0  0  0  0  0  0  0  0  0  0  0  0
    4.0382   10.0804   13.7743 H   0  0  0  0  0  0  0  0  0  0  0  0
    3.6342    8.8027   11.6944 H   0  0  0  0  0  0  0  0  0  0  0  0
    4.7784    9.3000    5.9293 H   0  0  0  0  0  0  0  0  0  0  0  0
  1  2  1  0
  1 33  1  0
  1 34  1  0
  1 35  1  0
  2  3  1  0
  2  8  1  0
  2 36  1  1
  3  4  1  0
  3 37  1  0
  3 38  1  0
  4  5  1  0
  4 39  1  0
  4 40  1  0
  5  6  1  0
  5 41  1  0
  5 42  1  0
  6  7  1  0
  6  8  1  0
  6 43  1  1
  7 44  1  0
  7 45  1  0
  7 46  1  0
  8  9  1  0
  9 10  1  0
  9 11  2  0
 10 47  1  0
 10 48  1  0
 11 12  1  0
 12 13  1  0
 12 49  1  0
 12 50  1  0
 13 14  2  0
 13 32  1  0
 14 15  1  0
 14 51  1  0
 15 16  1  0
 15 31  2  0
 16 17  1  0
 16 52  1  0
 16 53  1  0
 17 18  1  0
 17 54  1  0
 17 55  1  0
 18 19  2  0
 18 30  1  0
 19 20  1  0
 19 56  1  0
 20 21  2  0
 20 57  1  0
 21 22  1  0
 21 28  1  0
 22 23  2  0
 22 27  1  0
 23 24  1  0
 23 58  1  0
 24 25  2  0
 24 59  1  0
 25 26  1  0
 25 60  1  0
 26 27  2  0
 26 61  1  0
 27 62  1  0
 28 29  1  0
 28 30  2  0
 30 63  1  0
 31 32  1  0
M  END

