
     RDKit          3D

 49 49  0  0  0  0  0  0  0  0999 V2000
    1.6626    0.1764    0.8136 C   0  0  0  0  0  0  0  0  0  0  0  0
    2.9773   -0.4959    0.5643 C   0  0  0  0  0  0  0  0  0  0  0  0
    4.0841    0.2269    0.5545 N   0  0  0  0  0  0  0  0  0  0  0  0
    5.1033   -0.6348    0.2972 N   0  0  0  0  0  0  0  0  0  0  0  0
    6.4581   -0.1163    0.2426 C   0  0  0  0  0  0  0  0  0  0  0  0
    4.6874   -1.9060    0.1293 C   0  0  0  0  0  0  0  0  0  0  0  0
    5.5983   -3.0468   -0.1779 C   0  0  0  0  0  0  0  0  0  0  0  0
    3.2866   -1.8766    0.2976 C   0  0  0  0  0  0  0  0  0  0  0  0
    2.4497   -3.0519    0.1572 C   0  0  0  0  0  0  0  0  0  0  0  0
    2.8562   -4.1481   -0.2108 O   0  0  0  0  0  0  0  0  0  0  0  0
    0.9690   -3.0134    0.5792 C   0  0  0  0  0  0  0  0  0  0  0  0
    0.5622   -2.5801    1.6256 O   0  0  0  0  0  0  0  0  0  0  0  0
    0.2309   -3.6703   -0.3310 O   0  0  0  0  0  0  0  0  0  0  0  0
   -1.0723   -4.1581    0.0250 C   0  0  1  0  0  0  0  0  0  0  0  0
   -2.1082   -3.6272   -0.9546 C   0  0  0  0  0  0  0  0  0  0  0  0
   -1.0506   -5.6961    0.0514 C   0  0  0  0  0  0  0  0  0  0  0  0
   -2.1008   -6.2929    0.2520 O   0  0  0  0  0  0  0  0  0  0  0  0
    0.1629   -6.2869   -0.1443 N   0  0  0  0  0  0  0  0  0  0  0  0
    0.4921   -7.6840   -0.1560 C   0  0  0  0  0  0  0  0  0  0  0  0
    1.6498   -7.9986   -0.3644 O   0  0  0  0  0  0  0  0  0  0  0  0
   -0.5479   -8.5164    0.0716 N   0  0  0  0  0  0  0  0  0  0  0  0
   -0.4514   -9.9905    0.1047 C   0  0  1  0  0  0  0  0  0  0  0  0
    0.5064  -10.4362    1.2257 C   0  0  0  0  0  0  0  0  0  0  0  0
   -1.8697  -10.5046    0.3940 C   0  0  0  0  0  0  0  0  0  0  0  0
    0.0318  -10.5235   -1.2574 C   0  0  0  0  0  0  0  0  0  0  0  0
    1.8267    1.2593    0.8958 H   0  0  0  0  0  0  0  0  0  0  0  0
    1.1944   -0.1939    1.7366 H   0  0  0  0  0  0  0  0  0  0  0  0
    0.9504   -0.0074   -0.0070 H   0  0  0  0  0  0  0  0  0  0  0  0
    6.3884    0.9699    0.3695 H   0  0  0  0  0  0  0  0  0  0  0  0
    6.9295   -0.3402   -0.7261 H   0  0  0  0  0  0  0  0  0  0  0  0
    7.0785   -0.5352    1.0503 H   0  0  0  0  0  0  0  0  0  0  0  0
    6.6494   -2.7987    0.0255 H   0  0  0  0  0  0  0  0  0  0  0  0
    5.5080   -3.3418   -1.2367 H   0  0  0  0  0  0  0  0  0  0  0  0
    5.3125   -3.9328    0.4048 H   0  0  0  0  0  0  0  0  0  0  0  0
   -1.3047   -3.8238    1.0485 H   0  0  0  0  0  0  0  0  0  0  0  0
   -1.8337   -3.8880   -1.9881 H   0  0  0  0  0  0  0  0  0  0  0  0
   -2.1851   -2.5332   -0.8732 H   0  0  0  0  0  0  0  0  0  0  0  0
   -3.0841   -4.0751   -0.7234 H   0  0  0  0  0  0  0  0  0  0  0  0
    0.9765   -5.6939   -0.3224 H   0  0  0  0  0  0  0  0  0  0  0  0
   -1.4538   -8.0677    0.2175 H   0  0  0  0  0  0  0  0  0  0  0  0
    0.1547  -10.0697    2.2033 H   0  0  0  0  0  0  0  0  0  0  0  0
    1.5167  -10.0431    1.0483 H   0  0  0  0  0  0  0  0  0  0  0  0
    0.5589  -11.5358    1.2689 H   0  0  0  0  0  0  0  0  0  0  0  0
   -2.2393  -10.1267    1.3611 H   0  0  0  0  0  0  0  0  0  0  0  0
   -1.8757  -11.6041    0.4343 H   0  0  0  0  0  0  0  0  0  0  0  0
   -2.5745  -10.1892   -0.3925 H   0  0  0  0  0  0  0  0  0  0  0  0
    1.0309  -10.1315   -1.4918 H   0  0  0  0  0  0  0  0  0  0  0  0
   -0.6604  -10.2201   -2.0591 H   0  0  0  0  0  0  0  0  0  0  0  0
    0.0799  -11.6240   -1.2424 H   0  0  0  0  0  0  0  0  0  0  0  0
  1  2  1  0
  1 26  1  0
  1 27  1  0
  1 28  1  0
  2  3  2  0
  2  8  1  0
  3  4  1  0
  4  5  1  0
  4  6  1  0
  5 29  1  0
  5 30  1  0
  5 31  1  0
  6  7  1  0
  6  8  2  0
  7 32  1  0
  7 33  1  0
  7 34  1  0
  8  9  1  0
  9 10  2  0
  9 11  1  0
 11 12  2  0
 11 13  1  0
 13 14  1  0
 14 15  1  0
 14 16  1  0
 14 35  1  1
 15 36  1  0
 15 37  1  0
 15 38  1  0
 16 17  2  0
 16 18  1  0
 18 19  1  0
 18 39  1  0
 19 20  2  0
 19 21  1  0
 22 21  1  6
 21 40  1  0
 22 23  1  0
 22 24  1  0
 22 25  1  0
 23 41  1  0
 23 42  1  0
 23 43  1  0
 24 44  1  0
 24 45  1  0
 24 46  1  0
 25 47  1  0
 25 48  1  0
 25 49  1  0
M  END

