
     RDKit          3D

 39 41  0  0  0  0  0  0  0  0999 V2000
    6.1619   -2.8798    3.0356 C   0  0  0  0  0  0  0  0  0  0  0  0
    5.8248   -1.7740    2.0725 C   0  0  0  0  0  0  0  0  0  0  0  0
    6.5603   -0.5849    2.0149 C   0  0  0  0  0  0  0  0  0  0  0  0
    6.2001    0.4037    1.0886 C   0  0  0  0  0  0  0  0  0  0  0  0
    7.0172    1.6753    1.0720 C   0  0  0  0  0  0  0  0  0  0  0  0
    7.7301    1.9862    2.0053 O   0  0  0  0  0  0  0  0  0  0  0  0
    6.9177    2.4307   -0.0771 N   0  0  0  0  0  0  0  0  0  0  0  0
    7.5738    4.0184   -0.3023 S   0  0  1  0  0  0  0  0  0  0  0  0
    7.1331    4.3211   -1.6641 O   0  0  0  0  0  0  0  0  0  0  0  0
    7.1835    4.8296    0.8412 O   0  0  0  0  0  0  0  0  0  0  0  0
    9.3346    3.7905   -0.2904 C   0  0  0  0  0  0  0  0  0  0  0  0
    9.9998    3.5577   -1.5020 C   0  0  0  0  0  0  0  0  0  0  0  0
   11.3787    3.3998   -1.4869 C   0  0  0  0  0  0  0  0  0  0  0  0
   12.0907    3.4796   -0.2753 C   0  0  0  0  0  0  0  0  0  0  0  0
   11.4177    3.7105    0.9462 C   0  0  0  0  0  0  0  0  0  0  0  0
   10.0294    3.8668    0.9187 C   0  0  0  0  0  0  0  0  0  0  0  0
   12.1977    3.7649    2.2434 C   0  0  0  0  0  0  0  0  0  0  0  0
   13.5672    3.1006    2.0787 C   0  0  0  0  0  0  0  0  0  0  0  0
   14.2221    3.5974    0.7985 C   0  0  0  0  0  0  0  0  0  0  0  0
   13.4296    3.3070   -0.3545 O   0  0  0  0  0  0  0  0  0  0  0  0
    5.0981    0.1775    0.2603 C   0  0  0  0  0  0  0  0  0  0  0  0
    4.4295   -1.0469    0.4061 C   0  0  0  0  0  0  0  0  0  0  0  0
    3.0388   -1.3566   -0.6176 Cl  0  0  0  0  0  0  0  0  0  0  0  0
    4.7713   -1.9831    1.2619 N   0  0  0  0  0  0  0  0  0  0  0  0
    7.0285   -2.6284    3.6624 H   0  0  0  0  0  0  0  0  0  0  0  0
    6.3766   -3.8096    2.4849 H   0  0  0  0  0  0  0  0  0  0  0  0
    5.2986   -3.0894    3.6872 H   0  0  0  0  0  0  0  0  0  0  0  0
    7.4071   -0.4050    2.6783 H   0  0  0  0  0  0  0  0  0  0  0  0
    6.4018    2.1092   -0.8910 H   0  0  0  0  0  0  0  0  0  0  0  0
    9.4380    3.5211   -2.4366 H   0  0  0  0  0  0  0  0  0  0  0  0
   11.9411    3.2238   -2.4057 H   0  0  0  0  0  0  0  0  0  0  0  0
    9.4765    4.0323    1.8446 H   0  0  0  0  0  0  0  0  0  0  0  0
   11.6186    3.2825    3.0466 H   0  0  0  0  0  0  0  0  0  0  0  0
   12.3317    4.8181    2.5513 H   0  0  0  0  0  0  0  0  0  0  0  0
   13.4577    2.0040    2.0241 H   0  0  0  0  0  0  0  0  0  0  0  0
   14.2220    3.3199    2.9368 H   0  0  0  0  0  0  0  0  0  0  0  0
   15.1925    3.1146    0.6154 H   0  0  0  0  0  0  0  0  0  0  0  0
   14.3896    4.6901    0.8484 H   0  0  0  0  0  0  0  0  0  0  0  0
    4.7297    0.9112   -0.4571 H   0  0  0  0  0  0  0  0  0  0  0  0
  1  2  1  0
  1 25  1  0
  1 26  1  0
  1 27  1  0
  2  3  2  0
  2 24  1  0
  3  4  1  0
  3 28  1  0
  4  5  1  0
  4 21  2  0
  5  6  2  0
  5  7  1  0
  8  7  1  1
  7 29  1  0
  8  9  2  0
  8 10  2  0
  8 11  1  0
 11 12  2  0
 11 16  1  0
 12 13  1  0
 12 30  1  0
 13 14  2  0
 13 31  1  0
 14 15  1  0
 14 20  1  0
 15 16  2  0
 15 17  1  0
 16 32  1  0
 17 18  1  0
 17 33  1  0
 17 34  1  0
 18 19  1  0
 18 35  1  0
 18 36  1  0
 19 20  1  0
 19 37  1  0
 19 38  1  0
 21 22  1  0
 21 39  1  0
 22 23  1  0
 22 24  2  0
M  END

