
     RDKit          3D

 44 46  0  0  0  0  0  0  0  0999 V2000
   11.6569   -2.9877   -4.7595 C   0  0  0  0  0  0  0  0  0  0  0  0
   10.3813   -2.8507   -4.0881 N   0  0  0  0  0  0  0  0  0  0  0  0
    9.3115   -2.3373   -4.6776 N   0  0  0  0  0  0  0  0  0  0  0  0
    8.3604   -2.3557   -3.7873 N   0  0  0  0  0  0  0  0  0  0  0  0
    8.8935   -2.8887   -2.6566 C   0  0  0  0  0  0  0  0  0  0  0  0
    8.1204   -3.1254   -1.4006 C   0  0  0  0  0  0  0  0  0  0  0  0
    7.2998   -4.4273   -1.4337 C   0  0  0  0  0  0  0  0  0  0  0  0
    6.4836   -4.6442   -0.1548 C   0  0  0  0  0  0  0  0  0  0  0  0
    5.5956   -5.8954   -0.1569 C   0  0  0  0  0  0  0  0  0  0  0  0
    6.3865   -7.2087   -0.1671 C   0  0  0  0  0  0  0  0  0  0  0  0
    5.5211   -8.3964   -0.1001 N   0  0  0  0  0  0  0  0  0  0  0  0
    5.1677   -9.0074   -1.3281 C   0  0  0  0  0  0  0  0  0  0  0  0
    5.5639   -8.5856   -2.4051 O   0  0  0  0  0  0  0  0  0  0  0  0
    4.3130  -10.1447   -1.1193 C   0  0  0  0  0  0  0  0  0  0  0  0
    3.8962  -10.5678    0.1324 C   0  0  0  0  0  0  0  0  0  0  0  0
    3.0959  -11.6579    0.0472 N   0  0  0  0  0  0  0  0  0  0  0  0
    3.0223  -11.9038   -1.2549 C   0  0  0  0  0  0  0  0  0  0  0  0
    3.7315  -11.0296   -2.0138 N   0  0  0  0  0  0  0  0  0  0  0  0
    3.8669  -11.0129   -3.4609 C   0  0  0  0  0  0  0  0  0  0  0  0
    4.2843   -9.9099    1.2776 N   0  0  0  0  0  0  0  0  0  0  0  0
    3.8463  -10.3427    2.6002 C   0  0  0  0  0  0  0  0  0  0  0  0
    5.1097   -8.7919    1.1897 C   0  0  0  0  0  0  0  0  0  0  0  0
    5.4593   -8.1878    2.1872 O   0  0  0  0  0  0  0  0  0  0  0  0
   10.1746   -3.2096   -2.8299 N   0  0  0  0  0  0  0  0  0  0  0  0
   11.5258   -2.6354   -5.7893 H   0  0  0  0  0  0  0  0  0  0  0  0
   11.9696   -4.0415   -4.7565 H   0  0  0  0  0  0  0  0  0  0  0  0
   12.4190   -2.3826   -4.2476 H   0  0  0  0  0  0  0  0  0  0  0  0
    7.4440   -2.2690   -1.2468 H   0  0  0  0  0  0  0  0  0  0  0  0
    8.8257   -3.1473   -0.5551 H   0  0  0  0  0  0  0  0  0  0  0  0
    7.9888   -5.2724   -1.6021 H   0  0  0  0  0  0  0  0  0  0  0  0
    6.6245   -4.4023   -2.3065 H   0  0  0  0  0  0  0  0  0  0  0  0
    5.8415   -3.7608    0.0088 H   0  0  0  0  0  0  0  0  0  0  0  0
    7.1656   -4.6821    0.7151 H   0  0  0  0  0  0  0  0  0  0  0  0
    4.9244   -5.8744   -1.0331 H   0  0  0  0  0  0  0  0  0  0  0  0
    4.9598   -5.8832    0.7427 H   0  0  0  0  0  0  0  0  0  0  0  0
    7.0632   -7.2453    0.6971 H   0  0  0  0  0  0  0  0  0  0  0  0
    6.9679   -7.3063   -1.0916 H   0  0  0  0  0  0  0  0  0  0  0  0
    2.4554  -12.7204   -1.7032 H   0  0  0  0  0  0  0  0  0  0  0  0
    3.2731  -11.8363   -3.8800 H   0  0  0  0  0  0  0  0  0  0  0  0
    4.9203  -11.1336   -3.7505 H   0  0  0  0  0  0  0  0  0  0  0  0
    3.5109  -10.0565   -3.8687 H   0  0  0  0  0  0  0  0  0  0  0  0
    3.2196  -11.2325    2.4721 H   0  0  0  0  0  0  0  0  0  0  0  0
    3.2735   -9.5444    3.0948 H   0  0  0  0  0  0  0  0  0  0  0  0
    4.7150  -10.5778    3.2323 H   0  0  0  0  0  0  0  0  0  0  0  0
  1  2  1  0
  1 25  1  0
  1 26  1  0
  1 27  1  0
  2  3  1  0
  2 24  1  0
  3  4  2  0
  4  5  1  0
  5  6  1  0
  5 24  2  0
  6  7  1  0
  6 28  1  0
  6 29  1  0
  7  8  1  0
  7 30  1  0
  7 31  1  0
  8  9  1  0
  8 32  1  0
  8 33  1  0
  9 10  1  0
  9 34  1  0
  9 35  1  0
 10 11  1  0
 10 36  1  0
 10 37  1  0
 11 12  1  0
 11 22  1  0
 12 13  2  0
 12 14  1  0
 14 15  2  0
 14 18  1  0
 15 16  1  0
 15 20  1  0
 16 17  2  0
 17 18  1  0
 17 38  1  0
 18 19  1  0
 19 39  1  0
 19 40  1  0
 19 41  1  0
 20 21  1  0
 20 22  1  0
 21 42  1  0
 21 43  1  0
 21 44  1  0
 22 23  2  0
M  END

