
     RDKit          3D

 61 63  0  0  0  0  0  0  0  0999 V2000
   10.8065   -1.5393   -6.4379 C   0  0  0  0  0  0  0  0  0  0  0  0
    9.5930   -1.0992   -5.7813 N   0  0  0  0  0  0  0  0  0  0  0  0
    9.4634   -0.1649   -4.8025 C   0  0  0  0  0  0  0  0  0  0  0  0
    8.1147   -0.1036   -4.4712 C   0  0  0  0  0  0  0  0  0  0  0  0
    7.4945    0.8358   -3.4516 C   0  0  1  0  0  0  0  0  0  0  0  0
    7.5064    2.2797   -3.9630 C   0  0  0  0  0  0  0  0  0  0  0  0
    6.0404    0.4275   -3.1016 C   0  0  0  0  0  0  0  0  0  0  0  0
    5.9988   -0.7894   -2.3138 N   0  0  0  0  0  0  0  0  0  0  0  0
    5.1766   -1.8871   -2.5163 C   0  0  0  0  0  0  0  0  0  0  0  0
    5.2619   -2.8961   -1.8263 O   0  0  0  0  0  0  0  0  0  0  0  0
    4.2689   -1.8005   -3.5548 N   0  0  0  0  0  0  0  0  0  0  0  0
    3.3539   -2.9018   -3.8094 C   0  0  0  0  0  0  0  0  0  0  0  0
    2.1906   -3.0468   -2.7984 C   0  0  1  0  0  0  0  0  0  0  0  0
    1.3296   -1.7702   -2.7000 C   0  0  0  0  0  0  0  0  0  0  0  0
    0.3706   -1.6193   -3.8841 C   0  0  0  0  0  0  0  0  0  0  0  0
   -0.4414   -2.8995   -4.0431 C   0  0  0  0  0  0  0  0  0  0  0  0
    0.3922   -4.0334   -4.1832 O   0  0  0  0  0  0  0  0  0  0  0  0
    1.3601   -4.3061   -3.1657 C   0  0  2  0  0  0  0  0  0  0  0  0
    0.8097   -5.1554   -1.9643 C   0  0  1  0  0  0  0  0  0  0  0  0
   -0.1596   -6.2153   -2.5207 C   0  0  0  0  0  0  0  0  0  0  0  0
    2.0118   -5.8789   -1.3191 C   0  0  0  0  0  0  0  0  0  0  0  0
    0.0914   -4.3422   -0.8684 C   0  0  0  0  0  0  0  0  0  0  0  0
    6.8456   -0.7534   -1.1285 C   0  0  0  0  0  0  0  0  0  0  0  0
    8.2629   -0.3559   -1.5170 C   0  0  0  0  0  0  0  0  0  0  0  0
    8.2761    0.8609   -2.2489 O   0  0  0  0  0  0  0  0  0  0  0  0
    7.5210   -1.0690   -5.3263 C   0  0  0  0  0  0  0  0  0  0  0  0
    8.4208   -1.6575   -6.1106 N   0  0  0  0  0  0  0  0  0  0  0  0
   11.6504   -0.9333   -6.0827 H   0  0  0  0  0  0  0  0  0  0  0  0
   10.7092   -1.4223   -7.5275 H   0  0  0  0  0  0  0  0  0  0  0  0
   11.0020   -2.5995   -6.2148 H   0  0  0  0  0  0  0  0  0  0  0  0
   10.3192    0.3767   -4.4045 H   0  0  0  0  0  0  0  0  0  0  0  0
    6.9143    2.3730   -4.8861 H   0  0  0  0  0  0  0  0  0  0  0  0
    8.5380    2.5897   -4.1828 H   0  0  0  0  0  0  0  0  0  0  0  0
    7.0976    2.9579   -3.1981 H   0  0  0  0  0  0  0  0  0  0  0  0
    5.4793    0.3143   -4.0370 H   0  0  0  0  0  0  0  0  0  0  0  0
    5.5853    1.2643   -2.5362 H   0  0  0  0  0  0  0  0  0  0  0  0
    4.0295   -0.8946   -3.9322 H   0  0  0  0  0  0  0  0  0  0  0  0
    3.9440   -3.8289   -3.7871 H   0  0  0  0  0  0  0  0  0  0  0  0
    2.9624   -2.7896   -4.8329 H   0  0  0  0  0  0  0  0  0  0  0  0
    2.6685   -3.2168   -1.8230 H   0  0  0  0  0  0  0  0  0  0  0  0
    1.9891   -0.8906   -2.6111 H   0  0  0  0  0  0  0  0  0  0  0  0
    0.7411   -1.7933   -1.7692 H   0  0  0  0  0  0  0  0  0  0  0  0
    0.9267   -1.4292   -4.8190 H   0  0  0  0  0  0  0  0  0  0  0  0
   -0.3052   -0.7599   -3.7355 H   0  0  0  0  0  0  0  0  0  0  0  0
   -1.0592   -2.8701   -4.9549 H   0  0  0  0  0  0  0  0  0  0  0  0
   -1.1357   -3.0099   -3.1863 H   0  0  0  0  0  0  0  0  0  0  0  0
    2.0436   -5.0004   -3.6826 H   0  0  0  0  0  0  0  0  0  0  0  0
    0.3166   -6.8153   -3.3129 H   0  0  0  0  0  0  0  0  0  0  0  0
   -1.0587   -5.7553   -2.9553 H   0  0  0  0  0  0  0  0  0  0  0  0
   -0.4761   -6.9028   -1.7192 H   0  0  0  0  0  0  0  0  0  0  0  0
    2.5063   -6.5511   -2.0392 H   0  0  0  0  0  0  0  0  0  0  0  0
    1.6781   -6.4923   -0.4666 H   0  0  0  0  0  0  0  0  0  0  0  0
    2.7729   -5.1762   -0.9447 H   0  0  0  0  0  0  0  0  0  0  0  0
   -0.7964   -3.8151   -1.2480 H   0  0  0  0  0  0  0  0  0  0  0  0
    0.7577   -3.6014   -0.3998 H   0  0  0  0  0  0  0  0  0  0  0  0
   -0.2517   -5.0188   -0.0680 H   0  0  0  0  0  0  0  0  0  0  0  0
    6.8230   -1.7476   -0.6652 H   0  0  0  0  0  0  0  0  0  0  0  0
    6.4432   -0.0165   -0.4048 H   0  0  0  0  0  0  0  0  0  0  0  0
    8.7294   -1.1680   -2.1052 H   0  0  0  0  0  0  0  0  0  0  0  0
    8.8741   -0.1807   -0.6183 H   0  0  0  0  0  0  0  0  0  0  0  0
    6.4760   -1.3718   -5.3873 H   0  0  0  0  0  0  0  0  0  0  0  0
  1  2  1  0
  1 28  1  0
  1 29  1  0
  1 30  1  0
  2  3  1  0
  2 27  1  0
  3  4  2  0
  3 31  1  0
  4  5  1  0
  4 26  1  0
  5  6  1  6
  5  7  1  0
  5 25  1  0
  6 32  1  0
  6 33  1  0
  6 34  1  0
  7  8  1  0
  7 35  1  0
  7 36  1  0
  8  9  1  0
  8 23  1  0
  9 10  2  0
  9 11  1  0
 11 12  1  0
 11 37  1  0
 12 13  1  0
 12 38  1  0
 12 39  1  0
 13 14  1  0
 13 18  1  0
 13 40  1  1
 14 15  1  0
 14 41  1  0
 14 42  1  0
 15 16  1  0
 15 43  1  0
 15 44  1  0
 16 17  1  0
 16 45  1  0
 16 46  1  0
 17 18  1  0
 18 19  1  0
 18 47  1  6
 19 20  1  6
 19 21  1  0
 19 22  1  0
 20 48  1  0
 20 49  1  0
 20 50  1  0
 21 51  1  0
 21 52  1  0
 21 53  1  0
 22 54  1  0
 22 55  1  0
 22 56  1  0
 23 24  1  0
 23 57  1  0
 23 58  1  0
 24 25  1  0
 24 59  1  0
 24 60  1  0
 26 27  2  0
 26 61  1  0
M  END

