
     RDKit          3D

 38 41  0  0  0  0  0  0  0  0999 V2000
    2.5824   -0.1118   -1.4251 O   0  0  0  0  0  0  0  0  0  0  0  0
    2.7640   -0.3551   -0.2420 N   0  0  0  0  0  0  0  0  0  0  0  0
    2.4920   -1.4152    0.3005 O   0  0  0  0  0  0  0  0  0  0  0  0
    3.3515    0.7080    0.5917 C   0  0  0  0  0  0  0  0  0  0  0  0
    3.6892    1.9288    0.0033 C   0  0  0  0  0  0  0  0  0  0  0  0
    4.2455    2.9281    0.7960 C   0  0  0  0  0  0  0  0  0  0  0  0
    4.4649    2.7312    2.1770 C   0  0  0  0  0  0  0  0  0  0  0  0
    5.0603    3.7848    3.0151 C   0  0  0  0  0  0  0  0  0  0  0  0
    4.7663    5.1489    2.9908 C   0  0  0  0  0  0  0  0  0  0  0  0
    3.7091    5.8754    2.2570 C   0  0  0  0  0  0  0  0  0  0  0  0
    2.3875    5.3834    2.3079 C   0  0  0  0  0  0  0  0  0  0  0  0
    1.3385    6.0241    1.6520 C   0  0  0  0  0  0  0  0  0  0  0  0
    1.5827    7.1928    0.9256 C   0  0  0  0  0  0  0  0  0  0  0  0
    2.8777    7.7087    0.8562 C   0  0  0  0  0  0  0  0  0  0  0  0
    3.9250    7.0541    1.5116 C   0  0  0  0  0  0  0  0  0  0  0  0
    5.6790    7.8006    1.3111 Br  0  0  0  0  0  0  0  0  0  0  0  0
    5.5747    5.7943    3.9042 N   0  0  0  0  0  0  0  0  0  0  0  0
    5.5623    6.7926    4.0666 H   0  0  0  0  0  0  0  0  0  0  0  0
    6.4030    4.8935    4.5301 C   0  0  0  0  0  0  0  0  0  0  0  0
    7.3914    5.0975    5.5036 C   0  0  0  0  0  0  0  0  0  0  0  0
    8.0993    3.9838    5.9439 C   0  0  0  0  0  0  0  0  0  0  0  0
    7.8373    2.6987    5.4193 C   0  0  0  0  0  0  0  0  0  0  0  0
    6.8566    2.5009    4.4531 C   0  0  0  0  0  0  0  0  0  0  0  0
    6.1074    3.6063    4.0001 C   0  0  0  0  0  0  0  0  0  0  0  0
    4.1131    1.4821    2.7338 C   0  0  0  0  0  0  0  0  0  0  0  0
    3.5598    0.4715    1.9515 C   0  0  0  0  0  0  0  0  0  0  0  0
    3.5214    2.0700   -1.0641 H   0  0  0  0  0  0  0  0  0  0  0  0
    4.5359    3.8753    0.3385 H   0  0  0  0  0  0  0  0  0  0  0  0
    2.1950    4.4809    2.8907 H   0  0  0  0  0  0  0  0  0  0  0  0
    0.3280    5.6143    1.7150 H   0  0  0  0  0  0  0  0  0  0  0  0
    0.7680    7.7075    0.4106 H   0  0  0  0  0  0  0  0  0  0  0  0
    3.0841    8.6157    0.2860 H   0  0  0  0  0  0  0  0  0  0  0  0
    7.6016    6.0947    5.8977 H   0  0  0  0  0  0  0  0  0  0  0  0
    8.8764    4.1064    6.7024 H   0  0  0  0  0  0  0  0  0  0  0  0
    8.4205    1.8470    5.7776 H   0  0  0  0  0  0  0  0  0  0  0  0
    6.6781    1.5032    4.0472 H   0  0  0  0  0  0  0  0  0  0  0  0
    4.2552    1.3130    3.8027 H   0  0  0  0  0  0  0  0  0  0  0  0
    3.2776   -0.4926    2.3739 H   0  0  0  0  0  0  0  0  0  0  0  0
  1  2  2  0
  2  3  1  0
  2  4  1  0
  4  5  2  0
  4 26  1  0
  5  6  1  0
  5 27  1  0
  6  7  2  0
  6 28  1  0
  7  8  1  0
  7 25  1  0
  8  9  2  0
  8 24  1  0
  9 10  1  0
  9 17  1  0
 10 11  2  0
 10 15  1  0
 11 12  1  0
 11 29  1  0
 12 13  2  0
 12 30  1  0
 13 14  1  0
 13 31  1  0
 14 15  2  0
 14 32  1  0
 15 16  1  0
 17 18  1  0
 17 19  1  0
 19 20  2  0
 19 24  1  0
 20 21  1  0
 20 33  1  0
 21 22  2  0
 21 34  1  0
 22 23  1  0
 22 35  1  0
 23 24  2  0
 23 36  1  0
 25 26  2  0
 25 37  1  0
 26 38  1  0
M  CHG  2   2   1   3  -1
M  END

