
     RDKit          3D

 55 58  0  0  0  0  0  0  0  0999 V2000
    0.7708   -0.2407    0.2886 O   0  0  0  0  0  0  0  0  0  0  0  0
    1.9636    0.0286    0.3127 C   0  0  0  0  0  0  0  0  0  0  0  0
    2.5253    0.7178    1.5383 C   0  0  0  0  0  0  0  0  0  0  0  0
    1.8402    1.8361    2.0421 C   0  0  0  0  0  0  0  0  0  0  0  0
    2.2397    2.4581    3.2250 C   0  0  0  0  0  0  0  0  0  0  0  0
    3.3217    1.9470    3.9506 C   0  0  0  0  0  0  0  0  0  0  0  0
    3.9994    0.8167    3.4901 C   0  0  0  0  0  0  0  0  0  0  0  0
    3.5907    0.2228    2.2980 C   0  0  0  0  0  0  0  0  0  0  0  0
    4.2514   -0.8722    1.8758 F   0  0  0  0  0  0  0  0  0  0  0  0
    2.8062   -0.2603   -0.7297 N   0  0  0  0  0  0  0  0  0  0  0  0
    4.1551    0.2573   -0.9187 C   0  0  0  0  0  0  0  0  0  0  0  0
    5.1389   -0.8561   -1.2967 C   0  0  0  0  0  0  0  0  0  0  0  0
    4.6734   -1.6917   -2.5162 C   0  0  1  0  0  0  0  0  0  0  0  0
    3.2235   -2.1399   -2.2606 C   0  0  0  0  0  0  0  0  0  0  0  0
    2.2824   -0.9961   -1.8784 C   0  0  0  0  0  0  0  0  0  0  0  0
    4.7983   -0.9358   -3.8575 C   0  0  0  0  0  0  0  0  0  0  0  0
    6.2478   -0.7557   -4.3608 C   0  0  2  0  0  0  0  0  0  0  0  0
    6.2364   -0.1042   -5.6807 N   0  0  0  0  0  0  0  0  0  0  0  0
    5.9122    1.3232   -5.6522 C   0  0  0  0  0  0  0  0  0  0  0  0
    7.1044    2.2272   -5.2844 C   0  0  0  0  0  0  0  0  0  0  0  0
    8.2946    1.9658   -6.2170 C   0  0  0  0  0  0  0  0  0  0  0  0
    8.6198    0.4670   -6.2764 C   0  0  0  0  0  0  0  0  0  0  0  0
    7.3511   -0.3439   -6.5963 C   0  0  0  0  0  0  0  0  0  0  0  0
    6.9086   -2.1393   -4.3635 C   0  0  0  0  0  0  0  0  0  0  0  0
    6.7590   -2.8035   -2.9954 C   0  0  0  0  0  0  0  0  0  0  0  0
    5.4115   -2.9162   -2.5902 O   0  0  0  0  0  0  0  0  0  0  0  0
    0.9754    2.2031    1.4855 H   0  0  0  0  0  0  0  0  0  0  0  0
    1.6992    3.3346    3.5892 H   0  0  0  0  0  0  0  0  0  0  0  0
    3.6347    2.4219    4.8836 H   0  0  0  0  0  0  0  0  0  0  0  0
    4.8352    0.3785    4.0390 H   0  0  0  0  0  0  0  0  0  0  0  0
    4.4915    0.7672   -0.0092 H   0  0  0  0  0  0  0  0  0  0  0  0
    4.1313    1.0273   -1.7153 H   0  0  0  0  0  0  0  0  0  0  0  0
    5.2411   -1.5445   -0.4438 H   0  0  0  0  0  0  0  0  0  0  0  0
    6.1269   -0.4028   -1.4728 H   0  0  0  0  0  0  0  0  0  0  0  0
    3.2514   -2.8770   -1.4422 H   0  0  0  0  0  0  0  0  0  0  0  0
    2.8420   -2.6612   -3.1528 H   0  0  0  0  0  0  0  0  0  0  0  0
    1.2888   -1.3717   -1.6065 H   0  0  0  0  0  0  0  0  0  0  0  0
    2.1434   -0.3006   -2.7285 H   0  0  0  0  0  0  0  0  0  0  0  0
    4.2959    0.0397   -3.7807 H   0  0  0  0  0  0  0  0  0  0  0  0
    4.2588   -1.5036   -4.6328 H   0  0  0  0  0  0  0  0  0  0  0  0
    6.8034   -0.1389   -3.6189 H   0  0  0  0  0  0  0  0  0  0  0  0
    5.0727    1.5001   -4.9636 H   0  0  0  0  0  0  0  0  0  0  0  0
    5.5476    1.6087   -6.6570 H   0  0  0  0  0  0  0  0  0  0  0  0
    7.4059    2.0373   -4.2383 H   0  0  0  0  0  0  0  0  0  0  0  0
    6.7966    3.2860   -5.3303 H   0  0  0  0  0  0  0  0  0  0  0  0
    9.1760    2.5489   -5.9011 H   0  0  0  0  0  0  0  0  0  0  0  0
    8.0386    2.3167   -7.2345 H   0  0  0  0  0  0  0  0  0  0  0  0
    9.0379    0.1375   -5.3076 H   0  0  0  0  0  0  0  0  0  0  0  0
    9.3946    0.2663   -7.0366 H   0  0  0  0  0  0  0  0  0  0  0  0
    7.5740   -1.4179   -6.6486 H   0  0  0  0  0  0  0  0  0  0  0  0
    7.0044   -0.0603   -7.6084 H   0  0  0  0  0  0  0  0  0  0  0  0
    7.9816   -2.0789   -4.6052 H   0  0  0  0  0  0  0  0  0  0  0  0
    6.4280   -2.7721   -5.1294 H   0  0  0  0  0  0  0  0  0  0  0  0
    7.3566   -2.2504   -2.2423 H   0  0  0  0  0  0  0  0  0  0  0  0
    7.1530   -3.8312   -3.0237 H   0  0  0  0  0  0  0  0  0  0  0  0
  1  2  2  0
  2  3  1  0
  2 10  1  0
  3  4  2  0
  3  8  1  0
  4  5  1  0
  4 27  1  0
  5  6  2  0
  5 28  1  0
  6  7  1  0
  6 29  1  0
  7  8  2  0
  7 30  1  0
  8  9  1  0
 10 11  1  0
 10 15  1  0
 11 12  1  0
 11 31  1  0
 11 32  1  0
 12 13  1  0
 12 33  1  0
 12 34  1  0
 13 14  1  0
 13 16  1  0
 13 26  1  6
 14 15  1  0
 14 35  1  0
 14 36  1  0
 15 37  1  0
 15 38  1  0
 16 17  1  0
 16 39  1  0
 16 40  1  0
 17 18  1  0
 17 24  1  0
 17 41  1  1
 18 19  1  0
 18 23  1  0
 19 20  1  0
 19 42  1  0
 19 43  1  0
 20 21  1  0
 20 44  1  0
 20 45  1  0
 21 22  1  0
 21 46  1  0
 21 47  1  0
 22 23  1  0
 22 48  1  0
 22 49  1  0
 23 50  1  0
 23 51  1  0
 24 25  1  0
 24 52  1  0
 24 53  1  0
 25 26  1  0
 25 54  1  0
 25 55  1  0
M  END

