
     RDKit          3D

 54 56  0  0  0  0  0  0  0  0999 V2000
    4.4143   -0.8693    6.2793 C   0  0  0  0  0  0  0  0  0  0  0  0
    4.4309   -0.3444    4.9792 O   0  0  0  0  0  0  0  0  0  0  0  0
    4.2022   -1.2991    3.9697 C   0  0  0  0  0  0  0  0  0  0  0  0
    4.0633   -0.5767    2.6071 C   0  0  1  0  0  0  0  0  0  0  0  0
    4.9152    0.7397    2.5618 C   0  0  0  0  0  0  0  0  0  0  0  0
    4.3481    1.7984    2.3364 O   0  0  0  0  0  0  0  0  0  0  0  0
    6.2903    0.7051    2.6871 N   0  0  0  0  0  0  0  0  0  0  0  0
    7.1148   -0.3983    3.1655 C   0  0  0  0  0  0  0  0  0  0  0  0
    8.4025   -0.5404    2.3426 C   0  0  0  0  0  0  0  0  0  0  0  0
    9.2169    0.7634    2.2575 C   0  0  2  0  0  0  0  0  0  0  0  0
    9.9753    1.1123    3.5644 C   0  0  0  0  0  0  0  0  0  0  0  0
   11.0315    0.1048    3.9665 C   0  0  0  0  0  0  0  0  0  0  0  0
   12.2475    0.0243    3.2657 C   0  0  0  0  0  0  0  0  0  0  0  0
   13.2226   -0.9121    3.6169 C   0  0  0  0  0  0  0  0  0  0  0  0
   13.0021   -1.7909    4.6827 C   0  0  0  0  0  0  0  0  0  0  0  0
   11.8010   -1.7211    5.3928 C   0  0  0  0  0  0  0  0  0  0  0  0
   10.8279   -0.7816    5.0362 C   0  0  0  0  0  0  0  0  0  0  0  0
    8.2757    1.8991    1.8118 C   0  0  0  0  0  0  0  0  0  0  0  0
    7.0018    1.9866    2.6560 C   0  0  0  0  0  0  0  0  0  0  0  0
    4.4485   -1.4977    1.4160 C   0  0  0  0  0  0  0  0  0  0  0  0
    3.4459   -2.6343    1.1898 C   0  0  0  0  0  0  0  0  0  0  0  0
    2.1163   -2.0871    0.9822 N   0  0  0  0  0  0  0  0  0  0  0  0
    1.6430   -1.3314    2.1338 C   0  0  0  0  0  0  0  0  0  0  0  0
    2.5791   -0.1544    2.4171 C   0  0  0  0  0  0  0  0  0  0  0  0
    4.5955   -0.0406    6.9792 H   0  0  0  0  0  0  0  0  0  0  0  0
    5.2017   -1.6367    6.4286 H   0  0  0  0  0  0  0  0  0  0  0  0
    3.4379   -1.3334    6.5259 H   0  0  0  0  0  0  0  0  0  0  0  0
    3.2750   -1.8627    4.1901 H   0  0  0  0  0  0  0  0  0  0  0  0
    5.0136   -2.0551    3.9610 H   0  0  0  0  0  0  0  0  0  0  0  0
    6.5602   -1.3368    3.1128 H   0  0  0  0  0  0  0  0  0  0  0  0
    7.3532   -0.2377    4.2352 H   0  0  0  0  0  0  0  0  0  0  0  0
    8.1243   -0.8486    1.3200 H   0  0  0  0  0  0  0  0  0  0  0  0
    9.0129   -1.3543    2.7663 H   0  0  0  0  0  0  0  0  0  0  0  0
    9.9845    0.6292    1.4755 H   0  0  0  0  0  0  0  0  0  0  0  0
    9.2650    1.2421    4.3963 H   0  0  0  0  0  0  0  0  0  0  0  0
   10.4551    2.0956    3.4183 H   0  0  0  0  0  0  0  0  0  0  0  0
   12.4364    0.7124    2.4360 H   0  0  0  0  0  0  0  0  0  0  0  0
   14.1623   -0.9528    3.0596 H   0  0  0  0  0  0  0  0  0  0  0  0
   13.7654   -2.5223    4.9606 H   0  0  0  0  0  0  0  0  0  0  0  0
   11.6200   -2.3984    6.2317 H   0  0  0  0  0  0  0  0  0  0  0  0
    9.8941   -0.7304    5.6039 H   0  0  0  0  0  0  0  0  0  0  0  0
    7.9847    1.7299    0.7609 H   0  0  0  0  0  0  0  0  0  0  0  0
    8.7985    2.8702    1.8450 H   0  0  0  0  0  0  0  0  0  0  0  0
    6.3108    2.7366    2.2563 H   0  0  0  0  0  0  0  0  0  0  0  0
    7.2429    2.2918    3.6935 H   0  0  0  0  0  0  0  0  0  0  0  0
    5.4554   -1.9241    1.5445 H   0  0  0  0  0  0  0  0  0  0  0  0
    4.4722   -0.8813    0.5027 H   0  0  0  0  0  0  0  0  0  0  0  0
    3.4955   -3.3489    2.0465 H   0  0  0  0  0  0  0  0  0  0  0  0
    3.7440   -3.2042    0.2941 H   0  0  0  0  0  0  0  0  0  0  0  0
    1.4571   -2.8216    0.7336 H   0  0  0  0  0  0  0  0  0  0  0  0
    1.5331   -1.9685    3.0432 H   0  0  0  0  0  0  0  0  0  0  0  0
    0.6368   -0.9387    1.9133 H   0  0  0  0  0  0  0  0  0  0  0  0
    2.2464    0.3980    3.3092 H   0  0  0  0  0  0  0  0  0  0  0  0
    2.5249    0.5493    1.5771 H   0  0  0  0  0  0  0  0  0  0  0  0
  1  2  1  0
  1 25  1  0
  1 26  1  0
  1 27  1  0
  2  3  1  0
  3  4  1  0
  3 28  1  0
  3 29  1  0
  4  5  1  1
  4 20  1  0
  4 24  1  0
  5  6  2  0
  5  7  1  0
  7  8  1  0
  7 19  1  0
  8  9  1  0
  8 30  1  0
  8 31  1  0
  9 10  1  0
  9 32  1  0
  9 33  1  0
 10 11  1  0
 10 18  1  0
 10 34  1  6
 11 12  1  0
 11 35  1  0
 11 36  1  0
 12 13  2  0
 12 17  1  0
 13 14  1  0
 13 37  1  0
 14 15  2  0
 14 38  1  0
 15 16  1  0
 15 39  1  0
 16 17  2  0
 16 40  1  0
 17 41  1  0
 18 19  1  0
 18 42  1  0
 18 43  1  0
 19 44  1  0
 19 45  1  0
 20 21  1  0
 20 46  1  0
 20 47  1  0
 21 22  1  0
 21 48  1  0
 21 49  1  0
 22 23  1  0
 22 50  1  0
 23 24  1  0
 23 51  1  0
 23 52  1  0
 24 53  1  0
 24 54  1  0
M  END

