
     RDKit          3D

 48 49  0  0  0  0  0  0  0  0999 V2000
    3.1638   -0.1982    1.8340 C   0  0  0  0  0  0  0  0  0  0  0  0
    2.6909   -0.4104    0.3894 C   0  0  1  0  0  0  0  0  0  0  0  0
    1.1901   -0.7314    0.3544 C   0  0  0  0  0  0  0  0  0  0  0  0
    2.9930    0.7897   -0.5298 C   0  0  0  0  0  0  0  0  0  0  0  0
    4.4712    1.2168   -0.6627 C   0  0  1  0  0  0  0  0  0  0  0  0
    5.4013    0.1219   -1.2266 C   0  0  0  0  0  0  0  0  0  0  0  0
    5.2380   -0.0715   -2.7382 C   0  0  0  0  0  0  0  0  0  0  0  0
    5.4904    1.2414   -3.4870 C   0  0  0  0  0  0  0  0  0  0  0  0
    4.5626    2.3830   -3.0160 C   0  0  2  0  0  0  0  0  0  0  0  0
    3.1998    2.0578   -3.3267 O   0  0  0  0  0  0  0  0  0  0  0  0
    4.9514    3.7393   -3.6613 C   0  0  0  0  0  0  0  0  0  0  0  0
    4.6246    3.8917   -5.1674 C   0  0  1  0  0  0  0  0  0  0  0  0
    3.2181    4.4887   -5.4189 C   0  0  0  0  0  0  0  0  0  0  0  0
    3.1861    5.9989   -5.1740 C   0  0  0  0  0  0  0  0  0  0  0  0
    4.1696    6.6831   -5.9265 O   0  0  0  0  0  0  0  0  0  0  0  0
    5.4800    6.2473   -5.6239 C   0  0  0  0  0  0  0  0  0  0  0  0
    5.6571    4.7578   -5.9226 C   0  0  0  0  0  0  0  0  0  0  0  0
    4.6411    2.5182   -1.4815 C   0  0  0  0  0  0  0  0  0  0  0  0
    2.8960   -1.0585    2.4692 H   0  0  0  0  0  0  0  0  0  0  0  0
    2.6927    0.6981    2.2746 H   0  0  0  0  0  0  0  0  0  0  0  0
    4.2551   -0.0681    1.9037 H   0  0  0  0  0  0  0  0  0  0  0  0
    3.2206   -1.2956   -0.0098 H   0  0  0  0  0  0  0  0  0  0  0  0
    0.5970    0.1106    0.7518 H   0  0  0  0  0  0  0  0  0  0  0  0
    0.9528   -1.6206    0.9612 H   0  0  0  0  0  0  0  0  0  0  0  0
    0.8434   -0.9224   -0.6742 H   0  0  0  0  0  0  0  0  0  0  0  0
    2.4262    1.6611   -0.1511 H   0  0  0  0  0  0  0  0  0  0  0  0
    2.5767    0.5924   -1.5288 H   0  0  0  0  0  0  0  0  0  0  0  0
    4.8289    1.4539    0.3544 H   0  0  0  0  0  0  0  0  0  0  0  0
    5.2445   -0.8318   -0.6976 H   0  0  0  0  0  0  0  0  0  0  0  0
    6.4487    0.4119   -1.0224 H   0  0  0  0  0  0  0  0  0  0  0  0
    4.2223   -0.4353   -2.9664 H   0  0  0  0  0  0  0  0  0  0  0  0
    5.9348   -0.8461   -3.1000 H   0  0  0  0  0  0  0  0  0  0  0  0
    5.3752    1.0932   -4.5759 H   0  0  0  0  0  0  0  0  0  0  0  0
    6.5380    1.5542   -3.3312 H   0  0  0  0  0  0  0  0  0  0  0  0
    3.1527    1.8095   -4.2596 H   0  0  0  0  0  0  0  0  0  0  0  0
    6.0326    3.8870   -3.4995 H   0  0  0  0  0  0  0  0  0  0  0  0
    4.4506    4.5363   -3.0877 H   0  0  0  0  0  0  0  0  0  0  0  0
    4.6564    2.8881   -5.6282 H   0  0  0  0  0  0  0  0  0  0  0  0
    2.4718    3.9967   -4.7760 H   0  0  0  0  0  0  0  0  0  0  0  0
    2.9297    4.3048   -6.4685 H   0  0  0  0  0  0  0  0  0  0  0  0
    3.3173    6.2190   -4.0932 H   0  0  0  0  0  0  0  0  0  0  0  0
    2.2134    6.4189   -5.4736 H   0  0  0  0  0  0  0  0  0  0  0  0
    5.7184    6.4604   -4.5596 H   0  0  0  0  0  0  0  0  0  0  0  0
    6.1629    6.8537   -6.2391 H   0  0  0  0  0  0  0  0  0  0  0  0
    6.6862    4.4435   -5.6775 H   0  0  0  0  0  0  0  0  0  0  0  0
    5.5244    4.6119   -7.0086 H   0  0  0  0  0  0  0  0  0  0  0  0
    3.8900    3.2615   -1.1660 H   0  0  0  0  0  0  0  0  0  0  0  0
    5.6287    2.9523   -1.2478 H   0  0  0  0  0  0  0  0  0  0  0  0
  1  2  1  0
  1 19  1  0
  1 20  1  0
  1 21  1  0
  2  3  1  0
  2  4  1  0
  2 22  1  6
  3 23  1  0
  3 24  1  0
  3 25  1  0
  4  5  1  0
  4 26  1  0
  4 27  1  0
  5  6  1  0
  5 18  1  0
  5 28  1  1
  6  7  1  0
  6 29  1  0
  6 30  1  0
  7  8  1  0
  7 31  1  0
  7 32  1  0
  8  9  1  0
  8 33  1  0
  8 34  1  0
  9 10  1  1
  9 11  1  0
  9 18  1  0
 10 35  1  0
 11 12  1  0
 11 36  1  0
 11 37  1  0
 12 13  1  0
 12 17  1  0
 12 38  1  6
 13 14  1  0
 13 39  1  0
 13 40  1  0
 14 15  1  0
 14 41  1  0
 14 42  1  0
 15 16  1  0
 16 17  1  0
 16 43  1  0
 16 44  1  0
 17 45  1  0
 17 46  1  0
 18 47  1  0
 18 48  1  0
M  END

