
     RDKit          3D

 60 61  0  0  0  0  0  0  0  0999 V2000
    1.0770   -0.8866    2.8581 C   0  0  0  0  0  0  0  0  0  0  0  0
    2.4273   -0.8874    2.4843 O   0  0  0  0  0  0  0  0  0  0  0  0
    2.7089   -0.0508    1.3917 C   0  0  0  0  0  0  0  0  0  0  0  0
    4.2117   -0.1225    1.0989 C   0  0  1  0  0  0  0  0  0  0  0  0
    4.6801   -1.4449    0.8905 O   0  0  0  0  0  0  0  0  0  0  0  0
    4.3020   -2.0477   -0.3267 C   0  0  2  0  0  0  0  0  0  0  0  0
    3.1940   -2.0177   -0.4299 H   0  0  0  0  0  0  0  0  0  0  0  0
    4.7378   -3.3614   -0.3266 O   0  0  0  0  0  0  0  0  0  0  0  0
    4.1078   -4.1820    0.6402 C   0  0  0  0  0  0  0  0  0  0  0  0
    4.8912   -1.2808   -1.5216 C   0  0  2  0  0  0  0  0  0  0  0  0
    6.2918   -1.2639   -1.5830 O   0  0  0  0  0  0  0  0  0  0  0  0
    6.9217   -2.4071   -2.1212 C   0  0  0  0  0  0  0  0  0  0  0  0
    4.4150    0.1866   -1.4380 C   0  0  1  0  0  0  0  0  0  0  0  0
    4.9980    0.7609   -2.1801 H   0  0  0  0  0  0  0  0  0  0  0  0
    3.0219    0.2878   -1.6896 O   0  0  0  0  0  0  0  0  0  0  0  0
    4.6503    0.8118   -0.0444 C   0  0  2  0  0  0  0  0  0  0  0  0
    4.0622    1.7452    0.0011 H   0  0  0  0  0  0  0  0  0  0  0  0
    6.0267    1.0955    0.1551 O   0  0  0  0  0  0  0  0  0  0  0  0
    6.5063    2.2906   -0.4001 C   0  0  1  0  0  0  0  0  0  0  0  0
    6.0942    2.4745   -1.4058 H   0  0  0  0  0  0  0  0  0  0  0  0
    6.1135    3.4118    0.3536 O   0  0  0  0  0  0  0  0  0  0  0  0
    6.6681    3.5253    1.6640 C   0  0  2  0  0  0  0  0  0  0  0  0
    6.0906    4.8257    2.2268 C   0  0  0  0  0  0  0  0  0  0  0  0
    6.5919    6.0318    1.5627 N   0  0  0  0  0  0  0  0  0  0  0  0
    6.1325    6.3254    0.4617 N   0  0  0  0  0  0  0  0  0  0  0  0
    5.7814    6.7323   -0.5403 N   0  0  0  0  0  0  0  0  0  0  0  0
    8.2079    3.4517    1.6448 C   0  0  1  0  0  0  0  0  0  0  0  0
    8.5735    4.3002    1.0455 H   0  0  0  0  0  0  0  0  0  0  0  0
    8.8116    3.5291    3.0492 C   0  0  0  0  0  0  0  0  0  0  0  0
    8.6333    2.1688    0.9021 C   0  0  2  0  0  0  0  0  0  0  0  0
    8.2122    1.2906    1.4292 H   0  0  0  0  0  0  0  0  0  0  0  0
   10.0420    2.0433    0.7858 O   0  0  0  0  0  0  0  0  0  0  0  0
    8.0306    2.1627   -0.5076 C   0  0  2  0  0  0  0  0  0  0  0  0
    8.4714    3.2438   -1.2999 O   0  0  0  0  0  0  0  0  0  0  0  0
    9.6418    3.0254   -2.0581 C   0  0  0  0  0  0  0  0  0  0  0  0
    0.9604   -1.5778    3.7060 H   0  0  0  0  0  0  0  0  0  0  0  0
    0.4155   -1.2244    2.0338 H   0  0  0  0  0  0  0  0  0  0  0  0
    0.7309    0.1193    3.1746 H   0  0  0  0  0  0  0  0  0  0  0  0
    2.4556    1.0059    1.6237 H   0  0  0  0  0  0  0  0  0  0  0  0
    2.1055   -0.3266    0.5069 H   0  0  0  0  0  0  0  0  0  0  0  0
    4.7343    0.2124    2.0075 H   0  0  0  0  0  0  0  0  0  0  0  0
    4.5585   -5.1811    0.5628 H   0  0  0  0  0  0  0  0  0  0  0  0
    3.0203   -4.2623    0.4452 H   0  0  0  0  0  0  0  0  0  0  0  0
    4.2509   -3.7867    1.6581 H   0  0  0  0  0  0  0  0  0  0  0  0
    4.4710   -1.7306   -2.4489 H   0  0  0  0  0  0  0  0  0  0  0  0
    7.9798   -2.1475   -2.2738 H   0  0  0  0  0  0  0  0  0  0  0  0
    6.4837   -2.6846   -3.1015 H   0  0  0  0  0  0  0  0  0  0  0  0
    6.8497   -3.2769   -1.4510 H   0  0  0  0  0  0  0  0  0  0  0  0
    2.8462   -0.0065   -2.5927 H   0  0  0  0  0  0  0  0  0  0  0  0
    6.2840    2.6992    2.2970 H   0  0  0  0  0  0  0  0  0  0  0  0
    6.3563    4.9239    3.2875 H   0  0  0  0  0  0  0  0  0  0  0  0
    4.9896    4.7683    2.1599 H   0  0  0  0  0  0  0  0  0  0  0  0
    8.4213    2.7322    3.7069 H   0  0  0  0  0  0  0  0  0  0  0  0
    8.6103    4.4975    3.5308 H   0  0  0  0  0  0  0  0  0  0  0  0
    9.9065    3.4259    3.0004 H   0  0  0  0  0  0  0  0  0  0  0  0
   10.3966    1.7501    1.6331 H   0  0  0  0  0  0  0  0  0  0  0  0
    8.2511    1.1965   -0.9962 H   0  0  0  0  0  0  0  0  0  0  0  0
    9.7742    3.9053   -2.7054 H   0  0  0  0  0  0  0  0  0  0  0  0
    9.5446    2.1286   -2.7021 H   0  0  0  0  0  0  0  0  0  0  0  0
   10.5326    2.9017   -1.4219 H   0  0  0  0  0  0  0  0  0  0  0  0
  1  2  1  0
  1 36  1  0
  1 37  1  0
  1 38  1  0
  2  3  1  0
  3  4  1  0
  3 39  1  0
  3 40  1  0
  4  5  1  0
  4 16  1  0
  4 41  1  1
  5  6  1  0
  6  7  1  6
  6  8  1  0
  6 10  1  0
  8  9  1  0
  9 42  1  0
  9 43  1  0
  9 44  1  0
 10 11  1  0
 10 13  1  0
 10 45  1  6
 11 12  1  0
 12 46  1  0
 12 47  1  0
 12 48  1  0
 13 14  1  6
 13 15  1  0
 13 16  1  0
 15 49  1  0
 16 17  1  6
 16 18  1  0
 18 19  1  0
 19 20  1  6
 19 21  1  0
 19 33  1  0
 21 22  1  0
 22 23  1  0
 22 27  1  0
 22 50  1  1
 23 24  1  0
 23 51  1  0
 23 52  1  0
 24 25  1  0
 25 26  3  0
 27 28  1  6
 27 29  1  0
 27 30  1  0
 29 53  1  0
 29 54  1  0
 29 55  1  0
 30 31  1  1
 30 32  1  0
 30 33  1  0
 32 56  1  0
 33 34  1  0
 33 57  1  6
 34 35  1  0
 35 58  1  0
 35 59  1  0
 35 60  1  0
M  CHG  2  24  -1  25   1
M  END

