
     RDKit          3D

 45 48  0  0  0  0  0  0  0  0999 V2000
    1.5366   -0.5751    1.4294 C   0  0  0  0  0  0  0  0  0  0  0  0
    1.5808    0.6041    0.4645 C   0  0  1  0  0  0  0  0  0  0  0  0
    3.1712    1.5369    0.7408 S   0  0  0  0  0  0  0  0  0  0  0  0
    2.6547    3.2058    0.4945 C   0  0  0  0  0  0  0  0  0  0  0  0
    1.5540    3.5887   -0.2186 N   0  0  0  0  0  0  0  0  0  0  0  0
    1.5783    4.9160   -0.1614 C   0  0  0  0  0  0  0  0  0  0  0  0
    0.5979    5.8288   -0.7838 C   0  0  1  0  0  0  0  0  0  0  0  0
   -0.4853    5.2721   -1.6765 C   0  0  0  0  0  0  0  0  0  0  0  0
   -0.8562    5.8028   -0.3260 C   0  0  0  0  0  0  0  0  0  0  0  0
    2.6664    5.3053    0.5630 N   0  0  0  0  0  0  0  0  0  0  0  0
    3.1436    6.6083    0.8883 C   0  0  0  0  0  0  0  0  0  0  0  0
    2.2582    7.6158    1.2919 C   0  0  0  0  0  0  0  0  0  0  0  0
    2.7553    8.8852    1.6005 C   0  0  0  0  0  0  0  0  0  0  0  0
    4.1264    9.1442    1.5281 C   0  0  0  0  0  0  0  0  0  0  0  0
    5.0061    8.1246    1.1477 C   0  0  0  0  0  0  0  0  0  0  0  0
    4.5214    6.8570    0.8249 C   0  0  0  0  0  0  0  0  0  0  0  0
    3.3615    4.2089    0.9797 N   0  0  0  0  0  0  0  0  0  0  0  0
    1.4846    0.1282   -1.0021 C   0  0  0  0  0  0  0  0  0  0  0  0
    1.6878   -1.0238   -1.3079 O   0  0  0  0  0  0  0  0  0  0  0  0
    1.1525    1.1503   -1.8750 N   0  0  0  0  0  0  0  0  0  0  0  0
    1.0130    1.0850   -3.2645 C   0  0  0  0  0  0  0  0  0  0  0  0
    1.1803    2.2731   -4.0115 C   0  0  0  0  0  0  0  0  0  0  0  0
    1.0128    2.2273   -5.3900 C   0  0  0  0  0  0  0  0  0  0  0  0
    0.6971    1.0005   -5.9830 C   0  0  0  0  0  0  0  0  0  0  0  0
    0.4805    0.8693   -7.7103 Cl  0  0  0  0  0  0  0  0  0  0  0  0
    0.5565   -0.1229   -5.1627 C   0  0  0  0  0  0  0  0  0  0  0  0
    0.7010   -0.0748   -3.8411 N   0  0  0  0  0  0  0  0  0  0  0  0
    1.6007   -0.2294    2.4708 H   0  0  0  0  0  0  0  0  0  0  0  0
    2.3581   -1.2770    1.2270 H   0  0  0  0  0  0  0  0  0  0  0  0
    0.5972   -1.1319    1.2917 H   0  0  0  0  0  0  0  0  0  0  0  0
    0.7736    1.3200    0.6759 H   0  0  0  0  0  0  0  0  0  0  0  0
    1.0024    6.8101   -1.0442 H   0  0  0  0  0  0  0  0  0  0  0  0
   -0.5067    4.1899   -1.8200 H   0  0  0  0  0  0  0  0  0  0  0  0
   -0.7507    5.8581   -2.5603 H   0  0  0  0  0  0  0  0  0  0  0  0
   -1.1188    5.0798    0.4509 H   0  0  0  0  0  0  0  0  0  0  0  0
   -1.3780    6.7615   -0.2567 H   0  0  0  0  0  0  0  0  0  0  0  0
    1.1928    7.4038    1.3882 H   0  0  0  0  0  0  0  0  0  0  0  0
    2.0640    9.6703    1.9162 H   0  0  0  0  0  0  0  0  0  0  0  0
    4.5109   10.1361    1.7768 H   0  0  0  0  0  0  0  0  0  0  0  0
    6.0804    8.3175    1.0986 H   0  0  0  0  0  0  0  0  0  0  0  0
    5.1936    6.0491    0.5340 H   0  0  0  0  0  0  0  0  0  0  0  0
    1.1503    2.0905   -1.4648 H   0  0  0  0  0  0  0  0  0  0  0  0
    1.4491    3.2071   -3.5136 H   0  0  0  0  0  0  0  0  0  0  0  0
    1.1345    3.1220   -6.0037 H   0  0  0  0  0  0  0  0  0  0  0  0
    0.3067   -1.0937   -5.6052 H   0  0  0  0  0  0  0  0  0  0  0  0
  1  2  1  0
  1 28  1  0
  1 29  1  0
  1 30  1  0
  2  3  1  0
  2 18  1  0
  2 31  1  1
  3  4  1  0
  4  5  1  0
  4 17  2  0
  5  6  2  0
  6  7  1  0
  6 10  1  0
  7  8  1  0
  7  9  1  0
  7 32  1  6
  8  9  1  0
  8 33  1  0
  8 34  1  0
  9 35  1  0
  9 36  1  0
 10 11  1  0
 10 17  1  0
 11 12  2  0
 11 16  1  0
 12 13  1  0
 12 37  1  0
 13 14  2  0
 13 38  1  0
 14 15  1  0
 14 39  1  0
 15 16  2  0
 15 40  1  0
 16 41  1  0
 18 19  2  0
 18 20  1  0
 20 21  1  0
 20 42  1  0
 21 22  2  0
 21 27  1  0
 22 23  1  0
 22 43  1  0
 23 24  2  0
 23 44  1  0
 24 25  1  0
 24 26  1  0
 26 27  2  0
 26 45  1  0
M  END

