
     RDKit          3D

 23 22  0  0  0  0  0  0  0  0999 V2000
    1.3160    0.6250    1.6204 C   0  0  0  0  0  0  0  0  0  0  0  0
    2.7072    0.5050    1.3121 O   0  0  0  0  0  0  0  0  0  0  0  0
    3.1457    1.1920    0.2481 C   0  0  0  0  0  0  0  0  0  0  0  0
    2.4311    1.8413   -0.4784 O   0  0  0  0  0  0  0  0  0  0  0  0
    4.6586    1.0552    0.0423 C   0  0  1  0  0  0  0  0  0  0  0  0
    5.0012    0.7828   -1.3474 N   0  0  0  0  0  0  0  0  0  0  0  0
    5.3665    2.3525    0.4668 C   0  0  0  0  0  0  0  0  0  0  0  0
    5.0899    2.7151    2.2477 S   0  0  0  0  0  0  0  0  0  0  0  0
    5.6954    4.4279    2.3379 C   0  0  0  0  0  0  0  0  0  0  0  0
    7.2042    4.5824    2.4178 C   0  0  1  0  0  0  0  0  0  0  0  0
    7.7217    3.9636    3.4856 F   0  0  0  0  0  0  0  0  0  0  0  0
    7.8201    4.0951    1.3247 F   0  0  0  0  0  0  0  0  0  0  0  0
    7.5273    5.8873    2.5082 F   0  0  0  0  0  0  0  0  0  0  0  0
    1.1376   -0.0227    2.4874 H   0  0  0  0  0  0  0  0  0  0  0  0
    0.6980    0.3062    0.7679 H   0  0  0  0  0  0  0  0  0  0  0  0
    1.0651    1.6679    1.8660 H   0  0  0  0  0  0  0  0  0  0  0  0
    5.0201    0.2269    0.6711 H   0  0  0  0  0  0  0  0  0  0  0  0
    4.4749    1.4215   -1.9479 H   0  0  0  0  0  0  0  0  0  0  0  0
    4.7053   -0.1585   -1.6062 H   0  0  0  0  0  0  0  0  0  0  0  0
    4.9661    3.1900   -0.1285 H   0  0  0  0  0  0  0  0  0  0  0  0
    6.4378    2.2474    0.2527 H   0  0  0  0  0  0  0  0  0  0  0  0
    5.2705    4.8630    3.2542 H   0  0  0  0  0  0  0  0  0  0  0  0
    5.3326    5.0183    1.4828 H   0  0  0  0  0  0  0  0  0  0  0  0
  1  2  1  0
  1 14  1  0
  1 15  1  0
  1 16  1  0
  2  3  1  0
  3  4  2  0
  3  5  1  0
  5  6  1  0
  5  7  1  0
  5 17  1  1
  6 18  1  0
  6 19  1  0
  7  8  1  0
  7 20  1  0
  7 21  1  0
  8  9  1  0
  9 10  1  0
  9 22  1  0
  9 23  1  0
 10 11  1  1
 10 12  1  0
 10 13  1  0
M  END

