
     RDKit          3D

 24 24  0  0  0  0  0  0  0  0999 V2000
    0.9840   -0.0520    0.3478 C   0  0  0  0  0  0  0  0  0  0  0  0
    2.4777    0.0453    0.1531 C   0  0  0  0  0  0  0  0  0  0  0  0
    3.1090    1.2906    0.0262 C   0  0  0  0  0  0  0  0  0  0  0  0
    4.4923    1.3554   -0.1624 C   0  0  0  0  0  0  0  0  0  0  0  0
    5.3313    3.0595   -0.3422 Br  0  0  0  0  0  0  0  0  0  0  0  0
    5.2704    0.2001   -0.2271 C   0  0  0  0  0  0  0  0  0  0  0  0
    4.6510   -1.0533   -0.0999 C   0  0  0  0  0  0  0  0  0  0  0  0
    5.4835   -2.3192   -0.1317 C   0  0  0  0  0  0  0  0  0  0  0  0
    5.9819   -2.6816    1.2748 C   0  0  0  0  0  0  0  0  0  0  0  0
    6.9582   -4.2130    1.2166 S   0  0  1  0  0  0  0  0  0  0  0  0
    6.0851   -5.3330    0.8925 O   0  0  0  0  0  0  0  0  0  0  0  0
    8.1963   -3.9736    0.4879 O   0  0  0  0  0  0  0  0  0  0  0  0
    7.4601   -4.3754    3.2959 Cl  0  0  0  0  0  0  0  0  0  0  0  0
    3.2649   -1.1158    0.0889 C   0  0  0  0  0  0  0  0  0  0  0  0
    0.5144    0.9412    0.3890 H   0  0  0  0  0  0  0  0  0  0  0  0
    0.7382   -0.5817    1.2830 H   0  0  0  0  0  0  0  0  0  0  0  0
    0.5125   -0.6151   -0.4746 H   0  0  0  0  0  0  0  0  0  0  0  0
    2.5231    2.2106    0.0696 H   0  0  0  0  0  0  0  0  0  0  0  0
    6.3487    0.2736   -0.3834 H   0  0  0  0  0  0  0  0  0  0  0  0
    6.3522   -2.1913   -0.7953 H   0  0  0  0  0  0  0  0  0  0  0  0
    4.8881   -3.1570   -0.5251 H   0  0  0  0  0  0  0  0  0  0  0  0
    5.1624   -2.8852    1.9780 H   0  0  0  0  0  0  0  0  0  0  0  0
    6.6529   -1.9220    1.6995 H   0  0  0  0  0  0  0  0  0  0  0  0
    2.7813   -2.0935    0.1800 H   0  0  0  0  0  0  0  0  0  0  0  0
  1  2  1  0
  1 15  1  0
  1 16  1  0
  1 17  1  0
  2  3  2  0
  2 14  1  0
  3  4  1  0
  3 18  1  0
  4  5  1  0
  4  6  2  0
  6  7  1  0
  6 19  1  0
  7  8  1  0
  7 14  2  0
  8  9  1  0
  8 20  1  0
  8 21  1  0
  9 10  1  0
  9 22  1  0
  9 23  1  0
 10 11  2  0
 10 12  2  0
 10 13  1  1
 14 24  1  0
M  END

