
     RDKit          3D

 49 51  0  0  0  0  0  0  0  0999 V2000
    6.2282   -0.0848    2.9746 O   0  0  0  0  0  0  0  0  0  0  0  0
    5.7030    0.7724    2.2911 C   0  0  0  0  0  0  0  0  0  0  0  0
    6.0128    2.2487    2.5429 C   0  0  1  0  0  0  0  0  0  0  0  0
    6.1227    2.6101    4.0525 C   0  0  0  0  0  0  0  0  0  0  0  0
    7.3381    3.5679    4.1902 C   0  0  0  0  0  0  0  0  0  0  0  0
    7.7543    3.9142    2.7498 C   0  0  0  0  0  0  0  0  0  0  0  0
    7.3984    2.6477    1.9636 C   0  0  0  0  0  0  0  0  0  0  0  0
    4.7409    0.3363    1.1708 C   0  0  1  0  0  0  0  0  0  0  0  0
    5.1760   -0.6065    0.8029 H   0  0  0  0  0  0  0  0  0  0  0  0
    3.3384   -0.0275    1.7429 C   0  0  1  0  0  0  0  0  0  0  0  0
    3.3049   -1.3641    2.5235 C   0  0  0  0  0  0  0  0  0  0  0  0
    2.0592   -1.2828    3.4486 C   0  0  0  0  0  0  0  0  0  0  0  0
    1.4983    0.1514    3.2774 C   0  0  0  0  0  0  0  0  0  0  0  0
    2.6748    0.9639    2.7193 C   0  0  0  0  0  0  0  0  0  0  0  0
    4.6991    1.2649   -0.0668 C   0  0  2  0  0  0  0  0  0  0  0  0
    5.7359    1.5679   -0.2920 H   0  0  0  0  0  0  0  0  0  0  0  0
    3.8985    2.4235    0.2161 O   0  0  0  0  0  0  0  0  0  0  0  0
    4.1326    0.5817   -1.3048 C   0  0  0  0  0  0  0  0  0  0  0  0
    2.7805    0.7046   -1.4593 O   0  0  0  0  0  0  0  0  0  0  0  0
    4.8705   -0.1083   -2.1829 C   0  0  0  0  0  0  0  0  0  0  0  0
    6.3576   -0.3979   -2.3149 C   0  0  0  0  0  0  0  0  0  0  0  0
    6.0653   -0.9616   -3.7406 C   0  0  0  0  0  0  0  0  0  0  0  0
    4.5343   -0.8239   -3.4761 C   0  0  0  0  0  0  0  0  0  0  0  0
    5.2448    2.8661    2.0591 H   0  0  0  0  0  0  0  0  0  0  0  0
    6.2761    1.6945    4.6405 H   0  0  0  0  0  0  0  0  0  0  0  0
    5.1890    3.0761    4.4030 H   0  0  0  0  0  0  0  0  0  0  0  0
    8.1677    3.0511    4.6995 H   0  0  0  0  0  0  0  0  0  0  0  0
    7.1081    4.4629    4.7886 H   0  0  0  0  0  0  0  0  0  0  0  0
    8.8157    4.1952    2.6583 H   0  0  0  0  0  0  0  0  0  0  0  0
    7.1583    4.7632    2.3712 H   0  0  0  0  0  0  0  0  0  0  0  0
    8.1274    1.8489    2.1839 H   0  0  0  0  0  0  0  0  0  0  0  0
    7.3890    2.7992    0.8720 H   0  0  0  0  0  0  0  0  0  0  0  0
    2.6674   -0.1322    0.8744 H   0  0  0  0  0  0  0  0  0  0  0  0
    4.2258   -1.4674    3.1159 H   0  0  0  0  0  0  0  0  0  0  0  0
    3.2710   -2.2239    1.8358 H   0  0  0  0  0  0  0  0  0  0  0  0
    2.3467   -1.4660    4.4961 H   0  0  0  0  0  0  0  0  0  0  0  0
    1.3033   -2.0426    3.1963 H   0  0  0  0  0  0  0  0  0  0  0  0
    1.0895    0.5685    4.2110 H   0  0  0  0  0  0  0  0  0  0  0  0
    0.6760    0.1511    2.5414 H   0  0  0  0  0  0  0  0  0  0  0  0
    3.3732    1.2150    3.5379 H   0  0  0  0  0  0  0  0  0  0  0  0
    2.3756    1.9079    2.2421 H   0  0  0  0  0  0  0  0  0  0  0  0
    4.1256    3.1117   -0.4247 H   0  0  0  0  0  0  0  0  0  0  0  0
    2.5051    1.4137   -0.8528 H   0  0  0  0  0  0  0  0  0  0  0  0
    6.7379   -1.1610   -1.6126 H   0  0  0  0  0  0  0  0  0  0  0  0
    7.0404    0.4688   -2.2638 H   0  0  0  0  0  0  0  0  0  0  0  0
    6.4320   -1.9802   -3.9351 H   0  0  0  0  0  0  0  0  0  0  0  0
    6.4262   -0.3035   -4.5450 H   0  0  0  0  0  0  0  0  0  0  0  0
    4.0195   -1.7902   -3.3331 H   0  0  0  0  0  0  0  0  0  0  0  0
    3.9546   -0.2438   -4.2134 H   0  0  0  0  0  0  0  0  0  0  0  0
  1  2  2  0
  2  3  1  0
  2  8  1  0
  3  4  1  0
  3  7  1  0
  3 24  1  6
  4  5  1  0
  4 25  1  0
  4 26  1  0
  5  6  1  0
  5 27  1  0
  5 28  1  0
  6  7  1  0
  6 29  1  0
  6 30  1  0
  7 31  1  0
  7 32  1  0
  8  9  1  6
  8 10  1  0
  8 15  1  0
 10 11  1  0
 10 14  1  0
 10 33  1  6
 11 12  1  0
 11 34  1  0
 11 35  1  0
 12 13  1  0
 12 36  1  0
 12 37  1  0
 13 14  1  0
 13 38  1  0
 13 39  1  0
 14 40  1  0
 14 41  1  0
 15 16  1  6
 15 17  1  0
 15 18  1  0
 17 42  1  0
 18 19  1  0
 18 20  2  0
 19 43  1  0
 20 21  1  0
 20 23  1  0
 21 22  1  0
 21 44  1  0
 21 45  1  0
 22 23  1  0
 22 46  1  0
 22 47  1  0
 23 48  1  0
 23 49  1  0
M  END

