
     RDKit          3D

 36 37  0  0  0  0  0  0  0  0999 V2000
    8.2162    0.9268    4.8413 C   0  0  0  0  0  0  0  0  0  0  0  0
    7.0658    0.7996    3.8518 C   0  0  0  0  0  0  0  0  0  0  0  0
    5.9535    0.4659    4.2115 O   0  0  0  0  0  0  0  0  0  0  0  0
    7.4004    1.1048    2.5482 N   0  0  0  0  0  0  0  0  0  0  0  0
    6.5848    1.1099    1.3994 C   0  0  0  0  0  0  0  0  0  0  0  0
    5.2168    0.7857    1.4208 C   0  0  0  0  0  0  0  0  0  0  0  0
    4.5010    0.8246    0.2232 C   0  0  0  0  0  0  0  0  0  0  0  0
    5.0880    1.1724   -0.9947 C   0  0  0  0  0  0  0  0  0  0  0  0
    6.4562    1.4939   -1.0145 C   0  0  0  0  0  0  0  0  0  0  0  0
    7.1545    1.8488   -2.1857 N   0  0  0  0  0  0  0  0  0  0  0  0
    6.6755    2.0071   -3.4674 C   0  0  0  0  0  0  0  0  0  0  0  0
    5.5011    1.8948   -3.7765 O   0  0  0  0  0  0  0  0  0  0  0  0
    7.7222    2.3577   -4.4972 C   0  0  0  0  0  0  0  0  0  0  0  0
    9.0825    2.0386   -4.3740 C   0  0  0  0  0  0  0  0  0  0  0  0
    9.9797    2.3796   -5.3912 C   0  0  0  0  0  0  0  0  0  0  0  0
    9.5270    3.0371   -6.5341 C   0  0  0  0  0  0  0  0  0  0  0  0
    8.1649    3.3504   -6.6826 C   0  0  0  0  0  0  0  0  0  0  0  0
    7.6735    4.0552   -7.9152 C   0  0  0  0  0  0  0  0  0  0  0  0
    8.1320    5.8194   -7.9187 Cl  0  0  0  0  0  0  0  0  0  0  0  0
    7.2757    3.0013   -5.6618 C   0  0  0  0  0  0  0  0  0  0  0  0
    7.1903    1.4589    0.1819 C   0  0  0  0  0  0  0  0  0  0  0  0
    8.2729   -0.0012    5.4287 H   0  0  0  0  0  0  0  0  0  0  0  0
    7.9843    1.7409    5.5457 H   0  0  0  0  0  0  0  0  0  0  0  0
    9.1953    1.1234    4.3799 H   0  0  0  0  0  0  0  0  0  0  0  0
    8.3651    1.3672    2.3887 H   0  0  0  0  0  0  0  0  0  0  0  0
    4.7445    0.5135    2.3607 H   0  0  0  0  0  0  0  0  0  0  0  0
    3.4369    0.5744    0.2398 H   0  0  0  0  0  0  0  0  0  0  0  0
    4.5135    1.2052   -1.9162 H   0  0  0  0  0  0  0  0  0  0  0  0
    8.1287    2.0856   -2.0462 H   0  0  0  0  0  0  0  0  0  0  0  0
    9.4527    1.4900   -3.5039 H   0  0  0  0  0  0  0  0  0  0  0  0
   11.0365    2.1196   -5.2932 H   0  0  0  0  0  0  0  0  0  0  0  0
   10.2335    3.3123   -7.3218 H   0  0  0  0  0  0  0  0  0  0  0  0
    6.5799    4.0173   -7.9922 H   0  0  0  0  0  0  0  0  0  0  0  0
    8.1116    3.6316   -8.8287 H   0  0  0  0  0  0  0  0  0  0  0  0
    6.2086    3.2167   -5.7499 H   0  0  0  0  0  0  0  0  0  0  0  0
    8.2568    1.7088    0.1647 H   0  0  0  0  0  0  0  0  0  0  0  0
  1  2  1  0
  1 22  1  0
  1 23  1  0
  1 24  1  0
  2  3  2  0
  2  4  1  0
  4  5  1  0
  4 25  1  0
  5  6  2  0
  5 21  1  0
  6  7  1  0
  6 26  1  0
  7  8  2  0
  7 27  1  0
  8  9  1  0
  8 28  1  0
  9 10  1  0
  9 21  2  0
 10 11  1  0
 10 29  1  0
 11 12  2  0
 11 13  1  0
 13 14  2  0
 13 20  1  0
 14 15  1  0
 14 30  1  0
 15 16  2  0
 15 31  1  0
 16 17  1  0
 16 32  1  0
 17 18  1  0
 17 20  2  0
 18 19  1  0
 18 33  1  0
 18 34  1  0
 20 35  1  0
 21 36  1  0
M  END

