
     RDKit          3D

 45 46  0  0  0  0  0  0  0  0999 V2000
    1.0739   -0.4527   -0.9888 C   0  0  0  0  0  0  0  0  0  0  0  0
    2.5524   -0.2693   -0.6640 C   0  0  0  0  0  0  0  0  0  0  0  0
    2.9408   -1.0753    0.4833 N   0  0  0  0  0  0  0  0  0  0  0  0
    4.3490   -1.0465    0.8601 C   0  0  1  0  0  0  0  0  0  0  0  0
    4.6875    0.2800    1.5653 C   0  0  0  0  0  0  0  0  0  0  0  0
    3.6923    0.5526    3.1007 S   0  0  0  0  0  0  0  0  0  0  0  0
    4.2815   -0.3727    4.1581 O   0  0  0  0  0  0  0  0  0  0  0  0
    4.3748    2.2816    3.4734 C   0  0  1  0  0  0  0  0  0  0  0  0
    3.5012    3.3474    2.7967 C   0  0  0  0  0  0  0  0  0  0  0  0
    2.1307    3.5144    3.4707 C   0  0  0  0  0  0  0  0  0  0  0  0
    2.2655    3.7489    4.9808 C   0  0  0  0  0  0  0  0  0  0  0  0
    3.0713    2.6271    5.6480 C   0  0  0  0  0  0  0  0  0  0  0  0
    4.4477    2.4465    4.9948 C   0  0  0  0  0  0  0  0  0  0  0  0
    4.6947   -2.2873    1.7009 C   0  0  1  0  0  0  0  0  0  0  0  0
    4.5713   -3.6305    0.9581 C   0  0  0  0  0  0  0  0  0  0  0  0
    5.4727   -4.5284    1.8058 C   0  0  0  0  0  0  0  0  0  0  0  0
    6.5479   -3.7039    2.2187 O   0  0  0  0  0  0  0  0  0  0  0  0
    6.1555   -2.3356    2.1968 C   0  0  0  0  0  0  0  0  0  0  0  0
    0.7739    0.1790   -1.8393 H   0  0  0  0  0  0  0  0  0  0  0  0
    0.4509   -0.1917   -0.1193 H   0  0  0  0  0  0  0  0  0  0  0  0
    0.8533   -1.4995   -1.2595 H   0  0  0  0  0  0  0  0  0  0  0  0
    2.7377    0.7950   -0.4360 H   0  0  0  0  0  0  0  0  0  0  0  0
    3.1655   -0.4938   -1.5677 H   0  0  0  0  0  0  0  0  0  0  0  0
    2.6427   -2.0371    0.3382 H   0  0  0  0  0  0  0  0  0  0  0  0
    5.0094   -1.0747   -0.0408 H   0  0  0  0  0  0  0  0  0  0  0  0
    4.4850    1.1367    0.9038 H   0  0  0  0  0  0  0  0  0  0  0  0
    5.7440    0.3211    1.8705 H   0  0  0  0  0  0  0  0  0  0  0  0
    5.3944    2.2898    3.0566 H   0  0  0  0  0  0  0  0  0  0  0  0
    3.3765    3.1277    1.7216 H   0  0  0  0  0  0  0  0  0  0  0  0
    4.0506    4.3058    2.8430 H   0  0  0  0  0  0  0  0  0  0  0  0
    1.5278    2.6055    3.2988 H   0  0  0  0  0  0  0  0  0  0  0  0
    1.5841    4.3459    2.9955 H   0  0  0  0  0  0  0  0  0  0  0  0
    1.2672    3.8325    5.4420 H   0  0  0  0  0  0  0  0  0  0  0  0
    2.7708    4.7174    5.1567 H   0  0  0  0  0  0  0  0  0  0  0  0
    2.5139    1.6760    5.5797 H   0  0  0  0  0  0  0  0  0  0  0  0
    3.1976    2.8293    6.7244 H   0  0  0  0  0  0  0  0  0  0  0  0
    4.9672    1.5737    5.4192 H   0  0  0  0  0  0  0  0  0  0  0  0
    5.0755    3.3332    5.1994 H   0  0  0  0  0  0  0  0  0  0  0  0
    4.0347   -2.2977    2.5822 H   0  0  0  0  0  0  0  0  0  0  0  0
    4.9722   -3.5427   -0.0674 H   0  0  0  0  0  0  0  0  0  0  0  0
    3.5414   -4.0159    0.8948 H   0  0  0  0  0  0  0  0  0  0  0  0
    5.8789   -5.3912    1.2529 H   0  0  0  0  0  0  0  0  0  0  0  0
    4.9159   -4.9201    2.6821 H   0  0  0  0  0  0  0  0  0  0  0  0
    6.8342   -1.7871    1.5132 H   0  0  0  0  0  0  0  0  0  0  0  0
    6.2416   -1.8876    3.2001 H   0  0  0  0  0  0  0  0  0  0  0  0
  1  2  1  0
  1 19  1  0
  1 20  1  0
  1 21  1  0
  2  3  1  0
  2 22  1  0
  2 23  1  0
  3  4  1  0
  3 24  1  0
  4  5  1  0
  4 14  1  0
  4 25  1  6
  5  6  1  0
  5 26  1  0
  5 27  1  0
  6  7  1  1
  6  8  1  0
  8  9  1  0
  8 13  1  0
  8 28  1  6
  9 10  1  0
  9 29  1  0
  9 30  1  0
 10 11  1  0
 10 31  1  0
 10 32  1  0
 11 12  1  0
 11 33  1  0
 11 34  1  0
 12 13  1  0
 12 35  1  0
 12 36  1  0
 13 37  1  0
 13 38  1  0
 14 15  1  0
 14 18  1  0
 14 39  1  1
 15 16  1  0
 15 40  1  0
 15 41  1  0
 16 17  1  0
 16 42  1  0
 16 43  1  0
 17 18  1  0
 18 44  1  0
 18 45  1  0
M  CHG  2   6   1   7  -1
M  END

