
     RDKit          3D

 46 47  0  0  0  0  0  0  0  0999 V2000
    3.2248   -4.2448    1.5851 C   0  0  0  0  0  0  0  0  0  0  0  0
    3.5981   -3.1698    0.5689 C   0  0  0  0  0  0  0  0  0  0  0  0
    2.8019   -2.6998   -0.2068 O   0  0  0  0  0  0  0  0  0  0  0  0
    4.9392   -2.7927    0.6573 N   0  0  0  0  0  0  0  0  0  0  0  0
    5.6351   -1.7983   -0.0460 C   0  0  0  0  0  0  0  0  0  0  0  0
    7.0480   -1.8436   -0.0456 C   0  0  0  0  0  0  0  0  0  0  0  0
    7.7471   -0.8548   -0.7230 C   0  0  0  0  0  0  0  0  0  0  0  0
    7.0375    0.1559   -1.3981 C   0  0  0  0  0  0  0  0  0  0  0  0
    7.7426    1.2464   -2.1775 C   0  0  0  0  0  0  0  0  0  0  0  0
    8.3694    0.8009   -3.4186 N   0  0  0  0  0  0  0  0  0  0  0  0
    9.6607    0.3075   -3.4029 C   0  0  0  0  0  0  0  0  0  0  0  0
   10.3385    0.2915   -2.3804 O   0  0  0  0  0  0  0  0  0  0  0  0
   10.1441   -0.1649   -4.6157 N   0  0  0  0  0  0  0  0  0  0  0  0
    9.6859    0.2963   -5.9208 C   0  0  0  0  0  0  0  0  0  0  0  0
   10.6342    1.3566   -6.5168 C   0  0  2  0  0  0  0  0  0  0  0  0
   10.1774    1.7954   -7.9093 C   0  0  0  0  0  0  0  0  0  0  0  0
   12.0778    0.8285   -6.5279 C   0  0  0  0  0  0  0  0  0  0  0  0
   12.5137    0.2840   -5.1473 C   0  0  2  0  0  0  0  0  0  0  0  0
   13.9030   -0.3394   -5.2398 C   0  0  0  0  0  0  0  0  0  0  0  0
   14.1113   -1.5205   -5.3029 O   0  0  0  0  0  0  0  0  0  0  0  0
   14.9324    0.5394   -5.2961 O   0  0  0  0  0  0  0  0  0  0  0  0
   11.4859   -0.7341   -4.6313 C   0  0  0  0  0  0  0  0  0  0  0  0
    5.6418    0.0958   -1.3239 C   0  0  0  0  0  0  0  0  0  0  0  0
    4.9558   -0.8401   -0.6664 N   0  0  0  0  0  0  0  0  0  0  0  0
    2.2582   -4.6752    1.2962 H   0  0  0  0  0  0  0  0  0  0  0  0
    3.1241   -3.7945    2.5868 H   0  0  0  0  0  0  0  0  0  0  0  0
    3.9794   -5.0455    1.6483 H   0  0  0  0  0  0  0  0  0  0  0  0
    5.5147   -3.3560    1.2715 H   0  0  0  0  0  0  0  0  0  0  0  0
    7.5801   -2.6440    0.4760 H   0  0  0  0  0  0  0  0  0  0  0  0
    8.8396   -0.8538   -0.7481 H   0  0  0  0  0  0  0  0  0  0  0  0
    8.5411    1.6906   -1.5674 H   0  0  0  0  0  0  0  0  0  0  0  0
    7.0232    2.0443   -2.4227 H   0  0  0  0  0  0  0  0  0  0  0  0
    7.7405    0.4377   -4.1254 H   0  0  0  0  0  0  0  0  0  0  0  0
    8.6742    0.7151   -5.8503 H   0  0  0  0  0  0  0  0  0  0  0  0
    9.6293   -0.5705   -6.6061 H   0  0  0  0  0  0  0  0  0  0  0  0
   10.5962    2.2310   -5.8405 H   0  0  0  0  0  0  0  0  0  0  0  0
   10.1802    0.9477   -8.6153 H   0  0  0  0  0  0  0  0  0  0  0  0
   10.8420    2.5717   -8.3206 H   0  0  0  0  0  0  0  0  0  0  0  0
    9.1560    2.2089   -7.8861 H   0  0  0  0  0  0  0  0  0  0  0  0
   12.7648    1.6219   -6.8694 H   0  0  0  0  0  0  0  0  0  0  0  0
   12.1596    0.0102   -7.2670 H   0  0  0  0  0  0  0  0  0  0  0  0
   12.5493    1.1221   -4.4265 H   0  0  0  0  0  0  0  0  0  0  0  0
   14.6093    1.4450   -5.1868 H   0  0  0  0  0  0  0  0  0  0  0  0
   11.7391   -1.0564   -3.6159 H   0  0  0  0  0  0  0  0  0  0  0  0
   11.4995   -1.6196   -5.2880 H   0  0  0  0  0  0  0  0  0  0  0  0
    5.0381    0.8674   -1.8212 H   0  0  0  0  0  0  0  0  0  0  0  0
  1  2  1  0
  1 25  1  0
  1 26  1  0
  1 27  1  0
  2  3  2  0
  2  4  1  0
  4  5  1  0
  4 28  1  0
  5  6  2  0
  5 24  1  0
  6  7  1  0
  6 29  1  0
  7  8  2  0
  7 30  1  0
  8  9  1  0
  8 23  1  0
  9 10  1  0
  9 31  1  0
  9 32  1  0
 10 11  1  0
 10 33  1  0
 11 12  2  0
 11 13  1  0
 13 14  1  0
 13 22  1  0
 14 15  1  0
 14 34  1  0
 14 35  1  0
 15 16  1  0
 15 17  1  0
 15 36  1  1
 16 37  1  0
 16 38  1  0
 16 39  1  0
 17 18  1  0
 17 40  1  0
 17 41  1  0
 18 19  1  0
 18 22  1  0
 18 42  1  1
 19 20  2  0
 19 21  1  0
 21 43  1  0
 22 44  1  0
 22 45  1  0
 23 24  2  0
 23 46  1  0
M  END

