
     RDKit          3D

 58 62  0  0  0  0  0  0  0  0999 V2000
    1.3904   -0.1973    1.2049 O   0  0  0  0  0  0  0  0  0  0  0  0
    2.6095   -0.2831    1.2612 C   0  0  0  0  0  0  0  0  0  0  0  0
    3.4567    0.9036    1.7811 C   0  0  0  0  0  0  0  0  0  0  0  0
    4.5232    1.1537    1.2296 O   0  0  0  0  0  0  0  0  0  0  0  0
    2.9586    1.6615    2.8020 N   0  0  0  0  0  0  0  0  0  0  0  0
    3.6739    2.8770    3.1952 C   0  0  0  0  0  0  0  0  0  0  0  0
    2.7539    4.0951    3.0975 C   0  0  0  0  0  0  0  0  0  0  0  0
    1.5314    3.8697    3.8664 N   0  0  0  0  0  0  0  0  0  0  0  0
    0.9817    4.9431    4.5421 C   0  0  0  0  0  0  0  0  0  0  0  0
    1.4559    6.0662    4.4575 O   0  0  0  0  0  0  0  0  0  0  0  0
   -0.2046    4.6977    5.4387 C   0  0  0  0  0  0  0  0  0  0  0  0
   -0.2669    3.6309    6.3499 C   0  0  0  0  0  0  0  0  0  0  0  0
   -1.3373    3.5098    7.2385 C   0  0  0  0  0  0  0  0  0  0  0  0
   -2.3512    4.4649    7.2022 C   0  0  0  0  0  0  0  0  0  0  0  0
   -3.3854    4.3493    8.0446 F   0  0  0  0  0  0  0  0  0  0  0  0
   -2.3107    5.5434    6.3193 C   0  0  0  0  0  0  0  0  0  0  0  0
   -1.2261    5.6615    5.4515 C   0  0  0  0  0  0  0  0  0  0  0  0
    0.8202    2.6543    3.4767 C   0  0  0  0  0  0  0  0  0  0  0  0
    1.7403    1.4349    3.5779 C   0  0  0  0  0  0  0  0  0  0  0  0
    3.3296   -1.4699    0.7996 C   0  0  0  0  0  0  0  0  0  0  0  0
    4.6949   -1.6499    0.7156 C   0  0  0  0  0  0  0  0  0  0  0  0
    4.9834   -2.9166    0.2392 N   0  0  0  0  0  0  0  0  0  0  0  0
    6.2709   -3.4247   -0.0701 C   0  0  0  0  0  0  0  0  0  0  0  0
    6.3934   -4.3481   -0.8447 O   0  0  0  0  0  0  0  0  0  0  0  0
    7.4529   -2.7933    0.5959 C   0  0  0  0  0  0  0  0  0  0  0  0
    7.4521   -2.3578    1.9327 C   0  0  0  0  0  0  0  0  0  0  0  0
    8.6192   -1.8703    2.5211 C   0  0  0  0  0  0  0  0  0  0  0  0
    9.7851   -1.8148    1.7594 C   0  0  0  0  0  0  0  0  0  0  0  0
   10.9021   -1.3390    2.3159 F   0  0  0  0  0  0  0  0  0  0  0  0
    9.8199   -2.2522    0.4347 C   0  0  0  0  0  0  0  0  0  0  0  0
    8.6538   -2.7544   -0.1358 C   0  0  0  0  0  0  0  0  0  0  0  0
    3.7627   -3.5826   -0.0277 C   0  0  0  0  0  0  0  0  0  0  0  0
    3.5214   -4.8688   -0.5227 C   0  0  0  0  0  0  0  0  0  0  0  0
    2.1883   -5.2614   -0.6501 C   0  0  0  0  0  0  0  0  0  0  0  0
    1.1316   -4.3999   -0.3022 C   0  0  0  0  0  0  0  0  0  0  0  0
    1.3786   -3.1183    0.1866 C   0  0  0  0  0  0  0  0  0  0  0  0
    2.7121   -2.7024    0.3278 C   0  0  0  0  0  0  0  0  0  0  0  0
    4.5441    2.9878    2.5377 H   0  0  0  0  0  0  0  0  0  0  0  0
    4.0295    2.7656    4.2357 H   0  0  0  0  0  0  0  0  0  0  0  0
    2.5059    4.2859    2.0356 H   0  0  0  0  0  0  0  0  0  0  0  0
    3.2446    4.9946    3.4888 H   0  0  0  0  0  0  0  0  0  0  0  0
    0.5425    2.8984    6.3894 H   0  0  0  0  0  0  0  0  0  0  0  0
   -1.3941    2.6942    7.9619 H   0  0  0  0  0  0  0  0  0  0  0  0
   -3.1190    6.2771    6.3322 H   0  0  0  0  0  0  0  0  0  0  0  0
   -1.1542    6.5146    4.7741 H   0  0  0  0  0  0  0  0  0  0  0  0
    0.4798    2.7409    2.4269 H   0  0  0  0  0  0  0  0  0  0  0  0
   -0.0679    2.5118    4.1021 H   0  0  0  0  0  0  0  0  0  0  0  0
    1.2148    0.5484    3.2160 H   0  0  0  0  0  0  0  0  0  0  0  0
    2.0249    1.2791    4.6355 H   0  0  0  0  0  0  0  0  0  0  0  0
    5.4754   -0.9229    0.9110 H   0  0  0  0  0  0  0  0  0  0  0  0
    6.5441   -2.4221    2.5348 H   0  0  0  0  0  0  0  0  0  0  0  0
    8.6411   -1.5384    3.5606 H   0  0  0  0  0  0  0  0  0  0  0  0
   10.7564   -2.1989   -0.1234 H   0  0  0  0  0  0  0  0  0  0  0  0
    8.6576   -3.1266   -1.1619 H   0  0  0  0  0  0  0  0  0  0  0  0
    4.3408   -5.5238   -0.8099 H   0  0  0  0  0  0  0  0  0  0  0  0
    1.9643   -6.2585   -1.0374 H   0  0  0  0  0  0  0  0  0  0  0  0
    0.1003   -4.7410   -0.4229 H   0  0  0  0  0  0  0  0  0  0  0  0
    0.5691   -2.4388    0.4515 H   0  0  0  0  0  0  0  0  0  0  0  0
  1  2  2  0
  2  3  1  0
  2 20  1  0
  3  4  2  0
  3  5  1  0
  5  6  1  0
  5 19  1  0
  6  7  1  0
  6 38  1  0
  6 39  1  0
  7  8  1  0
  7 40  1  0
  7 41  1  0
  8  9  1  0
  8 18  1  0
  9 10  2  0
  9 11  1  0
 11 12  2  0
 11 17  1  0
 12 13  1  0
 12 42  1  0
 13 14  2  0
 13 43  1  0
 14 15  1  0
 14 16  1  0
 16 17  2  0
 16 44  1  0
 17 45  1  0
 18 19  1  0
 18 46  1  0
 18 47  1  0
 19 48  1  0
 19 49  1  0
 20 21  2  0
 20 37  1  0
 21 22  1  0
 21 50  1  0
 22 23  1  0
 22 32  1  0
 23 24  2  0
 23 25  1  0
 25 26  2  0
 25 31  1  0
 26 27  1  0
 26 51  1  0
 27 28  2  0
 27 52  1  0
 28 29  1  0
 28 30  1  0
 30 31  2  0
 30 53  1  0
 31 54  1  0
 32 33  1  0
 32 37  2  0
 33 34  2  0
 33 55  1  0
 34 35  1  0
 34 56  1  0
 35 36  2  0
 35 57  1  0
 36 37  1  0
 36 58  1  0
M  END

