
     RDKit          3D

 34 35  0  0  0  0  0  0  0  0999 V2000
    0.4489   -0.4518   -1.2703 C   0  0  0  0  0  0  0  0  0  0  0  0
    1.8315   -0.3115   -0.6212 C   0  0  1  0  0  0  0  0  0  0  0  0
    2.5338   -1.5893   -0.5372 N   0  0  0  0  0  0  0  0  0  0  0  0
    2.4546   -2.4005    0.5597 C   0  0  0  0  0  0  0  0  0  0  0  0
    1.8187   -2.0948    1.5561 O   0  0  0  0  0  0  0  0  0  0  0  0
    3.3019   -3.7033    0.5042 C   0  0  1  0  0  0  0  0  0  0  0  0
    2.5495   -4.8577    1.1896 C   0  0  0  0  0  0  0  0  0  0  0  0
    1.4788   -5.4591    0.2710 C   0  0  0  0  0  0  0  0  0  0  0  0
    2.0812   -5.8678   -1.0787 C   0  0  0  0  0  0  0  0  0  0  0  0
    2.8033   -4.6829   -1.7252 C   0  0  0  0  0  0  0  0  0  0  0  0
    3.7840   -4.1312   -0.7991 N   0  0  0  0  0  0  0  0  0  0  0  0
    2.7025    0.7126   -1.3120 C   0  0  0  0  0  0  0  0  0  0  0  0
    2.3861    1.6081   -2.3044 C   0  0  0  0  0  0  0  0  0  0  0  0
    3.4699    2.4593   -2.6854 C   0  0  0  0  0  0  0  0  0  0  0  0
    4.6068    2.1907   -1.9704 C   0  0  0  0  0  0  0  0  0  0  0  0
    6.1423    2.9656   -2.1193 Cl  0  0  0  0  0  0  0  0  0  0  0  0
    4.3748    0.9007   -0.8228 S   0  0  0  0  0  0  0  0  0  0  0  0
   -0.1385   -1.1941   -0.7114 H   0  0  0  0  0  0  0  0  0  0  0  0
    0.5282   -0.7808   -2.3187 H   0  0  0  0  0  0  0  0  0  0  0  0
   -0.0990    0.5025   -1.2454 H   0  0  0  0  0  0  0  0  0  0  0  0
    1.6767   -0.0114    0.4290 H   0  0  0  0  0  0  0  0  0  0  0  0
    3.0060   -1.9360   -1.3634 H   0  0  0  0  0  0  0  0  0  0  0  0
    4.1844   -3.4622    1.1242 H   0  0  0  0  0  0  0  0  0  0  0  0
    2.1048   -4.4822    2.1216 H   0  0  0  0  0  0  0  0  0  0  0  0
    3.2869   -5.6343    1.4512 H   0  0  0  0  0  0  0  0  0  0  0  0
    0.6747   -4.7179    0.1080 H   0  0  0  0  0  0  0  0  0  0  0  0
    1.0040   -6.3249    0.7613 H   0  0  0  0  0  0  0  0  0  0  0  0
    1.3011   -6.2449   -1.7610 H   0  0  0  0  0  0  0  0  0  0  0  0
    2.8075   -6.6850   -0.9260 H   0  0  0  0  0  0  0  0  0  0  0  0
    2.0362   -3.9416   -2.0496 H   0  0  0  0  0  0  0  0  0  0  0  0
    3.3318   -5.0075   -2.6364 H   0  0  0  0  0  0  0  0  0  0  0  0
    4.4614   -3.5059   -1.2239 H   0  0  0  0  0  0  0  0  0  0  0  0
    1.3970    1.6693   -2.7589 H   0  0  0  0  0  0  0  0  0  0  0  0
    3.4150    3.2293   -3.4549 H   0  0  0  0  0  0  0  0  0  0  0  0
  1  2  1  0
  1 18  1  0
  1 19  1  0
  1 20  1  0
  2  3  1  0
  2 12  1  0
  2 21  1  1
  3  4  1  0
  3 22  1  0
  4  5  2  0
  4  6  1  0
  6  7  1  0
  6 11  1  0
  6 23  1  1
  7  8  1  0
  7 24  1  0
  7 25  1  0
  8  9  1  0
  8 26  1  0
  8 27  1  0
  9 10  1  0
  9 28  1  0
  9 29  1  0
 10 11  1  0
 10 30  1  0
 10 31  1  0
 11 32  1  0
 12 13  2  0
 12 17  1  0
 13 14  1  0
 13 33  1  0
 14 15  2  0
 14 34  1  0
 15 16  1  0
 15 17  1  0
M  END

