
     RDKit          3D

 55 58  0  0  0  0  0  0  0  0999 V2000
    1.1818    2.2364   -0.3467 C   0  0  0  0  0  0  0  0  0  0  0  0
    2.6017    2.1427   -0.2886 O   0  0  0  0  0  0  0  0  0  0  0  0
    3.1564    1.1859   -1.0439 C   0  0  0  0  0  0  0  0  0  0  0  0
    2.5123    0.4323   -1.7419 O   0  0  0  0  0  0  0  0  0  0  0  0
    4.6536    1.1398   -0.9391 C   0  0  0  0  0  0  0  0  0  0  0  0
    5.3173    0.1670   -1.6910 C   0  0  0  0  0  0  0  0  0  0  0  0
    6.7163    0.1128   -1.5985 C   0  0  0  0  0  0  0  0  0  0  0  0
    7.7515   -0.7078   -2.1722 C   0  0  0  0  0  0  0  0  0  0  0  0
    7.5914   -1.8221   -3.1698 C   0  0  0  0  0  0  0  0  0  0  0  0
    8.6445   -2.8201   -3.0736 N   0  0  0  0  0  0  0  0  0  0  0  0
    8.5703   -3.7153   -1.9219 C   0  0  0  0  0  0  0  0  0  0  0  0
    9.6609   -4.7574   -2.2113 C   0  0  0  0  0  0  0  0  0  0  0  0
    9.7410   -4.7876   -3.7574 C   0  0  1  0  0  0  0  0  0  0  0  0
   10.7567   -4.6091   -4.1383 H   0  0  0  0  0  0  0  0  0  0  0  0
    9.2228   -6.3784   -4.4920 S   0  0  1  0  0  0  0  0  0  0  0  0
   10.5755   -7.5198   -4.1288 C   0  0  0  0  0  0  0  0  0  0  0  0
    8.0330   -6.8538   -3.7673 O   0  0  0  0  0  0  0  0  0  0  0  0
    9.1849   -6.1913   -5.9501 O   0  0  0  0  0  0  0  0  0  0  0  0
    8.7571   -3.6962   -4.2331 C   0  0  0  0  0  0  0  0  0  0  0  0
    8.9360   -0.2361   -1.6521 C   0  0  0  0  0  0  0  0  0  0  0  0
    8.7122    0.8239   -0.7893 N   0  0  0  0  0  0  0  0  0  0  0  0
    9.7333    1.5538   -0.0587 C   0  0  0  0  0  0  0  0  0  0  0  0
   10.0099    2.9581   -0.5740 C   0  0  0  0  0  0  0  0  0  0  0  0
   10.3532    3.9774    0.3258 C   0  0  0  0  0  0  0  0  0  0  0  0
   10.6644    5.2630   -0.1234 C   0  0  0  0  0  0  0  0  0  0  0  0
   10.6216    5.5241   -1.4906 C   0  0  0  0  0  0  0  0  0  0  0  0
   10.9133    6.7549   -1.9317 F   0  0  0  0  0  0  0  0  0  0  0  0
   10.2759    4.5356   -2.4102 C   0  0  0  0  0  0  0  0  0  0  0  0
    9.9730    3.2549   -1.9446 C   0  0  0  0  0  0  0  0  0  0  0  0
    7.3548    1.0578   -0.7449 C   0  0  0  0  0  0  0  0  0  0  0  0
    6.5938    2.0018   -0.0342 C   0  0  0  0  0  0  0  0  0  0  0  0
    5.2754    2.0299   -0.1356 N   0  0  0  0  0  0  0  0  0  0  0  0
    0.9022    3.0613    0.3205 H   0  0  0  0  0  0  0  0  0  0  0  0
    0.7104    1.2990   -0.0126 H   0  0  0  0  0  0  0  0  0  0  0  0
    0.8416    2.4439   -1.3732 H   0  0  0  0  0  0  0  0  0  0  0  0
    4.7344   -0.5107   -2.3164 H   0  0  0  0  0  0  0  0  0  0  0  0
    7.6191   -1.4050   -4.1928 H   0  0  0  0  0  0  0  0  0  0  0  0
    6.5806   -2.2772   -3.0600 H   0  0  0  0  0  0  0  0  0  0  0  0
    7.5783   -4.2144   -1.8586 H   0  0  0  0  0  0  0  0  0  0  0  0
    8.7314   -3.1705   -0.9800 H   0  0  0  0  0  0  0  0  0  0  0  0
    9.4035   -5.7369   -1.7837 H   0  0  0  0  0  0  0  0  0  0  0  0
   10.6293   -4.4417   -1.7958 H   0  0  0  0  0  0  0  0  0  0  0  0
   10.2489   -8.4810   -4.5491 H   0  0  0  0  0  0  0  0  0  0  0  0
   10.7133   -7.6073   -3.0433 H   0  0  0  0  0  0  0  0  0  0  0  0
   11.4875   -7.1730   -4.6318 H   0  0  0  0  0  0  0  0  0  0  0  0
    7.7826   -4.1591   -4.5029 H   0  0  0  0  0  0  0  0  0  0  0  0
    9.1221   -3.1552   -5.1184 H   0  0  0  0  0  0  0  0  0  0  0  0
    9.9461   -0.5993   -1.8332 H   0  0  0  0  0  0  0  0  0  0  0  0
   10.6534    0.9482   -0.1073 H   0  0  0  0  0  0  0  0  0  0  0  0
    9.4516    1.6014    1.0062 H   0  0  0  0  0  0  0  0  0  0  0  0
   10.3768    3.7692    1.3995 H   0  0  0  0  0  0  0  0  0  0  0  0
   10.9292    6.0643    0.5689 H   0  0  0  0  0  0  0  0  0  0  0  0
   10.2450    4.7801   -3.4737 H   0  0  0  0  0  0  0  0  0  0  0  0
    9.6946    2.4787   -2.6616 H   0  0  0  0  0  0  0  0  0  0  0  0
    7.0669    2.7458    0.6178 H   0  0  0  0  0  0  0  0  0  0  0  0
  1  2  1  0
  1 33  1  0
  1 34  1  0
  1 35  1  0
  2  3  1  0
  3  4  2  0
  3  5  1  0
  5  6  2  0
  5 32  1  0
  6  7  1  0
  6 36  1  0
  7  8  1  0
  7 30  2  0
  8  9  1  0
  8 20  2  0
  9 10  1  0
  9 37  1  0
  9 38  1  0
 10 11  1  0
 10 19  1  0
 11 12  1  0
 11 39  1  0
 11 40  1  0
 12 13  1  0
 12 41  1  0
 12 42  1  0
 13 14  1  1
 13 15  1  0
 13 19  1  0
 15 16  1  6
 15 17  2  0
 15 18  2  0
 16 43  1  0
 16 44  1  0
 16 45  1  0
 19 46  1  0
 19 47  1  0
 20 21  1  0
 20 48  1  0
 21 22  1  0
 21 30  1  0
 22 23  1  0
 22 49  1  0
 22 50  1  0
 23 24  2  0
 23 29  1  0
 24 25  1  0
 24 51  1  0
 25 26  2  0
 25 52  1  0
 26 27  1  0
 26 28  1  0
 28 29  2  0
 28 53  1  0
 29 54  1  0
 30 31  1  0
 31 32  2  0
 31 55  1  0
M  END

