
     RDKit          3D

 47 49  0  0  0  0  0  0  0  0999 V2000
    1.7471   -3.5812    1.2188 C   0  0  0  0  0  0  0  0  0  0  0  0
    1.1318   -2.1832    1.1419 C   0  0  1  0  0  0  0  0  0  0  0  0
    1.6701   -1.3268   -0.0143 C   0  0  0  0  0  0  0  0  0  0  0  0
    1.1183   -1.7588   -1.2986 N   0  0  0  0  0  0  0  0  0  0  0  0
    1.9382   -2.4299   -2.1901 C   0  0  0  0  0  0  0  0  0  0  0  0
    3.0932   -2.7167   -1.9150 O   0  0  0  0  0  0  0  0  0  0  0  0
    1.3672   -2.7793   -3.5450 C   0  0  0  0  0  0  0  0  0  0  0  0
    1.5410   -4.1015   -3.9770 C   0  0  0  0  0  0  0  0  0  0  0  0
    1.1029   -4.5173   -5.2330 C   0  0  0  0  0  0  0  0  0  0  0  0
    0.5076   -3.5849   -6.0865 C   0  0  0  0  0  0  0  0  0  0  0  0
    0.3559   -2.2531   -5.7006 C   0  0  0  0  0  0  0  0  0  0  0  0
    0.7885   -1.8310   -4.4289 C   0  0  0  0  0  0  0  0  0  0  0  0
    0.6888   -0.4911   -4.0054 N   0  0  0  0  0  0  0  0  0  0  0  0
    0.1611    0.5874   -4.6710 C   0  0  0  0  0  0  0  0  0  0  0  0
   -0.3939    0.5238   -5.7550 O   0  0  0  0  0  0  0  0  0  0  0  0
    0.2105    1.9128   -3.9314 C   0  0  0  0  0  0  0  0  0  0  0  0
   -0.9420    2.7085   -4.0834 C   0  0  0  0  0  0  0  0  0  0  0  0
   -1.0585    3.9574   -3.4800 C   0  0  0  0  0  0  0  0  0  0  0  0
    0.0015    4.4580   -2.7188 C   0  0  0  0  0  0  0  0  0  0  0  0
    1.1690    3.7083   -2.5760 C   0  0  0  0  0  0  0  0  0  0  0  0
    1.2718    2.4473   -3.1762 C   0  0  0  0  0  0  0  0  0  0  0  0
    2.9570    1.5520   -2.9655 Br  0  0  0  0  0  0  0  0  0  0  0  0
   -0.3432   -1.8090   -1.3052 C   0  0  0  0  0  0  0  0  0  0  0  0
   -0.8576   -2.6607   -0.1334 C   0  0  2  0  0  0  0  0  0  0  0  0
   -2.3692   -2.5950    0.0103 C   0  0  0  0  0  0  0  0  0  0  0  0
   -0.2960   -2.2134    1.0922 O   0  0  0  0  0  0  0  0  0  0  0  0
    2.8236   -3.5099    1.4369 H   0  0  0  0  0  0  0  0  0  0  0  0
    1.6461   -4.1418    0.2778 H   0  0  0  0  0  0  0  0  0  0  0  0
    1.2627   -4.1566    2.0225 H   0  0  0  0  0  0  0  0  0  0  0  0
    1.3574   -1.6531    2.0819 H   0  0  0  0  0  0  0  0  0  0  0  0
    2.7636   -1.3804   -0.0742 H   0  0  0  0  0  0  0  0  0  0  0  0
    1.3679   -0.2783    0.1517 H   0  0  0  0  0  0  0  0  0  0  0  0
    2.0336   -4.8036   -3.3009 H   0  0  0  0  0  0  0  0  0  0  0  0
    1.2336   -5.5556   -5.5459 H   0  0  0  0  0  0  0  0  0  0  0  0
    0.1622   -3.8904   -7.0776 H   0  0  0  0  0  0  0  0  0  0  0  0
   -0.0894   -1.5226   -6.3707 H   0  0  0  0  0  0  0  0  0  0  0  0
    1.0989   -0.3007   -3.0963 H   0  0  0  0  0  0  0  0  0  0  0  0
   -1.7470    2.3111   -4.7043 H   0  0  0  0  0  0  0  0  0  0  0  0
   -1.9715    4.5429   -3.6097 H   0  0  0  0  0  0  0  0  0  0  0  0
   -0.0699    5.4392   -2.2430 H   0  0  0  0  0  0  0  0  0  0  0  0
    2.0127    4.1012   -2.0067 H   0  0  0  0  0  0  0  0  0  0  0  0
   -0.7014   -2.2261   -2.2546 H   0  0  0  0  0  0  0  0  0  0  0  0
   -0.7438   -0.7836   -1.2049 H   0  0  0  0  0  0  0  0  0  0  0  0
   -0.5555   -3.7102   -0.3256 H   0  0  0  0  0  0  0  0  0  0  0  0
   -2.6933   -1.5582    0.1932 H   0  0  0  0  0  0  0  0  0  0  0  0
   -2.6916   -3.2076    0.8649 H   0  0  0  0  0  0  0  0  0  0  0  0
   -2.8688   -2.9681   -0.8974 H   0  0  0  0  0  0  0  0  0  0  0  0
  1  2  1  0
  1 27  1  0
  1 28  1  0
  1 29  1  0
  2  3  1  0
  2 26  1  0
  2 30  1  1
  3  4  1  0
  3 31  1  0
  3 32  1  0
  4  5  1  0
  4 23  1  0
  5  6  2  0
  5  7  1  0
  7  8  2  0
  7 12  1  0
  8  9  1  0
  8 33  1  0
  9 10  2  0
  9 34  1  0
 10 11  1  0
 10 35  1  0
 11 12  2  0
 11 36  1  0
 12 13  1  0
 13 14  1  0
 13 37  1  0
 14 15  2  0
 14 16  1  0
 16 17  2  0
 16 21  1  0
 17 18  1  0
 17 38  1  0
 18 19  2  0
 18 39  1  0
 19 20  1  0
 19 40  1  0
 20 21  2  0
 20 41  1  0
 21 22  1  0
 23 24  1  0
 23 42  1  0
 23 43  1  0
 24 25  1  0
 24 26  1  0
 24 44  1  6
 25 45  1  0
 25 46  1  0
 25 47  1  0
M  END

