
     RDKit          3D

 39 39  0  0  0  0  0  0  0  0999 V2000
    1.0462    0.0238   -0.1436 C   0  0  0  0  0  0  0  0  0  0  0  0
    2.5780    0.0466   -0.2323 C   0  0  1  0  0  0  0  0  0  0  0  0
    3.0456   -0.4069   -1.6218 C   0  0  0  0  0  0  0  0  0  0  0  0
    3.1207    1.4367    0.1571 C   0  0  0  0  0  0  0  0  0  0  0  0
    4.6432    1.5199    0.3095 C   0  0  0  0  0  0  0  0  0  0  0  0
    5.1849    2.9267    0.6367 C   0  0  1  0  0  0  0  0  0  0  0  0
    4.7158    3.4783    1.9847 C   0  0  0  0  0  0  0  0  0  0  0  0
    6.6462    2.9472    0.5936 N   0  0  0  0  0  0  0  0  0  0  0  0
    7.3423    3.1339   -0.5699 C   0  0  0  0  0  0  0  0  0  0  0  0
    6.7877    3.3250   -1.6429 O   0  0  0  0  0  0  0  0  0  0  0  0
    8.8465    3.0900   -0.4584 C   0  0  0  0  0  0  0  0  0  0  0  0
    9.5722    2.7874   -1.6200 C   0  0  0  0  0  0  0  0  0  0  0  0
   10.9634    2.7350   -1.5673 C   0  0  0  0  0  0  0  0  0  0  0  0
   11.6331    2.9996   -0.3721 C   0  0  0  0  0  0  0  0  0  0  0  0
   13.5456    2.9127   -0.3388 Br  0  0  0  0  0  0  0  0  0  0  0  0
   10.9369    3.3363    0.8115 C   0  0  0  0  0  0  0  0  0  0  0  0
   11.5873    3.6691    1.9783 N   0  0  0  0  0  0  0  0  0  0  0  0
    9.5279    3.3683    0.7311 C   0  0  0  0  0  0  0  0  0  0  0  0
    0.6443   -0.9745   -0.3813 H   0  0  0  0  0  0  0  0  0  0  0  0
    0.5995    0.7392   -0.8558 H   0  0  0  0  0  0  0  0  0  0  0  0
    0.6943    0.2959    0.8651 H   0  0  0  0  0  0  0  0  0  0  0  0
    2.9669   -0.6789    0.5085 H   0  0  0  0  0  0  0  0  0  0  0  0
    2.6987    0.2938   -2.4011 H   0  0  0  0  0  0  0  0  0  0  0  0
    2.6427   -1.4030   -1.8676 H   0  0  0  0  0  0  0  0  0  0  0  0
    4.1421   -0.4692   -1.6956 H   0  0  0  0  0  0  0  0  0  0  0  0
    2.6381    1.7376    1.1032 H   0  0  0  0  0  0  0  0  0  0  0  0
    2.7899    2.1731   -0.6000 H   0  0  0  0  0  0  0  0  0  0  0  0
    5.1263    1.2045   -0.6280 H   0  0  0  0  0  0  0  0  0  0  0  0
    4.9785    0.8143    1.0938 H   0  0  0  0  0  0  0  0  0  0  0  0
    4.8602    3.6038   -0.1689 H   0  0  0  0  0  0  0  0  0  0  0  0
    5.0293    2.8213    2.8156 H   0  0  0  0  0  0  0  0  0  0  0  0
    3.6199    3.5595    2.0250 H   0  0  0  0  0  0  0  0  0  0  0  0
    5.1363    4.4801    2.1622 H   0  0  0  0  0  0  0  0  0  0  0  0
    7.1442    2.5882    1.3996 H   0  0  0  0  0  0  0  0  0  0  0  0
    9.0316    2.5981   -2.5479 H   0  0  0  0  0  0  0  0  0  0  0  0
   11.5423    2.4867   -2.4587 H   0  0  0  0  0  0  0  0  0  0  0  0
   12.5649    3.4149    2.0554 H   0  0  0  0  0  0  0  0  0  0  0  0
   11.0574    3.6268    2.8390 H   0  0  0  0  0  0  0  0  0  0  0  0
    8.9744    3.6640    1.6267 H   0  0  0  0  0  0  0  0  0  0  0  0
  1  2  1  0
  1 19  1  0
  1 20  1  0
  1 21  1  0
  2  3  1  0
  2  4  1  0
  2 22  1  1
  3 23  1  0
  3 24  1  0
  3 25  1  0
  4  5  1  0
  4 26  1  0
  4 27  1  0
  5  6  1  0
  5 28  1  0
  5 29  1  0
  6  7  1  0
  6  8  1  0
  6 30  1  6
  7 31  1  0
  7 32  1  0
  7 33  1  0
  8  9  1  0
  8 34  1  0
  9 10  2  0
  9 11  1  0
 11 12  2  0
 11 18  1  0
 12 13  1  0
 12 35  1  0
 13 14  2  0
 13 36  1  0
 14 15  1  0
 14 16  1  0
 16 17  1  0
 16 18  2  0
 17 37  1  0
 17 38  1  0
 18 39  1  0
M  END

