
     RDKit          3D

 80 83  0  0  0  0  0  0  0  0999 V2000
    1.7746   -3.4481  -14.2610 C   0  0  0  0  0  0  0  0  0  0  0  0
    1.1184   -2.9239  -13.1295 O   0  0  0  0  0  0  0  0  0  0  0  0
    1.3522   -3.4814  -11.9101 C   0  0  0  0  0  0  0  0  0  0  0  0
    2.1900   -4.5816  -11.6858 C   0  0  0  0  0  0  0  0  0  0  0  0
    2.3951   -5.0727  -10.3916 C   0  0  0  0  0  0  0  0  0  0  0  0
    1.7686   -4.4818   -9.2867 C   0  0  0  0  0  0  0  0  0  0  0  0
    2.0064   -5.0012   -7.8844 C   0  0  0  0  0  0  0  0  0  0  0  0
    3.4668   -4.8241   -7.4265 C   0  0  0  0  0  0  0  0  0  0  0  0
    3.7179   -5.2828   -6.0558 N   0  0  0  0  0  0  0  0  0  0  0  0
    3.6376   -4.2816   -4.9807 C   0  0  0  0  0  0  0  0  0  0  0  0
    4.8818   -3.4741   -4.8009 C   0  0  0  0  0  0  0  0  0  0  0  0
    5.9840   -3.6170   -4.0055 C   0  0  0  0  0  0  0  0  0  0  0  0
    6.8643   -2.5328   -4.3348 C   0  0  0  0  0  0  0  0  0  0  0  0
    6.2412   -1.8047   -5.3125 C   0  0  0  0  0  0  0  0  0  0  0  0
    6.6084   -0.5778   -6.0702 C   0  0  0  0  0  0  0  0  0  0  0  0
    5.0352   -2.3728   -5.5992 O   0  0  0  0  0  0  0  0  0  0  0  0
    4.1488   -6.5311   -5.7070 C   0  0  0  0  0  0  0  0  0  0  0  0
    4.4973   -6.7990   -4.5581 O   0  0  0  0  0  0  0  0  0  0  0  0
    4.1613   -7.6415   -6.7701 C   0  0  0  0  0  0  0  0  0  0  0  0
    5.5076   -8.1407   -7.0429 N   0  0  0  0  0  0  0  0  0  0  0  0
    6.1945   -8.9990   -6.0728 C   0  0  0  0  0  0  0  0  0  0  0  0
    5.2870   -9.8307   -5.1632 C   0  0  0  0  0  0  0  0  0  0  0  0
    4.3428  -10.6756   -5.8628 N   0  0  0  0  0  0  0  0  0  0  0  0
    4.8935  -11.7003   -6.7429 C   0  0  0  0  0  0  0  0  0  0  0  0
    3.6808  -12.5858   -7.0940 C   0  0  0  0  0  0  0  0  0  0  0  0
    2.6611  -12.3246   -5.9512 C   0  0  0  0  0  0  0  0  0  0  0  0
    3.4004  -11.3748   -4.9962 C   0  0  0  0  0  0  0  0  0  0  0  0
    6.1374   -7.6232   -8.1624 C   0  0  0  0  0  0  0  0  0  0  0  0
    5.5466   -6.9328   -8.9879 O   0  0  0  0  0  0  0  0  0  0  0  0
    7.4817   -7.9449   -8.2872 N   0  0  0  0  0  0  0  0  0  0  0  0
    8.3589   -7.6328   -9.3396 C   0  0  0  0  0  0  0  0  0  0  0  0
    7.9759   -6.9657  -10.5181 C   0  0  0  0  0  0  0  0  0  0  0  0
    8.9314   -6.7159  -11.5052 C   0  0  0  0  0  0  0  0  0  0  0  0
   10.2645   -7.1072  -11.3616 C   0  0  0  0  0  0  0  0  0  0  0  0
   10.6308   -7.7673  -10.1864 C   0  0  0  0  0  0  0  0  0  0  0  0
   12.2910   -8.2781   -9.9587 Cl  0  0  0  0  0  0  0  0  0  0  0  0
    9.7006   -8.0324   -9.1835 C   0  0  0  0  0  0  0  0  0  0  0  0
    0.9252   -3.3846   -9.5214 C   0  0  0  0  0  0  0  0  0  0  0  0
    0.7040   -2.8800  -10.8038 C   0  0  0  0  0  0  0  0  0  0  0  0
   -0.0850   -1.7732  -10.9433 O   0  0  0  0  0  0  0  0  0  0  0  0
   -1.2891   -1.9141  -11.6808 C   0  0  0  0  0  0  0  0  0  0  0  0
    1.4565   -2.8389  -15.1178 H   0  0  0  0  0  0  0  0  0  0  0  0
    1.4978   -4.5015  -14.4492 H   0  0  0  0  0  0  0  0  0  0  0  0
    2.8734   -3.3832  -14.1645 H   0  0  0  0  0  0  0  0  0  0  0  0
    2.7015   -5.0618  -12.5204 H   0  0  0  0  0  0  0  0  0  0  0  0
    3.0672   -5.9239  -10.2518 H   0  0  0  0  0  0  0  0  0  0  0  0
    1.7479   -6.0735   -7.8321 H   0  0  0  0  0  0  0  0  0  0  0  0
    1.3338   -4.4882   -7.1777 H   0  0  0  0  0  0  0  0  0  0  0  0
    3.7387   -3.7589   -7.4693 H   0  0  0  0  0  0  0  0  0  0  0  0
    4.1490   -5.3388   -8.1160 H   0  0  0  0  0  0  0  0  0  0  0  0
    3.4278   -4.8151   -4.0462 H   0  0  0  0  0  0  0  0  0  0  0  0
    2.7936   -3.6101   -5.2024 H   0  0  0  0  0  0  0  0  0  0  0  0
    6.1422   -4.4144   -3.2831 H   0  0  0  0  0  0  0  0  0  0  0  0
    7.8380   -2.3166   -3.8996 H   0  0  0  0  0  0  0  0  0  0  0  0
    7.5942   -0.2163   -5.7464 H   0  0  0  0  0  0  0  0  0  0  0  0
    5.8742    0.2301   -5.9107 H   0  0  0  0  0  0  0  0  0  0  0  0
    6.6509   -0.7715   -7.1554 H   0  0  0  0  0  0  0  0  0  0  0  0
    3.7303   -7.3336   -7.7248 H   0  0  0  0  0  0  0  0  0  0  0  0
    3.5592   -8.4741   -6.3825 H   0  0  0  0  0  0  0  0  0  0  0  0
    6.8467   -8.4021   -5.4073 H   0  0  0  0  0  0  0  0  0  0  0  0
    6.8376   -9.6969   -6.6333 H   0  0  0  0  0  0  0  0  0  0  0  0
    4.7353   -9.1474   -4.5019 H   0  0  0  0  0  0  0  0  0  0  0  0
    5.9711  -10.4261   -4.5115 H   0  0  0  0  0  0  0  0  0  0  0  0
    5.6737  -12.3034   -6.2203 H   0  0  0  0  0  0  0  0  0  0  0  0
    5.3646  -11.2548   -7.6331 H   0  0  0  0  0  0  0  0  0  0  0  0
    3.9700  -13.6446   -7.1690 H   0  0  0  0  0  0  0  0  0  0  0  0
    3.2569  -12.2965   -8.0670 H   0  0  0  0  0  0  0  0  0  0  0  0
    2.3431  -13.2471   -5.4432 H   0  0  0  0  0  0  0  0  0  0  0  0
    1.7556  -11.8401   -6.3462 H   0  0  0  0  0  0  0  0  0  0  0  0
    3.9331  -11.9564   -4.2070 H   0  0  0  0  0  0  0  0  0  0  0  0
    2.7368  -10.6620   -4.4805 H   0  0  0  0  0  0  0  0  0  0  0  0
    7.9216   -8.4036   -7.5016 H   0  0  0  0  0  0  0  0  0  0  0  0
    6.9439   -6.6489  -10.6381 H   0  0  0  0  0  0  0  0  0  0  0  0
    8.6242   -6.1960  -12.4165 H   0  0  0  0  0  0  0  0  0  0  0  0
   11.0064   -6.9080  -12.1356 H   0  0  0  0  0  0  0  0  0  0  0  0
   10.0243   -8.5521   -8.2787 H   0  0  0  0  0  0  0  0  0  0  0  0
    0.4130   -2.8836   -8.6959 H   0  0  0  0  0  0  0  0  0  0  0  0
   -1.8089   -0.9471  -11.6221 H   0  0  0  0  0  0  0  0  0  0  0  0
   -1.9382   -2.6933  -11.2397 H   0  0  0  0  0  0  0  0  0  0  0  0
   -1.0989   -2.1591  -12.7375 H   0  0  0  0  0  0  0  0  0  0  0  0
  1  2  1  0
  1 42  1  0
  1 43  1  0
  1 44  1  0
  2  3  1  0
  3  4  2  0
  3 39  1  0
  4  5  1  0
  4 45  1  0
  5  6  2  0
  5 46  1  0
  6  7  1  0
  6 38  1  0
  7  8  1  0
  7 47  1  0
  7 48  1  0
  8  9  1  0
  8 49  1  0
  8 50  1  0
  9 10  1  0
  9 17  1  0
 10 11  1  0
 10 51  1  0
 10 52  1  0
 11 12  2  0
 11 16  1  0
 12 13  1  0
 12 53  1  0
 13 14  2  0
 13 54  1  0
 14 15  1  0
 14 16  1  0
 15 55  1  0
 15 56  1  0
 15 57  1  0
 17 18  2  0
 17 19  1  0
 19 20  1  0
 19 58  1  0
 19 59  1  0
 20 21  1  0
 20 28  1  0
 21 22  1  0
 21 60  1  0
 21 61  1  0
 22 23  1  0
 22 62  1  0
 22 63  1  0
 23 24  1  0
 23 27  1  0
 24 25  1  0
 24 64  1  0
 24 65  1  0
 25 26  1  0
 25 66  1  0
 25 67  1  0
 26 27  1  0
 26 68  1  0
 26 69  1  0
 27 70  1  0
 27 71  1  0
 28 29  2  0
 28 30  1  0
 30 31  1  0
 30 72  1  0
 31 32  2  0
 31 37  1  0
 32 33  1  0
 32 73  1  0
 33 34  2  0
 33 74  1  0
 34 35  1  0
 34 75  1  0
 35 36  1  0
 35 37  2  0
 37 76  1  0
 38 39  2  0
 38 77  1  0
 39 40  1  0
 40 41  1  0
 41 78  1  0
 41 79  1  0
 41 80  1  0
M  END

