
     RDKit          3D

 55 59  0  0  0  0  0  0  0  0999 V2000
    2.1073   -1.1159   -1.1781 O   0  0  0  0  0  0  0  0  0  0  0  0
    2.0625   -0.1528   -0.4245 C   0  0  0  0  0  0  0  0  0  0  0  0
    2.9466    0.8921   -0.5258 N   0  0  0  0  0  0  0  0  0  0  0  0
    3.9586    0.8706   -1.5809 C   0  0  0  0  0  0  0  0  0  0  0  0
    3.9232    2.1640   -2.4037 C   0  0  0  0  0  0  0  0  0  0  0  0
    4.0219    3.4346   -1.5346 C   0  0  2  0  0  0  0  0  0  0  0  0
    5.4695    3.6481   -1.0450 C   0  0  0  0  0  0  0  0  0  0  0  0
    5.6621    4.8897   -0.2883 N   0  0  0  0  0  0  0  0  0  0  0  0
    5.6856    4.7709    1.0384 N   0  0  0  0  0  0  0  0  0  0  0  0
    5.8611    5.8376    1.7866 C   0  0  0  0  0  0  0  0  0  0  0  0
    5.8915    5.6344    3.2409 C   0  0  0  0  0  0  0  0  0  0  0  0
    5.8454    4.4384    3.9298 C   0  0  0  0  0  0  0  0  0  0  0  0
    5.8917    4.6026    5.3423 C   0  0  0  0  0  0  0  0  0  0  0  0
    5.9728    5.9202    5.7223 C   0  0  0  0  0  0  0  0  0  0  0  0
    5.9918    6.9765    4.3559 S   0  0  0  0  0  0  0  0  0  0  0  0
    6.0260    7.1361    1.1859 C   0  0  0  0  0  0  0  0  0  0  0  0
    6.0002    7.2562   -0.1668 C   0  0  0  0  0  0  0  0  0  0  0  0
    5.8025    6.0922   -1.0185 C   0  0  0  0  0  0  0  0  0  0  0  0
    5.7558    6.0937   -2.2398 O   0  0  0  0  0  0  0  0  0  0  0  0
    2.9819    3.3601   -0.4000 C   0  0  0  0  0  0  0  0  0  0  0  0
    3.0363    2.0373    0.3748 C   0  0  0  0  0  0  0  0  0  0  0  0
    0.9816   -0.0589    0.6593 C   0  0  1  0  0  0  0  0  0  0  0  0
   -0.0955    0.9590    0.3783 C   0  0  0  0  0  0  0  0  0  0  0  0
   -0.6772    0.9911   -0.9032 C   0  0  0  0  0  0  0  0  0  0  0  0
   -1.6910    1.8954   -1.2180 C   0  0  0  0  0  0  0  0  0  0  0  0
   -2.1448    2.7866   -0.2398 C   0  0  0  0  0  0  0  0  0  0  0  0
   -3.4184    3.9231   -0.6240 Cl  0  0  0  0  0  0  0  0  0  0  0  0
   -1.5883    2.7750    1.0401 C   0  0  0  0  0  0  0  0  0  0  0  0
   -0.5685    1.8657    1.3382 C   0  0  0  0  0  0  0  0  0  0  0  0
    0.5681   -1.3915    1.2446 C   0  0  0  0  0  0  0  0  0  0  0  0
    1.3839   -0.4386    2.0708 C   0  0  0  0  0  0  0  0  0  0  0  0
    3.7619   -0.0076   -2.2073 H   0  0  0  0  0  0  0  0  0  0  0  0
    4.9557    0.7278   -1.1211 H   0  0  0  0  0  0  0  0  0  0  0  0
    2.9737    2.1945   -2.9638 H   0  0  0  0  0  0  0  0  0  0  0  0
    4.7316    2.1442   -3.1539 H   0  0  0  0  0  0  0  0  0  0  0  0
    3.7873    4.3019   -2.1714 H   0  0  0  0  0  0  0  0  0  0  0  0
    6.1296    3.7029   -1.9220 H   0  0  0  0  0  0  0  0  0  0  0  0
    5.8130    2.8393   -0.3878 H   0  0  0  0  0  0  0  0  0  0  0  0
    5.7851    3.4784    3.4179 H   0  0  0  0  0  0  0  0  0  0  0  0
    5.8690    3.7751    6.0532 H   0  0  0  0  0  0  0  0  0  0  0  0
    6.0236    6.3336    6.7285 H   0  0  0  0  0  0  0  0  0  0  0  0
    6.1771    8.0133    1.8199 H   0  0  0  0  0  0  0  0  0  0  0  0
    6.1244    8.2136   -0.6758 H   0  0  0  0  0  0  0  0  0  0  0  0
    1.9757    3.4648   -0.8390 H   0  0  0  0  0  0  0  0  0  0  0  0
    3.1090    4.1960    0.3058 H   0  0  0  0  0  0  0  0  0  0  0  0
    2.2240    1.9987    1.1067 H   0  0  0  0  0  0  0  0  0  0  0  0
    3.9824    1.9735    0.9465 H   0  0  0  0  0  0  0  0  0  0  0  0
   -0.3317    0.2849   -1.6626 H   0  0  0  0  0  0  0  0  0  0  0  0
   -2.1360    1.9102   -2.2144 H   0  0  0  0  0  0  0  0  0  0  0  0
   -1.9480    3.4757    1.7955 H   0  0  0  0  0  0  0  0  0  0  0  0
   -0.1372    1.8762    2.3416 H   0  0  0  0  0  0  0  0  0  0  0  0
    1.0488   -2.2770    0.8223 H   0  0  0  0  0  0  0  0  0  0  0  0
   -0.4879   -1.5120    1.4984 H   0  0  0  0  0  0  0  0  0  0  0  0
    2.4380   -0.6765    2.2418 H   0  0  0  0  0  0  0  0  0  0  0  0
    0.9043    0.0682    2.9125 H   0  0  0  0  0  0  0  0  0  0  0  0
  1  2  2  0
  2  3  1  0
 22  2  1  6
  3  4  1  0
  3 21  1  0
  4  5  1  0
  4 32  1  0
  4 33  1  0
  5  6  1  0
  5 34  1  0
  5 35  1  0
  6  7  1  0
  6 20  1  0
  6 36  1  6
  7  8  1  0
  7 37  1  0
  7 38  1  0
  8  9  1  0
  8 18  1  0
  9 10  2  0
 10 11  1  0
 10 16  1  0
 11 12  2  0
 11 15  1  0
 12 13  1  0
 12 39  1  0
 13 14  2  0
 13 40  1  0
 14 15  1  0
 14 41  1  0
 16 17  2  0
 16 42  1  0
 17 18  1  0
 17 43  1  0
 18 19  2  0
 20 21  1  0
 20 44  1  0
 20 45  1  0
 21 46  1  0
 21 47  1  0
 22 23  1  0
 22 30  1  0
 22 31  1  0
 23 24  2  0
 23 29  1  0
 24 25  1  0
 24 48  1  0
 25 26  2  0
 25 49  1  0
 26 27  1  0
 26 28  1  0
 28 29  2  0
 28 50  1  0
 29 51  1  0
 30 31  1  0
 30 52  1  0
 30 53  1  0
 31 54  1  0
 31 55  1  0
M  END

