
     RDKit          3D

 63 70  0  0  0  0  0  0  0  0999 V2000
    4.4634    0.4513    1.4870 O   0  0  0  0  0  0  0  0  0  0  0  0
    3.4941    0.6582    0.7789 C   0  0  0  0  0  0  0  0  0  0  0  0
    2.1133    0.4011    1.3306 C   0  0  0  0  0  0  0  0  0  0  0  0
    1.9013    0.5760    2.7061 C   0  0  0  0  0  0  0  0  0  0  0  0
    0.6443    0.2832    3.2378 C   0  0  0  0  0  0  0  0  0  0  0  0
   -0.3741   -0.1837    2.5079 N   0  0  0  0  0  0  0  0  0  0  0  0
   -0.1650   -0.3765    1.2049 C   0  0  0  0  0  0  0  0  0  0  0  0
    1.0482   -0.0958    0.5657 C   0  0  0  0  0  0  0  0  0  0  0  0
    3.6728    1.1612   -0.6232 C   0  0  0  0  0  0  0  0  0  0  0  0
    4.9245    0.9629   -1.2344 C   0  0  0  0  0  0  0  0  0  0  0  0
    5.1822    1.4493   -2.5113 C   0  0  0  0  0  0  0  0  0  0  0  0
    4.1899    2.1615   -3.2090 C   0  0  0  0  0  0  0  0  0  0  0  0
    4.4483    2.6578   -4.5091 N   0  0  0  0  0  0  0  0  0  0  0  0
    4.9181    1.9059   -5.5960 C   0  0  0  0  0  0  0  0  0  0  0  0
    5.1977    0.5361   -5.6806 C   0  0  0  0  0  0  0  0  0  0  0  0
    5.6323    0.0348   -6.9083 C   0  0  0  0  0  0  0  0  0  0  0  0
    5.7817    0.8692   -8.0319 C   0  0  0  0  0  0  0  0  0  0  0  0
    5.4870    2.2288   -7.9480 C   0  0  0  0  0  0  0  0  0  0  0  0
    5.0482    2.7571   -6.7254 C   0  0  0  0  0  0  0  0  0  0  0  0
    4.6419    4.0824   -6.2997 C   0  0  0  0  0  0  0  0  0  0  0  0
    4.5875    5.3226   -6.9471 C   0  0  0  0  0  0  0  0  0  0  0  0
    4.1598    6.4468   -6.2342 C   0  0  0  0  0  0  0  0  0  0  0  0
    4.0799    7.7129   -6.8786 N   0  0  0  0  0  0  0  0  0  0  0  0
    3.2490    8.0299   -7.9560 C   0  0  0  0  0  0  0  0  0  0  0  0
    2.3187    7.2272   -8.6287 C   0  0  0  0  0  0  0  0  0  0  0  0
    1.5991    7.8029   -9.6766 C   0  0  0  0  0  0  0  0  0  0  0  0
    1.7938    9.1465  -10.0498 C   0  0  0  0  0  0  0  0  0  0  0  0
    2.7145    9.9444   -9.3718 C   0  0  0  0  0  0  0  0  0  0  0  0
    3.4510    9.3914   -8.3138 C   0  0  0  0  0  0  0  0  0  0  0  0
    4.4527    9.9163   -7.4062 C   0  0  0  0  0  0  0  0  0  0  0  0
    5.0711   11.1669   -7.2610 C   0  0  0  0  0  0  0  0  0  0  0  0
    6.0338   11.3382   -6.2671 C   0  0  0  0  0  0  0  0  0  0  0  0
    6.3877   10.2697   -5.4212 C   0  0  0  0  0  0  0  0  0  0  0  0
    5.7885    9.0154   -5.5436 C   0  0  0  0  0  0  0  0  0  0  0  0
    4.8148    8.8506   -6.5372 C   0  0  0  0  0  0  0  0  0  0  0  0
    3.8081    6.3316   -4.8717 C   0  0  0  0  0  0  0  0  0  0  0  0
    3.8750    5.1098   -4.2044 C   0  0  0  0  0  0  0  0  0  0  0  0
    4.2784    3.9817   -4.9300 C   0  0  0  0  0  0  0  0  0  0  0  0
    2.9445    2.3810   -2.5998 C   0  0  0  0  0  0  0  0  0  0  0  0
    2.6916    1.8873   -1.3197 C   0  0  0  0  0  0  0  0  0  0  0  0
    2.7160    0.9316    3.3395 H   0  0  0  0  0  0  0  0  0  0  0  0
    0.4531    0.4284    4.3074 H   0  0  0  0  0  0  0  0  0  0  0  0
   -1.0062   -0.7779    0.6271 H   0  0  0  0  0  0  0  0  0  0  0  0
    1.1576   -0.2900   -0.5029 H   0  0  0  0  0  0  0  0  0  0  0  0
    5.6966    0.4315   -0.6747 H   0  0  0  0  0  0  0  0  0  0  0  0
    6.1609    1.3010   -2.9709 H   0  0  0  0  0  0  0  0  0  0  0  0
    5.0763   -0.1248   -4.8214 H   0  0  0  0  0  0  0  0  0  0  0  0
    5.8582   -1.0309   -6.9965 H   0  0  0  0  0  0  0  0  0  0  0  0
    6.1258    0.4442   -8.9775 H   0  0  0  0  0  0  0  0  0  0  0  0
    5.5917    2.8743   -8.8235 H   0  0  0  0  0  0  0  0  0  0  0  0
    4.8823    5.4241   -7.9934 H   0  0  0  0  0  0  0  0  0  0  0  0
    2.1586    6.1863   -8.3424 H   0  0  0  0  0  0  0  0  0  0  0  0
    0.8679    7.1959  -10.2167 H   0  0  0  0  0  0  0  0  0  0  0  0
    1.2150    9.5658  -10.8762 H   0  0  0  0  0  0  0  0  0  0  0  0
    2.8595   10.9891   -9.6588 H   0  0  0  0  0  0  0  0  0  0  0  0
    4.8030   11.9957   -7.9213 H   0  0  0  0  0  0  0  0  0  0  0  0
    6.5219   12.3079   -6.1437 H   0  0  0  0  0  0  0  0  0  0  0  0
    7.1500   10.4227   -4.6528 H   0  0  0  0  0  0  0  0  0  0  0  0
    6.0728    8.1905   -4.8881 H   0  0  0  0  0  0  0  0  0  0  0  0
    3.4756    7.2234   -4.3370 H   0  0  0  0  0  0  0  0  0  0  0  0
    3.6136    5.0457   -3.1475 H   0  0  0  0  0  0  0  0  0  0  0  0
    2.1698    2.9291   -3.1386 H   0  0  0  0  0  0  0  0  0  0  0  0
    1.7217    2.0832   -0.8599 H   0  0  0  0  0  0  0  0  0  0  0  0
  1  2  2  0
  2  3  1  0
  2  9  1  0
  3  4  2  0
  3  8  1  0
  4  5  1  0
  4 41  1  0
  5  6  2  0
  5 42  1  0
  6  7  1  0
  7  8  2  0
  7 43  1  0
  8 44  1  0
  9 10  2  0
  9 40  1  0
 10 11  1  0
 10 45  1  0
 11 12  2  0
 11 46  1  0
 12 13  1  0
 12 39  1  0
 13 14  1  0
 13 38  1  0
 14 15  2  0
 14 19  1  0
 15 16  1  0
 15 47  1  0
 16 17  2  0
 16 48  1  0
 17 18  1  0
 17 49  1  0
 18 19  2  0
 18 50  1  0
 19 20  1  0
 20 21  1  0
 20 38  2  0
 21 22  2  0
 21 51  1  0
 22 23  1  0
 22 36  1  0
 23 24  1  0
 23 35  1  0
 24 25  2  0
 24 29  1  0
 25 26  1  0
 25 52  1  0
 26 27  2  0
 26 53  1  0
 27 28  1  0
 27 54  1  0
 28 29  2  0
 28 55  1  0
 29 30  1  0
 30 31  1  0
 30 35  2  0
 31 32  2  0
 31 56  1  0
 32 33  1  0
 32 57  1  0
 33 34  2  0
 33 58  1  0
 34 35  1  0
 34 59  1  0
 36 37  2  0
 36 60  1  0
 37 38  1  0
 37 61  1  0
 39 40  2  0
 39 62  1  0
 40 63  1  0
M  END

