
     RDKit          3D

 63 68  0  0  0  0  0  0  0  0999 V2000
    1.9706   -1.8621   -0.4726 C   0  0  0  0  0  0  0  0  0  0  0  0
    1.7259   -0.4674   -1.0641 C   0  0  1  0  0  0  0  0  0  0  0  0
    0.1923   -0.2418   -1.0782 C   0  0  0  0  0  0  0  0  0  0  0  0
   -0.5085   -0.7504   -1.9339 O   0  0  0  0  0  0  0  0  0  0  0  0
   -0.2481    0.5069   -0.0173 N   0  0  0  0  0  0  0  0  0  0  0  0
   -1.5481    0.8687    0.3479 C   0  0  0  0  0  0  0  0  0  0  0  0
   -2.6842    0.4694   -0.3871 C   0  0  0  0  0  0  0  0  0  0  0  0
   -3.9596    0.8656    0.0312 C   0  0  0  0  0  0  0  0  0  0  0  0
   -4.0958    1.6502    1.1705 C   0  0  0  0  0  0  0  0  0  0  0  0
   -2.9625    2.0518    1.9116 C   0  0  0  0  0  0  0  0  0  0  0  0
   -1.6925    1.6679    1.5091 C   0  0  0  0  0  0  0  0  0  0  0  0
   -3.4187    2.8708    3.0636 C   0  0  0  0  0  0  0  0  0  0  0  0
   -2.7178    3.5003    4.0894 C   0  0  0  0  0  0  0  0  0  0  0  0
   -3.4429    4.2173    5.0565 C   0  0  0  0  0  0  0  0  0  0  0  0
   -4.8389    4.3035    4.9999 C   0  0  0  0  0  0  0  0  0  0  0  0
   -5.5465    3.6692    3.9665 C   0  0  0  0  0  0  0  0  0  0  0  0
   -4.8263    2.9617    3.0131 C   0  0  0  0  0  0  0  0  0  0  0  0
   -5.3278    2.1968    1.8168 C   0  0  0  0  0  0  0  0  0  0  0  0
   -6.4807    2.0617    1.4638 O   0  0  0  0  0  0  0  0  0  0  0  0
    2.4067    0.6248   -0.3557 N   0  0  0  0  0  0  0  0  0  0  0  0
    3.6968    0.3651    0.2962 C   0  0  0  0  0  0  0  0  0  0  0  0
    4.8930    0.3397   -0.6682 C   0  0  0  0  0  0  0  0  0  0  0  0
    4.9995    1.5930   -1.5608 C   0  0  2  0  0  0  0  0  0  0  0  0
    5.4869    2.8604   -0.9341 N   0  0  0  0  0  0  0  0  0  0  0  0
    5.9191    2.9504    0.3963 C   0  0  0  0  0  0  0  0  0  0  0  0
    6.1331    2.0155    1.1268 O   0  0  0  0  0  0  0  0  0  0  0  0
    6.1174    4.2056    0.8618 O   0  0  0  0  0  0  0  0  0  0  0  0
    5.4925    5.3017    0.1937 C   0  0  0  0  0  0  0  0  0  0  0  0
    5.8119    5.2395   -1.2650 C   0  0  0  0  0  0  0  0  0  0  0  0
    6.1240    6.3446   -2.0561 C   0  0  0  0  0  0  0  0  0  0  0  0
    6.3839    6.1848   -3.4200 C   0  0  0  0  0  0  0  0  0  0  0  0
    6.3415    4.9039   -3.9738 C   0  0  0  0  0  0  0  0  0  0  0  0
    6.0468    3.7875   -3.1851 C   0  0  0  0  0  0  0  0  0  0  0  0
    5.7770    3.9459   -1.8155 C   0  0  0  0  0  0  0  0  0  0  0  0
    3.6136    1.8340   -2.2037 C   0  0  0  0  0  0  0  0  0  0  0  0
    2.4910    1.8548   -1.1548 C   0  0  0  0  0  0  0  0  0  0  0  0
    1.3296   -2.5824   -0.9999 H   0  0  0  0  0  0  0  0  0  0  0  0
    1.7169   -1.8947    0.5987 H   0  0  0  0  0  0  0  0  0  0  0  0
    3.0141   -2.1861   -0.5967 H   0  0  0  0  0  0  0  0  0  0  0  0
    1.9975   -0.5132   -2.1370 H   0  0  0  0  0  0  0  0  0  0  0  0
    0.5306    0.8561    0.5458 H   0  0  0  0  0  0  0  0  0  0  0  0
   -2.5445   -0.1441   -1.2744 H   0  0  0  0  0  0  0  0  0  0  0  0
   -4.8461    0.5620   -0.5313 H   0  0  0  0  0  0  0  0  0  0  0  0
   -0.8043    1.9689    2.0718 H   0  0  0  0  0  0  0  0  0  0  0  0
   -1.6280    3.4439    4.1511 H   0  0  0  0  0  0  0  0  0  0  0  0
   -2.9060    4.7160    5.8677 H   0  0  0  0  0  0  0  0  0  0  0  0
   -5.3775    4.8675    5.7655 H   0  0  0  0  0  0  0  0  0  0  0  0
   -6.6362    3.7215    3.9014 H   0  0  0  0  0  0  0  0  0  0  0  0
    3.6492   -0.5773    0.8565 H   0  0  0  0  0  0  0  0  0  0  0  0
    3.8572    1.1507    1.0500 H   0  0  0  0  0  0  0  0  0  0  0  0
    4.7626   -0.4988   -1.3749 H   0  0  0  0  0  0  0  0  0  0  0  0
    5.8199    0.1612   -0.1141 H   0  0  0  0  0  0  0  0  0  0  0  0
    5.7240    1.3436   -2.3515 H   0  0  0  0  0  0  0  0  0  0  0  0
    5.8737    6.2135    0.6725 H   0  0  0  0  0  0  0  0  0  0  0  0
    4.3994    5.2531    0.3682 H   0  0  0  0  0  0  0  0  0  0  0  0
    6.1571    7.3379   -1.5997 H   0  0  0  0  0  0  0  0  0  0  0  0
    6.6201    7.0505   -4.0424 H   0  0  0  0  0  0  0  0  0  0  0  0
    6.5483    4.7610   -5.0373 H   0  0  0  0  0  0  0  0  0  0  0  0
    6.0344    2.8039   -3.6521 H   0  0  0  0  0  0  0  0  0  0  0  0
    3.4314    1.0240   -2.9298 H   0  0  0  0  0  0  0  0  0  0  0  0
    3.5988    2.7709   -2.7801 H   0  0  0  0  0  0  0  0  0  0  0  0
    1.5222    2.0391   -1.6447 H   0  0  0  0  0  0  0  0  0  0  0  0
    2.6577    2.7009   -0.4647 H   0  0  0  0  0  0  0  0  0  0  0  0
  1  2  1  0
  1 37  1  0
  1 38  1  0
  1 39  1  0
  2  3  1  0
  2 20  1  0
  2 40  1  6
  3  4  2  0
  3  5  1  0
  5  6  1  0
  5 41  1  0
  6  7  2  0
  6 11  1  0
  7  8  1  0
  7 42  1  0
  8  9  2  0
  8 43  1  0
  9 10  1  0
  9 18  1  0
 10 11  2  0
 10 12  1  0
 11 44  1  0
 12 13  2  0
 12 17  1  0
 13 14  1  0
 13 45  1  0
 14 15  2  0
 14 46  1  0
 15 16  1  0
 15 47  1  0
 16 17  2  0
 16 48  1  0
 17 18  1  0
 18 19  2  0
 20 21  1  0
 20 36  1  0
 21 22  1  0
 21 49  1  0
 21 50  1  0
 22 23  1  0
 22 51  1  0
 22 52  1  0
 23 24  1  0
 23 35  1  0
 23 53  1  6
 24 25  1  0
 24 34  1  0
 25 26  2  0
 25 27  1  0
 27 28  1  0
 28 29  1  0
 28 54  1  0
 28 55  1  0
 29 30  2  0
 29 34  1  0
 30 31  1  0
 30 56  1  0
 31 32  2  0
 31 57  1  0
 32 33  1  0
 32 58  1  0
 33 34  2  0
 33 59  1  0
 35 36  1  0
 35 60  1  0
 35 61  1  0
 36 62  1  0
 36 63  1  0
M  END

