
     RDKit          3D

 39 44  0  0  0  0  0  0  0  0999 V2000
    3.1874    0.0407    1.8399 C   0  0  0  0  0  0  0  0  0  0  0  0
    2.5369   -0.2319    0.4816 C   0  0  0  0  0  0  0  0  0  0  0  0
    3.4976   -0.3038   -0.6265 N   0  0  0  0  0  0  0  0  0  0  0  0
    4.2901    0.8001   -0.9365 C   0  0  0  0  0  0  0  0  0  0  0  0
    4.1698    2.2157   -0.8226 C   0  0  0  0  0  0  0  0  0  0  0  0
    5.3131    2.8317   -1.2742 C   0  0  0  0  0  0  0  0  0  0  0  0
    6.5407    1.7163   -1.8287 S   0  0  0  0  0  0  0  0  0  0  0  0
    5.5145    0.3719   -1.4492 C   0  0  0  0  0  0  0  0  0  0  0  0
    5.5114   -1.0521   -1.4497 C   0  0  0  0  0  0  0  0  0  0  0  0
    6.5131   -2.0432   -1.7137 C   0  0  0  0  0  0  0  0  0  0  0  0
    7.7586   -1.8337   -2.1212 N   0  0  0  0  0  0  0  0  0  0  0  0
    8.5038   -3.3092   -2.1683 S   0  0  0  0  0  0  0  0  0  0  0  0
    7.2445   -4.2568   -1.6673 N   0  0  0  0  0  0  0  0  0  0  0  0
    6.2145   -3.4480   -1.4526 C   0  0  0  0  0  0  0  0  0  0  0  0
    4.8827   -3.8245   -1.0786 C   0  0  0  0  0  0  0  0  0  0  0  0
    4.2292   -5.0773   -0.9010 C   0  0  0  0  0  0  0  0  0  0  0  0
    4.5595   -6.7787   -0.8923 S   0  0  0  0  0  0  0  0  0  0  0  0
    2.8626   -7.1241   -0.6475 C   0  0  0  0  0  0  0  0  0  0  0  0
    2.0750   -5.9996   -0.5713 C   0  0  0  0  0  0  0  0  0  0  0  0
    2.8711   -4.8253   -0.7077 C   0  0  0  0  0  0  0  0  0  0  0  0
    2.6382   -3.4513   -0.7374 N   0  0  0  0  0  0  0  0  0  0  0  0
    1.3577   -2.9335   -1.2359 C   0  0  0  0  0  0  0  0  0  0  0  0
    1.0736   -3.3012   -2.6940 C   0  0  0  0  0  0  0  0  0  0  0  0
    3.8799   -2.8338   -0.9300 C   0  0  0  0  0  0  0  0  0  0  0  0
    4.2340   -1.4423   -0.9750 C   0  0  0  0  0  0  0  0  0  0  0  0
    2.4148    0.0683    2.6249 H   0  0  0  0  0  0  0  0  0  0  0  0
    3.7206    1.0027    1.8511 H   0  0  0  0  0  0  0  0  0  0  0  0
    3.9062   -0.7531    2.0957 H   0  0  0  0  0  0  0  0  0  0  0  0
    1.7984    0.5507    0.2407 H   0  0  0  0  0  0  0  0  0  0  0  0
    1.9922   -1.1804    0.5312 H   0  0  0  0  0  0  0  0  0  0  0  0
    3.3021    2.7578   -0.4460 H   0  0  0  0  0  0  0  0  0  0  0  0
    5.5066    3.9022   -1.3287 H   0  0  0  0  0  0  0  0  0  0  0  0
    2.5406   -8.1608   -0.5578 H   0  0  0  0  0  0  0  0  0  0  0  0
    0.9963   -6.0292   -0.4158 H   0  0  0  0  0  0  0  0  0  0  0  0
    1.3620   -1.8430   -1.1375 H   0  0  0  0  0  0  0  0  0  0  0  0
    0.5588   -3.3123   -0.5770 H   0  0  0  0  0  0  0  0  0  0  0  0
    1.8574   -2.9037   -3.3574 H   0  0  0  0  0  0  0  0  0  0  0  0
    0.1095   -2.8693   -3.0069 H   0  0  0  0  0  0  0  0  0  0  0  0
    1.0229   -4.3906   -2.8377 H   0  0  0  0  0  0  0  0  0  0  0  0
  1  2  1  0
  1 26  1  0
  1 27  1  0
  1 28  1  0
  2  3  1  0
  2 29  1  0
  2 30  1  0
  3  4  1  0
  3 25  1  0
  4  5  1  0
  4  8  2  0
  5  6  2  0
  5 31  1  0
  6  7  1  0
  6 32  1  0
  7  8  1  0
  8  9  1  0
  9 10  1  0
  9 25  2  0
 10 11  2  0
 10 14  1  0
 11 12  1  0
 12 13  1  0
 13 14  2  0
 14 15  1  0
 15 16  1  0
 15 24  2  0
 16 17  1  0
 16 20  2  0
 17 18  1  0
 18 19  2  0
 18 33  1  0
 19 20  1  0
 19 34  1  0
 20 21  1  0
 21 22  1  0
 21 24  1  0
 22 23  1  0
 22 35  1  0
 22 36  1  0
 23 37  1  0
 23 38  1  0
 23 39  1  0
 24 25  1  0
M  END

