
     RDKit          3D

 41 41  0  0  0  0  0  0  0  0999 V2000
    0.9826    0.3915    0.1239 C   0  0  0  0  0  0  0  0  0  0  0  0
    2.5042    0.3010    0.2459 C   0  0  0  0  0  0  0  0  0  0  0  0
    2.9806   -0.8830    1.0947 C   0  0  0  0  0  0  0  0  0  0  0  0
    4.5048   -0.9755    1.2030 C   0  0  0  0  0  0  0  0  0  0  0  0
    5.0428   -2.0701    2.1388 C   0  0  1  0  0  0  0  0  0  0  0  0
    4.6407   -3.4769    1.6825 C   0  0  0  0  0  0  0  0  0  0  0  0
    6.5027   -1.9486    2.1973 N   0  0  0  0  0  0  0  0  0  0  0  0
    7.1470   -2.5729    3.3403 C   0  0  0  0  0  0  0  0  0  0  0  0
    8.6576   -2.5105    3.2564 C   0  0  0  0  0  0  0  0  0  0  0  0
    9.3431   -2.3357    2.0479 C   0  0  0  0  0  0  0  0  0  0  0  0
   10.7393   -2.3001    2.0004 C   0  0  0  0  0  0  0  0  0  0  0  0
   11.4992   -2.4488    3.1721 C   0  0  0  0  0  0  0  0  0  0  0  0
   12.9828   -2.4125    3.1372 C   0  0  0  0  0  0  0  0  0  0  0  0
   13.6177   -2.6532    1.9375 N   0  0  0  0  0  0  0  0  0  0  0  0
   13.6059   -2.1050    4.2280 N   0  0  0  0  0  0  0  0  0  0  0  0
   14.9954   -2.1551    4.0283 O   0  0  0  0  0  0  0  0  0  0  0  0
   10.8281   -2.6253    4.3940 C   0  0  0  0  0  0  0  0  0  0  0  0
    9.4421   -2.6516    4.4104 C   0  0  0  0  0  0  0  0  0  0  0  0
    8.8165   -2.8330    5.5906 F   0  0  0  0  0  0  0  0  0  0  0  0
    0.6760    1.2529   -0.4907 H   0  0  0  0  0  0  0  0  0  0  0  0
    0.5067    0.5025    1.1128 H   0  0  0  0  0  0  0  0  0  0  0  0
    0.5627   -0.5157   -0.3424 H   0  0  0  0  0  0  0  0  0  0  0  0
    2.8964    1.2395    0.6785 H   0  0  0  0  0  0  0  0  0  0  0  0
    2.9520    0.2271   -0.7619 H   0  0  0  0  0  0  0  0  0  0  0  0
    2.5747   -1.8152    0.6642 H   0  0  0  0  0  0  0  0  0  0  0  0
    2.5438   -0.8027    2.1078 H   0  0  0  0  0  0  0  0  0  0  0  0
    4.8891   -0.0015    1.5612 H   0  0  0  0  0  0  0  0  0  0  0  0
    4.9465   -1.1270    0.2012 H   0  0  0  0  0  0  0  0  0  0  0  0
    4.5944   -1.8978    3.1453 H   0  0  0  0  0  0  0  0  0  0  0  0
    5.0025   -3.6637    0.6584 H   0  0  0  0  0  0  0  0  0  0  0  0
    3.5482   -3.6070    1.7012 H   0  0  0  0  0  0  0  0  0  0  0  0
    5.0677   -4.2523    2.3369 H   0  0  0  0  0  0  0  0  0  0  0  0
    6.7603   -0.9622    2.1738 H   0  0  0  0  0  0  0  0  0  0  0  0
    6.8468   -3.6355    3.3796 H   0  0  0  0  0  0  0  0  0  0  0  0
    6.8235   -2.1472    4.3145 H   0  0  0  0  0  0  0  0  0  0  0  0
    8.7516   -2.2176    1.1384 H   0  0  0  0  0  0  0  0  0  0  0  0
   11.2398   -2.1275    1.0457 H   0  0  0  0  0  0  0  0  0  0  0  0
   13.1713   -3.3117    1.3102 H   0  0  0  0  0  0  0  0  0  0  0  0
   14.6247   -2.7511    2.0163 H   0  0  0  0  0  0  0  0  0  0  0  0
   15.3434   -1.9026    4.8916 H   0  0  0  0  0  0  0  0  0  0  0  0
   11.3888   -2.7416    5.3214 H   0  0  0  0  0  0  0  0  0  0  0  0
  1  2  1  0
  1 20  1  0
  1 21  1  0
  1 22  1  0
  2  3  1  0
  2 23  1  0
  2 24  1  0
  3  4  1  0
  3 25  1  0
  3 26  1  0
  4  5  1  0
  4 27  1  0
  4 28  1  0
  5  6  1  0
  5  7  1  0
  5 29  1  1
  6 30  1  0
  6 31  1  0
  6 32  1  0
  7  8  1  0
  7 33  1  0
  8  9  1  0
  8 34  1  0
  8 35  1  0
  9 10  2  0
  9 18  1  0
 10 11  1  0
 10 36  1  0
 11 12  2  0
 11 37  1  0
 12 13  1  0
 12 17  1  0
 13 14  1  0
 13 15  2  0
 14 38  1  0
 14 39  1  0
 15 16  1  0
 16 40  1  0
 17 18  2  0
 17 41  1  0
 18 19  1  0
M  END

