
     RDKit          3D

 50 52  0  0  0  0  0  0  0  0999 V2000
   -0.7467   -4.0620   -8.4151 C   0  0  0  0  0  0  0  0  0  0  0  0
   -0.9713   -4.4820   -6.9595 C   0  0  1  0  0  0  0  0  0  0  0  0
   -2.2162   -5.3576   -6.7836 C   0  0  0  0  0  0  0  0  0  0  0  0
    0.2174   -5.1717   -6.4399 N   0  0  0  0  0  0  0  0  0  0  0  0
    0.6530   -6.2824   -7.0700 N   0  0  0  0  0  0  0  0  0  0  0  0
    1.7132   -6.6872   -6.3822 C   0  0  0  0  0  0  0  0  0  0  0  0
    1.9879   -5.8472   -5.2794 C   0  0  0  0  0  0  0  0  0  0  0  0
    0.9927   -4.8785   -5.3482 C   0  0  0  0  0  0  0  0  0  0  0  0
    0.7194   -3.7785   -4.5348 N   0  0  0  0  0  0  0  0  0  0  0  0
    1.5003   -3.3666   -3.4892 C   0  0  0  0  0  0  0  0  0  0  0  0
    2.5155   -3.9265   -3.1201 O   0  0  0  0  0  0  0  0  0  0  0  0
    0.9856   -2.1425   -2.6945 C   0  0  2  0  0  0  0  0  0  0  0  0
    1.8351   -1.8873   -2.0509 H   0  0  0  0  0  0  0  0  0  0  0  0
   -0.2342   -2.4451   -1.8287 C   0  0  0  0  0  0  0  0  0  0  0  0
    0.8256   -0.9249   -3.4827 O   0  0  0  0  0  0  0  0  0  0  0  0
   -0.1667   -0.7254   -4.3463 C   0  0  0  0  0  0  0  0  0  0  0  0
   -0.9842   -1.5669   -4.6718 O   0  0  0  0  0  0  0  0  0  0  0  0
   -0.1219    0.6715   -4.9264 C   0  0  0  0  0  0  0  0  0  0  0  0
   -1.4931    1.1809   -5.3541 C   0  0  1  0  0  0  0  0  0  0  0  0
   -2.0766    0.3370   -5.7606 H   0  0  0  0  0  0  0  0  0  0  0  0
   -2.3979    1.8346   -3.8893 S   0  0  0  0  0  0  0  0  0  0  0  0
   -3.8644    2.3735   -4.7275 C   0  0  0  0  0  0  0  0  0  0  0  0
   -5.1065    2.3501   -4.0797 C   0  0  0  0  0  0  0  0  0  0  0  0
   -6.2466    2.8519   -4.7100 C   0  0  0  0  0  0  0  0  0  0  0  0
   -6.1533    3.3627   -6.0086 C   0  0  0  0  0  0  0  0  0  0  0  0
   -4.9254    3.3732   -6.6702 C   0  0  0  0  0  0  0  0  0  0  0  0
   -3.7687    2.8947   -6.0355 C   0  0  0  0  0  0  0  0  0  0  0  0
   -2.5302    2.9685   -6.6914 N   0  0  0  0  0  0  0  0  0  0  0  0
   -1.3848    2.2497   -6.4436 C   0  0  0  0  0  0  0  0  0  0  0  0
   -0.3712    2.4250   -7.0923 O   0  0  0  0  0  0  0  0  0  0  0  0
   -1.6264   -3.5188   -8.7941 H   0  0  0  0  0  0  0  0  0  0  0  0
   -0.5768   -4.9475   -9.0441 H   0  0  0  0  0  0  0  0  0  0  0  0
    0.1319   -3.4046   -8.5040 H   0  0  0  0  0  0  0  0  0  0  0  0
   -1.0945   -3.5696   -6.3565 H   0  0  0  0  0  0  0  0  0  0  0  0
   -2.1007   -6.2952   -7.3473 H   0  0  0  0  0  0  0  0  0  0  0  0
   -3.1113   -4.8312   -7.1502 H   0  0  0  0  0  0  0  0  0  0  0  0
   -2.3745   -5.6110   -5.7238 H   0  0  0  0  0  0  0  0  0  0  0  0
    2.2567   -7.5780   -6.6982 H   0  0  0  0  0  0  0  0  0  0  0  0
    2.7755   -5.9065   -4.5378 H   0  0  0  0  0  0  0  0  0  0  0  0
   -0.1165   -3.2213   -4.7186 H   0  0  0  0  0  0  0  0  0  0  0  0
   -0.4935   -1.5632   -1.2229 H   0  0  0  0  0  0  0  0  0  0  0  0
    0.0174   -3.2693   -1.1441 H   0  0  0  0  0  0  0  0  0  0  0  0
   -1.1106   -2.7350   -2.4226 H   0  0  0  0  0  0  0  0  0  0  0  0
    0.5199    0.6374   -5.8239 H   0  0  0  0  0  0  0  0  0  0  0  0
    0.3745    1.3569   -4.2243 H   0  0  0  0  0  0  0  0  0  0  0  0
   -5.1703    1.9343   -3.0713 H   0  0  0  0  0  0  0  0  0  0  0  0
   -7.2073    2.8338   -4.1908 H   0  0  0  0  0  0  0  0  0  0  0  0
   -7.0413    3.7478   -6.5149 H   0  0  0  0  0  0  0  0  0  0  0  0
   -4.8511    3.7640   -7.6888 H   0  0  0  0  0  0  0  0  0  0  0  0
   -2.4557    3.5904   -7.4916 H   0  0  0  0  0  0  0  0  0  0  0  0
  1  2  1  0
  1 31  1  0
  1 32  1  0
  1 33  1  0
  2  3  1  0
  2  4  1  0
  2 34  1  1
  3 35  1  0
  3 36  1  0
  3 37  1  0
  4  5  1  0
  4  8  1  0
  5  6  2  0
  6  7  1  0
  6 38  1  0
  7  8  2  0
  7 39  1  0
  8  9  1  0
  9 10  1  0
  9 40  1  0
 10 11  2  0
 10 12  1  0
 12 13  1  1
 12 14  1  0
 12 15  1  0
 14 41  1  0
 14 42  1  0
 14 43  1  0
 15 16  1  0
 16 17  2  0
 16 18  1  0
 18 19  1  0
 18 44  1  0
 18 45  1  0
 19 20  1  6
 19 21  1  0
 19 29  1  0
 21 22  1  0
 22 23  2  0
 22 27  1  0
 23 24  1  0
 23 46  1  0
 24 25  2  0
 24 47  1  0
 25 26  1  0
 25 48  1  0
 26 27  2  0
 26 49  1  0
 27 28  1  0
 28 29  1  0
 28 50  1  0
 29 30  2  0
M  END

