
     RDKit          3D

 51 53  0  0  0  0  0  0  0  0999 V2000
   -0.9913   -3.1923    0.3637 C   0  0  0  0  0  0  0  0  0  0  0  0
   -0.3042   -2.2151    1.1128 O   0  0  0  0  0  0  0  0  0  0  0  0
    0.6590   -2.6062    1.9888 C   0  0  0  0  0  0  0  0  0  0  0  0
    1.0131   -3.9380    2.2387 C   0  0  0  0  0  0  0  0  0  0  0  0
    2.0404   -4.2469    3.1381 C   0  0  0  0  0  0  0  0  0  0  0  0
    2.7384   -3.2396    3.8130 C   0  0  0  0  0  0  0  0  0  0  0  0
    3.8848   -3.5712    4.7415 C   0  0  0  0  0  0  0  0  0  0  0  0
    5.2251   -3.7067    3.9881 C   0  0  0  0  0  0  0  0  0  0  0  0
    6.3505   -4.0514    4.8422 N   0  0  0  0  0  0  0  0  0  0  0  0
    6.9880   -3.0985    5.7430 C   0  0  0  0  0  0  0  0  0  0  0  0
    8.1915   -3.8863    6.3194 C   0  0  2  0  0  0  0  0  0  0  0  0
    9.5091   -3.6598    5.5629 C   0  0  0  0  0  0  0  0  0  0  0  0
   10.5414   -3.4194    6.1602 O   0  0  0  0  0  0  0  0  0  0  0  0
    9.4138   -3.7714    4.1924 N   0  0  0  0  0  0  0  0  0  0  0  0
   10.4256   -3.6475    3.2212 C   0  0  0  0  0  0  0  0  0  0  0  0
   11.7673   -3.3611    3.5313 C   0  0  0  0  0  0  0  0  0  0  0  0
   12.6993   -3.2561    2.4968 C   0  0  0  0  0  0  0  0  0  0  0  0
   12.3375   -3.4271    1.1582 C   0  0  0  0  0  0  0  0  0  0  0  0
   11.0011   -3.7116    0.8675 C   0  0  0  0  0  0  0  0  0  0  0  0
   10.4611   -3.9543   -0.9475 Br  0  0  0  0  0  0  0  0  0  0  0  0
   10.0469   -3.8237    1.8766 C   0  0  0  0  0  0  0  0  0  0  0  0
    7.7089   -5.3535    6.2475 C   0  0  0  0  0  0  0  0  0  0  0  0
    6.6291   -5.3666    5.1657 C   0  0  0  0  0  0  0  0  0  0  0  0
    6.0951   -6.3375    4.6726 O   0  0  0  0  0  0  0  0  0  0  0  0
    2.3684   -1.9071    3.5666 C   0  0  0  0  0  0  0  0  0  0  0  0
    1.3470   -1.5746    2.6763 C   0  0  0  0  0  0  0  0  0  0  0  0
    1.0861   -0.2544    2.4487 O   0  0  0  0  0  0  0  0  0  0  0  0
   -0.1995    0.2368    2.7990 C   0  0  0  0  0  0  0  0  0  0  0  0
   -1.6954   -2.6523   -0.2834 H   0  0  0  0  0  0  0  0  0  0  0  0
   -1.5592   -3.8851    1.0109 H   0  0  0  0  0  0  0  0  0  0  0  0
   -0.3033   -3.7813   -0.2689 H   0  0  0  0  0  0  0  0  0  0  0  0
    0.4949   -4.7493    1.7270 H   0  0  0  0  0  0  0  0  0  0  0  0
    2.2967   -5.2959    3.3113 H   0  0  0  0  0  0  0  0  0  0  0  0
    3.6876   -4.5234    5.2597 H   0  0  0  0  0  0  0  0  0  0  0  0
    3.9741   -2.7909    5.5157 H   0  0  0  0  0  0  0  0  0  0  0  0
    5.4568   -2.7688    3.4567 H   0  0  0  0  0  0  0  0  0  0  0  0
    5.1365   -4.5059    3.2378 H   0  0  0  0  0  0  0  0  0  0  0  0
    6.3061   -2.7864    6.5567 H   0  0  0  0  0  0  0  0  0  0  0  0
    7.2912   -2.1859    5.2036 H   0  0  0  0  0  0  0  0  0  0  0  0
    8.4134   -3.5768    7.3476 H   0  0  0  0  0  0  0  0  0  0  0  0
    8.4869   -3.9721    3.8274 H   0  0  0  0  0  0  0  0  0  0  0  0
   12.0578   -3.2269    4.5699 H   0  0  0  0  0  0  0  0  0  0  0  0
   13.7407   -3.0336    2.7434 H   0  0  0  0  0  0  0  0  0  0  0  0
   13.0739   -3.3425    0.3582 H   0  0  0  0  0  0  0  0  0  0  0  0
    9.0094   -4.0505    1.6214 H   0  0  0  0  0  0  0  0  0  0  0  0
    7.2401   -5.6699    7.1945 H   0  0  0  0  0  0  0  0  0  0  0  0
    8.4961   -6.0866    6.0203 H   0  0  0  0  0  0  0  0  0  0  0  0
    2.8758   -1.0796    4.0696 H   0  0  0  0  0  0  0  0  0  0  0  0
   -0.1823    1.3199    2.6127 H   0  0  0  0  0  0  0  0  0  0  0  0
   -0.4132    0.0638    3.8700 H   0  0  0  0  0  0  0  0  0  0  0  0
   -0.9953   -0.2229    2.1930 H   0  0  0  0  0  0  0  0  0  0  0  0
  1  2  1  0
  1 29  1  0
  1 30  1  0
  1 31  1  0
  2  3  1  0
  3  4  2  0
  3 26  1  0
  4  5  1  0
  4 32  1  0
  5  6  2  0
  5 33  1  0
  6  7  1  0
  6 25  1  0
  7  8  1  0
  7 34  1  0
  7 35  1  0
  8  9  1  0
  8 36  1  0
  8 37  1  0
  9 10  1  0
  9 23  1  0
 10 11  1  0
 10 38  1  0
 10 39  1  0
 11 12  1  0
 11 22  1  0
 11 40  1  1
 12 13  2  0
 12 14  1  0
 14 15  1  0
 14 41  1  0
 15 16  2  0
 15 21  1  0
 16 17  1  0
 16 42  1  0
 17 18  2  0
 17 43  1  0
 18 19  1  0
 18 44  1  0
 19 20  1  0
 19 21  2  0
 21 45  1  0
 22 23  1  0
 22 46  1  0
 22 47  1  0
 23 24  2  0
 25 26  2  0
 25 48  1  0
 26 27  1  0
 27 28  1  0
 28 49  1  0
 28 50  1  0
 28 51  1  0
M  END

