
     RDKit          3D

 41 42  0  0  0  0  0  0  0  0999 V2000
    0.8255    0.7931    2.3540 C   0  0  0  0  0  0  0  0  0  0  0  0
    2.2497    0.8265    2.8881 C   0  0  0  0  0  0  0  0  0  0  0  0
    2.5063    0.9470    4.0682 O   0  0  0  0  0  0  0  0  0  0  0  0
    3.2136    0.7120    1.8974 N   0  0  0  0  0  0  0  0  0  0  0  0
    4.6099    0.7153    2.0131 C   0  0  0  0  0  0  0  0  0  0  0  0
    5.2870    0.8518    3.2427 C   0  0  0  0  0  0  0  0  0  0  0  0
    6.6771    0.8469    3.2633 C   0  0  0  0  0  0  0  0  0  0  0  0
    7.4371    0.7066    2.0885 C   0  0  0  0  0  0  0  0  0  0  0  0
    8.9247    0.7097    2.2017 C   0  0  0  0  0  0  0  0  0  0  0  0
    9.4927    0.8582    3.2630 O   0  0  0  0  0  0  0  0  0  0  0  0
    9.7393    0.5103    0.9144 C   0  0  0  0  0  0  0  0  0  0  0  0
   11.1244    0.4729    1.1881 O   0  0  0  0  0  0  0  0  0  0  0  0
   11.7419    1.6726    1.3381 C   0  0  0  0  0  0  0  0  0  0  0  0
   11.1948    2.7301    1.1305 O   0  0  0  0  0  0  0  0  0  0  0  0
   13.1510    1.4822    1.7467 C   0  0  0  0  0  0  0  0  0  0  0  0
   13.9585    2.5483    1.9068 C   0  0  0  0  0  0  0  0  0  0  0  0
   15.3653    2.5289    2.3224 C   0  0  0  0  0  0  0  0  0  0  0  0
   15.9702    1.3561    2.8185 C   0  0  0  0  0  0  0  0  0  0  0  0
   17.3024    1.3345    3.2159 C   0  0  0  0  0  0  0  0  0  0  0  0
   18.0777    2.4927    3.1319 C   0  0  0  0  0  0  0  0  0  0  0  0
   17.5087    3.6732    2.6483 C   0  0  0  0  0  0  0  0  0  0  0  0
   18.5004    5.1013    2.5571 Cl  0  0  0  0  0  0  0  0  0  0  0  0
   16.1610    3.7000    2.2445 C   0  0  0  0  0  0  0  0  0  0  0  0
   15.4903    5.1890    1.6375 Cl  0  0  0  0  0  0  0  0  0  0  0  0
    6.7527    0.5711    0.8673 C   0  0  0  0  0  0  0  0  0  0  0  0
    5.3628    0.5758    0.8299 C   0  0  0  0  0  0  0  0  0  0  0  0
    0.1350    0.8323    3.2046 H   0  0  0  0  0  0  0  0  0  0  0  0
    0.6367   -0.1247    1.7735 H   0  0  0  0  0  0  0  0  0  0  0  0
    0.6344    1.6562    1.6950 H   0  0  0  0  0  0  0  0  0  0  0  0
    2.8657    0.6146    0.9503 H   0  0  0  0  0  0  0  0  0  0  0  0
    4.7104    0.9602    4.1579 H   0  0  0  0  0  0  0  0  0  0  0  0
    7.2128    0.9550    4.2086 H   0  0  0  0  0  0  0  0  0  0  0  0
    9.5039    1.3184    0.2033 H   0  0  0  0  0  0  0  0  0  0  0  0
    9.4844   -0.4573    0.4560 H   0  0  0  0  0  0  0  0  0  0  0  0
   13.4732    0.4505    1.9003 H   0  0  0  0  0  0  0  0  0  0  0  0
   13.5191    3.5272    1.7012 H   0  0  0  0  0  0  0  0  0  0  0  0
   15.3705    0.4488    2.9039 H   0  0  0  0  0  0  0  0  0  0  0  0
   17.7450    0.4130    3.6004 H   0  0  0  0  0  0  0  0  0  0  0  0
   19.1240    2.4977    3.4407 H   0  0  0  0  0  0  0  0  0  0  0  0
    7.2966    0.4659   -0.0735 H   0  0  0  0  0  0  0  0  0  0  0  0
    4.8479    0.4721   -0.1299 H   0  0  0  0  0  0  0  0  0  0  0  0
  1  2  1  0
  1 27  1  0
  1 28  1  0
  1 29  1  0
  2  3  2  0
  2  4  1  0
  4  5  1  0
  4 30  1  0
  5  6  2  0
  5 26  1  0
  6  7  1  0
  6 31  1  0
  7  8  2  0
  7 32  1  0
  8  9  1  0
  8 25  1  0
  9 10  2  0
  9 11  1  0
 11 12  1  0
 11 33  1  0
 11 34  1  0
 12 13  1  0
 13 14  2  0
 13 15  1  0
 15 16  2  0
 15 35  1  0
 16 17  1  0
 16 36  1  0
 17 18  2  0
 17 23  1  0
 18 19  1  0
 18 37  1  0
 19 20  2  0
 19 38  1  0
 20 21  1  0
 20 39  1  0
 21 22  1  0
 21 23  2  0
 23 24  1  0
 25 26  2  0
 25 40  1  0
 26 41  1  0
M  END

