
     RDKit          3D

 41 43  0  0  0  0  0  0  0  0999 V2000
    1.5520    2.3785    2.0585 C   0  0  0  0  0  0  0  0  0  0  0  0
    3.0221    1.9923    2.2175 C   0  0  0  0  0  0  0  0  0  0  0  0
    3.5610    1.2535    0.9876 C   0  0  0  0  0  0  0  0  0  0  0  0
    4.9583    0.8413    1.1163 N   0  0  0  0  0  0  0  0  0  0  0  0
    6.0266    1.6705    0.8270 C   0  0  0  0  0  0  0  0  0  0  0  0
    5.8362    2.9233    0.3903 O   0  0  0  0  0  0  0  0  0  0  0  0
    7.2588    1.1103    1.0440 C   0  0  0  0  0  0  0  0  0  0  0  0
    8.5489    1.7083    0.8296 C   0  0  0  0  0  0  0  0  0  0  0  0
    9.6338    1.0602    1.0597 N   0  0  0  0  0  0  0  0  0  0  0  0
   10.8862    1.6606    0.9099 C   0  0  0  0  0  0  0  0  0  0  0  0
   11.1478    3.0180    1.1980 C   0  0  0  0  0  0  0  0  0  0  0  0
   12.4267    3.5466    1.0379 C   0  0  0  0  0  0  0  0  0  0  0  0
   13.4877    2.7409    0.5934 C   0  0  0  0  0  0  0  0  0  0  0  0
   14.8760    3.3200    0.4017 C   0  0  0  0  0  0  0  0  0  0  0  0
   15.4320    3.9518    1.5936 N   0  0  0  0  0  0  0  0  0  0  0  0
   16.2032    3.4167    2.5703 C   0  0  0  0  0  0  0  0  0  0  0  0
   16.4466    4.3149    3.5061 N   0  0  0  0  0  0  0  0  0  0  0  0
   15.7802    5.4078    3.0510 C   0  0  0  0  0  0  0  0  0  0  0  0
   15.1509    5.2355    1.8975 N   0  0  0  0  0  0  0  0  0  0  0  0
   13.2340    1.3876    0.3265 C   0  0  0  0  0  0  0  0  0  0  0  0
   11.9583    0.8505    0.4911 C   0  0  0  0  0  0  0  0  0  0  0  0
    7.0609   -0.5351    1.6539 S   0  0  0  0  0  0  0  0  0  0  0  0
    5.3103   -0.4216    1.5937 C   0  0  0  0  0  0  0  0  0  0  0  0
    4.2601   -1.6208    2.0364 S   0  0  0  0  0  0  0  0  0  0  0  0
    1.1833    2.9015    2.9538 H   0  0  0  0  0  0  0  0  0  0  0  0
    0.9198    1.4884    1.9084 H   0  0  0  0  0  0  0  0  0  0  0  0
    1.3954    3.0481    1.1956 H   0  0  0  0  0  0  0  0  0  0  0  0
    3.1499    1.3307    3.0893 H   0  0  0  0  0  0  0  0  0  0  0  0
    3.6349    2.8907    2.4097 H   0  0  0  0  0  0  0  0  0  0  0  0
    3.4544    1.8625    0.0700 H   0  0  0  0  0  0  0  0  0  0  0  0
    2.9890    0.3285    0.8207 H   0  0  0  0  0  0  0  0  0  0  0  0
    4.9067    3.0817    0.1748 H   0  0  0  0  0  0  0  0  0  0  0  0
    8.5358    2.7441    0.4417 H   0  0  0  0  0  0  0  0  0  0  0  0
   10.3465    3.6555    1.5786 H   0  0  0  0  0  0  0  0  0  0  0  0
   12.6166    4.5959    1.2778 H   0  0  0  0  0  0  0  0  0  0  0  0
   14.8738    4.0952   -0.3797 H   0  0  0  0  0  0  0  0  0  0  0  0
   15.5751    2.5319    0.0864 H   0  0  0  0  0  0  0  0  0  0  0  0
   16.5576    2.3860    2.5475 H   0  0  0  0  0  0  0  0  0  0  0  0
   15.7604    6.3622    3.5773 H   0  0  0  0  0  0  0  0  0  0  0  0
   14.0486    0.7388   -0.0095 H   0  0  0  0  0  0  0  0  0  0  0  0
   11.7620   -0.2054    0.2947 H   0  0  0  0  0  0  0  0  0  0  0  0
  1  2  1  0
  1 25  1  0
  1 26  1  0
  1 27  1  0
  2  3  1  0
  2 28  1  0
  2 29  1  0
  3  4  1  0
  3 30  1  0
  3 31  1  0
  4  5  1  0
  4 23  1  0
  5  6  1  0
  5  7  2  0
  6 32  1  0
  7  8  1  0
  7 22  1  0
  8  9  2  0
  8 33  1  0
  9 10  1  0
 10 11  2  0
 10 21  1  0
 11 12  1  0
 11 34  1  0
 12 13  2  0
 12 35  1  0
 13 14  1  0
 13 20  1  0
 14 15  1  0
 14 36  1  0
 14 37  1  0
 15 16  1  0
 15 19  1  0
 16 17  2  0
 16 38  1  0
 17 18  1  0
 18 19  2  0
 18 39  1  0
 20 21  2  0
 20 40  1  0
 21 41  1  0
 22 23  1  0
 23 24  2  0
M  END

