
     RDKit          3D

 47 49  0  0  0  0  0  0  0  0999 V2000
    2.2292   -0.4491   -3.1305 C   0  0  0  0  0  0  0  0  0  0  0  0
    3.1498    0.7587   -3.0894 C   0  0  1  0  0  0  0  0  0  0  0  0
    4.3081    0.6854   -4.0690 C   0  0  0  0  0  0  0  0  0  0  0  0
    2.5395    2.1095   -2.7955 C   0  0  0  0  0  0  0  0  0  0  0  0
    3.3577    1.4156   -1.7362 C   0  0  2  0  0  0  0  0  0  0  0  0
    4.6521    1.9335   -1.3923 N   0  0  0  0  0  0  0  0  0  0  0  0
    4.7397    2.9750   -0.4823 C   0  0  0  0  0  0  0  0  0  0  0  0
    3.7520    3.5345   -0.0357 O   0  0  0  0  0  0  0  0  0  0  0  0
    6.0317    3.3401   -0.0973 N   0  0  0  0  0  0  0  0  0  0  0  0
    6.1576    4.3299    0.9644 C   0  0  0  0  0  0  0  0  0  0  0  0
    6.4901    5.7208    0.4235 C   0  0  0  0  0  0  0  0  0  0  0  0
    8.0327    5.6826   -0.5372 S   0  0  2  0  0  0  0  0  0  0  0  0
    9.0950    5.2243    0.3810 O   0  0  0  0  0  0  0  0  0  0  0  0
    8.1752    6.9731   -1.2350 O   0  0  0  0  0  0  0  0  0  0  0  0
    7.7297    4.2797   -1.7400 C   0  0  1  0  0  0  0  0  0  0  0  0
    6.6915    4.6707   -2.8120 C   0  0  0  0  0  0  0  0  0  0  0  0
    7.2033    5.6380   -3.8905 C   0  0  0  0  0  0  0  0  0  0  0  0
    8.5222    5.1585   -4.5067 C   0  0  0  0  0  0  0  0  0  0  0  0
    9.5813    4.9163   -3.4258 C   0  0  0  0  0  0  0  0  0  0  0  0
    9.0891    3.9158   -2.3713 C   0  0  0  0  0  0  0  0  0  0  0  0
    7.2433    3.0882   -0.8610 C   0  0  0  0  0  0  0  0  0  0  0  0
    1.7705   -0.5575   -4.1279 H   0  0  0  0  0  0  0  0  0  0  0  0
    1.4132   -0.3645   -2.3962 H   0  0  0  0  0  0  0  0  0  0  0  0
    2.7819   -1.3795   -2.9137 H   0  0  0  0  0  0  0  0  0  0  0  0
    3.9314    0.5959   -5.1017 H   0  0  0  0  0  0  0  0  0  0  0  0
    4.9421   -0.1981   -3.8752 H   0  0  0  0  0  0  0  0  0  0  0  0
    4.9449    1.5802   -4.0224 H   0  0  0  0  0  0  0  0  0  0  0  0
    1.4604    2.1835   -2.6354 H   0  0  0  0  0  0  0  0  0  0  0  0
    2.9898    2.9869   -3.2672 H   0  0  0  0  0  0  0  0  0  0  0  0
    2.7931    0.9910   -0.8958 H   0  0  0  0  0  0  0  0  0  0  0  0
    5.4093    1.2591   -1.3921 H   0  0  0  0  0  0  0  0  0  0  0  0
    6.9547    4.0158    1.6587 H   0  0  0  0  0  0  0  0  0  0  0  0
    5.2045    4.3708    1.5059 H   0  0  0  0  0  0  0  0  0  0  0  0
    6.7059    6.4447    1.2243 H   0  0  0  0  0  0  0  0  0  0  0  0
    5.6979    6.1214   -0.2239 H   0  0  0  0  0  0  0  0  0  0  0  0
    5.7754    5.0652   -2.3444 H   0  0  0  0  0  0  0  0  0  0  0  0
    6.3867    3.7246   -3.2958 H   0  0  0  0  0  0  0  0  0  0  0  0
    7.3482    6.6337   -3.4466 H   0  0  0  0  0  0  0  0  0  0  0  0
    6.4288    5.7387   -4.6690 H   0  0  0  0  0  0  0  0  0  0  0  0
    8.8873    5.8962   -5.2400 H   0  0  0  0  0  0  0  0  0  0  0  0
    8.3507    4.2199   -5.0680 H   0  0  0  0  0  0  0  0  0  0  0  0
    9.8336    5.8707   -2.9367 H   0  0  0  0  0  0  0  0  0  0  0  0
   10.5124    4.5328   -3.8748 H   0  0  0  0  0  0  0  0  0  0  0  0
    9.8361    3.7873   -1.5728 H   0  0  0  0  0  0  0  0  0  0  0  0
    8.9581    2.9252   -2.8468 H   0  0  0  0  0  0  0  0  0  0  0  0
    8.0564    2.8178   -0.1671 H   0  0  0  0  0  0  0  0  0  0  0  0
    7.1011    2.2365   -1.5392 H   0  0  0  0  0  0  0  0  0  0  0  0
  2  1  1  1
  1 22  1  0
  1 23  1  0
  1 24  1  0
  2  3  1  0
  2  4  1  0
  2  5  1  0
  3 25  1  0
  3 26  1  0
  3 27  1  0
  4  5  1  0
  4 28  1  0
  4 29  1  0
  5  6  1  0
  5 30  1  1
  6  7  1  0
  6 31  1  0
  7  8  2  0
  7  9  1  0
  9 10  1  0
  9 21  1  0
 10 11  1  0
 10 32  1  0
 10 33  1  0
 12 11  1  1
 11 34  1  0
 11 35  1  0
 12 13  2  0
 12 14  2  0
 12 15  1  0
 15 16  1  6
 15 20  1  0
 15 21  1  0
 16 17  1  0
 16 36  1  0
 16 37  1  0
 17 18  1  0
 17 38  1  0
 17 39  1  0
 18 19  1  0
 18 40  1  0
 18 41  1  0
 19 20  1  0
 19 42  1  0
 19 43  1  0
 20 44  1  0
 20 45  1  0
 21 46  1  0
 21 47  1  0
M  END

