
     RDKit          3D

 44 43  0  0  0  0  0  0  0  0999 V2000
    0.7007   -0.0911    0.0192 C   0  0  0  0  0  0  0  0  0  0  0  0
    2.2161    0.0701    0.2136 C   0  0  1  0  0  0  0  0  0  0  0  0
    2.9384   -1.2021    0.3028 N   0  0  0  0  0  0  0  0  0  0  0  0
    2.8345    0.9375   -0.8942 C   0  0  0  0  0  0  0  0  0  0  0  0
    4.3088    1.2852   -0.6711 C   0  0  0  0  0  0  0  0  0  0  0  0
    4.9236    2.0676   -1.8346 C   0  0  0  0  0  0  0  0  0  0  0  0
    6.3920    2.4993   -1.6240 C   0  0  1  0  0  0  0  0  0  0  0  0
    7.3600    1.3138   -1.5069 C   0  0  0  0  0  0  0  0  0  0  0  0
    6.8150    3.3782   -2.8026 C   0  0  0  0  0  0  0  0  0  0  0  0
    6.9479    2.9323   -3.9361 O   0  0  0  0  0  0  0  0  0  0  0  0
    7.0125    4.6971   -2.5213 N   0  0  0  0  0  0  0  0  0  0  0  0
    7.4535    5.6413   -3.5245 C   0  0  1  0  0  0  0  0  0  0  0  0
    8.2613    5.1762   -4.1134 H   0  0  0  0  0  0  0  0  0  0  0  0
    6.2855    5.9884   -4.4875 C   0  0  0  0  0  0  0  0  0  0  0  0
    6.5774    7.0009   -5.6161 C   0  0  0  0  0  0  0  0  0  0  0  0
    7.7990    6.6348   -6.4412 C   0  0  0  0  0  0  0  0  0  0  0  0
    8.9307    6.7729   -6.0225 O   0  0  0  0  0  0  0  0  0  0  0  0
    7.6104    6.1212   -7.6589 O   0  0  0  0  0  0  0  0  0  0  0  0
    8.0046    6.8767   -2.7886 C   0  0  0  0  0  0  0  0  0  0  0  0
    7.7287    7.0979   -1.6337 O   0  0  0  0  0  0  0  0  0  0  0  0
    8.7689    7.6964   -3.5019 O   0  0  0  0  0  0  0  0  0  0  0  0
    0.2637   -0.7083    0.8216 H   0  0  0  0  0  0  0  0  0  0  0  0
    0.4813   -0.5869   -0.9428 H   0  0  0  0  0  0  0  0  0  0  0  0
    0.1792    0.8808    0.0212 H   0  0  0  0  0  0  0  0  0  0  0  0
    2.3820    0.5908    1.1756 H   0  0  0  0  0  0  0  0  0  0  0  0
    2.7558   -1.7632   -0.5325 H   0  0  0  0  0  0  0  0  0  0  0  0
    2.5968   -1.7516    1.0919 H   0  0  0  0  0  0  0  0  0  0  0  0
    2.2411    1.8637   -0.9954 H   0  0  0  0  0  0  0  0  0  0  0  0
    2.7238    0.4045   -1.8590 H   0  0  0  0  0  0  0  0  0  0  0  0
    4.8576    0.3480   -0.4936 H   0  0  0  0  0  0  0  0  0  0  0  0
    4.4036    1.8753    0.2599 H   0  0  0  0  0  0  0  0  0  0  0  0
    4.3177    2.9743   -2.0183 H   0  0  0  0  0  0  0  0  0  0  0  0
    4.8701    1.4741   -2.7639 H   0  0  0  0  0  0  0  0  0  0  0  0
    6.4457    3.0993   -0.6977 H   0  0  0  0  0  0  0  0  0  0  0  0
    7.3553    0.7317   -2.4410 H   0  0  0  0  0  0  0  0  0  0  0  0
    7.0832    0.6500   -0.6750 H   0  0  0  0  0  0  0  0  0  0  0  0
    8.3910    1.6603   -1.3319 H   0  0  0  0  0  0  0  0  0  0  0  0
    6.9311    5.0686   -1.5784 H   0  0  0  0  0  0  0  0  0  0  0  0
    5.4491    6.3781   -3.8858 H   0  0  0  0  0  0  0  0  0  0  0  0
    5.9634    5.0297   -4.9211 H   0  0  0  0  0  0  0  0  0  0  0  0
    6.7727    7.9982   -5.1926 H   0  0  0  0  0  0  0  0  0  0  0  0
    5.6833    7.0915   -6.2541 H   0  0  0  0  0  0  0  0  0  0  0  0
    6.6667    6.0462   -7.8609 H   0  0  0  0  0  0  0  0  0  0  0  0
    8.9519    7.3489   -4.4134 H   0  0  0  0  0  0  0  0  0  0  0  0
  1  2  1  0
  1 22  1  0
  1 23  1  0
  1 24  1  0
  2  3  1  0
  2  4  1  0
  2 25  1  1
  3 26  1  0
  3 27  1  0
  4  5  1  0
  4 28  1  0
  4 29  1  0
  5  6  1  0
  5 30  1  0
  5 31  1  0
  6  7  1  0
  6 32  1  0
  6 33  1  0
  7  8  1  0
  7  9  1  0
  7 34  1  1
  8 35  1  0
  8 36  1  0
  8 37  1  0
  9 10  2  0
  9 11  1  0
 11 12  1  0
 11 38  1  0
 12 13  1  6
 12 14  1  0
 12 19  1  0
 14 15  1  0
 14 39  1  0
 14 40  1  0
 15 16  1  0
 15 41  1  0
 15 42  1  0
 16 17  2  0
 16 18  1  0
 18 43  1  0
 19 20  2  0
 19 21  1  0
 21 44  1  0
M  END

