
     RDKit          3D

 74 76  0  0  0  0  0  0  0  0999 V2000
    1.3779    3.0151   -3.7111 C   0  0  0  0  0  0  0  0  0  0  0  0
    1.6299    2.2051   -2.4359 C   0  0  0  0  0  0  0  0  0  0  0  0
    2.9897    1.4963   -2.3763 C   0  0  0  0  0  0  0  0  0  0  0  0
    4.2236    2.4060   -2.4174 C   0  0  1  0  0  0  0  0  0  0  0  0
    4.3109    3.4503   -1.2932 C   0  0  0  0  0  0  0  0  0  0  0  0
    4.3034    2.8865    0.1322 C   0  0  0  0  0  0  0  0  0  0  0  0
    4.5297    3.9620    1.1961 C   0  0  0  0  0  0  0  0  0  0  0  0
    5.3468    1.5147   -2.3694 O   0  0  0  0  0  0  0  0  0  0  0  0
    6.5536    1.8480   -2.8939 C   0  0  0  0  0  0  0  0  0  0  0  0
    6.8442    3.0362   -3.5833 C   0  0  0  0  0  0  0  0  0  0  0  0
    8.1279    3.2514   -4.0937 C   0  0  0  0  0  0  0  0  0  0  0  0
    9.1597    2.3115   -3.9399 C   0  0  0  0  0  0  0  0  0  0  0  0
   10.5195    2.5532   -4.4856 C   0  0  0  0  0  0  0  0  0  0  0  0
   11.0879    3.8376   -4.5054 C   0  0  0  0  0  0  0  0  0  0  0  0
   12.3672    4.0635   -5.0193 C   0  0  0  0  0  0  0  0  0  0  0  0
   13.1467    3.0166   -5.5311 C   0  0  0  0  0  0  0  0  0  0  0  0
   14.5342    3.2048   -6.1519 C   0  0  1  0  0  0  0  0  0  0  0  0
   15.0298    4.6607   -6.2681 C   0  0  0  0  0  0  0  0  0  0  0  0
   15.6064    5.2252   -4.9630 C   0  0  0  0  0  0  0  0  0  0  0  0
   16.7224    4.3370   -4.4067 C   0  0  0  0  0  0  0  0  0  0  0  0
   16.2640    2.8699   -4.1862 C   0  0  2  0  0  0  0  0  0  0  0  0
   15.2814    2.8299   -3.0823 C   0  0  0  0  0  0  0  0  0  0  0  0
   14.5635    2.7948   -2.1725 N   0  0  0  0  0  0  0  0  0  0  0  0
   17.4568    1.9480   -3.7969 C   0  0  0  0  0  0  0  0  0  0  0  0
   18.1929    2.2903   -2.4983 C   0  0  0  0  0  0  0  0  0  0  0  0
   19.2919    1.2790   -2.1591 C   0  0  0  0  0  0  0  0  0  0  0  0
   20.0457    1.6078   -0.8705 C   0  0  0  0  0  0  0  0  0  0  0  0
   21.0982    0.7061   -0.6003 O   0  0  0  0  0  0  0  0  0  0  0  0
   15.6387    2.3309   -5.5042 C   0  0  0  0  0  0  0  0  0  0  0  0
   12.5714    1.7330   -5.5218 C   0  0  0  0  0  0  0  0  0  0  0  0
   11.2956    1.5031   -5.0132 C   0  0  0  0  0  0  0  0  0  0  0  0
    8.8479    1.1260   -3.2421 C   0  0  0  0  0  0  0  0  0  0  0  0
    7.5770    0.8968   -2.7288 C   0  0  0  0  0  0  0  0  0  0  0  0
    0.3538    3.4208   -3.7272 H   0  0  0  0  0  0  0  0  0  0  0  0
    1.5016    2.3906   -4.6120 H   0  0  0  0  0  0  0  0  0  0  0  0
    2.0663    3.8707   -3.8064 H   0  0  0  0  0  0  0  0  0  0  0  0
    0.8462    1.4338   -2.3430 H   0  0  0  0  0  0  0  0  0  0  0  0
    1.5043    2.8568   -1.5534 H   0  0  0  0  0  0  0  0  0  0  0  0
    3.0778    0.7949   -3.2237 H   0  0  0  0  0  0  0  0  0  0  0  0
    3.0463    0.8772   -1.4662 H   0  0  0  0  0  0  0  0  0  0  0  0
    4.2322    2.9348   -3.3861 H   0  0  0  0  0  0  0  0  0  0  0  0
    3.4809    4.1683   -1.4187 H   0  0  0  0  0  0  0  0  0  0  0  0
    5.2341    4.0366   -1.4407 H   0  0  0  0  0  0  0  0  0  0  0  0
    5.0838    2.1115    0.2129 H   0  0  0  0  0  0  0  0  0  0  0  0
    3.3451    2.3758    0.3303 H   0  0  0  0  0  0  0  0  0  0  0  0
    5.5027    4.4629    1.0596 H   0  0  0  0  0  0  0  0  0  0  0  0
    4.5166    3.5337    2.2110 H   0  0  0  0  0  0  0  0  0  0  0  0
    3.7499    4.7414    1.1546 H   0  0  0  0  0  0  0  0  0  0  0  0
    6.0816    3.7994   -3.7379 H   0  0  0  0  0  0  0  0  0  0  0  0
    8.3191    4.1742   -4.6467 H   0  0  0  0  0  0  0  0  0  0  0  0
   10.5322    4.6792   -4.0853 H   0  0  0  0  0  0  0  0  0  0  0  0
   12.7537    5.0832   -5.0019 H   0  0  0  0  0  0  0  0  0  0  0  0
   14.4363    2.8229   -7.1842 H   0  0  0  0  0  0  0  0  0  0  0  0
   14.2266    5.3090   -6.6522 H   0  0  0  0  0  0  0  0  0  0  0  0
   15.8257    4.6831   -7.0339 H   0  0  0  0  0  0  0  0  0  0  0  0
   14.8165    5.3288   -4.2011 H   0  0  0  0  0  0  0  0  0  0  0  0
   16.0004    6.2401   -5.1386 H   0  0  0  0  0  0  0  0  0  0  0  0
   17.1108    4.7572   -3.4667 H   0  0  0  0  0  0  0  0  0  0  0  0
   17.5673    4.3090   -5.1182 H   0  0  0  0  0  0  0  0  0  0  0  0
   18.1693    1.9655   -4.6401 H   0  0  0  0  0  0  0  0  0  0  0  0
   17.0788    0.9127   -3.7352 H   0  0  0  0  0  0  0  0  0  0  0  0
   17.4682    2.3386   -1.6670 H   0  0  0  0  0  0  0  0  0  0  0  0
   18.6430    3.2953   -2.5740 H   0  0  0  0  0  0  0  0  0  0  0  0
   20.0262    1.2148   -2.9814 H   0  0  0  0  0  0  0  0  0  0  0  0
   18.8463    0.2699   -2.0647 H   0  0  0  0  0  0  0  0  0  0  0  0
   19.3298    1.6689   -0.0241 H   0  0  0  0  0  0  0  0  0  0  0  0
   20.5120    2.6038   -0.9566 H   0  0  0  0  0  0  0  0  0  0  0  0
   20.7138   -0.1694   -0.4609 H   0  0  0  0  0  0  0  0  0  0  0  0
   15.2735    1.3060   -5.3389 H   0  0  0  0  0  0  0  0  0  0  0  0
   16.4715    2.2507   -6.2238 H   0  0  0  0  0  0  0  0  0  0  0  0
   13.1260    0.8888   -5.9424 H   0  0  0  0  0  0  0  0  0  0  0  0
   10.8812    0.4930   -5.0521 H   0  0  0  0  0  0  0  0  0  0  0  0
    9.6269    0.3784   -3.0753 H   0  0  0  0  0  0  0  0  0  0  0  0
    7.3456   -0.0197   -2.1821 H   0  0  0  0  0  0  0  0  0  0  0  0
  1  2  1  0
  1 34  1  0
  1 35  1  0
  1 36  1  0
  2  3  1  0
  2 37  1  0
  2 38  1  0
  3  4  1  0
  3 39  1  0
  3 40  1  0
  4  5  1  0
  4  8  1  0
  4 41  1  6
  5  6  1  0
  5 42  1  0
  5 43  1  0
  6  7  1  0
  6 44  1  0
  6 45  1  0
  7 46  1  0
  7 47  1  0
  7 48  1  0
  8  9  1  0
  9 10  2  0
  9 33  1  0
 10 11  1  0
 10 49  1  0
 11 12  2  0
 11 50  1  0
 12 13  1  0
 12 32  1  0
 13 14  2  0
 13 31  1  0
 14 15  1  0
 14 51  1  0
 15 16  2  0
 15 52  1  0
 16 17  1  0
 16 30  1  0
 17 18  1  0
 17 29  1  0
 17 53  1  6
 18 19  1  0
 18 54  1  0
 18 55  1  0
 19 20  1  0
 19 56  1  0
 19 57  1  0
 20 21  1  0
 20 58  1  0
 20 59  1  0
 21 22  1  1
 21 24  1  0
 21 29  1  0
 22 23  3  0
 24 25  1  0
 24 60  1  0
 24 61  1  0
 25 26  1  0
 25 62  1  0
 25 63  1  0
 26 27  1  0
 26 64  1  0
 26 65  1  0
 27 28  1  0
 27 66  1  0
 27 67  1  0
 28 68  1  0
 29 69  1  0
 29 70  1  0
 30 31  2  0
 30 71  1  0
 31 72  1  0
 32 33  2  0
 32 73  1  0
 33 74  1  0
M  END

