
     RDKit          3D

 45 47  0  0  0  0  0  0  0  0999 V2000
    1.0025  -11.9974   -4.3468 O   0  0  0  0  0  0  0  0  0  0  0  0
    1.9693  -11.3799   -3.9420 C   0  0  0  0  0  0  0  0  0  0  0  0
    2.0051   -9.8530   -4.0619 C   0  0  0  0  0  0  0  0  0  0  0  0
    3.1139   -9.2342   -3.3418 N   0  0  0  0  0  0  0  0  0  0  0  0
    3.0990   -7.5613   -3.1536 S   0  0  1  0  0  0  0  0  0  0  0  0
    1.7221   -7.1940   -2.8281 O   0  0  0  0  0  0  0  0  0  0  0  0
    4.2290   -7.2396   -2.2818 O   0  0  0  0  0  0  0  0  0  0  0  0
    3.4664   -6.8781   -4.7810 C   0  0  0  0  0  0  0  0  0  0  0  0
    2.4381   -6.3645   -5.5759 C   0  0  0  0  0  0  0  0  0  0  0  0
    2.7513   -5.8637   -6.8447 C   0  0  0  0  0  0  0  0  0  0  0  0
    4.0655   -5.8995   -7.3131 C   0  0  0  0  0  0  0  0  0  0  0  0
    5.0911   -6.4351   -6.5177 C   0  0  0  0  0  0  0  0  0  0  0  0
    6.4833   -6.4916   -7.0924 C   0  0  0  0  0  0  0  0  0  0  0  0
    6.8225   -5.8211   -8.0558 O   0  0  0  0  0  0  0  0  0  0  0  0
    7.3308   -7.3684   -6.4710 N   0  0  0  0  0  0  0  0  0  0  0  0
    8.6821   -7.5984   -6.9519 C   0  0  2  0  0  0  0  0  0  0  0  0
    9.0941   -6.6319   -7.2752 H   0  0  0  0  0  0  0  0  0  0  0  0
    8.7432   -8.6050   -8.1376 C   0  0  0  0  0  0  0  0  0  0  0  0
    8.5261  -10.0301   -7.6012 C   0  0  0  0  0  0  0  0  0  0  0  0
    8.9178   -9.9627   -5.7952 S   0  0  2  0  0  0  0  0  0  0  0  0
    9.9664  -10.9132   -5.4229 O   0  0  0  0  0  0  0  0  0  0  0  0
    7.6324   -9.9404   -5.0549 O   0  0  0  0  0  0  0  0  0  0  0  0
    9.5240   -8.2323   -5.8430 C   0  0  0  0  0  0  0  0  0  0  0  0
    4.7888   -6.8992   -5.2309 C   0  0  0  0  0  0  0  0  0  0  0  0
    4.3933   -9.9307   -3.4404 C   0  0  0  0  0  0  0  0  0  0  0  0
    4.2251  -11.3159   -2.8324 C   0  0  0  0  0  0  0  0  0  0  0  0
    3.0760  -11.9855   -3.4231 N   0  0  0  0  0  0  0  0  0  0  0  0
    1.0529   -9.4759   -3.6674 H   0  0  0  0  0  0  0  0  0  0  0  0
    2.0269   -9.6317   -5.1495 H   0  0  0  0  0  0  0  0  0  0  0  0
    1.4178   -6.3436   -5.1888 H   0  0  0  0  0  0  0  0  0  0  0  0
    1.9602   -5.4436   -7.4703 H   0  0  0  0  0  0  0  0  0  0  0  0
    4.3267   -5.5162   -8.3015 H   0  0  0  0  0  0  0  0  0  0  0  0
    6.9597   -8.0506   -5.8141 H   0  0  0  0  0  0  0  0  0  0  0  0
    9.7369   -8.5283   -8.6064 H   0  0  0  0  0  0  0  0  0  0  0  0
    8.0003   -8.3309   -8.8989 H   0  0  0  0  0  0  0  0  0  0  0  0
    9.1906  -10.7852   -8.0405 H   0  0  0  0  0  0  0  0  0  0  0  0
    7.4851  -10.3761   -7.6533 H   0  0  0  0  0  0  0  0  0  0  0  0
   10.5914   -8.2706   -6.1014 H   0  0  0  0  0  0  0  0  0  0  0  0
    9.3822   -7.7995   -4.8439 H   0  0  0  0  0  0  0  0  0  0  0  0
    5.5702   -7.2481   -4.5542 H   0  0  0  0  0  0  0  0  0  0  0  0
    5.1497   -9.3720   -2.8764 H   0  0  0  0  0  0  0  0  0  0  0  0
    4.7342  -10.0176   -4.4911 H   0  0  0  0  0  0  0  0  0  0  0  0
    4.1111  -11.2210   -1.7367 H   0  0  0  0  0  0  0  0  0  0  0  0
    5.1325  -11.9091   -3.0284 H   0  0  0  0  0  0  0  0  0  0  0  0
    2.9920  -12.9937   -3.3300 H   0  0  0  0  0  0  0  0  0  0  0  0
  1  2  2  0
  2  3  1  0
  2 27  1  0
  3  4  1  0
  3 28  1  0
  3 29  1  0
  4  5  1  0
  4 25  1  0
  5  6  2  0
  5  7  2  0
  5  8  1  6
  8  9  2  0
  8 24  1  0
  9 10  1  0
  9 30  1  0
 10 11  2  0
 10 31  1  0
 11 12  1  0
 11 32  1  0
 12 13  1  0
 12 24  2  0
 13 14  2  0
 13 15  1  0
 15 16  1  0
 15 33  1  0
 16 17  1  6
 16 18  1  0
 16 23  1  0
 18 19  1  0
 18 34  1  0
 18 35  1  0
 20 19  1  6
 19 36  1  0
 19 37  1  0
 20 21  2  0
 20 22  2  0
 20 23  1  0
 23 38  1  0
 23 39  1  0
 24 40  1  0
 25 26  1  0
 25 41  1  0
 25 42  1  0
 26 27  1  0
 26 43  1  0
 26 44  1  0
 27 45  1  0
M  END

