
     RDKit          3D

 33 34  0  0  0  0  0  0  0  0999 V2000
    0.9050   -0.1022    0.0504 C   0  0  0  0  0  0  0  0  0  0  0  0
    2.4277   -0.0801    0.1504 C   0  0  1  0  0  0  0  0  0  0  0  0
    3.0115    1.1085    0.9342 C   0  0  0  0  0  0  0  0  0  0  0  0
    4.4459    0.6656    1.2803 C   0  0  2  0  0  0  0  0  0  0  0  0
    5.4772    1.0691    0.2165 C   0  0  0  0  0  0  0  0  0  0  0  0
    4.3000   -0.7908    1.4149 N   0  0  0  0  0  0  0  0  0  0  0  0
    5.1445   -1.6001    2.1157 C   0  0  0  0  0  0  0  0  0  0  0  0
    6.3250   -1.1213    2.7488 C   0  0  0  0  0  0  0  0  0  0  0  0
    7.1143   -2.0213    3.4447 C   0  0  0  0  0  0  0  0  0  0  0  0
    6.7551   -3.3838    3.5272 C   0  0  0  0  0  0  0  0  0  0  0  0
    7.5568   -4.3878    4.2598 C   0  0  0  0  0  0  0  0  0  0  0  0
    8.8639   -4.0707    4.4521 N   0  0  0  0  0  0  0  0  0  0  0  0
    6.9289   -5.8094    4.8629 S   0  0  0  0  0  0  0  0  0  0  0  0
    5.5591   -3.7420    2.8745 C   0  0  0  0  0  0  0  0  0  0  0  0
    4.7921   -2.9012    2.1966 N   0  0  0  0  0  0  0  0  0  0  0  0
    3.0285   -1.2891    0.8838 C   0  0  0  0  0  0  0  0  0  0  0  0
    0.5275    0.7829   -0.4863 H   0  0  0  0  0  0  0  0  0  0  0  0
    0.4410   -0.1125    1.0511 H   0  0  0  0  0  0  0  0  0  0  0  0
    0.5514   -0.9945   -0.4912 H   0  0  0  0  0  0  0  0  0  0  0  0
    2.8441   -0.0568   -0.8726 H   0  0  0  0  0  0  0  0  0  0  0  0
    2.4318    1.2577    1.8614 H   0  0  0  0  0  0  0  0  0  0  0  0
    2.9879    2.0546    0.3719 H   0  0  0  0  0  0  0  0  0  0  0  0
    4.7542    1.0933    2.2504 H   0  0  0  0  0  0  0  0  0  0  0  0
    5.1680    0.7319   -0.7853 H   0  0  0  0  0  0  0  0  0  0  0  0
    6.4642    0.6295    0.4249 H   0  0  0  0  0  0  0  0  0  0  0  0
    5.5923    2.1648    0.1906 H   0  0  0  0  0  0  0  0  0  0  0  0
    6.6044   -0.0691    2.7077 H   0  0  0  0  0  0  0  0  0  0  0  0
    8.0026   -1.6492    3.9622 H   0  0  0  0  0  0  0  0  0  0  0  0
    9.3212   -3.3548    3.9003 H   0  0  0  0  0  0  0  0  0  0  0  0
    9.4434   -4.7577    4.9208 H   0  0  0  0  0  0  0  0  0  0  0  0
    5.2343   -4.7869    2.9223 H   0  0  0  0  0  0  0  0  0  0  0  0
    2.3740   -1.6293    1.7085 H   0  0  0  0  0  0  0  0  0  0  0  0
    3.1864   -2.1621    0.2330 H   0  0  0  0  0  0  0  0  0  0  0  0
  1  2  1  0
  1 17  1  0
  1 18  1  0
  1 19  1  0
  2  3  1  0
  2 16  1  0
  2 20  1  6
  3  4  1  0
  3 21  1  0
  3 22  1  0
  4  5  1  0
  4  6  1  0
  4 23  1  1
  5 24  1  0
  5 25  1  0
  5 26  1  0
  6  7  1  0
  6 16  1  0
  7  8  2  0
  7 15  1  0
  8  9  1  0
  8 27  1  0
  9 10  2  0
  9 28  1  0
 10 11  1  0
 10 14  1  0
 11 12  1  0
 11 13  2  0
 12 29  1  0
 12 30  1  0
 14 15  2  0
 14 31  1  0
 16 32  1  0
 16 33  1  0
M  END

