
     RDKit          3D

 40 41  0  0  0  0  0  0  0  0999 V2000
    3.4495    2.7839    2.3789 C   0  0  0  0  0  0  0  0  0  0  0  0
    4.0983    1.7809    1.5579 N   0  0  0  0  0  0  0  0  0  0  0  0
    4.5193    2.0526    0.2979 C   0  0  0  0  0  0  0  0  0  0  0  0
    4.4820    3.2440   -0.2346 N   0  0  0  0  0  0  0  0  0  0  0  0
    4.9918    3.2370   -1.5076 C   0  0  0  0  0  0  0  0  0  0  0  0
    4.9946    4.3932   -2.2049 N   0  0  0  0  0  0  0  0  0  0  0  0
    5.4785    2.0073   -1.9903 C   0  0  0  0  0  0  0  0  0  0  0  0
    5.9123    1.8250   -3.3727 C   0  0  0  0  0  0  0  0  0  0  0  0
    5.7641    2.7626   -4.1762 O   0  0  0  0  0  0  0  0  0  0  0  0
    6.4590    0.6309   -3.8195 N   0  0  0  0  0  0  0  0  0  0  0  0
    7.1106   -0.3905   -3.0154 C   0  0  0  0  0  0  0  0  0  0  0  0
    6.5953   -1.7757   -3.4062 C   0  0  0  0  0  0  0  0  0  0  0  0
    6.7483   -2.0225   -4.9122 C   0  0  0  0  0  0  0  0  0  0  0  0
    6.1316   -0.8886   -5.7515 C   0  0  2  0  0  0  0  0  0  0  0  0
    6.4009   -1.0423   -7.1865 N   0  0  0  0  0  0  0  0  0  0  0  0
    6.1696   -2.3762   -7.7136 C   0  0  0  0  0  0  0  0  0  0  0  0
    5.7170   -0.0534   -8.0054 C   0  0  0  0  0  0  0  0  0  0  0  0
    6.6860    0.4634   -5.2485 C   0  0  0  0  0  0  0  0  0  0  0  0
    5.1985    0.7869   -0.7183 S   0  0  0  0  0  0  0  0  0  0  0  0
    3.4030    2.4234    3.4161 H   0  0  0  0  0  0  0  0  0  0  0  0
    2.4249    3.0144    2.0342 H   0  0  0  0  0  0  0  0  0  0  0  0
    4.0269    3.7190    2.3510 H   0  0  0  0  0  0  0  0  0  0  0  0
    4.0456    0.8115    1.8407 H   0  0  0  0  0  0  0  0  0  0  0  0
    4.4898    5.1788   -1.8188 H   0  0  0  0  0  0  0  0  0  0  0  0
    5.2025    4.3033   -3.1991 H   0  0  0  0  0  0  0  0  0  0  0  0
    6.9718   -0.2004   -1.9458 H   0  0  0  0  0  0  0  0  0  0  0  0
    8.2045   -0.3428   -3.1965 H   0  0  0  0  0  0  0  0  0  0  0  0
    5.5325   -1.8507   -3.1179 H   0  0  0  0  0  0  0  0  0  0  0  0
    7.1396   -2.5511   -2.8414 H   0  0  0  0  0  0  0  0  0  0  0  0
    6.2931   -2.9917   -5.1645 H   0  0  0  0  0  0  0  0  0  0  0  0
    7.8211   -2.0946   -5.1698 H   0  0  0  0  0  0  0  0  0  0  0  0
    5.0307   -0.8857   -5.5590 H   0  0  0  0  0  0  0  0  0  0  0  0
    6.8286   -3.1192   -7.2442 H   0  0  0  0  0  0  0  0  0  0  0  0
    6.3941   -2.3817   -8.7915 H   0  0  0  0  0  0  0  0  0  0  0  0
    5.1170   -2.7268   -7.5936 H   0  0  0  0  0  0  0  0  0  0  0  0
    5.9913    0.9700   -7.7173 H   0  0  0  0  0  0  0  0  0  0  0  0
    4.6059   -0.1331   -7.9494 H   0  0  0  0  0  0  0  0  0  0  0  0
    6.0068   -0.1834   -9.0596 H   0  0  0  0  0  0  0  0  0  0  0  0
    6.2198    1.3173   -5.7475 H   0  0  0  0  0  0  0  0  0  0  0  0
    7.7700    0.4941   -5.4761 H   0  0  0  0  0  0  0  0  0  0  0  0
  1  2  1  0
  1 20  1  0
  1 21  1  0
  1 22  1  0
  2  3  1  0
  2 23  1  0
  3  4  2  0
  3 19  1  0
  4  5  1  0
  5  6  1  0
  5  7  2  0
  6 24  1  0
  6 25  1  0
  7  8  1  0
  7 19  1  0
  8  9  2  0
  8 10  1  0
 10 11  1  0
 10 18  1  0
 11 12  1  0
 11 26  1  0
 11 27  1  0
 12 13  1  0
 12 28  1  0
 12 29  1  0
 13 14  1  0
 13 30  1  0
 13 31  1  0
 14 15  1  0
 14 18  1  0
 14 32  1  6
 15 16  1  0
 15 17  1  0
 16 33  1  0
 16 34  1  0
 16 35  1  0
 17 36  1  0
 17 37  1  0
 17 38  1  0
 18 39  1  0
 18 40  1  0
M  END

