
     RDKit          3D

 58 62  0  0  0  0  0  0  0  0999 V2000
   -0.4780    0.1375   -4.5237 C   0  0  0  0  0  0  0  0  0  0  0  0
    0.8827    0.2047   -5.0195 N   0  0  0  0  0  0  0  0  0  0  0  0
    1.6578    1.3439   -4.5375 C   0  0  0  0  0  0  0  0  0  0  0  0
    2.2095    1.1624   -3.1111 C   0  0  0  0  0  0  0  0  0  0  0  0
    3.0770   -0.1134   -2.9975 C   0  0  2  0  0  0  0  0  0  0  0  0
    4.3416    0.0226   -3.7463 N   0  0  0  0  0  0  0  0  0  0  0  0
    5.2463    1.0164   -3.1816 C   0  0  0  0  0  0  0  0  0  0  0  0
    6.3980    1.3753   -4.1691 C   0  0  2  0  0  0  0  0  0  0  0  0
    6.2516    2.3998   -4.5454 H   0  0  0  0  0  0  0  0  0  0  0  0
    6.4231    0.3844   -5.3368 C   0  0  0  0  0  0  0  0  0  0  0  0
    6.4349   -0.9971   -4.6849 C   0  0  2  0  0  0  0  0  0  0  0  0
    6.5481   -1.7856   -5.4428 H   0  0  0  0  0  0  0  0  0  0  0  0
    5.0556   -1.2301   -3.9785 C   0  0  0  0  0  0  0  0  0  0  0  0
    7.6212   -1.1529   -3.7458 C   0  0  0  0  0  0  0  0  0  0  0  0
    8.1283   -2.3939   -3.4446 C   0  0  0  0  0  0  0  0  0  0  0  0
    9.2020   -2.5524   -2.5315 C   0  0  0  0  0  0  0  0  0  0  0  0
    9.7559   -1.4395   -1.9427 C   0  0  0  0  0  0  0  0  0  0  0  0
   10.8107   -1.4149   -1.0354 N   0  0  0  0  0  0  0  0  0  0  0  0
   11.5045   -2.4698   -0.5275 C   0  0  0  0  0  0  0  0  0  0  0  0
   11.3060   -3.6473   -0.7971 O   0  0  0  0  0  0  0  0  0  0  0  0
   12.5899   -2.0612    0.4397 C   0  0  0  0  0  0  0  0  0  0  0  0
   13.3884   -3.0458    1.0441 C   0  0  0  0  0  0  0  0  0  0  0  0
   14.3573   -2.7276    1.9034 N   0  0  0  0  0  0  0  0  0  0  0  0
   14.5310   -1.4296    2.1604 C   0  0  0  0  0  0  0  0  0  0  0  0
   13.7368   -0.4436    1.5598 C   0  0  0  0  0  0  0  0  0  0  0  0
   12.7698   -0.7629    0.7022 N   0  0  0  0  0  0  0  0  0  0  0  0
    9.2621   -0.1018   -2.2580 C   0  0  0  0  0  0  0  0  0  0  0  0
    9.7536    0.9224   -1.7813 O   0  0  0  0  0  0  0  0  0  0  0  0
    8.1832   -0.0356   -3.1533 N   0  0  0  0  0  0  0  0  0  0  0  0
    7.7518    1.3411   -3.4724 C   0  0  0  0  0  0  0  0  0  0  0  0
    2.2026   -1.2871   -3.4904 C   0  0  0  0  0  0  0  0  0  0  0  0
    1.6411   -1.0365   -4.9032 C   0  0  0  0  0  0  0  0  0  0  0  0
   -1.0053    1.0762   -4.7603 H   0  0  0  0  0  0  0  0  0  0  0  0
   -0.5843   -0.0299   -3.4275 H   0  0  0  0  0  0  0  0  0  0  0  0
   -1.0178   -0.6794   -5.0302 H   0  0  0  0  0  0  0  0  0  0  0  0
    1.0315    2.2493   -4.5930 H   0  0  0  0  0  0  0  0  0  0  0  0
    2.5085    1.4971   -5.2239 H   0  0  0  0  0  0  0  0  0  0  0  0
    1.3774    1.0678   -2.3930 H   0  0  0  0  0  0  0  0  0  0  0  0
    2.7617    2.0643   -2.8057 H   0  0  0  0  0  0  0  0  0  0  0  0
    3.3080   -0.2922   -1.9215 H   0  0  0  0  0  0  0  0  0  0  0  0
    5.6725    0.6592   -2.2144 H   0  0  0  0  0  0  0  0  0  0  0  0
    4.6855    1.9273   -2.9407 H   0  0  0  0  0  0  0  0  0  0  0  0
    7.3167    0.5424   -5.9626 H   0  0  0  0  0  0  0  0  0  0  0  0
    5.5364    0.4964   -5.9747 H   0  0  0  0  0  0  0  0  0  0  0  0
    5.2221   -1.7968   -3.0352 H   0  0  0  0  0  0  0  0  0  0  0  0
    4.4501   -1.8715   -4.6336 H   0  0  0  0  0  0  0  0  0  0  0  0
    7.6865   -3.2711   -3.9192 H   0  0  0  0  0  0  0  0  0  0  0  0
    9.5983   -3.5377   -2.2918 H   0  0  0  0  0  0  0  0  0  0  0  0
   11.0849   -0.4794   -0.7254 H   0  0  0  0  0  0  0  0  0  0  0  0
   13.2187   -4.1006    0.8106 H   0  0  0  0  0  0  0  0  0  0  0  0
   15.3241   -1.1544    2.8649 H   0  0  0  0  0  0  0  0  0  0  0  0
   13.8906    0.6184    1.7800 H   0  0  0  0  0  0  0  0  0  0  0  0
    8.5305    1.8061   -4.1005 H   0  0  0  0  0  0  0  0  0  0  0  0
    7.7494    1.9055   -2.5293 H   0  0  0  0  0  0  0  0  0  0  0  0
    1.3676   -1.3882   -2.7775 H   0  0  0  0  0  0  0  0  0  0  0  0
    2.7402   -2.2464   -3.4505 H   0  0  0  0  0  0  0  0  0  0  0  0
    0.9973   -1.8770   -5.2104 H   0  0  0  0  0  0  0  0  0  0  0  0
    2.4770   -0.9972   -5.6243 H   0  0  0  0  0  0  0  0  0  0  0  0
  1  2  1  0
  1 33  1  0
  1 34  1  0
  1 35  1  0
  2  3  1  0
  2 32  1  0
  3  4  1  0
  3 36  1  0
  3 37  1  0
  4  5  1  0
  4 38  1  0
  4 39  1  0
  5  6  1  0
  5 31  1  0
  5 40  1  1
  6  7  1  0
  6 13  1  0
  7  8  1  0
  7 41  1  0
  7 42  1  0
  8  9  1  6
  8 10  1  0
  8 30  1  0
 10 11  1  0
 10 43  1  0
 10 44  1  0
 11 12  1  6
 11 13  1  0
 11 14  1  0
 13 45  1  0
 13 46  1  0
 14 15  2  0
 14 29  1  0
 15 16  1  0
 15 47  1  0
 16 17  2  0
 16 48  1  0
 17 18  1  0
 17 27  1  0
 18 19  1  0
 18 49  1  0
 19 20  2  0
 19 21  1  0
 21 22  2  0
 21 26  1  0
 22 23  1  0
 22 50  1  0
 23 24  2  0
 24 25  1  0
 24 51  1  0
 25 26  2  0
 25 52  1  0
 27 28  2  0
 27 29  1  0
 29 30  1  0
 30 53  1  0
 30 54  1  0
 31 32  1  0
 31 55  1  0
 31 56  1  0
 32 57  1  0
 32 58  1  0
M  END

