
     RDKit          3D

 37 38  0  0  0  0  0  0  0  0999 V2000
    4.4349   -1.2297    1.5391 C   0  0  0  0  0  0  0  0  0  0  0  0
    4.3223   -0.3463    0.7180 C   0  0  0  0  0  0  0  0  0  0  0  0
    4.2019    0.7136   -0.2814 C   0  0  0  0  0  0  0  0  0  0  0  0
    4.5696    0.2354   -1.7098 C   0  0  1  0  0  0  0  0  0  0  0  0
    3.7587   -0.8798   -2.1519 N   0  0  0  0  0  0  0  0  0  0  0  0
    2.4778   -0.7516   -2.5981 C   0  0  0  0  0  0  0  0  0  0  0  0
    1.7374   -1.8544   -3.0861 C   0  0  0  0  0  0  0  0  0  0  0  0
    0.4491   -1.5839   -3.5152 C   0  0  0  0  0  0  0  0  0  0  0  0
   -0.0926   -0.3564   -3.4983 N   0  0  0  0  0  0  0  0  0  0  0  0
    0.6824    0.6206   -3.0250 C   0  0  0  0  0  0  0  0  0  0  0  0
    0.1243    2.0256   -3.0463 C   0  0  0  0  0  0  0  0  0  0  0  0
    0.3352    2.7541   -4.3687 C   0  0  0  0  0  0  0  0  0  0  0  0
   -0.6905    3.5532   -4.8963 C   0  0  0  0  0  0  0  0  0  0  0  0
   -0.5096    4.2676   -6.0843 C   0  0  0  0  0  0  0  0  0  0  0  0
    0.7045    4.1888   -6.7715 C   0  0  0  0  0  0  0  0  0  0  0  0
    1.7313    3.3891   -6.2604 C   0  0  0  0  0  0  0  0  0  0  0  0
    1.5511    2.6785   -5.0698 C   0  0  0  0  0  0  0  0  0  0  0  0
    1.9286    0.4719   -2.5568 N   0  0  0  0  0  0  0  0  0  0  0  0
    4.6085    1.3424   -2.8003 C   0  0  0  0  0  0  0  0  0  0  0  0
    4.5560    2.6381   -2.3719 N   0  0  0  0  0  0  0  0  0  0  0  0
    4.7826    1.0395   -3.9637 O   0  0  0  0  0  0  0  0  0  0  0  0
    4.5282   -2.0076    2.2734 H   0  0  0  0  0  0  0  0  0  0  0  0
    4.8710    1.5439    0.0022 H   0  0  0  0  0  0  0  0  0  0  0  0
    3.1688    1.0991   -0.2916 H   0  0  0  0  0  0  0  0  0  0  0  0
    5.6065   -0.1360   -1.6761 H   0  0  0  0  0  0  0  0  0  0  0  0
    4.1968   -1.7861   -2.2319 H   0  0  0  0  0  0  0  0  0  0  0  0
    2.1574   -2.8614   -3.1232 H   0  0  0  0  0  0  0  0  0  0  0  0
   -0.1843   -2.3934   -3.8976 H   0  0  0  0  0  0  0  0  0  0  0  0
    0.6055    2.5972   -2.2355 H   0  0  0  0  0  0  0  0  0  0  0  0
   -0.9533    1.9726   -2.8369 H   0  0  0  0  0  0  0  0  0  0  0  0
   -1.6471    3.6152   -4.3692 H   0  0  0  0  0  0  0  0  0  0  0  0
   -1.3242    4.8825   -6.4765 H   0  0  0  0  0  0  0  0  0  0  0  0
    0.8475    4.7419   -7.7035 H   0  0  0  0  0  0  0  0  0  0  0  0
    2.6828    3.3100   -6.7931 H   0  0  0  0  0  0  0  0  0  0  0  0
    2.3647    2.0513   -4.6972 H   0  0  0  0  0  0  0  0  0  0  0  0
    4.1124    2.8799   -1.4959 H   0  0  0  0  0  0  0  0  0  0  0  0
    4.5088    3.3376   -3.1060 H   0  0  0  0  0  0  0  0  0  0  0  0
  1  2  3  0
  1 22  1  0
  2  3  1  0
  3  4  1  0
  3 23  1  0
  3 24  1  0
  4  5  1  0
  4 19  1  0
  4 25  1  1
  5  6  1  0
  5 26  1  0
  6  7  2  0
  6 18  1  0
  7  8  1  0
  7 27  1  0
  8  9  2  0
  8 28  1  0
  9 10  1  0
 10 11  1  0
 10 18  2  0
 11 12  1  0
 11 29  1  0
 11 30  1  0
 12 13  2  0
 12 17  1  0
 13 14  1  0
 13 31  1  0
 14 15  2  0
 14 32  1  0
 15 16  1  0
 15 33  1  0
 16 17  2  0
 16 34  1  0
 17 35  1  0
 19 20  1  0
 19 21  2  0
 20 36  1  0
 20 37  1  0
M  END

