
     RDKit          3D

 36 37  0  0  0  0  0  0  0  0999 V2000
    0.9297    2.4311    0.2413 C   0  0  0  0  0  0  0  0  0  0  0  0
    2.4429    2.2146    0.2062 C   0  0  0  0  0  0  0  0  0  0  0  0
    2.9631    1.2082    1.2530 C   0  0  1  0  0  0  0  0  0  0  0  0
    2.3320   -0.2101    1.1451 C   0  0  0  0  0  0  0  0  0  0  0  0
    2.4834   -0.8924   -0.2159 C   0  0  0  0  0  0  0  0  0  0  0  0
    4.4681    1.1317    1.2059 C   0  0  0  0  0  0  0  0  0  0  0  0
    5.1897    1.2624    0.1229 N   0  0  0  0  0  0  0  0  0  0  0  0
    6.5068    1.0841    0.5056 C   0  0  0  0  0  0  0  0  0  0  0  0
    7.6847    1.1285   -0.2546 C   0  0  0  0  0  0  0  0  0  0  0  0
    8.8967    0.9188    0.4015 C   0  0  0  0  0  0  0  0  0  0  0  0
    8.9474    0.6682    1.7886 C   0  0  0  0  0  0  0  0  0  0  0  0
    7.7869    0.6179    2.5637 C   0  0  0  0  0  0  0  0  0  0  0  0
    6.5758    0.8284    1.8961 C   0  0  0  0  0  0  0  0  0  0  0  0
    5.2520    0.8493    2.3352 N   0  0  0  0  0  0  0  0  0  0  0  0
    4.8449    0.7352    3.7181 C   0  0  0  0  0  0  0  0  0  0  0  0
    4.7615   -0.6940    4.2847 C   0  0  0  0  0  0  0  0  0  0  0  0
    4.5077   -0.8895    5.4393 O   0  0  0  0  0  0  0  0  0  0  0  0
    4.9662   -1.6958    3.4147 O   0  0  0  0  0  0  0  0  0  0  0  0
    0.6349    3.2203   -0.4681 H   0  0  0  0  0  0  0  0  0  0  0  0
    0.5858    2.7429    1.2424 H   0  0  0  0  0  0  0  0  0  0  0  0
    0.3693    1.5231   -0.0323 H   0  0  0  0  0  0  0  0  0  0  0  0
    2.9550    3.1759    0.3771 H   0  0  0  0  0  0  0  0  0  0  0  0
    2.7656    1.8907   -0.7949 H   0  0  0  0  0  0  0  0  0  0  0  0
    2.6776    1.5980    2.2466 H   0  0  0  0  0  0  0  0  0  0  0  0
    1.2637   -0.1344    1.4076 H   0  0  0  0  0  0  0  0  0  0  0  0
    2.7788   -0.8513    1.9242 H   0  0  0  0  0  0  0  0  0  0  0  0
    1.9279   -0.3611   -1.0043 H   0  0  0  0  0  0  0  0  0  0  0  0
    2.0941   -1.9219   -0.1760 H   0  0  0  0  0  0  0  0  0  0  0  0
    3.5365   -0.9372   -0.5347 H   0  0  0  0  0  0  0  0  0  0  0  0
    7.6374    1.3252   -1.3275 H   0  0  0  0  0  0  0  0  0  0  0  0
    9.8295    0.9480   -0.1669 H   0  0  0  0  0  0  0  0  0  0  0  0
    9.9158    0.5076    2.2685 H   0  0  0  0  0  0  0  0  0  0  0  0
    7.8360    0.4163    3.6361 H   0  0  0  0  0  0  0  0  0  0  0  0
    3.8526    1.1861    3.8579 H   0  0  0  0  0  0  0  0  0  0  0  0
    5.5353    1.2984    4.3655 H   0  0  0  0  0  0  0  0  0  0  0  0
    5.2012   -1.3372    2.5428 H   0  0  0  0  0  0  0  0  0  0  0  0
  1  2  1  0
  1 19  1  0
  1 20  1  0
  1 21  1  0
  2  3  1  0
  2 22  1  0
  2 23  1  0
  3  4  1  0
  3  6  1  0
  3 24  1  1
  4  5  1  0
  4 25  1  0
  4 26  1  0
  5 27  1  0
  5 28  1  0
  5 29  1  0
  6  7  2  0
  6 14  1  0
  7  8  1  0
  8  9  2  0
  8 13  1  0
  9 10  1  0
  9 30  1  0
 10 11  2  0
 10 31  1  0
 11 12  1  0
 11 32  1  0
 12 13  2  0
 12 33  1  0
 13 14  1  0
 14 15  1  0
 15 16  1  0
 15 34  1  0
 15 35  1  0
 16 17  2  0
 16 18  1  0
 18 36  1  0
M  END

