
     RDKit          3D

 44 45  0  0  0  0  0  0  0  0999 V2000
    3.2365    1.5356    0.5165 C   0  0  0  0  0  0  0  0  0  0  0  0
    2.7832    0.1068    0.1575 C   0  0  1  0  0  0  0  0  0  0  0  0
    3.5110   -0.9026    1.0646 C   0  0  0  0  0  0  0  0  0  0  0  0
    1.2658   -0.0054    0.4045 C   0  0  0  0  0  0  0  0  0  0  0  0
    3.0333   -0.1919   -1.3453 C   0  0  0  0  0  0  0  0  0  0  0  0
    4.5109   -0.2306   -1.8335 C   0  0  1  0  0  0  0  0  0  0  0  0
    5.0486   -1.6642   -2.0212 C   0  0  0  0  0  0  0  0  0  0  0  0
    4.2009   -2.4565   -2.9011 N   0  0  0  0  0  0  0  0  0  0  0  0
    4.6980    0.5749   -3.1277 C   0  0  0  0  0  0  0  0  0  0  0  0
    4.9410    0.0559   -4.2059 O   0  0  0  0  0  0  0  0  0  0  0  0
    4.5695    1.9375   -2.9623 N   0  0  0  0  0  0  0  0  0  0  0  0
    4.6373    2.9602   -3.9256 C   0  0  0  0  0  0  0  0  0  0  0  0
    4.4476    4.2955   -3.4538 C   0  0  0  0  0  0  0  0  0  0  0  0
    4.4940    5.3680   -4.3114 C   0  0  0  0  0  0  0  0  0  0  0  0
    4.7338    5.1770   -5.7011 C   0  0  0  0  0  0  0  0  0  0  0  0
    4.7728    6.2623   -6.5201 N   0  0  0  0  0  0  0  0  0  0  0  0
    4.9958    6.0664   -7.8013 C   0  0  0  0  0  0  0  0  0  0  0  0
    5.1990    4.7854   -8.3814 C   0  0  0  0  0  0  0  0  0  0  0  0
    5.1634    3.6744   -7.5681 C   0  0  0  0  0  0  0  0  0  0  0  0
    4.9251    3.8376   -6.1756 C   0  0  0  0  0  0  0  0  0  0  0  0
    4.8744    2.7406   -5.2749 C   0  0  0  0  0  0  0  0  0  0  0  0
    3.0199    1.7660    1.5724 H   0  0  0  0  0  0  0  0  0  0  0  0
    2.7100    2.2875   -0.0963 H   0  0  0  0  0  0  0  0  0  0  0  0
    4.3227    1.6741    0.3798 H   0  0  0  0  0  0  0  0  0  0  0  0
    3.2710   -0.7163    2.1243 H   0  0  0  0  0  0  0  0  0  0  0  0
    4.6062   -0.8356    0.9634 H   0  0  0  0  0  0  0  0  0  0  0  0
    3.2122   -1.9369    0.8297 H   0  0  0  0  0  0  0  0  0  0  0  0
    1.0165    0.2118    1.4561 H   0  0  0  0  0  0  0  0  0  0  0  0
    0.9012   -1.0193    0.1737 H   0  0  0  0  0  0  0  0  0  0  0  0
    0.7043    0.7029   -0.2269 H   0  0  0  0  0  0  0  0  0  0  0  0
    2.4672    0.5565   -1.9259 H   0  0  0  0  0  0  0  0  0  0  0  0
    2.5887   -1.1645   -1.6100 H   0  0  0  0  0  0  0  0  0  0  0  0
    5.1564    0.2573   -1.0806 H   0  0  0  0  0  0  0  0  0  0  0  0
    5.0683   -2.1494   -1.0321 H   0  0  0  0  0  0  0  0  0  0  0  0
    6.1039   -1.5889   -2.3561 H   0  0  0  0  0  0  0  0  0  0  0  0
    4.3042   -2.1090   -3.8550 H   0  0  0  0  0  0  0  0  0  0  0  0
    4.4979   -3.4312   -2.8978 H   0  0  0  0  0  0  0  0  0  0  0  0
    4.3832    2.2525   -2.0172 H   0  0  0  0  0  0  0  0  0  0  0  0
    4.2618    4.4607   -2.3879 H   0  0  0  0  0  0  0  0  0  0  0  0
    4.3494    6.3899   -3.9559 H   0  0  0  0  0  0  0  0  0  0  0  0
    5.0225    6.9579   -8.4410 H   0  0  0  0  0  0  0  0  0  0  0  0
    5.3793    4.6972   -9.4553 H   0  0  0  0  0  0  0  0  0  0  0  0
    5.3148    2.6697   -7.9728 H   0  0  0  0  0  0  0  0  0  0  0  0
    5.0222    1.7266   -5.6395 H   0  0  0  0  0  0  0  0  0  0  0  0
  2  1  1  1
  1 22  1  0
  1 23  1  0
  1 24  1  0
  2  3  1  0
  2  4  1  0
  2  5  1  0
  3 25  1  0
  3 26  1  0
  3 27  1  0
  4 28  1  0
  4 29  1  0
  4 30  1  0
  5  6  1  0
  5 31  1  0
  5 32  1  0
  6  7  1  0
  6  9  1  0
  6 33  1  1
  7  8  1  0
  7 34  1  0
  7 35  1  0
  8 36  1  0
  8 37  1  0
  9 10  2  0
  9 11  1  0
 11 12  1  0
 11 38  1  0
 12 13  2  0
 12 21  1  0
 13 14  1  0
 13 39  1  0
 14 15  2  0
 14 40  1  0
 15 16  1  0
 15 20  1  0
 16 17  2  0
 17 18  1  0
 17 41  1  0
 18 19  2  0
 18 42  1  0
 19 20  1  0
 19 43  1  0
 20 21  2  0
 21 44  1  0
M  END

