
     RDKit          3D

123131  0  0  0  0  0  0  0  0999 V2000
    2.2310   -2.2088   -3.0725 C   0  0  0  0  0  0  0  0  0  0  0  0
    3.4265   -1.6566   -2.2948 C   0  0  0  0  0  0  0  0  0  0  0  0
    3.9164   -2.5868   -1.1805 C   0  0  0  0  0  0  0  0  0  0  0  0
    5.1134   -2.0416   -0.3961 C   0  0  0  0  0  0  0  0  0  0  0  0
    5.6016   -2.9727    0.7175 C   0  0  0  0  0  0  0  0  0  0  0  0
    6.7982   -2.4278    1.5031 C   0  0  0  0  0  0  0  0  0  0  0  0
    7.2820   -3.3640    2.6159 C   0  0  0  0  0  0  0  0  0  0  0  0
    8.4771   -2.8028    3.3909 C   0  0  0  0  0  0  0  0  0  0  0  0
    9.0365   -3.6863    4.5439 C   0  0  2  0  0  0  0  0  0  0  0  0
   10.2361   -2.9363    5.1921 C   0  0  0  0  0  0  0  0  0  0  0  0
   10.9348   -3.6408    6.3582 C   0  0  0  0  0  0  0  0  0  0  0  0
   12.1023   -2.8317    6.9339 C   0  0  0  0  0  0  0  0  0  0  0  0
   12.8124   -3.5226    8.1019 C   0  0  0  0  0  0  0  0  0  0  0  0
   13.9803   -2.7192    8.6821 C   0  0  0  0  0  0  0  0  0  0  0  0
   14.6895   -3.4112    9.8497 C   0  0  0  0  0  0  0  0  0  0  0  0
   15.8579   -2.6094   10.4316 C   0  0  0  0  0  0  0  0  0  0  0  0
   16.5601   -3.3079   11.5969 C   0  0  0  0  0  0  0  0  0  0  0  0
    9.4326   -5.0801    4.0533 C   0  0  0  0  0  0  0  0  0  0  0  0
   10.3832   -5.4275    3.1015 C   0  0  0  0  0  0  0  0  0  0  0  0
   10.5977   -6.7845    2.7700 C   0  0  0  0  0  0  0  0  0  0  0  0
   11.6073   -7.1656    1.7529 C   0  0  0  0  0  0  0  0  0  0  0  0
   12.7983   -6.4254    1.5900 C   0  0  0  0  0  0  0  0  0  0  0  0
   13.7525   -6.7701    0.6404 C   0  0  0  0  0  0  0  0  0  0  0  0
   13.5546   -7.8877   -0.2045 C   0  0  0  0  0  0  0  0  0  0  0  0
   14.4800   -8.3350   -1.2282 C   0  0  0  0  0  0  0  0  0  0  0  0
   15.6955   -7.9044   -1.6740 C   0  0  0  0  0  0  0  0  0  0  0  0
   16.5983   -6.7786   -1.2937 C   0  0  0  0  0  0  0  0  0  0  0  0
   16.4577   -5.9196   -0.4402 O   0  0  0  0  0  0  0  0  0  0  0  0
   17.7912   -6.8811   -2.1957 C   0  0  0  0  0  0  0  0  0  0  0  0
   18.9188   -6.0615   -2.2389 C   0  0  0  0  0  0  0  0  0  0  0  0
   19.9104   -6.3625   -3.1790 C   0  0  0  0  0  0  0  0  0  0  0  0
   19.7724   -7.4570   -4.0517 C   0  0  0  0  0  0  0  0  0  0  0  0
   18.6391   -8.2763   -4.0043 C   0  0  0  0  0  0  0  0  0  0  0  0
   17.6543   -7.9716   -3.0654 C   0  0  0  0  0  0  0  0  0  0  0  0
   16.3576   -8.6607   -2.7917 C   0  0  0  0  0  0  0  0  0  0  0  0
   15.9250   -9.6414   -3.3635 O   0  0  0  0  0  0  0  0  0  0  0  0
   12.3604   -8.6303   -0.0417 C   0  0  0  0  0  0  0  0  0  0  0  0
   11.4124   -8.2806    0.9108 C   0  0  0  0  0  0  0  0  0  0  0  0
    9.8294   -7.7684    3.4300 C   0  0  0  0  0  0  0  0  0  0  0  0
    8.8769   -7.4278    4.3906 C   0  0  0  0  0  0  0  0  0  0  0  0
    8.6755   -6.0789    4.7034 C   0  0  0  0  0  0  0  0  0  0  0  0
    7.7600   -5.4291    5.6455 C   0  0  0  0  0  0  0  0  0  0  0  0
    6.8057   -5.9578    6.5217 C   0  0  0  0  0  0  0  0  0  0  0  0
    6.0547   -5.0893    7.3141 C   0  0  0  0  0  0  0  0  0  0  0  0
    6.2386   -3.6905    7.2560 C   0  0  0  0  0  0  0  0  0  0  0  0
    5.4321   -2.7832    8.1075 C   0  0  0  0  0  0  0  0  0  0  0  0
    5.9733   -1.5829    8.6168 C   0  0  0  0  0  0  0  0  0  0  0  0
    5.2288   -0.7231    9.4154 C   0  0  0  0  0  0  0  0  0  0  0  0
    3.8872   -1.0288    9.7447 C   0  0  0  0  0  0  0  0  0  0  0  0
    3.0205   -0.2059   10.5670 C   0  0  0  0  0  0  0  0  0  0  0  0
    3.1685    0.9802   11.2248 C   0  0  0  0  0  0  0  0  0  0  0  0
    4.2963    1.9453   11.3784 C   0  0  0  0  0  0  0  0  0  0  0  0
    5.4272    1.9027   10.9248 O   0  0  0  0  0  0  0  0  0  0  0  0
    3.7773    3.0555   12.2415 C   0  0  0  0  0  0  0  0  0  0  0  0
    4.4447    4.2003   12.6766 C   0  0  0  0  0  0  0  0  0  0  0  0
    3.7406    5.1008   13.4834 C   0  0  0  0  0  0  0  0  0  0  0  0
    2.4026    4.8575   13.8430 C   0  0  0  0  0  0  0  0  0  0  0  0
    1.7375    3.7074   13.4038 C   0  0  0  0  0  0  0  0  0  0  0  0
    2.4442    2.8136   12.6001 C   0  0  0  0  0  0  0  0  0  0  0  0
    1.9970    1.5236   11.9941 C   0  0  0  0  0  0  0  0  0  0  0  0
    0.8990    1.0155   12.1037 O   0  0  0  0  0  0  0  0  0  0  0  0
    3.3438   -2.2321    9.2339 C   0  0  0  0  0  0  0  0  0  0  0  0
    4.0946   -3.0870    8.4377 C   0  0  0  0  0  0  0  0  0  0  0  0
    7.2096   -3.1747    6.3680 C   0  0  0  0  0  0  0  0  0  0  0  0
    7.9576   -4.0329    5.5715 C   0  0  0  0  0  0  0  0  0  0  0  0
    1.9063   -1.5150   -3.8645 H   0  0  0  0  0  0  0  0  0  0  0  0
    1.3672   -2.3838   -2.4092 H   0  0  0  0  0  0  0  0  0  0  0  0
    2.4753   -3.1711   -3.5534 H   0  0  0  0  0  0  0  0  0  0  0  0
    3.1615   -0.6763   -1.8581 H   0  0  0  0  0  0  0  0  0  0  0  0
    4.2601   -1.4567   -2.9926 H   0  0  0  0  0  0  0  0  0  0  0  0
    4.1822   -3.5682   -1.6164 H   0  0  0  0  0  0  0  0  0  0  0  0
    3.0829   -2.7875   -0.4814 H   0  0  0  0  0  0  0  0  0  0  0  0
    4.8472   -1.0603    0.0396 H   0  0  0  0  0  0  0  0  0  0  0  0
    5.9466   -1.8411   -1.0953 H   0  0  0  0  0  0  0  0  0  0  0  0
    5.8685   -3.9538    0.2822 H   0  0  0  0  0  0  0  0  0  0  0  0
    4.7686   -3.1737    1.4167 H   0  0  0  0  0  0  0  0  0  0  0  0
    6.5314   -1.4468    1.9388 H   0  0  0  0  0  0  0  0  0  0  0  0
    7.6317   -2.2269    0.8041 H   0  0  0  0  0  0  0  0  0  0  0  0
    7.5496   -4.3406    2.1764 H   0  0  0  0  0  0  0  0  0  0  0  0
    6.4477   -3.5611    3.3112 H   0  0  0  0  0  0  0  0  0  0  0  0
    8.2050   -1.8211    3.8183 H   0  0  0  0  0  0  0  0  0  0  0  0
    9.3046   -2.6008    2.6874 H   0  0  0  0  0  0  0  0  0  0  0  0
    9.8759   -1.9472    5.5275 H   0  0  0  0  0  0  0  0  0  0  0  0
   10.9747   -2.7281    4.3973 H   0  0  0  0  0  0  0  0  0  0  0  0
   11.3057   -4.6267    6.0282 H   0  0  0  0  0  0  0  0  0  0  0  0
   10.2048   -3.8441    7.1607 H   0  0  0  0  0  0  0  0  0  0  0  0
   11.7354   -1.8420    7.2648 H   0  0  0  0  0  0  0  0  0  0  0  0
   12.8362   -2.6246    6.1327 H   0  0  0  0  0  0  0  0  0  0  0  0
   13.1789   -4.5121    7.7707 H   0  0  0  0  0  0  0  0  0  0  0  0
   12.0783   -3.7297    8.9027 H   0  0  0  0  0  0  0  0  0  0  0  0
   13.6134   -1.7297    9.0132 H   0  0  0  0  0  0  0  0  0  0  0  0
   14.7142   -2.5122    7.8809 H   0  0  0  0  0  0  0  0  0  0  0  0
   15.0565   -4.4010    9.5188 H   0  0  0  0  0  0  0  0  0  0  0  0
   13.9556   -3.6185   10.6511 H   0  0  0  0  0  0  0  0  0  0  0  0
   15.4901   -1.6206   10.7618 H   0  0  0  0  0  0  0  0  0  0  0  0
   16.5905   -2.4026    9.6300 H   0  0  0  0  0  0  0  0  0  0  0  0
   15.8631   -3.4950   12.4311 H   0  0  0  0  0  0  0  0  0  0  0  0
   17.3936   -2.7037   11.9898 H   0  0  0  0  0  0  0  0  0  0  0  0
   16.9729   -4.2836   11.2895 H   0  0  0  0  0  0  0  0  0  0  0  0
   10.9505   -4.6508    2.5832 H   0  0  0  0  0  0  0  0  0  0  0  0
   12.9938   -5.5731    2.2441 H   0  0  0  0  0  0  0  0  0  0  0  0
   14.6685   -6.1871    0.5415 H   0  0  0  0  0  0  0  0  0  0  0  0
   14.1380   -9.2226   -1.7786 H   0  0  0  0  0  0  0  0  0  0  0  0
   19.0112   -5.2153   -1.5544 H   0  0  0  0  0  0  0  0  0  0  0  0
   20.8072   -5.7404   -3.2396 H   0  0  0  0  0  0  0  0  0  0  0  0
   20.5641   -7.6669   -4.7755 H   0  0  0  0  0  0  0  0  0  0  0  0
   18.5169   -9.1298   -4.6749 H   0  0  0  0  0  0  0  0  0  0  0  0
   12.1791   -9.4927   -0.6887 H   0  0  0  0  0  0  0  0  0  0  0  0
   10.4915   -8.8622    0.9865 H   0  0  0  0  0  0  0  0  0  0  0  0
   10.0033   -8.8227    3.2052 H   0  0  0  0  0  0  0  0  0  0  0  0
    8.3050   -8.2119    4.8931 H   0  0  0  0  0  0  0  0  0  0  0  0
    6.6493   -7.0369    6.5965 H   0  0  0  0  0  0  0  0  0  0  0  0
    5.3282   -5.5047    8.0154 H   0  0  0  0  0  0  0  0  0  0  0  0
    7.0141   -1.3307    8.4033 H   0  0  0  0  0  0  0  0  0  0  0  0
    5.6737    0.1935    9.8037 H   0  0  0  0  0  0  0  0  0  0  0  0
    2.0109   -0.6192   10.6996 H   0  0  0  0  0  0  0  0  0  0  0  0
    5.4838    4.3749   12.3889 H   0  0  0  0  0  0  0  0  0  0  0  0
    4.2337    6.0081   13.8419 H   0  0  0  0  0  0  0  0  0  0  0  0
    1.8788    5.5797   14.4745 H   0  0  0  0  0  0  0  0  0  0  0  0
    0.6990    3.5040   13.6742 H   0  0  0  0  0  0  0  0  0  0  0  0
    2.3062   -2.4866    9.4657 H   0  0  0  0  0  0  0  0  0  0  0  0
    3.6309   -3.9923    8.0409 H   0  0  0  0  0  0  0  0  0  0  0  0
    7.3482   -2.0937    6.2912 H   0  0  0  0  0  0  0  0  0  0  0  0
  1  2  1  0
  1 66  1  0
  1 67  1  0
  1 68  1  0
  2  3  1  0
  2 69  1  0
  2 70  1  0
  3  4  1  0
  3 71  1  0
  3 72  1  0
  4  5  1  0
  4 73  1  0
  4 74  1  0
  5  6  1  0
  5 75  1  0
  5 76  1  0
  6  7  1  0
  6 77  1  0
  6 78  1  0
  7  8  1  0
  7 79  1  0
  7 80  1  0
  9  8  1  6
  8 81  1  0
  8 82  1  0
  9 10  1  0
  9 18  1  0
  9 65  1  0
 10 11  1  0
 10 83  1  0
 10 84  1  0
 11 12  1  0
 11 85  1  0
 11 86  1  0
 12 13  1  0
 12 87  1  0
 12 88  1  0
 13 14  1  0
 13 89  1  0
 13 90  1  0
 14 15  1  0
 14 91  1  0
 14 92  1  0
 15 16  1  0
 15 93  1  0
 15 94  1  0
 16 17  1  0
 16 95  1  0
 16 96  1  0
 17 97  1  0
 17 98  1  0
 17 99  1  0
 18 19  2  0
 18 41  1  0
 19 20  1  0
 19100  1  0
 20 21  1  0
 20 39  2  0
 21 22  2  0
 21 38  1  0
 22 23  1  0
 22101  1  0
 23 24  2  0
 23102  1  0
 24 25  1  0
 24 37  1  0
 25 26  2  0
 25103  1  0
 26 27  1  0
 26 35  1  0
 27 28  2  0
 27 29  1  0
 29 30  1  0
 29 34  2  0
 30 31  2  0
 30104  1  0
 31 32  1  0
 31105  1  0
 32 33  2  0
 32106  1  0
 33 34  1  0
 33107  1  0
 34 35  1  0
 35 36  2  0
 37 38  2  0
 37108  1  0
 38109  1  0
 39 40  1  0
 39110  1  0
 40 41  2  0
 40111  1  0
 41 42  1  0
 42 43  2  0
 42 65  1  0
 43 44  1  0
 43112  1  0
 44 45  2  0
 44113  1  0
 45 46  1  0
 45 64  1  0
 46 47  2  0
 46 63  1  0
 47 48  1  0
 47114  1  0
 48 49  2  0
 48115  1  0
 49 50  1  0
 49 62  1  0
 50 51  2  0
 50116  1  0
 51 52  1  0
 51 60  1  0
 52 53  2  0
 52 54  1  0
 54 55  1  0
 54 59  2  0
 55 56  2  0
 55117  1  0
 56 57  1  0
 56118  1  0
 57 58  2  0
 57119  1  0
 58 59  1  0
 58120  1  0
 59 60  1  0
 60 61  2  0
 62 63  2  0
 62121  1  0
 63122  1  0
 64 65  2  0
 64123  1  0
M  END

