
     RDKit          3D

 34 35  0  0  0  0  0  0  0  0999 V2000
    2.1227    0.7977   -1.6208 C   0  0  0  0  0  0  0  0  0  0  0  0
    2.9811    0.2768   -0.6268 O   0  0  0  0  0  0  0  0  0  0  0  0
    3.3926    1.0687    0.3849 C   0  0  0  0  0  0  0  0  0  0  0  0
    3.0216    2.4173    0.5354 C   0  0  0  0  0  0  0  0  0  0  0  0
    3.5134    3.1302    1.6238 C   0  0  0  0  0  0  0  0  0  0  0  0
    4.3654    2.5472    2.5718 C   0  0  0  0  0  0  0  0  0  0  0  0
    4.8544    3.3720    3.7002 C   0  0  0  0  0  0  0  0  0  0  0  0
    4.5468    4.5344    3.8676 O   0  0  0  0  0  0  0  0  0  0  0  0
    4.7232    1.1866    2.3992 C   0  0  0  0  0  0  0  0  0  0  0  0
    5.5518    0.6813    3.3846 O   0  0  0  0  0  0  0  0  0  0  0  0
    6.1251   -0.5552    3.4206 C   0  0  0  0  0  0  0  0  0  0  0  0
    5.9631   -1.4175    2.5998 O   0  0  0  0  0  0  0  0  0  0  0  0
    7.0299   -0.6664    4.6350 C   0  0  0  0  0  0  0  0  0  0  0  0
    8.3601    0.0322    4.4033 C   0  0  0  0  0  0  0  0  0  0  0  0
    8.6994    1.1946    5.1095 C   0  0  0  0  0  0  0  0  0  0  0  0
    9.9217    1.8351    4.8826 C   0  0  0  0  0  0  0  0  0  0  0  0
   10.8187    1.3216    3.9424 C   0  0  0  0  0  0  0  0  0  0  0  0
   10.4873    0.1640    3.2304 C   0  0  0  0  0  0  0  0  0  0  0  0
    9.2670   -0.4756    3.4589 C   0  0  0  0  0  0  0  0  0  0  0  0
    4.2457    0.4502    1.3195 C   0  0  0  0  0  0  0  0  0  0  0  0
    1.9313   -0.0222   -2.3253 H   0  0  0  0  0  0  0  0  0  0  0  0
    2.5898    1.6373   -2.1651 H   0  0  0  0  0  0  0  0  0  0  0  0
    1.1620    1.1366   -1.1947 H   0  0  0  0  0  0  0  0  0  0  0  0
    2.3622    2.9069   -0.1803 H   0  0  0  0  0  0  0  0  0  0  0  0
    3.2480    4.1794    1.7729 H   0  0  0  0  0  0  0  0  0  0  0  0
    5.5436    2.8569    4.4082 H   0  0  0  0  0  0  0  0  0  0  0  0
    7.1819   -1.7403    4.8150 H   0  0  0  0  0  0  0  0  0  0  0  0
    6.5199   -0.2291    5.5051 H   0  0  0  0  0  0  0  0  0  0  0  0
    8.0027    1.6017    5.8476 H   0  0  0  0  0  0  0  0  0  0  0  0
   10.1721    2.7390    5.4437 H   0  0  0  0  0  0  0  0  0  0  0  0
   11.7743    1.8213    3.7647 H   0  0  0  0  0  0  0  0  0  0  0  0
   11.1837   -0.2444    2.4935 H   0  0  0  0  0  0  0  0  0  0  0  0
    9.0109   -1.3785    2.8974 H   0  0  0  0  0  0  0  0  0  0  0  0
    4.5165   -0.5911    1.1780 H   0  0  0  0  0  0  0  0  0  0  0  0
  1  2  1  0
  1 21  1  0
  1 22  1  0
  1 23  1  0
  2  3  1  0
  3  4  2  0
  3 20  1  0
  4  5  1  0
  4 24  1  0
  5  6  2  0
  5 25  1  0
  6  7  1  0
  6  9  1  0
  7  8  2  0
  7 26  1  0
  9 10  1  0
  9 20  2  0
 10 11  1  0
 11 12  2  0
 11 13  1  0
 13 14  1  0
 13 27  1  0
 13 28  1  0
 14 15  2  0
 14 19  1  0
 15 16  1  0
 15 29  1  0
 16 17  2  0
 16 30  1  0
 17 18  1  0
 17 31  1  0
 18 19  2  0
 18 32  1  0
 19 33  1  0
 20 34  1  0
M  END

