
     RDKit          3D

 51 53  0  0  0  0  0  0  0  0999 V2000
    7.2205    0.8292    0.2691 O   0  0  0  0  0  0  0  0  0  0  0  0
    6.4922    0.0369    0.8138 C   0  0  0  0  0  0  0  0  0  0  0  0
    6.8312   -0.4587    2.0197 O   0  0  0  0  0  0  0  0  0  0  0  0
    5.1626   -0.4551    0.2569 C   0  0  0  0  0  0  0  0  0  0  0  0
    4.8321    0.0377   -1.1542 C   0  0  0  0  0  0  0  0  0  0  0  0
    5.4599   -0.7721   -2.2977 C   0  0  1  0  0  0  0  0  0  0  0  0
    5.0300   -0.2285   -3.6872 C   0  0  0  0  0  0  0  0  0  0  0  0
    3.5827   -0.5010   -4.0291 C   0  0  0  0  0  0  0  0  0  0  0  0
    2.6094    0.5102   -4.0053 C   0  0  0  0  0  0  0  0  0  0  0  0
    1.2725    0.2307   -4.3085 C   0  0  0  0  0  0  0  0  0  0  0  0
    0.8857   -1.0705   -4.6394 C   0  0  0  0  0  0  0  0  0  0  0  0
    1.8455   -2.0883   -4.6694 C   0  0  0  0  0  0  0  0  0  0  0  0
    3.1798   -1.8053   -4.3689 C   0  0  0  0  0  0  0  0  0  0  0  0
    6.9084   -0.8211   -2.1499 N   0  0  0  0  0  0  0  0  0  0  0  0
    7.6416   -1.7694   -2.8268 C   0  0  0  0  0  0  0  0  0  0  0  0
    7.1017   -2.6241   -3.5244 O   0  0  0  0  0  0  0  0  0  0  0  0
    9.0188   -1.7260   -2.6523 N   0  0  0  0  0  0  0  0  0  0  0  0
    9.8485   -2.5213   -3.5411 C   0  0  0  0  0  0  0  0  0  0  0  0
   10.5000   -1.6907   -4.6442 C   0  0  0  0  0  0  0  0  0  0  0  0
   11.4240   -0.7150   -4.1591 O   0  0  0  0  0  0  0  0  0  0  0  0
   10.9398    0.4736   -3.6749 C   0  0  0  0  0  0  0  0  0  0  0  0
   11.3567    1.6544   -4.2995 C   0  0  0  0  0  0  0  0  0  0  0  0
   10.9532    2.8995   -3.8119 C   0  0  0  0  0  0  0  0  0  0  0  0
   10.1236    2.9430   -2.6953 C   0  0  0  0  0  0  0  0  0  0  0  0
    9.7242    4.1341   -2.2198 F   0  0  0  0  0  0  0  0  0  0  0  0
    9.6991    1.7810   -2.0540 C   0  0  0  0  0  0  0  0  0  0  0  0
   10.1073    0.5301   -2.5366 C   0  0  0  0  0  0  0  0  0  0  0  0
    9.7134   -0.7497   -1.8210 C   0  0  0  0  0  0  0  0  0  0  0  0
    6.1610   -1.0823    2.3354 H   0  0  0  0  0  0  0  0  0  0  0  0
    4.3853   -0.1183    0.9673 H   0  0  0  0  0  0  0  0  0  0  0  0
    5.1536   -1.5595    0.3013 H   0  0  0  0  0  0  0  0  0  0  0  0
    5.1333    1.0958   -1.2380 H   0  0  0  0  0  0  0  0  0  0  0  0
    3.7411    0.0123   -1.2921 H   0  0  0  0  0  0  0  0  0  0  0  0
    5.1045   -1.8137   -2.2346 H   0  0  0  0  0  0  0  0  0  0  0  0
    5.6720   -0.7235   -4.4300 H   0  0  0  0  0  0  0  0  0  0  0  0
    5.2406    0.8534   -3.7312 H   0  0  0  0  0  0  0  0  0  0  0  0
    2.9042    1.5337   -3.7545 H   0  0  0  0  0  0  0  0  0  0  0  0
    0.5318    1.0347   -4.2894 H   0  0  0  0  0  0  0  0  0  0  0  0
   -0.1579   -1.2906   -4.8789 H   0  0  0  0  0  0  0  0  0  0  0  0
    1.5536   -3.1078   -4.9359 H   0  0  0  0  0  0  0  0  0  0  0  0
    3.9309   -2.6002   -4.4054 H   0  0  0  0  0  0  0  0  0  0  0  0
    7.3547    0.0035   -1.7656 H   0  0  0  0  0  0  0  0  0  0  0  0
    9.2111   -3.2920   -3.9949 H   0  0  0  0  0  0  0  0  0  0  0  0
   10.6374   -3.0218   -2.9519 H   0  0  0  0  0  0  0  0  0  0  0  0
    9.7228   -1.2005   -5.2575 H   0  0  0  0  0  0  0  0  0  0  0  0
   11.0887   -2.3518   -5.2998 H   0  0  0  0  0  0  0  0  0  0  0  0
   12.0106    1.5772   -5.1704 H   0  0  0  0  0  0  0  0  0  0  0  0
   11.2691    3.8303   -4.2867 H   0  0  0  0  0  0  0  0  0  0  0  0
    9.0608    1.8581   -1.1702 H   0  0  0  0  0  0  0  0  0  0  0  0
    9.1116   -0.5128   -0.9339 H   0  0  0  0  0  0  0  0  0  0  0  0
   10.6308   -1.2394   -1.4496 H   0  0  0  0  0  0  0  0  0  0  0  0
  1  2  2  0
  2  3  1  0
  2  4  1  0
  3 29  1  0
  4  5  1  0
  4 30  1  0
  4 31  1  0
  5  6  1  0
  5 32  1  0
  5 33  1  0
  6  7  1  0
  6 14  1  0
  6 34  1  1
  7  8  1  0
  7 35  1  0
  7 36  1  0
  8  9  2  0
  8 13  1  0
  9 10  1  0
  9 37  1  0
 10 11  2  0
 10 38  1  0
 11 12  1  0
 11 39  1  0
 12 13  2  0
 12 40  1  0
 13 41  1  0
 14 15  1  0
 14 42  1  0
 15 16  2  0
 15 17  1  0
 17 18  1  0
 17 28  1  0
 18 19  1  0
 18 43  1  0
 18 44  1  0
 19 20  1  0
 19 45  1  0
 19 46  1  0
 20 21  1  0
 21 22  1  0
 21 27  2  0
 22 23  2  0
 22 47  1  0
 23 24  1  0
 23 48  1  0
 24 25  1  0
 24 26  2  0
 26 27  1  0
 26 49  1  0
 27 28  1  0
 28 50  1  0
 28 51  1  0
M  END

