
     RDKit          3D

 42 43  0  0  0  0  0  0  0  0999 V2000
    1.3359    0.2212    0.0700 C   0  0  0  0  0  0  0  0  0  0  0  0
    2.5981   -0.6553    0.0444 C   0  0  0  0  0  0  0  0  0  0  0  0
    3.2502   -0.7432   -1.3238 C   0  0  0  0  0  0  0  0  0  0  0  0
    4.1540    0.1744   -1.5367 N   0  0  0  0  0  0  0  0  0  0  0  0
    4.7623    0.1938   -2.7192 N   0  0  0  0  0  0  0  0  0  0  0  0
    5.4630    0.9211   -2.8481 H   0  0  0  0  0  0  0  0  0  0  0  0
    4.5719   -0.6741   -3.7754 C   0  0  0  0  0  0  0  0  0  0  0  0
    5.2271   -0.5544   -4.8104 O   0  0  0  0  0  0  0  0  0  0  0  0
    3.5579   -1.7110   -3.5345 C   0  0  0  0  0  0  0  0  0  0  0  0
    3.4186   -2.6324   -4.7381 C   0  0  0  0  0  0  0  0  0  0  0  0
    4.6647   -3.3023   -5.0652 N   0  0  0  0  0  0  0  0  0  0  0  0
    4.9826   -4.5703   -4.6889 C   0  0  0  0  0  0  0  0  0  0  0  0
    6.2795   -5.0921   -4.9369 C   0  0  0  0  0  0  0  0  0  0  0  0
    6.5238   -6.4017   -4.5554 C   0  0  0  0  0  0  0  0  0  0  0  0
    7.8593   -7.0629   -4.7655 C   0  0  0  0  0  0  0  0  0  0  0  0
    5.5678   -7.1578   -3.9708 N   0  0  0  0  0  0  0  0  0  0  0  0
    4.3817   -6.5876   -3.7742 C   0  0  0  0  0  0  0  0  0  0  0  0
    3.3096   -7.4217   -3.1208 C   0  0  0  0  0  0  0  0  0  0  0  0
    4.0462   -5.3301   -4.1011 N   0  0  0  0  0  0  0  0  0  0  0  0
    2.8855   -1.7458   -2.3312 C   0  0  0  0  0  0  0  0  0  0  0  0
    1.8158   -2.7391   -1.8929 C   0  0  0  0  0  0  0  0  0  0  0  0
    1.0837   -3.6443   -2.8860 C   0  0  0  0  0  0  0  0  0  0  0  0
    0.9219    0.2785    1.0892 H   0  0  0  0  0  0  0  0  0  0  0  0
    0.5430   -0.1650   -0.5908 H   0  0  0  0  0  0  0  0  0  0  0  0
    1.5734    1.2446   -0.2591 H   0  0  0  0  0  0  0  0  0  0  0  0
    2.3717   -1.6579    0.4363 H   0  0  0  0  0  0  0  0  0  0  0  0
    3.3465   -0.2144    0.7192 H   0  0  0  0  0  0  0  0  0  0  0  0
    3.1355   -2.0081   -5.6019 H   0  0  0  0  0  0  0  0  0  0  0  0
    2.6542   -3.3921   -4.5987 H   0  0  0  0  0  0  0  0  0  0  0  0
    5.4059   -2.6895   -5.3885 H   0  0  0  0  0  0  0  0  0  0  0  0
    7.0487   -4.4807   -5.4135 H   0  0  0  0  0  0  0  0  0  0  0  0
    8.5879   -6.3917   -5.2419 H   0  0  0  0  0  0  0  0  0  0  0  0
    7.7367   -7.9623   -5.3902 H   0  0  0  0  0  0  0  0  0  0  0  0
    8.2632   -7.4047   -3.7990 H   0  0  0  0  0  0  0  0  0  0  0  0
    3.6837   -8.4348   -2.9281 H   0  0  0  0  0  0  0  0  0  0  0  0
    2.4173   -7.4729   -3.7650 H   0  0  0  0  0  0  0  0  0  0  0  0
    2.9934   -6.9628   -2.1697 H   0  0  0  0  0  0  0  0  0  0  0  0
    1.0547   -2.1588   -1.3496 H   0  0  0  0  0  0  0  0  0  0  0  0
    2.2808   -3.3764   -1.1177 H   0  0  0  0  0  0  0  0  0  0  0  0
    0.6320   -3.0736   -3.7128 H   0  0  0  0  0  0  0  0  0  0  0  0
    0.2620   -4.1515   -2.3557 H   0  0  0  0  0  0  0  0  0  0  0  0
    1.7394   -4.4220   -3.3007 H   0  0  0  0  0  0  0  0  0  0  0  0
  1  2  1  0
  1 23  1  0
  1 24  1  0
  1 25  1  0
  2  3  1  0
  2 26  1  0
  2 27  1  0
  3  4  2  0
  3 20  1  0
  4  5  1  0
  5  6  1  0
  5  7  1  0
  7  8  2  0
  7  9  1  0
  9 10  1  0
  9 20  2  0
 10 11  1  0
 10 28  1  0
 10 29  1  0
 11 12  1  0
 11 30  1  0
 12 13  2  0
 12 19  1  0
 13 14  1  0
 13 31  1  0
 14 15  1  0
 14 16  2  0
 15 32  1  0
 15 33  1  0
 15 34  1  0
 16 17  1  0
 17 18  1  0
 17 19  2  0
 18 35  1  0
 18 36  1  0
 18 37  1  0
 20 21  1  0
 21 22  1  0
 21 38  1  0
 21 39  1  0
 22 40  1  0
 22 41  1  0
 22 42  1  0
M  END

