
     RDKit          3D

 22 23  0  0  0  0  0  0  0  0999 V2000
    0.8490    0.2591   -0.0790 F   0  0  0  0  0  0  0  0  0  0  0  0
    2.1773    0.1439   -0.1161 C   0  0  0  0  0  0  0  0  0  0  0  0
    2.9498    1.2159   -0.5547 C   0  0  0  0  0  0  0  0  0  0  0  0
    4.3365    1.0997   -0.5950 C   0  0  0  0  0  0  0  0  0  0  0  0
    4.9665   -0.0938   -0.1957 C   0  0  0  0  0  0  0  0  0  0  0  0
    6.3741   -0.1270   -0.2681 N   0  0  0  0  0  0  0  0  0  0  0  0
    7.2638   -1.1113    0.0404 C   0  0  0  0  0  0  0  0  0  0  0  0
    8.6752   -0.8138   -0.1543 C   0  0  0  0  0  0  0  0  0  0  0  0
    9.5720   -1.7099    0.1209 N   0  0  0  0  0  0  0  0  0  0  0  0
    9.1398   -2.8739    0.5747 N   0  0  0  0  0  0  0  0  0  0  0  0
    9.8483   -3.5726    0.7886 H   0  0  0  0  0  0  0  0  0  0  0  0
    7.8022   -3.2389    0.7892 C   0  0  0  0  0  0  0  0  0  0  0  0
    7.4600   -4.7531    1.3662 S   0  0  0  0  0  0  0  0  0  0  0  0
    6.8742   -2.2795    0.4929 N   0  0  0  0  0  0  0  0  0  0  0  0
    4.1846   -1.1748    0.2468 C   0  0  0  0  0  0  0  0  0  0  0  0
    2.7940   -1.0475    0.2831 C   0  0  0  0  0  0  0  0  0  0  0  0
    1.8098   -2.3718    0.8266 Cl  0  0  0  0  0  0  0  0  0  0  0  0
    2.4481    2.1356   -0.8614 H   0  0  0  0  0  0  0  0  0  0  0  0
    4.9354    1.9468   -0.9412 H   0  0  0  0  0  0  0  0  0  0  0  0
    6.7908    0.7323   -0.6072 H   0  0  0  0  0  0  0  0  0  0  0  0
    9.0287    0.1508   -0.5304 H   0  0  0  0  0  0  0  0  0  0  0  0
    4.6592   -2.1023    0.5583 H   0  0  0  0  0  0  0  0  0  0  0  0
  1  2  1  0
  2  3  2  0
  2 16  1  0
  3  4  1  0
  3 18  1  0
  4  5  2  0
  4 19  1  0
  5  6  1  0
  5 15  1  0
  6  7  1  0
  6 20  1  0
  7  8  1  0
  7 14  2  0
  8  9  2  0
  8 21  1  0
  9 10  1  0
 10 11  1  0
 10 12  1  0
 12 13  2  0
 12 14  1  0
 15 16  2  0
 15 22  1  0
 16 17  1  0
M  END

