
     RDKit          3D

 47 49  0  0  0  0  0  0  0  0999 V2000
    1.1656    0.3076   -0.3892 C   0  0  0  0  0  0  0  0  0  0  0  0
    2.6119    0.2266   -0.2433 N   0  0  0  0  0  0  0  0  0  0  0  0
    3.1305   -0.9170    0.4971 C   0  0  0  0  0  0  0  0  0  0  0  0
    2.9492   -2.2673   -0.2063 C   0  0  1  0  0  0  0  0  0  0  0  0
    3.7127   -2.4594   -1.5252 C   0  0  0  0  0  0  0  0  0  0  0  0
    3.7365   -3.9843   -1.6443 C   0  0  0  0  0  0  0  0  0  0  0  0
    3.8067   -4.4785   -0.3107 O   0  0  0  0  0  0  0  0  0  0  0  0
    3.4742   -3.4573    0.6165 C   0  0  0  0  0  0  0  0  0  0  0  0
    3.3774    1.2310   -0.7933 C   0  0  0  0  0  0  0  0  0  0  0  0
    2.8767    2.1508   -1.4247 O   0  0  0  0  0  0  0  0  0  0  0  0
    4.8920    1.1746   -0.5827 C   0  0  0  0  0  0  0  0  0  0  0  0
    5.5835    2.3748   -1.2259 C   0  0  0  0  0  0  0  0  0  0  0  0
    7.0703    2.2716   -1.1696 C   0  0  0  0  0  0  0  0  0  0  0  0
    7.8114    1.2235   -0.9599 N   0  0  0  0  0  0  0  0  0  0  0  0
    9.0922    1.7276   -1.0594 C   0  0  0  0  0  0  0  0  0  0  0  0
   10.3214    0.8948   -0.8895 C   0  0  1  0  0  0  0  0  0  0  0  0
   10.4322    0.1991    0.4835 C   0  0  0  0  0  0  0  0  0  0  0  0
   11.5346   -0.8419    0.2508 C   0  0  0  0  0  0  0  0  0  0  0  0
   11.2786   -1.3714   -1.1819 C   0  0  0  0  0  0  0  0  0  0  0  0
   10.4259   -0.2838   -1.8940 C   0  0  0  0  0  0  0  0  0  0  0  0
    9.1363    3.0110   -1.3139 N   0  0  0  0  0  0  0  0  0  0  0  0
    7.7921    3.3786   -1.3862 O   0  0  0  0  0  0  0  0  0  0  0  0
    0.6766    0.1340    0.5844 H   0  0  0  0  0  0  0  0  0  0  0  0
    0.7785   -0.4370   -1.1066 H   0  0  0  0  0  0  0  0  0  0  0  0
    0.9082    1.3066   -0.7590 H   0  0  0  0  0  0  0  0  0  0  0  0
    2.6199   -0.9561    1.4784 H   0  0  0  0  0  0  0  0  0  0  0  0
    4.1960   -0.7659    0.7110 H   0  0  0  0  0  0  0  0  0  0  0  0
    1.8745   -2.4301   -0.3997 H   0  0  0  0  0  0  0  0  0  0  0  0
    4.7399   -2.0673   -1.4297 H   0  0  0  0  0  0  0  0  0  0  0  0
    3.2388   -1.9647   -2.3862 H   0  0  0  0  0  0  0  0  0  0  0  0
    4.6008   -4.3631   -2.2143 H   0  0  0  0  0  0  0  0  0  0  0  0
    2.8179   -4.3567   -2.1401 H   0  0  0  0  0  0  0  0  0  0  0  0
    4.3753   -3.1665    1.1954 H   0  0  0  0  0  0  0  0  0  0  0  0
    2.7284   -3.8380    1.3361 H   0  0  0  0  0  0  0  0  0  0  0  0
    5.3057    0.2443   -1.0013 H   0  0  0  0  0  0  0  0  0  0  0  0
    5.1239    1.1405    0.4947 H   0  0  0  0  0  0  0  0  0  0  0  0
    5.2668    3.3176   -0.7551 H   0  0  0  0  0  0  0  0  0  0  0  0
    5.2693    2.4665   -2.2791 H   0  0  0  0  0  0  0  0  0  0  0  0
   11.1838    1.5686   -1.0171 H   0  0  0  0  0  0  0  0  0  0  0  0
    9.4722   -0.2929    0.7164 H   0  0  0  0  0  0  0  0  0  0  0  0
   10.6540    0.9029    1.3010 H   0  0  0  0  0  0  0  0  0  0  0  0
   11.5393   -1.6398    1.0094 H   0  0  0  0  0  0  0  0  0  0  0  0
   12.5190   -0.3465    0.3008 H   0  0  0  0  0  0  0  0  0  0  0  0
   10.7308   -2.3264   -1.1523 H   0  0  0  0  0  0  0  0  0  0  0  0
   12.2224   -1.5703   -1.7124 H   0  0  0  0  0  0  0  0  0  0  0  0
    9.4145   -0.6631   -2.1065 H   0  0  0  0  0  0  0  0  0  0  0  0
   10.8561    0.0423   -2.8531 H   0  0  0  0  0  0  0  0  0  0  0  0
  1  2  1  0
  1 23  1  0
  1 24  1  0
  1 25  1  0
  2  3  1  0
  2  9  1  0
  3  4  1  0
  3 26  1  0
  3 27  1  0
  4  5  1  0
  4  8  1  0
  4 28  1  6
  5  6  1  0
  5 29  1  0
  5 30  1  0
  6  7  1  0
  6 31  1  0
  6 32  1  0
  7  8  1  0
  8 33  1  0
  8 34  1  0
  9 10  2  0
  9 11  1  0
 11 12  1  0
 11 35  1  0
 11 36  1  0
 12 13  1  0
 12 37  1  0
 12 38  1  0
 13 14  2  0
 13 22  1  0
 14 15  1  0
 15 16  1  0
 15 21  2  0
 16 17  1  0
 16 20  1  0
 16 39  1  6
 17 18  1  0
 17 40  1  0
 17 41  1  0
 18 19  1  0
 18 42  1  0
 18 43  1  0
 19 20  1  0
 19 44  1  0
 19 45  1  0
 20 46  1  0
 20 47  1  0
 21 22  1  0
M  END

