
     RDKit          3D

 34 34  0  0  0  0  0  0  0  0999 V2000
    2.3786   -1.2133   -0.2550 C   0  0  0  0  0  0  0  0  0  0  0  0
    2.3206    0.1775   -0.0402 O   0  0  0  0  0  0  0  0  0  0  0  0
    3.0217    1.0060    1.2346 Si  0  0  1  0  0  4  0  0  0  0  0  0
    2.5689    2.7986    0.9523 C   0  0  0  0  0  0  0  0  0  0  0  0
    2.4622    0.3244    2.8955 C   0  0  0  0  0  0  0  0  0  0  0  0
    0.9449    0.3455    3.1320 C   0  0  0  0  0  0  0  0  0  0  0  0
    0.5479   -0.2279    4.4837 C   0  0  0  0  0  0  0  0  0  0  0  0
   -0.8678   -0.1640    4.6112 O   0  0  0  0  0  0  0  0  0  0  0  0
   -1.3564   -0.6787    5.7825 C   0  0  1  0  0  0  0  0  0  0  0  0
   -1.2627    0.1287    6.9419 O   0  0  0  0  0  0  0  0  0  0  0  0
   -2.5626   -0.0876    6.3614 C   0  0  2  0  0  0  0  0  0  0  0  0
   -3.5587   -0.8588    7.1859 C   0  0  0  0  0  0  0  0  0  0  0  0
    4.6779    0.7695    1.2323 O   0  0  0  0  0  0  0  0  0  0  0  0
    5.5784    1.1905    0.2348 C   0  0  0  0  0  0  0  0  0  0  0  0
    1.9933   -1.4350   -1.2636 H   0  0  0  0  0  0  0  0  0  0  0  0
    1.7575   -1.7702    0.4721 H   0  0  0  0  0  0  0  0  0  0  0  0
    3.4108   -1.6043   -0.1891 H   0  0  0  0  0  0  0  0  0  0  0  0
    1.4778    2.9418    1.0043 H   0  0  0  0  0  0  0  0  0  0  0  0
    2.8978    3.1368   -0.0435 H   0  0  0  0  0  0  0  0  0  0  0  0
    3.0361    3.4503    1.7085 H   0  0  0  0  0  0  0  0  0  0  0  0
    2.9835    0.8974    3.6841 H   0  0  0  0  0  0  0  0  0  0  0  0
    2.8521   -0.7069    2.9803 H   0  0  0  0  0  0  0  0  0  0  0  0
    0.4203   -0.2225    2.3448 H   0  0  0  0  0  0  0  0  0  0  0  0
    0.5549    1.3760    3.0723 H   0  0  0  0  0  0  0  0  0  0  0  0
    1.0241    0.3425    5.3031 H   0  0  0  0  0  0  0  0  0  0  0  0
    0.8889   -1.2800    4.5729 H   0  0  0  0  0  0  0  0  0  0  0  0
   -1.1081   -1.7411    5.9516 H   0  0  0  0  0  0  0  0  0  0  0  0
   -2.9526    0.7934    5.8316 H   0  0  0  0  0  0  0  0  0  0  0  0
   -3.0978   -1.7530    7.6318 H   0  0  0  0  0  0  0  0  0  0  0  0
   -4.4149   -1.1728    6.5666 H   0  0  0  0  0  0  0  0  0  0  0  0
   -3.9464   -0.2322    8.0054 H   0  0  0  0  0  0  0  0  0  0  0  0
    6.5734    0.7690    0.4519 H   0  0  0  0  0  0  0  0  0  0  0  0
    5.6780    2.2921    0.2052 H   0  0  0  0  0  0  0  0  0  0  0  0
    5.2759    0.8501   -0.7731 H   0  0  0  0  0  0  0  0  0  0  0  0
  1  2  1  0
  1 15  1  0
  1 16  1  0
  1 17  1  0
  3  2  1  6
  3  4  1  0
  3  5  1  0
  3 13  1  0
  4 18  1  0
  4 19  1  0
  4 20  1  0
  5  6  1  0
  5 21  1  0
  5 22  1  0
  6  7  1  0
  6 23  1  0
  6 24  1  0
  7  8  1  0
  7 25  1  0
  7 26  1  0
  8  9  1  0
  9 10  1  0
  9 11  1  0
  9 27  1  1
 10 11  1  0
 11 12  1  0
 11 28  1  6
 12 29  1  0
 12 30  1  0
 12 31  1  0
 13 14  1  0
 14 32  1  0
 14 33  1  0
 14 34  1  0
M  END

