
     RDKit          3D

 31 32  0  0  0  0  0  0  0  0999 V2000
    5.3953    2.1062   -2.4275 C   0  0  0  0  0  0  0  0  0  0  0  0
    4.5859    0.8784   -2.0955 C   0  0  0  0  0  0  0  0  0  0  0  0
    3.1809    0.8817   -2.2294 C   0  0  0  0  0  0  0  0  0  0  0  0
    2.4841   -0.2781   -1.9089 C   0  0  0  0  0  0  0  0  0  0  0  0
    3.0559   -1.4057   -1.4748 N   0  0  0  0  0  0  0  0  0  0  0  0
    4.3895   -1.4265   -1.3498 C   0  0  0  0  0  0  0  0  0  0  0  0
    4.9775   -2.5963   -0.9347 N   0  0  0  0  0  0  0  0  0  0  0  0
    4.2422   -3.7635   -0.4977 C   0  0  1  0  0  0  0  0  0  0  0  0
    5.0032   -5.0800   -0.7359 C   0  0  0  0  0  0  0  0  0  0  0  0
    4.2570   -6.0746    0.1536 C   0  0  0  0  0  0  0  0  0  0  0  0
    4.0074   -5.2989    1.4638 C   0  0  2  0  0  0  0  0  0  0  0  0
    2.9313   -5.8892    2.2479 N   0  0  0  0  0  0  0  0  0  0  0  0
    3.8564   -3.8095    1.0110 C   0  0  0  0  0  0  0  0  0  0  0  0
    5.1893   -0.2923   -1.6515 C   0  0  0  0  0  0  0  0  0  0  0  0
    5.0807    2.9642   -1.8103 H   0  0  0  0  0  0  0  0  0  0  0  0
    5.2504    2.4003   -3.4804 H   0  0  0  0  0  0  0  0  0  0  0  0
    6.4709    1.9448   -2.2640 H   0  0  0  0  0  0  0  0  0  0  0  0
    2.6490    1.7719   -2.5732 H   0  0  0  0  0  0  0  0  0  0  0  0
    1.3910   -0.3017   -2.0022 H   0  0  0  0  0  0  0  0  0  0  0  0
    5.9632   -2.5560   -0.7062 H   0  0  0  0  0  0  0  0  0  0  0  0
    3.3164   -3.7752   -1.0899 H   0  0  0  0  0  0  0  0  0  0  0  0
    6.0490   -4.9771   -0.3883 H   0  0  0  0  0  0  0  0  0  0  0  0
    5.0381   -5.3618   -1.7995 H   0  0  0  0  0  0  0  0  0  0  0  0
    4.7902   -7.0220    0.3226 H   0  0  0  0  0  0  0  0  0  0  0  0
    3.2847   -6.3280   -0.3069 H   0  0  0  0  0  0  0  0  0  0  0  0
    4.9217   -5.3798    2.0778 H   0  0  0  0  0  0  0  0  0  0  0  0
    2.0395   -5.7725    1.7624 H   0  0  0  0  0  0  0  0  0  0  0  0
    2.8310   -5.4049    3.1406 H   0  0  0  0  0  0  0  0  0  0  0  0
    4.5165   -3.1442    1.5917 H   0  0  0  0  0  0  0  0  0  0  0  0
    2.8269   -3.4498    1.1655 H   0  0  0  0  0  0  0  0  0  0  0  0
    6.2761   -0.3467   -1.5379 H   0  0  0  0  0  0  0  0  0  0  0  0
  1  2  1  0
  1 15  1  0
  1 16  1  0
  1 17  1  0
  2  3  2  0
  2 14  1  0
  3  4  1  0
  3 18  1  0
  4  5  2  0
  4 19  1  0
  5  6  1  0
  6  7  1  0
  6 14  2  0
  7  8  1  0
  7 20  1  0
  8  9  1  0
  8 13  1  0
  8 21  1  6
  9 10  1  0
  9 22  1  0
  9 23  1  0
 10 11  1  0
 10 24  1  0
 10 25  1  0
 11 12  1  0
 11 13  1  0
 11 26  1  1
 12 27  1  0
 12 28  1  0
 13 29  1  0
 13 30  1  0
 14 31  1  0
M  END

