
     RDKit          3D

 33 35  0  0  0  0  0  0  0  0999 V2000
    2.8020   -0.3517    2.4975 O   0  0  0  0  0  0  0  0  0  0  0  0
    2.3145   -0.4462    1.4012 C   0  0  0  0  0  0  0  0  0  0  0  0
    3.0389   -0.7375    0.2725 O   0  0  0  0  0  0  0  0  0  0  0  0
    4.3930   -0.9859    0.2786 C   0  0  0  0  0  0  0  0  0  0  0  0
    5.0613   -1.6649    1.3142 C   0  0  0  0  0  0  0  0  0  0  0  0
    6.4193   -1.9219    1.1860 C   0  0  0  0  0  0  0  0  0  0  0  0
    7.1452   -1.5210    0.0434 C   0  0  0  0  0  0  0  0  0  0  0  0
    8.5625   -1.7430   -0.1828 C   0  0  0  0  0  0  0  0  0  0  0  0
    9.3936   -2.4631    0.8624 C   0  0  1  0  0  0  0  0  0  0  0  0
    8.9194   -3.7017    1.0850 F   0  0  0  0  0  0  0  0  0  0  0  0
   10.6744   -2.5815    0.4959 F   0  0  0  0  0  0  0  0  0  0  0  0
    9.3661   -1.8081    2.0360 F   0  0  0  0  0  0  0  0  0  0  0  0
    9.1527   -1.3125   -1.3244 C   0  0  0  0  0  0  0  0  0  0  0  0
    8.4047   -0.6136   -2.3711 C   0  0  0  0  0  0  0  0  0  0  0  0
    8.8565   -0.2045   -3.4049 O   0  0  0  0  0  0  0  0  0  0  0  0
    7.0545   -0.4242   -2.1140 O   0  0  0  0  0  0  0  0  0  0  0  0
    6.4407   -0.8447   -0.9785 C   0  0  0  0  0  0  0  0  0  0  0  0
    5.0757   -0.5768   -0.8653 C   0  0  0  0  0  0  0  0  0  0  0  0
    0.8716   -0.2586    1.0860 C   0  0  0  0  0  0  0  0  0  0  0  0
    0.0141    0.0728    2.1490 C   0  0  0  0  0  0  0  0  0  0  0  0
   -1.3477    0.2594    1.9167 C   0  0  0  0  0  0  0  0  0  0  0  0
   -1.8624    0.1154    0.6231 C   0  0  0  0  0  0  0  0  0  0  0  0
   -1.0128   -0.2151   -0.4381 C   0  0  0  0  0  0  0  0  0  0  0  0
    0.3516   -0.4017   -0.2115 C   0  0  0  0  0  0  0  0  0  0  0  0
    4.5253   -1.9737    2.2079 H   0  0  0  0  0  0  0  0  0  0  0  0
    6.9299   -2.4477    1.9923 H   0  0  0  0  0  0  0  0  0  0  0  0
   10.2128   -1.4644   -1.5225 H   0  0  0  0  0  0  0  0  0  0  0  0
    4.5569   -0.0545   -1.6689 H   0  0  0  0  0  0  0  0  0  0  0  0
    0.4375    0.1791    3.1495 H   0  0  0  0  0  0  0  0  0  0  0  0
   -2.0117    0.5177    2.7452 H   0  0  0  0  0  0  0  0  0  0  0  0
   -2.9303    0.2614    0.4412 H   0  0  0  0  0  0  0  0  0  0  0  0
   -1.4159   -0.3274   -1.4475 H   0  0  0  0  0  0  0  0  0  0  0  0
    1.0186   -0.6588   -1.0348 H   0  0  0  0  0  0  0  0  0  0  0  0
  1  2  2  0
  2  3  1  0
  2 19  1  0
  3  4  1  0
  4  5  2  0
  4 18  1  0
  5  6  1  0
  5 25  1  0
  6  7  2  0
  6 26  1  0
  7  8  1  0
  7 17  1  0
  8  9  1  0
  8 13  2  0
  9 10  1  1
  9 11  1  0
  9 12  1  0
 13 14  1  0
 13 27  1  0
 14 15  2  0
 14 16  1  0
 16 17  1  0
 17 18  2  0
 18 28  1  0
 19 20  2  0
 19 24  1  0
 20 21  1  0
 20 29  1  0
 21 22  2  0
 21 30  1  0
 22 23  1  0
 22 31  1  0
 23 24  2  0
 23 32  1  0
 24 33  1  0
M  END

