
     RDKit          3D

 40 40  0  0  0  0  0  0  0  0999 V2000
    1.3964    0.0025    0.3841 C   0  0  0  0  0  0  0  0  0  0  0  0
    2.8740   -0.2392    0.4793 C   0  0  0  0  0  0  0  0  0  0  0  0
    3.5194   -0.7087    1.5547 C   0  0  0  0  0  0  0  0  0  0  0  0
    4.9986   -0.9558    1.6464 C   0  0  0  0  0  0  0  0  0  0  0  0
    5.3409   -2.4409    1.8792 C   0  0  0  0  0  0  0  0  0  0  0  0
    6.7611   -2.7099    2.0191 N   0  0  0  0  0  0  0  0  0  0  0  0
    7.3900   -2.5469    3.2388 C   0  0  0  0  0  0  0  0  0  0  0  0
    6.7821   -2.2968    4.2697 O   0  0  0  0  0  0  0  0  0  0  0  0
    8.7665   -2.6960    3.1968 N   0  0  0  0  0  0  0  0  0  0  0  0
    9.5384   -2.7648    4.4439 C   0  0  1  0  0  0  0  0  0  0  0  0
   10.9229   -3.3693    4.1648 C   0  0  0  0  0  0  0  0  0  0  0  0
   11.8433   -2.4384    3.3588 C   0  0  0  0  0  0  0  0  0  0  0  0
   11.9705   -1.0463    4.0006 C   0  0  2  0  0  0  0  0  0  0  0  0
   12.8539   -1.0961    5.2564 C   0  0  0  0  0  0  0  0  0  0  0  0
   13.4881   -2.0557    5.6043 O   0  0  0  0  0  0  0  0  0  0  0  0
   12.9231    0.0513    5.9704 O   0  0  0  0  0  0  0  0  0  0  0  0
   10.5698   -0.4433    4.2561 C   0  0  0  0  0  0  0  0  0  0  0  0
    9.6824   -1.3727    5.0896 C   0  0  0  0  0  0  0  0  0  0  0  0
    1.1770    1.0626    0.1650 H   0  0  0  0  0  0  0  0  0  0  0  0
    0.8777   -0.2660    1.3175 H   0  0  0  0  0  0  0  0  0  0  0  0
    0.9464   -0.5828   -0.4374 H   0  0  0  0  0  0  0  0  0  0  0  0
    3.4617    0.0029   -0.4175 H   0  0  0  0  0  0  0  0  0  0  0  0
    2.9364   -0.9521    2.4542 H   0  0  0  0  0  0  0  0  0  0  0  0
    5.4218   -0.3852    2.4922 H   0  0  0  0  0  0  0  0  0  0  0  0
    5.4991   -0.6000    0.7284 H   0  0  0  0  0  0  0  0  0  0  0  0
    4.9473   -3.0507    1.0492 H   0  0  0  0  0  0  0  0  0  0  0  0
    4.8548   -2.7875    2.8027 H   0  0  0  0  0  0  0  0  0  0  0  0
    7.3292   -2.6418    1.1823 H   0  0  0  0  0  0  0  0  0  0  0  0
    9.1368   -3.2300    2.4179 H   0  0  0  0  0  0  0  0  0  0  0  0
    8.9957   -3.4106    5.1555 H   0  0  0  0  0  0  0  0  0  0  0  0
   10.8127   -4.3380    3.6461 H   0  0  0  0  0  0  0  0  0  0  0  0
   11.4034   -3.5906    5.1298 H   0  0  0  0  0  0  0  0  0  0  0  0
   11.4536   -2.3077    2.3347 H   0  0  0  0  0  0  0  0  0  0  0  0
   12.8398   -2.8944    3.2685 H   0  0  0  0  0  0  0  0  0  0  0  0
   12.5126   -0.3816    3.3010 H   0  0  0  0  0  0  0  0  0  0  0  0
   12.3535    0.7278    5.5775 H   0  0  0  0  0  0  0  0  0  0  0  0
   10.0917   -0.2679    3.2785 H   0  0  0  0  0  0  0  0  0  0  0  0
   10.6310    0.5526    4.7316 H   0  0  0  0  0  0  0  0  0  0  0  0
    8.6812   -0.9408    5.2278 H   0  0  0  0  0  0  0  0  0  0  0  0
   10.1143   -1.5040    6.0977 H   0  0  0  0  0  0  0  0  0  0  0  0
  1  2  1  0
  1 19  1  0
  1 20  1  0
  1 21  1  0
  2  3  2  0
  2 22  1  0
  3  4  1  0
  3 23  1  0
  4  5  1  0
  4 24  1  0
  4 25  1  0
  5  6  1  0
  5 26  1  0
  5 27  1  0
  6  7  1  0
  6 28  1  0
  7  8  2  0
  7  9  1  0
  9 10  1  0
  9 29  1  0
 10 11  1  0
 10 18  1  0
 10 30  1  1
 11 12  1  0
 11 31  1  0
 11 32  1  0
 12 13  1  0
 12 33  1  0
 12 34  1  0
 13 14  1  0
 13 17  1  0
 13 35  1  6
 14 15  2  0
 14 16  1  0
 16 36  1  0
 17 18  1  0
 17 37  1  0
 17 38  1  0
 18 39  1  0
 18 40  1  0
M  END

