
     RDKit          3D

 65 66  0  0  0  0  0  0  0  0999 V2000
    2.5068   -0.0758    1.7143 C   0  0  0  0  0  0  0  0  0  0  0  0
    2.4172    0.2074    0.2143 C   0  0  0  0  0  0  0  0  0  0  0  0
    2.9368    1.5192   -0.1973 N   0  0  0  0  0  0  0  0  0  0  0  0
    1.9800    2.5677   -0.5147 C   0  0  0  0  0  0  0  0  0  0  0  0
    1.3500    3.2878    0.6725 C   0  0  0  0  0  0  0  0  0  0  0  0
    2.0734    3.5524    1.8446 C   0  0  0  0  0  0  0  0  0  0  0  0
    1.4937    4.2703    2.8947 C   0  0  0  0  0  0  0  0  0  0  0  0
    0.1794    4.7355    2.7892 C   0  0  0  0  0  0  0  0  0  0  0  0
   -0.5520    4.4739    1.6272 C   0  0  0  0  0  0  0  0  0  0  0  0
    0.0302    3.7537    0.5803 C   0  0  0  0  0  0  0  0  0  0  0  0
    4.3018    1.6334   -0.3503 C   0  0  0  0  0  0  0  0  0  0  0  0
    5.0405    0.6891   -0.1100 O   0  0  0  0  0  0  0  0  0  0  0  0
    4.8681    2.9724   -0.8335 C   0  0  0  0  0  0  0  0  0  0  0  0
    6.3964    2.9954   -0.8211 C   0  0  0  0  0  0  0  0  0  0  0  0
    6.9812    4.3200   -1.3181 C   0  0  0  0  0  0  0  0  0  0  0  0
    8.5120    4.3406   -1.3258 C   0  0  0  0  0  0  0  0  0  0  0  0
    9.0888    5.6742   -1.8165 C   0  0  0  0  0  0  0  0  0  0  0  0
   10.5426    5.7121   -1.8189 N   0  0  0  0  0  0  0  0  0  0  0  0
   11.2701    5.4736   -2.9418 C   0  0  0  0  0  0  0  0  0  0  0  0
   10.7648    5.3100   -4.0426 O   0  0  0  0  0  0  0  0  0  0  0  0
   12.7878    5.4995   -2.8198 C   0  0  0  0  0  0  0  0  0  0  0  0
   13.4522    5.9270   -3.9853 C   0  0  0  0  0  0  0  0  0  0  0  0
   14.8390    5.9744   -4.0455 C   0  0  0  0  0  0  0  0  0  0  0  0
   15.6485    6.5681   -5.5384 S   0  0  1  0  0  0  0  0  0  0  0  0
   14.6151    7.1760   -6.3820 O   0  0  0  0  0  0  0  0  0  0  0  0
   16.8368    7.3235   -5.1321 O   0  0  0  0  0  0  0  0  0  0  0  0
   16.2106    5.1226   -6.2289 N   0  0  0  0  0  0  0  0  0  0  0  0
   15.1987    4.3508   -6.9439 C   0  0  0  0  0  0  0  0  0  0  0  0
   17.5229    5.1822   -6.8690 C   0  0  0  0  0  0  0  0  0  0  0  0
   15.6239    5.5999   -2.9495 C   0  0  0  0  0  0  0  0  0  0  0  0
   14.9900    5.1583   -1.7945 C   0  0  0  0  0  0  0  0  0  0  0  0
   13.5888    5.1093   -1.7315 C   0  0  0  0  0  0  0  0  0  0  0  0
   12.9140    4.4993   -0.2262 Cl  0  0  0  0  0  0  0  0  0  0  0  0
    2.1194   -1.0854    1.9283 H   0  0  0  0  0  0  0  0  0  0  0  0
    1.9216    0.6462    2.3033 H   0  0  0  0  0  0  0  0  0  0  0  0
    3.5552   -0.0391    2.0442 H   0  0  0  0  0  0  0  0  0  0  0  0
    1.3699    0.1511   -0.1224 H   0  0  0  0  0  0  0  0  0  0  0  0
    2.9873   -0.5607   -0.3301 H   0  0  0  0  0  0  0  0  0  0  0  0
    1.1734    2.1344   -1.1312 H   0  0  0  0  0  0  0  0  0  0  0  0
    2.4682    3.3142   -1.1574 H   0  0  0  0  0  0  0  0  0  0  0  0
    3.0958    3.1802    1.9434 H   0  0  0  0  0  0  0  0  0  0  0  0
    2.0718    4.4643    3.8020 H   0  0  0  0  0  0  0  0  0  0  0  0
   -0.2745    5.2944    3.6114 H   0  0  0  0  0  0  0  0  0  0  0  0
   -1.5831    4.8257    1.5371 H   0  0  0  0  0  0  0  0  0  0  0  0
   -0.5521    3.5485   -0.3235 H   0  0  0  0  0  0  0  0  0  0  0  0
    4.4688    3.7945   -0.2147 H   0  0  0  0  0  0  0  0  0  0  0  0
    4.5003    3.1661   -1.8579 H   0  0  0  0  0  0  0  0  0  0  0  0
    6.7717    2.1603   -1.4341 H   0  0  0  0  0  0  0  0  0  0  0  0
    6.7522    2.7857    0.2017 H   0  0  0  0  0  0  0  0  0  0  0  0
    6.6059    5.1497   -0.6893 H   0  0  0  0  0  0  0  0  0  0  0  0
    6.6114    4.5285   -2.3393 H   0  0  0  0  0  0  0  0  0  0  0  0
    8.8928    3.5319   -1.9729 H   0  0  0  0  0  0  0  0  0  0  0  0
    8.8915    4.1284   -0.3095 H   0  0  0  0  0  0  0  0  0  0  0  0
    8.7190    6.5017   -1.1866 H   0  0  0  0  0  0  0  0  0  0  0  0
    8.7622    5.8702   -2.8477 H   0  0  0  0  0  0  0  0  0  0  0  0
   11.0234    5.7652   -0.9292 H   0  0  0  0  0  0  0  0  0  0  0  0
   12.8485    6.2205   -4.8450 H   0  0  0  0  0  0  0  0  0  0  0  0
   14.2830    4.2639   -6.3418 H   0  0  0  0  0  0  0  0  0  0  0  0
   15.5890    3.3343   -7.1072 H   0  0  0  0  0  0  0  0  0  0  0  0
   14.9322    4.7948   -7.9205 H   0  0  0  0  0  0  0  0  0  0  0  0
   18.2017    5.7945   -6.2638 H   0  0  0  0  0  0  0  0  0  0  0  0
   17.4817    5.6032   -7.8922 H   0  0  0  0  0  0  0  0  0  0  0  0
   17.9255    4.1586   -6.9300 H   0  0  0  0  0  0  0  0  0  0  0  0
   16.7121    5.6596   -3.0031 H   0  0  0  0  0  0  0  0  0  0  0  0
   15.5709    4.8463   -0.9253 H   0  0  0  0  0  0  0  0  0  0  0  0
  1  2  1  0
  1 34  1  0
  1 35  1  0
  1 36  1  0
  2  3  1  0
  2 37  1  0
  2 38  1  0
  3  4  1  0
  3 11  1  0
  4  5  1  0
  4 39  1  0
  4 40  1  0
  5  6  2  0
  5 10  1  0
  6  7  1  0
  6 41  1  0
  7  8  2  0
  7 42  1  0
  8  9  1  0
  8 43  1  0
  9 10  2  0
  9 44  1  0
 10 45  1  0
 11 12  2  0
 11 13  1  0
 13 14  1  0
 13 46  1  0
 13 47  1  0
 14 15  1  0
 14 48  1  0
 14 49  1  0
 15 16  1  0
 15 50  1  0
 15 51  1  0
 16 17  1  0
 16 52  1  0
 16 53  1  0
 17 18  1  0
 17 54  1  0
 17 55  1  0
 18 19  1  0
 18 56  1  0
 19 20  2  0
 19 21  1  0
 21 22  2  0
 21 32  1  0
 22 23  1  0
 22 57  1  0
 23 24  1  0
 23 30  2  0
 24 25  2  0
 24 26  2  0
 24 27  1  6
 27 28  1  0
 27 29  1  0
 28 58  1  0
 28 59  1  0
 28 60  1  0
 29 61  1  0
 29 62  1  0
 29 63  1  0
 30 31  1  0
 30 64  1  0
 31 32  2  0
 31 65  1  0
 32 33  1  0
M  END

