
     RDKit          3D

 55 58  0  0  0  0  0  0  0  0999 V2000
    2.2438   -0.8607    0.5646 C   0  0  0  0  0  0  0  0  0  0  0  0
    2.6144    0.3443    1.3925 C   0  0  0  0  0  0  0  0  0  0  0  0
    3.4362    1.3220    0.8047 C   0  0  0  0  0  0  0  0  0  0  0  0
    3.8335    2.4773    1.4939 C   0  0  0  0  0  0  0  0  0  0  0  0
    4.6188    3.4438    0.9723 O   0  0  0  0  0  0  0  0  0  0  0  0
    5.0859    3.3421   -0.3650 C   0  0  0  0  0  0  0  0  0  0  0  0
    5.8998    4.5671   -0.7080 C   0  0  0  0  0  0  0  0  0  0  0  0
    5.5385    5.8327   -0.2256 C   0  0  0  0  0  0  0  0  0  0  0  0
    6.2903    6.9587   -0.5716 C   0  0  0  0  0  0  0  0  0  0  0  0
    7.3997    6.8365   -1.4081 C   0  0  0  0  0  0  0  0  0  0  0  0
    7.7632    5.5808   -1.9159 C   0  0  0  0  0  0  0  0  0  0  0  0
    8.9837    5.5200   -2.7997 C   0  0  0  0  0  0  0  0  0  0  0  0
    9.8215    6.3988   -2.7974 O   0  0  0  0  0  0  0  0  0  0  0  0
    9.0548    4.3960   -3.6102 N   0  0  0  0  0  0  0  0  0  0  0  0
   10.0647    4.1081   -4.5255 C   0  0  0  0  0  0  0  0  0  0  0  0
   11.3327    4.4707   -4.3784 N   0  0  0  0  0  0  0  0  0  0  0  0
   11.9725    3.9950   -5.4616 N   0  0  0  0  0  0  0  0  0  0  0  0
   13.3660    4.3660   -5.6708 C   0  0  0  0  0  0  0  0  0  0  0  0
   13.5532    5.7447   -6.2801 C   0  0  0  0  0  0  0  0  0  0  0  0
   12.9504    6.8750   -5.7019 C   0  0  0  0  0  0  0  0  0  0  0  0
   13.1444    8.1421   -6.2526 C   0  0  0  0  0  0  0  0  0  0  0  0
   13.9523    8.2875   -7.3856 C   0  0  0  0  0  0  0  0  0  0  0  0
   14.1999    9.8762   -8.0742 Cl  0  0  0  0  0  0  0  0  0  0  0  0
   14.5622    7.1778   -7.9738 C   0  0  0  0  0  0  0  0  0  0  0  0
   14.3544    5.9129   -7.4168 C   0  0  0  0  0  0  0  0  0  0  0  0
   11.1487    3.3241   -6.3075 C   0  0  0  0  0  0  0  0  0  0  0  0
    9.8920    3.3684   -5.7275 C   0  0  0  0  0  0  0  0  0  0  0  0
    8.4150    2.6676   -6.2939 Cl  0  0  0  0  0  0  0  0  0  0  0  0
    7.0155    4.4515   -1.5462 C   0  0  0  0  0  0  0  0  0  0  0  0
    3.4082    2.6751    2.8209 C   0  0  0  0  0  0  0  0  0  0  0  0
    2.6030    1.7262    3.4230 C   0  0  0  0  0  0  0  0  0  0  0  0
    2.2049    0.5751    2.7238 C   0  0  0  0  0  0  0  0  0  0  0  0
    1.3451   -0.3673    3.4583 N   0  0  0  0  0  0  0  0  0  0  0  0
    0.9142   -1.3474    2.8649 O   0  0  0  0  0  0  0  0  0  0  0  0
    1.1015   -0.1201    4.6305 O   0  0  0  0  0  0  0  0  0  0  0  0
    2.7298   -0.8046   -0.4202 H   0  0  0  0  0  0  0  0  0  0  0  0
    1.1557   -0.9314    0.4241 H   0  0  0  0  0  0  0  0  0  0  0  0
    2.5397   -1.7972    1.0583 H   0  0  0  0  0  0  0  0  0  0  0  0
    3.7644    1.1544   -0.2206 H   0  0  0  0  0  0  0  0  0  0  0  0
    4.2204    3.2552   -1.0506 H   0  0  0  0  0  0  0  0  0  0  0  0
    5.6974    2.4303   -0.4895 H   0  0  0  0  0  0  0  0  0  0  0  0
    4.6772    5.9274    0.4384 H   0  0  0  0  0  0  0  0  0  0  0  0
    6.0085    7.9396   -0.1810 H   0  0  0  0  0  0  0  0  0  0  0  0
    8.0083    7.7010   -1.6791 H   0  0  0  0  0  0  0  0  0  0  0  0
    8.2058    3.8578   -3.7398 H   0  0  0  0  0  0  0  0  0  0  0  0
   13.8266    3.5996   -6.3105 H   0  0  0  0  0  0  0  0  0  0  0  0
   13.8482    4.3114   -4.6824 H   0  0  0  0  0  0  0  0  0  0  0  0
   12.3128    6.7595   -4.8212 H   0  0  0  0  0  0  0  0  0  0  0  0
   12.6738    9.0193   -5.8056 H   0  0  0  0  0  0  0  0  0  0  0  0
   15.1874    7.3046   -8.8590 H   0  0  0  0  0  0  0  0  0  0  0  0
   14.8308    5.0446   -7.8818 H   0  0  0  0  0  0  0  0  0  0  0  0
   11.4902    2.8762   -7.2371 H   0  0  0  0  0  0  0  0  0  0  0  0
    7.3228    3.4564   -1.8807 H   0  0  0  0  0  0  0  0  0  0  0  0
    3.7255    3.5748    3.3502 H   0  0  0  0  0  0  0  0  0  0  0  0
    2.2594    1.8472    4.4493 H   0  0  0  0  0  0  0  0  0  0  0  0
  1  2  1  0
  1 36  1  0
  1 37  1  0
  1 38  1  0
  2  3  2  0
  2 32  1  0
  3  4  1  0
  3 39  1  0
  4  5  1  0
  4 30  2  0
  5  6  1  0
  6  7  1  0
  6 40  1  0
  6 41  1  0
  7  8  2  0
  7 29  1  0
  8  9  1  0
  8 42  1  0
  9 10  2  0
  9 43  1  0
 10 11  1  0
 10 44  1  0
 11 12  1  0
 11 29  2  0
 12 13  2  0
 12 14  1  0
 14 15  1  0
 14 45  1  0
 15 16  2  0
 15 27  1  0
 16 17  1  0
 17 18  1  0
 17 26  1  0
 18 19  1  0
 18 46  1  0
 18 47  1  0
 19 20  2  0
 19 25  1  0
 20 21  1  0
 20 48  1  0
 21 22  2  0
 21 49  1  0
 22 23  1  0
 22 24  1  0
 24 25  2  0
 24 50  1  0
 25 51  1  0
 26 27  2  0
 26 52  1  0
 27 28  1  0
 29 53  1  0
 30 31  1  0
 30 54  1  0
 31 32  2  0
 31 55  1  0
 32 33  1  0
 33 34  2  0
 33 35  1  0
M  CHG  2  33   1  35  -1
M  END

