
     RDKit          3D

 41 41  0  0  0  0  0  0  0  0999 V2000
   10.1313    2.6554    1.4114 C   0  0  0  0  0  0  0  0  0  0  0  0
    8.8890    2.6625    2.2825 C   0  0  0  0  0  0  0  0  0  0  0  0
    8.2126    1.4287    2.1409 O   0  0  0  0  0  0  0  0  0  0  0  0
    7.0240    1.3268    2.9042 C   0  0  0  0  0  0  0  0  0  0  0  0
    6.2504    0.0775    2.4935 C   0  0  0  0  0  0  0  0  0  0  0  0
    7.0883   -1.2133    2.4297 C   0  0  0  0  0  0  0  0  0  0  0  0
    7.7672   -1.5756    3.7480 C   0  0  0  0  0  0  0  0  0  0  0  0
    7.2698   -2.3387    4.5605 O   0  0  0  0  0  0  0  0  0  0  0  0
    8.9714   -0.9572    3.9568 N   0  0  0  0  0  0  0  0  0  0  0  0
    9.7258   -1.1308    5.1816 C   0  0  0  0  0  0  0  0  0  0  0  0
   10.6639   -2.3360    5.1245 C   0  0  0  0  0  0  0  0  0  0  0  0
   11.3933   -2.3552    6.3314 O   0  0  0  0  0  0  0  0  0  0  0  0
   12.2982   -3.3537    6.5545 C   0  0  0  0  0  0  0  0  0  0  0  0
   12.5681   -4.4013    5.6649 C   0  0  0  0  0  0  0  0  0  0  0  0
   13.5170   -5.3771    5.9919 C   0  0  0  0  0  0  0  0  0  0  0  0
   14.2214   -5.3387    7.2055 C   0  0  0  0  0  0  0  0  0  0  0  0
   15.2084   -6.2816    7.5050 N   0  0  0  0  0  0  0  0  0  0  0  0
   13.9388   -4.2778    8.0908 C   0  0  0  0  0  0  0  0  0  0  0  0
   12.9961   -3.3063    7.7718 C   0  0  0  0  0  0  0  0  0  0  0  0
   10.6566    3.6205    1.4829 H   0  0  0  0  0  0  0  0  0  0  0  0
    9.8627    2.4819    0.3579 H   0  0  0  0  0  0  0  0  0  0  0  0
   10.8296    1.8618    1.7213 H   0  0  0  0  0  0  0  0  0  0  0  0
    8.2162    3.4941    1.9883 H   0  0  0  0  0  0  0  0  0  0  0  0
    9.1574    2.8342    3.3462 H   0  0  0  0  0  0  0  0  0  0  0  0
    6.3909    2.2225    2.7442 H   0  0  0  0  0  0  0  0  0  0  0  0
    7.2722    1.2991    3.9847 H   0  0  0  0  0  0  0  0  0  0  0  0
    5.8016    0.2434    1.4999 H   0  0  0  0  0  0  0  0  0  0  0  0
    5.4166   -0.0538    3.2035 H   0  0  0  0  0  0  0  0  0  0  0  0
    7.8432   -1.1091    1.6351 H   0  0  0  0  0  0  0  0  0  0  0  0
    6.4326   -2.0567    2.1716 H   0  0  0  0  0  0  0  0  0  0  0  0
    9.2763   -0.2777    3.2665 H   0  0  0  0  0  0  0  0  0  0  0  0
    9.0239   -1.2708    6.0174 H   0  0  0  0  0  0  0  0  0  0  0  0
   10.3179   -0.2235    5.3792 H   0  0  0  0  0  0  0  0  0  0  0  0
   11.3432   -2.2501    4.2535 H   0  0  0  0  0  0  0  0  0  0  0  0
   10.0681   -3.2590    5.0014 H   0  0  0  0  0  0  0  0  0  0  0  0
   12.0434   -4.4774    4.7120 H   0  0  0  0  0  0  0  0  0  0  0  0
   13.7129   -6.1857    5.2815 H   0  0  0  0  0  0  0  0  0  0  0  0
   15.1157   -7.1699    7.0240 H   0  0  0  0  0  0  0  0  0  0  0  0
   15.3931   -6.4124    8.4939 H   0  0  0  0  0  0  0  0  0  0  0  0
   14.4720   -4.2161    9.0442 H   0  0  0  0  0  0  0  0  0  0  0  0
   12.7791   -2.4891    8.4633 H   0  0  0  0  0  0  0  0  0  0  0  0
  1  2  1  0
  1 20  1  0
  1 21  1  0
  1 22  1  0
  2  3  1  0
  2 23  1  0
  2 24  1  0
  3  4  1  0
  4  5  1  0
  4 25  1  0
  4 26  1  0
  5  6  1  0
  5 27  1  0
  5 28  1  0
  6  7  1  0
  6 29  1  0
  6 30  1  0
  7  8  2  0
  7  9  1  0
  9 10  1  0
  9 31  1  0
 10 11  1  0
 10 32  1  0
 10 33  1  0
 11 12  1  0
 11 34  1  0
 11 35  1  0
 12 13  1  0
 13 14  2  0
 13 19  1  0
 14 15  1  0
 14 36  1  0
 15 16  2  0
 15 37  1  0
 16 17  1  0
 16 18  1  0
 17 38  1  0
 17 39  1  0
 18 19  2  0
 18 40  1  0
 19 41  1  0
M  END

