
     RDKit          3D

 16 16  0  0  0  0  0  0  0  0999 V2000
    2.8533   -0.2992    0.5392 O   0  0  0  0  0  0  0  0  0  0  0  0
    2.3343    0.0370   -0.4806 C   0  0  0  0  0  0  0  0  0  0  0  0
    1.0259   -0.0082   -0.7272 O   0  0  0  0  0  0  0  0  0  0  0  0
    2.9936    0.5142   -1.5814 O   0  0  0  0  0  0  0  0  0  0  0  0
    4.3803    0.6260   -1.4572 C   0  0  1  0  0  0  0  0  0  0  0  0
    5.0531    1.5596   -2.3956 C   0  0  0  0  0  0  0  0  0  0  0  0
    4.9535    1.9401   -0.9319 C   0  0  1  0  0  0  0  0  0  0  0  0
    3.7970    3.2168   -0.4680 Cl  0  0  0  0  0  0  0  0  0  0  0  0
    6.2060    1.8156   -0.0893 C   0  0  0  0  0  0  0  0  0  0  0  0
    7.0592    1.0219   -0.3908 O   0  0  0  0  0  0  0  0  0  0  0  0
    6.3008    2.5987    0.9854 O   0  0  0  0  0  0  0  0  0  0  0  0
    0.8566    0.3209   -1.6238 H   0  0  0  0  0  0  0  0  0  0  0  0
    4.8900   -0.2800   -1.1176 H   0  0  0  0  0  0  0  0  0  0  0  0
    4.4098    2.1181   -3.0797 H   0  0  0  0  0  0  0  0  0  0  0  0
    6.0498    1.2961   -2.7569 H   0  0  0  0  0  0  0  0  0  0  0  0
    5.5061    3.1553    1.0608 H   0  0  0  0  0  0  0  0  0  0  0  0
  1  2  2  0
  2  3  1  0
  2  4  1  0
  3 12  1  0
  4  5  1  0
  5  6  1  0
  5  7  1  0
  5 13  1  1
  6  7  1  0
  6 14  1  0
  6 15  1  0
  7  8  1  6
  7  9  1  0
  9 10  2  0
  9 11  1  0
 11 16  1  0
M  END

