
     RDKit          3D

 41 42  0  0  0  0  0  0  0  0999 V2000
    5.0287    2.9044    3.1307 C   0  0  0  0  0  0  0  0  0  0  0  0
    4.5732    1.6187    3.4505 O   0  0  0  0  0  0  0  0  0  0  0  0
    4.9743    0.6309    2.5378 C   0  0  0  0  0  0  0  0  0  0  0  0
    4.4525   -0.7301    2.9850 C   0  0  1  0  0  0  0  0  0  0  0  0
    3.0483   -0.7179    3.1799 O   0  0  0  0  0  0  0  0  0  0  0  0
    4.8371   -1.8525    2.0063 C   0  0  0  0  0  0  0  0  0  0  0  0
    6.3318   -2.1556    1.8552 C   0  0  0  0  0  0  0  0  0  0  0  0
    6.9507   -2.4504    3.1358 N   0  0  0  0  0  0  0  0  0  0  0  0
    8.4052   -2.6241    3.1653 C   0  0  2  0  0  0  0  0  0  0  0  0
    8.9568   -3.7968    2.3245 C   0  0  0  0  0  0  0  0  0  0  0  0
    8.7662   -5.1357    3.0368 C   0  0  0  0  0  0  0  0  0  0  0  0
    9.5734   -5.1527    4.3357 C   0  0  0  0  0  0  0  0  0  0  0  0
    9.3715   -3.9058    5.1760 C   0  0  0  0  0  0  0  0  0  0  0  0
    9.7344   -3.9288    6.5344 C   0  0  0  0  0  0  0  0  0  0  0  0
    9.5771   -2.7937    7.3168 C   0  0  0  0  0  0  0  0  0  0  0  0
    9.9298   -2.8363    8.6120 F   0  0  0  0  0  0  0  0  0  0  0  0
    9.0567   -1.6106    6.7924 C   0  0  0  0  0  0  0  0  0  0  0  0
    8.6945   -1.5917    5.4485 C   0  0  0  0  0  0  0  0  0  0  0  0
    8.8521   -2.7185    4.6226 C   0  0  0  0  0  0  0  0  0  0  0  0
    4.6604    3.5950    3.9035 H   0  0  0  0  0  0  0  0  0  0  0  0
    4.6531    3.2476    2.1441 H   0  0  0  0  0  0  0  0  0  0  0  0
    6.1368    2.9615    3.1066 H   0  0  0  0  0  0  0  0  0  0  0  0
    6.0797    0.5980    2.4524 H   0  0  0  0  0  0  0  0  0  0  0  0
    4.5824    0.8604    1.5182 H   0  0  0  0  0  0  0  0  0  0  0  0
    4.8975   -0.9504    3.9684 H   0  0  0  0  0  0  0  0  0  0  0  0
    2.6525   -0.1143    2.5381 H   0  0  0  0  0  0  0  0  0  0  0  0
    4.4161   -1.6239    1.0102 H   0  0  0  0  0  0  0  0  0  0  0  0
    4.3102   -2.7590    2.3511 H   0  0  0  0  0  0  0  0  0  0  0  0
    6.8577   -1.2858    1.4208 H   0  0  0  0  0  0  0  0  0  0  0  0
    6.4391   -2.9683    1.1033 H   0  0  0  0  0  0  0  0  0  0  0  0
    6.4780   -3.2176    3.6123 H   0  0  0  0  0  0  0  0  0  0  0  0
    8.8242   -1.6907    2.7456 H   0  0  0  0  0  0  0  0  0  0  0  0
   10.0347   -3.6318    2.1458 H   0  0  0  0  0  0  0  0  0  0  0  0
    8.4787   -3.8011    1.3322 H   0  0  0  0  0  0  0  0  0  0  0  0
    9.0700   -5.9740    2.3895 H   0  0  0  0  0  0  0  0  0  0  0  0
    7.6941   -5.2892    3.2583 H   0  0  0  0  0  0  0  0  0  0  0  0
   10.6486   -5.2365    4.0870 H   0  0  0  0  0  0  0  0  0  0  0  0
    9.3359   -6.0456    4.9373 H   0  0  0  0  0  0  0  0  0  0  0  0
   10.1380   -4.8354    6.9920 H   0  0  0  0  0  0  0  0  0  0  0  0
    8.9403   -0.7373    7.4369 H   0  0  0  0  0  0  0  0  0  0  0  0
    8.2671   -0.6822    5.0192 H   0  0  0  0  0  0  0  0  0  0  0  0
  1  2  1  0
  1 20  1  0
  1 21  1  0
  1 22  1  0
  2  3  1  0
  3  4  1  0
  3 23  1  0
  3 24  1  0
  4  5  1  0
  4  6  1  0
  4 25  1  1
  5 26  1  0
  6  7  1  0
  6 27  1  0
  6 28  1  0
  7  8  1  0
  7 29  1  0
  7 30  1  0
  8  9  1  0
  8 31  1  0
  9 10  1  0
  9 19  1  0
  9 32  1  6
 10 11  1  0
 10 33  1  0
 10 34  1  0
 11 12  1  0
 11 35  1  0
 11 36  1  0
 12 13  1  0
 12 37  1  0
 12 38  1  0
 13 14  1  0
 13 19  2  0
 14 15  2  0
 14 39  1  0
 15 16  1  0
 15 17  1  0
 17 18  2  0
 17 40  1  0
 18 19  1  0
 18 41  1  0
M  END

