
     RDKit          3D

 62 66  0  0  0  0  0  0  0  0999 V2000
    1.2900   -2.9403    3.5647 C   0  0  0  0  0  0  0  0  0  0  0  0
    2.7861   -2.9538    3.2453 C   0  0  0  0  0  0  0  0  0  0  0  0
    3.2205   -1.9557    2.1531 C   0  0  1  0  0  0  0  0  0  0  0  0
    3.0557   -0.4812    2.5490 C   0  0  0  0  0  0  0  0  0  0  0  0
    3.9883   -0.0928    3.5456 O   0  0  0  0  0  0  0  0  0  0  0  0
    4.6169   -2.1615    1.7802 N   0  0  0  0  0  0  0  0  0  0  0  0
    4.9845   -2.7667    0.6054 C   0  0  0  0  0  0  0  0  0  0  0  0
    4.1553   -3.2281   -0.1700 O   0  0  0  0  0  0  0  0  0  0  0  0
    6.4445   -2.8163    0.3322 C   0  0  0  0  0  0  0  0  0  0  0  0
    7.1559   -2.6119   -0.8644 C   0  0  0  0  0  0  0  0  0  0  0  0
    6.6873   -2.3296   -2.2262 C   0  0  0  0  0  0  0  0  0  0  0  0
    7.5514   -1.7259   -3.2085 C   0  0  0  0  0  0  0  0  0  0  0  0
    6.9450   -1.5569   -4.4219 C   0  0  0  0  0  0  0  0  0  0  0  0
    5.3126   -2.1400   -4.4004 S   0  0  0  0  0  0  0  0  0  0  0  0
    5.4383   -2.6096   -2.7490 C   0  0  0  0  0  0  0  0  0  0  0  0
    8.4986   -2.6505   -0.6246 N   0  0  0  0  0  0  0  0  0  0  0  0
    8.6644   -2.9003    0.6688 C   0  0  0  0  0  0  0  0  0  0  0  0
    9.8613   -3.0827    1.4225 C   0  0  0  0  0  0  0  0  0  0  0  0
   11.2509   -2.9818    0.8316 C   0  0  0  0  0  0  0  0  0  0  0  0
   12.2397   -3.1267    1.5423 O   0  0  0  0  0  0  0  0  0  0  0  0
   11.3128   -2.7258   -0.4981 N   0  0  0  0  0  0  0  0  0  0  0  0
   12.5845   -2.6223   -1.1856 C   0  0  0  0  0  0  0  0  0  0  0  0
   13.1872   -3.9917   -1.5714 C   0  0  0  0  0  0  0  0  0  0  0  0
   14.5295   -3.8603   -2.2549 C   0  0  0  0  0  0  0  0  0  0  0  0
   14.6001   -3.7370   -3.6717 C   0  0  0  0  0  0  0  0  0  0  0  0
   15.8044   -3.5695   -4.3392 C   0  0  0  0  0  0  0  0  0  0  0  0
   16.9929   -3.5176   -3.5838 C   0  0  0  0  0  0  0  0  0  0  0  0
   18.3937   -3.3679   -3.8475 C   0  0  0  0  0  0  0  0  0  0  0  0
   19.0971   -3.3937   -2.7317 N   0  0  0  0  0  0  0  0  0  0  0  0
   18.2099   -3.5576   -1.7273 N   0  0  0  0  0  0  0  0  0  0  0  0
   18.5444   -3.6022   -0.7736 H   0  0  0  0  0  0  0  0  0  0  0  0
   16.9178   -3.6394   -2.1705 C   0  0  0  0  0  0  0  0  0  0  0  0
   15.6974   -3.8105   -1.4950 C   0  0  0  0  0  0  0  0  0  0  0  0
    9.7479   -3.3777    2.7671 C   0  0  0  0  0  0  0  0  0  0  0  0
    8.4765   -3.5121    3.3774 C   0  0  0  0  0  0  0  0  0  0  0  0
    7.3314   -3.3341    2.6437 C   0  0  0  0  0  0  0  0  0  0  0  0
    7.4228   -3.0092    1.3124 N   0  0  0  0  0  0  0  0  0  0  0  0
    1.0368   -3.7296    4.2894 H   0  0  0  0  0  0  0  0  0  0  0  0
    0.6886   -3.1179    2.6580 H   0  0  0  0  0  0  0  0  0  0  0  0
    0.9582   -1.9831    3.9989 H   0  0  0  0  0  0  0  0  0  0  0  0
    3.0776   -3.9599    2.9026 H   0  0  0  0  0  0  0  0  0  0  0  0
    3.3755   -2.7660    4.1627 H   0  0  0  0  0  0  0  0  0  0  0  0
    2.6186   -2.1475    1.2509 H   0  0  0  0  0  0  0  0  0  0  0  0
    2.0146   -0.2791    2.8592 H   0  0  0  0  0  0  0  0  0  0  0  0
    3.2643    0.1507    1.6720 H   0  0  0  0  0  0  0  0  0  0  0  0
    3.6945   -0.4379    4.3985 H   0  0  0  0  0  0  0  0  0  0  0  0
    5.2867   -1.5913    2.2893 H   0  0  0  0  0  0  0  0  0  0  0  0
    8.5762   -1.4271   -2.9920 H   0  0  0  0  0  0  0  0  0  0  0  0
    7.3624   -1.1197   -5.3278 H   0  0  0  0  0  0  0  0  0  0  0  0
    4.6072   -3.0774   -2.2256 H   0  0  0  0  0  0  0  0  0  0  0  0
   10.4293   -2.6529   -1.0087 H   0  0  0  0  0  0  0  0  0  0  0  0
   13.2934   -2.0968   -0.5279 H   0  0  0  0  0  0  0  0  0  0  0  0
   12.4431   -2.0047   -2.0865 H   0  0  0  0  0  0  0  0  0  0  0  0
   12.4767   -4.5230   -2.2261 H   0  0  0  0  0  0  0  0  0  0  0  0
   13.2885   -4.5837   -0.6491 H   0  0  0  0  0  0  0  0  0  0  0  0
   13.6707   -3.7858   -4.2461 H   0  0  0  0  0  0  0  0  0  0  0  0
   15.8297   -3.4843   -5.4285 H   0  0  0  0  0  0  0  0  0  0  0  0
   18.8961   -3.2440   -4.8068 H   0  0  0  0  0  0  0  0  0  0  0  0
   15.6563   -3.9051   -0.4067 H   0  0  0  0  0  0  0  0  0  0  0  0
   10.6711   -3.5145    3.3329 H   0  0  0  0  0  0  0  0  0  0  0  0
    8.3895   -3.7676    4.4344 H   0  0  0  0  0  0  0  0  0  0  0  0
    6.3285   -3.4460    3.0511 H   0  0  0  0  0  0  0  0  0  0  0  0
  1  2  1  0
  1 38  1  0
  1 39  1  0
  1 40  1  0
  2  3  1  0
  2 41  1  0
  2 42  1  0
  3  4  1  0
  3  6  1  0
  3 43  1  6
  4  5  1  0
  4 44  1  0
  4 45  1  0
  5 46  1  0
  6  7  1  0
  6 47  1  0
  7  8  2  0
  7  9  1  0
  9 10  2  0
  9 37  1  0
 10 11  1  0
 10 16  1  0
 11 12  1  0
 11 15  2  0
 12 13  2  0
 12 48  1  0
 13 14  1  0
 13 49  1  0
 14 15  1  0
 15 50  1  0
 16 17  2  0
 17 18  1  0
 17 37  1  0
 18 19  1  0
 18 34  2  0
 19 20  2  0
 19 21  1  0
 21 22  1  0
 21 51  1  0
 22 23  1  0
 22 52  1  0
 22 53  1  0
 23 24  1  0
 23 54  1  0
 23 55  1  0
 24 25  2  0
 24 33  1  0
 25 26  1  0
 25 56  1  0
 26 27  2  0
 26 57  1  0
 27 28  1  0
 27 32  1  0
 28 29  2  0
 28 58  1  0
 29 30  1  0
 30 31  1  0
 30 32  1  0
 32 33  2  0
 33 59  1  0
 34 35  1  0
 34 60  1  0
 35 36  2  0
 35 61  1  0
 36 37  1  0
 36 62  1  0
M  END

