
     RDKit          3D

108122  0  0  0  0  0  0  0  0999 V2000
   -1.5766    1.6025    0.4995 C   0  0  0  0  0  0  0  0  0  0  0  0
   -1.4447    0.4534    1.2993 C   0  0  0  0  0  0  0  0  0  0  0  0
   -1.0925   -0.7828    0.7547 C   0  0  0  0  0  0  0  0  0  0  0  0
   -0.8776   -0.8497   -0.6276 C   0  0  0  0  0  0  0  0  0  0  0  0
   -1.0095    0.3007   -1.4461 C   0  0  0  0  0  0  0  0  0  0  0  0
   -1.3595    1.5321   -0.8752 C   0  0  0  0  0  0  0  0  0  0  0  0
   -0.7283   -0.1078   -2.8088 C   0  0  0  0  0  0  0  0  0  0  0  0
   -0.6627    0.5936   -4.0198 C   0  0  0  0  0  0  0  0  0  0  0  0
   -0.3051   -0.0880   -5.1824 C   0  0  0  0  0  0  0  0  0  0  0  0
    0.0021   -1.4584   -5.1349 C   0  0  0  0  0  0  0  0  0  0  0  0
   -0.0601   -2.1786   -3.9396 C   0  0  0  0  0  0  0  0  0  0  0  0
   -0.4479   -1.4987   -2.7771 C   0  0  0  0  0  0  0  0  0  0  0  0
   -0.5587   -1.9552   -1.4485 N   0  0  0  0  0  0  0  0  0  0  0  0
   -0.4441   -3.2872   -1.0210 C   0  0  0  0  0  0  0  0  0  0  0  0
   -0.9043   -4.3587   -1.8141 C   0  0  0  0  0  0  0  0  0  0  0  0
   -0.6768   -5.6476   -1.3617 C   0  0  0  0  0  0  0  0  0  0  0  0
   -0.0329   -5.8871   -0.1292 C   0  0  0  0  0  0  0  0  0  0  0  0
    0.3177   -7.2886    0.2241 C   0  0  0  0  0  0  0  0  0  0  0  0
    1.3757   -7.6521    1.0818 C   0  0  0  0  0  0  0  0  0  0  0  0
    1.6400   -8.9995    1.2432 C   0  0  0  0  0  0  0  0  0  0  0  0
    0.8493   -9.9250    0.5355 C   0  0  0  0  0  0  0  0  0  0  0  0
    1.1264  -11.3834    0.5525 C   0  0  0  0  0  0  0  0  0  0  0  0
    2.4559  -11.8431    0.5518 C   0  0  0  0  0  0  0  0  0  0  0  0
    2.7555  -13.1894    0.3947 C   0  0  0  0  0  0  0  0  0  0  0  0
    1.6839  -14.0800    0.1897 C   0  0  0  0  0  0  0  0  0  0  0  0
    1.9020  -15.4438   -0.0627 N   0  0  0  0  0  0  0  0  0  0  0  0
    1.1232  -16.5098    0.4429 C   0  0  0  0  0  0  0  0  0  0  0  0
   -0.0421  -16.4886    1.2194 C   0  0  0  0  0  0  0  0  0  0  0  0
   -0.5790  -17.7134    1.6200 C   0  0  0  0  0  0  0  0  0  0  0  0
    0.0159  -18.9350    1.2574 C   0  0  0  0  0  0  0  0  0  0  0  0
    1.1733  -18.9516    0.4816 C   0  0  0  0  0  0  0  0  0  0  0  0
    1.7341  -17.7342    0.0712 C   0  0  0  0  0  0  0  0  0  0  0  0
    2.9061  -17.4069   -0.7176 C   0  0  0  0  0  0  0  0  0  0  0  0
    3.8577  -18.1918   -1.3819 C   0  0  0  0  0  0  0  0  0  0  0  0
    4.8603  -17.5656   -2.1213 C   0  0  0  0  0  0  0  0  0  0  0  0
    4.9037  -16.1640   -2.2123 C   0  0  0  0  0  0  0  0  0  0  0  0
    3.9678  -15.3615   -1.5555 C   0  0  0  0  0  0  0  0  0  0  0  0
    2.9783  -15.9913   -0.7884 C   0  0  0  0  0  0  0  0  0  0  0  0
    0.4198  -13.6714    0.2715 N   0  0  0  0  0  0  0  0  0  0  0  0
    0.1287  -12.3892    0.4793 C   0  0  0  0  0  0  0  0  0  0  0  0
   -1.2414  -12.0971    0.6373 N   0  0  0  0  0  0  0  0  0  0  0  0
   -1.8220  -11.4323    1.7235 C   0  0  0  0  0  0  0  0  0  0  0  0
   -1.2319  -10.9528    2.8984 C   0  0  0  0  0  0  0  0  0  0  0  0
   -2.0619  -10.3673    3.8564 C   0  0  0  0  0  0  0  0  0  0  0  0
   -3.4503  -10.2623    3.6557 C   0  0  0  0  0  0  0  0  0  0  0  0
   -4.0364  -10.7540    2.4892 C   0  0  0  0  0  0  0  0  0  0  0  0
   -3.2245  -11.3494    1.5145 C   0  0  0  0  0  0  0  0  0  0  0  0
   -3.4995  -11.9948    0.2448 C   0  0  0  0  0  0  0  0  0  0  0  0
   -4.6731  -12.2129   -0.4911 C   0  0  0  0  0  0  0  0  0  0  0  0
   -4.5930  -12.8851   -1.7094 C   0  0  0  0  0  0  0  0  0  0  0  0
   -3.3523  -13.3388   -2.1951 C   0  0  0  0  0  0  0  0  0  0  0  0
   -2.1710  -13.1351   -1.4811 C   0  0  0  0  0  0  0  0  0  0  0  0
   -2.2576  -12.4597   -0.2591 C   0  0  0  0  0  0  0  0  0  0  0  0
   -0.1495   -9.5107   -0.2603 N   0  0  0  0  0  0  0  0  0  0  0  0
   -0.4072   -8.2321   -0.4038 N   0  0  0  0  0  0  0  0  0  0  0  0
    0.2491   -4.7357    0.6429 C   0  0  0  0  0  0  0  0  0  0  0  0
    0.7240   -4.8216    1.9757 N   0  0  0  0  0  0  0  0  0  0  0  0
    0.0479   -5.4234    3.0483 C   0  0  0  0  0  0  0  0  0  0  0  0
   -1.1587   -6.1322    3.0574 C   0  0  0  0  0  0  0  0  0  0  0  0
   -1.6232   -6.6096    4.2840 C   0  0  0  0  0  0  0  0  0  0  0  0
   -0.9069   -6.3908    5.4753 C   0  0  0  0  0  0  0  0  0  0  0  0
    0.2919   -5.6787    5.4617 C   0  0  0  0  0  0  0  0  0  0  0  0
    0.7775   -5.1835    4.2429 C   0  0  0  0  0  0  0  0  0  0  0  0
    1.9351   -4.3876    3.8779 C   0  0  0  0  0  0  0  0  0  0  0  0
    3.0107   -3.8569    4.6054 C   0  0  0  0  0  0  0  0  0  0  0  0
    3.9805   -3.1131    3.9353 C   0  0  0  0  0  0  0  0  0  0  0  0
    3.8838   -2.8949    2.5479 C   0  0  0  0  0  0  0  0  0  0  0  0
    2.8245   -3.4119    1.8012 C   0  0  0  0  0  0  0  0  0  0  0  0
    1.8547   -4.1600    2.4790 C   0  0  0  0  0  0  0  0  0  0  0  0
    0.0768   -3.4972    0.1849 N   0  0  0  0  0  0  0  0  0  0  0  0
   -1.8482    2.5550    0.9606 H   0  0  0  0  0  0  0  0  0  0  0  0
   -1.6128    0.5261    2.3769 H   0  0  0  0  0  0  0  0  0  0  0  0
   -0.9686   -1.6603    1.3848 H   0  0  0  0  0  0  0  0  0  0  0  0
   -1.4627    2.4216   -1.5016 H   0  0  0  0  0  0  0  0  0  0  0  0
   -0.8801    1.6641   -4.0484 H   0  0  0  0  0  0  0  0  0  0  0  0
   -0.2508    0.4464   -6.1337 H   0  0  0  0  0  0  0  0  0  0  0  0
    0.3022   -1.9761   -6.0493 H   0  0  0  0  0  0  0  0  0  0  0  0
    0.2074   -3.2347   -3.9272 H   0  0  0  0  0  0  0  0  0  0  0  0
   -1.4322   -4.1804   -2.7496 H   0  0  0  0  0  0  0  0  0  0  0  0
   -0.9869   -6.5117   -1.9508 H   0  0  0  0  0  0  0  0  0  0  0  0
    1.9766   -6.9006    1.5916 H   0  0  0  0  0  0  0  0  0  0  0  0
    2.4421   -9.3324    1.9050 H   0  0  0  0  0  0  0  0  0  0  0  0
    3.2741  -11.1249    0.6427 H   0  0  0  0  0  0  0  0  0  0  0  0
    3.7851  -13.5416    0.4280 H   0  0  0  0  0  0  0  0  0  0  0  0
   -0.5247  -15.5501    1.4817 H   0  0  0  0  0  0  0  0  0  0  0  0
   -1.4908  -17.7173    2.2225 H   0  0  0  0  0  0  0  0  0  0  0  0
   -0.4355  -19.8750    1.5836 H   0  0  0  0  0  0  0  0  0  0  0  0
    1.6399  -19.8981    0.1976 H   0  0  0  0  0  0  0  0  0  0  0  0
    3.8062  -19.2821   -1.3282 H   0  0  0  0  0  0  0  0  0  0  0  0
    5.6087  -18.1656   -2.6442 H   0  0  0  0  0  0  0  0  0  0  0  0
    5.6806  -15.6862   -2.8145 H   0  0  0  0  0  0  0  0  0  0  0  0
    4.0084  -14.2782   -1.6656 H   0  0  0  0  0  0  0  0  0  0  0  0
   -0.1592  -11.0409    3.0752 H   0  0  0  0  0  0  0  0  0  0  0  0
   -1.6194   -9.9853    4.7794 H   0  0  0  0  0  0  0  0  0  0  0  0
   -4.0744   -9.8028    4.4262 H   0  0  0  0  0  0  0  0  0  0  0  0
   -5.1171  -10.6868    2.3407 H   0  0  0  0  0  0  0  0  0  0  0  0
   -5.6358  -11.8581   -0.1145 H   0  0  0  0  0  0  0  0  0  0  0  0
   -5.4990  -13.0633   -2.2936 H   0  0  0  0  0  0  0  0  0  0  0  0
   -3.3102  -13.8670   -3.1511 H   0  0  0  0  0  0  0  0  0  0  0  0
   -1.2170  -13.5032   -1.8573 H   0  0  0  0  0  0  0  0  0  0  0  0
   -1.7261   -6.3085    2.1425 H   0  0  0  0  0  0  0  0  0  0  0  0
   -2.5615   -7.1677    4.3113 H   0  0  0  0  0  0  0  0  0  0  0  0
   -1.2988   -6.7773    6.4192 H   0  0  0  0  0  0  0  0  0  0  0  0
    0.8414   -5.4987    6.3891 H   0  0  0  0  0  0  0  0  0  0  0  0
    3.0854   -4.0240    5.6829 H   0  0  0  0  0  0  0  0  0  0  0  0
    4.8218   -2.6909    4.4900 H   0  0  0  0  0  0  0  0  0  0  0  0
    4.6502   -2.3019    2.0425 H   0  0  0  0  0  0  0  0  0  0  0  0
    2.7454   -3.2212    0.7310 H   0  0  0  0  0  0  0  0  0  0  0  0
  1  2  2  0
  1  6  1  0
  1 71  1  0
  2  3  1  0
  2 72  1  0
  3  4  2  0
  3 73  1  0
  4  5  1  0
  4 13  1  0
  5  6  2  0
  5  7  1  0
  6 74  1  0
  7  8  2  0
  7 12  1  0
  8  9  1  0
  8 75  1  0
  9 10  2  0
  9 76  1  0
 10 11  1  0
 10 77  1  0
 11 12  2  0
 11 78  1  0
 12 13  1  0
 13 14  1  0
 14 15  2  0
 14 70  1  0
 15 16  1  0
 15 79  1  0
 16 17  2  0
 16 80  1  0
 17 18  1  0
 17 56  1  0
 18 19  2  0
 18 55  1  0
 19 20  1  0
 19 81  1  0
 20 21  2  0
 20 82  1  0
 21 22  1  0
 21 54  1  0
 22 23  2  0
 22 40  1  0
 23 24  1  0
 23 83  1  0
 24 25  2  0
 24 84  1  0
 25 26  1  0
 25 39  1  0
 26 27  1  0
 26 38  1  0
 27 28  2  0
 27 32  1  0
 28 29  1  0
 28 85  1  0
 29 30  2  0
 29 86  1  0
 30 31  1  0
 30 87  1  0
 31 32  2  0
 31 88  1  0
 32 33  1  0
 33 34  1  0
 33 38  2  0
 34 35  2  0
 34 89  1  0
 35 36  1  0
 35 90  1  0
 36 37  2  0
 36 91  1  0
 37 38  1  0
 37 92  1  0
 39 40  2  0
 40 41  1  0
 41 42  1  0
 41 53  1  0
 42 43  2  0
 42 47  1  0
 43 44  1  0
 43 93  1  0
 44 45  2  0
 44 94  1  0
 45 46  1  0
 45 95  1  0
 46 47  2  0
 46 96  1  0
 47 48  1  0
 48 49  1  0
 48 53  2  0
 49 50  2  0
 49 97  1  0
 50 51  1  0
 50 98  1  0
 51 52  2  0
 51 99  1  0
 52 53  1  0
 52100  1  0
 54 55  2  0
 56 57  1  0
 56 70  2  0
 57 58  1  0
 57 69  1  0
 58 59  2  0
 58 63  1  0
 59 60  1  0
 59101  1  0
 60 61  2  0
 60102  1  0
 61 62  1  0
 61103  1  0
 62 63  2  0
 62104  1  0
 63 64  1  0
 64 65  1  0
 64 69  2  0
 65 66  2  0
 65105  1  0
 66 67  1  0
 66106  1  0
 67 68  2  0
 67107  1  0
 68 69  1  0
 68108  1  0
M  END

