
     RDKit          3D

 46 48  0  0  0  0  0  0  0  0999 V2000
    1.7530    1.7120   -0.4539 C   0  0  0  0  0  0  0  0  0  0  0  0
    3.1836    1.5493    0.0284 C   0  0  0  0  0  0  0  0  0  0  0  0
    4.1019    1.3997   -1.0769 O   0  0  0  0  0  0  0  0  0  0  0  0
    4.2912    0.1694   -1.5728 C   0  0  0  0  0  0  0  0  0  0  0  0
    3.7686   -0.8278   -1.1377 O   0  0  0  0  0  0  0  0  0  0  0  0
    5.2986    0.1869   -2.7306 C   0  0  1  0  0  0  0  0  0  0  0  0
    5.3741   -1.1984   -3.3659 C   0  0  0  0  0  0  0  0  0  0  0  0
    6.3727   -2.1746   -2.8299 C   0  0  0  0  0  0  0  0  0  0  0  0
    4.6037   -1.5282   -4.3374 N   0  0  0  0  0  0  0  0  0  0  0  0
    3.6879   -0.5992   -4.8430 C   0  0  0  0  0  0  0  0  0  0  0  0
    3.8533    0.7447   -4.6788 C   0  0  0  0  0  0  0  0  0  0  0  0
    2.9734    1.7290   -5.3462 C   0  0  0  0  0  0  0  0  0  0  0  0
    3.0893    2.9263   -5.1400 O   0  0  0  0  0  0  0  0  0  0  0  0
    1.9428    1.1671   -6.3152 C   0  0  0  0  0  0  0  0  0  0  0  0
    1.4149   -0.1984   -5.8646 C   0  0  0  0  0  0  0  0  0  0  0  0
    2.5583   -1.1904   -5.6423 C   0  0  0  0  0  0  0  0  0  0  0  0
    4.9696    1.2620   -3.8009 C   0  0  2  0  0  0  0  0  0  0  0  0
    4.5901    2.1495   -3.2791 H   0  0  0  0  0  0  0  0  0  0  0  0
    6.2069    1.7095   -4.5767 C   0  0  0  0  0  0  0  0  0  0  0  0
    6.9342    2.8294   -4.1391 C   0  0  0  0  0  0  0  0  0  0  0  0
    8.0881    3.2537   -4.8048 C   0  0  0  0  0  0  0  0  0  0  0  0
    8.5454    2.5661   -5.9293 C   0  0  0  0  0  0  0  0  0  0  0  0
    7.8167    1.4573   -6.3589 C   0  0  0  0  0  0  0  0  0  0  0  0
    8.2798    0.7178   -7.5549 N   0  0  0  0  0  0  0  0  0  0  0  0
    9.3045    1.1032   -8.0941 O   0  0  0  0  0  0  0  0  0  0  0  0
    7.6095   -0.2314   -7.9282 O   0  0  0  0  0  0  0  0  0  0  0  0
    6.6623    1.0213   -5.7084 C   0  0  0  0  0  0  0  0  0  0  0  0
    1.0906    1.9026    0.4056 H   0  0  0  0  0  0  0  0  0  0  0  0
    1.4029    0.7986   -0.9572 H   0  0  0  0  0  0  0  0  0  0  0  0
    1.6650    2.5590   -1.1516 H   0  0  0  0  0  0  0  0  0  0  0  0
    3.2840    0.6766    0.6901 H   0  0  0  0  0  0  0  0  0  0  0  0
    3.5344    2.4468    0.5573 H   0  0  0  0  0  0  0  0  0  0  0  0
    6.2694    0.4304   -2.2676 H   0  0  0  0  0  0  0  0  0  0  0  0
    7.3977   -1.7774   -2.9293 H   0  0  0  0  0  0  0  0  0  0  0  0
    6.2952   -3.1312   -3.3620 H   0  0  0  0  0  0  0  0  0  0  0  0
    6.1888   -2.3352   -1.7538 H   0  0  0  0  0  0  0  0  0  0  0  0
    2.4392    1.0746   -7.3003 H   0  0  0  0  0  0  0  0  0  0  0  0
    1.1435    1.9137   -6.4315 H   0  0  0  0  0  0  0  0  0  0  0  0
    0.7018   -0.5982   -6.6024 H   0  0  0  0  0  0  0  0  0  0  0  0
    0.8545   -0.0747   -4.9211 H   0  0  0  0  0  0  0  0  0  0  0  0
    2.9753   -1.5354   -6.6080 H   0  0  0  0  0  0  0  0  0  0  0  0
    2.2150   -2.1053   -5.1320 H   0  0  0  0  0  0  0  0  0  0  0  0
    6.5816    3.3852   -3.2659 H   0  0  0  0  0  0  0  0  0  0  0  0
    8.6299    4.1333   -4.4495 H   0  0  0  0  0  0  0  0  0  0  0  0
    9.4373    2.8689   -6.4765 H   0  0  0  0  0  0  0  0  0  0  0  0
    6.1356    0.1525   -6.1012 H   0  0  0  0  0  0  0  0  0  0  0  0
  1  2  1  0
  1 28  1  0
  1 29  1  0
  1 30  1  0
  2  3  1  0
  2 31  1  0
  2 32  1  0
  3  4  1  0
  4  5  2  0
  4  6  1  0
  6  7  1  0
  6 17  1  0
  6 33  1  1
  7  8  1  0
  7  9  2  0
  8 34  1  0
  8 35  1  0
  8 36  1  0
  9 10  1  0
 10 11  2  0
 10 16  1  0
 11 12  1  0
 11 17  1  0
 12 13  2  0
 12 14  1  0
 14 15  1  0
 14 37  1  0
 14 38  1  0
 15 16  1  0
 15 39  1  0
 15 40  1  0
 16 41  1  0
 16 42  1  0
 17 18  1  1
 17 19  1  0
 19 20  2  0
 19 27  1  0
 20 21  1  0
 20 43  1  0
 21 22  2  0
 21 44  1  0
 22 23  1  0
 22 45  1  0
 23 24  1  0
 23 27  2  0
 24 25  2  0
 24 26  1  0
 27 46  1  0
M  CHG  2  24   1  26  -1
M  END

