
     RDKit          3D

 64 67  0  0  0  0  0  0  0  0999 V2000
    2.2860    1.2264   -3.7597 C   0  0  0  0  0  0  0  0  0  0  0  0
    3.5682    0.6129   -3.2472 C   0  0  0  0  0  0  0  0  0  0  0  0
    4.7995    1.1854   -3.5988 C   0  0  0  0  0  0  0  0  0  0  0  0
    5.9959    0.6504   -3.1236 C   0  0  0  0  0  0  0  0  0  0  0  0
    5.9768   -0.4833   -2.3130 C   0  0  0  0  0  0  0  0  0  0  0  0
    4.7584   -1.0867   -1.9542 C   0  0  0  0  0  0  0  0  0  0  0  0
    4.7317   -2.2497   -1.1317 N   0  0  0  0  0  0  0  0  0  0  0  0
    5.8245   -2.4335   -0.1815 C   0  0  0  0  0  0  0  0  0  0  0  0
    5.4485   -3.5129    0.8370 C   0  0  0  0  0  0  0  0  0  0  0  0
    5.0901   -4.7764    0.1963 N   0  0  0  0  0  0  0  0  0  0  0  0
    6.0420   -5.7804    0.1034 C   0  0  0  0  0  0  0  0  0  0  0  0
    7.3194   -5.4623    0.3108 N   0  0  0  0  0  0  0  0  0  0  0  0
    8.2563   -6.4117    0.2177 C   0  0  0  0  0  0  0  0  0  0  0  0
    7.9288   -7.7164   -0.1245 C   0  0  0  0  0  0  0  0  0  0  0  0
    6.6447   -8.0739   -0.2721 N   0  0  0  0  0  0  0  0  0  0  0  0
    5.7019   -7.1634   -0.1274 C   0  0  0  0  0  0  0  0  0  0  0  0
    3.9961   -7.6918   -0.1136 S   0  0  0  0  0  0  0  0  0  0  0  0
    4.2131   -9.4911   -0.1326 C   0  0  0  0  0  0  0  0  0  0  0  0
    4.6279  -10.0771    1.2306 C   0  0  0  0  0  0  0  0  0  0  0  0
    4.7516   -9.3738    2.2163 O   0  0  0  0  0  0  0  0  0  0  0  0
    4.8386  -11.4363    1.2631 N   0  0  0  0  0  0  0  0  0  0  0  0
    4.7335  -12.3571    0.1371 C   0  0  0  0  0  0  0  0  0  0  0  0
    6.0572  -13.0987   -0.0895 C   0  0  0  0  0  0  0  0  0  0  0  0
    6.5349  -13.7804    1.1978 C   0  0  0  0  0  0  0  0  0  0  0  0
    6.5966  -12.7936    2.3758 C   0  0  2  0  0  0  0  0  0  0  0  0
    6.9937  -13.4765    3.6856 C   0  0  0  0  0  0  0  0  0  0  0  0
    5.2510  -12.0622    2.5172 C   0  0  0  0  0  0  0  0  0  0  0  0
    4.0360   -4.5989   -0.8025 C   0  0  0  0  0  0  0  0  0  0  0  0
    4.4004   -3.5027   -1.8102 C   0  0  0  0  0  0  0  0  0  0  0  0
    3.5366   -0.5191   -2.4016 C   0  0  0  0  0  0  0  0  0  0  0  0
    2.2153   -1.0914   -1.9491 C   0  0  0  0  0  0  0  0  0  0  0  0
    2.4929    2.0572   -4.4498 H   0  0  0  0  0  0  0  0  0  0  0  0
    1.6647    1.6240   -2.9385 H   0  0  0  0  0  0  0  0  0  0  0  0
    1.6635    0.4903   -4.2954 H   0  0  0  0  0  0  0  0  0  0  0  0
    4.8147    2.0657   -4.2473 H   0  0  0  0  0  0  0  0  0  0  0  0
    6.9500    1.1084   -3.3977 H   0  0  0  0  0  0  0  0  0  0  0  0
    6.9179   -0.9141   -1.9688 H   0  0  0  0  0  0  0  0  0  0  0  0
    6.0060   -1.4812    0.3405 H   0  0  0  0  0  0  0  0  0  0  0  0
    6.7723   -2.7363   -0.6741 H   0  0  0  0  0  0  0  0  0  0  0  0
    4.5713   -3.1694    1.4136 H   0  0  0  0  0  0  0  0  0  0  0  0
    6.2833   -3.6865    1.5255 H   0  0  0  0  0  0  0  0  0  0  0  0
    9.2927   -6.1166    0.4155 H   0  0  0  0  0  0  0  0  0  0  0  0
    8.6906   -8.4927   -0.2460 H   0  0  0  0  0  0  0  0  0  0  0  0
    4.9568   -9.7372   -0.9016 H   0  0  0  0  0  0  0  0  0  0  0  0
    3.2362   -9.8906   -0.4477 H   0  0  0  0  0  0  0  0  0  0  0  0
    4.4350  -11.8198   -0.7700 H   0  0  0  0  0  0  0  0  0  0  0  0
    3.9334  -13.0941    0.3500 H   0  0  0  0  0  0  0  0  0  0  0  0
    6.8150  -12.3721   -0.4311 H   0  0  0  0  0  0  0  0  0  0  0  0
    5.9294  -13.8379   -0.8981 H   0  0  0  0  0  0  0  0  0  0  0  0
    7.5210  -14.2495    1.0409 H   0  0  0  0  0  0  0  0  0  0  0  0
    5.8386  -14.6013    1.4562 H   0  0  0  0  0  0  0  0  0  0  0  0
    7.3555  -12.0256    2.1364 H   0  0  0  0  0  0  0  0  0  0  0  0
    6.2543  -14.2428    3.9758 H   0  0  0  0  0  0  0  0  0  0  0  0
    7.0643  -12.7510    4.5120 H   0  0  0  0  0  0  0  0  0  0  0  0
    7.9709  -13.9772    3.5932 H   0  0  0  0  0  0  0  0  0  0  0  0
    5.3027  -11.2724    3.2765 H   0  0  0  0  0  0  0  0  0  0  0  0
    4.4733  -12.7874    2.8311 H   0  0  0  0  0  0  0  0  0  0  0  0
    3.0994   -4.3247   -0.2859 H   0  0  0  0  0  0  0  0  0  0  0  0
    3.8547   -5.5376   -1.3409 H   0  0  0  0  0  0  0  0  0  0  0  0
    3.5517   -3.3437   -2.4904 H   0  0  0  0  0  0  0  0  0  0  0  0
    5.2541   -3.8515   -2.4340 H   0  0  0  0  0  0  0  0  0  0  0  0
    2.3520   -1.7012   -1.0460 H   0  0  0  0  0  0  0  0  0  0  0  0
    1.7449   -1.7283   -2.7202 H   0  0  0  0  0  0  0  0  0  0  0  0
    1.4909   -0.2950   -1.7201 H   0  0  0  0  0  0  0  0  0  0  0  0
  1  2  1  0
  1 32  1  0
  1 33  1  0
  1 34  1  0
  2  3  2  0
  2 30  1  0
  3  4  1  0
  3 35  1  0
  4  5  2  0
  4 36  1  0
  5  6  1  0
  5 37  1  0
  6  7  1  0
  6 30  2  0
  7  8  1  0
  7 29  1  0
  8  9  1  0
  8 38  1  0
  8 39  1  0
  9 10  1  0
  9 40  1  0
  9 41  1  0
 10 11  1  0
 10 28  1  0
 11 12  2  0
 11 16  1  0
 12 13  1  0
 13 14  2  0
 13 42  1  0
 14 15  1  0
 14 43  1  0
 15 16  2  0
 16 17  1  0
 17 18  1  0
 18 19  1  0
 18 44  1  0
 18 45  1  0
 19 20  2  0
 19 21  1  0
 21 22  1  0
 21 27  1  0
 22 23  1  0
 22 46  1  0
 22 47  1  0
 23 24  1  0
 23 48  1  0
 23 49  1  0
 24 25  1  0
 24 50  1  0
 24 51  1  0
 25 26  1  0
 25 27  1  0
 25 52  1  6
 26 53  1  0
 26 54  1  0
 26 55  1  0
 27 56  1  0
 27 57  1  0
 28 29  1  0
 28 58  1  0
 28 59  1  0
 29 60  1  0
 29 61  1  0
 30 31  1  0
 31 62  1  0
 31 63  1  0
 31 64  1  0
M  END

