
     RDKit          3D

 41 42  0  0  0  0  0  0  0  0999 V2000
    4.3286    1.8351    1.9021 C   0  0  0  0  0  0  0  0  0  0  0  0
    4.3496    1.0332    0.5924 C   0  0  1  0  0  0  0  0  0  0  0  0
    4.8891    1.8723   -0.5751 C   0  0  0  0  0  0  0  0  0  0  0  0
    5.2343   -0.2100    0.7744 C   0  0  0  0  0  0  0  0  0  0  0  0
    6.4196   -0.1053    1.0366 O   0  0  0  0  0  0  0  0  0  0  0  0
    4.5760   -1.4082    0.6180 N   0  0  0  0  0  0  0  0  0  0  0  0
    5.0713   -2.7258    0.7167 C   0  0  0  0  0  0  0  0  0  0  0  0
    6.4091   -3.0184    1.0223 C   0  0  0  0  0  0  0  0  0  0  0  0
    6.7898   -4.3630    1.0949 C   0  0  0  0  0  0  0  0  0  0  0  0
    5.8896   -5.3993    0.8750 C   0  0  0  0  0  0  0  0  0  0  0  0
    4.5384   -5.1150    0.5686 C   0  0  0  0  0  0  0  0  0  0  0  0
    3.6464   -6.1574    0.3942 N   0  0  0  0  0  0  0  0  0  0  0  0
    2.3178   -6.0459   -0.1774 C   0  0  1  0  0  0  0  0  0  0  0  0
    2.3124   -5.7788   -1.7027 C   0  0  0  0  0  0  0  0  0  0  0  0
    2.8334   -7.0035   -2.4682 C   0  0  0  0  0  0  0  0  0  0  0  0
    2.1183   -8.2755   -2.0091 C   0  0  0  0  0  0  0  0  0  0  0  0
    2.1815   -8.4348   -0.5996 O   0  0  0  0  0  0  0  0  0  0  0  0
    1.5736   -7.3606    0.0914 C   0  0  0  0  0  0  0  0  0  0  0  0
    4.1491   -3.7648    0.4893 C   0  0  0  0  0  0  0  0  0  0  0  0
    3.7326    2.7545    1.7875 H   0  0  0  0  0  0  0  0  0  0  0  0
    5.3543    2.1156    2.1861 H   0  0  0  0  0  0  0  0  0  0  0  0
    3.8968    1.2485    2.7288 H   0  0  0  0  0  0  0  0  0  0  0  0
    3.3174    0.7180    0.3543 H   0  0  0  0  0  0  0  0  0  0  0  0
    5.9358    2.1527   -0.3824 H   0  0  0  0  0  0  0  0  0  0  0  0
    4.2969    2.7925   -0.7011 H   0  0  0  0  0  0  0  0  0  0  0  0
    4.8577    1.3128   -1.5238 H   0  0  0  0  0  0  0  0  0  0  0  0
    3.5892   -1.3391    0.4014 H   0  0  0  0  0  0  0  0  0  0  0  0
    7.1157   -2.2112    1.1922 H   0  0  0  0  0  0  0  0  0  0  0  0
    7.8298   -4.6043    1.3316 H   0  0  0  0  0  0  0  0  0  0  0  0
    6.2162   -6.4407    0.9425 H   0  0  0  0  0  0  0  0  0  0  0  0
    4.0545   -7.0831    0.3284 H   0  0  0  0  0  0  0  0  0  0  0  0
    1.7728   -5.2374    0.3405 H   0  0  0  0  0  0  0  0  0  0  0  0
    2.9154   -4.8873   -1.9361 H   0  0  0  0  0  0  0  0  0  0  0  0
    1.2760   -5.5553   -2.0155 H   0  0  0  0  0  0  0  0  0  0  0  0
    3.9166   -7.1168   -2.2930 H   0  0  0  0  0  0  0  0  0  0  0  0
    2.7006   -6.8723   -3.5551 H   0  0  0  0  0  0  0  0  0  0  0  0
    2.5775   -9.1754   -2.4458 H   0  0  0  0  0  0  0  0  0  0  0  0
    1.0555   -8.2500   -2.3318 H   0  0  0  0  0  0  0  0  0  0  0  0
    1.6072   -7.6102    1.1624 H   0  0  0  0  0  0  0  0  0  0  0  0
    0.5121   -7.2538   -0.2120 H   0  0  0  0  0  0  0  0  0  0  0  0
    3.1142   -3.5071    0.2540 H   0  0  0  0  0  0  0  0  0  0  0  0
  1  2  1  0
  1 20  1  0
  1 21  1  0
  1 22  1  0
  2  3  1  0
  2  4  1  0
  2 23  1  6
  3 24  1  0
  3 25  1  0
  3 26  1  0
  4  5  2  0
  4  6  1  0
  6  7  1  0
  6 27  1  0
  7  8  2  0
  7 19  1  0
  8  9  1  0
  8 28  1  0
  9 10  2  0
  9 29  1  0
 10 11  1  0
 10 30  1  0
 11 12  1  0
 11 19  2  0
 12 13  1  0
 12 31  1  0
 13 14  1  0
 13 18  1  0
 13 32  1  1
 14 15  1  0
 14 33  1  0
 14 34  1  0
 15 16  1  0
 15 35  1  0
 15 36  1  0
 16 17  1  0
 16 37  1  0
 16 38  1  0
 17 18  1  0
 18 39  1  0
 18 40  1  0
 19 41  1  0
M  END

