
     RDKit          3D

 43 45  0  0  0  0  0  0  0  0999 V2000
    0.9374    0.5505    1.8258 C   0  0  0  0  0  0  0  0  0  0  0  0
    2.1959    1.3642    1.8101 C   0  0  0  0  0  0  0  0  0  0  0  0
    3.0004    1.7072    0.6898 C   0  0  0  0  0  0  0  0  0  0  0  0
    4.0339    2.4608    1.2301 C   0  0  0  0  0  0  0  0  0  0  0  0
    5.1391    3.0860    0.6599 N   0  0  0  0  0  0  0  0  0  0  0  0
    5.4523    3.0723   -0.6825 C   0  0  0  0  0  0  0  0  0  0  0  0
    4.7976    2.4913   -1.5271 O   0  0  0  0  0  0  0  0  0  0  0  0
    6.7149    3.8701   -1.0111 C   0  0  0  0  0  0  0  0  0  0  0  0
    6.5602    5.4020   -0.8213 C   0  0  0  0  0  0  0  0  0  0  0  0
    7.7423    6.0795   -0.1147 C   0  0  1  0  0  0  0  0  0  0  0  0
    8.6875    5.6714   -0.5251 H   0  0  0  0  0  0  0  0  0  0  0  0
    7.7818    7.6051   -0.3136 C   0  0  0  0  0  0  0  0  0  0  0  0
    8.9364    8.2318    0.4306 C   0  0  0  0  0  0  0  0  0  0  0  0
    9.6413    9.3482   -0.0280 C   0  0  0  0  0  0  0  0  0  0  0  0
   10.6721    9.9143    0.7295 C   0  0  0  0  0  0  0  0  0  0  0  0
   11.0096    9.3560    1.9653 C   0  0  0  0  0  0  0  0  0  0  0  0
   10.3277    8.2326    2.4375 C   0  0  0  0  0  0  0  0  0  0  0  0
    9.2963    7.6737    1.6728 C   0  0  0  0  0  0  0  0  0  0  0  0
    8.5840    6.5514    2.1364 N   0  0  0  0  0  0  0  0  0  0  0  0
    7.7766    5.7479    1.3793 C   0  0  0  0  0  0  0  0  0  0  0  0
    7.1567    4.8235    1.8952 O   0  0  0  0  0  0  0  0  0  0  0  0
    3.8166    2.5295    2.5779 N   0  0  0  0  0  0  0  0  0  0  0  0
    4.6058    3.2144    3.5761 C   0  0  0  0  0  0  0  0  0  0  0  0
    2.6930    1.8634    2.9377 N   0  0  0  0  0  0  0  0  0  0  0  0
    0.1541    1.0048    1.1962 H   0  0  0  0  0  0  0  0  0  0  0  0
    0.5561    0.4751    2.8540 H   0  0  0  0  0  0  0  0  0  0  0  0
    1.1104   -0.4693    1.4432 H   0  0  0  0  0  0  0  0  0  0  0  0
    2.8723    1.4551   -0.3567 H   0  0  0  0  0  0  0  0  0  0  0  0
    5.7725    3.6150    1.2642 H   0  0  0  0  0  0  0  0  0  0  0  0
    6.9683    3.6293   -2.0521 H   0  0  0  0  0  0  0  0  0  0  0  0
    7.5310    3.4929   -0.3745 H   0  0  0  0  0  0  0  0  0  0  0  0
    5.6417    5.6279   -0.2554 H   0  0  0  0  0  0  0  0  0  0  0  0
    6.4293    5.8754   -1.8068 H   0  0  0  0  0  0  0  0  0  0  0  0
    6.8284    8.0403    0.0449 H   0  0  0  0  0  0  0  0  0  0  0  0
    7.8435    7.8387   -1.3872 H   0  0  0  0  0  0  0  0  0  0  0  0
    9.3719    9.7852   -0.9937 H   0  0  0  0  0  0  0  0  0  0  0  0
   11.2095   10.7883    0.3548 H   0  0  0  0  0  0  0  0  0  0  0  0
   11.8131    9.7903    2.5650 H   0  0  0  0  0  0  0  0  0  0  0  0
   10.5957    7.7850    3.3984 H   0  0  0  0  0  0  0  0  0  0  0  0
    8.6700    6.2818    3.1126 H   0  0  0  0  0  0  0  0  0  0  0  0
    4.6039    4.3067    3.4229 H   0  0  0  0  0  0  0  0  0  0  0  0
    5.6528    2.8701    3.5719 H   0  0  0  0  0  0  0  0  0  0  0  0
    4.1546    2.9867    4.5490 H   0  0  0  0  0  0  0  0  0  0  0  0
  1  2  1  0
  1 25  1  0
  1 26  1  0
  1 27  1  0
  2  3  1  0
  2 24  2  0
  3  4  2  0
  3 28  1  0
  4  5  1  0
  4 22  1  0
  5  6  1  0
  5 29  1  0
  6  7  2  0
  6  8  1  0
  8  9  1  0
  8 30  1  0
  8 31  1  0
  9 10  1  0
  9 32  1  0
  9 33  1  0
 10 11  1  6
 10 12  1  0
 10 20  1  0
 12 13  1  0
 12 34  1  0
 12 35  1  0
 13 14  2  0
 13 18  1  0
 14 15  1  0
 14 36  1  0
 15 16  2  0
 15 37  1  0
 16 17  1  0
 16 38  1  0
 17 18  2  0
 17 39  1  0
 18 19  1  0
 19 20  1  0
 19 40  1  0
 20 21  2  0
 22 23  1  0
 22 24  1  0
 23 41  1  0
 23 42  1  0
 23 43  1  0
M  END

