
     RDKit          3D

 36 36  0  0  0  0  0  0  0  0999 V2000
    1.7957    0.3758    1.4915 C   0  0  0  0  0  0  0  0  0  0  0  0
    2.8675    0.3045    0.5524 O   0  0  0  0  0  0  0  0  0  0  0  0
    3.4695    1.4711    0.2432 C   0  0  0  0  0  0  0  0  0  0  0  0
    3.1440    2.5290    0.7233 O   0  0  0  0  0  0  0  0  0  0  0  0
    4.5740    1.2610   -0.7716 C   0  0  0  0  0  0  0  0  0  0  0  0
    5.3662    2.5283   -1.0830 C   0  0  0  0  0  0  0  0  0  0  0  0
    6.4595    2.3008   -2.1399 C   0  0  0  0  0  0  0  0  0  0  0  0
    7.1981    3.5620   -2.4963 C   0  0  0  0  0  0  0  0  0  0  0  0
    8.4978    3.8438   -2.3175 C   0  0  0  0  0  0  0  0  0  0  0  0
    9.5659    2.9696   -1.7171 C   0  0  0  0  0  0  0  0  0  0  0  0
   10.6983    2.6426   -2.6937 C   0  0  1  0  0  0  0  0  0  0  0  0
   11.0505    3.5987   -3.1342 H   0  0  0  0  0  0  0  0  0  0  0  0
   11.8424    1.9969   -2.0500 N   0  0  0  0  0  0  0  0  0  0  0  0
   12.6567    1.4088   -3.1280 C   0  0  0  0  0  0  0  0  0  0  0  0
   11.7756    1.3957   -4.4167 C   0  0  0  0  0  0  0  0  0  0  0  0
   10.3772    1.7518   -3.9125 C   0  0  1  0  0  0  0  0  0  0  0  0
    9.7230    2.2192   -4.6583 H   0  0  0  0  0  0  0  0  0  0  0  0
    9.5016    0.2228   -3.3918 Cl  0  0  0  0  0  0  0  0  0  0  0  0
    1.4308   -0.6510    1.6199 H   0  0  0  0  0  0  0  0  0  0  0  0
    0.9872    1.0229    1.1178 H   0  0  0  0  0  0  0  0  0  0  0  0
    2.1429    0.7796    2.4549 H   0  0  0  0  0  0  0  0  0  0  0  0
    4.1069    0.8474   -1.6836 H   0  0  0  0  0  0  0  0  0  0  0  0
    5.2277    0.4548   -0.3962 H   0  0  0  0  0  0  0  0  0  0  0  0
    5.8202    2.9148   -0.1555 H   0  0  0  0  0  0  0  0  0  0  0  0
    4.6711    3.3156   -1.4197 H   0  0  0  0  0  0  0  0  0  0  0  0
    5.9858    1.9018   -3.0572 H   0  0  0  0  0  0  0  0  0  0  0  0
    7.1559    1.5176   -1.8030 H   0  0  0  0  0  0  0  0  0  0  0  0
    6.5753    4.3490   -2.9419 H   0  0  0  0  0  0  0  0  0  0  0  0
    8.8447    4.8334   -2.6428 H   0  0  0  0  0  0  0  0  0  0  0  0
    9.1459    2.0313   -1.3249 H   0  0  0  0  0  0  0  0  0  0  0  0
   10.0301    3.4961   -0.8645 H   0  0  0  0  0  0  0  0  0  0  0  0
   11.4857    1.2483   -1.4565 H   0  0  0  0  0  0  0  0  0  0  0  0
   12.9907    0.3988   -2.8458 H   0  0  0  0  0  0  0  0  0  0  0  0
   13.5666    2.0097   -3.2977 H   0  0  0  0  0  0  0  0  0  0  0  0
   11.7950    0.4406   -4.9590 H   0  0  0  0  0  0  0  0  0  0  0  0
   12.1024    2.1809   -5.1187 H   0  0  0  0  0  0  0  0  0  0  0  0
  1  2  1  0
  1 19  1  0
  1 20  1  0
  1 21  1  0
  2  3  1  0
  3  4  2  0
  3  5  1  0
  5  6  1  0
  5 22  1  0
  5 23  1  0
  6  7  1  0
  6 24  1  0
  6 25  1  0
  7  8  1  0
  7 26  1  0
  7 27  1  0
  8  9  2  0
  8 28  1  0
  9 10  1  0
  9 29  1  0
 10 11  1  0
 10 30  1  0
 10 31  1  0
 11 12  1  6
 11 13  1  0
 11 16  1  0
 13 14  1  0
 13 32  1  0
 14 15  1  0
 14 33  1  0
 14 34  1  0
 15 16  1  0
 15 35  1  0
 15 36  1  0
 16 17  1  6
 16 18  1  0
M  END

