
     RDKit          3D

 48 50  0  0  0  0  0  0  0  0999 V2000
    2.2361    0.3300    1.4659 O   0  0  0  0  0  0  0  0  0  0  0  0
    2.4186    0.1845    0.2762 C   0  0  0  0  0  0  0  0  0  0  0  0
    2.0433   -0.9609   -0.4155 N   0  0  0  0  0  0  0  0  0  0  0  0
    1.5027   -2.0167    0.2190 N   0  0  0  0  0  0  0  0  0  0  0  0
    1.1102   -3.0132   -0.4859 C   0  0  0  0  0  0  0  0  0  0  0  0
    0.5154   -4.2105    0.1135 C   0  0  0  0  0  0  0  0  0  0  0  0
    0.3379   -4.3246    1.5044 C   0  0  0  0  0  0  0  0  0  0  0  0
   -0.2319   -5.4776    2.0434 C   0  0  0  0  0  0  0  0  0  0  0  0
   -0.6294   -6.5252    1.2095 C   0  0  0  0  0  0  0  0  0  0  0  0
   -1.1963   -7.6928    1.6418 O   0  0  0  0  0  0  0  0  0  0  0  0
   -0.4574   -6.4249   -0.1862 C   0  0  0  0  0  0  0  0  0  0  0  0
   -0.8431   -7.4423   -0.9949 O   0  0  0  0  0  0  0  0  0  0  0  0
    0.1117   -5.2709   -0.7206 C   0  0  0  0  0  0  0  0  0  0  0  0
    3.0498    1.2479   -0.5865 C   0  0  0  0  0  0  0  0  0  0  0  0
    2.9752    2.5711   -0.1243 C   0  0  0  0  0  0  0  0  0  0  0  0
    3.5457    3.5950   -0.8813 C   0  0  0  0  0  0  0  0  0  0  0  0
    4.2000    3.3166   -2.0814 C   0  0  0  0  0  0  0  0  0  0  0  0
    4.2984    1.9899   -2.5407 C   0  0  0  0  0  0  0  0  0  0  0  0
    4.9733    1.7308   -3.7281 N   0  0  0  0  0  0  0  0  0  0  0  0
    5.1047    0.4975   -4.2253 N   0  0  0  0  0  0  0  0  0  0  0  0
    5.7455    0.3338   -5.3288 C   0  0  0  0  0  0  0  0  0  0  0  0
    5.9460   -0.9759   -5.9505 C   0  0  0  0  0  0  0  0  0  0  0  0
    5.4694   -2.1642   -5.3667 C   0  0  0  0  0  0  0  0  0  0  0  0
    5.6844   -3.3914   -5.9946 C   0  0  0  0  0  0  0  0  0  0  0  0
    6.3740   -3.4536   -7.2069 C   0  0  0  0  0  0  0  0  0  0  0  0
    6.6353   -4.6044   -7.8989 O   0  0  0  0  0  0  0  0  0  0  0  0
    6.8590   -2.2724   -7.8050 C   0  0  0  0  0  0  0  0  0  0  0  0
    7.5291   -2.3305   -8.9810 O   0  0  0  0  0  0  0  0  0  0  0  0
    6.6419   -1.0497   -7.1738 C   0  0  0  0  0  0  0  0  0  0  0  0
    3.7185    0.9566   -1.7834 C   0  0  0  0  0  0  0  0  0  0  0  0
    2.0974   -0.9619   -1.4354 H   0  0  0  0  0  0  0  0  0  0  0  0
    1.2069   -3.0071   -1.5897 H   0  0  0  0  0  0  0  0  0  0  0  0
    0.6508   -3.5010    2.1476 H   0  0  0  0  0  0  0  0  0  0  0  0
   -0.3720   -5.5692    3.1253 H   0  0  0  0  0  0  0  0  0  0  0  0
   -1.2838   -7.6889    2.6034 H   0  0  0  0  0  0  0  0  0  0  0  0
   -1.2131   -8.1406   -0.4333 H   0  0  0  0  0  0  0  0  0  0  0  0
    0.2348   -5.2125   -1.8048 H   0  0  0  0  0  0  0  0  0  0  0  0
    2.4715    2.7692    0.8226 H   0  0  0  0  0  0  0  0  0  0  0  0
    3.4842    4.6295   -0.5339 H   0  0  0  0  0  0  0  0  0  0  0  0
    4.6462    4.1276   -2.6646 H   0  0  0  0  0  0  0  0  0  0  0  0
    5.3888    2.5197   -4.2258 H   0  0  0  0  0  0  0  0  0  0  0  0
    6.1790    1.2030   -5.8595 H   0  0  0  0  0  0  0  0  0  0  0  0
    4.9338   -2.1165   -4.4182 H   0  0  0  0  0  0  0  0  0  0  0  0
    5.3147   -4.3156   -5.5389 H   0  0  0  0  0  0  0  0  0  0  0  0
    6.2824   -5.3698   -7.4278 H   0  0  0  0  0  0  0  0  0  0  0  0
    7.5750   -3.2612   -9.2492 H   0  0  0  0  0  0  0  0  0  0  0  0
    7.0274   -0.1481   -7.6559 H   0  0  0  0  0  0  0  0  0  0  0  0
    3.8411   -0.0646   -2.1424 H   0  0  0  0  0  0  0  0  0  0  0  0
  1  2  2  0
  2  3  1  0
  2 14  1  0
  3  4  1  0
  3 31  1  0
  4  5  2  0
  5  6  1  0
  5 32  1  0
  6  7  2  0
  6 13  1  0
  7  8  1  0
  7 33  1  0
  8  9  2  0
  8 34  1  0
  9 10  1  0
  9 11  1  0
 10 35  1  0
 11 12  1  0
 11 13  2  0
 12 36  1  0
 13 37  1  0
 14 15  2  0
 14 30  1  0
 15 16  1  0
 15 38  1  0
 16 17  2  0
 16 39  1  0
 17 18  1  0
 17 40  1  0
 18 19  1  0
 18 30  2  0
 19 20  1  0
 19 41  1  0
 20 21  2  0
 21 22  1  0
 21 42  1  0
 22 23  2  0
 22 29  1  0
 23 24  1  0
 23 43  1  0
 24 25  2  0
 24 44  1  0
 25 26  1  0
 25 27  1  0
 26 45  1  0
 27 28  1  0
 27 29  2  0
 28 46  1  0
 29 47  1  0
 30 48  1  0
M  END

