
     RDKit          3D

 35 36  0  0  0  0  0  0  0  0999 V2000
    1.3951    2.3814   -3.0478 C   0  0  0  0  0  0  0  0  0  0  0  0
    2.8261    2.2170   -2.5509 C   0  0  0  0  0  0  0  0  0  0  0  0
    2.8619    1.8766   -1.1331 N   0  0  0  0  0  0  0  0  0  0  0  0
    4.1936    1.7148   -0.5745 C   0  0  0  0  0  0  0  0  0  0  0  0
    4.8611    3.0377   -0.2176 C   0  0  0  0  0  0  0  0  0  0  0  0
    4.0729    4.1501    0.1089 C   0  0  0  0  0  0  0  0  0  0  0  0
    4.6398    5.3719    0.4700 C   0  0  0  0  0  0  0  0  0  0  0  0
    6.0305    5.4895    0.5066 C   0  0  0  0  0  0  0  0  0  0  0  0
    6.7668    7.0123    0.9540 Cl  0  0  0  0  0  0  0  0  0  0  0  0
    6.8418    4.4005    0.1879 C   0  0  0  0  0  0  0  0  0  0  0  0
    6.2656    3.1727   -0.1738 C   0  0  0  0  0  0  0  0  0  0  0  0
    7.1768    2.0163   -0.4561 C   0  0  0  0  0  0  0  0  0  0  0  0
    7.4919    1.1207    0.5826 C   0  0  0  0  0  0  0  0  0  0  0  0
    8.3061    0.0726    0.4602 N   0  0  0  0  0  0  0  0  0  0  0  0
    8.8658   -0.1451   -0.7296 C   0  0  0  0  0  0  0  0  0  0  0  0
    8.6356    0.6709   -1.8399 C   0  0  0  0  0  0  0  0  0  0  0  0
    7.7798    1.7671   -1.7049 C   0  0  0  0  0  0  0  0  0  0  0  0
    7.5124    2.6583   -2.9026 C   0  0  1  0  0  0  0  0  0  0  0  0
    6.1970    2.7313   -3.1802 F   0  0  0  0  0  0  0  0  0  0  0  0
    7.9495    3.9114   -2.6987 F   0  0  0  0  0  0  0  0  0  0  0  0
    8.1231    2.2006   -4.0078 F   0  0  0  0  0  0  0  0  0  0  0  0
    1.3777    2.6538   -4.1146 H   0  0  0  0  0  0  0  0  0  0  0  0
    0.8689    3.1640   -2.4792 H   0  0  0  0  0  0  0  0  0  0  0  0
    0.8231    1.4438   -2.9369 H   0  0  0  0  0  0  0  0  0  0  0  0
    3.3801    3.1607   -2.6906 H   0  0  0  0  0  0  0  0  0  0  0  0
    3.3572    1.4643   -3.1763 H   0  0  0  0  0  0  0  0  0  0  0  0
    2.3110    1.0374   -0.9637 H   0  0  0  0  0  0  0  0  0  0  0  0
    4.8681    1.1408   -1.2426 H   0  0  0  0  0  0  0  0  0  0  0  0
    4.1033    1.1138    0.3483 H   0  0  0  0  0  0  0  0  0  0  0  0
    2.9880    4.0353    0.0641 H   0  0  0  0  0  0  0  0  0  0  0  0
    4.0132    6.2296    0.7208 H   0  0  0  0  0  0  0  0  0  0  0  0
    7.9267    4.5095    0.2167 H   0  0  0  0  0  0  0  0  0  0  0  0
    7.0478    1.2848    1.5715 H   0  0  0  0  0  0  0  0  0  0  0  0
    9.5329   -1.0107   -0.8128 H   0  0  0  0  0  0  0  0  0  0  0  0
    9.1136    0.4550   -2.7958 H   0  0  0  0  0  0  0  0  0  0  0  0
  1  2  1  0
  1 22  1  0
  1 23  1  0
  1 24  1  0
  2  3  1  0
  2 25  1  0
  2 26  1  0
  3  4  1  0
  3 27  1  0
  4  5  1  0
  4 28  1  0
  4 29  1  0
  5  6  2  0
  5 11  1  0
  6  7  1  0
  6 30  1  0
  7  8  2  0
  7 31  1  0
  8  9  1  0
  8 10  1  0
 10 11  2  0
 10 32  1  0
 11 12  1  0
 12 13  2  0
 12 17  1  0
 13 14  1  0
 13 33  1  0
 14 15  2  0
 15 16  1  0
 15 34  1  0
 16 17  2  0
 16 35  1  0
 17 18  1  0
 18 19  1  6
 18 20  1  0
 18 21  1  0
M  END

