
     RDKit          3D

 33 33  0  0  0  0  0  0  0  0999 V2000
    6.1651    0.1350   -2.3224 C   0  0  0  0  0  0  0  0  0  0  0  0
    4.9638    0.3913   -1.4189 C   0  0  0  0  0  0  0  0  0  0  0  0
    5.3581    1.0426   -0.1832 N   0  0  0  0  0  0  0  0  0  0  0  0
    4.2582    1.3168    0.7319 C   0  0  0  0  0  0  0  0  0  0  0  0
    4.7146    2.0163    1.9780 C   0  0  0  0  0  0  0  0  0  0  0  0
    4.5954    3.3570    2.2898 C   0  0  0  0  0  0  0  0  0  0  0  0
    5.1777    3.5156    3.5320 N   0  0  0  0  0  0  0  0  0  0  0  0
    5.3423    4.7544    4.2683 C   0  0  0  0  0  0  0  0  0  0  0  0
    6.5349    5.5801    3.7852 C   0  0  0  0  0  0  0  0  0  0  0  0
    6.5895    6.7397    4.5695 O   0  0  0  0  0  0  0  0  0  0  0  0
    7.6498    7.6161    4.2492 C   0  0  0  0  0  0  0  0  0  0  0  0
    7.5898    8.8203    5.1699 C   0  0  0  0  0  0  0  0  0  0  0  0
    5.6209    2.2731    3.9033 C   0  0  0  0  0  0  0  0  0  0  0  0
    5.3588    1.3589    3.0010 N   0  0  0  0  0  0  0  0  0  0  0  0
    5.8663   -0.3951   -3.2405 H   0  0  0  0  0  0  0  0  0  0  0  0
    6.9218   -0.4680   -1.7969 H   0  0  0  0  0  0  0  0  0  0  0  0
    6.6428    1.0821   -2.6280 H   0  0  0  0  0  0  0  0  0  0  0  0
    4.4870   -0.5713   -1.1586 H   0  0  0  0  0  0  0  0  0  0  0  0
    4.1887    0.9636   -1.9843 H   0  0  0  0  0  0  0  0  0  0  0  0
    5.8590    1.9082   -0.3844 H   0  0  0  0  0  0  0  0  0  0  0  0
    3.8060    0.3517    1.0192 H   0  0  0  0  0  0  0  0  0  0  0  0
    3.4438    1.9172    0.2627 H   0  0  0  0  0  0  0  0  0  0  0  0
    4.1402    4.1893    1.7571 H   0  0  0  0  0  0  0  0  0  0  0  0
    5.4778    4.5165    5.3339 H   0  0  0  0  0  0  0  0  0  0  0  0
    4.4254    5.3581    4.1850 H   0  0  0  0  0  0  0  0  0  0  0  0
    6.4153    5.8251    2.7087 H   0  0  0  0  0  0  0  0  0  0  0  0
    7.4659    4.9821    3.8767 H   0  0  0  0  0  0  0  0  0  0  0  0
    7.5749    7.9332    3.1876 H   0  0  0  0  0  0  0  0  0  0  0  0
    8.6230    7.0922    4.3557 H   0  0  0  0  0  0  0  0  0  0  0  0
    6.6318    9.3501    5.0523 H   0  0  0  0  0  0  0  0  0  0  0  0
    8.4070    9.5219    4.9416 H   0  0  0  0  0  0  0  0  0  0  0  0
    7.6814    8.5081    6.2217 H   0  0  0  0  0  0  0  0  0  0  0  0
    6.1176    2.1082    4.8611 H   0  0  0  0  0  0  0  0  0  0  0  0
  1  2  1  0
  1 15  1  0
  1 16  1  0
  1 17  1  0
  2  3  1  0
  2 18  1  0
  2 19  1  0
  3  4  1  0
  3 20  1  0
  4  5  1  0
  4 21  1  0
  4 22  1  0
  5  6  2  0
  5 14  1  0
  6  7  1  0
  6 23  1  0
  7  8  1  0
  7 13  1  0
  8  9  1  0
  8 24  1  0
  8 25  1  0
  9 10  1  0
  9 26  1  0
  9 27  1  0
 10 11  1  0
 11 12  1  0
 11 28  1  0
 11 29  1  0
 12 30  1  0
 12 31  1  0
 12 32  1  0
 13 14  2  0
 13 33  1  0
M  END

