
     RDKit          3D

 45 48  0  0  0  0  0  0  0  0999 V2000
    1.4558    1.7107   -0.3872 O   0  0  0  0  0  0  0  0  0  0  0  0
    1.7377    0.5408   -0.5506 C   0  0  0  0  0  0  0  0  0  0  0  0
    2.2488   -0.0015   -1.8228 C   0  0  0  0  0  0  0  0  0  0  0  0
    2.5580   -1.3011   -2.0277 C   0  0  0  0  0  0  0  0  0  0  0  0
    3.0923   -1.8673   -3.2519 C   0  0  0  0  0  0  0  0  0  0  0  0
    3.6126   -1.1847   -4.3472 C   0  0  0  0  0  0  0  0  0  0  0  0
    4.0509   -2.1122   -5.2376 N   0  0  0  0  0  0  0  0  0  0  0  0
    4.6669   -1.8896   -6.4995 C   0  0  0  0  0  0  0  0  0  0  0  0
    4.5566   -0.6452   -7.1365 C   0  0  0  0  0  0  0  0  0  0  0  0
    5.1852   -0.4403   -8.3664 C   0  0  0  0  0  0  0  0  0  0  0  0
    5.9109   -1.4693   -8.9729 C   0  0  0  0  0  0  0  0  0  0  0  0
    6.0035   -2.7120   -8.3379 C   0  0  0  0  0  0  0  0  0  0  0  0
    5.3882   -2.9286   -7.1047 C   0  0  0  0  0  0  0  0  0  0  0  0
    3.8470   -3.3699   -4.7962 N   0  0  0  0  0  0  0  0  0  0  0  0
    3.2726   -3.2555   -3.6000 C   0  0  0  0  0  0  0  0  0  0  0  0
    2.9445   -4.4685   -2.8529 C   0  0  0  0  0  0  0  0  0  0  0  0
    3.5176   -5.7145   -3.0213 C   0  0  0  0  0  0  0  0  0  0  0  0
    2.9575   -6.7108   -2.1740 C   0  0  0  0  0  0  0  0  0  0  0  0
    1.9576   -6.2214   -1.3696 C   0  0  0  0  0  0  0  0  0  0  0  0
    1.6846   -4.5387   -1.6431 S   0  0  0  0  0  0  0  0  0  0  0  0
    1.6139   -0.3969    0.4153 O   0  0  0  0  0  0  0  0  0  0  0  0
    1.1620    0.0264    1.7145 C   0  0  0  0  0  0  0  0  0  0  0  0
   -0.3394   -0.1003    1.8686 C   0  0  0  0  0  0  0  0  0  0  0  0
   -1.2134    0.8216    1.2674 C   0  0  0  0  0  0  0  0  0  0  0  0
   -2.5872    0.6492    1.4358 C   0  0  0  0  0  0  0  0  0  0  0  0
   -3.0423   -0.4277    2.2004 C   0  0  0  0  0  0  0  0  0  0  0  0
   -2.0930   -1.2847    2.7644 C   0  0  0  0  0  0  0  0  0  0  0  0
   -0.7768   -1.1302    2.6041 N   0  0  0  0  0  0  0  0  0  0  0  0
    2.3493    0.7540   -2.6059 H   0  0  0  0  0  0  0  0  0  0  0  0
    2.4008   -1.9894   -1.1934 H   0  0  0  0  0  0  0  0  0  0  0  0
    3.7357   -0.1189   -4.5147 H   0  0  0  0  0  0  0  0  0  0  0  0
    3.9693    0.1588   -6.6909 H   0  0  0  0  0  0  0  0  0  0  0  0
    5.0946    0.5316   -8.8575 H   0  0  0  0  0  0  0  0  0  0  0  0
    6.3969   -1.3052   -9.9374 H   0  0  0  0  0  0  0  0  0  0  0  0
    6.5650   -3.5250   -8.8049 H   0  0  0  0  0  0  0  0  0  0  0  0
    5.4509   -3.8906   -6.5977 H   0  0  0  0  0  0  0  0  0  0  0  0
    4.3211   -5.8885   -3.7367 H   0  0  0  0  0  0  0  0  0  0  0  0
    3.2852   -7.7514   -2.1573 H   0  0  0  0  0  0  0  0  0  0  0  0
    1.3651   -6.7532   -0.6264 H   0  0  0  0  0  0  0  0  0  0  0  0
    1.4893    1.0623    1.8826 H   0  0  0  0  0  0  0  0  0  0  0  0
    1.6403   -0.6532    2.4299 H   0  0  0  0  0  0  0  0  0  0  0  0
   -0.8060    1.6472    0.6809 H   0  0  0  0  0  0  0  0  0  0  0  0
   -3.2931    1.3491    0.9807 H   0  0  0  0  0  0  0  0  0  0  0  0
   -4.1089   -0.6010    2.3617 H   0  0  0  0  0  0  0  0  0  0  0  0
   -2.4130   -2.1371    3.3760 H   0  0  0  0  0  0  0  0  0  0  0  0
  1  2  2  0
  2  3  1  0
  2 21  1  0
  3  4  2  0
  3 29  1  0
  4  5  1  0
  4 30  1  0
  5  6  2  0
  5 15  1  0
  6  7  1  0
  6 31  1  0
  7  8  1  0
  7 14  1  0
  8  9  2  0
  8 13  1  0
  9 10  1  0
  9 32  1  0
 10 11  2  0
 10 33  1  0
 11 12  1  0
 11 34  1  0
 12 13  2  0
 12 35  1  0
 13 36  1  0
 14 15  2  0
 15 16  1  0
 16 17  2  0
 16 20  1  0
 17 18  1  0
 17 37  1  0
 18 19  2  0
 18 38  1  0
 19 20  1  0
 19 39  1  0
 21 22  1  0
 22 23  1  0
 22 40  1  0
 22 41  1  0
 23 24  2  0
 23 28  1  0
 24 25  1  0
 24 42  1  0
 25 26  2  0
 25 43  1  0
 26 27  1  0
 26 44  1  0
 27 28  2  0
 27 45  1  0
M  END

