
     RDKit          3D

 49 51  0  0  0  0  0  0  0  0999 V2000
    2.4768   -0.3531   -3.3824 C   0  0  0  0  0  0  0  0  0  0  0  0
    2.3980   -1.2559   -2.2431 N   0  0  0  0  0  0  0  0  0  0  0  0
    3.1901   -0.9020   -0.8169 S   0  0  1  0  0  0  0  0  0  0  0  0
    2.9104    0.5023   -0.5242 O   0  0  0  0  0  0  0  0  0  0  0  0
    2.8242   -1.9681    0.1169 O   0  0  0  0  0  0  0  0  0  0  0  0
    4.9742   -1.0154   -1.1689 C   0  0  0  0  0  0  0  0  0  0  0  0
    5.6706    0.1915   -1.1115 C   0  0  0  0  0  0  0  0  0  0  0  0
    7.0455    0.2170   -1.3670 C   0  0  0  0  0  0  0  0  0  0  0  0
    7.7384    1.5536   -1.3089 C   0  0  0  0  0  0  0  0  0  0  0  0
    7.1457    2.5959   -1.4611 O   0  0  0  0  0  0  0  0  0  0  0  0
    9.1101    1.4740   -1.0493 N   0  0  0  0  0  0  0  0  0  0  0  0
    9.9946    2.5485   -1.0280 C   0  0  0  0  0  0  0  0  0  0  0  0
    9.9618    3.5745   -1.8145 N   0  0  0  0  0  0  0  0  0  0  0  0
   10.9741    4.4497   -1.5226 C   0  0  0  0  0  0  0  0  0  0  0  0
   11.8314    4.1021   -0.5113 C   0  0  0  0  0  0  0  0  0  0  0  0
   13.0525    4.8296   -0.0147 C   0  0  0  0  0  0  0  0  0  0  0  0
   12.9829    5.2696    1.4370 C   0  0  0  0  0  0  0  0  0  0  0  0
   13.6150    4.5156    2.4386 C   0  0  0  0  0  0  0  0  0  0  0  0
   13.5504    4.8787    3.7853 C   0  0  0  0  0  0  0  0  0  0  0  0
   12.8439    6.0240    4.1602 C   0  0  0  0  0  0  0  0  0  0  0  0
   12.2113    6.7997    3.1871 C   0  0  0  0  0  0  0  0  0  0  0  0
   12.2838    6.4206    1.8435 C   0  0  0  0  0  0  0  0  0  0  0  0
   11.4868    7.4364    0.6562 Cl  0  0  0  0  0  0  0  0  0  0  0  0
   11.3007    2.5754    0.1658 S   0  0  0  0  0  0  0  0  0  0  0  0
    7.6859   -0.9786   -1.7147 C   0  0  0  0  0  0  0  0  0  0  0  0
    6.9947   -2.1950   -1.7903 C   0  0  0  0  0  0  0  0  0  0  0  0
    7.7341   -3.4478   -2.1954 C   0  0  0  0  0  0  0  0  0  0  0  0
    5.6097   -2.2345   -1.4973 C   0  0  0  0  0  0  0  0  0  0  0  0
    4.8746   -3.5511   -1.5790 C   0  0  0  0  0  0  0  0  0  0  0  0
    1.6548   -0.5863   -4.0756 H   0  0  0  0  0  0  0  0  0  0  0  0
    3.4339   -0.4116   -3.9341 H   0  0  0  0  0  0  0  0  0  0  0  0
    2.3373    0.6761   -3.0251 H   0  0  0  0  0  0  0  0  0  0  0  0
    2.3647   -2.2547   -2.4313 H   0  0  0  0  0  0  0  0  0  0  0  0
    5.1489    1.1169   -0.8663 H   0  0  0  0  0  0  0  0  0  0  0  0
    9.4574    0.5949   -0.6852 H   0  0  0  0  0  0  0  0  0  0  0  0
   11.0699    5.3701   -2.1021 H   0  0  0  0  0  0  0  0  0  0  0  0
   13.1926    5.7077   -0.6628 H   0  0  0  0  0  0  0  0  0  0  0  0
   13.9430    4.1917   -0.1431 H   0  0  0  0  0  0  0  0  0  0  0  0
   14.1736    3.6214    2.1471 H   0  0  0  0  0  0  0  0  0  0  0  0
   14.0539    4.2692    4.5393 H   0  0  0  0  0  0  0  0  0  0  0  0
   12.7855    6.3210    5.2102 H   0  0  0  0  0  0  0  0  0  0  0  0
   11.6599    7.7017    3.4577 H   0  0  0  0  0  0  0  0  0  0  0  0
    8.7481   -0.9732   -1.9741 H   0  0  0  0  0  0  0  0  0  0  0  0
    8.7842   -3.2277   -2.4348 H   0  0  0  0  0  0  0  0  0  0  0  0
    7.2806   -3.9224   -3.0812 H   0  0  0  0  0  0  0  0  0  0  0  0
    7.7258   -4.2046   -1.3930 H   0  0  0  0  0  0  0  0  0  0  0  0
    5.4765   -4.3633   -1.1458 H   0  0  0  0  0  0  0  0  0  0  0  0
    4.6873   -3.8312   -2.6316 H   0  0  0  0  0  0  0  0  0  0  0  0
    3.9237   -3.5255   -1.0363 H   0  0  0  0  0  0  0  0  0  0  0  0
  1  2  1  0
  1 30  1  0
  1 31  1  0
  1 32  1  0
  3  2  1  6
  2 33  1  0
  3  4  2  0
  3  5  2  0
  3  6  1  0
  6  7  2  0
  6 28  1  0
  7  8  1  0
  7 34  1  0
  8  9  1  0
  8 25  2  0
  9 10  2  0
  9 11  1  0
 11 12  1  0
 11 35  1  0
 12 13  2  0
 12 24  1  0
 13 14  1  0
 14 15  2  0
 14 36  1  0
 15 16  1  0
 15 24  1  0
 16 17  1  0
 16 37  1  0
 16 38  1  0
 17 18  2  0
 17 22  1  0
 18 19  1  0
 18 39  1  0
 19 20  2  0
 19 40  1  0
 20 21  1  0
 20 41  1  0
 21 22  2  0
 21 42  1  0
 22 23  1  0
 25 26  1  0
 25 43  1  0
 26 27  1  0
 26 28  2  0
 27 44  1  0
 27 45  1  0
 27 46  1  0
 28 29  1  0
 29 47  1  0
 29 48  1  0
 29 49  1  0
M  END

