
     RDKit          3D

 67 69  0  0  0  0  0  0  0  0999 V2000
    6.2493    1.1304    1.9283 C   0  0  0  0  0  0  0  0  0  0  0  0
    5.7893   -0.2947    2.2385 C   0  0  0  0  0  0  0  0  0  0  0  0
    5.2164   -1.0285    1.0225 C   0  0  0  0  0  0  0  0  0  0  0  0
    4.7641   -2.4589    1.3317 C   0  0  0  0  0  0  0  0  0  0  0  0
    4.2206   -3.1968    0.1194 C   0  0  1  0  0  0  0  0  0  0  0  0
    3.3460   -2.6514   -0.2880 H   0  0  0  0  0  0  0  0  0  0  0  0
    5.2417   -3.2788   -0.8846 O   0  0  0  0  0  0  0  0  0  0  0  0
    4.9832   -4.3356   -1.7646 C   0  0  2  0  0  0  0  0  0  0  0  0
    5.9425   -4.8307   -1.9807 H   0  0  0  0  0  0  0  0  0  0  0  0
    4.4022   -3.9176   -2.9775 O   0  0  0  0  0  0  0  0  0  0  0  0
    3.0699   -4.4131   -3.1088 C   0  0  1  0  0  0  0  0  0  0  0  0
    2.1460   -3.2410   -3.4473 C   0  0  0  0  0  0  0  0  0  0  0  0
    0.6572   -3.5846   -3.5438 C   0  0  0  0  0  0  0  0  0  0  0  0
   -0.2208   -2.3489   -3.7508 C   0  0  0  0  0  0  0  0  0  0  0  0
    3.0550   -5.5731   -4.1195 C   0  0  0  0  0  0  0  0  0  0  0  0
    3.4944   -5.2074   -5.5393 C   0  0  0  0  0  0  0  0  0  0  0  0
    3.6227   -6.4224   -6.4644 C   0  0  0  0  0  0  0  0  0  0  0  0
    4.0509   -6.0608   -7.8873 C   0  0  0  0  0  0  0  0  0  0  0  0
    2.7206   -4.9087   -1.8171 O   0  0  0  0  0  0  0  0  0  0  0  0
    3.8967   -5.2175   -1.0976 C   0  0  2  0  0  0  0  0  0  0  0  0
    4.1238   -6.2967   -1.0990 H   0  0  0  0  0  0  0  0  0  0  0  0
    3.7992   -4.6675    0.3296 C   0  0  1  0  0  0  0  0  0  0  0  0
    2.7650   -4.7544    0.7035 H   0  0  0  0  0  0  0  0  0  0  0  0
    4.7059   -5.3812    1.1434 O   0  0  0  0  0  0  0  0  0  0  0  0
    4.2411   -5.7257    2.4298 C   0  0  0  0  0  0  0  0  0  0  0  0
    5.3095   -6.4704    3.1908 C   0  0  0  0  0  0  0  0  0  0  0  0
    6.5626   -6.7506    2.6460 C   0  0  0  0  0  0  0  0  0  0  0  0
    7.5304   -7.4464    3.3830 C   0  0  0  0  0  0  0  0  0  0  0  0
    7.2386   -7.8660    4.6791 C   0  0  0  0  0  0  0  0  0  0  0  0
    5.9867   -7.5963    5.2482 C   0  0  0  0  0  0  0  0  0  0  0  0
    5.0251   -6.9002    4.5064 C   0  0  0  0  0  0  0  0  0  0  0  0
    3.7792   -6.5856    4.9622 O   0  0  0  0  0  0  0  0  0  0  0  0
    3.3995   -6.9693    6.2642 C   0  0  0  0  0  0  0  0  0  0  0  0
    6.6607    1.6280    2.8212 H   0  0  0  0  0  0  0  0  0  0  0  0
    5.4151    1.7494    1.5571 H   0  0  0  0  0  0  0  0  0  0  0  0
    7.0327    1.1369    1.1520 H   0  0  0  0  0  0  0  0  0  0  0  0
    5.0312   -0.2711    3.0432 H   0  0  0  0  0  0  0  0  0  0  0  0
    6.6369   -0.8762    2.6446 H   0  0  0  0  0  0  0  0  0  0  0  0
    5.9703   -1.0631    0.2185 H   0  0  0  0  0  0  0  0  0  0  0  0
    4.3636   -0.4534    0.6153 H   0  0  0  0  0  0  0  0  0  0  0  0
    3.9770   -2.4408    2.1070 H   0  0  0  0  0  0  0  0  0  0  0  0
    5.6055   -3.0425    1.7394 H   0  0  0  0  0  0  0  0  0  0  0  0
    2.4989   -2.7876   -4.3881 H   0  0  0  0  0  0  0  0  0  0  0  0
    2.3067   -2.4840   -2.6622 H   0  0  0  0  0  0  0  0  0  0  0  0
    0.3529   -4.1099   -2.6231 H   0  0  0  0  0  0  0  0  0  0  0  0
    0.4865   -4.2931   -4.3729 H   0  0  0  0  0  0  0  0  0  0  0  0
   -0.1115   -1.6353   -2.9170 H   0  0  0  0  0  0  0  0  0  0  0  0
   -1.2866   -2.6188   -3.8204 H   0  0  0  0  0  0  0  0  0  0  0  0
    0.0485   -1.8140   -4.6772 H   0  0  0  0  0  0  0  0  0  0  0  0
    2.0436   -6.0123   -4.1279 H   0  0  0  0  0  0  0  0  0  0  0  0
    3.7249   -6.3550   -3.7211 H   0  0  0  0  0  0  0  0  0  0  0  0
    4.4612   -4.6780   -5.4864 H   0  0  0  0  0  0  0  0  0  0  0  0
    2.7774   -4.4942   -5.9840 H   0  0  0  0  0  0  0  0  0  0  0  0
    2.6585   -6.9624   -6.4946 H   0  0  0  0  0  0  0  0  0  0  0  0
    4.3492   -7.1333   -6.0301 H   0  0  0  0  0  0  0  0  0  0  0  0
    3.3229   -5.3841   -8.3657 H   0  0  0  0  0  0  0  0  0  0  0  0
    4.1405   -6.9556   -8.5237 H   0  0  0  0  0  0  0  0  0  0  0  0
    5.0276   -5.5484   -7.8927 H   0  0  0  0  0  0  0  0  0  0  0  0
    3.3298   -6.3544    2.3597 H   0  0  0  0  0  0  0  0  0  0  0  0
    3.9442   -4.8259    3.0035 H   0  0  0  0  0  0  0  0  0  0  0  0
    6.7705   -6.4120    1.6305 H   0  0  0  0  0  0  0  0  0  0  0  0
    8.5071   -7.6563    2.9408 H   0  0  0  0  0  0  0  0  0  0  0  0
    7.9847   -8.4096    5.2645 H   0  0  0  0  0  0  0  0  0  0  0  0
    5.7736   -7.9309    6.2636 H   0  0  0  0  0  0  0  0  0  0  0  0
    2.3711   -6.6119    6.4096 H   0  0  0  0  0  0  0  0  0  0  0  0
    4.0488   -6.5129    7.0330 H   0  0  0  0  0  0  0  0  0  0  0  0
    3.4183   -8.0668    6.3909 H   0  0  0  0  0  0  0  0  0  0  0  0
  1  2  1  0
  1 34  1  0
  1 35  1  0
  1 36  1  0
  2  3  1  0
  2 37  1  0
  2 38  1  0
  3  4  1  0
  3 39  1  0
  3 40  1  0
  4  5  1  0
  4 41  1  0
  4 42  1  0
  5  6  1  6
  5  7  1  0
  5 22  1  0
  7  8  1  0
  8  9  1  6
  8 10  1  0
  8 20  1  0
 10 11  1  0
 11 12  1  6
 11 15  1  0
 11 19  1  0
 12 13  1  0
 12 43  1  0
 12 44  1  0
 13 14  1  0
 13 45  1  0
 13 46  1  0
 14 47  1  0
 14 48  1  0
 14 49  1  0
 15 16  1  0
 15 50  1  0
 15 51  1  0
 16 17  1  0
 16 52  1  0
 16 53  1  0
 17 18  1  0
 17 54  1  0
 17 55  1  0
 18 56  1  0
 18 57  1  0
 18 58  1  0
 19 20  1  0
 20 21  1  1
 20 22  1  0
 22 23  1  1
 22 24  1  0
 24 25  1  0
 25 26  1  0
 25 59  1  0
 25 60  1  0
 26 27  2  0
 26 31  1  0
 27 28  1  0
 27 61  1  0
 28 29  2  0
 28 62  1  0
 29 30  1  0
 29 63  1  0
 30 31  2  0
 30 64  1  0
 31 32  1  0
 32 33  1  0
 33 65  1  0
 33 66  1  0
 33 67  1  0
M  END

