
     RDKit          3D

 47 48  0  0  0  0  0  0  0  0999 V2000
    0.0254    8.2567    7.4782 C   0  0  0  0  0  0  0  0  0  0  0  0
    1.1087    7.6017    8.0990 O   0  0  0  0  0  0  0  0  0  0  0  0
    2.0449    7.0054    7.3258 C   0  0  0  0  0  0  0  0  0  0  0  0
    2.0395    6.9751    5.9354 C   0  0  0  0  0  0  0  0  0  0  0  0
    3.0665    6.3269    5.2046 C   0  0  0  0  0  0  0  0  0  0  0  0
    3.0862    6.2813    3.7485 C   0  0  0  0  0  0  0  0  0  0  0  0
    2.1828    6.7946    2.8811 C   0  0  0  0  0  0  0  0  0  0  0  0
    2.3707    6.6535    1.4208 C   0  0  0  0  0  0  0  0  0  0  0  0
    3.3450    6.1248    0.9139 O   0  0  0  0  0  0  0  0  0  0  0  0
    1.2513    7.2393    0.5472 C   0  0  0  0  0  0  0  0  0  0  0  0
    1.2170    8.7657    0.6546 C   0  0  0  0  0  0  0  0  0  0  0  0
    0.4165    9.3212    1.3903 O   0  0  0  0  0  0  0  0  0  0  0  0
    2.2265    9.4941   -0.1446 C   0  0  0  0  0  0  0  0  0  0  0  0
    2.2742   10.8466   -0.1291 C   0  0  0  0  0  0  0  0  0  0  0  0
    3.1903   11.7300   -0.8402 C   0  0  0  0  0  0  0  0  0  0  0  0
    4.2230   11.2639   -1.6717 C   0  0  0  0  0  0  0  0  0  0  0  0
    5.0651   12.1647   -2.3219 C   0  0  0  0  0  0  0  0  0  0  0  0
    4.9079   13.5457   -2.1673 C   0  0  0  0  0  0  0  0  0  0  0  0
    5.6987   14.4565   -2.7768 O   0  0  0  0  0  0  0  0  0  0  0  0
    3.8711   14.0382   -1.3315 C   0  0  0  0  0  0  0  0  0  0  0  0
    3.7866   15.3858   -1.2351 O   0  0  0  0  0  0  0  0  0  0  0  0
    2.7827   15.9519   -0.4244 C   0  0  0  0  0  0  0  0  0  0  0  0
    3.0352   13.1291   -0.6855 C   0  0  0  0  0  0  0  0  0  0  0  0
    4.1030    5.7080    5.9204 C   0  0  0  0  0  0  0  0  0  0  0  0
    4.1182    5.7308    7.3173 C   0  0  0  0  0  0  0  0  0  0  0  0
    3.1054    6.3695    8.0331 C   0  0  0  0  0  0  0  0  0  0  0  0
    3.0657    6.4253    9.3825 O   0  0  0  0  0  0  0  0  0  0  0  0
   -0.5981    8.6622    8.2860 H   0  0  0  0  0  0  0  0  0  0  0  0
   -0.5819    7.5611    6.8711 H   0  0  0  0  0  0  0  0  0  0  0  0
    0.3626    9.0879    6.8330 H   0  0  0  0  0  0  0  0  0  0  0  0
    1.2309    7.4619    5.3923 H   0  0  0  0  0  0  0  0  0  0  0  0
    3.9400    5.7644    3.2949 H   0  0  0  0  0  0  0  0  0  0  0  0
    1.2941    7.3354    3.2170 H   0  0  0  0  0  0  0  0  0  0  0  0
    0.2767    6.8648    0.8935 H   0  0  0  0  0  0  0  0  0  0  0  0
    1.4404    6.9180   -0.4862 H   0  0  0  0  0  0  0  0  0  0  0  0
    2.9263    8.8955   -0.7340 H   0  0  0  0  0  0  0  0  0  0  0  0
    1.5216   11.3354    0.5010 H   0  0  0  0  0  0  0  0  0  0  0  0
    4.3772   10.1932   -1.8143 H   0  0  0  0  0  0  0  0  0  0  0  0
    5.8682   11.7945   -2.9673 H   0  0  0  0  0  0  0  0  0  0  0  0
    6.3603   13.9972   -3.3109 H   0  0  0  0  0  0  0  0  0  0  0  0
    2.9012   17.0413   -0.4958 H   0  0  0  0  0  0  0  0  0  0  0  0
    2.8881   15.6488    0.6333 H   0  0  0  0  0  0  0  0  0  0  0  0
    1.7698   15.6783   -0.7722 H   0  0  0  0  0  0  0  0  0  0  0  0
    2.2349   13.4918   -0.0400 H   0  0  0  0  0  0  0  0  0  0  0  0
    4.9062    5.2029    5.3790 H   0  0  0  0  0  0  0  0  0  0  0  0
    4.9307    5.2448    7.8668 H   0  0  0  0  0  0  0  0  0  0  0  0
    3.8338    5.9619    9.7426 H   0  0  0  0  0  0  0  0  0  0  0  0
  1  2  1  0
  1 28  1  0
  1 29  1  0
  1 30  1  0
  2  3  1  0
  3  4  2  0
  3 26  1  0
  4  5  1  0
  4 31  1  0
  5  6  1  0
  5 24  2  0
  6  7  2  0
  6 32  1  0
  7  8  1  0
  7 33  1  0
  8  9  2  0
  8 10  1  0
 10 11  1  0
 10 34  1  0
 10 35  1  0
 11 12  2  0
 11 13  1  0
 13 14  2  0
 13 36  1  0
 14 15  1  0
 14 37  1  0
 15 16  2  0
 15 23  1  0
 16 17  1  0
 16 38  1  0
 17 18  2  0
 17 39  1  0
 18 19  1  0
 18 20  1  0
 19 40  1  0
 20 21  1  0
 20 23  2  0
 21 22  1  0
 22 41  1  0
 22 42  1  0
 22 43  1  0
 23 44  1  0
 24 25  1  0
 24 45  1  0
 25 26  2  0
 25 46  1  0
 26 27  1  0
 27 47  1  0
M  END

