
     RDKit          3D

 41 42  0  0  0  0  0  0  0  0999 V2000
    1.9620    0.3406   -0.3870 N   0  0  0  0  0  0  0  0  0  0  0  0
    3.3178   -0.0582   -0.7530 C   0  0  0  0  0  0  0  0  0  0  0  0
    3.6397   -1.4704   -0.3035 C   0  0  0  0  0  0  0  0  0  0  0  0
    2.6611   -2.4727   -0.2877 C   0  0  0  0  0  0  0  0  0  0  0  0
    2.9599   -3.7863    0.0811 C   0  0  0  0  0  0  0  0  0  0  0  0
    4.2694   -4.1476    0.4617 C   0  0  0  0  0  0  0  0  0  0  0  0
    4.6032   -5.4311    0.8695 N   0  0  0  0  0  0  0  0  0  0  0  0
    3.7317   -6.5737    0.6917 C   0  0  0  0  0  0  0  0  0  0  0  0
    4.3533   -7.8523    1.2605 C   0  0  0  0  0  0  0  0  0  0  0  0
    4.6529   -7.8364    2.7752 C   0  0  1  0  0  0  0  0  0  0  0  0
    3.3893   -7.7330    3.6579 C   0  0  0  0  0  0  0  0  0  0  0  0
    2.5659   -9.0293    3.6906 C   0  0  0  0  0  0  0  0  0  0  0  0
    3.4228  -10.2293    4.1163 C   0  0  0  0  0  0  0  0  0  0  0  0
    4.6740  -10.3675    3.2386 C   0  0  0  0  0  0  0  0  0  0  0  0
    5.4853   -9.0634    3.2081 C   0  0  0  0  0  0  0  0  0  0  0  0
    5.2568   -3.1373    0.4464 C   0  0  0  0  0  0  0  0  0  0  0  0
    4.9422   -1.8335    0.0750 C   0  0  0  0  0  0  0  0  0  0  0  0
    1.7482    1.2663   -0.7571 H   0  0  0  0  0  0  0  0  0  0  0  0
    1.8728    0.3994    0.6283 H   0  0  0  0  0  0  0  0  0  0  0  0
    4.1142    0.6178   -0.3723 H   0  0  0  0  0  0  0  0  0  0  0  0
    3.3865   -0.0024   -1.8564 H   0  0  0  0  0  0  0  0  0  0  0  0
    1.6395   -2.2070   -0.5692 H   0  0  0  0  0  0  0  0  0  0  0  0
    2.1643   -4.5326    0.0717 H   0  0  0  0  0  0  0  0  0  0  0  0
    5.5946   -5.6406    0.8309 H   0  0  0  0  0  0  0  0  0  0  0  0
    3.4844   -6.7398   -0.3788 H   0  0  0  0  0  0  0  0  0  0  0  0
    2.7700   -6.3728    1.1941 H   0  0  0  0  0  0  0  0  0  0  0  0
    5.2970   -8.0526    0.7183 H   0  0  0  0  0  0  0  0  0  0  0  0
    3.6861   -8.6904    1.0015 H   0  0  0  0  0  0  0  0  0  0  0  0
    5.2604   -6.9357    2.9673 H   0  0  0  0  0  0  0  0  0  0  0  0
    2.7614   -6.8850    3.3388 H   0  0  0  0  0  0  0  0  0  0  0  0
    3.7107   -7.4944    4.6879 H   0  0  0  0  0  0  0  0  0  0  0  0
    2.1304   -9.2266    2.6941 H   0  0  0  0  0  0  0  0  0  0  0  0
    1.7090   -8.9100    4.3751 H   0  0  0  0  0  0  0  0  0  0  0  0
    2.8278  -11.1579    4.0877 H   0  0  0  0  0  0  0  0  0  0  0  0
    3.7344  -10.0934    5.1690 H   0  0  0  0  0  0  0  0  0  0  0  0
    4.3726  -10.6481    2.2132 H   0  0  0  0  0  0  0  0  0  0  0  0
    5.3076  -11.1936    3.6038 H   0  0  0  0  0  0  0  0  0  0  0  0
    6.3640   -9.1753    2.5491 H   0  0  0  0  0  0  0  0  0  0  0  0
    5.8837   -8.8739    4.2214 H   0  0  0  0  0  0  0  0  0  0  0  0
    6.2798   -3.3856    0.7460 H   0  0  0  0  0  0  0  0  0  0  0  0
    5.7323   -1.0755    0.0827 H   0  0  0  0  0  0  0  0  0  0  0  0
  1  2  1  0
  1 18  1  0
  1 19  1  0
  2  3  1  0
  2 20  1  0
  2 21  1  0
  3  4  2  0
  3 17  1  0
  4  5  1  0
  4 22  1  0
  5  6  2  0
  5 23  1  0
  6  7  1  0
  6 16  1  0
  7  8  1  0
  7 24  1  0
  8  9  1  0
  8 25  1  0
  8 26  1  0
  9 10  1  0
  9 27  1  0
  9 28  1  0
 10 11  1  0
 10 15  1  0
 10 29  1  6
 11 12  1  0
 11 30  1  0
 11 31  1  0
 12 13  1  0
 12 32  1  0
 12 33  1  0
 13 14  1  0
 13 34  1  0
 13 35  1  0
 14 15  1  0
 14 36  1  0
 14 37  1  0
 15 38  1  0
 15 39  1  0
 16 17  2  0
 16 40  1  0
 17 41  1  0
M  END

