
     RDKit          3D

 32 34  0  0  0  0  0  0  0  0999 V2000
    1.0158    0.3070    0.6425 O   0  0  0  0  0  0  0  0  0  0  0  0
    2.3517    0.1986    0.4256 C   0  0  0  0  0  0  0  0  0  0  0  0
    2.9687   -1.0747    0.5044 C   0  0  0  0  0  0  0  0  0  0  0  0
    4.3185   -1.2049    0.2881 C   0  0  0  0  0  0  0  0  0  0  0  0
    5.1230   -0.0742   -0.0202 C   0  0  0  0  0  0  0  0  0  0  0  0
    6.5189   -0.2204   -0.2462 C   0  0  0  0  0  0  0  0  0  0  0  0
    7.3056    0.8705   -0.5485 C   0  0  0  0  0  0  0  0  0  0  0  0
    6.7111    2.1502   -0.6343 C   0  0  0  0  0  0  0  0  0  0  0  0
    5.3566    2.3269   -0.4193 C   0  0  0  0  0  0  0  0  0  0  0  0
    4.5122    1.2249   -0.1043 C   0  0  0  0  0  0  0  0  0  0  0  0
    3.0887    1.3576    0.1275 C   0  0  0  0  0  0  0  0  0  0  0  0
    2.3289    2.6092    0.0739 C   0  0  0  0  0  0  0  0  0  0  0  0
    2.8129    3.7833   -0.1218 N   0  0  0  0  0  0  0  0  0  0  0  0
    1.9648    4.8909   -0.2166 C   0  0  0  0  0  0  0  0  0  0  0  0
    2.3960    6.1110    0.3406 C   0  0  0  0  0  0  0  0  0  0  0  0
    1.6012    7.2540    0.2748 C   0  0  0  0  0  0  0  0  0  0  0  0
    0.3657    7.1987   -0.3811 C   0  0  0  0  0  0  0  0  0  0  0  0
   -0.8424    8.9452   -0.5070 I   0  0  0  0  0  0  0  0  0  0  0  0
   -0.0715    6.0084   -0.9688 C   0  0  0  0  0  0  0  0  0  0  0  0
    0.7232    4.8633   -0.8841 C   0  0  0  0  0  0  0  0  0  0  0  0
    0.6489   -0.5633    0.8439 H   0  0  0  0  0  0  0  0  0  0  0  0
    2.3551   -1.9500    0.7409 H   0  0  0  0  0  0  0  0  0  0  0  0
    4.7896   -2.1894    0.3515 H   0  0  0  0  0  0  0  0  0  0  0  0
    6.9575   -1.2197   -0.1753 H   0  0  0  0  0  0  0  0  0  0  0  0
    8.3779    0.7494   -0.7213 H   0  0  0  0  0  0  0  0  0  0  0  0
    7.3313    3.0179   -0.8750 H   0  0  0  0  0  0  0  0  0  0  0  0
    4.9081    3.3156   -0.4826 H   0  0  0  0  0  0  0  0  0  0  0  0
    1.2470    2.4798    0.2422 H   0  0  0  0  0  0  0  0  0  0  0  0
    3.3666    6.1414    0.8402 H   0  0  0  0  0  0  0  0  0  0  0  0
    1.9486    8.1851    0.7263 H   0  0  0  0  0  0  0  0  0  0  0  0
   -1.0245    5.9689   -1.4998 H   0  0  0  0  0  0  0  0  0  0  0  0
    0.3896    3.9438   -1.3704 H   0  0  0  0  0  0  0  0  0  0  0  0
  1  2  1  0
  1 21  1  0
  2  3  2  0
  2 11  1  0
  3  4  1  0
  3 22  1  0
  4  5  2  0
  4 23  1  0
  5  6  1  0
  5 10  1  0
  6  7  2  0
  6 24  1  0
  7  8  1  0
  7 25  1  0
  8  9  2  0
  8 26  1  0
  9 10  1  0
  9 27  1  0
 10 11  2  0
 11 12  1  0
 12 13  2  0
 12 28  1  0
 13 14  1  0
 14 15  2  0
 14 20  1  0
 15 16  1  0
 15 29  1  0
 16 17  2  0
 16 30  1  0
 17 18  1  0
 17 19  1  0
 19 20  2  0
 19 31  1  0
 20 32  1  0
M  END

