
     RDKit          3D

 60 60  0  0  0  0  0  0  0  0999 V2000
    3.8795    2.9379   -0.9985 C   0  0  0  0  0  0  0  0  0  0  0  0
    3.9885    1.4450   -0.6618 C   0  0  1  0  0  0  0  0  0  0  0  0
    4.6595    0.6788   -1.8098 C   0  0  0  0  0  0  0  0  0  0  0  0
    4.7049    1.2431    0.6879 C   0  0  0  0  0  0  0  0  0  0  0  0
    4.7209   -0.1921    1.2252 C   0  0  0  0  0  0  0  0  0  0  0  0
    5.3384   -0.3167    2.6157 C   0  0  1  0  0  0  0  0  0  0  0  0
    4.5409    0.2532    3.8236 C   0  0  0  0  0  0  0  0  0  0  0  0
    4.6763   -1.1096    4.5684 C   0  0  2  0  0  0  0  0  0  0  0  0
    5.5397   -1.1142    5.8408 C   0  0  1  0  0  0  0  0  0  0  0  0
    4.9050   -0.2397    6.9316 C   0  0  0  0  0  0  0  0  0  0  0  0
    5.7887   -2.5564    6.3291 C   0  0  0  0  0  0  0  0  0  0  0  0
    6.8585   -2.6943    7.4195 C   0  0  0  0  0  0  0  0  0  0  0  0
    7.0810   -4.1282    7.9451 C   0  0  1  0  0  0  0  0  0  0  0  0
    7.6357   -5.0663    6.8639 C   0  0  0  0  0  0  0  0  0  0  0  0
    8.0013   -4.1468    9.1823 C   0  0  0  0  0  0  0  0  0  0  0  0
    7.4078   -3.4926   10.4354 C   0  0  0  0  0  0  0  0  0  0  0  0
    8.2810   -3.6041   11.5896 N   0  0  0  0  0  0  0  0  0  0  0  0
    8.7960   -2.5299   12.2367 C   0  0  0  0  0  0  0  0  0  0  0  0
    8.5573   -1.3678   11.9539 O   0  0  0  0  0  0  0  0  0  0  0  0
    9.7906   -2.8140   13.3772 C   0  0  0  0  0  0  0  0  0  0  0  0
    9.7983   -4.5070   14.1076 S   0  0  0  0  0  0  0  0  0  0  0  0
   11.7061   -5.2528   13.6521 S   0  0  0  0  0  0  0  0  0  0  0  0
    5.3174   -1.7188    3.2850 C   0  0  0  0  0  0  0  0  0  0  0  0
    3.3266    3.1004   -1.9382 H   0  0  0  0  0  0  0  0  0  0  0  0
    4.8797    3.3889   -1.1201 H   0  0  0  0  0  0  0  0  0  0  0  0
    3.3595    3.4951   -0.2021 H   0  0  0  0  0  0  0  0  0  0  0  0
    2.9596    1.0509   -0.5514 H   0  0  0  0  0  0  0  0  0  0  0  0
    5.7031    1.0120   -1.9482 H   0  0  0  0  0  0  0  0  0  0  0  0
    4.1296    0.8471   -2.7616 H   0  0  0  0  0  0  0  0  0  0  0  0
    4.6772   -0.4076   -1.6318 H   0  0  0  0  0  0  0  0  0  0  0  0
    4.2216    1.8950    1.4379 H   0  0  0  0  0  0  0  0  0  0  0  0
    5.7454    1.6107    0.5996 H   0  0  0  0  0  0  0  0  0  0  0  0
    5.2752   -0.8516    0.5337 H   0  0  0  0  0  0  0  0  0  0  0  0
    3.6863   -0.5849    1.2553 H   0  0  0  0  0  0  0  0  0  0  0  0
    6.3621    0.0947    2.5879 H   0  0  0  0  0  0  0  0  0  0  0  0
    3.5007    0.5161    3.5727 H   0  0  0  0  0  0  0  0  0  0  0  0
    4.9945    1.1198    4.3297 H   0  0  0  0  0  0  0  0  0  0  0  0
    3.6997   -1.5615    4.8154 H   0  0  0  0  0  0  0  0  0  0  0  0
    6.5217   -0.6735    5.5760 H   0  0  0  0  0  0  0  0  0  0  0  0
    3.9347   -0.6581    7.2511 H   0  0  0  0  0  0  0  0  0  0  0  0
    4.7215    0.7855    6.5745 H   0  0  0  0  0  0  0  0  0  0  0  0
    5.5442   -0.1609    7.8243 H   0  0  0  0  0  0  0  0  0  0  0  0
    6.0709   -3.1770    5.4634 H   0  0  0  0  0  0  0  0  0  0  0  0
    4.8323   -2.9729    6.6995 H   0  0  0  0  0  0  0  0  0  0  0  0
    6.5890   -2.0442    8.2667 H   0  0  0  0  0  0  0  0  0  0  0  0
    7.8219   -2.3047    7.0387 H   0  0  0  0  0  0  0  0  0  0  0  0
    6.0955   -4.5248    8.2597 H   0  0  0  0  0  0  0  0  0  0  0  0
    8.6199   -4.7161    6.5073 H   0  0  0  0  0  0  0  0  0  0  0  0
    6.9694   -5.1329    5.9908 H   0  0  0  0  0  0  0  0  0  0  0  0
    7.7686   -6.0883    7.2543 H   0  0  0  0  0  0  0  0  0  0  0  0
    8.9606   -3.6552    8.9393 H   0  0  0  0  0  0  0  0  0  0  0  0
    8.2488   -5.1973    9.4219 H   0  0  0  0  0  0  0  0  0  0  0  0
    6.4269   -3.9508   10.6633 H   0  0  0  0  0  0  0  0  0  0  0  0
    7.2397   -2.4166   10.2902 H   0  0  0  0  0  0  0  0  0  0  0  0
    8.5657   -4.5243   11.9138 H   0  0  0  0  0  0  0  0  0  0  0  0
    9.5911   -2.0739   14.1656 H   0  0  0  0  0  0  0  0  0  0  0  0
   10.8026   -2.6186   12.9921 H   0  0  0  0  0  0  0  0  0  0  0  0
   12.3511   -4.8133   14.7642 H   0  0  0  0  0  0  0  0  0  0  0  0
    4.6666   -2.4390    2.7644 H   0  0  0  0  0  0  0  0  0  0  0  0
    6.3028   -2.1921    3.4227 H   0  0  0  0  0  0  0  0  0  0  0  0
  1  2  1  0
  1 24  1  0
  1 25  1  0
  1 26  1  0
  2  3  1  0
  2  4  1  0
  2 27  1  1
  3 28  1  0
  3 29  1  0
  3 30  1  0
  4  5  1  0
  4 31  1  0
  4 32  1  0
  5  6  1  0
  5 33  1  0
  5 34  1  0
  6  7  1  0
  6 23  1  0
  6 35  1  6
  7  8  1  0
  7 36  1  0
  7 37  1  0
  8  9  1  0
  8 23  1  0
  8 38  1  1
  9 10  1  0
  9 11  1  0
  9 39  1  6
 10 40  1  0
 10 41  1  0
 10 42  1  0
 11 12  1  0
 11 43  1  0
 11 44  1  0
 12 13  1  0
 12 45  1  0
 12 46  1  0
 13 14  1  0
 13 15  1  0
 13 47  1  1
 14 48  1  0
 14 49  1  0
 14 50  1  0
 15 16  1  0
 15 51  1  0
 15 52  1  0
 16 17  1  0
 16 53  1  0
 16 54  1  0
 17 18  1  0
 17 55  1  0
 18 19  2  0
 18 20  1  0
 20 21  1  0
 20 56  1  0
 20 57  1  0
 21 22  1  0
 22 58  1  0
 23 59  1  0
 23 60  1  0
M  END

