
     RDKit          3D

 66 71  0  0  0  0  0  0  0  0999 V2000
   -0.4316    2.6585    1.6440 C   0  0  0  0  0  0  0  0  0  0  0  0
    0.6766    2.4110    2.4816 O   0  0  0  0  0  0  0  0  0  0  0  0
    1.8844    2.1509    1.9272 C   0  0  0  0  0  0  0  0  0  0  0  0
    2.1202    2.1002    0.5517 C   0  0  0  0  0  0  0  0  0  0  0  0
    3.4156    1.8206    0.0755 C   0  0  0  0  0  0  0  0  0  0  0  0
    3.5421    1.7940   -1.2738 O   0  0  0  0  0  0  0  0  0  0  0  0
    4.8026    1.5215   -1.8476 C   0  0  0  0  0  0  0  0  0  0  0  0
    4.4681    1.5941    0.9704 C   0  0  0  0  0  0  0  0  0  0  0  0
    4.2160    1.6441    2.3554 C   0  0  0  0  0  0  0  0  0  0  0  0
    5.3412    1.4085    3.3141 C   0  0  0  0  0  0  0  0  0  0  0  0
    6.2046    2.4802    3.6316 C   0  0  0  0  0  0  0  0  0  0  0  0
    6.2079    3.8565    3.2238 C   0  0  0  0  0  0  0  0  0  0  0  0
    5.2422    4.5798    2.3380 C   0  0  0  0  0  0  0  0  0  0  0  0
    7.3295    4.4141    3.8502 C   0  0  0  0  0  0  0  0  0  0  0  0
    7.9791    6.4119    3.6964 I   0  0  0  0  0  0  0  0  0  0  0  0
    7.9805    3.4188    4.6198 C   0  0  0  0  0  0  0  0  0  0  0  0
    9.1957    3.5322    5.4762 C   0  0  0  0  0  0  0  0  0  0  0  0
    7.2903    2.2693    4.4766 N   0  0  0  0  0  0  0  0  0  0  0  0
    7.6130    0.9502    5.2375 B   0  0  1  0  0  0  0  0  0  0  0  0
    8.8986    0.5259    4.9337 F   0  0  0  0  0  0  0  0  0  0  0  0
    7.4939    1.2039    6.6114 F   0  0  0  0  0  0  0  0  0  0  0  0
    6.5681   -0.1222    4.7835 N   0  0  0  0  0  0  0  0  0  0  0  0
    6.5625   -1.4446    5.1089 C   0  0  0  0  0  0  0  0  0  0  0  0
    7.4265   -2.1604    6.0109 C   0  0  0  0  0  0  0  0  0  0  0  0
    8.2449   -1.6739    6.9854 C   0  0  0  0  0  0  0  0  0  0  0  0
    9.0857   -2.4625    7.8520 C   0  0  0  0  0  0  0  0  0  0  0  0
    9.3115   -3.8356    7.8406 C   0  0  0  0  0  0  0  0  0  0  0  0
   10.1833   -4.1742    8.8397 N   0  0  0  0  0  0  0  0  0  0  0  0
   10.5079   -5.1130    9.0310 H   0  0  0  0  0  0  0  0  0  0  0  0
   10.5612   -3.0415    9.5394 C   0  0  0  0  0  0  0  0  0  0  0  0
   11.4264   -2.8942   10.6310 C   0  0  0  0  0  0  0  0  0  0  0  0
   11.6145   -1.6071   11.1287 C   0  0  0  0  0  0  0  0  0  0  0  0
   10.9574   -0.4981   10.5528 C   0  0  0  0  0  0  0  0  0  0  0  0
   10.0982   -0.6513    9.4681 C   0  0  0  0  0  0  0  0  0  0  0  0
    9.8895   -1.9400    8.9445 C   0  0  0  0  0  0  0  0  0  0  0  0
    5.5036   -2.0616    4.3624 C   0  0  0  0  0  0  0  0  0  0  0  0
    4.9951   -4.1055    4.4678 I   0  0  0  0  0  0  0  0  0  0  0  0
    4.8481   -1.1076    3.5986 C   0  0  0  0  0  0  0  0  0  0  0  0
    3.6766   -1.3515    2.6992 C   0  0  0  0  0  0  0  0  0  0  0  0
    5.5410    0.1289    3.8665 C   0  0  0  0  0  0  0  0  0  0  0  0
    2.9385    1.9201    2.8349 C   0  0  0  0  0  0  0  0  0  0  0  0
   -1.2877    2.8445    2.3060 H   0  0  0  0  0  0  0  0  0  0  0  0
   -0.6592    1.7917    0.9980 H   0  0  0  0  0  0  0  0  0  0  0  0
   -0.2725    3.5456    1.0052 H   0  0  0  0  0  0  0  0  0  0  0  0
    1.3373    2.2700   -0.1856 H   0  0  0  0  0  0  0  0  0  0  0  0
    4.6625    1.5518   -2.9363 H   0  0  0  0  0  0  0  0  0  0  0  0
    5.1764    0.5221   -1.5620 H   0  0  0  0  0  0  0  0  0  0  0  0
    5.5560    2.2773   -1.5625 H   0  0  0  0  0  0  0  0  0  0  0  0
    5.4769    1.3789    0.6213 H   0  0  0  0  0  0  0  0  0  0  0  0
    5.3313    4.2592    1.2881 H   0  0  0  0  0  0  0  0  0  0  0  0
    5.4319    5.6614    2.3766 H   0  0  0  0  0  0  0  0  0  0  0  0
    4.1997    4.3990    2.6353 H   0  0  0  0  0  0  0  0  0  0  0  0
    9.6500    4.5258    5.3779 H   0  0  0  0  0  0  0  0  0  0  0  0
    8.9332    3.3594    6.5322 H   0  0  0  0  0  0  0  0  0  0  0  0
    9.9308    2.7606    5.2037 H   0  0  0  0  0  0  0  0  0  0  0  0
    7.3481   -3.2444    5.8946 H   0  0  0  0  0  0  0  0  0  0  0  0
    8.2644   -0.6001    7.1652 H   0  0  0  0  0  0  0  0  0  0  0  0
    8.9094   -4.5979    7.1760 H   0  0  0  0  0  0  0  0  0  0  0  0
   11.9350   -3.7531   11.0760 H   0  0  0  0  0  0  0  0  0  0  0  0
   12.2826   -1.4533   11.9796 H   0  0  0  0  0  0  0  0  0  0  0  0
   11.1287    0.4979   10.9686 H   0  0  0  0  0  0  0  0  0  0  0  0
    9.5954    0.2144    9.0303 H   0  0  0  0  0  0  0  0  0  0  0  0
    3.4704   -2.4281    2.6318 H   0  0  0  0  0  0  0  0  0  0  0  0
    3.8519   -0.9675    1.6846 H   0  0  0  0  0  0  0  0  0  0  0  0
    2.7695   -0.8532    3.0729 H   0  0  0  0  0  0  0  0  0  0  0  0
    2.7292    1.9648    3.9045 H   0  0  0  0  0  0  0  0  0  0  0  0
  1  2  1  0
  1 42  1  0
  1 43  1  0
  1 44  1  0
  2  3  1  0
  3  4  2  0
  3 41  1  0
  4  5  1  0
  4 45  1  0
  5  6  1  0
  5  8  2  0
  6  7  1  0
  7 46  1  0
  7 47  1  0
  7 48  1  0
  8  9  1  0
  8 49  1  0
  9 10  1  0
  9 41  2  0
 10 11  1  0
 10 40  2  0
 11 12  2  0
 11 18  1  0
 12 13  1  0
 12 14  1  0
 13 50  1  0
 13 51  1  0
 13 52  1  0
 14 15  1  0
 14 16  2  0
 16 17  1  0
 16 18  1  0
 17 53  1  0
 17 54  1  0
 17 55  1  0
 18 19  1  0
 19 20  1  1
 19 21  1  0
 19 22  1  0
 22 23  1  0
 22 40  1  0
 23 24  2  0
 23 36  1  0
 24 25  1  0
 24 56  1  0
 25 26  2  0
 25 57  1  0
 26 27  1  0
 26 35  1  0
 27 28  2  0
 27 58  1  0
 28 29  1  0
 28 30  1  0
 30 31  1  0
 30 35  2  0
 31 32  2  0
 31 59  1  0
 32 33  1  0
 32 60  1  0
 33 34  2  0
 33 61  1  0
 34 35  1  0
 34 62  1  0
 36 37  1  0
 36 38  2  0
 38 39  1  0
 38 40  1  0
 39 63  1  0
 39 64  1  0
 39 65  1  0
 41 66  1  0
M  CHG  2  19  -1  28   1
M  END

