
     RDKit          3D

 31 32  0  0  0  0  0  0  0  0999 V2000
    1.0009   -0.3111   -0.0334 C   0  0  0  0  0  0  0  0  0  0  0  0
    2.3354   -0.1142   -0.0324 C   0  0  0  0  0  0  0  0  0  0  0  0
    2.9842    1.1859   -0.0215 C   0  0  0  0  0  0  0  0  0  0  0  0
    4.3317    1.3397   -0.0237 C   0  0  0  0  0  0  0  0  0  0  0  0
    4.9828    2.6934   -0.0124 C   0  0  0  0  0  0  0  0  0  0  0  0
    5.1595    0.1284   -0.0387 C   0  0  0  0  0  0  0  0  0  0  0  0
    6.5659    0.1216   -0.0456 C   0  0  0  0  0  0  0  0  0  0  0  0
    7.2889   -1.0703   -0.0613 C   0  0  0  0  0  0  0  0  0  0  0  0
    6.6300   -2.3131   -0.0709 C   0  0  0  0  0  0  0  0  0  0  0  0
    7.4031   -3.6254   -0.0852 C   0  0  1  0  0  0  0  0  0  0  0  0
    8.2613   -3.7731   -1.3537 C   0  0  0  0  0  0  0  0  0  0  0  0
    8.2507   -3.8041    1.1866 C   0  0  0  0  0  0  0  0  0  0  0  0
    5.2293   -2.3183   -0.0644 C   0  0  0  0  0  0  0  0  0  0  0  0
    4.5087   -1.1222   -0.0482 C   0  0  0  0  0  0  0  0  0  0  0  0
    3.1507   -1.2268   -0.0416 O   0  0  0  0  0  0  0  0  0  0  0  0
    0.3231    0.5425   -0.0249 H   0  0  0  0  0  0  0  0  0  0  0  0
    0.5820   -1.3184   -0.0422 H   0  0  0  0  0  0  0  0  0  0  0  0
    2.3223    2.0551   -0.0119 H   0  0  0  0  0  0  0  0  0  0  0  0
    4.2308    3.4957   -0.0013 H   0  0  0  0  0  0  0  0  0  0  0  0
    5.6236    2.8374   -0.8993 H   0  0  0  0  0  0  0  0  0  0  0  0
    5.6306    2.8195    0.8721 H   0  0  0  0  0  0  0  0  0  0  0  0
    7.1056    1.0708   -0.0384 H   0  0  0  0  0  0  0  0  0  0  0  0
    8.3808   -1.0280   -0.0656 H   0  0  0  0  0  0  0  0  0  0  0  0
    6.6536   -4.4357   -0.0986 H   0  0  0  0  0  0  0  0  0  0  0  0
    9.0476   -3.0013   -1.4013 H   0  0  0  0  0  0  0  0  0  0  0  0
    7.6481   -3.6824   -2.2642 H   0  0  0  0  0  0  0  0  0  0  0  0
    8.7595   -4.7567   -1.3739 H   0  0  0  0  0  0  0  0  0  0  0  0
    9.0370   -3.0342    1.2582 H   0  0  0  0  0  0  0  0  0  0  0  0
    8.7476   -4.7886    1.1882 H   0  0  0  0  0  0  0  0  0  0  0  0
    7.6303   -3.7337    2.0940 H   0  0  0  0  0  0  0  0  0  0  0  0
    4.6692   -3.2562   -0.0716 H   0  0  0  0  0  0  0  0  0  0  0  0
  1  2  2  0
  1 16  1  0
  1 17  1  0
  2  3  1  0
  2 15  1  0
  3  4  2  0
  3 18  1  0
  4  5  1  0
  4  6  1  0
  5 19  1  0
  5 20  1  0
  5 21  1  0
  6  7  1  0
  6 14  2  0
  7  8  2  0
  7 22  1  0
  8  9  1  0
  8 23  1  0
  9 10  1  0
  9 13  2  0
 10 11  1  0
 10 12  1  0
 10 24  1  6
 11 25  1  0
 11 26  1  0
 11 27  1  0
 12 28  1  0
 12 29  1  0
 12 30  1  0
 13 14  1  0
 13 31  1  0
 14 15  1  0
M  END

