
     RDKit          3D

 45 46  0  0  0  0  0  0  0  0999 V2000
    1.5029   -0.4229   -1.2888 O   0  0  0  0  0  0  0  0  0  0  0  0
    1.9367   -0.4197   -0.1593 C   0  0  0  0  0  0  0  0  0  0  0  0
    1.4754   -1.2720    0.8452 N   0  0  0  0  0  0  0  0  0  0  0  0
    0.5431   -2.3156    0.7381 C   0  0  0  0  0  0  0  0  0  0  0  0
   -0.2129   -2.6723    1.8741 C   0  0  0  0  0  0  0  0  0  0  0  0
   -1.1118   -3.7283    1.7744 C   0  0  0  0  0  0  0  0  0  0  0  0
   -1.2397   -4.3801    0.5440 C   0  0  0  0  0  0  0  0  0  0  0  0
   -2.3560   -5.7043    0.3439 Cl  0  0  0  0  0  0  0  0  0  0  0  0
   -0.4496   -3.9507   -0.5276 C   0  0  0  0  0  0  0  0  0  0  0  0
    0.4251   -2.9540   -0.4238 N   0  0  0  0  0  0  0  0  0  0  0  0
    3.0575    0.5142    0.3260 C   0  0  1  0  0  0  0  0  0  0  0  0
    4.4033   -0.2477    0.4545 C   0  0  0  0  0  0  0  0  0  0  0  0
    5.0504   -0.5026   -0.9200 C   0  0  0  0  0  0  0  0  0  0  0  0
    5.2332    0.7113   -1.7097 N   0  0  0  0  0  0  0  0  0  0  0  0
    6.3678    1.5449   -1.3263 C   0  0  0  0  0  0  0  0  0  0  0  0
    7.7146    1.0041   -1.8271 C   0  0  0  0  0  0  0  0  0  0  0  0
    7.8137    0.9148   -3.3517 C   0  0  0  0  0  0  0  0  0  0  0  0
    9.1307    0.3114   -3.8449 C   0  0  0  0  0  0  0  0  0  0  0  0
    9.2101    0.2257   -5.3583 C   0  0  0  0  0  0  0  0  0  0  0  0
   10.4170   -0.3289   -5.7486 F   0  0  0  0  0  0  0  0  0  0  0  0
    3.9589    1.3995   -1.9033 C   0  0  0  0  0  0  0  0  0  0  0  0
    3.2240    1.7411   -0.5919 C   0  0  0  0  0  0  0  0  0  0  0  0
    1.7717   -1.0496    1.7879 H   0  0  0  0  0  0  0  0  0  0  0  0
   -0.1039   -2.1257    2.8142 H   0  0  0  0  0  0  0  0  0  0  0  0
   -1.7151   -4.0384    2.6296 H   0  0  0  0  0  0  0  0  0  0  0  0
   -0.5290   -4.4504   -1.4993 H   0  0  0  0  0  0  0  0  0  0  0  0
    2.7666    0.8635    1.3341 H   0  0  0  0  0  0  0  0  0  0  0  0
    4.2609   -1.2041    0.9854 H   0  0  0  0  0  0  0  0  0  0  0  0
    5.0837    0.3566    1.0784 H   0  0  0  0  0  0  0  0  0  0  0  0
    4.4176   -1.1990   -1.4982 H   0  0  0  0  0  0  0  0  0  0  0  0
    6.0208   -1.0056   -0.7853 H   0  0  0  0  0  0  0  0  0  0  0  0
    6.4405    1.7116   -0.2284 H   0  0  0  0  0  0  0  0  0  0  0  0
    6.2082    2.5428   -1.7688 H   0  0  0  0  0  0  0  0  0  0  0  0
    7.9040    0.0079   -1.3882 H   0  0  0  0  0  0  0  0  0  0  0  0
    8.5152    1.6568   -1.4346 H   0  0  0  0  0  0  0  0  0  0  0  0
    7.6873    1.9269   -3.7805 H   0  0  0  0  0  0  0  0  0  0  0  0
    6.9604    0.3214   -3.7213 H   0  0  0  0  0  0  0  0  0  0  0  0
    9.2621   -0.7044   -3.4320 H   0  0  0  0  0  0  0  0  0  0  0  0
    9.9877    0.9073   -3.4838 H   0  0  0  0  0  0  0  0  0  0  0  0
    9.1268    1.2281   -5.8169 H   0  0  0  0  0  0  0  0  0  0  0  0
    8.3942   -0.4016   -5.7614 H   0  0  0  0  0  0  0  0  0  0  0  0
    3.3046    0.7534   -2.5085 H   0  0  0  0  0  0  0  0  0  0  0  0
    4.1359    2.3191   -2.4838 H   0  0  0  0  0  0  0  0  0  0  0  0
    2.2390    2.1765   -0.8235 H   0  0  0  0  0  0  0  0  0  0  0  0
    3.7928    2.5083   -0.0378 H   0  0  0  0  0  0  0  0  0  0  0  0
  1  2  2  0
  2  3  1  0
  2 11  1  0
  3  4  1  0
  3 23  1  0
  4  5  2  0
  4 10  1  0
  5  6  1  0
  5 24  1  0
  6  7  2  0
  6 25  1  0
  7  8  1  0
  7  9  1  0
  9 10  2  0
  9 26  1  0
 11 12  1  0
 11 22  1  0
 11 27  1  1
 12 13  1  0
 12 28  1  0
 12 29  1  0
 13 14  1  0
 13 30  1  0
 13 31  1  0
 14 15  1  0
 14 21  1  0
 15 16  1  0
 15 32  1  0
 15 33  1  0
 16 17  1  0
 16 34  1  0
 16 35  1  0
 17 18  1  0
 17 36  1  0
 17 37  1  0
 18 19  1  0
 18 38  1  0
 18 39  1  0
 19 20  1  0
 19 40  1  0
 19 41  1  0
 21 22  1  0
 21 42  1  0
 21 43  1  0
 22 44  1  0
 22 45  1  0
M  END

