
     RDKit          3D

 31 32  0  0  0  0  0  0  0  0999 V2000
    2.5549   -0.5803    0.6961 C   0  0  0  0  0  0  0  0  0  0  0  0
    3.3319    0.1145   -0.3027 N   0  0  0  0  0  0  0  0  0  0  0  0
    3.6310   -0.4144   -1.5228 C   0  0  0  0  0  0  0  0  0  0  0  0
    4.2706    0.4276   -2.3761 N   0  0  0  0  0  0  0  0  0  0  0  0
    4.5985   -0.0188   -3.5825 C   0  0  0  0  0  0  0  0  0  0  0  0
    5.2209    0.8393   -4.4456 N   0  0  0  0  0  0  0  0  0  0  0  0
    5.5453    2.2076   -4.1055 C   0  0  0  0  0  0  0  0  0  0  0  0
    6.8052    2.3193   -3.2330 C   0  0  0  0  0  0  0  0  0  0  0  0
    7.1913    4.0537   -2.9072 S   0  0  1  0  0  0  0  0  0  0  0  0
    8.5897    3.9483   -1.9606 N   0  0  0  0  0  0  0  0  0  0  0  0
    7.5702    4.6705   -4.1830 O   0  0  0  0  0  0  0  0  0  0  0  0
    6.1212    4.6059   -2.0716 O   0  0  0  0  0  0  0  0  0  0  0  0
    4.2901   -1.3580   -3.9412 C   0  0  0  0  0  0  0  0  0  0  0  0
    4.5822   -2.2375   -5.4255 S   0  0  0  0  0  0  0  0  0  0  0  0
    3.8306   -3.6573   -4.7469 C   0  0  0  0  0  0  0  0  0  0  0  0
    3.3790   -3.4794   -3.4728 C   0  0  0  0  0  0  0  0  0  0  0  0
    3.6316   -2.1478   -2.9765 C   0  0  0  0  0  0  0  0  0  0  0  0
    3.2905   -1.6819   -1.7603 N   0  0  0  0  0  0  0  0  0  0  0  0
    2.6122   -0.0269    1.6446 H   0  0  0  0  0  0  0  0  0  0  0  0
    2.9507   -1.5947    0.8523 H   0  0  0  0  0  0  0  0  0  0  0  0
    1.4904   -0.6861    0.4141 H   0  0  0  0  0  0  0  0  0  0  0  0
    3.5033    1.1071   -0.2087 H   0  0  0  0  0  0  0  0  0  0  0  0
    5.5266    0.4778   -5.3389 H   0  0  0  0  0  0  0  0  0  0  0  0
    4.7024    2.6554   -3.5605 H   0  0  0  0  0  0  0  0  0  0  0  0
    5.6932    2.7756   -5.0357 H   0  0  0  0  0  0  0  0  0  0  0  0
    7.6924    1.8956   -3.7256 H   0  0  0  0  0  0  0  0  0  0  0  0
    6.6507    1.8378   -2.2579 H   0  0  0  0  0  0  0  0  0  0  0  0
    9.3537    4.4368   -2.4284 H   0  0  0  0  0  0  0  0  0  0  0  0
    8.4072    4.3347   -1.0341 H   0  0  0  0  0  0  0  0  0  0  0  0
    3.7684   -4.5596   -5.3547 H   0  0  0  0  0  0  0  0  0  0  0  0
    2.8796   -4.2463   -2.8809 H   0  0  0  0  0  0  0  0  0  0  0  0
  1  2  1  0
  1 19  1  0
  1 20  1  0
  1 21  1  0
  2  3  1  0
  2 22  1  0
  3  4  2  0
  3 18  1  0
  4  5  1  0
  5  6  1  0
  5 13  2  0
  6  7  1  0
  6 23  1  0
  7  8  1  0
  7 24  1  0
  7 25  1  0
  8  9  1  0
  8 26  1  0
  8 27  1  0
  9 10  1  1
  9 11  2  0
  9 12  2  0
 10 28  1  0
 10 29  1  0
 13 14  1  0
 13 17  1  0
 14 15  1  0
 15 16  2  0
 15 30  1  0
 16 17  1  0
 16 31  1  0
 17 18  2  0
M  END

