
     RDKit          3D

 50 51  0  0  0  0  0  0  0  0999 V2000
    1.2520   -0.1883    0.4035 C   0  0  0  0  0  0  0  0  0  0  0  0
    2.7718   -0.0298    0.2447 C   0  0  1  0  0  0  0  0  0  0  0  0
    3.4740   -0.5540    1.5068 C   0  0  0  0  0  0  0  0  0  0  0  0
    3.2886   -0.7619   -1.0192 C   0  0  1  0  0  0  0  0  0  0  0  0
    3.0765   -1.8315   -0.8718 H   0  0  0  0  0  0  0  0  0  0  0  0
    2.6112   -0.4283   -2.3696 C   0  0  0  0  0  0  0  0  0  0  0  0
    2.7942    0.9206   -2.8922 N   0  0  0  0  0  0  0  0  0  0  0  0
    2.8754    1.0062   -4.3499 C   0  0  0  0  0  0  0  0  0  0  0  0
    2.8626    2.5155   -4.6355 C   0  0  0  0  0  0  0  0  0  0  0  0
    2.1090    3.1270   -3.4225 C   0  0  0  0  0  0  0  0  0  0  0  0
    1.7981    1.9208   -2.5165 C   0  0  0  0  0  0  0  0  0  0  0  0
    4.7614   -0.6886   -1.1341 N   0  0  0  0  0  0  0  0  0  0  0  0
    5.3971    0.6252   -1.0763 C   0  0  0  0  0  0  0  0  0  0  0  0
    5.4058   -1.8346   -1.5322 C   0  0  0  0  0  0  0  0  0  0  0  0
    4.7983   -2.8381   -1.8903 O   0  0  0  0  0  0  0  0  0  0  0  0
    6.9186   -1.8746   -1.5051 C   0  0  0  0  0  0  0  0  0  0  0  0
    7.6800   -1.4014   -0.4272 C   0  0  0  0  0  0  0  0  0  0  0  0
    9.0654   -1.5879   -0.4135 C   0  0  0  0  0  0  0  0  0  0  0  0
    9.7027   -2.2236   -1.4785 C   0  0  0  0  0  0  0  0  0  0  0  0
    8.9354   -2.7000   -2.5448 C   0  0  0  0  0  0  0  0  0  0  0  0
    9.6523   -3.3590   -3.5411 O   0  0  0  0  0  0  0  0  0  0  0  0
    9.2362   -3.3797   -4.8252 C   0  0  1  0  0  0  0  0  0  0  0  0
    8.9243   -2.1586   -5.2802 F   0  0  0  0  0  0  0  0  0  0  0  0
   10.2258   -3.8693   -5.5607 F   0  0  0  0  0  0  0  0  0  0  0  0
    8.1575   -4.1599   -5.0076 F   0  0  0  0  0  0  0  0  0  0  0  0
    7.5495   -2.5547   -2.5585 C   0  0  0  0  0  0  0  0  0  0  0  0
    0.9129    0.2866    1.3378 H   0  0  0  0  0  0  0  0  0  0  0  0
    0.9714   -1.2542    0.4540 H   0  0  0  0  0  0  0  0  0  0  0  0
    0.6845    0.2668   -0.4204 H   0  0  0  0  0  0  0  0  0  0  0  0
    2.9918    1.0489    0.1545 H   0  0  0  0  0  0  0  0  0  0  0  0
    3.2633   -1.6270    1.6525 H   0  0  0  0  0  0  0  0  0  0  0  0
    3.1183   -0.0196    2.4021 H   0  0  0  0  0  0  0  0  0  0  0  0
    4.5663   -0.4377    1.4582 H   0  0  0  0  0  0  0  0  0  0  0  0
    1.5328   -0.6928   -2.3104 H   0  0  0  0  0  0  0  0  0  0  0  0
    3.0504   -1.1352   -3.0891 H   0  0  0  0  0  0  0  0  0  0  0  0
    1.9991    0.5153   -4.8339 H   0  0  0  0  0  0  0  0  0  0  0  0
    3.7791    0.4978   -4.7221 H   0  0  0  0  0  0  0  0  0  0  0  0
    2.3791    2.7432   -5.5971 H   0  0  0  0  0  0  0  0  0  0  0  0
    3.8905    2.9050   -4.6875 H   0  0  0  0  0  0  0  0  0  0  0  0
    1.1887    3.6539   -3.7158 H   0  0  0  0  0  0  0  0  0  0  0  0
    2.7441    3.8560   -2.8970 H   0  0  0  0  0  0  0  0  0  0  0  0
    0.7658    1.5464   -2.7127 H   0  0  0  0  0  0  0  0  0  0  0  0
    1.8524    2.1677   -1.4457 H   0  0  0  0  0  0  0  0  0  0  0  0
    4.7606    1.3425   -1.6120 H   0  0  0  0  0  0  0  0  0  0  0  0
    6.3721    0.5998   -1.5767 H   0  0  0  0  0  0  0  0  0  0  0  0
    5.5507    0.9770   -0.0409 H   0  0  0  0  0  0  0  0  0  0  0  0
    7.1923   -0.9067    0.4142 H   0  0  0  0  0  0  0  0  0  0  0  0
    9.6563   -1.2315    0.4337 H   0  0  0  0  0  0  0  0  0  0  0  0
   10.7844   -2.3672   -1.4983 H   0  0  0  0  0  0  0  0  0  0  0  0
    6.9365   -2.9761   -3.3537 H   0  0  0  0  0  0  0  0  0  0  0  0
  1  2  1  0
  1 27  1  0
  1 28  1  0
  1 29  1  0
  2  3  1  0
  2  4  1  0
  2 30  1  6
  3 31  1  0
  3 32  1  0
  3 33  1  0
  4  5  1  1
  4  6  1  0
  4 12  1  0
  6  7  1  0
  6 34  1  0
  6 35  1  0
  7  8  1  0
  7 11  1  0
  8  9  1  0
  8 36  1  0
  8 37  1  0
  9 10  1  0
  9 38  1  0
  9 39  1  0
 10 11  1  0
 10 40  1  0
 10 41  1  0
 11 42  1  0
 11 43  1  0
 12 13  1  0
 12 14  1  0
 13 44  1  0
 13 45  1  0
 13 46  1  0
 14 15  2  0
 14 16  1  0
 16 17  2  0
 16 26  1  0
 17 18  1  0
 17 47  1  0
 18 19  2  0
 18 48  1  0
 19 20  1  0
 19 49  1  0
 20 21  1  0
 20 26  2  0
 21 22  1  0
 22 23  1  6
 22 24  1  0
 22 25  1  0
 26 50  1  0
M  END

