
     RDKit          3D

 66 70  0  0  0  0  0  0  0  0999 V2000
    6.9492    0.4438   -8.1382 C   0  0  0  0  0  0  0  0  0  0  0  0
    6.7287    0.5737   -6.6297 C   0  0  2  0  0  0  0  0  0  0  0  0
    7.5384    0.0430   -6.1079 H   0  0  0  0  0  0  0  0  0  0  0  0
    5.5111   -0.1395   -6.2383 N   0  0  0  0  0  0  0  0  0  0  0  0
    5.4655   -0.9947   -5.1771 C   0  0  0  0  0  0  0  0  0  0  0  0
    6.4416   -1.2716   -4.4947 O   0  0  0  0  0  0  0  0  0  0  0  0
    4.1053   -1.6415   -4.8942 C   0  0  0  0  0  0  0  0  0  0  0  0
    2.8556   -0.7870   -5.1595 C   0  0  2  0  0  0  0  0  0  0  0  0
    3.0062    0.1872   -4.6678 H   0  0  0  0  0  0  0  0  0  0  0  0
    1.5435   -1.3809   -4.6331 C   0  0  0  0  0  0  0  0  0  0  0  0
    0.9418   -2.4869   -5.5135 C   0  0  2  0  0  0  0  0  0  0  0  0
   -0.1313   -2.5600   -5.2566 H   0  0  0  0  0  0  0  0  0  0  0  0
    1.5096   -3.8932   -5.4477 C   0  0  0  0  0  0  0  0  0  0  0  0
    1.9138   -4.6754   -4.3726 C   0  0  0  0  0  0  0  0  0  0  0  0
    2.3027   -6.0101   -4.6202 C   0  0  0  0  0  0  0  0  0  0  0  0
    2.7424   -6.8787   -3.5985 N   0  0  0  0  0  0  0  0  0  0  0  0
    2.8643   -6.6415   -2.2498 C   0  0  0  0  0  0  0  0  0  0  0  0
    2.5824   -5.5792   -1.7164 O   0  0  0  0  0  0  0  0  0  0  0  0
    3.3901   -7.8149   -1.4382 C   0  0  1  0  0  0  0  0  0  0  0  0
    4.6115   -7.5266   -0.5141 C   0  0  0  0  0  0  0  0  0  0  0  0
    3.9222   -8.3347    0.6123 C   0  0  0  0  0  0  0  0  0  0  0  0
    2.5868   -8.1885   -0.1574 C   0  0  0  0  0  0  0  0  0  0  0  0
    2.2573   -6.5154   -5.9333 C   0  0  0  0  0  0  0  0  0  0  0  0
    1.8442   -5.7266   -7.0127 C   0  0  0  0  0  0  0  0  0  0  0  0
    1.4747   -4.4122   -6.7466 C   0  0  0  0  0  0  0  0  0  0  0  0
    1.0416   -3.5057   -7.6734 O   0  0  0  0  0  0  0  0  0  0  0  0
    1.0566   -2.2093   -7.0337 C   0  0  2  0  0  0  0  0  0  0  0  0
    0.2120   -1.6280   -7.4273 H   0  0  0  0  0  0  0  0  0  0  0  0
    2.3716   -1.5122   -7.4343 C   0  0  1  0  0  0  0  0  0  0  0  0
    3.1776   -2.2692   -7.4367 H   0  0  0  0  0  0  0  0  0  0  0  0
    2.2764   -0.8861   -8.8235 C   0  0  0  0  0  0  0  0  0  0  0  0
    1.3218    0.1469   -8.8638 O   0  0  0  0  0  0  0  0  0  0  0  0
    2.6955   -0.4402   -6.5490 O   0  0  0  0  0  0  0  0  0  0  0  0
    6.7151    2.0089   -6.0983 C   0  0  0  0  0  0  0  0  0  0  0  0
    6.9346    2.2173   -4.7242 C   0  0  0  0  0  0  0  0  0  0  0  0
    6.9008    3.5023   -4.1807 C   0  0  0  0  0  0  0  0  0  0  0  0
    6.6473    4.6077   -5.0012 C   0  0  0  0  0  0  0  0  0  0  0  0
    6.4307    4.4139   -6.3667 C   0  0  0  0  0  0  0  0  0  0  0  0
    6.4658    3.1241   -6.9105 C   0  0  0  0  0  0  0  0  0  0  0  0
    6.1091    0.8633   -8.7163 H   0  0  0  0  0  0  0  0  0  0  0  0
    7.0450   -0.6175   -8.4119 H   0  0  0  0  0  0  0  0  0  0  0  0
    7.8659    0.9666   -8.4504 H   0  0  0  0  0  0  0  0  0  0  0  0
    4.6318    0.0946   -6.6952 H   0  0  0  0  0  0  0  0  0  0  0  0
    4.1276   -1.9183   -3.8306 H   0  0  0  0  0  0  0  0  0  0  0  0
    4.0619   -2.5961   -5.4438 H   0  0  0  0  0  0  0  0  0  0  0  0
    0.8127   -0.5578   -4.5767 H   0  0  0  0  0  0  0  0  0  0  0  0
    1.6790   -1.7471   -3.6031 H   0  0  0  0  0  0  0  0  0  0  0  0
    1.9389   -4.2969   -3.3527 H   0  0  0  0  0  0  0  0  0  0  0  0
    3.0082   -7.8052   -3.9093 H   0  0  0  0  0  0  0  0  0  0  0  0
    3.5694   -8.7007   -2.0694 H   0  0  0  0  0  0  0  0  0  0  0  0
    4.6584   -6.4533   -0.2780 H   0  0  0  0  0  0  0  0  0  0  0  0
    5.5979   -7.8629   -0.8685 H   0  0  0  0  0  0  0  0  0  0  0  0
    3.9666   -7.9210    1.6312 H   0  0  0  0  0  0  0  0  0  0  0  0
    4.2698   -9.3794    0.6458 H   0  0  0  0  0  0  0  0  0  0  0  0
    2.0088   -7.3186    0.1875 H   0  0  0  0  0  0  0  0  0  0  0  0
    1.9227   -9.0643   -0.2202 H   0  0  0  0  0  0  0  0  0  0  0  0
    2.5586   -7.5509   -6.1191 H   0  0  0  0  0  0  0  0  0  0  0  0
    1.8163   -6.1251   -8.0283 H   0  0  0  0  0  0  0  0  0  0  0  0
    3.2831   -0.5307   -9.1241 H   0  0  0  0  0  0  0  0  0  0  0  0
    1.9664   -1.6609   -9.5414 H   0  0  0  0  0  0  0  0  0  0  0  0
    1.5399    0.7473   -8.1353 H   0  0  0  0  0  0  0  0  0  0  0  0
    7.1320    1.3536   -4.0833 H   0  0  0  0  0  0  0  0  0  0  0  0
    7.0785    3.6437   -3.1112 H   0  0  0  0  0  0  0  0  0  0  0  0
    6.6236    5.6149   -4.5772 H   0  0  0  0  0  0  0  0  0  0  0  0
    6.2359    5.2703   -7.0178 H   0  0  0  0  0  0  0  0  0  0  0  0
    6.2995    2.9988   -7.9826 H   0  0  0  0  0  0  0  0  0  0  0  0
  1  2  1  0
  1 40  1  0
  1 41  1  0
  1 42  1  0
  2  3  1  1
  2  4  1  0
  2 34  1  0
  4  5  1  0
  4 43  1  0
  5  6  2  0
  5  7  1  0
  7  8  1  0
  7 44  1  0
  7 45  1  0
  8  9  1  1
  8 10  1  0
  8 33  1  0
 10 11  1  0
 10 46  1  0
 10 47  1  0
 11 12  1  1
 11 13  1  0
 11 27  1  0
 13 14  1  0
 13 25  2  0
 14 15  2  0
 14 48  1  0
 15 16  1  0
 15 23  1  0
 16 17  1  0
 16 49  1  0
 17 18  2  0
 17 19  1  0
 19 20  1  0
 19 22  1  0
 19 50  1  6
 20 21  1  0
 20 51  1  0
 20 52  1  0
 21 22  1  0
 21 53  1  0
 21 54  1  0
 22 55  1  0
 22 56  1  0
 23 24  2  0
 23 57  1  0
 24 25  1  0
 24 58  1  0
 25 26  1  0
 26 27  1  0
 27 28  1  6
 27 29  1  0
 29 30  1  6
 29 31  1  0
 29 33  1  0
 31 32  1  0
 31 59  1  0
 31 60  1  0
 32 61  1  0
 34 35  2  0
 34 39  1  0
 35 36  1  0
 35 62  1  0
 36 37  2  0
 36 63  1  0
 37 38  1  0
 37 64  1  0
 38 39  2  0
 38 65  1  0
 39 66  1  0
M  END

