
     RDKit          3D

 38 43  0  0  0  0  0  0  0  0999 V2000
    1.9835    0.4837    0.0570 C   0  0  0  0  0  0  0  0  0  0  0  0
    1.8095   -0.4328   -1.0938 C   0  0  0  0  0  0  0  0  0  0  0  0
    2.3318   -1.6505   -0.7606 C   0  0  0  0  0  0  0  0  0  0  0  0
    3.8172   -1.6715   -0.8858 C   0  0  0  0  0  0  0  0  0  0  0  0
    4.7473   -2.5033   -1.4828 C   0  0  0  0  0  0  0  0  0  0  0  0
    6.1470   -2.3253   -1.2122 C   0  0  0  0  0  0  0  0  0  0  0  0
    6.5771   -1.3351   -0.3334 C   0  0  0  0  0  0  0  0  0  0  0  0
    5.6350   -0.4854    0.2692 C   0  0  0  0  0  0  0  0  0  0  0  0
    4.2657   -0.6053   -0.0101 C   0  0  0  0  0  0  0  0  0  0  0  0
    3.2648    0.3581    0.5343 C   0  0  0  0  0  0  0  0  0  0  0  0
    6.8865   -3.3474   -1.9730 C   0  0  0  0  0  0  0  0  0  0  0  0
    8.2066   -3.6783   -2.1192 C   0  0  0  0  0  0  0  0  0  0  0  0
    8.5815   -4.7827   -2.9702 C   0  0  0  0  0  0  0  0  0  0  0  0
    9.9487   -5.1267   -3.1215 C   0  0  0  0  0  0  0  0  0  0  0  0
   10.3425   -6.1800   -3.9288 C   0  0  0  0  0  0  0  0  0  0  0  0
    9.3728   -6.9332   -4.6193 C   0  0  0  0  0  0  0  0  0  0  0  0
    8.0272   -6.6219   -4.4918 C   0  0  0  0  0  0  0  0  0  0  0  0
    7.5919   -5.5531   -3.6764 C   0  0  0  0  0  0  0  0  0  0  0  0
    6.1864   -5.1987   -3.5202 C   0  0  0  0  0  0  0  0  0  0  0  0
    5.0637   -5.8275   -4.1210 C   0  0  0  0  0  0  0  0  0  0  0  0
    3.7730   -5.3676   -3.8670 C   0  0  0  0  0  0  0  0  0  0  0  0
    3.5144   -4.2671   -3.0147 C   0  0  0  0  0  0  0  0  0  0  0  0
    4.5946   -3.6393   -2.4109 C   0  0  0  0  0  0  0  0  0  0  0  0
    5.9005   -4.1171   -2.6786 C   0  0  0  0  0  0  0  0  0  0  0  0
    1.3469    1.3275    0.3469 H   0  0  0  0  0  0  0  0  0  0  0  0
    2.0616    0.0067   -2.0738 H   0  0  0  0  0  0  0  0  0  0  0  0
    2.0443   -1.9895    0.2490 H   0  0  0  0  0  0  0  0  0  0  0  0
    7.6396   -1.2139   -0.1083 H   0  0  0  0  0  0  0  0  0  0  0  0
    5.9773    0.2913    0.9587 H   0  0  0  0  0  0  0  0  0  0  0  0
    3.6391    1.0840    1.2660 H   0  0  0  0  0  0  0  0  0  0  0  0
    9.0002   -3.1279   -1.6060 H   0  0  0  0  0  0  0  0  0  0  0  0
   10.6978   -4.5395   -2.5830 H   0  0  0  0  0  0  0  0  0  0  0  0
   11.4021   -6.4276   -4.0303 H   0  0  0  0  0  0  0  0  0  0  0  0
    9.6804   -7.7653   -5.2574 H   0  0  0  0  0  0  0  0  0  0  0  0
    7.2893   -7.2167   -5.0334 H   0  0  0  0  0  0  0  0  0  0  0  0
    5.1970   -6.6782   -4.7927 H   0  0  0  0  0  0  0  0  0  0  0  0
    2.9313   -5.8736   -4.3471 H   0  0  0  0  0  0  0  0  0  0  0  0
    2.4900   -3.9287   -2.8423 H   0  0  0  0  0  0  0  0  0  0  0  0
  1  2  2  0
  1 10  1  0
  1 25  1  0
  2  3  1  0
  2 26  1  0
  3  4  2  0
  3 27  1  0
  4  5  1  0
  4  9  1  0
  5  6  2  0
  5 23  1  0
  6  7  1  0
  6 11  1  0
  7  8  2  0
  7 28  1  0
  8  9  1  0
  8 29  1  0
  9 10  2  0
 10 30  1  0
 11 12  2  0
 11 24  1  0
 12 13  1  0
 12 31  1  0
 13 14  2  0
 13 18  1  0
 14 15  1  0
 14 32  1  0
 15 16  2  0
 15 33  1  0
 16 17  1  0
 16 34  1  0
 17 18  2  0
 17 35  1  0
 18 19  1  0
 19 20  1  0
 19 24  2  0
 20 21  2  0
 20 36  1  0
 21 22  1  0
 21 37  1  0
 22 23  2  0
 22 38  1  0
 23 24  1  0
M  END

