
     RDKit          3D

 61 62  0  0  0  0  0  0  0  0999 V2000
    6.6396   -2.6126    0.6114 C   0  0  0  0  0  0  0  0  0  0  0  0
    6.1053   -1.8730   -0.6150 C   0  0  0  0  0  0  0  0  0  0  0  0
    4.5765   -1.7423   -0.6675 C   0  0  0  0  0  0  0  0  0  0  0  0
    3.9809   -1.0758    0.4836 N   0  0  0  0  0  0  0  0  0  0  0  0
    4.4449    0.2668    0.7887 C   0  0  0  0  0  0  0  0  0  0  0  0
    4.2053    1.3799   -0.2547 C   0  0  0  0  0  0  0  0  0  0  0  0
    4.8262    2.7052    0.1945 C   0  0  0  0  0  0  0  0  0  0  0  0
    4.7093    3.8839   -0.8297 C   0  0  1  0  0  0  0  0  0  0  0  0
    5.5151    3.5097   -2.0105 C   0  0  0  0  0  0  0  0  0  0  0  0
    6.1852    3.2134   -2.9089 N   0  0  0  0  0  0  0  0  0  0  0  0
    3.2408    4.0968   -1.2506 C   0  0  0  0  0  0  0  0  0  0  0  0
    2.8052    3.9738   -2.5803 C   0  0  0  0  0  0  0  0  0  0  0  0
    1.4696    4.1696   -2.9432 C   0  0  0  0  0  0  0  0  0  0  0  0
    0.5207    4.4971   -1.9731 C   0  0  0  0  0  0  0  0  0  0  0  0
    0.9187    4.6256   -0.6411 C   0  0  0  0  0  0  0  0  0  0  0  0
    2.2545    4.4249   -0.3068 C   0  0  0  0  0  0  0  0  0  0  0  0
    2.5891    4.5569    0.9962 F   0  0  0  0  0  0  0  0  0  0  0  0
    5.3155    5.2250   -0.2400 C   0  0  1  0  0  0  0  0  0  0  0  0
    6.7603    5.0695    0.2539 C   0  0  0  0  0  0  0  0  0  0  0  0
    5.2169    6.3879   -1.2365 C   0  0  0  0  0  0  0  0  0  0  0  0
    2.5683   -1.3843    0.7411 C   0  0  1  0  0  0  0  0  0  0  0  0
    1.6063   -1.0765   -0.4218 C   0  0  0  0  0  0  0  0  0  0  0  0
    2.4258   -2.8151    1.2856 C   0  0  0  0  0  0  0  0  0  0  0  0
    3.2101   -3.1934    2.3900 C   0  0  0  0  0  0  0  0  0  0  0  0
    3.1067   -4.4668    2.9491 C   0  0  0  0  0  0  0  0  0  0  0  0
    2.2158   -5.4022    2.4085 C   0  0  0  0  0  0  0  0  0  0  0  0
    1.4337   -5.0442    1.3105 C   0  0  0  0  0  0  0  0  0  0  0  0
    1.5366   -3.7612    0.7566 C   0  0  0  0  0  0  0  0  0  0  0  0
    7.7353   -2.7202    0.5644 H   0  0  0  0  0  0  0  0  0  0  0  0
    6.2042   -3.6224    0.6887 H   0  0  0  0  0  0  0  0  0  0  0  0
    6.3914   -2.0812    1.5430 H   0  0  0  0  0  0  0  0  0  0  0  0
    6.4138   -2.4029   -1.5331 H   0  0  0  0  0  0  0  0  0  0  0  0
    6.5753   -0.8763   -0.6872 H   0  0  0  0  0  0  0  0  0  0  0  0
    4.1468   -2.7575   -0.7103 H   0  0  0  0  0  0  0  0  0  0  0  0
    4.3049   -1.2566   -1.6307 H   0  0  0  0  0  0  0  0  0  0  0  0
    5.5307    0.2233    0.9910 H   0  0  0  0  0  0  0  0  0  0  0  0
    3.9822    0.5715    1.7439 H   0  0  0  0  0  0  0  0  0  0  0  0
    3.1253    1.5111   -0.4225 H   0  0  0  0  0  0  0  0  0  0  0  0
    4.6386    1.0785   -1.2236 H   0  0  0  0  0  0  0  0  0  0  0  0
    5.8944    2.5433    0.4047 H   0  0  0  0  0  0  0  0  0  0  0  0
    4.3646    3.0364    1.1370 H   0  0  0  0  0  0  0  0  0  0  0  0
    3.5347    3.7176   -3.3508 H   0  0  0  0  0  0  0  0  0  0  0  0
    1.1750    4.0645   -3.9898 H   0  0  0  0  0  0  0  0  0  0  0  0
   -0.5255    4.6525   -2.2464 H   0  0  0  0  0  0  0  0  0  0  0  0
    0.2142    4.8790    0.1535 H   0  0  0  0  0  0  0  0  0  0  0  0
    4.6833    5.4623    0.6290 H   0  0  0  0  0  0  0  0  0  0  0  0
    7.4324    4.7435   -0.5568 H   0  0  0  0  0  0  0  0  0  0  0  0
    6.8518    4.3548    1.0844 H   0  0  0  0  0  0  0  0  0  0  0  0
    7.1310    6.0399    0.6197 H   0  0  0  0  0  0  0  0  0  0  0  0
    5.8409    6.2066   -2.1271 H   0  0  0  0  0  0  0  0  0  0  0  0
    5.5734    7.3173   -0.7656 H   0  0  0  0  0  0  0  0  0  0  0  0
    4.1849    6.5609   -1.5753 H   0  0  0  0  0  0  0  0  0  0  0  0
    2.2771   -0.7209    1.5750 H   0  0  0  0  0  0  0  0  0  0  0  0
    1.7981   -1.7138   -1.2988 H   0  0  0  0  0  0  0  0  0  0  0  0
    1.7084   -0.0304   -0.7421 H   0  0  0  0  0  0  0  0  0  0  0  0
    0.5587   -1.2292   -0.1194 H   0  0  0  0  0  0  0  0  0  0  0  0
    3.9178   -2.4711    2.8032 H   0  0  0  0  0  0  0  0  0  0  0  0
    3.7245   -4.7339    3.8109 H   0  0  0  0  0  0  0  0  0  0  0  0
    2.1347   -6.4023    2.8423 H   0  0  0  0  0  0  0  0  0  0  0  0
    0.7358   -5.7650    0.8758 H   0  0  0  0  0  0  0  0  0  0  0  0
    0.9095   -3.5099   -0.1001 H   0  0  0  0  0  0  0  0  0  0  0  0
  1  2  1  0
  1 29  1  0
  1 30  1  0
  1 31  1  0
  2  3  1  0
  2 32  1  0
  2 33  1  0
  3  4  1  0
  3 34  1  0
  3 35  1  0
  4  5  1  0
  4 21  1  0
  5  6  1  0
  5 36  1  0
  5 37  1  0
  6  7  1  0
  6 38  1  0
  6 39  1  0
  7  8  1  0
  7 40  1  0
  7 41  1  0
  8  9  1  6
  8 11  1  0
  8 18  1  0
  9 10  3  0
 11 12  2  0
 11 16  1  0
 12 13  1  0
 12 42  1  0
 13 14  2  0
 13 43  1  0
 14 15  1  0
 14 44  1  0
 15 16  2  0
 15 45  1  0
 16 17  1  0
 18 19  1  0
 18 20  1  0
 18 46  1  1
 19 47  1  0
 19 48  1  0
 19 49  1  0
 20 50  1  0
 20 51  1  0
 20 52  1  0
 21 22  1  0
 21 23  1  0
 21 53  1  1
 22 54  1  0
 22 55  1  0
 22 56  1  0
 23 24  2  0
 23 28  1  0
 24 25  1  0
 24 57  1  0
 25 26  2  0
 25 58  1  0
 26 27  1  0
 26 59  1  0
 27 28  2  0
 27 60  1  0
 28 61  1  0
M  END

