
     RDKit          3D

 40 44  0  0  0  0  0  0  0  0999 V2000
    6.2196    1.7668    5.0079 C   0  0  0  0  0  0  0  0  0  0  0  0
    6.3179    1.2522    3.5924 C   0  0  0  0  0  0  0  0  0  0  0  0
    6.2479    2.1177    2.4907 C   0  0  0  0  0  0  0  0  0  0  0  0
    6.3294    1.6385    1.1812 C   0  0  0  0  0  0  0  0  0  0  0  0
    6.4678    0.2639    0.9388 C   0  0  0  0  0  0  0  0  0  0  0  0
    6.4838   -0.2702   -0.7729 S   0  0  0  0  0  0  0  0  0  0  0  0
    7.3083   -1.8607   -0.7220 C   0  0  0  0  0  0  0  0  0  0  0  0
    6.5572   -2.9746   -0.9888 C   0  0  0  0  0  0  0  0  0  0  0  0
    7.1355   -4.2884   -1.0528 C   0  0  0  0  0  0  0  0  0  0  0  0
    6.3628   -5.4319   -1.3258 C   0  0  0  0  0  0  0  0  0  0  0  0
    6.9539   -6.6958   -1.3661 C   0  0  0  0  0  0  0  0  0  0  0  0
    8.3226   -6.8448   -1.1359 C   0  0  0  0  0  0  0  0  0  0  0  0
    9.1348   -5.7292   -0.8597 C   0  0  0  0  0  0  0  0  0  0  0  0
   10.5489   -5.8457   -0.6206 C   0  0  0  0  0  0  0  0  0  0  0  0
   11.3130   -4.7459   -0.3631 C   0  0  0  0  0  0  0  0  0  0  0  0
   10.7408   -3.4256   -0.3180 C   0  0  0  0  0  0  0  0  0  0  0  0
   11.5220   -2.2835   -0.0670 C   0  0  0  0  0  0  0  0  0  0  0  0
   10.9395   -1.0174   -0.0444 C   0  0  0  0  0  0  0  0  0  0  0  0
    9.5691   -0.8587   -0.2603 C   0  0  0  0  0  0  0  0  0  0  0  0
    8.7422   -1.9693   -0.5027 C   0  0  0  0  0  0  0  0  0  0  0  0
    9.3343   -3.2749   -0.5423 C   0  0  0  0  0  0  0  0  0  0  0  0
    8.5374   -4.4299   -0.8164 C   0  0  0  0  0  0  0  0  0  0  0  0
    6.5328   -0.6158    2.0289 C   0  0  0  0  0  0  0  0  0  0  0  0
    6.4676   -0.1200    3.3316 C   0  0  0  0  0  0  0  0  0  0  0  0
    6.3534    2.8580    5.0521 H   0  0  0  0  0  0  0  0  0  0  0  0
    6.9788    1.3051    5.6596 H   0  0  0  0  0  0  0  0  0  0  0  0
    5.2342    1.5371    5.4501 H   0  0  0  0  0  0  0  0  0  0  0  0
    6.1390    3.1935    2.6567 H   0  0  0  0  0  0  0  0  0  0  0  0
    6.2916    2.3381    0.3419 H   0  0  0  0  0  0  0  0  0  0  0  0
    5.4823   -2.8680   -1.1521 H   0  0  0  0  0  0  0  0  0  0  0  0
    5.2904   -5.3197   -1.5056 H   0  0  0  0  0  0  0  0  0  0  0  0
    6.3409   -7.5750   -1.5795 H   0  0  0  0  0  0  0  0  0  0  0  0
    8.7789   -7.8378   -1.1695 H   0  0  0  0  0  0  0  0  0  0  0  0
   11.0022   -6.8401   -0.6526 H   0  0  0  0  0  0  0  0  0  0  0  0
   12.3872   -4.8491   -0.1868 H   0  0  0  0  0  0  0  0  0  0  0  0
   12.5954   -2.3999    0.1046 H   0  0  0  0  0  0  0  0  0  0  0  0
   11.5595   -0.1371    0.1426 H   0  0  0  0  0  0  0  0  0  0  0  0
    9.1248    0.1370   -0.2495 H   0  0  0  0  0  0  0  0  0  0  0  0
    6.6366   -1.6895    1.8608 H   0  0  0  0  0  0  0  0  0  0  0  0
    6.5292   -0.8226    4.1683 H   0  0  0  0  0  0  0  0  0  0  0  0
  1  2  1  0
  1 25  1  0
  1 26  1  0
  1 27  1  0
  2  3  2  0
  2 24  1  0
  3  4  1  0
  3 28  1  0
  4  5  2  0
  4 29  1  0
  5  6  1  0
  5 23  1  0
  6  7  1  0
  7  8  2  0
  7 20  1  0
  8  9  1  0
  8 30  1  0
  9 10  2  0
  9 22  1  0
 10 11  1  0
 10 31  1  0
 11 12  2  0
 11 32  1  0
 12 13  1  0
 12 33  1  0
 13 14  1  0
 13 22  2  0
 14 15  2  0
 14 34  1  0
 15 16  1  0
 15 35  1  0
 16 17  1  0
 16 21  2  0
 17 18  2  0
 17 36  1  0
 18 19  1  0
 18 37  1  0
 19 20  2  0
 19 38  1  0
 20 21  1  0
 21 22  1  0
 23 24  2  0
 23 39  1  0
 24 40  1  0
M  END

