
     RDKit          3D

118127  0  0  0  0  0  0  0  0999 V2000
   17.2921   10.8299   -0.3247 C   0  0  0  0  0  0  0  0  0  0  0  0
   17.3823    9.3338   -0.0410 C   0  0  0  0  0  0  0  0  0  0  0  0
   18.6415    8.8730    0.5519 N   0  0  0  0  0  0  0  0  0  0  0  0
   19.4399    9.7965    1.3544 C   0  0  0  0  0  0  0  0  0  0  0  0
   19.0336    9.8770    2.8298 C   0  0  0  0  0  0  0  0  0  0  0  0
   18.8737    7.5104    0.6261 C   0  0  0  0  0  0  0  0  0  0  0  0
   17.9558    6.5642    0.0969 C   0  0  0  0  0  0  0  0  0  0  0  0
   18.2171    5.1985    0.1345 C   0  0  0  0  0  0  0  0  0  0  0  0
   19.3955    4.6942    0.7033 C   0  0  0  0  0  0  0  0  0  0  0  0
   19.6635    3.2953    0.7177 N   0  0  0  0  0  0  0  0  0  0  0  0
   19.3422    2.5635   -0.3211 C   0  0  0  0  0  0  0  0  0  0  0  0
   19.4074    1.1386   -0.3391 C   0  0  0  0  0  0  0  0  0  0  0  0
   19.1198    0.3891   -1.5208 C   0  0  0  0  0  0  0  0  0  0  0  0
   19.0696   -0.9801   -1.4857 C   0  0  0  0  0  0  0  0  0  0  0  0
   19.2970   -1.6683   -0.2554 C   0  0  0  0  0  0  0  0  0  0  0  0
   19.2338   -3.0998   -0.1930 C   0  0  0  0  0  0  0  0  0  0  0  0
   19.4698   -3.7628    1.0309 C   0  0  0  0  0  0  0  0  0  0  0  0
   19.7568   -3.0133    2.2126 C   0  0  0  0  0  0  0  0  0  0  0  0
   19.8059   -1.6441    2.1777 C   0  0  0  0  0  0  0  0  0  0  0  0
   19.5787   -0.9559    0.9475 C   0  0  0  0  0  0  0  0  0  0  0  0
   19.6423    0.4756    0.8850 C   0  0  0  0  0  0  0  0  0  0  0  0
   19.8846    1.1531    1.9816 O   0  0  0  0  0  0  0  0  0  0  0  0
   20.3438    2.5762    1.9903 B   0  0  1  0  0  0  0  0  0  0  0  0
   21.9862    2.5247    1.8459 C   0  0  0  0  0  0  0  0  0  0  0  0
   22.7564    3.0133    0.7871 C   0  0  0  0  0  0  0  0  0  0  0  0
   22.1927    3.6998   -0.2244 F   0  0  0  0  0  0  0  0  0  0  0  0
   24.1419    2.8347    0.6947 C   0  0  0  0  0  0  0  0  0  0  0  0
   24.8217    3.3278   -0.3402 F   0  0  0  0  0  0  0  0  0  0  0  0
   24.8090    2.1290    1.6937 C   0  0  0  0  0  0  0  0  0  0  0  0
   26.1243    1.9465    1.6243 F   0  0  0  0  0  0  0  0  0  0  0  0
   24.0830    1.6139    2.7706 C   0  0  0  0  0  0  0  0  0  0  0  0
   24.7116    0.9385    3.7315 F   0  0  0  0  0  0  0  0  0  0  0  0
   22.7044    1.8164    2.8197 C   0  0  0  0  0  0  0  0  0  0  0  0
   22.0605    1.3020    3.8781 F   0  0  0  0  0  0  0  0  0  0  0  0
   19.7467    3.2555    3.3554 C   0  0  0  0  0  0  0  0  0  0  0  0
   20.4695    4.0052    4.2874 C   0  0  0  0  0  0  0  0  0  0  0  0
   21.7642    4.2967    4.0795 F   0  0  0  0  0  0  0  0  0  0  0  0
   19.9102    4.5185    5.4613 C   0  0  0  0  0  0  0  0  0  0  0  0
   20.6497    5.2257    6.3153 F   0  0  0  0  0  0  0  0  0  0  0  0
   18.5594    4.2970    5.7295 C   0  0  0  0  0  0  0  0  0  0  0  0
   18.0078    4.7807    6.8388 F   0  0  0  0  0  0  0  0  0  0  0  0
   17.7886    3.5726    4.8188 C   0  0  0  0  0  0  0  0  0  0  0  0
   16.4929    3.3720    5.0558 F   0  0  0  0  0  0  0  0  0  0  0  0
   18.3901    3.0806    3.6585 C   0  0  0  0  0  0  0  0  0  0  0  0
   17.5881    2.4297    2.8021 F   0  0  0  0  0  0  0  0  0  0  0  0
   19.5400   -5.1876    1.0107 C   0  0  0  0  0  0  0  0  0  0  0  0
   19.2156   -5.9195   -0.0269 N   0  0  0  0  0  0  0  0  0  0  0  0
   19.4888   -7.3175   -0.0173 C   0  0  0  0  0  0  0  0  0  0  0  0
   18.5891   -8.2359   -0.5820 C   0  0  0  0  0  0  0  0  0  0  0  0
   18.8447   -9.5995   -0.5510 C   0  0  0  0  0  0  0  0  0  0  0  0
   20.0237  -10.1292    0.0414 C   0  0  0  0  0  0  0  0  0  0  0  0
   20.2753  -11.4849    0.0731 N   0  0  0  0  0  0  0  0  0  0  0  0
   19.3017  -12.4592   -0.4109 C   0  0  0  0  0  0  0  0  0  0  0  0
   19.4074  -12.7656   -1.9080 C   0  0  0  0  0  0  0  0  0  0  0  0
   21.5314  -12.0213    0.5873 C   0  0  0  0  0  0  0  0  0  0  0  0
   21.5400  -12.2636    2.0999 C   0  0  0  0  0  0  0  0  0  0  0  0
   20.9343   -9.1842    0.5842 C   0  0  0  0  0  0  0  0  0  0  0  0
   20.6714   -7.8200    0.5474 C   0  0  0  0  0  0  0  0  0  0  0  0
   18.5287   -5.2000   -1.2954 B   0  0  1  0  0  0  0  0  0  0  0  0
   19.1140   -5.8789   -2.6652 C   0  0  0  0  0  0  0  0  0  0  0  0
   20.4688   -5.7080   -2.9785 C   0  0  0  0  0  0  0  0  0  0  0  0
   21.2798   -5.0620   -2.1268 F   0  0  0  0  0  0  0  0  0  0  0  0
   21.0593   -6.1997   -4.1445 C   0  0  0  0  0  0  0  0  0  0  0  0
   22.3539   -6.0034   -4.3913 F   0  0  0  0  0  0  0  0  0  0  0  0
   20.2787   -6.9190   -5.0509 C   0  0  0  0  0  0  0  0  0  0  0  0
   20.8200   -7.4021   -6.1656 F   0  0  0  0  0  0  0  0  0  0  0  0
   18.9295   -7.1366   -4.7725 C   0  0  0  0  0  0  0  0  0  0  0  0
   18.1806   -7.8393   -5.6221 F   0  0  0  0  0  0  0  0  0  0  0  0
   18.3813   -6.6238   -3.5932 C   0  0  0  0  0  0  0  0  0  0  0  0
   17.0873   -6.9115   -3.3753 F   0  0  0  0  0  0  0  0  0  0  0  0
   16.8877   -5.1438   -1.1376 C   0  0  0  0  0  0  0  0  0  0  0  0
   16.1243   -5.6356   -0.0753 C   0  0  0  0  0  0  0  0  0  0  0  0
   16.6937   -6.3293    0.9283 F   0  0  0  0  0  0  0  0  0  0  0  0
   14.7401   -5.4537    0.0288 C   0  0  0  0  0  0  0  0  0  0  0  0
   14.0671   -5.9500    1.0668 F   0  0  0  0  0  0  0  0  0  0  0  0
   14.0668   -4.7420   -0.9617 C   0  0  0  0  0  0  0  0  0  0  0  0
   12.7526   -4.5566   -0.8810 F   0  0  0  0  0  0  0  0  0  0  0  0
   14.7856   -4.2242   -2.0421 C   0  0  0  0  0  0  0  0  0  0  0  0
   14.1514   -3.5434   -2.9954 F   0  0  0  0  0  0  0  0  0  0  0  0
   16.1634   -4.4302   -2.1030 C   0  0  0  0  0  0  0  0  0  0  0  0
   16.7999   -3.9136   -3.1647 F   0  0  0  0  0  0  0  0  0  0  0  0
   18.9921   -3.7780   -1.2895 O   0  0  0  0  0  0  0  0  0  0  0  0
   20.2914    5.6114    1.2769 C   0  0  0  0  0  0  0  0  0  0  0  0
   20.0394    6.9750    1.2405 C   0  0  0  0  0  0  0  0  0  0  0  0
   16.3453   11.0287   -0.8500 H   0  0  0  0  0  0  0  0  0  0  0  0
   18.1116   11.1737   -0.9752 H   0  0  0  0  0  0  0  0  0  0  0  0
   17.2908   11.4432    0.5888 H   0  0  0  0  0  0  0  0  0  0  0  0
   17.2512    8.8061   -0.9994 H   0  0  0  0  0  0  0  0  0  0  0  0
   16.5223    9.0332    0.5923 H   0  0  0  0  0  0  0  0  0  0  0  0
   19.3745   10.7924    0.8984 H   0  0  0  0  0  0  0  0  0  0  0  0
   20.5003    9.5179    1.2667 H   0  0  0  0  0  0  0  0  0  0  0  0
   17.9927   10.2217    2.9393 H   0  0  0  0  0  0  0  0  0  0  0  0
   19.6818   10.5867    3.3688 H   0  0  0  0  0  0  0  0  0  0  0  0
   19.1165    8.8978    3.3260 H   0  0  0  0  0  0  0  0  0  0  0  0
   17.0069    6.8850   -0.3269 H   0  0  0  0  0  0  0  0  0  0  0  0
   17.4586    4.5103   -0.2457 H   0  0  0  0  0  0  0  0  0  0  0  0
   18.9826    3.0799   -1.2174 H   0  0  0  0  0  0  0  0  0  0  0  0
   18.9325    0.9274   -2.4537 H   0  0  0  0  0  0  0  0  0  0  0  0
   18.8414   -1.5660   -2.3757 H   0  0  0  0  0  0  0  0  0  0  0  0
   19.9446   -3.5517    3.1454 H   0  0  0  0  0  0  0  0  0  0  0  0
   20.0333   -1.0581    3.0680 H   0  0  0  0  0  0  0  0  0  0  0  0
   19.9057   -5.7034    1.9049 H   0  0  0  0  0  0  0  0  0  0  0  0
   17.6676   -7.8900   -1.0487 H   0  0  0  0  0  0  0  0  0  0  0  0
   18.1129  -10.2620   -1.0099 H   0  0  0  0  0  0  0  0  0  0  0  0
   18.2856  -12.1171   -0.1604 H   0  0  0  0  0  0  0  0  0  0  0  0
   19.4466  -13.3870    0.1662 H   0  0  0  0  0  0  0  0  0  0  0  0
   19.2369  -11.8649   -2.5172 H   0  0  0  0  0  0  0  0  0  0  0  0
   18.6615  -13.5222   -2.2004 H   0  0  0  0  0  0  0  0  0  0  0  0
   20.4046  -13.1583   -2.1633 H   0  0  0  0  0  0  0  0  0  0  0  0
   22.3602  -11.3548    0.3012 H   0  0  0  0  0  0  0  0  0  0  0  0
   21.7271  -12.9698    0.0616 H   0  0  0  0  0  0  0  0  0  0  0  0
   21.3759  -11.3294    2.6586 H   0  0  0  0  0  0  0  0  0  0  0  0
   22.5064  -12.6873    2.4176 H   0  0  0  0  0  0  0  0  0  0  0  0
   20.7482  -12.9716    2.3923 H   0  0  0  0  0  0  0  0  0  0  0  0
   21.8702   -9.5113    1.0341 H   0  0  0  0  0  0  0  0  0  0  0  0
   21.4238   -7.1314    0.9385 H   0  0  0  0  0  0  0  0  0  0  0  0
   21.2083    5.2649    1.7520 H   0  0  0  0  0  0  0  0  0  0  0  0
   20.7752    7.6331    1.6983 H   0  0  0  0  0  0  0  0  0  0  0  0
  1  2  1  0
  1 85  1  0
  1 86  1  0
  1 87  1  0
  2  3  1  0
  2 88  1  0
  2 89  1  0
  3  4  1  0
  3  6  1  0
  4  5  1  0
  4 90  1  0
  4 91  1  0
  5 92  1  0
  5 93  1  0
  5 94  1  0
  6  7  2  0
  6 84  1  0
  7  8  1  0
  7 95  1  0
  8  9  2  0
  8 96  1  0
  9 10  1  0
  9 83  1  0
 10 11  1  0
 10 23  1  0
 11 12  2  0
 11 97  1  0
 12 13  1  0
 12 21  1  0
 13 14  2  0
 13 98  1  0
 14 15  1  0
 14 99  1  0
 15 16  2  0
 15 20  1  0
 16 17  1  0
 16 82  1  0
 17 18  1  0
 17 46  2  0
 18 19  2  0
 18100  1  0
 19 20  1  0
 19101  1  0
 20 21  2  0
 21 22  1  0
 22 23  1  0
 23 24  1  6
 23 35  1  0
 24 25  2  0
 24 33  1  0
 25 26  1  0
 25 27  1  0
 27 28  1  0
 27 29  2  0
 29 30  1  0
 29 31  1  0
 31 32  1  0
 31 33  2  0
 33 34  1  0
 35 36  2  0
 35 44  1  0
 36 37  1  0
 36 38  1  0
 38 39  1  0
 38 40  2  0
 40 41  1  0
 40 42  1  0
 42 43  1  0
 42 44  2  0
 44 45  1  0
 46 47  1  0
 46102  1  0
 47 48  2  0
 47 59  1  0
 48 49  1  0
 48 58  1  0
 49 50  2  0
 49103  1  0
 50 51  1  0
 50104  1  0
 51 52  2  0
 51 57  1  0
 52 53  1  0
 52 55  1  0
 53 54  1  0
 53105  1  0
 53106  1  0
 54107  1  0
 54108  1  0
 54109  1  0
 55 56  1  0
 55110  1  0
 55111  1  0
 56112  1  0
 56113  1  0
 56114  1  0
 57 58  2  0
 57115  1  0
 58116  1  0
 59 60  1  6
 59 71  1  0
 59 82  1  0
 60 61  2  0
 60 69  1  0
 61 62  1  0
 61 63  1  0
 63 64  1  0
 63 65  2  0
 65 66  1  0
 65 67  1  0
 67 68  1  0
 67 69  2  0
 69 70  1  0
 71 72  2  0
 71 80  1  0
 72 73  1  0
 72 74  1  0
 74 75  1  0
 74 76  2  0
 76 77  1  0
 76 78  1  0
 78 79  1  0
 78 80  2  0
 80 81  1  0
 83 84  2  0
 83117  1  0
 84118  1  0
M  CHG  4  23  -1  47   1  52   1  59  -1
M  END

