
     RDKit          3D

 63 66  0  0  0  0  0  0  0  0999 V2000
    0.9751    0.9627    0.1546 C   0  0  0  0  0  0  0  0  0  0  0  0
    1.7908   -0.0635   -0.3777 O   0  0  0  0  0  0  0  0  0  0  0  0
    2.6399    0.2090   -1.3893 C   0  0  0  0  0  0  0  0  0  0  0  0
    2.6866    1.4386   -2.0553 C   0  0  0  0  0  0  0  0  0  0  0  0
    3.5845    1.6439   -3.1116 C   0  0  0  0  0  0  0  0  0  0  0  0
    4.4435    0.5983   -3.5480 C   0  0  0  0  0  0  0  0  0  0  0  0
    4.3990   -0.6195   -2.8571 C   0  0  0  0  0  0  0  0  0  0  0  0
    3.5156   -0.8227   -1.7988 C   0  0  0  0  0  0  0  0  0  0  0  0
    3.6597   -2.3737   -0.8884 S   0  0  1  0  0  0  0  0  0  0  0  0
    4.6476   -3.1959   -1.6169 O   0  0  0  0  0  0  0  0  0  0  0  0
    3.8735   -2.0658    0.5333 O   0  0  0  0  0  0  0  0  0  0  0  0
    2.0279   -3.2177   -1.0442 C   0  0  1  0  0  0  0  0  0  0  0  0
    1.7502   -3.5778   -2.4993 C   0  0  0  0  0  0  0  0  0  0  0  0
    2.0597   -4.4232   -0.1042 C   0  0  0  0  0  0  0  0  0  0  0  0
    5.2935    0.9474   -4.6794 C   0  0  0  0  0  0  0  0  0  0  0  0
    5.4105    2.2533   -5.1217 C   0  0  0  0  0  0  0  0  0  0  0  0
    6.3519    2.2091   -6.1825 C   0  0  0  0  0  0  0  0  0  0  0  0
    6.8388    3.4622   -6.8575 C   0  0  0  0  0  0  0  0  0  0  0  0
    6.5444    4.5119   -6.2803 O   0  0  0  0  0  0  0  0  0  0  0  0
    7.5808    3.4269   -8.0092 N   0  0  0  0  0  0  0  0  0  0  0  0
    7.5910    2.2590   -8.8880 C   0  0  0  0  0  0  0  0  0  0  0  0
    8.1738    4.7139   -8.5349 C   0  0  1  0  0  0  0  0  0  0  0  0
    9.0125    5.4017   -7.4379 C   0  0  0  0  0  0  0  0  0  0  0  0
    9.1294    4.4177   -9.7075 C   0  0  0  0  0  0  0  0  0  0  0  0
    7.0455    5.6380   -9.0338 C   0  0  0  0  0  0  0  0  0  0  0  0
    6.7692    0.9563   -6.3816 N   0  0  0  0  0  0  0  0  0  0  0  0
    6.1218    0.1941   -5.4784 N   0  0  0  0  0  0  0  0  0  0  0  0
    6.3320   -1.2110   -5.4831 C   0  0  0  0  0  0  0  0  0  0  0  0
    5.2932   -2.1708   -5.7036 C   0  0  0  0  0  0  0  0  0  0  0  0
    5.7734   -3.4535   -5.6897 C   0  0  0  0  0  0  0  0  0  0  0  0
    7.4833   -3.4978   -5.4302 S   0  0  0  0  0  0  0  0  0  0  0  0
    7.5725   -1.7809   -5.3227 C   0  0  0  0  0  0  0  0  0  0  0  0
    4.6799    3.3602   -4.4397 C   0  0  0  0  0  0  0  0  0  0  0  0
    3.5439    2.8529   -3.7048 O   0  0  0  0  0  0  0  0  0  0  0  0
    0.4301    0.5168    0.9964 H   0  0  0  0  0  0  0  0  0  0  0  0
    0.2506    1.3350   -0.5905 H   0  0  0  0  0  0  0  0  0  0  0  0
    1.5818    1.8067    0.5236 H   0  0  0  0  0  0  0  0  0  0  0  0
    2.0437    2.2716   -1.7766 H   0  0  0  0  0  0  0  0  0  0  0  0
    5.0607   -1.4437   -3.1228 H   0  0  0  0  0  0  0  0  0  0  0  0
    1.3179   -2.4626   -0.6743 H   0  0  0  0  0  0  0  0  0  0  0  0
    2.5223   -4.2626   -2.8804 H   0  0  0  0  0  0  0  0  0  0  0  0
    1.7263   -2.6877   -3.1465 H   0  0  0  0  0  0  0  0  0  0  0  0
    0.7704   -4.0762   -2.5772 H   0  0  0  0  0  0  0  0  0  0  0  0
    2.8242   -5.1474   -0.4257 H   0  0  0  0  0  0  0  0  0  0  0  0
    1.0794   -4.9256   -0.1160 H   0  0  0  0  0  0  0  0  0  0  0  0
    2.2853   -4.1137    0.9256 H   0  0  0  0  0  0  0  0  0  0  0  0
    7.0445    1.4349   -8.4270 H   0  0  0  0  0  0  0  0  0  0  0  0
    8.6135    1.9026   -9.0818 H   0  0  0  0  0  0  0  0  0  0  0  0
    7.1205    2.4979   -9.8566 H   0  0  0  0  0  0  0  0  0  0  0  0
    9.8053    4.7238   -7.0831 H   0  0  0  0  0  0  0  0  0  0  0  0
    8.3983    5.7020   -6.5830 H   0  0  0  0  0  0  0  0  0  0  0  0
    9.4961    6.2976   -7.8578 H   0  0  0  0  0  0  0  0  0  0  0  0
    9.9496    3.7463   -9.4113 H   0  0  0  0  0  0  0  0  0  0  0  0
    9.5810    5.3676  -10.0295 H   0  0  0  0  0  0  0  0  0  0  0  0
    8.6221    3.9872  -10.5821 H   0  0  0  0  0  0  0  0  0  0  0  0
    6.3692    5.9020   -8.2112 H   0  0  0  0  0  0  0  0  0  0  0  0
    6.4618    5.1454   -9.8289 H   0  0  0  0  0  0  0  0  0  0  0  0
    7.4693    6.5643   -9.4538 H   0  0  0  0  0  0  0  0  0  0  0  0
    4.2475   -1.9076   -5.8632 H   0  0  0  0  0  0  0  0  0  0  0  0
    5.2163   -4.3796   -5.8204 H   0  0  0  0  0  0  0  0  0  0  0  0
    8.5169   -1.2673   -5.1559 H   0  0  0  0  0  0  0  0  0  0  0  0
    4.2826    4.0958   -5.1491 H   0  0  0  0  0  0  0  0  0  0  0  0
    5.3375    3.9092   -3.7406 H   0  0  0  0  0  0  0  0  0  0  0  0
  1  2  1  0
  1 35  1  0
  1 36  1  0
  1 37  1  0
  2  3  1  0
  3  4  2  0
  3  8  1  0
  4  5  1  0
  4 38  1  0
  5  6  2  0
  5 34  1  0
  6  7  1  0
  6 15  1  0
  7  8  2  0
  7 39  1  0
  9  8  1  6
  9 10  2  0
  9 11  2  0
  9 12  1  0
 12 13  1  0
 12 14  1  0
 12 40  1  1
 13 41  1  0
 13 42  1  0
 13 43  1  0
 14 44  1  0
 14 45  1  0
 14 46  1  0
 15 16  2  0
 15 27  1  0
 16 17  1  0
 16 33  1  0
 17 18  1  0
 17 26  2  0
 18 19  2  0
 18 20  1  0
 20 21  1  0
 22 20  1  1
 21 47  1  0
 21 48  1  0
 21 49  1  0
 22 23  1  0
 22 24  1  0
 22 25  1  0
 23 50  1  0
 23 51  1  0
 23 52  1  0
 24 53  1  0
 24 54  1  0
 24 55  1  0
 25 56  1  0
 25 57  1  0
 25 58  1  0
 26 27  1  0
 27 28  1  0
 28 29  1  0
 28 32  2  0
 29 30  2  0
 29 59  1  0
 30 31  1  0
 30 60  1  0
 31 32  1  0
 32 61  1  0
 33 34  1  0
 33 62  1  0
 33 63  1  0
M  END

