
     RDKit          3D

 44 46  0  0  0  0  0  0  0  0999 V2000
    1.9241   -1.1166    1.2438 C   0  0  0  0  0  0  0  0  0  0  0  0
    2.7367   -0.5375    0.2484 O   0  0  0  0  0  0  0  0  0  0  0  0
    3.1309   -1.2912   -0.8079 C   0  0  0  0  0  0  0  0  0  0  0  0
    3.9384   -0.6585   -1.7680 C   0  0  0  0  0  0  0  0  0  0  0  0
    4.3931   -1.3444   -2.8866 C   0  0  0  0  0  0  0  0  0  0  0  0
    4.0588   -2.6992   -3.0948 C   0  0  0  0  0  0  0  0  0  0  0  0
    4.4874   -3.4453   -4.2057 N   0  0  0  0  0  0  0  0  0  0  0  0
    5.2709   -3.0500   -5.2624 C   0  0  0  0  0  0  0  0  0  0  0  0
    5.7364   -1.9313   -5.3964 O   0  0  0  0  0  0  0  0  0  0  0  0
    5.5141   -4.1616   -6.2834 C   0  0  0  0  0  0  0  0  0  0  0  0
    6.4042   -3.6903   -7.4281 C   0  0  0  0  0  0  0  0  0  0  0  0
    6.6501   -4.7565   -8.4400 C   0  0  0  0  0  0  0  0  0  0  0  0
    6.2329   -5.9867   -8.4526 N   0  0  0  0  0  0  0  0  0  0  0  0
    6.7734   -6.4833   -9.6217 C   0  0  0  0  0  0  0  0  0  0  0  0
    6.5736   -7.8661  -10.0789 C   0  0  0  0  0  0  0  0  0  0  0  0
    7.1443   -8.3258  -11.2771 C   0  0  0  0  0  0  0  0  0  0  0  0
    6.9386   -9.6426  -11.6880 C   0  0  0  0  0  0  0  0  0  0  0  0
    6.1676  -10.5409  -10.9336 C   0  0  0  0  0  0  0  0  0  0  0  0
    5.9240  -11.9660  -11.3511 C   0  0  0  0  0  0  0  0  0  0  0  0
    5.6144  -10.0474   -9.7447 C   0  0  0  0  0  0  0  0  0  0  0  0
    4.8693  -10.8819   -8.9964 F   0  0  0  0  0  0  0  0  0  0  0  0
    5.7986   -8.7436   -9.3049 C   0  0  0  0  0  0  0  0  0  0  0  0
    7.4837   -5.6018  -10.2880 N   0  0  0  0  0  0  0  0  0  0  0  0
    7.4039   -4.4564   -9.5075 O   0  0  0  0  0  0  0  0  0  0  0  0
    3.2505   -3.3148   -2.1223 C   0  0  0  0  0  0  0  0  0  0  0  0
    2.7933   -5.0055   -2.3155 Cl  0  0  0  0  0  0  0  0  0  0  0  0
    2.7860   -2.6361   -0.9920 C   0  0  0  0  0  0  0  0  0  0  0  0
    1.7319   -0.3322    1.9879 H   0  0  0  0  0  0  0  0  0  0  0  0
    2.4258   -1.9662    1.7421 H   0  0  0  0  0  0  0  0  0  0  0  0
    0.9578   -1.4647    0.8354 H   0  0  0  0  0  0  0  0  0  0  0  0
    4.2020    0.3896   -1.6150 H   0  0  0  0  0  0  0  0  0  0  0  0
    5.0177   -0.8489   -3.6263 H   0  0  0  0  0  0  0  0  0  0  0  0
    4.1622   -4.4070   -4.2106 H   0  0  0  0  0  0  0  0  0  0  0  0
    4.5455   -4.5183   -6.6731 H   0  0  0  0  0  0  0  0  0  0  0  0
    5.9661   -5.0324   -5.7792 H   0  0  0  0  0  0  0  0  0  0  0  0
    7.3721   -3.3312   -7.0417 H   0  0  0  0  0  0  0  0  0  0  0  0
    5.9596   -2.8144   -7.9279 H   0  0  0  0  0  0  0  0  0  0  0  0
    7.7474   -7.6449  -11.8796 H   0  0  0  0  0  0  0  0  0  0  0  0
    7.3876   -9.9909  -12.6219 H   0  0  0  0  0  0  0  0  0  0  0  0
    6.4583  -12.2024  -12.2821 H   0  0  0  0  0  0  0  0  0  0  0  0
    4.8500  -12.1563  -11.5126 H   0  0  0  0  0  0  0  0  0  0  0  0
    6.2545  -12.6724  -10.5724 H   0  0  0  0  0  0  0  0  0  0  0  0
    5.3452   -8.4113   -8.3708 H   0  0  0  0  0  0  0  0  0  0  0  0
    2.1646   -3.1768   -0.2808 H   0  0  0  0  0  0  0  0  0  0  0  0
  1  2  1  0
  1 28  1  0
  1 29  1  0
  1 30  1  0
  2  3  1  0
  3  4  2  0
  3 27  1  0
  4  5  1  0
  4 31  1  0
  5  6  2  0
  5 32  1  0
  6  7  1  0
  6 25  1  0
  7  8  1  0
  7 33  1  0
  8  9  2  0
  8 10  1  0
 10 11  1  0
 10 34  1  0
 10 35  1  0
 11 12  1  0
 11 36  1  0
 11 37  1  0
 12 13  2  0
 12 24  1  0
 13 14  1  0
 14 15  1  0
 14 23  2  0
 15 16  2  0
 15 22  1  0
 16 17  1  0
 16 38  1  0
 17 18  2  0
 17 39  1  0
 18 19  1  0
 18 20  1  0
 19 40  1  0
 19 41  1  0
 19 42  1  0
 20 21  1  0
 20 22  2  0
 22 43  1  0
 23 24  1  0
 25 26  1  0
 25 27  2  0
 27 44  1  0
M  END

