
     RDKit          3D

 75 80  0  0  0  0  0  0  0  0999 V2000
    3.2694   -1.5076   -4.0364 C   0  0  0  0  0  0  0  0  0  0  0  0
    3.1999   -1.6106   -2.6151 O   0  0  0  0  0  0  0  0  0  0  0  0
    4.1086   -0.9766   -1.8631 C   0  0  0  0  0  0  0  0  0  0  0  0
    5.0769   -0.2864   -2.4445 N   0  0  0  0  0  0  0  0  0  0  0  0
    5.9849    0.3289   -1.6828 C   0  0  0  0  0  0  0  0  0  0  0  0
    5.9840    0.2876   -0.2832 C   0  0  0  0  0  0  0  0  0  0  0  0
    6.9908    1.0115    0.5412 C   0  0  0  0  0  0  0  0  0  0  0  0
    6.5328    1.8765    1.5551 C   0  0  0  0  0  0  0  0  0  0  0  0
    7.4111    2.5847    2.3673 C   0  0  0  0  0  0  0  0  0  0  0  0
    8.7927    2.4547    2.1745 C   0  0  0  0  0  0  0  0  0  0  0  0
    9.7076    3.2338    3.0784 C   0  0  0  0  0  0  0  0  0  0  0  0
    9.3484    3.7143    4.1207 O   0  0  0  0  0  0  0  0  0  0  0  0
   10.9859    3.3847    2.6606 O   0  0  0  0  0  0  0  0  0  0  0  0
    9.2553    1.5748    1.1865 C   0  0  0  0  0  0  0  0  0  0  0  0
    8.3873    0.8442    0.3616 C   0  0  0  0  0  0  0  0  0  0  0  0
    8.9720   -0.1131   -0.6519 C   0  0  0  0  0  0  0  0  0  0  0  0
    4.9360   -0.4415    0.3164 C   0  0  0  0  0  0  0  0  0  0  0  0
    3.9648   -1.0846   -0.4504 C   0  0  0  0  0  0  0  0  0  0  0  0
    2.9107   -1.9294    0.1798 C   0  0  0  0  0  0  0  0  0  0  0  0
    3.3237   -3.0116    0.9836 C   0  0  0  0  0  0  0  0  0  0  0  0
    2.4995   -3.8515    1.5990 N   0  0  0  0  0  0  0  0  0  0  0  0
    1.1929   -3.6614    1.4299 C   0  0  0  0  0  0  0  0  0  0  0  0
    0.2954   -4.6582    2.1442 C   0  0  1  0  0  0  0  0  0  0  0  0
    0.5210   -5.9093    1.7239 F   0  0  0  0  0  0  0  0  0  0  0  0
    0.4968   -4.6318    3.4691 F   0  0  0  0  0  0  0  0  0  0  0  0
   -1.0071   -4.3868    1.9288 F   0  0  0  0  0  0  0  0  0  0  0  0
    0.6590   -2.6281    0.6613 C   0  0  0  0  0  0  0  0  0  0  0  0
    1.5214   -1.7242    0.0299 C   0  0  0  0  0  0  0  0  0  0  0  0
    0.9649   -0.5309   -0.7289 C   0  0  2  0  0  0  0  0  0  0  0  0
    1.5244   -0.4387   -1.6680 H   0  0  0  0  0  0  0  0  0  0  0  0
    1.0172    0.7994    0.0973 C   0  0  0  0  0  0  0  0  0  0  0  0
   -0.3007    1.5242   -0.2312 C   0  0  0  0  0  0  0  0  0  0  0  0
   -1.2725    0.3462   -0.3917 C   0  0  1  0  0  0  0  0  0  0  0  0
   -1.5970   -0.0120    0.5995 H   0  0  0  0  0  0  0  0  0  0  0  0
   -2.4952    0.4446   -1.3436 C   0  0  1  0  0  0  0  0  0  0  0  0
   -3.2728   -0.2518   -0.9852 H   0  0  0  0  0  0  0  0  0  0  0  0
   -3.1018    1.8210   -1.5019 C   0  0  0  0  0  0  0  0  0  0  0  0
   -2.9016    2.5817   -2.6566 C   0  0  0  0  0  0  0  0  0  0  0  0
   -3.4468    3.8713   -2.7872 C   0  0  0  0  0  0  0  0  0  0  0  0
   -3.2260    4.6657   -4.0509 C   0  0  0  0  0  0  0  0  0  0  0  0
   -4.1995    4.3871   -1.7267 C   0  0  0  0  0  0  0  0  0  0  0  0
   -4.4133    3.6276   -0.5691 C   0  0  0  0  0  0  0  0  0  0  0  0
   -5.2829    4.1835    0.5326 C   0  0  1  0  0  0  0  0  0  0  0  0
   -5.1006    5.5065    0.6901 F   0  0  0  0  0  0  0  0  0  0  0  0
   -6.5907    3.9976    0.2715 F   0  0  0  0  0  0  0  0  0  0  0  0
   -5.0311    3.5968    1.7165 F   0  0  0  0  0  0  0  0  0  0  0  0
   -3.8724    2.3469   -0.4548 C   0  0  0  0  0  0  0  0  0  0  0  0
   -2.0041   -0.0609   -2.5894 O   0  0  0  0  0  0  0  0  0  0  0  0
   -0.8101   -0.7006   -2.4242 C   0  0  0  0  0  0  0  0  0  0  0  0
   -0.1874   -1.1798   -3.3313 O   0  0  0  0  0  0  0  0  0  0  0  0
   -0.4586   -0.6577   -1.0800 N   0  0  0  0  0  0  0  0  0  0  0  0
    4.1591   -2.0302   -4.4210 H   0  0  0  0  0  0  0  0  0  0  0  0
    3.3186   -0.4556   -4.3532 H   0  0  0  0  0  0  0  0  0  0  0  0
    2.3479   -1.9721   -4.4059 H   0  0  0  0  0  0  0  0  0  0  0  0
    6.7480    0.9053   -2.2164 H   0  0  0  0  0  0  0  0  0  0  0  0
    5.4562    2.0029    1.6931 H   0  0  0  0  0  0  0  0  0  0  0  0
    7.0498    3.2498    3.1536 H   0  0  0  0  0  0  0  0  0  0  0  0
   11.0843    3.0688    1.7518 H   0  0  0  0  0  0  0  0  0  0  0  0
   10.3299    1.4017    1.0660 H   0  0  0  0  0  0  0  0  0  0  0  0
    9.9938   -0.4045   -0.3669 H   0  0  0  0  0  0  0  0  0  0  0  0
    9.0328    0.3365   -1.6572 H   0  0  0  0  0  0  0  0  0  0  0  0
    8.3696   -1.0283   -0.7470 H   0  0  0  0  0  0  0  0  0  0  0  0
    4.8825   -0.5107    1.4061 H   0  0  0  0  0  0  0  0  0  0  0  0
    4.3963   -3.1990    1.1104 H   0  0  0  0  0  0  0  0  0  0  0  0
   -0.4188   -2.5232    0.5451 H   0  0  0  0  0  0  0  0  0  0  0  0
    1.9088    1.3936   -0.1466 H   0  0  0  0  0  0  0  0  0  0  0  0
    1.0603    0.5673    1.1732 H   0  0  0  0  0  0  0  0  0  0  0  0
   -0.2201    2.0761   -1.1819 H   0  0  0  0  0  0  0  0  0  0  0  0
   -0.6048    2.2391    0.5468 H   0  0  0  0  0  0  0  0  0  0  0  0
   -2.3192    2.1530   -3.4749 H   0  0  0  0  0  0  0  0  0  0  0  0
   -2.1539    4.7398   -4.2949 H   0  0  0  0  0  0  0  0  0  0  0  0
   -3.6269    5.6858   -3.9645 H   0  0  0  0  0  0  0  0  0  0  0  0
   -3.7180    4.1819   -4.9113 H   0  0  0  0  0  0  0  0  0  0  0  0
   -4.6258    5.3901   -1.7983 H   0  0  0  0  0  0  0  0  0  0  0  0
   -4.0520    1.7635    0.4510 H   0  0  0  0  0  0  0  0  0  0  0  0
  1  2  1  0
  1 52  1  0
  1 53  1  0
  1 54  1  0
  2  3  1  0
  3  4  2  0
  3 18  1  0
  4  5  1  0
  5  6  2  0
  5 55  1  0
  6  7  1  0
  6 17  1  0
  7  8  2  0
  7 15  1  0
  8  9  1  0
  8 56  1  0
  9 10  2  0
  9 57  1  0
 10 11  1  0
 10 14  1  0
 11 12  2  0
 11 13  1  0
 13 58  1  0
 14 15  2  0
 14 59  1  0
 15 16  1  0
 16 60  1  0
 16 61  1  0
 16 62  1  0
 17 18  2  0
 17 63  1  0
 18 19  1  0
 19 20  2  0
 19 28  1  0
 20 21  1  0
 20 64  1  0
 21 22  2  0
 22 23  1  0
 22 27  1  0
 23 24  1  6
 23 25  1  0
 23 26  1  0
 27 28  2  0
 27 65  1  0
 28 29  1  0
 29 30  1  6
 29 31  1  0
 29 51  1  0
 31 32  1  0
 31 66  1  0
 31 67  1  0
 32 33  1  0
 32 68  1  0
 32 69  1  0
 33 34  1  1
 33 35  1  0
 33 51  1  0
 35 36  1  1
 35 37  1  0
 35 48  1  0
 37 38  2  0
 37 47  1  0
 38 39  1  0
 38 70  1  0
 39 40  1  0
 39 41  2  0
 40 71  1  0
 40 72  1  0
 40 73  1  0
 41 42  1  0
 41 74  1  0
 42 43  1  0
 42 47  2  0
 43 44  1  1
 43 45  1  0
 43 46  1  0
 47 75  1  0
 48 49  1  0
 49 50  2  0
 49 51  1  0
M  END

