
     RDKit          3D

 53 57  0  0  0  0  0  0  0  0999 V2000
    1.5150   -0.7608   -1.0738 C   0  0  0  0  0  0  0  0  0  0  0  0
    2.7329   -0.5751   -0.2999 N   0  0  0  0  0  0  0  0  0  0  0  0
    3.4310    0.5944   -0.1642 C   0  0  0  0  0  0  0  0  0  0  0  0
    3.0320    1.8784   -0.4581 C   0  0  0  0  0  0  0  0  0  0  0  0
    1.6950    2.4194   -0.6229 C   0  0  0  0  0  0  0  0  0  0  0  0
    0.6370    1.8385   -0.4146 O   0  0  0  0  0  0  0  0  0  0  0  0
    1.6679    3.9184   -1.0076 C   0  0  0  0  0  0  0  0  0  0  0  0
    0.3430    4.3652   -1.3988 N   0  0  0  0  0  0  0  0  0  0  0  0
   -0.6322    4.4986   -0.4472 C   0  0  0  0  0  0  0  0  0  0  0  0
   -1.8652    4.8285   -0.6790 N   0  0  0  0  0  0  0  0  0  0  0  0
   -2.1696    5.0201   -1.9859 C   0  0  0  0  0  0  0  0  0  0  0  0
   -3.7659    5.4655   -2.5242 S   0  0  0  0  0  0  0  0  0  0  0  0
   -3.2362    5.4831   -4.2010 C   0  0  0  0  0  0  0  0  0  0  0  0
   -1.9080    5.1564   -4.3398 C   0  0  0  0  0  0  0  0  0  0  0  0
   -1.2906    4.8962   -3.0635 C   0  0  0  0  0  0  0  0  0  0  0  0
    0.0842    4.5170   -2.7935 C   0  0  0  0  0  0  0  0  0  0  0  0
    0.9736    4.3359   -3.6134 O   0  0  0  0  0  0  0  0  0  0  0  0
   -1.1834    5.1027   -5.6639 C   0  0  0  0  0  0  0  0  0  0  0  0
   -2.1226    5.0215   -6.8655 C   0  0  0  0  0  0  0  0  0  0  0  0
   -3.4104    6.3248   -6.8440 S   0  0  0  0  0  0  0  0  0  0  0  0
   -4.2233    5.8051   -5.2871 C   0  0  0  0  0  0  0  0  0  0  0  0
    4.8364    0.2719    0.3909 C   0  0  1  0  0  0  0  0  0  0  0  0
    5.9243    0.5835   -0.6615 C   0  0  0  0  0  0  0  0  0  0  0  0
    5.1082    1.0470    1.6957 C   0  0  0  0  0  0  0  0  0  0  0  0
    4.7285   -1.2227    0.6405 C   0  0  0  0  0  0  0  0  0  0  0  0
    5.6394   -2.1279    1.1705 C   0  0  0  0  0  0  0  0  0  0  0  0
    5.2719   -3.4788    1.2870 C   0  0  0  0  0  0  0  0  0  0  0  0
    4.0062   -3.9019    0.8712 C   0  0  0  0  0  0  0  0  0  0  0  0
    3.0799   -2.9983    0.3300 C   0  0  0  0  0  0  0  0  0  0  0  0
    3.4658   -1.6619    0.2186 C   0  0  0  0  0  0  0  0  0  0  0  0
    1.5117   -0.0586   -1.9169 H   0  0  0  0  0  0  0  0  0  0  0  0
    0.6104   -0.5718   -0.4814 H   0  0  0  0  0  0  0  0  0  0  0  0
    1.5071   -1.7856   -1.4701 H   0  0  0  0  0  0  0  0  0  0  0  0
    3.8321    2.6237   -0.4444 H   0  0  0  0  0  0  0  0  0  0  0  0
    2.3401    4.1040   -1.8552 H   0  0  0  0  0  0  0  0  0  0  0  0
    2.0246    4.5103   -0.1478 H   0  0  0  0  0  0  0  0  0  0  0  0
   -0.3091    4.3180    0.5826 H   0  0  0  0  0  0  0  0  0  0  0  0
   -0.4949    4.2430   -5.6635 H   0  0  0  0  0  0  0  0  0  0  0  0
   -0.5371    5.9932   -5.7543 H   0  0  0  0  0  0  0  0  0  0  0  0
   -2.6165    4.0367   -6.9181 H   0  0  0  0  0  0  0  0  0  0  0  0
   -1.5698    5.1637   -7.8058 H   0  0  0  0  0  0  0  0  0  0  0  0
   -4.8855    4.9433   -5.4870 H   0  0  0  0  0  0  0  0  0  0  0  0
   -4.8731    6.6452   -4.9946 H   0  0  0  0  0  0  0  0  0  0  0  0
    5.9633    1.6616   -0.8818 H   0  0  0  0  0  0  0  0  0  0  0  0
    5.7352    0.0455   -1.6024 H   0  0  0  0  0  0  0  0  0  0  0  0
    6.9128    0.2765   -0.2851 H   0  0  0  0  0  0  0  0  0  0  0  0
    5.1318    2.1321    1.5121 H   0  0  0  0  0  0  0  0  0  0  0  0
    6.0818    0.7515    2.1174 H   0  0  0  0  0  0  0  0  0  0  0  0
    4.3326    0.8428    2.4488 H   0  0  0  0  0  0  0  0  0  0  0  0
    6.6298   -1.7990    1.4966 H   0  0  0  0  0  0  0  0  0  0  0  0
    5.9761   -4.1998    1.7082 H   0  0  0  0  0  0  0  0  0  0  0  0
    3.7262   -4.9534    0.9721 H   0  0  0  0  0  0  0  0  0  0  0  0
    2.0905   -3.3385    0.0209 H   0  0  0  0  0  0  0  0  0  0  0  0
  1  2  1  0
  1 31  1  0
  1 32  1  0
  1 33  1  0
  2  3  1  0
  2 30  1  0
  3  4  2  0
  3 22  1  0
  4  5  1  0
  4 34  1  0
  5  6  2  0
  5  7  1  0
  7  8  1  0
  7 35  1  0
  7 36  1  0
  8  9  1  0
  8 16  1  0
  9 10  2  0
  9 37  1  0
 10 11  1  0
 11 12  2  0
 11 15  1  0
 12 13  1  0
 13 14  2  0
 13 21  1  0
 14 15  1  0
 14 18  1  0
 15 16  2  0
 16 17  1  0
 18 19  1  0
 18 38  1  0
 18 39  1  0
 19 20  1  0
 19 40  1  0
 19 41  1  0
 20 21  1  0
 21 42  1  0
 21 43  1  0
 22 23  1  6
 22 24  1  0
 22 25  1  0
 23 44  1  0
 23 45  1  0
 23 46  1  0
 24 47  1  0
 24 48  1  0
 24 49  1  0
 25 26  2  0
 25 30  1  0
 26 27  1  0
 26 50  1  0
 27 28  2  0
 27 51  1  0
 28 29  1  0
 28 52  1  0
 29 30  2  0
 29 53  1  0
M  CHG  2  12   1  17  -1
M  END

