
     RDKit          3D

123130  0  0  0  0  0  0  0  0999 V2000
    7.4317   -3.7999    3.8402 C   0  0  0  0  0  0  0  0  0  0  0  0
    7.1965   -2.6707    2.8676 C   0  0  0  0  0  0  0  0  0  0  0  0
    6.8641   -1.3859    3.3091 C   0  0  0  0  0  0  0  0  0  0  0  0
    6.6955   -0.3114    2.4233 C   0  0  0  0  0  0  0  0  0  0  0  0
    6.2608    1.0144    3.0124 C   0  0  0  0  0  0  0  0  0  0  0  0
    6.8421   -0.5104    1.0212 C   0  0  0  0  0  0  0  0  0  0  0  0
    6.6240    0.6752   -0.0080 B   0  0  0  0  0  0  0  0  0  0  0  0
    7.3629    2.0639    0.1361 C   0  0  0  0  0  0  0  0  0  0  0  0
    6.6428    3.2697   -0.1577 C   0  0  0  0  0  0  0  0  0  0  0  0
    7.3444    4.4448    0.0124 C   0  0  0  0  0  0  0  0  0  0  0  0
    6.8851    5.8290   -0.1706 C   0  0  0  0  0  0  0  0  0  0  0  0
    5.5152    6.1302   -0.2717 C   0  0  0  0  0  0  0  0  0  0  0  0
    5.0712    7.4398   -0.4621 C   0  0  0  0  0  0  0  0  0  0  0  0
    5.9657    8.5187   -0.5540 C   0  0  0  0  0  0  0  0  0  0  0  0
    5.5111    9.9755   -0.7618 C   0  0  1  0  0  0  0  0  0  0  0  0
    3.9796   10.0991   -0.8559 C   0  0  0  0  0  0  0  0  0  0  0  0
    5.9937   10.8393    0.4268 C   0  0  0  0  0  0  0  0  0  0  0  0
    6.1214   10.5213   -2.0739 C   0  0  0  0  0  0  0  0  0  0  0  0
    7.3354    8.2124   -0.4446 C   0  0  0  0  0  0  0  0  0  0  0  0
    7.7864    6.9083   -0.2604 C   0  0  0  0  0  0  0  0  0  0  0  0
    8.9759    4.0785    0.5031 S   0  0  0  0  0  0  0  0  0  0  0  0
    8.6745    2.3603    0.5418 C   0  0  0  0  0  0  0  0  0  0  0  0
    9.8138    1.4678    0.7743 C   0  0  0  0  0  0  0  0  0  0  0  0
   10.0838    0.2386   -0.4460 S   0  0  0  0  0  0  0  0  0  0  0  0
   11.5469   -0.3360    0.3002 C   0  0  0  0  0  0  0  0  0  0  0  0
   12.3184   -1.4544   -0.2589 C   0  0  0  0  0  0  0  0  0  0  0  0
   12.1503   -1.8863   -1.5853 C   0  0  0  0  0  0  0  0  0  0  0  0
   12.8953   -2.9468   -2.1056 C   0  0  0  0  0  0  0  0  0  0  0  0
   13.8494   -3.6265   -1.3325 C   0  0  0  0  0  0  0  0  0  0  0  0
   14.6928   -4.7967   -1.8722 C   0  0  1  0  0  0  0  0  0  0  0  0
   14.3646   -5.1215   -3.3406 C   0  0  0  0  0  0  0  0  0  0  0  0
   16.1931   -4.4325   -1.7809 C   0  0  0  0  0  0  0  0  0  0  0  0
   14.4187   -6.0611   -1.0246 C   0  0  0  0  0  0  0  0  0  0  0  0
   14.0140   -3.1884   -0.0037 C   0  0  0  0  0  0  0  0  0  0  0  0
   13.2708   -2.1373    0.5243 C   0  0  0  0  0  0  0  0  0  0  0  0
   11.8089    0.4149    1.4240 C   0  0  0  0  0  0  0  0  0  0  0  0
   10.8442    1.4345    1.7138 C   0  0  0  0  0  0  0  0  0  0  0  0
   11.3026    2.3929    3.2194 P   0  0  1  0  0  0  0  0  0  0  0  0
   12.7088    2.9257    3.1110 O   0  0  0  0  0  0  0  0  0  0  0  0
   10.1298    3.7357    3.6235 C   0  0  0  0  0  0  0  0  0  0  0  0
    8.8364    3.5301    4.1245 C   0  0  0  0  0  0  0  0  0  0  0  0
    8.0308    4.6230    4.4522 C   0  0  0  0  0  0  0  0  0  0  0  0
    8.5177    5.9251    4.2946 C   0  0  0  0  0  0  0  0  0  0  0  0
    9.8168    6.1330    3.8211 C   0  0  0  0  0  0  0  0  0  0  0  0
   10.6246    5.0424    3.4900 C   0  0  0  0  0  0  0  0  0  0  0  0
   11.1454    1.1662    4.5758 C   0  0  0  0  0  0  0  0  0  0  0  0
   12.0910    1.2599    5.6094 C   0  0  0  0  0  0  0  0  0  0  0  0
   12.0351    0.3786    6.6923 C   0  0  0  0  0  0  0  0  0  0  0  0
   11.0399   -0.6027    6.7468 C   0  0  0  0  0  0  0  0  0  0  0  0
   10.1043   -0.7073    5.7122 C   0  0  0  0  0  0  0  0  0  0  0  0
   10.1569    0.1713    4.6259 C   0  0  0  0  0  0  0  0  0  0  0  0
    5.5695    0.5463   -1.1932 C   0  0  0  0  0  0  0  0  0  0  0  0
    5.9252    0.8589   -2.5367 C   0  0  0  0  0  0  0  0  0  0  0  0
    7.3123    1.3224   -2.9338 C   0  0  0  0  0  0  0  0  0  0  0  0
    4.9824    0.7218   -3.5668 C   0  0  0  0  0  0  0  0  0  0  0  0
    3.6690    0.3117   -3.3265 C   0  0  0  0  0  0  0  0  0  0  0  0
    2.6635    0.1776   -4.4432 C   0  0  0  0  0  0  0  0  0  0  0  0
    3.3158    0.0219   -2.0032 C   0  0  0  0  0  0  0  0  0  0  0  0
    4.2314    0.1148   -0.9480 C   0  0  0  0  0  0  0  0  0  0  0  0
    3.7290   -0.2376    0.4371 C   0  0  0  0  0  0  0  0  0  0  0  0
    7.1318   -1.8291    0.5658 C   0  0  0  0  0  0  0  0  0  0  0  0
    7.2370   -2.1743   -0.9046 C   0  0  0  0  0  0  0  0  0  0  0  0
    7.3223   -2.8661    1.4879 C   0  0  0  0  0  0  0  0  0  0  0  0
    6.9085   -3.6303    4.7938 H   0  0  0  0  0  0  0  0  0  0  0  0
    8.5070   -3.9068    4.0692 H   0  0  0  0  0  0  0  0  0  0  0  0
    7.0934   -4.7646    3.4307 H   0  0  0  0  0  0  0  0  0  0  0  0
    6.7236   -1.2114    4.3806 H   0  0  0  0  0  0  0  0  0  0  0  0
    6.3221    0.9941    4.1107 H   0  0  0  0  0  0  0  0  0  0  0  0
    5.2122    1.2426    2.7550 H   0  0  0  0  0  0  0  0  0  0  0  0
    6.8608    1.8567    2.6472 H   0  0  0  0  0  0  0  0  0  0  0  0
    5.6064    3.2515   -0.4958 H   0  0  0  0  0  0  0  0  0  0  0  0
    4.7761    5.3310   -0.1878 H   0  0  0  0  0  0  0  0  0  0  0  0
    3.9965    7.6089   -0.5319 H   0  0  0  0  0  0  0  0  0  0  0  0
    3.4816    9.7516    0.0629 H   0  0  0  0  0  0  0  0  0  0  0  0
    3.5721    9.5266   -1.7039 H   0  0  0  0  0  0  0  0  0  0  0  0
    3.6991   11.1537   -1.0045 H   0  0  0  0  0  0  0  0  0  0  0  0
    5.5691   10.4767    1.3765 H   0  0  0  0  0  0  0  0  0  0  0  0
    5.6815   11.8882    0.2925 H   0  0  0  0  0  0  0  0  0  0  0  0
    7.0899   10.8286    0.5245 H   0  0  0  0  0  0  0  0  0  0  0  0
    5.7909    9.9268   -2.9404 H   0  0  0  0  0  0  0  0  0  0  0  0
    7.2218   10.5016   -2.0550 H   0  0  0  0  0  0  0  0  0  0  0  0
    5.8096   11.5660   -2.2382 H   0  0  0  0  0  0  0  0  0  0  0  0
    8.0790    9.0103   -0.5096 H   0  0  0  0  0  0  0  0  0  0  0  0
    8.8620    6.7249   -0.1951 H   0  0  0  0  0  0  0  0  0  0  0  0
   11.4340   -1.3773   -2.2356 H   0  0  0  0  0  0  0  0  0  0  0  0
   12.7209   -3.2334   -3.1428 H   0  0  0  0  0  0  0  0  0  0  0  0
   14.5657   -4.2670   -4.0057 H   0  0  0  0  0  0  0  0  0  0  0  0
   13.3117   -5.4171   -3.4712 H   0  0  0  0  0  0  0  0  0  0  0  0
   14.9883   -5.9614   -3.6849 H   0  0  0  0  0  0  0  0  0  0  0  0
   16.4191   -3.5360   -2.3799 H   0  0  0  0  0  0  0  0  0  0  0  0
   16.8140   -5.2612   -2.1596 H   0  0  0  0  0  0  0  0  0  0  0  0
   16.5049   -4.2296   -0.7450 H   0  0  0  0  0  0  0  0  0  0  0  0
   13.3562   -6.3478   -1.0751 H   0  0  0  0  0  0  0  0  0  0  0  0
   14.6744   -5.9095    0.0351 H   0  0  0  0  0  0  0  0  0  0  0  0
   15.0185   -6.9093   -1.3940 H   0  0  0  0  0  0  0  0  0  0  0  0
   14.7381   -3.6845    0.6468 H   0  0  0  0  0  0  0  0  0  0  0  0
   13.4218   -1.8508    1.5670 H   0  0  0  0  0  0  0  0  0  0  0  0
   12.6994    0.2732    2.0368 H   0  0  0  0  0  0  0  0  0  0  0  0
    8.4550    2.5180    4.2676 H   0  0  0  0  0  0  0  0  0  0  0  0
    7.0212    4.4581    4.8370 H   0  0  0  0  0  0  0  0  0  0  0  0
    7.8854    6.7789    4.5515 H   0  0  0  0  0  0  0  0  0  0  0  0
   10.2044    7.1494    3.7133 H   0  0  0  0  0  0  0  0  0  0  0  0
   11.6475    5.1817    3.1330 H   0  0  0  0  0  0  0  0  0  0  0  0
   12.8731    2.0202    5.5423 H   0  0  0  0  0  0  0  0  0  0  0  0
   12.7748    0.4543    7.4937 H   0  0  0  0  0  0  0  0  0  0  0  0
   10.9985   -1.2936    7.5931 H   0  0  0  0  0  0  0  0  0  0  0  0
    9.3343   -1.4824    5.7432 H   0  0  0  0  0  0  0  0  0  0  0  0
    9.4356    0.0618    3.8119 H   0  0  0  0  0  0  0  0  0  0  0  0
    8.1108    0.7334   -2.4612 H   0  0  0  0  0  0  0  0  0  0  0  0
    7.4861    2.3719   -2.6484 H   0  0  0  0  0  0  0  0  0  0  0  0
    7.4483    1.2487   -4.0230 H   0  0  0  0  0  0  0  0  0  0  0  0
    5.2883    0.9481   -4.5929 H   0  0  0  0  0  0  0  0  0  0  0  0
    3.0857    0.4901   -5.4097 H   0  0  0  0  0  0  0  0  0  0  0  0
    1.7672    0.7909   -4.2510 H   0  0  0  0  0  0  0  0  0  0  0  0
    2.3191   -0.8654   -4.5478 H   0  0  0  0  0  0  0  0  0  0  0  0
    2.2909   -0.2941   -1.7839 H   0  0  0  0  0  0  0  0  0  0  0  0
    2.6425   -0.4076    0.4239 H   0  0  0  0  0  0  0  0  0  0  0  0
    3.9258    0.5622    1.1673 H   0  0  0  0  0  0  0  0  0  0  0  0
    4.2076   -1.1482    0.8277 H   0  0  0  0  0  0  0  0  0  0  0  0
    7.8687   -1.4661   -1.4591 H   0  0  0  0  0  0  0  0  0  0  0  0
    6.2480   -2.1653   -1.3894 H   0  0  0  0  0  0  0  0  0  0  0  0
    7.6681   -3.1773   -1.0395 H   0  0  0  0  0  0  0  0  0  0  0  0
    7.5701   -3.8643    1.1134 H   0  0  0  0  0  0  0  0  0  0  0  0
  1  2  1  0
  1 64  1  0
  1 65  1  0
  1 66  1  0
  2  3  2  0
  2 63  1  0
  3  4  1  0
  3 67  1  0
  4  5  1  0
  4  6  2  0
  5 68  1  0
  5 69  1  0
  5 70  1  0
  6  7  1  0
  6 61  1  0
  7  8  1  0
  7 52  1  0
  8  9  2  0
  8 22  1  0
  9 10  1  0
  9 71  1  0
 10 11  1  0
 10 21  2  0
 11 12  2  0
 11 20  1  0
 12 13  1  0
 12 72  1  0
 13 14  2  0
 13 73  1  0
 14 15  1  0
 14 19  1  0
 15 16  1  6
 15 17  1  0
 15 18  1  0
 16 74  1  0
 16 75  1  0
 16 76  1  0
 17 77  1  0
 17 78  1  0
 17 79  1  0
 18 80  1  0
 18 81  1  0
 18 82  1  0
 19 20  2  0
 19 83  1  0
 20 84  1  0
 21 22  1  0
 22 23  2  0
 23 24  1  0
 23 37  1  0
 24 25  1  0
 25 26  1  0
 25 36  2  0
 26 27  2  0
 26 35  1  0
 27 28  1  0
 27 85  1  0
 28 29  2  0
 28 86  1  0
 29 30  1  0
 29 34  1  0
 30 31  1  6
 30 32  1  0
 30 33  1  0
 31 87  1  0
 31 88  1  0
 31 89  1  0
 32 90  1  0
 32 91  1  0
 32 92  1  0
 33 93  1  0
 33 94  1  0
 33 95  1  0
 34 35  2  0
 34 96  1  0
 35 97  1  0
 36 37  1  0
 36 98  1  0
 37 38  2  0
 38 39  1  6
 38 40  1  0
 38 46  1  0
 40 41  2  0
 40 45  1  0
 41 42  1  0
 41 99  1  0
 42 43  2  0
 42100  1  0
 43 44  1  0
 43101  1  0
 44 45  2  0
 44102  1  0
 45103  1  0
 46 47  2  0
 46 51  1  0
 47 48  1  0
 47104  1  0
 48 49  2  0
 48105  1  0
 49 50  1  0
 49106  1  0
 50 51  2  0
 50107  1  0
 51108  1  0
 52 53  2  0
 52 59  1  0
 53 54  1  0
 53 55  1  0
 54109  1  0
 54110  1  0
 54111  1  0
 55 56  2  0
 55112  1  0
 56 57  1  0
 56 58  1  0
 57113  1  0
 57114  1  0
 57115  1  0
 58 59  2  0
 58116  1  0
 59 60  1  0
 60117  1  0
 60118  1  0
 60119  1  0
 61 62  1  0
 61 63  2  0
 62120  1  0
 62121  1  0
 62122  1  0
 63123  1  0
M  CHG  2  21   1  39  -1
M  END

