
     RDKit          3D

 30 32  0  0  0  0  0  0  0  0999 V2000
    0.9494   -0.1343    0.2801 C   0  0  0  0  0  0  0  0  0  0  0  0
    2.4493   -0.1265    0.1350 C   0  0  0  0  0  0  0  0  0  0  0  0
    3.1307    1.1197   -0.0843 C   0  0  0  0  0  0  0  0  0  0  0  0
    4.4909    1.1744   -0.2080 C   0  0  0  0  0  0  0  0  0  0  0  0
    5.2160    0.0129   -0.1191 N   0  0  0  0  0  0  0  0  0  0  0  0
    6.5792   -0.2104   -0.1936 C   0  0  0  0  0  0  0  0  0  0  0  0
    7.4570    0.8517   -0.4463 N   0  0  0  0  0  0  0  0  0  0  0  0
    6.7228   -1.5963   -0.0759 C   0  0  0  0  0  0  0  0  0  0  0  0
    8.0056   -2.3304   -0.0855 C   0  0  0  0  0  0  0  0  0  0  0  0
    9.0757   -1.8671    0.7045 C   0  0  0  0  0  0  0  0  0  0  0  0
   10.3112   -2.5114    0.7505 C   0  0  0  0  0  0  0  0  0  0  0  0
   10.4945   -3.6663   -0.0129 C   0  0  0  0  0  0  0  0  0  0  0  0
   12.1673   -4.5788    0.0334 Br  0  0  0  0  0  0  0  0  0  0  0  0
    9.4660   -4.1620   -0.8141 C   0  0  0  0  0  0  0  0  0  0  0  0
    8.2365   -3.4942   -0.8513 C   0  0  0  0  0  0  0  0  0  0  0  0
    7.0194   -4.1356   -1.9234 Cl  0  0  0  0  0  0  0  0  0  0  0  0
    5.5114   -2.2100    0.0723 N   0  0  0  0  0  0  0  0  0  0  0  0
    4.6085   -1.2419    0.0617 C   0  0  0  0  0  0  0  0  0  0  0  0
    3.1966   -1.2838    0.2014 C   0  0  0  0  0  0  0  0  0  0  0  0
    0.6283    0.4774    1.1406 H   0  0  0  0  0  0  0  0  0  0  0  0
    0.5631   -1.1531    0.4262 H   0  0  0  0  0  0  0  0  0  0  0  0
    0.4601    0.2904   -0.6131 H   0  0  0  0  0  0  0  0  0  0  0  0
    2.5590    2.0471   -0.1598 H   0  0  0  0  0  0  0  0  0  0  0  0
    5.0664    2.0830   -0.3883 H   0  0  0  0  0  0  0  0  0  0  0  0
    8.2708    0.5605   -0.9827 H   0  0  0  0  0  0  0  0  0  0  0  0
    7.7779    1.3331    0.3951 H   0  0  0  0  0  0  0  0  0  0  0  0
    8.9202   -0.9788    1.3204 H   0  0  0  0  0  0  0  0  0  0  0  0
   11.1153   -2.1303    1.3814 H   0  0  0  0  0  0  0  0  0  0  0  0
    9.6092   -5.0565   -1.4198 H   0  0  0  0  0  0  0  0  0  0  0  0
    2.7360   -2.2612    0.3550 H   0  0  0  0  0  0  0  0  0  0  0  0
  1  2  1  0
  1 20  1  0
  1 21  1  0
  1 22  1  0
  2  3  1  0
  2 19  2  0
  3  4  2  0
  3 23  1  0
  4  5  1  0
  4 24  1  0
  5  6  1  0
  5 18  1  0
  6  7  1  0
  6  8  2  0
  7 25  1  0
  7 26  1  0
  8  9  1  0
  8 17  1  0
  9 10  2  0
  9 15  1  0
 10 11  1  0
 10 27  1  0
 11 12  2  0
 11 28  1  0
 12 13  1  0
 12 14  1  0
 14 15  2  0
 14 29  1  0
 15 16  1  0
 17 18  2  0
 18 19  1  0
 19 30  1  0
M  END

