
     RDKit          3D

 46 48  0  0  0  0  0  0  0  0999 V2000
    0.9193   -0.7988   -0.5435 C   0  0  0  0  0  0  0  0  0  0  0  0
    2.2169   -0.1133   -0.0637 C   0  0  1  0  0  0  0  0  0  0  0  0
    1.8653    1.2034    0.6888 C   0  0  0  0  0  0  0  0  0  0  0  0
    1.2548    2.2077   -0.1541 N   0  0  0  0  0  0  0  0  0  0  0  0
   -0.0622    2.5448   -0.0714 C   0  0  0  0  0  0  0  0  0  0  0  0
   -0.8659    2.0022    0.6721 O   0  0  0  0  0  0  0  0  0  0  0  0
   -0.4905    3.6471   -1.0205 C   0  0  1  0  0  0  0  0  0  0  0  0
    0.5412    4.3375   -1.6775 O   0  0  0  0  0  0  0  0  0  0  0  0
    1.1656    5.3944   -1.0568 C   0  0  0  0  0  0  0  0  0  0  0  0
    0.9851    5.7376    0.2899 C   0  0  0  0  0  0  0  0  0  0  0  0
    1.6928    6.8229    0.8202 C   0  0  0  0  0  0  0  0  0  0  0  0
    2.5731    7.5629    0.0285 C   0  0  0  0  0  0  0  0  0  0  0  0
    2.7472    7.2098   -1.3152 C   0  0  0  0  0  0  0  0  0  0  0  0
    2.0482    6.1331   -1.8590 C   0  0  0  0  0  0  0  0  0  0  0  0
   -1.7135    3.3675   -1.8644 C   0  0  0  0  0  0  0  0  0  0  0  0
   -1.7908    4.3588   -0.7415 C   0  0  0  0  0  0  0  0  0  0  0  0
    2.8613   -1.0739    0.9648 C   0  0  0  0  0  0  0  0  0  0  0  0
    2.7584   -0.9460    2.1545 O   0  0  0  0  0  0  0  0  0  0  0  0
    3.5166   -2.1324    0.4435 O   0  0  0  0  0  0  0  0  0  0  0  0
    3.2074    0.1783   -1.2020 C   0  0  0  0  0  0  0  0  0  0  0  0
    2.8590    0.0834   -2.5592 C   0  0  0  0  0  0  0  0  0  0  0  0
    3.7828    0.3945   -3.5646 C   0  0  0  0  0  0  0  0  0  0  0  0
    5.0742    0.8066   -3.2335 C   0  0  0  0  0  0  0  0  0  0  0  0
    5.4388    0.9060   -1.8862 C   0  0  0  0  0  0  0  0  0  0  0  0
    4.5157    0.5984   -0.8864 C   0  0  0  0  0  0  0  0  0  0  0  0
    0.2766   -1.0262    0.3185 H   0  0  0  0  0  0  0  0  0  0  0  0
    1.1260   -1.7372   -1.0803 H   0  0  0  0  0  0  0  0  0  0  0  0
    0.3510   -0.1365   -1.2114 H   0  0  0  0  0  0  0  0  0  0  0  0
    2.7769    1.6121    1.1511 H   0  0  0  0  0  0  0  0  0  0  0  0
    1.1623    0.9743    1.4988 H   0  0  0  0  0  0  0  0  0  0  0  0
    1.8212    2.6968   -0.8383 H   0  0  0  0  0  0  0  0  0  0  0  0
    0.3045    5.1701    0.9245 H   0  0  0  0  0  0  0  0  0  0  0  0
    1.5491    7.0862    1.8714 H   0  0  0  0  0  0  0  0  0  0  0  0
    3.1203    8.4077    0.4530 H   0  0  0  0  0  0  0  0  0  0  0  0
    3.4320    7.7803   -1.9482 H   0  0  0  0  0  0  0  0  0  0  0  0
    2.1673    5.8442   -2.9054 H   0  0  0  0  0  0  0  0  0  0  0  0
   -2.1943    2.3953   -1.7318 H   0  0  0  0  0  0  0  0  0  0  0  0
   -1.6727    3.7500   -2.8875 H   0  0  0  0  0  0  0  0  0  0  0  0
   -2.3134    4.0625    0.1708 H   0  0  0  0  0  0  0  0  0  0  0  0
   -1.8255    5.4211   -0.9953 H   0  0  0  0  0  0  0  0  0  0  0  0
    3.5907   -2.0357   -0.5191 H   0  0  0  0  0  0  0  0  0  0  0  0
    1.8563   -0.2336   -2.8480 H   0  0  0  0  0  0  0  0  0  0  0  0
    3.4849    0.3132   -4.6130 H   0  0  0  0  0  0  0  0  0  0  0  0
    5.7951    1.0474   -4.0187 H   0  0  0  0  0  0  0  0  0  0  0  0
    6.4477    1.2245   -1.6121 H   0  0  0  0  0  0  0  0  0  0  0  0
    4.8211    0.6789    0.1609 H   0  0  0  0  0  0  0  0  0  0  0  0
  1  2  1  0
  1 26  1  0
  1 27  1  0
  1 28  1  0
  2  3  1  0
  2 17  1  1
  2 20  1  0
  3  4  1  0
  3 29  1  0
  3 30  1  0
  4  5  1  0
  4 31  1  0
  5  6  2  0
  5  7  1  0
  7  8  1  6
  7 15  1  0
  7 16  1  0
  8  9  1  0
  9 10  2  0
  9 14  1  0
 10 11  1  0
 10 32  1  0
 11 12  2  0
 11 33  1  0
 12 13  1  0
 12 34  1  0
 13 14  2  0
 13 35  1  0
 14 36  1  0
 15 16  1  0
 15 37  1  0
 15 38  1  0
 16 39  1  0
 16 40  1  0
 17 18  2  0
 17 19  1  0
 19 41  1  0
 20 21  2  0
 20 25  1  0
 21 22  1  0
 21 42  1  0
 22 23  2  0
 22 43  1  0
 23 24  1  0
 23 44  1  0
 24 25  2  0
 24 45  1  0
 25 46  1  0
M  END

