
     RDKit          3D

 60 63  0  0  0  0  0  0  0  0999 V2000
    1.4037   -0.4457   -0.2284 C   0  0  0  0  0  0  0  0  0  0  0  0
    2.9199   -0.4741   -0.0360 C   0  0  0  0  0  0  0  0  0  0  0  0
    3.3897    0.4000    1.1303 C   0  0  0  0  0  0  0  0  0  0  0  0
    4.8908    0.3800    1.3187 C   0  0  1  0  0  0  0  0  0  0  0  0
    5.5186    0.8585    0.1911 F   0  0  0  0  0  0  0  0  0  0  0  0
    5.2285    1.2429    2.3845 O   0  0  0  0  0  0  0  0  0  0  0  0
    6.3405    0.9472    3.1077 C   0  0  0  0  0  0  0  0  0  0  0  0
    6.9215   -0.1070    3.0456 O   0  0  0  0  0  0  0  0  0  0  0  0
    6.6972    1.9908    3.9502 N   0  0  0  0  0  0  0  0  0  0  0  0
    6.2038    3.3273    4.0000 C   0  0  0  0  0  0  0  0  0  0  0  0
    5.2019    3.8909    3.0405 C   0  0  0  0  0  0  0  0  0  0  0  0
    6.8172    3.9836    5.0415 C   0  0  0  0  0  0  0  0  0  0  0  0
    6.6199    5.4159    5.4543 C   0  0  0  0  0  0  0  0  0  0  0  0
    7.5980    6.3924    4.7768 C   0  0  0  0  0  0  0  0  0  0  0  0
    7.4738    6.4033    3.3718 O   0  0  0  0  0  0  0  0  0  0  0  0
    7.7456    3.0613    5.6651 C   0  0  0  0  0  0  0  0  0  0  0  0
    8.6192    3.2069    6.7584 C   0  0  0  0  0  0  0  0  0  0  0  0
    9.3993    2.1101    7.1359 C   0  0  0  0  0  0  0  0  0  0  0  0
   10.2823    2.1204    8.1736 O   0  0  0  0  0  0  0  0  0  0  0  0
   10.4429    3.2953    8.9340 C   0  0  0  0  0  0  0  0  0  0  0  0
   11.4677    3.0810   10.0286 C   0  0  0  0  0  0  0  0  0  0  0  0
   12.1505    1.8426   10.1826 C   0  0  0  0  0  0  0  0  0  0  0  0
   13.0713    1.7213   11.1992 C   0  0  0  0  0  0  0  0  0  0  0  0
   13.3188    2.8206   12.0630 C   0  0  0  0  0  0  0  0  0  0  0  0
   14.2507    2.7840   13.1368 C   0  0  0  0  0  0  0  0  0  0  0  0
   14.4400    3.8913   13.9366 C   0  0  0  0  0  0  0  0  0  0  0  0
   13.7053    5.0822   13.6964 C   0  0  0  0  0  0  0  0  0  0  0  0
   12.7946    5.1490   12.6634 C   0  0  0  0  0  0  0  0  0  0  0  0
   12.5758    4.0236   11.8194 C   0  0  0  0  0  0  0  0  0  0  0  0
   11.6707    4.1212   10.8097 N   0  0  0  0  0  0  0  0  0  0  0  0
    9.3058    0.8895    6.4297 C   0  0  0  0  0  0  0  0  0  0  0  0
    8.4444    0.7363    5.3485 C   0  0  0  0  0  0  0  0  0  0  0  0
    7.6625    1.8367    4.9733 C   0  0  0  0  0  0  0  0  0  0  0  0
    1.0964   -1.0798   -1.0745 H   0  0  0  0  0  0  0  0  0  0  0  0
    1.0447    0.5771   -0.4313 H   0  0  0  0  0  0  0  0  0  0  0  0
    0.8761   -0.8089    0.6694 H   0  0  0  0  0  0  0  0  0  0  0  0
    3.4232   -0.1361   -0.9568 H   0  0  0  0  0  0  0  0  0  0  0  0
    3.2543   -1.5141    0.1307 H   0  0  0  0  0  0  0  0  0  0  0  0
    2.9297    0.0656    2.0756 H   0  0  0  0  0  0  0  0  0  0  0  0
    3.0809    1.4483    0.9767 H   0  0  0  0  0  0  0  0  0  0  0  0
    5.2958   -0.6229    1.5192 H   0  0  0  0  0  0  0  0  0  0  0  0
    5.4749    3.6830    1.9960 H   0  0  0  0  0  0  0  0  0  0  0  0
    5.1623    4.9796    3.1668 H   0  0  0  0  0  0  0  0  0  0  0  0
    4.1957    3.4702    3.1931 H   0  0  0  0  0  0  0  0  0  0  0  0
    6.7405    5.5007    6.5481 H   0  0  0  0  0  0  0  0  0  0  0  0
    5.5923    5.7424    5.2298 H   0  0  0  0  0  0  0  0  0  0  0  0
    8.6357    6.1585    5.0897 H   0  0  0  0  0  0  0  0  0  0  0  0
    7.3812    7.4181    5.1168 H   0  0  0  0  0  0  0  0  0  0  0  0
    7.7323    5.5285    3.0494 H   0  0  0  0  0  0  0  0  0  0  0  0
    8.6746    4.1567    7.2889 H   0  0  0  0  0  0  0  0  0  0  0  0
    9.4877    3.6027    9.4005 H   0  0  0  0  0  0  0  0  0  0  0  0
   10.7753    4.1383    8.2986 H   0  0  0  0  0  0  0  0  0  0  0  0
   11.9330    1.0224    9.4996 H   0  0  0  0  0  0  0  0  0  0  0  0
   13.6169    0.7852   11.3504 H   0  0  0  0  0  0  0  0  0  0  0  0
   14.8139    1.8639   13.3170 H   0  0  0  0  0  0  0  0  0  0  0  0
   15.1577    3.8566   14.7600 H   0  0  0  0  0  0  0  0  0  0  0  0
   13.8666    5.9516   14.3391 H   0  0  0  0  0  0  0  0  0  0  0  0
   12.2180    6.0533   12.4591 H   0  0  0  0  0  0  0  0  0  0  0  0
    9.9360    0.0601    6.7559 H   0  0  0  0  0  0  0  0  0  0  0  0
    8.3847   -0.2056    4.8088 H   0  0  0  0  0  0  0  0  0  0  0  0
  1  2  1  0
  1 34  1  0
  1 35  1  0
  1 36  1  0
  2  3  1  0
  2 37  1  0
  2 38  1  0
  3  4  1  0
  3 39  1  0
  3 40  1  0
  4  5  1  0
  4  6  1  0
  4 41  1  1
  6  7  1  0
  7  8  2  0
  7  9  1  0
  9 10  1  0
  9 33  1  0
 10 11  1  0
 10 12  2  0
 11 42  1  0
 11 43  1  0
 11 44  1  0
 12 13  1  0
 12 16  1  0
 13 14  1  0
 13 45  1  0
 13 46  1  0
 14 15  1  0
 14 47  1  0
 14 48  1  0
 15 49  1  0
 16 17  1  0
 16 33  2  0
 17 18  2  0
 17 50  1  0
 18 19  1  0
 18 31  1  0
 19 20  1  0
 20 21  1  0
 20 51  1  0
 20 52  1  0
 21 22  2  0
 21 30  1  0
 22 23  1  0
 22 53  1  0
 23 24  2  0
 23 54  1  0
 24 25  1  0
 24 29  1  0
 25 26  2  0
 25 55  1  0
 26 27  1  0
 26 56  1  0
 27 28  2  0
 27 57  1  0
 28 29  1  0
 28 58  1  0
 29 30  2  0
 31 32  2  0
 31 59  1  0
 32 33  1  0
 32 60  1  0
M  END

