
     RDKit          3D

 29 29  0  0  0  0  0  0  0  0999 V2000
    0.9188    3.7994   -0.0428 C   0  0  0  0  0  0  0  0  0  0  0  0
    2.3598    4.0908   -0.3692 C   0  0  0  0  0  0  0  0  0  0  0  0
    2.5858    5.2917   -1.2454 C   0  0  0  0  0  0  0  0  0  0  0  0
    3.3327    3.2894    0.1229 C   0  0  0  0  0  0  0  0  0  0  0  0
    4.7890    3.4201   -0.0904 C   0  0  0  0  0  0  0  0  0  0  0  0
    5.3642    4.2779   -0.7452 O   0  0  0  0  0  0  0  0  0  0  0  0
    5.4434    2.4356    0.5509 O   0  0  0  0  0  0  0  0  0  0  0  0
    6.9035    2.3991    0.4768 C   0  0  1  0  0  0  0  0  0  0  0  0
    7.3285    2.4567   -0.8420 O   0  0  0  0  0  0  0  0  0  0  0  0
    7.5409    3.4922    1.3580 C   0  0  0  0  0  0  0  0  0  0  0  0
    8.9217    2.8999    1.6590 C   0  0  0  0  0  0  0  0  0  0  0  0
    8.6164    1.4166    1.9587 C   0  0  0  0  0  0  0  0  0  0  0  0
    7.3783    1.0690    1.0916 C   0  0  0  0  0  0  0  0  0  0  0  0
    0.4555    4.6638    0.4648 H   0  0  0  0  0  0  0  0  0  0  0  0
    0.8030    2.9147    0.5991 H   0  0  0  0  0  0  0  0  0  0  0  0
    0.3388    3.6387   -0.9686 H   0  0  0  0  0  0  0  0  0  0  0  0
    2.0386    5.1664   -2.1965 H   0  0  0  0  0  0  0  0  0  0  0  0
    3.6458    5.4627   -1.4568 H   0  0  0  0  0  0  0  0  0  0  0  0
    2.1597    6.1895   -0.7635 H   0  0  0  0  0  0  0  0  0  0  0  0
    3.0534    2.4401    0.7508 H   0  0  0  0  0  0  0  0  0  0  0  0
    7.0079    3.3104   -1.1871 H   0  0  0  0  0  0  0  0  0  0  0  0
    6.9536    3.5906    2.2867 H   0  0  0  0  0  0  0  0  0  0  0  0
    7.5588    4.4703    0.8572 H   0  0  0  0  0  0  0  0  0  0  0  0
    9.4440    3.4105    2.4825 H   0  0  0  0  0  0  0  0  0  0  0  0
    9.5530    2.9824    0.7598 H   0  0  0  0  0  0  0  0  0  0  0  0
    8.3758    1.2949    3.0275 H   0  0  0  0  0  0  0  0  0  0  0  0
    9.4754    0.7615    1.7504 H   0  0  0  0  0  0  0  0  0  0  0  0
    6.5637    0.6329    1.6860 H   0  0  0  0  0  0  0  0  0  0  0  0
    7.6069    0.3745    0.2712 H   0  0  0  0  0  0  0  0  0  0  0  0
  1  2  1  0
  1 14  1  0
  1 15  1  0
  1 16  1  0
  2  3  1  0
  2  4  2  0
  3 17  1  0
  3 18  1  0
  3 19  1  0
  4  5  1  0
  4 20  1  0
  5  6  2  0
  5  7  1  0
  8  7  1  6
  8  9  1  0
  8 10  1  0
  8 13  1  0
  9 21  1  0
 10 11  1  0
 10 22  1  0
 10 23  1  0
 11 12  1  0
 11 24  1  0
 11 25  1  0
 12 13  1  0
 12 26  1  0
 12 27  1  0
 13 28  1  0
 13 29  1  0
M  END

