
     RDKit          3D

 45 46  0  0  0  0  0  0  0  0999 V2000
    2.7748   -2.0739    1.7815 C   0  0  0  0  0  0  0  0  0  0  0  0
    2.5332   -0.9715    0.7443 C   0  0  1  0  0  0  0  0  0  0  0  0
    3.1396    0.3650    1.1869 C   0  0  0  0  0  0  0  0  0  0  0  0
    3.0449   -1.3861   -0.6492 C   0  0  0  0  0  0  0  0  0  0  0  0
    4.4753   -1.5916   -0.6637 N   0  0  0  0  0  0  0  0  0  0  0  0
    5.0441   -2.1703   -1.6551 C   0  0  0  0  0  0  0  0  0  0  0  0
    4.4024   -2.5361   -2.8400 N   0  0  0  0  0  0  0  0  0  0  0  0
    4.7321   -3.7086   -3.5480 N   0  0  0  0  0  0  0  0  0  0  0  0
    6.4067   -2.5075   -1.6040 N   0  0  0  0  0  0  0  0  0  0  0  0
    7.0517   -2.4117   -0.2988 C   0  0  0  0  0  0  0  0  0  0  0  0
    8.3737   -3.1775   -0.3114 C   0  0  0  0  0  0  0  0  0  0  0  0
    9.2435   -2.6794   -1.3688 N   0  0  0  0  0  0  0  0  0  0  0  0
   10.6196   -2.9659   -1.2942 C   0  0  0  0  0  0  0  0  0  0  0  0
   11.1131   -4.0734   -0.5739 C   0  0  0  0  0  0  0  0  0  0  0  0
   12.4797   -4.3402   -0.4743 C   0  0  0  0  0  0  0  0  0  0  0  0
   13.4059   -3.5121   -1.1099 C   0  0  0  0  0  0  0  0  0  0  0  0
   12.9508   -2.4033   -1.8275 C   0  0  0  0  0  0  0  0  0  0  0  0
   11.5851   -2.1281   -1.9069 C   0  0  0  0  0  0  0  0  0  0  0  0
   11.0961   -0.6611   -2.7384 Cl  0  0  0  0  0  0  0  0  0  0  0  0
    8.5993   -2.7563   -2.6797 C   0  0  0  0  0  0  0  0  0  0  0  0
    7.2774   -1.9985   -2.6676 C   0  0  0  0  0  0  0  0  0  0  0  0
    2.3723   -1.7898    2.7675 H   0  0  0  0  0  0  0  0  0  0  0  0
    3.8532   -2.2666    1.8958 H   0  0  0  0  0  0  0  0  0  0  0  0
    2.2939   -3.0207    1.4827 H   0  0  0  0  0  0  0  0  0  0  0  0
    1.4402   -0.8350    0.6405 H   0  0  0  0  0  0  0  0  0  0  0  0
    4.2364    0.2880    1.2414 H   0  0  0  0  0  0  0  0  0  0  0  0
    2.7620    0.6669    2.1775 H   0  0  0  0  0  0  0  0  0  0  0  0
    2.8962    1.1711    0.4746 H   0  0  0  0  0  0  0  0  0  0  0  0
    2.7584   -0.5912   -1.3701 H   0  0  0  0  0  0  0  0  0  0  0  0
    2.4917   -2.2992   -0.9669 H   0  0  0  0  0  0  0  0  0  0  0  0
    3.4002   -2.3862   -2.8191 H   0  0  0  0  0  0  0  0  0  0  0  0
    5.1999   -4.3676   -2.9224 H   0  0  0  0  0  0  0  0  0  0  0  0
    5.3956   -3.4883   -4.2916 H   0  0  0  0  0  0  0  0  0  0  0  0
    6.3777   -2.8307    0.4593 H   0  0  0  0  0  0  0  0  0  0  0  0
    7.2347   -1.3555   -0.0217 H   0  0  0  0  0  0  0  0  0  0  0  0
    8.1553   -4.2621   -0.4294 H   0  0  0  0  0  0  0  0  0  0  0  0
    8.8749   -3.0403    0.6584 H   0  0  0  0  0  0  0  0  0  0  0  0
   10.4045   -4.7470   -0.0906 H   0  0  0  0  0  0  0  0  0  0  0  0
   12.8176   -5.2099    0.0947 H   0  0  0  0  0  0  0  0  0  0  0  0
   14.4770   -3.7154   -1.0432 H   0  0  0  0  0  0  0  0  0  0  0  0
   13.6525   -1.7241   -2.3149 H   0  0  0  0  0  0  0  0  0  0  0  0
    8.4069   -3.8171   -2.9547 H   0  0  0  0  0  0  0  0  0  0  0  0
    9.2574   -2.3239   -3.4431 H   0  0  0  0  0  0  0  0  0  0  0  0
    6.7836   -2.1001   -3.6425 H   0  0  0  0  0  0  0  0  0  0  0  0
    7.4863   -0.9207   -2.5115 H   0  0  0  0  0  0  0  0  0  0  0  0
  1  2  1  0
  1 22  1  0
  1 23  1  0
  1 24  1  0
  2  3  1  0
  2  4  1  0
  2 25  1  6
  3 26  1  0
  3 27  1  0
  3 28  1  0
  4  5  1  0
  4 29  1  0
  4 30  1  0
  5  6  2  0
  6  7  1  0
  6  9  1  0
  7  8  1  0
  7 31  1  0
  8 32  1  0
  8 33  1  0
  9 10  1  0
  9 21  1  0
 10 11  1  0
 10 34  1  0
 10 35  1  0
 11 12  1  0
 11 36  1  0
 11 37  1  0
 12 13  1  0
 12 20  1  0
 13 14  2  0
 13 18  1  0
 14 15  1  0
 14 38  1  0
 15 16  2  0
 15 39  1  0
 16 17  1  0
 16 40  1  0
 17 18  2  0
 17 41  1  0
 18 19  1  0
 20 21  1  0
 20 42  1  0
 20 43  1  0
 21 44  1  0
 21 45  1  0
M  END

