
     RDKit          3D

 49 51  0  0  0  0  0  0  0  0999 V2000
    4.3569    0.9348   -1.4575 O   0  0  0  0  0  0  0  0  0  0  0  0
    4.1605    1.6518   -0.4897 C   0  0  0  0  0  0  0  0  0  0  0  0
    3.9001    3.1434   -0.7093 C   0  0  0  0  0  0  0  0  0  0  0  0
    3.7633    3.8295    0.5221 O   0  0  0  0  0  0  0  0  0  0  0  0
    3.5237    5.1649    0.5367 C   0  0  0  0  0  0  0  0  0  0  0  0
    3.3973    5.9458   -0.6209 C   0  0  0  0  0  0  0  0  0  0  0  0
    3.1498    7.3165   -0.4818 C   0  0  0  0  0  0  0  0  0  0  0  0
    2.9921    8.2901   -1.9241 Cl  0  0  0  0  0  0  0  0  0  0  0  0
    3.0257    7.9273    0.7650 C   0  0  0  0  0  0  0  0  0  0  0  0
    3.1577    7.1194    1.9013 C   0  0  0  0  0  0  0  0  0  0  0  0
    3.0086    7.8514    3.4807 Cl  0  0  0  0  0  0  0  0  0  0  0  0
    3.4039    5.7531    1.8075 C   0  0  0  0  0  0  0  0  0  0  0  0
    4.1456    1.2372    0.7971 N   0  0  0  0  0  0  0  0  0  0  0  0
    4.4157   -0.1274    1.1926 C   0  0  0  0  0  0  0  0  0  0  0  0
    5.2213   -0.1754    2.5164 C   0  0  1  0  0  0  0  0  0  0  0  0
    4.4950    0.6563    3.4988 N   0  0  0  0  0  0  0  0  0  0  0  0
    3.1087    0.3077    3.8236 C   0  0  0  0  0  0  0  0  0  0  0  0
    2.7635    1.2920    4.9396 C   0  0  0  0  0  0  0  0  0  0  0  0
    4.0539    1.3075    5.7717 C   0  0  0  0  0  0  0  0  0  0  0  0
    5.1802    1.0547    4.7428 C   0  0  0  0  0  0  0  0  0  0  0  0
    5.3846   -1.6514    2.9734 C   0  0  0  0  0  0  0  0  0  0  0  0
    6.3696   -2.4438    2.1063 C   0  0  0  0  0  0  0  0  0  0  0  0
    7.6244   -1.8045    2.0129 O   0  0  0  0  0  0  0  0  0  0  0  0
    7.5247   -0.5139    1.4447 C   0  0  0  0  0  0  0  0  0  0  0  0
    6.6388    0.4064    2.2885 C   0  0  0  0  0  0  0  0  0  0  0  0
    2.9863    3.2354   -1.3230 H   0  0  0  0  0  0  0  0  0  0  0  0
    4.7432    3.5417   -1.3007 H   0  0  0  0  0  0  0  0  0  0  0  0
    3.4860    5.5197   -1.6180 H   0  0  0  0  0  0  0  0  0  0  0  0
    2.8331    8.9954    0.8530 H   0  0  0  0  0  0  0  0  0  0  0  0
    3.5057    5.1349    2.6991 H   0  0  0  0  0  0  0  0  0  0  0  0
    4.0183    1.9154    1.5435 H   0  0  0  0  0  0  0  0  0  0  0  0
    4.9542   -0.6137    0.3690 H   0  0  0  0  0  0  0  0  0  0  0  0
    3.4745   -0.6926    1.3165 H   0  0  0  0  0  0  0  0  0  0  0  0
    2.9902   -0.7362    4.1896 H   0  0  0  0  0  0  0  0  0  0  0  0
    2.4491    0.4208    2.9488 H   0  0  0  0  0  0  0  0  0  0  0  0
    1.8762    0.9919    5.5172 H   0  0  0  0  0  0  0  0  0  0  0  0
    2.5647    2.2867    4.5080 H   0  0  0  0  0  0  0  0  0  0  0  0
    4.0303    0.4922    6.5124 H   0  0  0  0  0  0  0  0  0  0  0  0
    4.1969    2.2449    6.3293 H   0  0  0  0  0  0  0  0  0  0  0  0
    5.8694    0.2745    5.1202 H   0  0  0  0  0  0  0  0  0  0  0  0
    5.7907    1.9579    4.5746 H   0  0  0  0  0  0  0  0  0  0  0  0
    4.4101   -2.1676    2.9800 H   0  0  0  0  0  0  0  0  0  0  0  0
    5.7598   -1.6552    4.0103 H   0  0  0  0  0  0  0  0  0  0  0  0
    5.9487   -2.6105    1.0927 H   0  0  0  0  0  0  0  0  0  0  0  0
    6.5533   -3.4361    2.5466 H   0  0  0  0  0  0  0  0  0  0  0  0
    7.1523   -0.5812    0.4020 H   0  0  0  0  0  0  0  0  0  0  0  0
    8.5478   -0.1110    1.3968 H   0  0  0  0  0  0  0  0  0  0  0  0
    6.5673    1.4013    1.8200 H   0  0  0  0  0  0  0  0  0  0  0  0
    7.1381    0.5379    3.2591 H   0  0  0  0  0  0  0  0  0  0  0  0
  1  2  2  0
  2  3  1  0
  2 13  1  0
  3  4  1  0
  3 26  1  0
  3 27  1  0
  4  5  1  0
  5  6  2  0
  5 12  1  0
  6  7  1  0
  6 28  1  0
  7  8  1  0
  7  9  2  0
  9 10  1  0
  9 29  1  0
 10 11  1  0
 10 12  2  0
 12 30  1  0
 13 14  1  0
 13 31  1  0
 15 14  1  6
 14 32  1  0
 14 33  1  0
 15 16  1  0
 15 21  1  0
 15 25  1  0
 16 17  1  0
 16 20  1  0
 17 18  1  0
 17 34  1  0
 17 35  1  0
 18 19  1  0
 18 36  1  0
 18 37  1  0
 19 20  1  0
 19 38  1  0
 19 39  1  0
 20 40  1  0
 20 41  1  0
 21 22  1  0
 21 42  1  0
 21 43  1  0
 22 23  1  0
 22 44  1  0
 22 45  1  0
 23 24  1  0
 24 25  1  0
 24 46  1  0
 24 47  1  0
 25 48  1  0
 25 49  1  0
M  END

