
     RDKit          3D

 36 36  0  0  0  0  0  0  0  0999 V2000
    2.7566    1.6452   -0.5215 C   0  0  0  0  0  0  0  0  0  0  0  0
    4.2783    1.3937   -0.4531 C   0  0  1  0  0  0  0  0  0  0  0  0
    4.9766    2.7158   -0.8393 C   0  0  0  0  0  0  0  0  0  0  0  0
    4.6670    1.0655    1.0032 C   0  0  0  0  0  0  0  0  0  0  0  0
    4.8056    0.2719   -1.4404 C   0  0  2  0  0  0  0  0  0  0  0  0
    4.3927    0.4653   -2.8967 C   0  0  0  0  0  0  0  0  0  0  0  0
    5.3248    0.9498   -3.8284 C   0  0  0  0  0  0  0  0  0  0  0  0
    5.0043    1.1182   -5.1778 C   0  0  0  0  0  0  0  0  0  0  0  0
    3.7227    0.7957   -5.6415 C   0  0  0  0  0  0  0  0  0  0  0  0
    3.3487    0.9344   -6.9396 O   0  0  0  0  0  0  0  0  0  0  0  0
    2.7756    0.3028   -4.7329 C   0  0  0  0  0  0  0  0  0  0  0  0
    3.1121    0.1455   -3.3890 C   0  0  0  0  0  0  0  0  0  0  0  0
    4.6401   -1.2149   -1.0031 C   0  0  2  0  0  0  0  0  0  0  0  0
    4.9363   -1.8111   -1.8831 H   0  0  0  0  0  0  0  0  0  0  0  0
    3.3251   -1.7207   -0.5849 N   0  0  0  0  0  0  0  0  0  0  0  0
    5.6988   -1.6370    0.0528 C   0  0  0  0  0  0  0  0  0  0  0  0
    6.8333   -1.2309    0.0515 O   0  0  0  0  0  0  0  0  0  0  0  0
    5.2412   -2.5415    0.9163 O   0  0  0  0  0  0  0  0  0  0  0  0
    2.4886    2.4620    0.1680 H   0  0  0  0  0  0  0  0  0  0  0  0
    2.1508    0.7746   -0.2221 H   0  0  0  0  0  0  0  0  0  0  0  0
    2.4327    1.9455   -1.5283 H   0  0  0  0  0  0  0  0  0  0  0  0
    4.6570    3.5297   -0.1686 H   0  0  0  0  0  0  0  0  0  0  0  0
    4.7352    3.0172   -1.8700 H   0  0  0  0  0  0  0  0  0  0  0  0
    6.0718    2.6259   -0.7582 H   0  0  0  0  0  0  0  0  0  0  0  0
    4.3586    1.8885    1.6681 H   0  0  0  0  0  0  0  0  0  0  0  0
    5.7525    0.9299    1.1108 H   0  0  0  0  0  0  0  0  0  0  0  0
    4.1820    0.1510    1.3811 H   0  0  0  0  0  0  0  0  0  0  0  0
    5.8994    0.3897   -1.4217 H   0  0  0  0  0  0  0  0  0  0  0  0
    6.3353    1.1991   -3.4931 H   0  0  0  0  0  0  0  0  0  0  0  0
    5.7580    1.4978   -5.8755 H   0  0  0  0  0  0  0  0  0  0  0  0
    4.0905    1.2784   -7.4544 H   0  0  0  0  0  0  0  0  0  0  0  0
    1.7785    0.0499   -5.0996 H   0  0  0  0  0  0  0  0  0  0  0  0
    2.3478   -0.2384   -2.7111 H   0  0  0  0  0  0  0  0  0  0  0  0
    2.7813   -2.0805   -1.3656 H   0  0  0  0  0  0  0  0  0  0  0  0
    2.7657   -1.0101   -0.1191 H   0  0  0  0  0  0  0  0  0  0  0  0
    4.2910   -2.6586    0.6587 H   0  0  0  0  0  0  0  0  0  0  0  0
  2  1  1  1
  1 19  1  0
  1 20  1  0
  1 21  1  0
  2  3  1  0
  2  4  1  0
  2  5  1  0
  3 22  1  0
  3 23  1  0
  3 24  1  0
  4 25  1  0
  4 26  1  0
  4 27  1  0
  5  6  1  0
  5 13  1  0
  5 28  1  6
  6  7  2  0
  6 12  1  0
  7  8  1  0
  7 29  1  0
  8  9  2  0
  8 30  1  0
  9 10  1  0
  9 11  1  0
 10 31  1  0
 11 12  2  0
 11 32  1  0
 12 33  1  0
 13 14  1  6
 13 15  1  0
 13 16  1  0
 15 34  1  0
 15 35  1  0
 16 17  2  0
 16 18  1  0
 18 36  1  0
M  END

