
     RDKit          3D

 53 55  0  0  0  0  0  0  0  0999 V2000
    2.0359   -2.2484   -0.2522 N   0  0  0  0  0  0  0  0  0  0  0  0
    2.0399   -1.6910    0.9913 C   0  0  0  0  0  0  0  0  0  0  0  0
    1.4758   -2.1947    1.9421 O   0  0  0  0  0  0  0  0  0  0  0  0
    2.7069   -0.2972    1.0880 C   0  0  1  0  0  0  0  0  0  0  0  0
    2.7781    0.2173    2.5338 C   0  0  0  0  0  0  0  0  0  0  0  0
    3.7463   -0.4717    3.5090 C   0  0  1  0  0  0  0  0  0  0  0  0
    5.1714    0.1092    3.5896 C   0  0  0  0  0  0  0  0  0  0  0  0
    5.7533   -0.4979    4.8802 C   0  0  0  0  0  0  0  0  0  0  0  0
    4.5340   -0.7076    5.8251 C   0  0  0  0  0  0  0  0  0  0  0  0
    3.2860   -0.3697    4.9773 C   0  0  0  0  0  0  0  0  0  0  0  0
    3.9590   -0.2228    0.3310 N   0  0  0  0  0  0  0  0  0  0  0  0
    4.2467    0.8898   -0.5068 C   0  0  0  0  0  0  0  0  0  0  0  0
    3.5103    1.8302   -0.6906 O   0  0  0  0  0  0  0  0  0  0  0  0
    5.4817    0.6558   -1.0469 N   0  0  0  0  0  0  0  0  0  0  0  0
    6.1132   -0.5478   -0.5374 C   0  0  2  0  0  0  0  0  0  0  0  0
    6.5591   -1.5596   -1.5997 C   0  0  0  0  0  0  0  0  0  0  0  0
    7.6832   -1.0743   -2.5373 C   0  0  1  0  0  0  0  0  0  0  0  0
    9.0211   -0.7899   -1.8180 C   0  0  0  0  0  0  0  0  0  0  0  0
    9.7427   -2.0667   -1.3608 C   0  0  0  0  0  0  0  0  0  0  0  0
    9.9555   -3.0398   -2.5280 C   0  0  0  0  0  0  0  0  0  0  0  0
    8.6370   -3.3544   -3.2472 C   0  0  0  0  0  0  0  0  0  0  0  0
    7.9210   -2.0710   -3.6937 C   0  0  0  0  0  0  0  0  0  0  0  0
    5.0099   -1.1223    0.3646 C   0  0  0  0  0  0  0  0  0  0  0  0
    5.0538   -2.1720    0.9623 O   0  0  0  0  0  0  0  0  0  0  0  0
    1.6566   -3.1830   -0.3467 H   0  0  0  0  0  0  0  0  0  0  0  0
    2.5815   -1.8680   -1.0126 H   0  0  0  0  0  0  0  0  0  0  0  0
    2.0359    0.3882    0.5428 H   0  0  0  0  0  0  0  0  0  0  0  0
    1.7535    0.1110    2.9208 H   0  0  0  0  0  0  0  0  0  0  0  0
    2.9912    1.2996    2.4974 H   0  0  0  0  0  0  0  0  0  0  0  0
    3.8184   -1.5395    3.2455 H   0  0  0  0  0  0  0  0  0  0  0  0
    5.1064    1.2096    3.6771 H   0  0  0  0  0  0  0  0  0  0  0  0
    5.7960   -0.1105    2.7107 H   0  0  0  0  0  0  0  0  0  0  0  0
    6.5345    0.1375    5.3265 H   0  0  0  0  0  0  0  0  0  0  0  0
    6.2266   -1.4663    4.6510 H   0  0  0  0  0  0  0  0  0  0  0  0
    4.5946   -0.0746    6.7242 H   0  0  0  0  0  0  0  0  0  0  0  0
    4.4965   -1.7494    6.1804 H   0  0  0  0  0  0  0  0  0  0  0  0
    2.9559    0.6657    5.1784 H   0  0  0  0  0  0  0  0  0  0  0  0
    2.4273   -1.0268    5.1851 H   0  0  0  0  0  0  0  0  0  0  0  0
    5.9544    1.3865   -1.5633 H   0  0  0  0  0  0  0  0  0  0  0  0
    6.9655   -0.3011    0.1230 H   0  0  0  0  0  0  0  0  0  0  0  0
    5.6779   -1.8231   -2.2105 H   0  0  0  0  0  0  0  0  0  0  0  0
    6.8492   -2.4749   -1.0607 H   0  0  0  0  0  0  0  0  0  0  0  0
    7.3348   -0.1289   -2.9927 H   0  0  0  0  0  0  0  0  0  0  0  0
    8.8738   -0.1086   -0.9624 H   0  0  0  0  0  0  0  0  0  0  0  0
    9.6767   -0.2455   -2.5211 H   0  0  0  0  0  0  0  0  0  0  0  0
    9.1593   -2.5676   -0.5674 H   0  0  0  0  0  0  0  0  0  0  0  0
   10.7101   -1.8020   -0.9022 H   0  0  0  0  0  0  0  0  0  0  0  0
   10.4303   -3.9690   -2.1712 H   0  0  0  0  0  0  0  0  0  0  0  0
   10.6616   -2.5881   -3.2497 H   0  0  0  0  0  0  0  0  0  0  0  0
    7.9825   -3.9374   -2.5748 H   0  0  0  0  0  0  0  0  0  0  0  0
    8.8230   -3.9995   -4.1222 H   0  0  0  0  0  0  0  0  0  0  0  0
    6.9622   -2.3154   -4.1824 H   0  0  0  0  0  0  0  0  0  0  0  0
    8.5385   -1.5702   -4.4609 H   0  0  0  0  0  0  0  0  0  0  0  0
  1  2  1  0
  1 25  1  0
  1 26  1  0
  2  3  2  0
  2  4  1  0
  4  5  1  0
  4 11  1  0
  4 27  1  6
  5  6  1  0
  5 28  1  0
  5 29  1  0
  6  7  1  0
  6 10  1  0
  6 30  1  6
  7  8  1  0
  7 31  1  0
  7 32  1  0
  8  9  1  0
  8 33  1  0
  8 34  1  0
  9 10  1  0
  9 35  1  0
  9 36  1  0
 10 37  1  0
 10 38  1  0
 11 12  1  0
 11 23  1  0
 12 13  2  0
 12 14  1  0
 14 15  1  0
 14 39  1  0
 15 16  1  0
 15 23  1  0
 15 40  1  1
 16 17  1  0
 16 41  1  0
 16 42  1  0
 17 18  1  0
 17 22  1  0
 17 43  1  6
 18 19  1  0
 18 44  1  0
 18 45  1  0
 19 20  1  0
 19 46  1  0
 19 47  1  0
 20 21  1  0
 20 48  1  0
 20 49  1  0
 21 22  1  0
 21 50  1  0
 21 51  1  0
 22 52  1  0
 22 53  1  0
 23 24  2  0
M  END

