
     RDKit          3D

 53 57  0  0  0  0  0  0  0  0999 V2000
    2.9024    1.4404    1.0701 O   0  0  0  0  0  0  0  0  0  0  0  0
    2.3689    1.1493    0.0338 C   0  0  0  0  0  0  0  0  0  0  0  0
    0.8863    1.2854   -0.2764 C   0  0  0  0  0  0  0  0  0  0  0  0
   -0.0115    1.0601    0.9015 C   0  0  0  0  0  0  0  0  0  0  0  0
   -0.6870    2.0355    1.5767 C   0  0  0  0  0  0  0  0  0  0  0  0
   -1.4332    1.5356    2.5979 O   0  0  0  0  0  0  0  0  0  0  0  0
   -1.2402    0.1912    2.5931 C   0  0  0  0  0  0  0  0  0  0  0  0
   -1.8449   -0.7083    3.4918 C   0  0  0  0  0  0  0  0  0  0  0  0
   -1.5435   -2.0419    3.3348 C   0  0  0  0  0  0  0  0  0  0  0  0
   -0.6540   -2.5014    2.3094 C   0  0  0  0  0  0  0  0  0  0  0  0
   -0.3605   -3.8851    2.1720 C   0  0  0  0  0  0  0  0  0  0  0  0
    0.4975   -4.3429    1.1918 C   0  0  0  0  0  0  0  0  0  0  0  0
    1.1042   -3.4255    0.3047 C   0  0  0  0  0  0  0  0  0  0  0  0
    0.8425   -2.0713    0.4075 C   0  0  0  0  0  0  0  0  0  0  0  0
   -0.0396   -1.5681    1.4006 C   0  0  0  0  0  0  0  0  0  0  0  0
   -0.3654   -0.1800    1.5676 C   0  0  0  0  0  0  0  0  0  0  0  0
    3.0354    0.6593   -1.0417 O   0  0  0  0  0  0  0  0  0  0  0  0
    4.4486    0.6999   -0.9735 C   0  0  0  0  0  0  0  0  0  0  0  0
    4.9669    2.1142   -1.2704 C   0  0  0  0  0  0  0  0  0  0  0  0
    4.1803    3.0221   -1.4480 O   0  0  0  0  0  0  0  0  0  0  0  0
    6.4419    2.3176   -1.3262 C   0  0  0  0  0  0  0  0  0  0  0  0
    7.3796    1.2907   -1.1162 C   0  0  0  0  0  0  0  0  0  0  0  0
    8.7490    1.5285   -1.1820 C   0  0  0  0  0  0  0  0  0  0  0  0
    9.2304    2.8260   -1.4648 C   0  0  0  0  0  0  0  0  0  0  0  0
   10.6054    3.1078   -1.5493 N   0  0  0  0  0  0  0  0  0  0  0  0
   11.0964    4.4269   -1.9662 C   0  0  0  0  0  0  0  0  0  0  0  0
   12.5982    4.2106   -2.2071 C   0  0  0  0  0  0  0  0  0  0  0  0
   12.9470    3.0571   -1.2674 C   0  0  0  0  0  0  0  0  0  0  0  0
   11.6479    2.2694   -1.1396 C   0  0  0  0  0  0  0  0  0  0  0  0
   11.5428    1.1337   -0.7323 O   0  0  0  0  0  0  0  0  0  0  0  0
    8.2907    3.8620   -1.6699 C   0  0  0  0  0  0  0  0  0  0  0  0
    6.9271    3.6063   -1.6020 C   0  0  0  0  0  0  0  0  0  0  0  0
    0.6342    0.6294   -1.1224 H   0  0  0  0  0  0  0  0  0  0  0  0
    0.7661    2.3183   -0.6458 H   0  0  0  0  0  0  0  0  0  0  0  0
   -0.7258    3.1139    1.4404 H   0  0  0  0  0  0  0  0  0  0  0  0
   -2.5197   -0.3481    4.2702 H   0  0  0  0  0  0  0  0  0  0  0  0
   -1.9867   -2.7834    4.0044 H   0  0  0  0  0  0  0  0  0  0  0  0
   -0.8302   -4.5894    2.8644 H   0  0  0  0  0  0  0  0  0  0  0  0
    0.7108   -5.4110    1.1024 H   0  0  0  0  0  0  0  0  0  0  0  0
    1.7876   -3.7878   -0.4676 H   0  0  0  0  0  0  0  0  0  0  0  0
    1.3318   -1.3855   -0.2843 H   0  0  0  0  0  0  0  0  0  0  0  0
    4.8182   -0.0075   -1.7305 H   0  0  0  0  0  0  0  0  0  0  0  0
    4.8018    0.3796    0.0199 H   0  0  0  0  0  0  0  0  0  0  0  0
    7.0512    0.2736   -0.8916 H   0  0  0  0  0  0  0  0  0  0  0  0
    9.4585    0.7244   -1.0082 H   0  0  0  0  0  0  0  0  0  0  0  0
   10.9104    5.1758   -1.1742 H   0  0  0  0  0  0  0  0  0  0  0  0
   10.5733    4.7661   -2.8725 H   0  0  0  0  0  0  0  0  0  0  0  0
   13.1794    5.1257   -2.0266 H   0  0  0  0  0  0  0  0  0  0  0  0
   12.7662    3.9102   -3.2534 H   0  0  0  0  0  0  0  0  0  0  0  0
   13.2213    3.4094   -0.2571 H   0  0  0  0  0  0  0  0  0  0  0  0
   13.7558    2.3985   -1.6124 H   0  0  0  0  0  0  0  0  0  0  0  0
    8.6215    4.8795   -1.8750 H   0  0  0  0  0  0  0  0  0  0  0  0
    6.2029    4.4083   -1.7578 H   0  0  0  0  0  0  0  0  0  0  0  0
  1  2  2  0
  2  3  1  0
  2 17  1  0
  3  4  1  0
  3 33  1  0
  3 34  1  0
  4  5  2  0
  4 16  1  0
  5  6  1  0
  5 35  1  0
  6  7  1  0
  7  8  1  0
  7 16  2  0
  8  9  2  0
  8 36  1  0
  9 10  1  0
  9 37  1  0
 10 11  1  0
 10 15  2  0
 11 12  2  0
 11 38  1  0
 12 13  1  0
 12 39  1  0
 13 14  2  0
 13 40  1  0
 14 15  1  0
 14 41  1  0
 15 16  1  0
 17 18  1  0
 18 19  1  0
 18 42  1  0
 18 43  1  0
 19 20  2  0
 19 21  1  0
 21 22  2  0
 21 32  1  0
 22 23  1  0
 22 44  1  0
 23 24  2  0
 23 45  1  0
 24 25  1  0
 24 31  1  0
 25 26  1  0
 25 29  1  0
 26 27  1  0
 26 46  1  0
 26 47  1  0
 27 28  1  0
 27 48  1  0
 27 49  1  0
 28 29  1  0
 28 50  1  0
 28 51  1  0
 29 30  2  0
 31 32  2  0
 31 52  1  0
 32 53  1  0
M  END

