
     RDKit          3D

 17 17  0  0  0  0  0  0  0  0999 V2000
    1.1307   -0.3885    2.1779 N   0  0  0  0  0  0  0  0  0  0  0  0
    2.5208   -0.3465    2.0449 N   0  0  0  0  0  0  0  0  0  0  0  0
    3.1231    0.3918    1.0608 C   0  0  0  0  0  0  0  0  0  0  0  0
    2.4788    1.0104    0.2296 O   0  0  0  0  0  0  0  0  0  0  0  0
    4.6265    0.4025    1.0736 C   0  0  0  0  0  0  0  0  0  0  0  0
    5.2897    1.4610    0.4365 C   0  0  0  0  0  0  0  0  0  0  0  0
    6.6169    1.5561    0.3842 N   0  0  0  0  0  0  0  0  0  0  0  0
    7.3604    0.6171    0.9351 C   0  0  0  0  0  0  0  0  0  0  0  0
    9.0889    0.7981    0.8304 Cl  0  0  0  0  0  0  0  0  0  0  0  0
    6.8059   -0.5065    1.5857 C   0  0  0  0  0  0  0  0  0  0  0  0
    7.7920   -1.7518    2.2836 Cl  0  0  0  0  0  0  0  0  0  0  0  0
    5.4160   -0.6031    1.6471 C   0  0  0  0  0  0  0  0  0  0  0  0
    0.7496   -0.9131    1.3869 H   0  0  0  0  0  0  0  0  0  0  0  0
    0.7707    0.5635    2.0644 H   0  0  0  0  0  0  0  0  0  0  0  0
    3.0415   -0.6533    2.8584 H   0  0  0  0  0  0  0  0  0  0  0  0
    4.7048    2.2509   -0.0435 H   0  0  0  0  0  0  0  0  0  0  0  0
    4.9732   -1.4807    2.1217 H   0  0  0  0  0  0  0  0  0  0  0  0
  1  2  1  0
  1 13  1  0
  1 14  1  0
  2  3  1  0
  2 15  1  0
  3  4  2  0
  3  5  1  0
  5  6  2  0
  5 12  1  0
  6  7  1  0
  6 16  1  0
  7  8  2  0
  8  9  1  0
  8 10  1  0
 10 11  1  0
 10 12  2  0
 12 17  1  0
M  END

