
     RDKit          3D

 36 37  0  0  0  0  0  0  0  0999 V2000
    0.6457   -3.2492    2.5356 C   0  0  0  0  0  0  0  0  0  0  0  0
    2.1248   -3.4091    2.3920 C   0  0  0  0  0  0  0  0  0  0  0  0
    3.0139   -2.4014    2.2572 C   0  0  0  0  0  0  0  0  0  0  0  0
    4.4389   -2.5992    2.1202 C   0  0  0  0  0  0  0  0  0  0  0  0
    5.3426   -1.5967    1.9836 C   0  0  0  0  0  0  0  0  0  0  0  0
    6.7690   -1.8230    1.8473 C   0  0  0  0  0  0  0  0  0  0  0  0
    7.3530   -2.9972    1.8375 N   0  0  0  0  0  0  0  0  0  0  0  0
    8.7122   -2.7661    1.6879 C   0  0  0  0  0  0  0  0  0  0  0  0
    9.7381   -3.6655    1.6207 C   0  0  0  0  0  0  0  0  0  0  0  0
    9.7132   -5.1121    1.6851 C   0  0  0  0  0  0  0  0  0  0  0  0
    8.5260   -5.8660    1.8425 C   0  0  0  0  0  0  0  0  0  0  0  0
    8.5648   -7.2545    1.8981 C   0  0  0  0  0  0  0  0  0  0  0  0
    9.7885   -7.9393    1.7986 C   0  0  0  0  0  0  0  0  0  0  0  0
    9.8747   -9.2901    1.8476 O   0  0  0  0  0  0  0  0  0  0  0  0
   10.9784   -7.2104    1.6420 C   0  0  0  0  0  0  0  0  0  0  0  0
   10.9332   -5.8236    1.5874 C   0  0  0  0  0  0  0  0  0  0  0  0
    8.9556   -1.2938    1.5997 C   0  0  0  0  0  0  0  0  0  0  0  0
    9.9801   -0.6536    1.4661 O   0  0  0  0  0  0  0  0  0  0  0  0
    7.6632   -0.7599    1.7103 N   0  0  0  0  0  0  0  0  0  0  0  0
    7.3875    0.6579    1.6750 C   0  0  0  0  0  0  0  0  0  0  0  0
    0.1092   -3.7734    1.7243 H   0  0  0  0  0  0  0  0  0  0  0  0
    0.3417   -2.1915    2.5208 H   0  0  0  0  0  0  0  0  0  0  0  0
    0.2871   -3.6983    3.4791 H   0  0  0  0  0  0  0  0  0  0  0  0
    2.5091   -4.4376    2.3977 H   0  0  0  0  0  0  0  0  0  0  0  0
    2.6499   -1.3659    2.2489 H   0  0  0  0  0  0  0  0  0  0  0  0
    4.8154   -3.6278    2.1270 H   0  0  0  0  0  0  0  0  0  0  0  0
    4.9965   -0.5596    1.9734 H   0  0  0  0  0  0  0  0  0  0  0  0
   10.7232   -3.2025    1.4993 H   0  0  0  0  0  0  0  0  0  0  0  0
    7.5778   -5.3336    1.9193 H   0  0  0  0  0  0  0  0  0  0  0  0
    7.6367   -7.8229    2.0205 H   0  0  0  0  0  0  0  0  0  0  0  0
    8.9916   -9.6672    1.9572 H   0  0  0  0  0  0  0  0  0  0  0  0
   11.9222   -7.7539    1.5660 H   0  0  0  0  0  0  0  0  0  0  0  0
   11.8645   -5.2637    1.4656 H   0  0  0  0  0  0  0  0  0  0  0  0
    8.3547    1.1665    1.5560 H   0  0  0  0  0  0  0  0  0  0  0  0
    6.9164    1.0061    2.6087 H   0  0  0  0  0  0  0  0  0  0  0  0
    6.7385    0.9272    0.8257 H   0  0  0  0  0  0  0  0  0  0  0  0
  1  2  1  0
  1 21  1  0
  1 22  1  0
  1 23  1  0
  2  3  2  0
  2 24  1  0
  3  4  1  0
  3 25  1  0
  4  5  2  0
  4 26  1  0
  5  6  1  0
  5 27  1  0
  6  7  2  0
  6 19  1  0
  7  8  1  0
  8  9  2  0
  8 17  1  0
  9 10  1  0
  9 28  1  0
 10 11  2  0
 10 16  1  0
 11 12  1  0
 11 29  1  0
 12 13  2  0
 12 30  1  0
 13 14  1  0
 13 15  1  0
 14 31  1  0
 15 16  2  0
 15 32  1  0
 16 33  1  0
 17 18  2  0
 17 19  1  0
 19 20  1  0
 20 34  1  0
 20 35  1  0
 20 36  1  0
M  END

