
     RDKit          3D

 43 45  0  0  0  0  0  0  0  0999 V2000
    2.8807    0.8909    1.1273 N   0  0  0  0  0  0  0  0  0  0  0  0
    2.3124    0.0435    0.0807 C   0  0  0  0  0  0  0  0  0  0  0  0
    2.7937   -1.4210    0.2140 C   0  0  1  0  0  0  0  0  0  0  0  0
    2.5671   -1.9117    1.6651 C   0  0  0  0  0  0  0  0  0  0  0  0
    3.4147   -2.5355    2.2608 O   0  0  0  0  0  0  0  0  0  0  0  0
    1.2178   -1.5914    2.3283 C   0  0  0  0  0  0  0  0  0  0  0  0
    0.7865   -2.5930    3.3643 C   0  0  0  0  0  0  0  0  0  0  0  0
    1.3772   -2.6706    4.6375 C   0  0  0  0  0  0  0  0  0  0  0  0
    0.9627   -3.6286    5.5664 C   0  0  0  0  0  0  0  0  0  0  0  0
    1.8003   -3.6884    7.2855 Br  0  0  0  0  0  0  0  0  0  0  0  0
   -0.0538   -4.5490    5.2727 C   0  0  0  0  0  0  0  0  0  0  0  0
   -0.6369   -4.4876    4.0117 C   0  0  0  0  0  0  0  0  0  0  0  0
   -0.2128   -3.5294    3.0846 C   0  0  0  0  0  0  0  0  0  0  0  0
   -0.8843   -3.5999    1.8990 O   0  0  0  0  0  0  0  0  0  0  0  0
   -1.6686   -4.8102    1.9085 C   0  0  0  0  0  0  0  0  0  0  0  0
   -1.7738   -5.2629    3.3833 C   0  0  0  0  0  0  0  0  0  0  0  0
    1.9725   -2.3620   -0.7184 C   0  0  0  0  0  0  0  0  0  0  0  0
    2.2776   -2.1673   -2.2115 C   0  0  0  0  0  0  0  0  0  0  0  0
    3.7755   -2.3070   -2.5053 C   0  0  0  0  0  0  0  0  0  0  0  0
    4.6059   -1.3651   -1.6253 C   0  0  0  0  0  0  0  0  0  0  0  0
    4.2953   -1.5648   -0.1362 C   0  0  0  0  0  0  0  0  0  0  0  0
    2.4805    1.8277    1.0871 H   0  0  0  0  0  0  0  0  0  0  0  0
    3.8860    1.0042    0.9978 H   0  0  0  0  0  0  0  0  0  0  0  0
    2.5253    0.3995   -0.9466 H   0  0  0  0  0  0  0  0  0  0  0  0
    1.2156    0.0732    0.1817 H   0  0  0  0  0  0  0  0  0  0  0  0
    0.4320   -1.4768    1.5702 H   0  0  0  0  0  0  0  0  0  0  0  0
    1.3722   -0.5947    2.7759 H   0  0  0  0  0  0  0  0  0  0  0  0
    2.1774   -1.9763    4.8960 H   0  0  0  0  0  0  0  0  0  0  0  0
   -0.3708   -5.2833    6.0153 H   0  0  0  0  0  0  0  0  0  0  0  0
   -1.1443   -5.5643    1.2951 H   0  0  0  0  0  0  0  0  0  0  0  0
   -2.6382   -4.5914    1.4388 H   0  0  0  0  0  0  0  0  0  0  0  0
   -1.6744   -6.3542    3.4877 H   0  0  0  0  0  0  0  0  0  0  0  0
   -2.7413   -4.9763    3.8322 H   0  0  0  0  0  0  0  0  0  0  0  0
    0.8932   -2.2399   -0.5303 H   0  0  0  0  0  0  0  0  0  0  0  0
    2.2143   -3.4046   -0.4457 H   0  0  0  0  0  0  0  0  0  0  0  0
    1.9263   -1.1748   -2.5449 H   0  0  0  0  0  0  0  0  0  0  0  0
    1.7018   -2.9043   -2.7966 H   0  0  0  0  0  0  0  0  0  0  0  0
    3.9772   -2.1184   -3.5732 H   0  0  0  0  0  0  0  0  0  0  0  0
    4.0857   -3.3499   -2.3085 H   0  0  0  0  0  0  0  0  0  0  0  0
    4.4128   -0.3190   -1.9257 H   0  0  0  0  0  0  0  0  0  0  0  0
    5.6822   -1.5330   -1.7982 H   0  0  0  0  0  0  0  0  0  0  0  0
    4.8937   -0.8775    0.4849 H   0  0  0  0  0  0  0  0  0  0  0  0
    4.6144   -2.5720    0.1731 H   0  0  0  0  0  0  0  0  0  0  0  0
  1  2  1  0
  1 22  1  0
  1 23  1  0
  2  3  1  0
  2 24  1  0
  2 25  1  0
  3  4  1  1
  3 17  1  0
  3 21  1  0
  4  5  2  0
  4  6  1  0
  6  7  1  0
  6 26  1  0
  6 27  1  0
  7  8  2  0
  7 13  1  0
  8  9  1  0
  8 28  1  0
  9 10  1  0
  9 11  2  0
 11 12  1  0
 11 29  1  0
 12 13  2  0
 12 16  1  0
 13 14  1  0
 14 15  1  0
 15 16  1  0
 15 30  1  0
 15 31  1  0
 16 32  1  0
 16 33  1  0
 17 18  1  0
 17 34  1  0
 17 35  1  0
 18 19  1  0
 18 36  1  0
 18 37  1  0
 19 20  1  0
 19 38  1  0
 19 39  1  0
 20 21  1  0
 20 40  1  0
 20 41  1  0
 21 42  1  0
 21 43  1  0
M  END

