
     RDKit          3D

 42 42  0  0  0  0  0  0  0  0999 V2000
    2.8010    0.0231   -1.3999 C   0  0  0  0  0  0  0  0  0  0  0  0
    4.2464    0.2798   -1.0098 C   0  0  0  0  0  0  0  0  0  0  0  0
    4.3471    0.8151    0.3270 O   0  0  0  0  0  0  0  0  0  0  0  0
    4.4002   -0.0538    1.3466 C   0  0  0  0  0  0  0  0  0  0  0  0
    4.3597   -1.2556    1.2141 O   0  0  0  0  0  0  0  0  0  0  0  0
    4.5438    0.6538    2.6876 C   0  0  1  0  0  0  0  0  0  0  0  0
    3.8677    1.5204    2.7057 H   0  0  0  0  0  0  0  0  0  0  0  0
    4.1157   -0.2726    3.7179 N   0  0  0  0  0  0  0  0  0  0  0  0
    3.6056    0.1727    4.8941 C   0  0  0  0  0  0  0  0  0  0  0  0
    3.5032    1.3702    5.1434 O   0  0  0  0  0  0  0  0  0  0  0  0
    3.1523   -0.8549    5.9178 C   0  0  0  0  0  0  0  0  0  0  0  0
    2.5876   -0.3138    7.0848 C   0  0  0  0  0  0  0  0  0  0  0  0
    2.1192   -1.1159    8.1223 C   0  0  0  0  0  0  0  0  0  0  0  0
    2.2109   -2.5066    8.0107 C   0  0  0  0  0  0  0  0  0  0  0  0
    2.7676   -3.0761    6.8684 C   0  0  0  0  0  0  0  0  0  0  0  0
    3.2387   -2.2651    5.8205 C   0  0  0  0  0  0  0  0  0  0  0  0
    3.8093   -2.8374    4.6571 N   0  0  0  0  0  0  0  0  0  0  0  0
    3.8861   -4.0579    4.5292 N   0  0  0  0  0  0  0  0  0  0  0  0
    4.0144   -5.1615    4.2950 N   0  0  0  0  0  0  0  0  0  0  0  0
    5.9937    1.1835    2.9460 C   0  0  1  0  0  0  0  0  0  0  0  0
    5.9393    1.5612    3.9814 H   0  0  0  0  0  0  0  0  0  0  0  0
    7.0318    0.0575    2.8969 C   0  0  0  0  0  0  0  0  0  0  0  0
    6.4096    2.3695    2.0558 C   0  0  0  0  0  0  0  0  0  0  0  0
    5.4740    3.5804    2.0866 C   0  0  0  0  0  0  0  0  0  0  0  0
    2.7513   -0.3080   -2.4496 H   0  0  0  0  0  0  0  0  0  0  0  0
    2.1969    0.9381   -1.2988 H   0  0  0  0  0  0  0  0  0  0  0  0
    2.3599   -0.7651   -0.7721 H   0  0  0  0  0  0  0  0  0  0  0  0
    4.7043    1.0471   -1.6502 H   0  0  0  0  0  0  0  0  0  0  0  0
    4.8421   -0.6427   -1.0688 H   0  0  0  0  0  0  0  0  0  0  0  0
    4.1584   -1.2695    3.5160 H   0  0  0  0  0  0  0  0  0  0  0  0
    2.5342    0.7747    7.1389 H   0  0  0  0  0  0  0  0  0  0  0  0
    1.6849   -0.6602    9.0149 H   0  0  0  0  0  0  0  0  0  0  0  0
    1.8499   -3.1540    8.8138 H   0  0  0  0  0  0  0  0  0  0  0  0
    2.8406   -4.1630    6.7835 H   0  0  0  0  0  0  0  0  0  0  0  0
    6.7477   -0.7822    3.5492 H   0  0  0  0  0  0  0  0  0  0  0  0
    8.0149    0.4239    3.2327 H   0  0  0  0  0  0  0  0  0  0  0  0
    7.1591   -0.3385    1.8752 H   0  0  0  0  0  0  0  0  0  0  0  0
    6.5381    2.0277    1.0145 H   0  0  0  0  0  0  0  0  0  0  0  0
    7.4133    2.6823    2.3940 H   0  0  0  0  0  0  0  0  0  0  0  0
    4.5162    3.3701    1.5863 H   0  0  0  0  0  0  0  0  0  0  0  0
    5.9292    4.4386    1.5668 H   0  0  0  0  0  0  0  0  0  0  0  0
    5.2525    3.8932    3.1204 H   0  0  0  0  0  0  0  0  0  0  0  0
  1  2  1  0
  1 25  1  0
  1 26  1  0
  1 27  1  0
  2  3  1  0
  2 28  1  0
  2 29  1  0
  3  4  1  0
  4  5  2  0
  4  6  1  0
  6  7  1  6
  6  8  1  0
  6 20  1  0
  8  9  1  0
  8 30  1  0
  9 10  1  0
  9 11  2  0
 11 12  1  0
 11 16  1  0
 12 13  2  0
 12 31  1  0
 13 14  1  0
 13 32  1  0
 14 15  2  0
 14 33  1  0
 15 16  1  0
 15 34  1  0
 16 17  2  0
 17 18  1  0
 18 19  3  0
 20 21  1  1
 20 22  1  0
 20 23  1  0
 22 35  1  0
 22 36  1  0
 22 37  1  0
 23 24  1  0
 23 38  1  0
 23 39  1  0
 24 40  1  0
 24 41  1  0
 24 42  1  0
M  CHG  2  10  -1  18   1
M  END

