
     RDKit          3D

 42 43  0  0  0  0  0  0  0  0999 V2000
    5.2983   -5.9168    2.3506 C   0  0  0  0  0  0  0  0  0  0  0  0
    4.7923   -4.4850    2.3107 C   0  0  0  0  0  0  0  0  0  0  0  0
    5.2463   -3.7973    1.1280 O   0  0  0  0  0  0  0  0  0  0  0  0
    4.5115   -3.9358    0.0151 C   0  0  0  0  0  0  0  0  0  0  0  0
    3.4474   -4.4967   -0.0415 O   0  0  0  0  0  0  0  0  0  0  0  0
    5.1285   -3.1749   -1.1663 C   0  0  2  0  0  0  0  0  0  0  0  0
    4.8999   -2.1121   -0.9944 H   0  0  0  0  0  0  0  0  0  0  0  0
    4.5390   -3.6220   -2.5022 C   0  0  0  0  0  0  0  0  0  0  0  0
    6.5993   -3.2260   -1.1486 N   0  0  0  0  0  0  0  0  0  0  0  0
    7.2152   -2.0488   -1.2483 N   0  0  0  0  0  0  0  0  0  0  0  0
    8.5266   -1.9986   -1.2792 C   0  0  0  0  0  0  0  0  0  0  0  0
    9.1465   -0.6427   -1.3344 C   0  0  0  0  0  0  0  0  0  0  0  0
    8.6158    0.3526   -0.4923 C   0  0  0  0  0  0  0  0  0  0  0  0
    9.1239    1.6538   -0.4556 C   0  0  0  0  0  0  0  0  0  0  0  0
    8.5352    2.7052    0.4534 C   0  0  0  0  0  0  0  0  0  0  0  0
   10.2020    1.9529   -1.3036 C   0  0  0  0  0  0  0  0  0  0  0  0
   10.7257    0.9842   -2.1564 C   0  0  0  0  0  0  0  0  0  0  0  0
   10.2195   -0.3257   -2.1993 C   0  0  0  0  0  0  0  0  0  0  0  0
   10.8149   -1.3078   -3.1839 C   0  0  0  0  0  0  0  0  0  0  0  0
    9.3034   -3.2068   -1.1868 C   0  0  0  0  0  0  0  0  0  0  0  0
    8.6732   -4.4076   -1.0828 C   0  0  0  0  0  0  0  0  0  0  0  0
    7.2226   -4.4874   -1.0681 C   0  0  0  0  0  0  0  0  0  0  0  0
    6.5538   -5.5095   -0.9841 O   0  0  0  0  0  0  0  0  0  0  0  0
    4.9754   -6.3986    3.2877 H   0  0  0  0  0  0  0  0  0  0  0  0
    6.3972   -5.9495    2.3021 H   0  0  0  0  0  0  0  0  0  0  0  0
    4.9001   -6.4958    1.5052 H   0  0  0  0  0  0  0  0  0  0  0  0
    5.1911   -3.8929    3.1475 H   0  0  0  0  0  0  0  0  0  0  0  0
    3.6932   -4.4521    2.3389 H   0  0  0  0  0  0  0  0  0  0  0  0
    4.9294   -2.9923   -3.3152 H   0  0  0  0  0  0  0  0  0  0  0  0
    3.4452   -3.5274   -2.4679 H   0  0  0  0  0  0  0  0  0  0  0  0
    4.7853   -4.6742   -2.6985 H   0  0  0  0  0  0  0  0  0  0  0  0
    7.7782    0.0829    0.1549 H   0  0  0  0  0  0  0  0  0  0  0  0
    7.7803    2.2785    1.1301 H   0  0  0  0  0  0  0  0  0  0  0  0
    8.0479    3.5071   -0.1273 H   0  0  0  0  0  0  0  0  0  0  0  0
    9.3126    3.1841    1.0713 H   0  0  0  0  0  0  0  0  0  0  0  0
   10.6310    2.9594   -1.3031 H   0  0  0  0  0  0  0  0  0  0  0  0
   11.5490    1.2514   -2.8254 H   0  0  0  0  0  0  0  0  0  0  0  0
   11.2769   -0.7729   -4.0271 H   0  0  0  0  0  0  0  0  0  0  0  0
   10.0618   -1.9955   -3.5966 H   0  0  0  0  0  0  0  0  0  0  0  0
   11.6079   -1.9267   -2.7289 H   0  0  0  0  0  0  0  0  0  0  0  0
   10.3926   -3.1473   -1.1716 H   0  0  0  0  0  0  0  0  0  0  0  0
    9.2126   -5.3524   -0.9948 H   0  0  0  0  0  0  0  0  0  0  0  0
  1  2  1  0
  1 24  1  0
  1 25  1  0
  1 26  1  0
  2  3  1  0
  2 27  1  0
  2 28  1  0
  3  4  1  0
  4  5  2  0
  4  6  1  0
  6  7  1  1
  6  8  1  0
  6  9  1  0
  8 29  1  0
  8 30  1  0
  8 31  1  0
  9 10  1  0
  9 22  1  0
 10 11  2  0
 11 12  1  0
 11 20  1  0
 12 13  2  0
 12 18  1  0
 13 14  1  0
 13 32  1  0
 14 15  1  0
 14 16  2  0
 15 33  1  0
 15 34  1  0
 15 35  1  0
 16 17  1  0
 16 36  1  0
 17 18  2  0
 17 37  1  0
 18 19  1  0
 19 38  1  0
 19 39  1  0
 19 40  1  0
 20 21  2  0
 20 41  1  0
 21 22  1  0
 21 42  1  0
 22 23  2  0
M  END

