
     RDKit          3D

 84 88  0  0  0  0  0  0  0  0999 V2000
    8.2517    8.6005    2.3156 C   0  0  0  0  0  0  0  0  0  0  0  0
    9.3683    7.8275    1.6121 C   0  0  0  0  0  0  0  0  0  0  0  0
    9.0304    7.4636    0.1632 C   0  0  0  0  0  0  0  0  0  0  0  0
   10.1596    6.7182   -0.5298 C   0  0  0  0  0  0  0  0  0  0  0  0
    9.8078    6.5107   -1.9106 O   0  0  0  0  0  0  0  0  0  0  0  0
    9.9851    5.3822   -2.6213 C   0  0  0  0  0  0  0  0  0  0  0  0
    9.4837    4.1026   -2.2266 C   0  0  0  0  0  0  0  0  0  0  0  0
    8.5778    3.8342   -0.5618 Br  0  0  0  0  0  0  0  0  0  0  0  0
    9.5526    3.0116   -3.0698 C   0  0  0  0  0  0  0  0  0  0  0  0
    9.9885    3.1578   -4.4075 C   0  0  0  0  0  0  0  0  0  0  0  0
   10.0009    2.0678   -5.3179 C   0  0  0  0  0  0  0  0  0  0  0  0
   10.4206    2.2626   -6.6105 C   0  0  0  0  0  0  0  0  0  0  0  0
   10.5447    0.7659   -7.7827 Br  0  0  0  0  0  0  0  0  0  0  0  0
   10.7609    3.5641   -7.1098 C   0  0  0  0  0  0  0  0  0  0  0  0
   11.2020    3.5959   -8.3765 O   0  0  0  0  0  0  0  0  0  0  0  0
   12.2976    4.4291   -8.7777 C   0  0  0  0  0  0  0  0  0  0  0  0
   13.1972    3.6418   -9.7201 C   0  0  0  0  0  0  0  0  0  0  0  0
   12.5178    3.2067  -11.0219 C   0  0  0  0  0  0  0  0  0  0  0  0
   13.4489    2.4323  -11.9553 C   0  0  0  0  0  0  0  0  0  0  0  0
   10.5902    4.6846   -6.2699 C   0  0  0  0  0  0  0  0  0  0  0  0
   10.5553    6.0959   -6.7101 C   0  0  0  0  0  0  0  0  0  0  0  0
   10.1112    6.5249   -7.9720 C   0  0  0  0  0  0  0  0  0  0  0  0
    9.5610    5.6789   -8.8766 O   0  0  0  0  0  0  0  0  0  0  0  0
    8.2190    5.2279   -8.6424 C   0  0  0  0  0  0  0  0  0  0  0  0
    7.8606    4.2216   -9.7216 C   0  0  0  0  0  0  0  0  0  0  0  0
    6.4348    3.6805   -9.5812 C   0  0  0  0  0  0  0  0  0  0  0  0
    6.0723    2.6600  -10.6613 C   0  0  0  0  0  0  0  0  0  0  0  0
   10.2942    7.8880   -8.3571 C   0  0  0  0  0  0  0  0  0  0  0  0
    9.7303    8.4266  -10.0953 Br  0  0  0  0  0  0  0  0  0  0  0  0
   10.8932    8.8048   -7.5244 C   0  0  0  0  0  0  0  0  0  0  0  0
   11.2518    8.4259   -6.2036 C   0  0  0  0  0  0  0  0  0  0  0  0
   11.8666    9.3336   -5.3030 C   0  0  0  0  0  0  0  0  0  0  0  0
   12.2557    8.9000   -4.0532 C   0  0  0  0  0  0  0  0  0  0  0  0
   13.1574   10.1105   -2.8861 Br  0  0  0  0  0  0  0  0  0  0  0  0
   11.9520    7.5883   -3.5912 C   0  0  0  0  0  0  0  0  0  0  0  0
   12.4438    7.1469   -2.3973 O   0  0  0  0  0  0  0  0  0  0  0  0
   13.8061    6.6800   -2.4712 C   0  0  0  0  0  0  0  0  0  0  0  0
   14.2616    6.1895   -1.1061 C   0  0  0  0  0  0  0  0  0  0  0  0
   13.6079    4.8971   -0.5968 C   0  0  0  0  0  0  0  0  0  0  0  0
   13.9523    3.6451   -1.4069 C   0  0  0  0  0  0  0  0  0  0  0  0
   11.1738    6.7446   -4.3957 C   0  0  0  0  0  0  0  0  0  0  0  0
   10.5393    5.5059   -3.9176 C   0  0  0  0  0  0  0  0  0  0  0  0
   10.3818    4.4488   -4.8645 C   0  0  0  0  0  0  0  0  0  0  0  0
   10.9820    7.0927   -5.7685 C   0  0  0  0  0  0  0  0  0  0  0  0
    8.5228    8.8455    3.3548 H   0  0  0  0  0  0  0  0  0  0  0  0
    7.3166    8.0165    2.3435 H   0  0  0  0  0  0  0  0  0  0  0  0
    8.0324    9.5479    1.7956 H   0  0  0  0  0  0  0  0  0  0  0  0
    9.5896    6.9049    2.1795 H   0  0  0  0  0  0  0  0  0  0  0  0
   10.2985    8.4240    1.6332 H   0  0  0  0  0  0  0  0  0  0  0  0
    8.8130    8.3790   -0.4147 H   0  0  0  0  0  0  0  0  0  0  0  0
    8.1161    6.8474    0.1303 H   0  0  0  0  0  0  0  0  0  0  0  0
   10.3690    5.7609   -0.0329 H   0  0  0  0  0  0  0  0  0  0  0  0
   11.0818    7.3162   -0.5268 H   0  0  0  0  0  0  0  0  0  0  0  0
    9.2020    2.0373   -2.7251 H   0  0  0  0  0  0  0  0  0  0  0  0
    9.7078    1.0733   -4.9776 H   0  0  0  0  0  0  0  0  0  0  0  0
   12.8530    4.7547   -7.8826 H   0  0  0  0  0  0  0  0  0  0  0  0
   11.8998    5.3209   -9.2845 H   0  0  0  0  0  0  0  0  0  0  0  0
   13.5906    2.7581   -9.1875 H   0  0  0  0  0  0  0  0  0  0  0  0
   14.0680    4.2834   -9.9496 H   0  0  0  0  0  0  0  0  0  0  0  0
   12.1268    4.1003  -11.5414 H   0  0  0  0  0  0  0  0  0  0  0  0
   11.6392    2.5890  -10.7741 H   0  0  0  0  0  0  0  0  0  0  0  0
   14.3262    3.0359  -12.2441 H   0  0  0  0  0  0  0  0  0  0  0  0
   12.9329    2.1331  -12.8814 H   0  0  0  0  0  0  0  0  0  0  0  0
   13.8255    1.5140  -11.4741 H   0  0  0  0  0  0  0  0  0  0  0  0
    7.5393    6.0996   -8.6704 H   0  0  0  0  0  0  0  0  0  0  0  0
    8.1438    4.7730   -7.6390 H   0  0  0  0  0  0  0  0  0  0  0  0
    8.5884    3.3939   -9.6820 H   0  0  0  0  0  0  0  0  0  0  0  0
    7.9884    4.7050  -10.7057 H   0  0  0  0  0  0  0  0  0  0  0  0
    5.7167    4.5202   -9.6120 H   0  0  0  0  0  0  0  0  0  0  0  0
    6.3148    3.2175   -8.5849 H   0  0  0  0  0  0  0  0  0  0  0  0
    6.1475    3.1005  -11.6695 H   0  0  0  0  0  0  0  0  0  0  0  0
    5.0430    2.2881  -10.5358 H   0  0  0  0  0  0  0  0  0  0  0  0
    6.7485    1.7897  -10.6303 H   0  0  0  0  0  0  0  0  0  0  0  0
   11.0740    9.8257   -7.8644 H   0  0  0  0  0  0  0  0  0  0  0  0
   12.0568   10.3618   -5.6146 H   0  0  0  0  0  0  0  0  0  0  0  0
   14.4540    7.5083   -2.8046 H   0  0  0  0  0  0  0  0  0  0  0  0
   13.8661    5.8800   -3.2308 H   0  0  0  0  0  0  0  0  0  0  0  0
   14.0997    7.0058   -0.3816 H   0  0  0  0  0  0  0  0  0  0  0  0
   15.3557    6.0456   -1.1661 H   0  0  0  0  0  0  0  0  0  0  0  0
   12.5145    5.0287   -0.5685 H   0  0  0  0  0  0  0  0  0  0  0  0
   13.9205    4.7458    0.4509 H   0  0  0  0  0  0  0  0  0  0  0  0
   13.5910    3.7103   -2.4459 H   0  0  0  0  0  0  0  0  0  0  0  0
   13.4924    2.7482   -0.9626 H   0  0  0  0  0  0  0  0  0  0  0  0
   15.0422    3.4763   -1.4427 H   0  0  0  0  0  0  0  0  0  0  0  0
  1  2  1  0
  1 45  1  0
  1 46  1  0
  1 47  1  0
  2  3  1  0
  2 48  1  0
  2 49  1  0
  3  4  1  0
  3 50  1  0
  3 51  1  0
  4  5  1  0
  4 52  1  0
  4 53  1  0
  5  6  1  0
  6  7  2  0
  6 42  1  0
  7  8  1  0
  7  9  1  0
  9 10  2  0
  9 54  1  0
 10 11  1  0
 10 43  1  0
 11 12  2  0
 11 55  1  0
 12 13  1  0
 12 14  1  0
 14 15  1  0
 14 20  2  0
 15 16  1  0
 16 17  1  0
 16 56  1  0
 16 57  1  0
 17 18  1  0
 17 58  1  0
 17 59  1  0
 18 19  1  0
 18 60  1  0
 18 61  1  0
 19 62  1  0
 19 63  1  0
 19 64  1  0
 20 21  1  0
 20 43  1  0
 21 22  1  0
 21 44  2  0
 22 23  1  0
 22 28  2  0
 23 24  1  0
 24 25  1  0
 24 65  1  0
 24 66  1  0
 25 26  1  0
 25 67  1  0
 25 68  1  0
 26 27  1  0
 26 69  1  0
 26 70  1  0
 27 71  1  0
 27 72  1  0
 27 73  1  0
 28 29  1  0
 28 30  1  0
 30 31  2  0
 30 74  1  0
 31 32  1  0
 31 44  1  0
 32 33  2  0
 32 75  1  0
 33 34  1  0
 33 35  1  0
 35 36  1  0
 35 41  2  0
 36 37  1  0
 37 38  1  0
 37 76  1  0
 37 77  1  0
 38 39  1  0
 38 78  1  0
 38 79  1  0
 39 40  1  0
 39 80  1  0
 39 81  1  0
 40 82  1  0
 40 83  1  0
 40 84  1  0
 41 42  1  0
 41 44  1  0
 42 43  2  0
M  END

