
     RDKit          3D

 39 40  0  0  0  0  0  0  0  0999 V2000
    0.8976   -0.1838    0.0426 C   0  0  0  0  0  0  0  0  0  0  0  0
    2.4075   -0.1180    0.1213 C   0  0  0  0  0  0  0  0  0  0  0  0
    3.1259    1.0598   -0.1761 C   0  0  0  0  0  0  0  0  0  0  0  0
    2.4335    2.3579   -0.5369 C   0  0  0  0  0  0  0  0  0  0  0  0
    4.5403    1.0457   -0.1523 C   0  0  0  0  0  0  0  0  0  0  0  0
    5.2848    2.2974   -0.5631 C   0  0  0  0  0  0  0  0  0  0  0  0
    5.2148   -0.1365    0.2211 C   0  0  0  0  0  0  0  0  0  0  0  0
    6.7211   -0.1399    0.2473 C   0  0  0  0  0  0  0  0  0  0  0  0
    7.3612    0.6886    0.8597 O   0  0  0  0  0  0  0  0  0  0  0  0
    7.4876   -1.1962   -0.5419 C   0  0  0  0  0  0  0  0  0  0  0  0
    8.4859   -1.9430    0.1063 C   0  0  0  0  0  0  0  0  0  0  0  0
    8.6304   -1.8039    1.4307 F   0  0  0  0  0  0  0  0  0  0  0  0
    9.2967   -2.8635   -0.5474 C   0  0  0  0  0  0  0  0  0  0  0  0
    9.1314   -3.0432   -1.9223 C   0  0  0  0  0  0  0  0  0  0  0  0
    8.1645   -2.3162   -2.6164 C   0  0  0  0  0  0  0  0  0  0  0  0
    7.3554   -1.4062   -1.9262 C   0  0  0  0  0  0  0  0  0  0  0  0
    6.1939   -0.4925   -2.8637 Cl  0  0  0  0  0  0  0  0  0  0  0  0
    4.5007   -1.2977    0.5985 C   0  0  0  0  0  0  0  0  0  0  0  0
    5.2294   -2.5095    1.1495 C   0  0  0  0  0  0  0  0  0  0  0  0
    3.0955   -1.2926    0.5138 C   0  0  0  0  0  0  0  0  0  0  0  0
    2.2867   -2.5293    0.8417 C   0  0  0  0  0  0  0  0  0  0  0  0
    0.4388    0.7439   -0.3139 H   0  0  0  0  0  0  0  0  0  0  0  0
    0.4518   -0.4178    1.0245 H   0  0  0  0  0  0  0  0  0  0  0  0
    0.5735   -0.9861   -0.6403 H   0  0  0  0  0  0  0  0  0  0  0  0
    1.3675    2.3604   -0.2842 H   0  0  0  0  0  0  0  0  0  0  0  0
    2.5149    2.5786   -1.6163 H   0  0  0  0  0  0  0  0  0  0  0  0
    2.8884    3.2100   -0.0100 H   0  0  0  0  0  0  0  0  0  0  0  0
    4.8732    2.7118   -1.4964 H   0  0  0  0  0  0  0  0  0  0  0  0
    6.3557    2.1321   -0.7111 H   0  0  0  0  0  0  0  0  0  0  0  0
    5.1893    3.0836    0.2053 H   0  0  0  0  0  0  0  0  0  0  0  0
   10.0378   -3.4204    0.0281 H   0  0  0  0  0  0  0  0  0  0  0  0
    9.7623   -3.7558   -2.4584 H   0  0  0  0  0  0  0  0  0  0  0  0
    8.0324   -2.4370   -3.6921 H   0  0  0  0  0  0  0  0  0  0  0  0
    6.2264   -2.2585    1.5287 H   0  0  0  0  0  0  0  0  0  0  0  0
    5.3492   -3.3081    0.3972 H   0  0  0  0  0  0  0  0  0  0  0  0
    4.6826   -2.9447    1.9983 H   0  0  0  0  0  0  0  0  0  0  0  0
    2.9106   -3.4039    1.0554 H   0  0  0  0  0  0  0  0  0  0  0  0
    1.6252   -2.8038    0.0038 H   0  0  0  0  0  0  0  0  0  0  0  0
    1.6288   -2.3700    1.7138 H   0  0  0  0  0  0  0  0  0  0  0  0
  1  2  1  0
  1 22  1  0
  1 23  1  0
  1 24  1  0
  2  3  2  0
  2 20  1  0
  3  4  1  0
  3  5  1  0
  4 25  1  0
  4 26  1  0
  4 27  1  0
  5  6  1  0
  5  7  2  0
  6 28  1  0
  6 29  1  0
  6 30  1  0
  7  8  1  0
  7 18  1  0
  8  9  2  0
  8 10  1  0
 10 11  2  0
 10 16  1  0
 11 12  1  0
 11 13  1  0
 13 14  2  0
 13 31  1  0
 14 15  1  0
 14 32  1  0
 15 16  2  0
 15 33  1  0
 16 17  1  0
 18 19  1  0
 18 20  2  0
 19 34  1  0
 19 35  1  0
 19 36  1  0
 20 21  1  0
 21 37  1  0
 21 38  1  0
 21 39  1  0
M  END

