
     RDKit          3D

 38 38  0  0  0  0  0  0  0  0999 V2000
    3.1858    0.2656   -1.6280 C   0  0  0  0  0  0  0  0  0  0  0  0
    3.5671   -0.4542   -0.4776 O   0  0  0  0  0  0  0  0  0  0  0  0
    3.5912    0.1677    0.7269 C   0  0  0  0  0  0  0  0  0  0  0  0
    3.2561    1.5155    0.9128 C   0  0  0  0  0  0  0  0  0  0  0  0
    3.3196    2.0553    2.2097 C   0  0  0  0  0  0  0  0  0  0  0  0
    2.9985    3.3484    2.4861 O   0  0  0  0  0  0  0  0  0  0  0  0
    2.5490    4.2026    1.4577 C   0  0  0  0  0  0  0  0  0  0  0  0
    3.7029    1.2757    3.3125 C   0  0  0  0  0  0  0  0  0  0  0  0
    3.7012    1.8398    4.7165 C   0  0  0  0  0  0  0  0  0  0  0  0
    2.9169    1.4363    5.5488 O   0  0  0  0  0  0  0  0  0  0  0  0
    4.7536    2.8925    5.0295 C   0  0  0  0  0  0  0  0  0  0  0  0
    4.6223    3.5663    6.3957 C   0  0  0  0  0  0  0  0  0  0  0  0
    4.8829    2.6386    7.5821 C   0  0  0  0  0  0  0  0  0  0  0  0
    4.9111    3.3674    8.9175 C   0  0  0  0  0  0  0  0  0  0  0  0
    4.9662    4.5592    9.0505 O   0  0  0  0  0  0  0  0  0  0  0  0
    4.8972    2.5607   10.0082 O   0  0  0  0  0  0  0  0  0  0  0  0
    4.0345   -0.0794    3.0921 C   0  0  0  0  0  0  0  0  0  0  0  0
    4.4278   -0.7729    4.1875 O   0  0  0  0  0  0  0  0  0  0  0  0
    4.7386   -2.1436    4.0712 C   0  0  0  0  0  0  0  0  0  0  0  0
    3.9847   -0.6332    1.8097 C   0  0  0  0  0  0  0  0  0  0  0  0
    3.2412   -0.4381   -2.4694 H   0  0  0  0  0  0  0  0  0  0  0  0
    3.8657    1.1136   -1.8273 H   0  0  0  0  0  0  0  0  0  0  0  0
    2.1521    0.6479   -1.5506 H   0  0  0  0  0  0  0  0  0  0  0  0
    2.9452    2.1322    0.0747 H   0  0  0  0  0  0  0  0  0  0  0  0
    2.3413    5.1726    1.9286 H   0  0  0  0  0  0  0  0  0  0  0  0
    1.6218    3.8264    0.9906 H   0  0  0  0  0  0  0  0  0  0  0  0
    3.3147    4.3429    0.6740 H   0  0  0  0  0  0  0  0  0  0  0  0
    4.7208    3.6399    4.2208 H   0  0  0  0  0  0  0  0  0  0  0  0
    5.7352    2.3910    4.9208 H   0  0  0  0  0  0  0  0  0  0  0  0
    3.6122    3.9950    6.4958 H   0  0  0  0  0  0  0  0  0  0  0  0
    5.3210    4.4151    6.4543 H   0  0  0  0  0  0  0  0  0  0  0  0
    5.8606    2.1306    7.4708 H   0  0  0  0  0  0  0  0  0  0  0  0
    4.1218    1.8419    7.6095 H   0  0  0  0  0  0  0  0  0  0  0  0
    4.8131    1.6363    9.7344 H   0  0  0  0  0  0  0  0  0  0  0  0
    4.9956   -2.4905    5.0809 H   0  0  0  0  0  0  0  0  0  0  0  0
    5.6011   -2.3145    3.4024 H   0  0  0  0  0  0  0  0  0  0  0  0
    3.8782   -2.7275    3.6998 H   0  0  0  0  0  0  0  0  0  0  0  0
    4.2441   -1.6703    1.6082 H   0  0  0  0  0  0  0  0  0  0  0  0
  1  2  1  0
  1 21  1  0
  1 22  1  0
  1 23  1  0
  2  3  1  0
  3  4  2  0
  3 20  1  0
  4  5  1  0
  4 24  1  0
  5  6  1  0
  5  8  2  0
  6  7  1  0
  7 25  1  0
  7 26  1  0
  7 27  1  0
  8  9  1  0
  8 17  1  0
  9 10  2  0
  9 11  1  0
 11 12  1  0
 11 28  1  0
 11 29  1  0
 12 13  1  0
 12 30  1  0
 12 31  1  0
 13 14  1  0
 13 32  1  0
 13 33  1  0
 14 15  2  0
 14 16  1  0
 16 34  1  0
 17 18  1  0
 17 20  2  0
 18 19  1  0
 19 35  1  0
 19 36  1  0
 19 37  1  0
 20 38  1  0
M  END

