
     RDKit          3D

 38 39  0  0  0  0  0  0  0  0999 V2000
    4.2874   -1.5312    1.7200 C   0  0  0  0  0  0  0  0  0  0  0  0
    3.9294   -0.5419    0.6427 C   0  0  0  0  0  0  0  0  0  0  0  0
    4.5263    0.6509    0.6846 N   0  0  0  0  0  0  0  0  0  0  0  0
    4.2684    1.5535   -0.2606 C   0  0  0  0  0  0  0  0  0  0  0  0
    5.0094    2.8715   -0.1069 C   0  0  1  0  0  0  0  0  0  0  0  0
    6.3362    2.6926   -0.1220 F   0  0  0  0  0  0  0  0  0  0  0  0
    4.7033    3.7229   -1.1052 F   0  0  0  0  0  0  0  0  0  0  0  0
    4.6935    3.4756    1.0473 F   0  0  0  0  0  0  0  0  0  0  0  0
    3.3902    1.3330   -1.3199 C   0  0  0  0  0  0  0  0  0  0  0  0
    2.7455    0.0946   -1.3681 C   0  0  0  0  0  0  0  0  0  0  0  0
    3.0020   -0.8605   -0.3821 C   0  0  0  0  0  0  0  0  0  0  0  0
    2.4192   -2.2526   -0.4807 C   0  0  0  0  0  0  0  0  0  0  0  0
    3.1629   -3.2003   -0.6888 O   0  0  0  0  0  0  0  0  0  0  0  0
    1.0586   -2.3901   -0.3671 N   0  0  0  0  0  0  0  0  0  0  0  0
    0.1177   -1.3739    0.0891 C   0  0  0  0  0  0  0  0  0  0  0  0
   -1.1115   -1.3373   -0.8301 C   0  0  2  0  0  0  0  0  0  0  0  0
   -0.7706   -1.0047   -1.8349 H   0  0  0  0  0  0  0  0  0  0  0  0
   -2.1956   -0.4021   -0.3217 C   0  0  0  0  0  0  0  0  0  0  0  0
   -1.6740   -2.6344   -0.9409 O   0  0  0  0  0  0  0  0  0  0  0  0
   -0.7723   -3.6162   -1.4396 C   0  0  2  0  0  0  0  0  0  0  0  0
   -0.4261   -3.3035   -2.4478 H   0  0  0  0  0  0  0  0  0  0  0  0
   -1.5292   -4.9291   -1.5421 C   0  0  0  0  0  0  0  0  0  0  0  0
    0.4589   -3.7113   -0.5329 C   0  0  0  0  0  0  0  0  0  0  0  0
    4.9642   -1.0554    2.4404 H   0  0  0  0  0  0  0  0  0  0  0  0
    4.7730   -2.4148    1.2789 H   0  0  0  0  0  0  0  0  0  0  0  0
    3.3906   -1.8929    2.2491 H   0  0  0  0  0  0  0  0  0  0  0  0
    3.2172    2.0978   -2.0769 H   0  0  0  0  0  0  0  0  0  0  0  0
    2.0497   -0.1305   -2.1809 H   0  0  0  0  0  0  0  0  0  0  0  0
    0.6034   -0.3914    0.1228 H   0  0  0  0  0  0  0  0  0  0  0  0
   -0.2204   -1.6203    1.1145 H   0  0  0  0  0  0  0  0  0  0  0  0
   -1.8283    0.6342   -0.2631 H   0  0  0  0  0  0  0  0  0  0  0  0
   -2.5351   -0.7135    0.6787 H   0  0  0  0  0  0  0  0  0  0  0  0
   -3.0618   -0.4294   -0.9987 H   0  0  0  0  0  0  0  0  0  0  0  0
   -2.4117   -4.8063   -2.1868 H   0  0  0  0  0  0  0  0  0  0  0  0
   -1.8747   -5.2532   -0.5478 H   0  0  0  0  0  0  0  0  0  0  0  0
   -0.8893   -5.7174   -1.9673 H   0  0  0  0  0  0  0  0  0  0  0  0
    1.2205   -4.3811   -0.9512 H   0  0  0  0  0  0  0  0  0  0  0  0
    0.1512   -4.1075    0.4538 H   0  0  0  0  0  0  0  0  0  0  0  0
  1  2  1  0
  1 24  1  0
  1 25  1  0
  1 26  1  0
  2  3  2  0
  2 11  1  0
  3  4  1  0
  4  5  1  0
  4  9  2  0
  5  6  1  1
  5  7  1  0
  5  8  1  0
  9 10  1  0
  9 27  1  0
 10 11  2  0
 10 28  1  0
 11 12  1  0
 12 13  2  0
 12 14  1  0
 14 15  1  0
 14 23  1  0
 15 16  1  0
 15 29  1  0
 15 30  1  0
 16 17  1  6
 16 18  1  0
 16 19  1  0
 18 31  1  0
 18 32  1  0
 18 33  1  0
 19 20  1  0
 20 21  1  6
 20 22  1  0
 20 23  1  0
 22 34  1  0
 22 35  1  0
 22 36  1  0
 23 37  1  0
 23 38  1  0
M  END

