
     RDKit          3D

 96101  0  0  0  0  0  0  0  0999 V2000
   11.5352    5.9747    1.9195 C   0  0  0  0  0  0  0  0  0  0  0  0
   11.3177    4.5344    1.5242 C   0  0  0  0  0  0  0  0  0  0  0  0
   12.1801    3.5287    2.0440 C   0  0  0  0  0  0  0  0  0  0  0  0
   12.0352    2.1975    1.6758 C   0  0  0  0  0  0  0  0  0  0  0  0
   12.8749    1.1919    2.1693 N   0  0  0  0  0  0  0  0  0  0  0  0
   13.6270    0.3776    1.2178 C   0  0  0  0  0  0  0  0  0  0  0  0
   13.6306    1.4688    3.3745 C   0  0  0  0  0  0  0  0  0  0  0  0
   10.9253    1.8767    0.8025 C   0  0  0  0  0  0  0  0  0  0  0  0
   10.5396    0.5503    0.4784 C   0  0  0  0  0  0  0  0  0  0  0  0
    9.4394    0.3021   -0.3300 C   0  0  0  0  0  0  0  0  0  0  0  0
    8.9820   -1.0028   -0.6133 N   0  0  0  0  0  0  0  0  0  0  0  0
    9.6812   -2.1403   -0.9104 C   0  0  0  0  0  0  0  0  0  0  0  0
   11.0000   -2.0626   -1.1472 N   0  0  0  0  0  0  0  0  0  0  0  0
   11.5636   -3.2341   -1.4633 C   0  0  0  0  0  0  0  0  0  0  0  0
   12.8981   -3.2977   -1.7804 N   0  0  0  0  0  0  0  0  0  0  0  0
   13.8640   -2.3107   -2.0206 C   0  0  0  0  0  0  0  0  0  0  0  0
   13.5393   -0.9453   -2.2626 C   0  0  0  0  0  0  0  0  0  0  0  0
   14.5450   -0.0305   -2.4853 C   0  0  0  0  0  0  0  0  0  0  0  0
   15.9164   -0.4047   -2.5030 C   0  0  0  0  0  0  0  0  0  0  0  0
   16.8537    0.5736   -2.6483 N   0  0  0  0  0  0  0  0  0  0  0  0
   18.1247    0.2330   -2.6171 C   0  0  0  0  0  0  0  0  0  0  0  0
   19.1530    1.3300   -2.7479 C   0  0  0  0  0  0  0  0  0  0  0  0
   18.5549   -1.1206   -2.4932 C   0  0  0  0  0  0  0  0  0  0  0  0
   17.6357   -2.1531   -2.3902 C   0  0  0  0  0  0  0  0  0  0  0  0
   18.0159   -3.5050   -2.2973 N   0  0  0  0  0  0  0  0  0  0  0  0
   19.3612   -3.7967   -1.8430 C   0  0  0  0  0  0  0  0  0  0  0  0
   17.5929   -4.3922   -3.3770 C   0  0  0  0  0  0  0  0  0  0  0  0
   16.2394   -1.7888   -2.3344 C   0  0  0  0  0  0  0  0  0  0  0  0
   15.1981   -2.7078   -2.0596 C   0  0  0  0  0  0  0  0  0  0  0  0
   10.9402   -4.4196   -1.5039 N   0  0  0  0  0  0  0  0  0  0  0  0
    9.6211   -4.3821   -1.2435 C   0  0  0  0  0  0  0  0  0  0  0  0
    8.9295   -5.5569   -1.2675 N   0  0  0  0  0  0  0  0  0  0  0  0
    9.5549   -6.8290   -1.6136 C   0  0  0  0  0  0  0  0  0  0  0  0
    9.1812   -7.9017   -0.5760 C   0  0  0  0  0  0  0  0  0  0  0  0
    7.7441   -8.0242   -0.3519 N   0  0  0  0  0  0  0  0  0  0  0  0
    7.0216   -8.8157   -1.3479 C   0  0  0  0  0  0  0  0  0  0  0  0
    7.1252  -10.3227   -1.0858 C   0  0  0  0  0  0  0  0  0  0  0  0
    6.3623  -11.1710   -2.1082 C   0  0  0  0  0  0  0  0  0  0  0  0
    6.8312  -11.0250   -3.4830 N   0  0  0  0  0  0  0  0  0  0  0  0
    8.1284  -11.6289   -3.7171 C   0  0  0  0  0  0  0  0  0  0  0  0
    5.8511  -11.4691   -4.4546 C   0  0  0  0  0  0  0  0  0  0  0  0
    7.1717   -6.7253   -0.0205 C   0  0  0  0  0  0  0  0  0  0  0  0
    7.4889   -5.6237   -1.0451 C   0  0  0  0  0  0  0  0  0  0  0  0
    8.9426   -3.2557   -0.9609 N   0  0  0  0  0  0  0  0  0  0  0  0
    8.6800    1.3918   -0.8346 C   0  0  0  0  0  0  0  0  0  0  0  0
    9.0100    2.6853   -0.5005 C   0  0  0  0  0  0  0  0  0  0  0  0
   10.1229    2.9694    0.3375 C   0  0  0  0  0  0  0  0  0  0  0  0
   10.3379    4.2691    0.6863 N   0  0  0  0  0  0  0  0  0  0  0  0
   12.5522    6.3119    1.6573 H   0  0  0  0  0  0  0  0  0  0  0  0
   11.4209    6.1091    3.0086 H   0  0  0  0  0  0  0  0  0  0  0  0
   10.8049    6.6116    1.4038 H   0  0  0  0  0  0  0  0  0  0  0  0
   12.9899    3.8335    2.7073 H   0  0  0  0  0  0  0  0  0  0  0  0
   13.0682    0.2225    0.2905 H   0  0  0  0  0  0  0  0  0  0  0  0
   13.8472   -0.6108    1.6534 H   0  0  0  0  0  0  0  0  0  0  0  0
   14.5915    0.8562    0.9510 H   0  0  0  0  0  0  0  0  0  0  0  0
   12.9875    1.9348    4.1348 H   0  0  0  0  0  0  0  0  0  0  0  0
   14.5080    2.1294    3.2062 H   0  0  0  0  0  0  0  0  0  0  0  0
   14.0105    0.5187    3.7826 H   0  0  0  0  0  0  0  0  0  0  0  0
   11.0851   -0.2902    0.9002 H   0  0  0  0  0  0  0  0  0  0  0  0
    7.9796   -1.1557   -0.5880 H   0  0  0  0  0  0  0  0  0  0  0  0
   13.2041   -4.2561   -1.9068 H   0  0  0  0  0  0  0  0  0  0  0  0
   12.4961   -0.6381   -2.2411 H   0  0  0  0  0  0  0  0  0  0  0  0
   14.3161    1.0252   -2.6449 H   0  0  0  0  0  0  0  0  0  0  0  0
   18.6461    2.2935   -2.8880 H   0  0  0  0  0  0  0  0  0  0  0  0
   19.8247    1.1509   -3.6042 H   0  0  0  0  0  0  0  0  0  0  0  0
   19.7873    1.3890   -1.8468 H   0  0  0  0  0  0  0  0  0  0  0  0
   19.6246   -1.3315   -2.5242 H   0  0  0  0  0  0  0  0  0  0  0  0
   19.6034   -3.1971   -0.9538 H   0  0  0  0  0  0  0  0  0  0  0  0
   20.1413   -3.6104   -2.6124 H   0  0  0  0  0  0  0  0  0  0  0  0
   19.4237   -4.8613   -1.5657 H   0  0  0  0  0  0  0  0  0  0  0  0
   16.5906   -4.1283   -3.7340 H   0  0  0  0  0  0  0  0  0  0  0  0
   17.5727   -5.4370   -3.0247 H   0  0  0  0  0  0  0  0  0  0  0  0
   18.2841   -4.3394   -4.2447 H   0  0  0  0  0  0  0  0  0  0  0  0
   15.4542   -3.7453   -1.8371 H   0  0  0  0  0  0  0  0  0  0  0  0
   10.6397   -6.6820   -1.6596 H   0  0  0  0  0  0  0  0  0  0  0  0
    9.2139   -7.1401   -2.6206 H   0  0  0  0  0  0  0  0  0  0  0  0
    9.6651   -7.6421    0.3833 H   0  0  0  0  0  0  0  0  0  0  0  0
    9.5922   -8.8743   -0.8891 H   0  0  0  0  0  0  0  0  0  0  0  0
    7.3369   -8.6128   -2.3911 H   0  0  0  0  0  0  0  0  0  0  0  0
    5.9573   -8.5294   -1.2988 H   0  0  0  0  0  0  0  0  0  0  0  0
    6.7263  -10.5359   -0.0802 H   0  0  0  0  0  0  0  0  0  0  0  0
    8.1851  -10.6273   -1.0534 H   0  0  0  0  0  0  0  0  0  0  0  0
    5.3016  -10.8669   -2.0890 H   0  0  0  0  0  0  0  0  0  0  0  0
    6.3799  -12.2392   -1.7849 H   0  0  0  0  0  0  0  0  0  0  0  0
    8.8861  -11.2117   -3.0373 H   0  0  0  0  0  0  0  0  0  0  0  0
    8.4605  -11.4215   -4.7468 H   0  0  0  0  0  0  0  0  0  0  0  0
    8.1259  -12.7364   -3.5789 H   0  0  0  0  0  0  0  0  0  0  0  0
    4.9020  -10.9278   -4.3149 H   0  0  0  0  0  0  0  0  0  0  0  0
    5.6297  -12.5610   -4.3930 H   0  0  0  0  0  0  0  0  0  0  0  0
    6.2092  -11.2618   -5.4758 H   0  0  0  0  0  0  0  0  0  0  0  0
    7.5743   -6.4084    0.9594 H   0  0  0  0  0  0  0  0  0  0  0  0
    6.0804   -6.8246    0.0935 H   0  0  0  0  0  0  0  0  0  0  0  0
    7.1457   -4.6429   -0.6969 H   0  0  0  0  0  0  0  0  0  0  0  0
    6.9793   -5.8407   -2.0049 H   0  0  0  0  0  0  0  0  0  0  0  0
    7.8232    1.1879   -1.4826 H   0  0  0  0  0  0  0  0  0  0  0  0
    8.4246    3.5353   -0.8560 H   0  0  0  0  0  0  0  0  0  0  0  0
  1  2  1  0
  1 49  1  0
  1 50  1  0
  1 51  1  0
  2  3  2  0
  2 48  1  0
  3  4  1  0
  3 52  1  0
  4  5  1  0
  4  8  2  0
  5  6  1  0
  5  7  1  0
  6 53  1  0
  6 54  1  0
  6 55  1  0
  7 56  1  0
  7 57  1  0
  7 58  1  0
  8  9  1  0
  8 47  1  0
  9 10  2  0
  9 59  1  0
 10 11  1  0
 10 45  1  0
 11 12  1  0
 11 60  1  0
 12 13  2  0
 12 44  1  0
 13 14  1  0
 14 15  1  0
 14 30  2  0
 15 16  1  0
 15 61  1  0
 16 17  2  0
 16 29  1  0
 17 18  1  0
 17 62  1  0
 18 19  2  0
 18 63  1  0
 19 20  1  0
 19 28  1  0
 20 21  2  0
 21 22  1  0
 21 23  1  0
 22 64  1  0
 22 65  1  0
 22 66  1  0
 23 24  2  0
 23 67  1  0
 24 25  1  0
 24 28  1  0
 25 26  1  0
 25 27  1  0
 26 68  1  0
 26 69  1  0
 26 70  1  0
 27 71  1  0
 27 72  1  0
 27 73  1  0
 28 29  2  0
 29 74  1  0
 30 31  1  0
 31 32  1  0
 31 44  2  0
 32 33  1  0
 32 43  1  0
 33 34  1  0
 33 75  1  0
 33 76  1  0
 34 35  1  0
 34 77  1  0
 34 78  1  0
 35 36  1  0
 35 42  1  0
 36 37  1  0
 36 79  1  0
 36 80  1  0
 37 38  1  0
 37 81  1  0
 37 82  1  0
 38 39  1  0
 38 83  1  0
 38 84  1  0
 39 40  1  0
 39 41  1  0
 40 85  1  0
 40 86  1  0
 40 87  1  0
 41 88  1  0
 41 89  1  0
 41 90  1  0
 42 43  1  0
 42 91  1  0
 42 92  1  0
 43 93  1  0
 43 94  1  0
 45 46  2  0
 45 95  1  0
 46 47  1  0
 46 96  1  0
 47 48  2  0
M  END

