
     RDKit          3D

 56 59  0  0  0  0  0  0  0  0999 V2000
    2.9894    0.6962    2.0838 C   0  0  0  0  0  0  0  0  0  0  0  0
    2.0876    0.4317    0.8951 C   0  0  0  0  0  0  0  0  0  0  0  0
    1.7147   -0.6820    0.5928 O   0  0  0  0  0  0  0  0  0  0  0  0
    1.7011    1.5559    0.1509 N   0  0  0  0  0  0  0  0  0  0  0  0
    2.0699    2.8887    0.4177 C   0  0  0  0  0  0  0  0  0  0  0  0
    1.5095    3.7117   -0.5207 C   0  0  0  0  0  0  0  0  0  0  0  0
    1.6127    5.0990   -0.6500 N   0  0  0  0  0  0  0  0  0  0  0  0
    2.3206    5.9170    0.2134 C   0  0  0  0  0  0  0  0  0  0  0  0
    2.9193    5.4890    1.1910 O   0  0  0  0  0  0  0  0  0  0  0  0
    2.2859    7.2621   -0.0891 N   0  0  0  0  0  0  0  0  0  0  0  0
    1.9155    7.8382   -1.3887 C   0  0  0  0  0  0  0  0  0  0  0  0
    2.7786    9.1036   -1.4753 C   0  0  0  0  0  0  0  0  0  0  0  0
    2.9092    9.5402   -0.0119 C   0  0  1  0  0  0  0  0  0  0  0  0
    3.7771   10.1917    0.1727 H   0  0  0  0  0  0  0  0  0  0  0  0
    1.6567   10.2136    0.3756 N   0  0  0  0  0  0  0  0  0  0  0  0
    1.7119   11.1165    1.2083 N   0  0  0  0  0  0  0  0  0  0  0  0
    1.6338   11.9738    1.9490 N   0  0  0  0  0  0  0  0  0  0  0  0
    3.0920    8.1823    0.7166 C   0  0  1  0  0  0  0  0  0  0  0  0
    4.1578    7.9026    0.6664 H   0  0  0  0  0  0  0  0  0  0  0  0
    2.8567    8.3094    2.2324 C   0  0  0  0  0  0  0  0  0  0  0  0
    3.7947    8.7235    2.8949 O   0  0  0  0  0  0  0  0  0  0  0  0
    1.6444    8.0650    2.8063 N   0  0  0  0  0  0  0  0  0  0  0  0
    0.4004    7.5426    2.2505 C   0  0  0  0  0  0  0  0  0  0  0  0
   -0.7606    7.8549    3.1693 C   0  0  0  0  0  0  0  0  0  0  0  0
   -1.2627    6.9044    4.0691 C   0  0  0  0  0  0  0  0  0  0  0  0
   -2.3175    7.2151    4.9316 C   0  0  0  0  0  0  0  0  0  0  0  0
   -2.8902    8.4879    4.9104 C   0  0  0  0  0  0  0  0  0  0  0  0
   -2.4044    9.4504    4.0204 C   0  0  0  0  0  0  0  0  0  0  0  0
   -3.1001   11.0428    3.9577 Cl  0  0  0  0  0  0  0  0  0  0  0  0
   -1.3457    9.1275    3.1643 C   0  0  0  0  0  0  0  0  0  0  0  0
   -0.8914   10.0491    2.3093 F   0  0  0  0  0  0  0  0  0  0  0  0
    0.7459    2.8846   -1.4343 C   0  0  0  0  0  0  0  0  0  0  0  0
   -0.0236    3.1696   -2.5729 C   0  0  0  0  0  0  0  0  0  0  0  0
   -0.6465    2.1180   -3.2421 C   0  0  0  0  0  0  0  0  0  0  0  0
   -0.5055    0.7940   -2.7865 C   0  0  0  0  0  0  0  0  0  0  0  0
    0.2571    0.4849   -1.6589 C   0  0  0  0  0  0  0  0  0  0  0  0
    0.8814    1.5442   -0.9888 C   0  0  0  0  0  0  0  0  0  0  0  0
    3.2057   -0.2680    2.5587 H   0  0  0  0  0  0  0  0  0  0  0  0
    2.5054    1.3628    2.8144 H   0  0  0  0  0  0  0  0  0  0  0  0
    3.9330    1.1715    1.7740 H   0  0  0  0  0  0  0  0  0  0  0  0
    2.7045    3.1604    1.2503 H   0  0  0  0  0  0  0  0  0  0  0  0
    1.0319    5.5223   -1.3612 H   0  0  0  0  0  0  0  0  0  0  0  0
    0.8397    8.0902   -1.4276 H   0  0  0  0  0  0  0  0  0  0  0  0
    2.1366    7.1369   -2.2094 H   0  0  0  0  0  0  0  0  0  0  0  0
    2.3361    9.8869   -2.1051 H   0  0  0  0  0  0  0  0  0  0  0  0
    3.7770    8.8558   -1.8675 H   0  0  0  0  0  0  0  0  0  0  0  0
    1.6835    8.1617    3.8178 H   0  0  0  0  0  0  0  0  0  0  0  0
    0.4565    6.4486    2.1196 H   0  0  0  0  0  0  0  0  0  0  0  0
    0.2268    7.9995    1.2682 H   0  0  0  0  0  0  0  0  0  0  0  0
   -0.8183    5.9059    4.0846 H   0  0  0  0  0  0  0  0  0  0  0  0
   -2.6986    6.4625    5.6252 H   0  0  0  0  0  0  0  0  0  0  0  0
   -3.7153    8.7499    5.5747 H   0  0  0  0  0  0  0  0  0  0  0  0
   -0.1372    4.1942   -2.9395 H   0  0  0  0  0  0  0  0  0  0  0  0
   -1.2495    2.3220   -4.1303 H   0  0  0  0  0  0  0  0  0  0  0  0
   -1.0031   -0.0147   -3.3276 H   0  0  0  0  0  0  0  0  0  0  0  0
    0.3715   -0.5361   -1.3028 H   0  0  0  0  0  0  0  0  0  0  0  0
  1  2  1  0
  1 38  1  0
  1 39  1  0
  1 40  1  0
  2  3  2  0
  2  4  1  0
  4  5  2  0
  4 37  1  0
  5  6  1  0
  5 41  1  0
  6  7  2  0
  6 32  1  0
  7  8  1  0
  7 42  1  0
  8  9  1  0
  8 10  2  0
 10 11  1  0
 10 18  1  0
 11 12  1  0
 11 43  1  0
 11 44  1  0
 12 13  1  0
 12 45  1  0
 12 46  1  0
 13 14  1  6
 13 15  1  0
 13 18  1  0
 15 16  1  0
 16 17  3  0
 18 19  1  1
 18 20  1  0
 20 21  1  0
 20 22  1  0
 22 23  1  0
 22 47  1  0
 23 24  1  0
 23 48  1  0
 23 49  1  0
 24 25  2  0
 24 30  1  0
 25 26  1  0
 25 50  1  0
 26 27  2  0
 26 51  1  0
 27 28  1  0
 27 52  1  0
 28 29  1  0
 28 30  2  0
 30 31  1  0
 32 33  2  0
 32 37  1  0
 33 34  1  0
 33 53  1  0
 34 35  2  0
 34 54  1  0
 35 36  1  0
 35 55  1  0
 36 37  2  0
 36 56  1  0
M  CHG  8   4   1   7   1   9  -1  10   1  15  -1  16   1  20  -1  21  -1
M  END

