
     RDKit          3D

 27 28  0  0  0  0  0  0  0  0999 V2000
    1.0551    1.7161    2.4541 C   0  0  0  0  0  0  0  0  0  0  0  0
    2.5586    1.7451    2.1825 C   0  0  0  0  0  0  0  0  0  0  0  0
    3.0550    0.4840    1.4499 C   0  0  0  0  0  0  0  0  0  0  0  0
    4.5220    0.4699    1.1948 C   0  0  0  0  0  0  0  0  0  0  0  0
    5.2713    0.4591    0.0556 C   0  0  0  0  0  0  0  0  0  0  0  0
    6.6548    0.4588    0.4687 C   0  0  0  0  0  0  0  0  0  0  0  0
    7.8944    0.4448   -0.1806 C   0  0  0  0  0  0  0  0  0  0  0  0
    9.0605    0.4664    0.5938 C   0  0  0  0  0  0  0  0  0  0  0  0
   10.3739    0.4491   -0.1402 C   0  0  0  0  0  0  0  0  0  0  0  0
   10.4832    0.0987   -1.2854 O   0  0  0  0  0  0  0  0  0  0  0  0
   11.4601    0.8641    0.5526 O   0  0  0  0  0  0  0  0  0  0  0  0
    8.9919    0.4658    2.0073 C   0  0  0  0  0  0  0  0  0  0  0  0
    7.7631    0.4707    2.6684 C   0  0  0  0  0  0  0  0  0  0  0  0
    7.6379    0.4539    4.7799 I   0  0  0  0  0  0  0  0  0  0  0  0
    6.6119    0.4738    1.8831 C   0  0  0  0  0  0  0  0  0  0  0  0
    5.3299    0.4804    2.3129 O   0  0  0  0  0  0  0  0  0  0  0  0
    0.7271    2.6272    2.9784 H   0  0  0  0  0  0  0  0  0  0  0  0
    0.7768    0.8527    3.0811 H   0  0  0  0  0  0  0  0  0  0  0  0
    0.4768    1.6446    1.5177 H   0  0  0  0  0  0  0  0  0  0  0  0
    3.1117    1.8452    3.1311 H   0  0  0  0  0  0  0  0  0  0  0  0
    2.8171    2.6332    1.5803 H   0  0  0  0  0  0  0  0  0  0  0  0
    2.5413    0.3791    0.4811 H   0  0  0  0  0  0  0  0  0  0  0  0
    2.7899   -0.4082    2.0466 H   0  0  0  0  0  0  0  0  0  0  0  0
    4.8869    0.4485   -0.9619 H   0  0  0  0  0  0  0  0  0  0  0  0
    7.9830    0.4194   -1.2677 H   0  0  0  0  0  0  0  0  0  0  0  0
   11.1954    1.2595    1.3946 H   0  0  0  0  0  0  0  0  0  0  0  0
    9.9035    0.4214    2.6073 H   0  0  0  0  0  0  0  0  0  0  0  0
  1  2  1  0
  1 17  1  0
  1 18  1  0
  1 19  1  0
  2  3  1  0
  2 20  1  0
  2 21  1  0
  3  4  1  0
  3 22  1  0
  3 23  1  0
  4  5  2  0
  4 16  1  0
  5  6  1  0
  5 24  1  0
  6  7  2  0
  6 15  1  0
  7  8  1  0
  7 25  1  0
  8  9  1  0
  8 12  2  0
  9 10  2  0
  9 11  1  0
 11 26  1  0
 12 13  1  0
 12 27  1  0
 13 14  1  0
 13 15  2  0
 15 16  1  0
M  END

