
     RDKit          3D

 30 30  0  0  0  0  0  0  0  0999 V2000
    0.7941    0.1314    0.0947 C   0  0  0  0  0  0  0  0  0  0  0  0
    2.3069    0.2564   -0.0908 C   0  0  0  0  0  0  0  0  0  0  0  0
    2.9479    1.2689    0.8625 C   0  0  0  0  0  0  0  0  0  0  0  0
    4.4586    1.4021    0.6758 C   0  0  1  0  0  0  0  0  0  0  0  0
    4.8689    1.7431   -0.6445 O   0  0  0  0  0  0  0  0  0  0  0  0
    4.4096    2.9780   -1.1754 C   0  0  0  0  0  0  0  0  0  0  0  0
    5.1159    3.2069   -2.4995 C   0  0  0  0  0  0  0  0  0  0  0  0
    5.0768    2.4125    1.6680 C   0  0  0  0  0  0  0  0  0  0  0  0
    4.4089    3.2409    2.2584 O   0  0  0  0  0  0  0  0  0  0  0  0
    6.5395    2.3701    1.8237 C   0  0  0  0  0  0  0  0  0  0  0  0
    7.2346    1.3417    1.2480 O   0  0  0  0  0  0  0  0  0  0  0  0
    8.5392    1.5082    1.5272 C   0  0  0  0  0  0  0  0  0  0  0  0
    8.7392    2.6333    2.2811 C   0  0  0  0  0  0  0  0  0  0  0  0
    7.4412    3.1916    2.4769 C   0  0  0  0  0  0  0  0  0  0  0  0
    7.0786    4.7556    3.4380 Br  0  0  0  0  0  0  0  0  0  0  0  0
    0.3611   -0.6037   -0.6024 H   0  0  0  0  0  0  0  0  0  0  0  0
    0.2879    1.0954   -0.0810 H   0  0  0  0  0  0  0  0  0  0  0  0
    0.5392   -0.1901    1.1186 H   0  0  0  0  0  0  0  0  0  0  0  0
    2.5349    0.5410   -1.1317 H   0  0  0  0  0  0  0  0  0  0  0  0
    2.7818   -0.7309    0.0550 H   0  0  0  0  0  0  0  0  0  0  0  0
    2.7664    0.9688    1.9092 H   0  0  0  0  0  0  0  0  0  0  0  0
    2.4707    2.2574    0.7624 H   0  0  0  0  0  0  0  0  0  0  0  0
    4.9324    0.4223    0.8493 H   0  0  0  0  0  0  0  0  0  0  0  0
    4.6175    3.8125   -0.4786 H   0  0  0  0  0  0  0  0  0  0  0  0
    3.3134    2.9555   -1.3278 H   0  0  0  0  0  0  0  0  0  0  0  0
    6.2059    3.2589   -2.3539 H   0  0  0  0  0  0  0  0  0  0  0  0
    4.7780    4.1493   -2.9586 H   0  0  0  0  0  0  0  0  0  0  0  0
    4.9045    2.3828   -3.1987 H   0  0  0  0  0  0  0  0  0  0  0  0
    9.2168    0.7552    1.1314 H   0  0  0  0  0  0  0  0  0  0  0  0
    9.6828    3.0223    2.6549 H   0  0  0  0  0  0  0  0  0  0  0  0
  1  2  1  0
  1 16  1  0
  1 17  1  0
  1 18  1  0
  2  3  1  0
  2 19  1  0
  2 20  1  0
  3  4  1  0
  3 21  1  0
  3 22  1  0
  4  5  1  0
  4  8  1  0
  4 23  1  1
  5  6  1  0
  6  7  1  0
  6 24  1  0
  6 25  1  0
  7 26  1  0
  7 27  1  0
  7 28  1  0
  8  9  2  0
  8 10  1  0
 10 11  1  0
 10 14  2  0
 11 12  1  0
 12 13  2  0
 12 29  1  0
 13 14  1  0
 13 30  1  0
 14 15  1  0
M  END

