
     RDKit          3D

 34 35  0  0  0  0  0  0  0  0999 V2000
    2.6599   -5.9292    0.5776 F   0  0  0  0  0  0  0  0  0  0  0  0
    1.9388   -4.8266    0.3272 C   0  0  1  0  0  0  0  0  0  0  0  0
    1.4129   -4.9725   -0.9087 F   0  0  0  0  0  0  0  0  0  0  0  0
    0.8961   -4.8355    1.1869 F   0  0  0  0  0  0  0  0  0  0  0  0
    2.7578   -3.5616    0.4452 C   0  0  0  0  0  0  0  0  0  0  0  0
    4.1104   -3.6662    0.7910 C   0  0  0  0  0  0  0  0  0  0  0  0
    4.9050   -2.5253    0.9048 C   0  0  0  0  0  0  0  0  0  0  0  0
    4.3436   -1.2658    0.6700 C   0  0  0  0  0  0  0  0  0  0  0  0
    3.0000   -1.1515    0.3258 C   0  0  0  0  0  0  0  0  0  0  0  0
    2.1794   -2.2905    0.2061 C   0  0  0  0  0  0  0  0  0  0  0  0
    0.7630   -2.1220   -0.1571 C   0  0  0  0  0  0  0  0  0  0  0  0
    0.2997   -0.9539   -0.4211 N   0  0  0  0  0  0  0  0  0  0  0  0
   -0.9915   -0.8417   -0.7528 N   0  0  0  0  0  0  0  0  0  0  0  0
   -1.5965    0.3850   -0.9402 C   0  0  0  0  0  0  0  0  0  0  0  0
   -0.8808    1.8510   -0.6434 S   0  0  0  0  0  0  0  0  0  0  0  0
   -2.9059    0.3065   -1.3636 N   0  0  0  0  0  0  0  0  0  0  0  0
   -3.6621   -0.7752   -1.8652 C   0  0  0  0  0  0  0  0  0  0  0  0
   -5.0307   -0.8394   -1.5445 C   0  0  0  0  0  0  0  0  0  0  0  0
   -5.8290   -1.8637   -2.0528 C   0  0  0  0  0  0  0  0  0  0  0  0
   -5.2765   -2.8522   -2.8741 C   0  0  0  0  0  0  0  0  0  0  0  0
   -3.9191   -2.7902   -3.1998 C   0  0  0  0  0  0  0  0  0  0  0  0
   -3.1145   -1.7556   -2.7148 C   0  0  0  0  0  0  0  0  0  0  0  0
    4.5399   -4.6520    0.9708 H   0  0  0  0  0  0  0  0  0  0  0  0
    5.9588   -2.6212    1.1761 H   0  0  0  0  0  0  0  0  0  0  0  0
    4.9577   -0.3660    0.7575 H   0  0  0  0  0  0  0  0  0  0  0  0
    2.5471   -0.1755    0.1429 H   0  0  0  0  0  0  0  0  0  0  0  0
    0.1143   -3.0106   -0.1914 H   0  0  0  0  0  0  0  0  0  0  0  0
   -1.5711   -1.6846   -0.7905 H   0  0  0  0  0  0  0  0  0  0  0  0
   -3.3750    1.2041   -1.2951 H   0  0  0  0  0  0  0  0  0  0  0  0
   -5.4608   -0.0798   -0.8866 H   0  0  0  0  0  0  0  0  0  0  0  0
   -6.8905   -1.8953   -1.7944 H   0  0  0  0  0  0  0  0  0  0  0  0
   -5.9010   -3.6594   -3.2633 H   0  0  0  0  0  0  0  0  0  0  0  0
   -3.4788   -3.5432   -3.8583 H   0  0  0  0  0  0  0  0  0  0  0  0
   -2.0702   -1.6909   -3.0249 H   0  0  0  0  0  0  0  0  0  0  0  0
  2  1  1  1
  2  3  1  0
  2  4  1  0
  2  5  1  0
  5  6  2  0
  5 10  1  0
  6  7  1  0
  6 23  1  0
  7  8  2  0
  7 24  1  0
  8  9  1  0
  8 25  1  0
  9 10  2  0
  9 26  1  0
 10 11  1  0
 11 12  2  0
 11 27  1  0
 12 13  1  0
 13 14  1  0
 13 28  1  0
 14 15  2  0
 14 16  1  0
 16 17  1  0
 16 29  1  0
 17 18  2  0
 17 22  1  0
 18 19  1  0
 18 30  1  0
 19 20  2  0
 19 31  1  0
 20 21  1  0
 20 32  1  0
 21 22  2  0
 21 33  1  0
 22 34  1  0
M  END

