
     RDKit          3D

 42 44  0  0  0  0  0  0  0  0999 V2000
    2.9221   -0.7104   -0.5620 O   0  0  0  0  0  0  0  0  0  0  0  0
    2.5270    0.4281   -0.6727 C   0  0  0  0  0  0  0  0  0  0  0  0
    3.1954    1.4963   -0.1869 O   0  0  0  0  0  0  0  0  0  0  0  0
    4.4257    1.2601    0.5333 C   0  0  1  0  0  0  0  0  0  0  0  0
    5.5724    1.2267   -0.5109 C   0  0  0  0  0  0  0  0  0  0  0  0
    6.9597    1.1230    0.0713 C   0  0  0  0  0  0  0  0  0  0  0  0
    7.4623   -0.0725    0.6213 C   0  0  0  0  0  0  0  0  0  0  0  0
    6.4884   -1.5241    0.6445 Cl  0  0  0  0  0  0  0  0  0  0  0  0
    8.7551   -0.1401    1.1520 C   0  0  0  0  0  0  0  0  0  0  0  0
    9.5775    0.9056    1.1656 N   0  0  0  0  0  0  0  0  0  0  0  0
    9.1471    2.0516    0.6464 C   0  0  0  0  0  0  0  0  0  0  0  0
    7.8671    2.2002    0.0973 C   0  0  0  0  0  0  0  0  0  0  0  0
    7.4527    3.7620   -0.5697 Cl  0  0  0  0  0  0  0  0  0  0  0  0
    4.5566    2.3232    1.6006 C   0  0  0  0  0  0  0  0  0  0  0  0
    4.9141    1.9595    2.9032 C   0  0  0  0  0  0  0  0  0  0  0  0
    5.0649    2.9359    3.8971 C   0  0  0  0  0  0  0  0  0  0  0  0
    4.8467    4.2763    3.5937 C   0  0  0  0  0  0  0  0  0  0  0  0
    4.9576    5.3098    4.4839 O   0  0  0  0  0  0  0  0  0  0  0  0
    4.4750    4.6552    2.2851 C   0  0  0  0  0  0  0  0  0  0  0  0
    4.2569    5.9600    1.9948 O   0  0  0  0  0  0  0  0  0  0  0  0
    4.3368    3.6785    1.3021 C   0  0  0  0  0  0  0  0  0  0  0  0
    1.2569    0.8138   -1.3583 C   0  0  0  0  0  0  0  0  0  0  0  0
    0.4967   -0.2074   -1.9511 C   0  0  0  0  0  0  0  0  0  0  0  0
   -0.6982    0.0971   -2.6027 C   0  0  0  0  0  0  0  0  0  0  0  0
   -1.1424    1.4229   -2.6649 C   0  0  0  0  0  0  0  0  0  0  0  0
   -0.3895    2.4431   -2.0738 C   0  0  0  0  0  0  0  0  0  0  0  0
    0.8078    2.1428   -1.4215 C   0  0  0  0  0  0  0  0  0  0  0  0
    4.3585    0.2703    1.0030 H   0  0  0  0  0  0  0  0  0  0  0  0
    5.5034    2.1308   -1.1293 H   0  0  0  0  0  0  0  0  0  0  0  0
    5.3913    0.3522   -1.1545 H   0  0  0  0  0  0  0  0  0  0  0  0
    9.1173   -1.0835    1.5731 H   0  0  0  0  0  0  0  0  0  0  0  0
    9.8317    2.9058    0.6538 H   0  0  0  0  0  0  0  0  0  0  0  0
    5.0765    0.9084    3.1526 H   0  0  0  0  0  0  0  0  0  0  0  0
    5.3458    2.6491    4.9152 H   0  0  0  0  0  0  0  0  0  0  0  0
    5.2162    4.9801    5.3537 H   0  0  0  0  0  0  0  0  0  0  0  0
    4.4054    6.4717    2.8051 H   0  0  0  0  0  0  0  0  0  0  0  0
    4.0485    3.9964    0.2991 H   0  0  0  0  0  0  0  0  0  0  0  0
    0.8633   -1.2337   -1.8876 H   0  0  0  0  0  0  0  0  0  0  0  0
   -1.2866   -0.7001   -3.0637 H   0  0  0  0  0  0  0  0  0  0  0  0
   -2.0792    1.6616   -3.1753 H   0  0  0  0  0  0  0  0  0  0  0  0
   -0.7380    3.4779   -2.1206 H   0  0  0  0  0  0  0  0  0  0  0  0
    1.3985    2.9318   -0.9550 H   0  0  0  0  0  0  0  0  0  0  0  0
  1  2  2  0
  2  3  1  0
  2 22  1  0
  3  4  1  0
  4  5  1  0
  4 14  1  0
  4 28  1  1
  5  6  1  0
  5 29  1  0
  5 30  1  0
  6  7  2  0
  6 12  1  0
  7  8  1  0
  7  9  1  0
  9 10  2  0
  9 31  1  0
 10 11  1  0
 11 12  2  0
 11 32  1  0
 12 13  1  0
 14 15  2  0
 14 21  1  0
 15 16  1  0
 15 33  1  0
 16 17  2  0
 16 34  1  0
 17 18  1  0
 17 19  1  0
 18 35  1  0
 19 20  1  0
 19 21  2  0
 20 36  1  0
 21 37  1  0
 22 23  2  0
 22 27  1  0
 23 24  1  0
 23 38  1  0
 24 25  2  0
 24 39  1  0
 25 26  1  0
 25 40  1  0
 26 27  2  0
 26 41  1  0
 27 42  1  0
M  END

