
     RDKit          3D

 34 35  0  0  0  0  0  0  0  0999 V2000
    6.7050    0.5052   -0.8634 C   0  0  0  0  0  0  0  0  0  0  0  0
    5.6023   -0.2176   -1.3655 O   0  0  0  0  0  0  0  0  0  0  0  0
    4.5627    0.4446   -1.9284 C   0  0  0  0  0  0  0  0  0  0  0  0
    4.5113    1.8371   -2.0862 C   0  0  0  0  0  0  0  0  0  0  0  0
    3.4008    2.4423   -2.6833 C   0  0  0  0  0  0  0  0  0  0  0  0
    2.3407    1.6537   -3.1258 C   0  0  0  0  0  0  0  0  0  0  0  0
    0.8220    2.4700   -3.9447 Br  0  0  0  0  0  0  0  0  0  0  0  0
    2.3831    0.2648   -2.9741 C   0  0  0  0  0  0  0  0  0  0  0  0
    3.4876   -0.3564   -2.3837 C   0  0  0  0  0  0  0  0  0  0  0  0
    3.5256   -1.8504   -2.2029 C   0  0  0  0  0  0  0  0  0  0  0  0
    2.7873   -2.2743   -0.5688 S   0  0  0  0  0  0  0  0  0  0  0  0
    2.9624   -4.0413   -0.4719 C   0  0  0  0  0  0  0  0  0  0  0  0
    3.5580   -4.8456   -1.4572 C   0  0  0  0  0  0  0  0  0  0  0  0
    3.6291   -6.2305   -1.2723 C   0  0  0  0  0  0  0  0  0  0  0  0
    3.1225   -6.8296   -0.1194 C   0  0  0  0  0  0  0  0  0  0  0  0
    2.5261   -6.0357    0.8736 C   0  0  0  0  0  0  0  0  0  0  0  0
    2.0023   -6.6702    2.1496 C   0  0  0  0  0  0  0  0  0  0  0  0
    1.5574   -7.9986    1.9870 O   0  0  0  0  0  0  0  0  0  0  0  0
    2.4457   -4.6530    0.6862 C   0  0  0  0  0  0  0  0  0  0  0  0
    7.3995   -0.2363   -0.4469 H   0  0  0  0  0  0  0  0  0  0  0  0
    6.4045    1.2039   -0.0626 H   0  0  0  0  0  0  0  0  0  0  0  0
    7.2206    1.0726   -1.6589 H   0  0  0  0  0  0  0  0  0  0  0  0
    5.3333    2.4667   -1.7461 H   0  0  0  0  0  0  0  0  0  0  0  0
    3.3690    3.5267   -2.8015 H   0  0  0  0  0  0  0  0  0  0  0  0
    1.5464   -0.3466   -3.3181 H   0  0  0  0  0  0  0  0  0  0  0  0
    4.5623   -2.2118   -2.2244 H   0  0  0  0  0  0  0  0  0  0  0  0
    2.9471   -2.3500   -2.9939 H   0  0  0  0  0  0  0  0  0  0  0  0
    3.9653   -4.4096   -2.3694 H   0  0  0  0  0  0  0  0  0  0  0  0
    4.0930   -6.8476   -2.0469 H   0  0  0  0  0  0  0  0  0  0  0  0
    3.1773   -7.9105    0.0239 H   0  0  0  0  0  0  0  0  0  0  0  0
    1.2184   -6.0201    2.5883 H   0  0  0  0  0  0  0  0  0  0  0  0
    2.8158   -6.7191    2.8948 H   0  0  0  0  0  0  0  0  0  0  0  0
    0.8595   -7.9979    1.3175 H   0  0  0  0  0  0  0  0  0  0  0  0
    1.9686   -4.0325    1.4515 H   0  0  0  0  0  0  0  0  0  0  0  0
  1  2  1  0
  1 20  1  0
  1 21  1  0
  1 22  1  0
  2  3  1  0
  3  4  2  0
  3  9  1  0
  4  5  1  0
  4 23  1  0
  5  6  2  0
  5 24  1  0
  6  7  1  0
  6  8  1  0
  8  9  2  0
  8 25  1  0
  9 10  1  0
 10 11  1  0
 10 26  1  0
 10 27  1  0
 11 12  1  0
 12 13  2  0
 12 19  1  0
 13 14  1  0
 13 28  1  0
 14 15  2  0
 14 29  1  0
 15 16  1  0
 15 30  1  0
 16 17  1  0
 16 19  2  0
 17 18  1  0
 17 31  1  0
 17 32  1  0
 18 33  1  0
 19 34  1  0
M  END

