
     RDKit          3D

 49 51  0  0  0  0  0  0  0  0999 V2000
    0.3133    0.2313   -0.0325 C   0  0  0  0  0  0  0  0  0  0  0  0
    1.8217   -0.0349    0.0505 C   0  0  1  0  0  0  0  0  0  0  0  0
    2.1831   -1.5222   -0.1375 C   0  0  0  0  0  0  0  0  0  0  0  0
    2.0152   -1.9767   -1.5932 C   0  0  0  0  0  0  0  0  0  0  0  0
    2.7801   -1.0522   -2.5440 C   0  0  0  0  0  0  0  0  0  0  0  0
    2.4216    0.3506   -2.3347 N   0  0  0  0  0  0  0  0  0  0  0  0
    1.8834    1.0551   -3.4006 C   0  0  0  0  0  0  0  0  0  0  0  0
    1.5599    0.5082   -4.4442 O   0  0  0  0  0  0  0  0  0  0  0  0
    1.7532    2.4250   -3.1994 N   0  0  0  0  0  0  0  0  0  0  0  0
    1.1348    3.3681   -4.0372 C   0  0  0  0  0  0  0  0  0  0  0  0
    0.4201    3.0354   -5.2032 C   0  0  0  0  0  0  0  0  0  0  0  0
   -0.2030    4.0464   -5.9388 C   0  0  0  0  0  0  0  0  0  0  0  0
   -0.1324    5.3840   -5.5490 C   0  0  0  0  0  0  0  0  0  0  0  0
    0.6088    5.7285   -4.4098 C   0  0  0  0  0  0  0  0  0  0  0  0
    0.6028    7.1674   -3.9564 C   0  0  0  0  0  0  0  0  0  0  0  0
   -0.4499    7.7872   -3.9100 O   0  0  0  0  0  0  0  0  0  0  0  0
    1.8016    7.7335   -3.5693 N   0  0  0  0  0  0  0  0  0  0  0  0
    3.1358    7.2617   -3.9293 C   0  0  0  0  0  0  0  0  0  0  0  0
    3.8578    8.3177   -4.7733 C   0  0  0  0  0  0  0  0  0  0  0  0
    3.8755    9.5756   -4.1354 O   0  0  0  0  0  0  0  0  0  0  0  0
    2.5663   10.0489   -3.8758 C   0  0  0  0  0  0  0  0  0  0  0  0
    1.7933    9.0756   -2.9889 C   0  0  0  0  0  0  0  0  0  0  0  0
    1.2290    4.7215   -3.6613 C   0  0  0  0  0  0  0  0  0  0  0  0
    2.6120    0.8188   -0.9668 C   0  0  0  0  0  0  0  0  0  0  0  0
   -0.2352   -0.3849    0.6976 H   0  0  0  0  0  0  0  0  0  0  0  0
   -0.0921    0.0054   -1.0310 H   0  0  0  0  0  0  0  0  0  0  0  0
    0.0838    1.2874    0.1846 H   0  0  0  0  0  0  0  0  0  0  0  0
    2.1657    0.2756    1.0534 H   0  0  0  0  0  0  0  0  0  0  0  0
    1.5765   -2.1466    0.5396 H   0  0  0  0  0  0  0  0  0  0  0  0
    3.2364   -1.6712    0.1632 H   0  0  0  0  0  0  0  0  0  0  0  0
    0.9496   -1.9834   -1.8770 H   0  0  0  0  0  0  0  0  0  0  0  0
    2.3810   -3.0097   -1.7163 H   0  0  0  0  0  0  0  0  0  0  0  0
    2.5739   -1.2941   -3.5928 H   0  0  0  0  0  0  0  0  0  0  0  0
    3.8691   -1.1660   -2.3711 H   0  0  0  0  0  0  0  0  0  0  0  0
    2.2275    2.8235   -2.4013 H   0  0  0  0  0  0  0  0  0  0  0  0
    0.3650    1.9949   -5.5130 H   0  0  0  0  0  0  0  0  0  0  0  0
   -0.7641    3.7736   -6.8365 H   0  0  0  0  0  0  0  0  0  0  0  0
   -0.6479    6.1654   -6.1099 H   0  0  0  0  0  0  0  0  0  0  0  0
    3.0678    6.3226   -4.4915 H   0  0  0  0  0  0  0  0  0  0  0  0
    3.7232    7.0721   -3.0107 H   0  0  0  0  0  0  0  0  0  0  0  0
    3.3600    8.3926   -5.7630 H   0  0  0  0  0  0  0  0  0  0  0  0
    4.9057    8.0212   -4.9365 H   0  0  0  0  0  0  0  0  0  0  0  0
    2.0165   10.1991   -4.8275 H   0  0  0  0  0  0  0  0  0  0  0  0
    2.6705   11.0257   -3.3793 H   0  0  0  0  0  0  0  0  0  0  0  0
    0.7480    9.3891   -2.8746 H   0  0  0  0  0  0  0  0  0  0  0  0
    2.2718    9.0363   -1.9925 H   0  0  0  0  0  0  0  0  0  0  0  0
    1.7757    4.9876   -2.7513 H   0  0  0  0  0  0  0  0  0  0  0  0
    2.2958    1.8652   -0.8626 H   0  0  0  0  0  0  0  0  0  0  0  0
    3.6900    0.7794   -0.7146 H   0  0  0  0  0  0  0  0  0  0  0  0
  1  2  1  0
  1 25  1  0
  1 26  1  0
  1 27  1  0
  2  3  1  0
  2 24  1  0
  2 28  1  1
  3  4  1  0
  3 29  1  0
  3 30  1  0
  4  5  1  0
  4 31  1  0
  4 32  1  0
  5  6  1  0
  5 33  1  0
  5 34  1  0
  6  7  1  0
  6 24  1  0
  7  8  2  0
  7  9  1  0
  9 10  1  0
  9 35  1  0
 10 11  2  0
 10 23  1  0
 11 12  1  0
 11 36  1  0
 12 13  2  0
 12 37  1  0
 13 14  1  0
 13 38  1  0
 14 15  1  0
 14 23  2  0
 15 16  2  0
 15 17  1  0
 17 18  1  0
 17 22  1  0
 18 19  1  0
 18 39  1  0
 18 40  1  0
 19 20  1  0
 19 41  1  0
 19 42  1  0
 20 21  1  0
 21 22  1  0
 21 43  1  0
 21 44  1  0
 22 45  1  0
 22 46  1  0
 23 47  1  0
 24 48  1  0
 24 49  1  0
M  END

