
     RDKit          3D

 41 42  0  0  0  0  0  0  0  0999 V2000
    4.2684   -2.6108   -1.0459 C   0  0  0  0  0  0  0  0  0  0  0  0
    4.1643   -1.6950    0.1554 C   0  0  0  0  0  0  0  0  0  0  0  0
    5.3422   -1.1069    0.6487 C   0  0  0  0  0  0  0  0  0  0  0  0
    5.3432   -0.2258    1.7283 C   0  0  0  0  0  0  0  0  0  0  0  0
    4.1270    0.1075    2.3294 C   0  0  0  0  0  0  0  0  0  0  0  0
    4.0974    1.2277    3.6711 Cl  0  0  0  0  0  0  0  0  0  0  0  0
    2.9384   -0.4413    1.8576 C   0  0  0  0  0  0  0  0  0  0  0  0
    2.9467   -1.3590    0.7940 C   0  0  0  0  0  0  0  0  0  0  0  0
    1.5739   -1.8646    0.3977 C   0  0  0  0  0  0  0  0  0  0  0  0
    0.6004   -1.1194    0.4430 O   0  0  0  0  0  0  0  0  0  0  0  0
    1.4861   -3.1812    0.0521 N   0  0  0  0  0  0  0  0  0  0  0  0
    0.2519   -3.8802   -0.3635 C   0  0  1  0  0  0  0  0  0  0  0  0
   -0.2975   -3.2163   -1.6391 C   0  0  0  0  0  0  0  0  0  0  0  0
    0.6212   -5.3493   -0.6685 C   0  0  0  0  0  0  0  0  0  0  0  0
    1.0954   -6.1498    0.5516 C   0  0  0  0  0  0  0  0  0  0  0  0
    0.0596   -6.1114    1.6791 C   0  0  0  0  0  0  0  0  0  0  0  0
   -0.3171   -4.6684    2.0336 C   0  0  0  0  0  0  0  0  0  0  0  0
   -0.7785   -3.8221    0.8268 C   0  0  2  0  0  0  0  0  0  0  0  0
   -2.1795   -4.2093    0.3556 C   0  0  0  0  0  0  0  0  0  0  0  0
   -2.5728   -5.3386    0.2118 O   0  0  0  0  0  0  0  0  0  0  0  0
   -3.0002   -3.1720    0.0731 O   0  0  0  0  0  0  0  0  0  0  0  0
    5.1966   -2.4072   -1.5995 H   0  0  0  0  0  0  0  0  0  0  0  0
    3.4252   -2.4892   -1.7401 H   0  0  0  0  0  0  0  0  0  0  0  0
    4.3058   -3.6771   -0.7581 H   0  0  0  0  0  0  0  0  0  0  0  0
    6.2924   -1.3401    0.1604 H   0  0  0  0  0  0  0  0  0  0  0  0
    6.2734    0.2126    2.0934 H   0  0  0  0  0  0  0  0  0  0  0  0
    1.9836   -0.1607    2.3028 H   0  0  0  0  0  0  0  0  0  0  0  0
    2.3199   -3.7451    0.1511 H   0  0  0  0  0  0  0  0  0  0  0  0
    0.4673   -3.2514   -2.4307 H   0  0  0  0  0  0  0  0  0  0  0  0
   -0.5545   -2.1636   -1.4612 H   0  0  0  0  0  0  0  0  0  0  0  0
   -1.1870   -3.7465   -2.0091 H   0  0  0  0  0  0  0  0  0  0  0  0
    1.3825   -5.3620   -1.4682 H   0  0  0  0  0  0  0  0  0  0  0  0
   -0.2780   -5.8316   -1.0814 H   0  0  0  0  0  0  0  0  0  0  0  0
    2.0626   -5.7589    0.9218 H   0  0  0  0  0  0  0  0  0  0  0  0
    1.2952   -7.1900    0.2458 H   0  0  0  0  0  0  0  0  0  0  0  0
    0.4504   -6.6222    2.5749 H   0  0  0  0  0  0  0  0  0  0  0  0
   -0.8442   -6.6530    1.3627 H   0  0  0  0  0  0  0  0  0  0  0  0
    0.5561   -4.1606    2.4785 H   0  0  0  0  0  0  0  0  0  0  0  0
   -1.1039   -4.6558    2.8052 H   0  0  0  0  0  0  0  0  0  0  0  0
   -0.8102   -2.7688    1.1397 H   0  0  0  0  0  0  0  0  0  0  0  0
   -2.5446   -2.3328    0.2344 H   0  0  0  0  0  0  0  0  0  0  0  0
  1  2  1  0
  1 22  1  0
  1 23  1  0
  1 24  1  0
  2  3  2  0
  2  8  1  0
  3  4  1  0
  3 25  1  0
  4  5  2  0
  4 26  1  0
  5  6  1  0
  5  7  1  0
  7  8  2  0
  7 27  1  0
  8  9  1  0
  9 10  2  0
  9 11  1  0
 12 11  1  1
 11 28  1  0
 12 13  1  0
 12 14  1  0
 12 18  1  0
 13 29  1  0
 13 30  1  0
 13 31  1  0
 14 15  1  0
 14 32  1  0
 14 33  1  0
 15 16  1  0
 15 34  1  0
 15 35  1  0
 16 17  1  0
 16 36  1  0
 16 37  1  0
 17 18  1  0
 17 38  1  0
 17 39  1  0
 18 19  1  0
 18 40  1  1
 19 20  2  0
 19 21  1  0
 21 41  1  0
M  END

