
     RDKit          3D

 36 38  0  0  0  0  0  0  0  0999 V2000
    3.7396    0.8400   -0.9619 C   0  0  0  0  0  0  0  0  0  0  0  0
    3.2631   -0.2375   -0.1846 O   0  0  0  0  0  0  0  0  0  0  0  0
    3.4266   -0.2239    1.1625 C   0  0  0  0  0  0  0  0  0  0  0  0
    4.0059    0.8481    1.8598 C   0  0  0  0  0  0  0  0  0  0  0  0
    4.1276    0.7860    3.2509 C   0  0  0  0  0  0  0  0  0  0  0  0
    3.6764   -0.3247    3.9601 C   0  0  0  0  0  0  0  0  0  0  0  0
    3.1032   -1.3750    3.2446 C   0  0  0  0  0  0  0  0  0  0  0  0
    2.6554   -2.4342    3.9367 F   0  0  0  0  0  0  0  0  0  0  0  0
    2.9664   -1.3711    1.8536 C   0  0  0  0  0  0  0  0  0  0  0  0
    2.3714   -2.5419    1.1069 C   0  0  2  0  0  0  0  0  0  0  0  0
    0.8701   -2.7380    1.3616 C   0  0  0  0  0  0  0  0  0  0  0  0
    0.4350   -3.8885    0.5978 N   0  0  0  0  0  0  0  0  0  0  0  0
    1.2189   -5.0363    0.6680 C   0  0  0  0  0  0  0  0  0  0  0  0
    0.7281   -6.2989    0.2968 C   0  0  0  0  0  0  0  0  0  0  0  0
    1.5634   -7.4121    0.3695 C   0  0  0  0  0  0  0  0  0  0  0  0
    0.9337   -8.9830   -0.0978 Cl  0  0  0  0  0  0  0  0  0  0  0  0
    2.8838   -7.3034    0.8085 C   0  0  0  0  0  0  0  0  0  0  0  0
    3.3954   -6.0508    1.1774 C   0  0  0  0  0  0  0  0  0  0  0  0
    4.8115   -5.8837    1.6626 C   0  0  0  0  0  0  0  0  0  0  0  0
    2.5602   -4.9257    1.0993 C   0  0  0  0  0  0  0  0  0  0  0  0
    3.0923   -3.7207    1.4789 O   0  0  0  0  0  0  0  0  0  0  0  0
    3.5167    0.5900   -2.0076 H   0  0  0  0  0  0  0  0  0  0  0  0
    4.8298    0.9750   -0.8495 H   0  0  0  0  0  0  0  0  0  0  0  0
    3.2329    1.7868   -0.7039 H   0  0  0  0  0  0  0  0  0  0  0  0
    4.3631    1.7290    1.3284 H   0  0  0  0  0  0  0  0  0  0  0  0
    4.5802    1.6237    3.7869 H   0  0  0  0  0  0  0  0  0  0  0  0
    3.7539   -0.3979    5.0457 H   0  0  0  0  0  0  0  0  0  0  0  0
    2.5068   -2.3741    0.0278 H   0  0  0  0  0  0  0  0  0  0  0  0
    0.3297   -1.8419    1.0196 H   0  0  0  0  0  0  0  0  0  0  0  0
    0.7021   -2.8484    2.4503 H   0  0  0  0  0  0  0  0  0  0  0  0
   -0.5648   -4.0433    0.5457 H   0  0  0  0  0  0  0  0  0  0  0  0
   -0.3033   -6.4069   -0.0444 H   0  0  0  0  0  0  0  0  0  0  0  0
    3.5155   -8.1912    0.8613 H   0  0  0  0  0  0  0  0  0  0  0  0
    5.3549   -6.8390    1.6400 H   0  0  0  0  0  0  0  0  0  0  0  0
    4.8330   -5.4937    2.6938 H   0  0  0  0  0  0  0  0  0  0  0  0
    5.3585   -5.1523    1.0458 H   0  0  0  0  0  0  0  0  0  0  0  0
  1  2  1  0
  1 22  1  0
  1 23  1  0
  1 24  1  0
  2  3  1  0
  3  4  2  0
  3  9  1  0
  4  5  1  0
  4 25  1  0
  5  6  2  0
  5 26  1  0
  6  7  1  0
  6 27  1  0
  7  8  1  0
  7  9  2  0
  9 10  1  0
 10 11  1  0
 10 21  1  0
 10 28  1  6
 11 12  1  0
 11 29  1  0
 11 30  1  0
 12 13  1  0
 12 31  1  0
 13 14  2  0
 13 20  1  0
 14 15  1  0
 14 32  1  0
 15 16  1  0
 15 17  2  0
 17 18  1  0
 17 33  1  0
 18 19  1  0
 18 20  2  0
 19 34  1  0
 19 35  1  0
 19 36  1  0
 20 21  1  0
M  END

