
     RDKit          3D

 27 27  0  0  0  0  0  0  0  0999 V2000
    2.7113   -0.8128    3.8713 C   0  0  0  0  0  0  0  0  0  0  0  0
    2.8332   -1.1985    2.4712 N   0  0  0  0  0  0  0  0  0  0  0  0
    3.2014   -0.1165    1.5717 C   0  0  0  0  0  0  0  0  0  0  0  0
    4.7208    0.0889    1.4300 C   0  0  0  0  0  0  0  0  0  0  0  0
    5.1729    1.1267    0.9822 O   0  0  0  0  0  0  0  0  0  0  0  0
    5.4388   -1.0128    1.8130 N   0  0  0  0  0  0  0  0  0  0  0  0
    6.8257   -1.2287    1.7867 C   0  0  0  0  0  0  0  0  0  0  0  0
    7.7244   -0.2474    1.3332 C   0  0  0  0  0  0  0  0  0  0  0  0
    9.0982   -0.4950    1.3214 C   0  0  0  0  0  0  0  0  0  0  0  0
    9.5813   -1.7269    1.7627 C   0  0  0  0  0  0  0  0  0  0  0  0
   11.6738   -2.1179    1.7505 I   0  0  0  0  0  0  0  0  0  0  0  0
    8.6973   -2.7098    2.2138 C   0  0  0  0  0  0  0  0  0  0  0  0
    7.3160   -2.4816    2.2336 C   0  0  0  0  0  0  0  0  0  0  0  0
    6.3762   -3.5561    2.7249 C   0  0  0  0  0  0  0  0  0  0  0  0
    2.4177   -1.6847    4.4758 H   0  0  0  0  0  0  0  0  0  0  0  0
    1.9749   -0.0017    4.0487 H   0  0  0  0  0  0  0  0  0  0  0  0
    3.6853   -0.4617    4.2492 H   0  0  0  0  0  0  0  0  0  0  0  0
    1.9836   -1.6579    2.1531 H   0  0  0  0  0  0  0  0  0  0  0  0
    2.7797    0.8693    1.8497 H   0  0  0  0  0  0  0  0  0  0  0  0
    2.8286   -0.3398    0.5578 H   0  0  0  0  0  0  0  0  0  0  0  0
    4.8326   -1.7566    2.1608 H   0  0  0  0  0  0  0  0  0  0  0  0
    7.3309    0.7076    0.9910 H   0  0  0  0  0  0  0  0  0  0  0  0
    9.7804    0.2794    0.9664 H   0  0  0  0  0  0  0  0  0  0  0  0
    9.0778   -3.6737    2.5579 H   0  0  0  0  0  0  0  0  0  0  0  0
    6.9296   -4.4579    3.0214 H   0  0  0  0  0  0  0  0  0  0  0  0
    5.6504   -3.8556    1.9483 H   0  0  0  0  0  0  0  0  0  0  0  0
    5.7929   -3.2246    3.6020 H   0  0  0  0  0  0  0  0  0  0  0  0
  1  2  1  0
  1 15  1  0
  1 16  1  0
  1 17  1  0
  2  3  1  0
  2 18  1  0
  3  4  1  0
  3 19  1  0
  3 20  1  0
  4  5  2  0
  4  6  1  0
  6  7  1  0
  6 21  1  0
  7  8  2  0
  7 13  1  0
  8  9  1  0
  8 22  1  0
  9 10  2  0
  9 23  1  0
 10 11  1  0
 10 12  1  0
 12 13  2  0
 12 24  1  0
 13 14  1  0
 14 25  1  0
 14 26  1  0
 14 27  1  0
M  END

