
     RDKit          3D

 45 45  0  0  0  0  0  0  0  0999 V2000
    0.8736   -0.2405    0.1592 C   0  0  0  0  0  0  0  0  0  0  0  0
    2.3960   -0.1742    0.0285 C   0  0  0  0  0  0  0  0  0  0  0  0
    2.9654    1.2386    0.1913 C   0  0  0  0  0  0  0  0  0  0  0  0
    4.4894    1.3139    0.0619 C   0  0  0  0  0  0  0  0  0  0  0  0
    5.0584    2.7266    0.2238 C   0  0  0  0  0  0  0  0  0  0  0  0
    6.5827    2.8009    0.0948 C   0  0  0  0  0  0  0  0  0  0  0  0
    7.1518    4.2138    0.2543 C   0  0  0  0  0  0  0  0  0  0  0  0
    8.6763    4.2872    0.1250 C   0  0  0  0  0  0  0  0  0  0  0  0
    9.2402    5.7032    0.2637 C   0  0  0  0  0  0  0  0  0  0  0  0
   10.7771    5.7977    0.1634 C   0  0  1  0  0  0  0  0  0  0  0  0
   11.3516    5.2865   -1.0787 N   0  0  0  0  0  0  0  0  0  0  0  0
   11.2473    7.2489    0.3584 C   0  0  1  0  0  0  0  0  0  0  0  0
   12.7667    7.4385    0.4642 C   0  0  0  0  0  0  0  0  0  0  0  0
   12.9725    8.8226   -0.1615 C   0  0  0  0  0  0  0  0  0  0  0  0
   11.9139    8.8178   -1.2678 C   0  0  0  0  0  0  0  0  0  0  0  0
   10.8354    8.0305   -0.7734 O   0  0  0  0  0  0  0  0  0  0  0  0
    0.4999   -1.2698    0.0368 H   0  0  0  0  0  0  0  0  0  0  0  0
    0.3781    0.3857   -0.6018 H   0  0  0  0  0  0  0  0  0  0  0  0
    0.5400    0.1190    1.1473 H   0  0  0  0  0  0  0  0  0  0  0  0
    2.6996   -0.5761   -0.9556 H   0  0  0  0  0  0  0  0  0  0  0  0
    2.8600   -0.8406    0.7785 H   0  0  0  0  0  0  0  0  0  0  0  0
    2.6622    1.6418    1.1759 H   0  0  0  0  0  0  0  0  0  0  0  0
    2.5018    1.9064   -0.5591 H   0  0  0  0  0  0  0  0  0  0  0  0
    4.7920    0.9099   -0.9224 H   0  0  0  0  0  0  0  0  0  0  0  0
    4.9523    0.6463    0.8126 H   0  0  0  0  0  0  0  0  0  0  0  0
    4.7559    3.1310    1.2078 H   0  0  0  0  0  0  0  0  0  0  0  0
    4.5962    3.3943   -0.5271 H   0  0  0  0  0  0  0  0  0  0  0  0
    6.8856    2.3954   -0.8888 H   0  0  0  0  0  0  0  0  0  0  0  0
    7.0451    2.1342    0.8466 H   0  0  0  0  0  0  0  0  0  0  0  0
    6.8489    4.6210    1.2369 H   0  0  0  0  0  0  0  0  0  0  0  0
    6.6919    4.8807   -0.4983 H   0  0  0  0  0  0  0  0  0  0  0  0
    8.9718    3.8687   -0.8543 H   0  0  0  0  0  0  0  0  0  0  0  0
    9.1390    3.6301    0.8861 H   0  0  0  0  0  0  0  0  0  0  0  0
    8.9238    6.1245    1.2357 H   0  0  0  0  0  0  0  0  0  0  0  0
    8.8037    6.3603   -0.5097 H   0  0  0  0  0  0  0  0  0  0  0  0
   11.2121    5.2099    0.9947 H   0  0  0  0  0  0  0  0  0  0  0  0
   10.9348    5.7835   -1.8672 H   0  0  0  0  0  0  0  0  0  0  0  0
   11.1511    4.2961   -1.2012 H   0  0  0  0  0  0  0  0  0  0  0  0
   10.7487    7.6572    1.2601 H   0  0  0  0  0  0  0  0  0  0  0  0
   13.2640    6.6613   -0.1363 H   0  0  0  0  0  0  0  0  0  0  0  0
   13.1257    7.3681    1.5021 H   0  0  0  0  0  0  0  0  0  0  0  0
   13.9910    8.9859   -0.5456 H   0  0  0  0  0  0  0  0  0  0  0  0
   12.7564    9.6176    0.5719 H   0  0  0  0  0  0  0  0  0  0  0  0
   12.3167    8.3677   -2.1965 H   0  0  0  0  0  0  0  0  0  0  0  0
   11.5373    9.8242   -1.5167 H   0  0  0  0  0  0  0  0  0  0  0  0
  1  2  1  0
  1 17  1  0
  1 18  1  0
  1 19  1  0
  2  3  1  0
  2 20  1  0
  2 21  1  0
  3  4  1  0
  3 22  1  0
  3 23  1  0
  4  5  1  0
  4 24  1  0
  4 25  1  0
  5  6  1  0
  5 26  1  0
  5 27  1  0
  6  7  1  0
  6 28  1  0
  6 29  1  0
  7  8  1  0
  7 30  1  0
  7 31  1  0
  8  9  1  0
  8 32  1  0
  8 33  1  0
  9 10  1  0
  9 34  1  0
  9 35  1  0
 10 11  1  0
 10 12  1  0
 10 36  1  1
 11 37  1  0
 11 38  1  0
 12 13  1  0
 12 16  1  0
 12 39  1  1
 13 14  1  0
 13 40  1  0
 13 41  1  0
 14 15  1  0
 14 42  1  0
 14 43  1  0
 15 16  1  0
 15 44  1  0
 15 45  1  0
M  END

