
     RDKit          3D

 43 46  0  0  0  0  0  0  0  0999 V2000
    5.3618   -0.8605   -0.7431 O   0  0  0  0  0  0  0  0  0  0  0  0
    4.4216   -0.3256   -0.2005 C   0  0  0  0  0  0  0  0  0  0  0  0
    3.5179    0.4784   -0.8983 N   0  0  0  0  0  0  0  0  0  0  0  0
    3.7993    0.7662   -2.2085 N   0  0  0  0  0  0  0  0  0  0  0  0
    3.5187   -0.2027   -3.2081 C   0  0  0  0  0  0  0  0  0  0  0  0
    2.9809   -1.2521   -2.9526 O   0  0  0  0  0  0  0  0  0  0  0  0
    3.9722    0.3269   -4.5189 C   0  0  0  0  0  0  0  0  0  0  0  0
    3.8278   -0.1944   -5.7687 C   0  0  0  0  0  0  0  0  0  0  0  0
    3.3456   -1.4849   -6.2560 C   0  0  0  0  0  0  0  0  0  0  0  0
    3.4789   -2.6565   -5.5118 C   0  0  0  0  0  0  0  0  0  0  0  0
    3.1076   -3.9107   -6.0370 C   0  0  0  0  0  0  0  0  0  0  0  0
    2.5943   -4.0085   -7.3127 C   0  0  0  0  0  0  0  0  0  0  0  0
    2.4227   -2.8491   -8.1173 C   0  0  0  0  0  0  0  0  0  0  0  0
    1.8824   -2.9436   -9.4305 C   0  0  0  0  0  0  0  0  0  0  0  0
    1.6993   -1.8205  -10.2077 C   0  0  0  0  0  0  0  0  0  0  0  0
    2.0444   -0.5495   -9.6913 C   0  0  0  0  0  0  0  0  0  0  0  0
    2.5699   -0.4253   -8.4199 C   0  0  0  0  0  0  0  0  0  0  0  0
    2.7928   -1.5627   -7.5937 C   0  0  0  0  0  0  0  0  0  0  0  0
    4.6775    1.9535   -4.3026 S   0  0  0  0  0  0  0  0  0  0  0  0
    4.4148    1.9539   -2.5657 C   0  0  0  0  0  0  0  0  0  0  0  0
    4.7977    3.1811   -1.5458 S   0  0  0  0  0  0  0  0  0  0  0  0
    4.1097   -0.4936    1.2594 C   0  0  0  0  0  0  0  0  0  0  0  0
    5.1642   -0.8866    2.0996 C   0  0  0  0  0  0  0  0  0  0  0  0
    4.9498   -1.0677    3.4634 C   0  0  0  0  0  0  0  0  0  0  0  0
    3.6650   -0.8649    3.9705 C   0  0  0  0  0  0  0  0  0  0  0  0
    3.4273   -1.0584    5.4205 N   0  0  0  0  0  0  0  0  0  0  0  0
    4.3808   -1.3844    6.1068 O   0  0  0  0  0  0  0  0  0  0  0  0
    2.2936   -0.8780    5.8325 O   0  0  0  0  0  0  0  0  0  0  0  0
    2.5946   -0.4942    3.1575 C   0  0  0  0  0  0  0  0  0  0  0  0
    2.8236   -0.3095    1.7940 C   0  0  0  0  0  0  0  0  0  0  0  0
    3.0564    1.2417   -0.4081 H   0  0  0  0  0  0  0  0  0  0  0  0
    4.1525    0.4827   -6.5660 H   0  0  0  0  0  0  0  0  0  0  0  0
    3.8908   -2.6075   -4.5065 H   0  0  0  0  0  0  0  0  0  0  0  0
    3.2384   -4.8051   -5.4236 H   0  0  0  0  0  0  0  0  0  0  0  0
    2.3094   -4.9806   -7.7242 H   0  0  0  0  0  0  0  0  0  0  0  0
    1.6098   -3.9315   -9.8115 H   0  0  0  0  0  0  0  0  0  0  0  0
    1.2829   -1.9062  -11.2142 H   0  0  0  0  0  0  0  0  0  0  0  0
    1.8862    0.3442  -10.3002 H   0  0  0  0  0  0  0  0  0  0  0  0
    2.7950    0.5740   -8.0449 H   0  0  0  0  0  0  0  0  0  0  0  0
    6.1504   -1.0469    1.6605 H   0  0  0  0  0  0  0  0  0  0  0  0
    5.7511   -1.3641    4.1396 H   0  0  0  0  0  0  0  0  0  0  0  0
    1.6068   -0.3657    3.5987 H   0  0  0  0  0  0  0  0  0  0  0  0
    1.9856   -0.0523    1.1435 H   0  0  0  0  0  0  0  0  0  0  0  0
  1  2  2  0
  2  3  1  0
  2 22  1  0
  3  4  1  0
  3 31  1  0
  4  5  1  0
  4 20  1  0
  5  6  2  0
  5  7  1  0
  7  8  2  0
  7 19  1  0
  8  9  1  0
  8 32  1  0
  9 10  2  0
  9 18  1  0
 10 11  1  0
 10 33  1  0
 11 12  2  0
 11 34  1  0
 12 13  1  0
 12 35  1  0
 13 14  1  0
 13 18  2  0
 14 15  2  0
 14 36  1  0
 15 16  1  0
 15 37  1  0
 16 17  2  0
 16 38  1  0
 17 18  1  0
 17 39  1  0
 19 20  1  0
 20 21  2  0
 22 23  2  0
 22 30  1  0
 23 24  1  0
 23 40  1  0
 24 25  2  0
 24 41  1  0
 25 26  1  0
 25 29  1  0
 26 27  2  0
 26 28  1  0
 29 30  2  0
 29 42  1  0
 30 43  1  0
M  CHG  2  26   1  28  -1
M  END

