
     RDKit          3D

 33 33  0  0  0  0  0  0  0  0999 V2000
    1.8645   -0.0446    0.3420 C   0  0  0  0  0  0  0  0  0  0  0  0
    3.2513    0.3397   -0.1500 C   0  0  0  0  0  0  0  0  0  0  0  0
    3.7921   -0.6428   -1.0440 O   0  0  0  0  0  0  0  0  0  0  0  0
    4.4369   -1.6997   -0.4903 C   0  0  0  0  0  0  0  0  0  0  0  0
    4.5737   -1.8398    0.7074 O   0  0  0  0  0  0  0  0  0  0  0  0
    4.9313   -2.6163   -1.5336 C   0  0  0  0  0  0  0  0  0  0  0  0
    5.6060   -3.7381   -1.1957 C   0  0  0  0  0  0  0  0  0  0  0  0
    6.1664   -4.7535   -2.0759 C   0  0  0  0  0  0  0  0  0  0  0  0
    6.0793   -4.7059   -3.4840 C   0  0  0  0  0  0  0  0  0  0  0  0
    6.6265   -5.6946   -4.2874 C   0  0  0  0  0  0  0  0  0  0  0  0
    7.3057   -6.8100   -3.7239 C   0  0  0  0  0  0  0  0  0  0  0  0
    7.8511   -7.7952   -4.5189 N   0  0  0  0  0  0  0  0  0  0  0  0
    8.5375   -8.9192   -3.9139 C   0  0  0  0  0  0  0  0  0  0  0  0
    7.7416   -7.7124   -5.9619 C   0  0  0  0  0  0  0  0  0  0  0  0
    7.3960   -6.8620   -2.3091 C   0  0  0  0  0  0  0  0  0  0  0  0
    6.8406   -5.8608   -1.5222 C   0  0  0  0  0  0  0  0  0  0  0  0
    1.4450    0.7662    0.9596 H   0  0  0  0  0  0  0  0  0  0  0  0
    1.9101   -0.9553    0.9572 H   0  0  0  0  0  0  0  0  0  0  0  0
    1.1820   -0.2218   -0.5041 H   0  0  0  0  0  0  0  0  0  0  0  0
    3.9406    0.4740    0.6973 H   0  0  0  0  0  0  0  0  0  0  0  0
    3.2196    1.2696   -0.7376 H   0  0  0  0  0  0  0  0  0  0  0  0
    4.7218   -2.3357   -2.5678 H   0  0  0  0  0  0  0  0  0  0  0  0
    5.7487   -3.9024   -0.1212 H   0  0  0  0  0  0  0  0  0  0  0  0
    5.5677   -3.8695   -3.9660 H   0  0  0  0  0  0  0  0  0  0  0  0
    6.5262   -5.6010   -5.3680 H   0  0  0  0  0  0  0  0  0  0  0  0
    7.8747   -9.5040   -3.2498 H   0  0  0  0  0  0  0  0  0  0  0  0
    9.4109   -8.6011   -3.3152 H   0  0  0  0  0  0  0  0  0  0  0  0
    8.8996   -9.5923   -4.7013 H   0  0  0  0  0  0  0  0  0  0  0  0
    6.6893   -7.7071   -6.3012 H   0  0  0  0  0  0  0  0  0  0  0  0
    8.2335   -8.5824   -6.4149 H   0  0  0  0  0  0  0  0  0  0  0  0
    8.2261   -6.8045   -6.3661 H   0  0  0  0  0  0  0  0  0  0  0  0
    7.9039   -7.6908   -1.8178 H   0  0  0  0  0  0  0  0  0  0  0  0
    6.9300   -5.9349   -0.4346 H   0  0  0  0  0  0  0  0  0  0  0  0
  1  2  1  0
  1 17  1  0
  1 18  1  0
  1 19  1  0
  2  3  1  0
  2 20  1  0
  2 21  1  0
  3  4  1  0
  4  5  2  0
  4  6  1  0
  6  7  2  0
  6 22  1  0
  7  8  1  0
  7 23  1  0
  8  9  2  0
  8 16  1  0
  9 10  1  0
  9 24  1  0
 10 11  2  0
 10 25  1  0
 11 12  1  0
 11 15  1  0
 12 13  1  0
 12 14  1  0
 13 26  1  0
 13 27  1  0
 13 28  1  0
 14 29  1  0
 14 30  1  0
 14 31  1  0
 15 16  2  0
 15 32  1  0
 16 33  1  0
M  END

