
     RDKit          3D

 43 45  0  0  0  0  0  0  0  0999 V2000
    1.8151    1.2371    0.3825 C   0  0  0  0  0  0  0  0  0  0  0  0
    1.8230   -0.1736    0.4118 O   0  0  0  0  0  0  0  0  0  0  0  0
    2.6737   -0.8190    1.2423 C   0  0  0  0  0  0  0  0  0  0  0  0
    2.6256   -2.2253    1.2150 C   0  0  0  0  0  0  0  0  0  0  0  0
    3.4608   -2.9721    2.0318 C   0  0  0  0  0  0  0  0  0  0  0  0
    4.3793   -2.3547    2.9088 C   0  0  0  0  0  0  0  0  0  0  0  0
    5.2564   -3.1889    3.7669 C   0  0  0  0  0  0  0  0  0  0  0  0
    6.2269   -2.6403    4.6181 C   0  0  0  0  0  0  0  0  0  0  0  0
    7.0397   -3.4653    5.4115 C   0  0  0  0  0  0  0  0  0  0  0  0
    8.0605   -2.8548    6.3030 C   0  0  0  0  0  0  0  0  0  0  0  0
    7.7368   -1.7307    7.0827 C   0  0  0  0  0  0  0  0  0  0  0  0
    8.6888   -1.1316    7.9091 C   0  0  0  0  0  0  0  0  0  0  0  0
   10.0005   -1.6230    7.9816 C   0  0  0  0  0  0  0  0  0  0  0  0
   11.0306   -0.9916    8.8849 C   0  0  0  0  0  0  0  0  0  0  0  0
   10.3236   -2.7402    7.1935 C   0  0  0  0  0  0  0  0  0  0  0  0
    9.3755   -3.3502    6.3744 C   0  0  0  0  0  0  0  0  0  0  0  0
    6.8386   -4.8616    5.3226 C   0  0  0  0  0  0  0  0  0  0  0  0
    7.5536   -5.8158    6.1115 C   0  0  0  0  0  0  0  0  0  0  0  0
    8.1267   -6.6019    6.7472 N   0  0  0  0  0  0  0  0  0  0  0  0
    5.8350   -5.3229    4.4229 C   0  0  0  0  0  0  0  0  0  0  0  0
    5.6639   -6.6481    4.3521 O   0  0  0  0  0  0  0  0  0  0  0  0
    4.6633   -7.1608    3.4813 C   0  0  0  0  0  0  0  0  0  0  0  0
    5.0879   -4.5251    3.6888 N   0  0  0  0  0  0  0  0  0  0  0  0
    4.4133   -0.9503    2.9243 C   0  0  0  0  0  0  0  0  0  0  0  0
    3.5785   -0.1841    2.1085 C   0  0  0  0  0  0  0  0  0  0  0  0
    1.0567    1.5300   -0.3557 H   0  0  0  0  0  0  0  0  0  0  0  0
    2.7932    1.6467    0.0725 H   0  0  0  0  0  0  0  0  0  0  0  0
    1.5438    1.6665    1.3636 H   0  0  0  0  0  0  0  0  0  0  0  0
    1.9172   -2.7054    0.5368 H   0  0  0  0  0  0  0  0  0  0  0  0
    3.4209   -4.0611    2.0083 H   0  0  0  0  0  0  0  0  0  0  0  0
    6.3881   -1.5648    4.6551 H   0  0  0  0  0  0  0  0  0  0  0  0
    6.7191   -1.3337    7.0612 H   0  0  0  0  0  0  0  0  0  0  0  0
    8.4037   -0.2663    8.5141 H   0  0  0  0  0  0  0  0  0  0  0  0
   10.6790   -0.0331    9.2943 H   0  0  0  0  0  0  0  0  0  0  0  0
   11.9762   -0.8080    8.3495 H   0  0  0  0  0  0  0  0  0  0  0  0
   11.2675   -1.6517    9.7371 H   0  0  0  0  0  0  0  0  0  0  0  0
   11.3403   -3.1426    7.2209 H   0  0  0  0  0  0  0  0  0  0  0  0
    9.6675   -4.2115    5.7715 H   0  0  0  0  0  0  0  0  0  0  0  0
    4.7002   -8.2515    3.5964 H   0  0  0  0  0  0  0  0  0  0  0  0
    4.8661   -6.8834    2.4353 H   0  0  0  0  0  0  0  0  0  0  0  0
    3.6660   -6.7839    3.7557 H   0  0  0  0  0  0  0  0  0  0  0  0
    5.0997   -0.4203    3.5864 H   0  0  0  0  0  0  0  0  0  0  0  0
    3.6417    0.9029    2.1576 H   0  0  0  0  0  0  0  0  0  0  0  0
  1  2  1  0
  1 26  1  0
  1 27  1  0
  1 28  1  0
  2  3  1  0
  3  4  2  0
  3 25  1  0
  4  5  1  0
  4 29  1  0
  5  6  2  0
  5 30  1  0
  6  7  1  0
  6 24  1  0
  7  8  2  0
  7 23  1  0
  8  9  1  0
  8 31  1  0
  9 10  1  0
  9 17  2  0
 10 11  2  0
 10 16  1  0
 11 12  1  0
 11 32  1  0
 12 13  2  0
 12 33  1  0
 13 14  1  0
 13 15  1  0
 14 34  1  0
 14 35  1  0
 14 36  1  0
 15 16  2  0
 15 37  1  0
 16 38  1  0
 17 18  1  0
 17 20  1  0
 18 19  3  0
 20 21  1  0
 20 23  2  0
 21 22  1  0
 22 39  1  0
 22 40  1  0
 22 41  1  0
 24 25  2  0
 24 42  1  0
 25 43  1  0
M  END

