
     RDKit          3D

 47 50  0  0  0  0  0  0  0  0999 V2000
    1.5069    1.6932    0.7081 C   0  0  0  0  0  0  0  0  0  0  0  0
    2.6306    0.6915    0.5817 C   0  0  0  0  0  0  0  0  0  0  0  0
    2.3914   -0.6918    0.7451 C   0  0  0  0  0  0  0  0  0  0  0  0
    3.4087   -1.6343    0.6332 C   0  0  0  0  0  0  0  0  0  0  0  0
    4.7153   -1.2041    0.3494 C   0  0  0  0  0  0  0  0  0  0  0  0
    5.8202   -2.0125    0.2097 N   0  0  0  0  0  0  0  0  0  0  0  0
    6.8949   -1.3339   -0.0514 C   0  0  0  0  0  0  0  0  0  0  0  0
    8.2201   -1.9335   -0.2505 C   0  0  0  0  0  0  0  0  0  0  0  0
    9.3640   -1.1676   -0.5344 C   0  0  0  0  0  0  0  0  0  0  0  0
   10.6122   -1.7580   -0.7196 C   0  0  0  0  0  0  0  0  0  0  0  0
   10.7397   -3.1551   -0.6217 C   0  0  0  0  0  0  0  0  0  0  0  0
   11.9604   -3.8217   -0.7952 N   0  0  0  0  0  0  0  0  0  0  0  0
   13.1888   -3.3167   -1.0700 C   0  0  0  0  0  0  0  0  0  0  0  0
   13.5011   -2.1465   -1.2289 O   0  0  0  0  0  0  0  0  0  0  0  0
   14.2338   -4.4530   -1.1677 C   0  0  0  0  0  0  0  0  0  0  0  0
   13.9263   -5.6252   -0.9861 O   0  0  0  0  0  0  0  0  0  0  0  0
   15.4594   -3.9878   -1.4709 N   0  0  0  0  0  0  0  0  0  0  0  0
   16.6275   -4.8414   -1.6059 C   0  0  0  0  0  0  0  0  0  0  0  0
   17.5163   -4.8512   -0.3750 C   0  0  0  0  0  0  0  0  0  0  0  0
   17.0737   -5.4226    0.8274 C   0  0  0  0  0  0  0  0  0  0  0  0
   17.9212   -5.4010    1.9371 C   0  0  0  0  0  0  0  0  0  0  0  0
   19.1459   -4.8640    1.9239 N   0  0  0  0  0  0  0  0  0  0  0  0
   19.5677   -4.3238    0.7802 C   0  0  0  0  0  0  0  0  0  0  0  0
   18.7978   -4.2912   -0.3888 C   0  0  0  0  0  0  0  0  0  0  0  0
    9.5998   -3.9325   -0.3376 C   0  0  0  0  0  0  0  0  0  0  0  0
    8.3619   -3.3323   -0.1553 C   0  0  0  0  0  0  0  0  0  0  0  0
    6.6538    0.4342   -0.1567 S   0  0  0  0  0  0  0  0  0  0  0  0
    4.9578    0.1866    0.1848 C   0  0  0  0  0  0  0  0  0  0  0  0
    3.9319    1.1280    0.2984 C   0  0  0  0  0  0  0  0  0  0  0  0
    0.5511    1.2005    0.9390 H   0  0  0  0  0  0  0  0  0  0  0  0
    1.3722    2.2657   -0.2250 H   0  0  0  0  0  0  0  0  0  0  0  0
    1.7090    2.4251    1.5079 H   0  0  0  0  0  0  0  0  0  0  0  0
    1.3748   -1.0277    0.9663 H   0  0  0  0  0  0  0  0  0  0  0  0
    3.2145   -2.7010    0.7612 H   0  0  0  0  0  0  0  0  0  0  0  0
    9.2875   -0.0801   -0.6145 H   0  0  0  0  0  0  0  0  0  0  0  0
   11.4895   -1.1530   -0.9381 H   0  0  0  0  0  0  0  0  0  0  0  0
   11.9679   -4.8383   -0.7052 H   0  0  0  0  0  0  0  0  0  0  0  0
   15.5398   -2.9750   -1.5328 H   0  0  0  0  0  0  0  0  0  0  0  0
   17.2065   -4.5173   -2.4845 H   0  0  0  0  0  0  0  0  0  0  0  0
   16.2524   -5.8573   -1.8010 H   0  0  0  0  0  0  0  0  0  0  0  0
   16.0846   -5.8833    0.8920 H   0  0  0  0  0  0  0  0  0  0  0  0
   17.5932   -5.8451    2.8846 H   0  0  0  0  0  0  0  0  0  0  0  0
   20.5746   -3.8888    0.7845 H   0  0  0  0  0  0  0  0  0  0  0  0
   19.2010   -3.8344   -1.2971 H   0  0  0  0  0  0  0  0  0  0  0  0
    9.6936   -5.0194   -0.2604 H   0  0  0  0  0  0  0  0  0  0  0  0
    7.4778   -3.9323    0.0649 H   0  0  0  0  0  0  0  0  0  0  0  0
    4.1370    2.1939    0.1688 H   0  0  0  0  0  0  0  0  0  0  0  0
  1  2  1  0
  1 30  1  0
  1 31  1  0
  1 32  1  0
  2  3  2  0
  2 29  1  0
  3  4  1  0
  3 33  1  0
  4  5  2  0
  4 34  1  0
  5  6  1  0
  5 28  1  0
  6  7  2  0
  7  8  1  0
  7 27  1  0
  8  9  2  0
  8 26  1  0
  9 10  1  0
  9 35  1  0
 10 11  2  0
 10 36  1  0
 11 12  1  0
 11 25  1  0
 12 13  1  0
 12 37  1  0
 13 14  2  0
 13 15  1  0
 15 16  2  0
 15 17  1  0
 17 18  1  0
 17 38  1  0
 18 19  1  0
 18 39  1  0
 18 40  1  0
 19 20  2  0
 19 24  1  0
 20 21  1  0
 20 41  1  0
 21 22  2  0
 21 42  1  0
 22 23  1  0
 23 24  2  0
 23 43  1  0
 24 44  1  0
 25 26  2  0
 25 45  1  0
 26 46  1  0
 27 28  1  0
 28 29  2  0
 29 47  1  0
M  END

