
     RDKit          3D

 30 30  0  0  0  0  0  0  0  0999 V2000
    4.2288    3.0036    4.3172 C   0  0  0  0  0  0  0  0  0  0  0  0
    3.8086    1.5599    4.5240 C   0  0  0  0  0  0  0  0  0  0  0  0
    4.5109    0.7405    3.6186 O   0  0  0  0  0  0  0  0  0  0  0  0
    4.2114   -0.6344    3.7241 C   0  0  0  0  0  0  0  0  0  0  0  0
    5.0557   -1.4050    2.7157 C   0  0  0  0  0  0  0  0  0  0  0  0
    6.5626   -1.2329    2.9125 C   0  0  0  0  0  0  0  0  0  0  0  0
    7.1228   -1.9966    4.0979 C   0  0  0  0  0  0  0  0  0  0  0  0
    6.4161   -2.7155    4.7791 O   0  0  0  0  0  0  0  0  0  0  0  0
    8.5905   -1.8810    4.4557 C   0  0  0  0  0  0  0  0  0  0  0  0
    9.0309   -2.5960    5.5847 C   0  0  0  0  0  0  0  0  0  0  0  0
   10.3532   -2.5612    6.0052 C   0  0  0  0  0  0  0  0  0  0  0  0
   11.2915   -1.7984    5.2965 C   0  0  0  0  0  0  0  0  0  0  0  0
   13.0891   -1.7665    5.8895 Br  0  0  0  0  0  0  0  0  0  0  0  0
   10.8933   -1.0723    4.1641 C   0  0  0  0  0  0  0  0  0  0  0  0
   11.9927   -0.1089    3.2345 Cl  0  0  0  0  0  0  0  0  0  0  0  0
    9.5470   -1.1267    3.7628 C   0  0  0  0  0  0  0  0  0  0  0  0
    9.2068   -0.4252    2.6791 F   0  0  0  0  0  0  0  0  0  0  0  0
    3.6867    3.6679    5.0084 H   0  0  0  0  0  0  0  0  0  0  0  0
    4.0152    3.3240    3.2856 H   0  0  0  0  0  0  0  0  0  0  0  0
    5.3090    3.1232    4.4949 H   0  0  0  0  0  0  0  0  0  0  0  0
    2.7135    1.4506    4.3702 H   0  0  0  0  0  0  0  0  0  0  0  0
    4.0117    1.2417    5.5689 H   0  0  0  0  0  0  0  0  0  0  0  0
    3.1341   -0.8117    3.5217 H   0  0  0  0  0  0  0  0  0  0  0  0
    4.4105   -0.9989    4.7514 H   0  0  0  0  0  0  0  0  0  0  0  0
    4.7922   -1.0539    1.7048 H   0  0  0  0  0  0  0  0  0  0  0  0
    4.7854   -2.4705    2.7780 H   0  0  0  0  0  0  0  0  0  0  0  0
    6.8112   -0.1652    3.0252 H   0  0  0  0  0  0  0  0  0  0  0  0
    7.1189   -1.5565    2.0158 H   0  0  0  0  0  0  0  0  0  0  0  0
    8.2851   -3.1843    6.1218 H   0  0  0  0  0  0  0  0  0  0  0  0
   10.6737   -3.1221    6.8841 H   0  0  0  0  0  0  0  0  0  0  0  0
  1  2  1  0
  1 18  1  0
  1 19  1  0
  1 20  1  0
  2  3  1  0
  2 21  1  0
  2 22  1  0
  3  4  1  0
  4  5  1  0
  4 23  1  0
  4 24  1  0
  5  6  1  0
  5 25  1  0
  5 26  1  0
  6  7  1  0
  6 27  1  0
  6 28  1  0
  7  8  2  0
  7  9  1  0
  9 10  2  0
  9 16  1  0
 10 11  1  0
 10 29  1  0
 11 12  2  0
 11 30  1  0
 12 13  1  0
 12 14  1  0
 14 15  1  0
 14 16  2  0
 16 17  1  0
M  END

