
     RDKit          3D

 49 51  0  0  0  0  0  0  0  0999 V2000
    2.6581   -0.2458    1.9175 C   0  0  0  0  0  0  0  0  0  0  0  0
    2.4218   -0.1551    0.5283 O   0  0  0  0  0  0  0  0  0  0  0  0
    2.7363   -1.1960   -0.2731 C   0  0  0  0  0  0  0  0  0  0  0  0
    2.4720   -1.0244   -1.6464 C   0  0  0  0  0  0  0  0  0  0  0  0
    2.7626   -2.0375   -2.5465 C   0  0  0  0  0  0  0  0  0  0  0  0
    3.3090   -3.2614   -2.1120 C   0  0  0  0  0  0  0  0  0  0  0  0
    3.6008   -4.2941   -3.1609 C   0  0  0  0  0  0  0  0  0  0  0  0
    3.6931   -3.9992   -4.3407 O   0  0  0  0  0  0  0  0  0  0  0  0
    3.7371   -5.5899   -2.6897 N   0  0  0  0  0  0  0  0  0  0  0  0
    4.0519   -6.7581   -3.3948 C   0  0  0  0  0  0  0  0  0  0  0  0
    4.3045   -6.7847   -4.7811 C   0  0  0  0  0  0  0  0  0  0  0  0
    4.6192   -7.9911   -5.4047 C   0  0  0  0  0  0  0  0  0  0  0  0
    4.6845   -9.1689   -4.6570 C   0  0  0  0  0  0  0  0  0  0  0  0
    5.0543  -10.7188   -5.4574 S   0  0  1  0  0  0  0  0  0  0  0  0
    4.5100  -11.8055   -4.6401 O   0  0  0  0  0  0  0  0  0  0  0  0
    4.7468  -10.5977   -6.8773 O   0  0  0  0  0  0  0  0  0  0  0  0
    6.7350  -10.9290   -5.2424 N   0  0  0  0  0  0  0  0  0  0  0  0
    7.7583  -10.3211   -5.9545 C   0  0  0  0  0  0  0  0  0  0  0  0
    8.9414  -10.9410   -5.8895 N   0  0  0  0  0  0  0  0  0  0  0  0
    9.9572  -10.3672   -6.5431 C   0  0  0  0  0  0  0  0  0  0  0  0
   11.2908  -11.0592   -6.4663 C   0  0  0  0  0  0  0  0  0  0  0  0
    9.7700   -9.1799   -7.2651 C   0  0  0  0  0  0  0  0  0  0  0  0
    8.4892   -8.6120   -7.2666 C   0  0  0  0  0  0  0  0  0  0  0  0
    8.1743   -7.3415   -8.0068 C   0  0  0  0  0  0  0  0  0  0  0  0
    7.4823   -9.1863   -6.5975 N   0  0  0  0  0  0  0  0  0  0  0  0
    4.4238   -9.1630   -3.2828 C   0  0  0  0  0  0  0  0  0  0  0  0
    4.1134   -7.9608   -2.6589 C   0  0  0  0  0  0  0  0  0  0  0  0
    3.5822   -3.4162   -0.7458 C   0  0  0  0  0  0  0  0  0  0  0  0
    3.3025   -2.4012    0.1735 C   0  0  0  0  0  0  0  0  0  0  0  0
    2.3233    0.7047    2.3531 H   0  0  0  0  0  0  0  0  0  0  0  0
    3.7306   -0.3846    2.1423 H   0  0  0  0  0  0  0  0  0  0  0  0
    2.0863   -1.0717    2.3768 H   0  0  0  0  0  0  0  0  0  0  0  0
    2.0391   -0.0775   -1.9748 H   0  0  0  0  0  0  0  0  0  0  0  0
    2.5733   -1.9075   -3.6135 H   0  0  0  0  0  0  0  0  0  0  0  0
    3.5254   -5.7299   -1.7099 H   0  0  0  0  0  0  0  0  0  0  0  0
    4.2417   -5.8607   -5.3499 H   0  0  0  0  0  0  0  0  0  0  0  0
    4.8186   -8.0271   -6.4756 H   0  0  0  0  0  0  0  0  0  0  0  0
    6.9603  -11.8114   -4.7892 H   0  0  0  0  0  0  0  0  0  0  0  0
   11.6098  -11.1440   -5.4151 H   0  0  0  0  0  0  0  0  0  0  0  0
   12.0667  -10.5270   -7.0338 H   0  0  0  0  0  0  0  0  0  0  0  0
   11.2033  -12.0867   -6.8541 H   0  0  0  0  0  0  0  0  0  0  0  0
   10.5943   -8.7132   -7.8063 H   0  0  0  0  0  0  0  0  0  0  0  0
    9.0611   -6.9181   -8.4983 H   0  0  0  0  0  0  0  0  0  0  0  0
    7.7568   -6.5949   -7.3127 H   0  0  0  0  0  0  0  0  0  0  0  0
    7.4021   -7.5350   -8.7688 H   0  0  0  0  0  0  0  0  0  0  0  0
    4.4519  -10.0965   -2.7184 H   0  0  0  0  0  0  0  0  0  0  0  0
    3.9070   -7.9492   -1.5846 H   0  0  0  0  0  0  0  0  0  0  0  0
    4.0560   -4.3266   -0.3681 H   0  0  0  0  0  0  0  0  0  0  0  0
    3.5392   -2.5560    1.2259 H   0  0  0  0  0  0  0  0  0  0  0  0
  1  2  1  0
  1 30  1  0
  1 31  1  0
  1 32  1  0
  2  3  1  0
  3  4  2  0
  3 29  1  0
  4  5  1  0
  4 33  1  0
  5  6  2  0
  5 34  1  0
  6  7  1  0
  6 28  1  0
  7  8  2  0
  7  9  1  0
  9 10  1  0
  9 35  1  0
 10 11  2  0
 10 27  1  0
 11 12  1  0
 11 36  1  0
 12 13  2  0
 12 37  1  0
 13 14  1  0
 13 26  1  0
 14 15  2  0
 14 16  2  0
 14 17  1  6
 17 18  1  0
 17 38  1  0
 18 19  2  0
 18 25  1  0
 19 20  1  0
 20 21  1  0
 20 22  2  0
 21 39  1  0
 21 40  1  0
 21 41  1  0
 22 23  1  0
 22 42  1  0
 23 24  1  0
 23 25  2  0
 24 43  1  0
 24 44  1  0
 24 45  1  0
 26 27  2  0
 26 46  1  0
 27 47  1  0
 28 29  2  0
 28 48  1  0
 29 49  1  0
M  END

