
     RDKit          3D

 35 36  0  0  0  0  0  0  0  0999 V2000
    3.0027    1.1376   -0.2939 N   0  0  0  0  0  0  0  0  0  0  0  0
    2.3287   -0.0156   -0.0668 C   0  0  0  0  0  0  0  0  0  0  0  0
    1.1388   -0.0911    0.1748 O   0  0  0  0  0  0  0  0  0  0  0  0
    3.1749   -1.2885   -0.1333 C   0  0  0  0  0  0  0  0  0  0  0  0
    4.5242   -0.9906   -0.4140 O   0  0  0  0  0  0  0  0  0  0  0  0
    5.4346   -2.0095   -0.5152 C   0  0  0  0  0  0  0  0  0  0  0  0
    6.7588   -1.6476   -0.7899 C   0  0  0  0  0  0  0  0  0  0  0  0
    7.7582   -2.6127   -0.9058 C   0  0  0  0  0  0  0  0  0  0  0  0
    7.4603   -3.9838   -0.7645 C   0  0  0  0  0  0  0  0  0  0  0  0
    8.4155   -4.9926   -0.9202 N   0  0  0  0  0  0  0  0  0  0  0  0
    9.8340   -4.7074   -0.9286 C   0  0  0  0  0  0  0  0  0  0  0  0
   10.6605   -5.9254   -1.2915 C   0  0  0  0  0  0  0  0  0  0  0  0
   10.1204   -6.9713   -2.0564 C   0  0  0  0  0  0  0  0  0  0  0  0
   10.8690   -8.0914   -2.4195 C   0  0  0  0  0  0  0  0  0  0  0  0
   12.2028   -8.1768   -2.0151 C   0  0  0  0  0  0  0  0  0  0  0  0
   13.1605   -9.5706   -2.4520 Cl  0  0  0  0  0  0  0  0  0  0  0  0
   12.7847   -7.1538   -1.2644 C   0  0  0  0  0  0  0  0  0  0  0  0
   12.0114   -6.0435   -0.9160 C   0  0  0  0  0  0  0  0  0  0  0  0
   12.7932   -4.7702    0.0036 Cl  0  0  0  0  0  0  0  0  0  0  0  0
    6.1258   -4.3321   -0.4831 C   0  0  0  0  0  0  0  0  0  0  0  0
    5.1247   -3.3677   -0.3570 C   0  0  0  0  0  0  0  0  0  0  0  0
    2.4955    2.0133   -0.2608 H   0  0  0  0  0  0  0  0  0  0  0  0
    3.9961    1.1198   -0.4848 H   0  0  0  0  0  0  0  0  0  0  0  0
    2.7291   -1.9382   -0.9088 H   0  0  0  0  0  0  0  0  0  0  0  0
    3.0632   -1.8074    0.8366 H   0  0  0  0  0  0  0  0  0  0  0  0
    7.0008   -0.5885   -0.9030 H   0  0  0  0  0  0  0  0  0  0  0  0
    8.7782   -2.2836   -1.1062 H   0  0  0  0  0  0  0  0  0  0  0  0
    8.1792   -5.8477   -0.4265 H   0  0  0  0  0  0  0  0  0  0  0  0
   10.1951   -4.2944    0.0333 H   0  0  0  0  0  0  0  0  0  0  0  0
   10.0345   -3.9231   -1.6807 H   0  0  0  0  0  0  0  0  0  0  0  0
    9.0800   -6.8918   -2.3775 H   0  0  0  0  0  0  0  0  0  0  0  0
   10.4260   -8.8914   -3.0142 H   0  0  0  0  0  0  0  0  0  0  0  0
   13.8272   -7.2153   -0.9533 H   0  0  0  0  0  0  0  0  0  0  0  0
    5.8619   -5.3874   -0.3674 H   0  0  0  0  0  0  0  0  0  0  0  0
    4.1072   -3.6921   -0.1374 H   0  0  0  0  0  0  0  0  0  0  0  0
  1  2  1  0
  1 22  1  0
  1 23  1  0
  2  3  2  0
  2  4  1  0
  4  5  1  0
  4 24  1  0
  4 25  1  0
  5  6  1  0
  6  7  2  0
  6 21  1  0
  7  8  1  0
  7 26  1  0
  8  9  2  0
  8 27  1  0
  9 10  1  0
  9 20  1  0
 10 11  1  0
 10 28  1  0
 11 12  1  0
 11 29  1  0
 11 30  1  0
 12 13  2  0
 12 18  1  0
 13 14  1  0
 13 31  1  0
 14 15  2  0
 14 32  1  0
 15 16  1  0
 15 17  1  0
 17 18  2  0
 17 33  1  0
 18 19  1  0
 20 21  2  0
 20 34  1  0
 21 35  1  0
M  END

