
     RDKit          3D

 38 40  0  0  0  0  0  0  0  0999 V2000
    0.9186   -0.1245    0.0501 C   0  0  0  0  0  0  0  0  0  0  0  0
    2.4278   -0.1676    0.0150 C   0  0  0  0  0  0  0  0  0  0  0  0
    3.1639    1.0294   -0.1389 C   0  0  0  0  0  0  0  0  0  0  0  0
    4.5578    1.0682   -0.1812 C   0  0  0  0  0  0  0  0  0  0  0  0
    5.3317    2.3481   -0.3453 C   0  0  0  0  0  0  0  0  0  0  0  0
    5.2460   -0.1605   -0.0625 C   0  0  0  0  0  0  0  0  0  0  0  0
    6.6210   -0.2956   -0.0847 N   0  0  0  0  0  0  0  0  0  0  0  0
    6.9714   -1.5269    0.0436 C   0  0  0  0  0  0  0  0  0  0  0  0
    8.2576   -2.0286    0.0641 N   0  0  0  0  0  0  0  0  0  0  0  0
    9.4501   -1.3300   -0.0411 C   0  0  0  0  0  0  0  0  0  0  0  0
    9.5640   -0.1308   -0.1715 O   0  0  0  0  0  0  0  0  0  0  0  0
   10.6612   -2.2260    0.0283 C   0  0  0  0  0  0  0  0  0  0  0  0
   10.4757   -3.4917    0.1760 N   0  0  0  0  0  0  0  0  0  0  0  0
   11.5425   -4.3280    0.2724 N   0  0  0  0  0  0  0  0  0  0  0  0
   11.2565   -5.7179    0.6125 C   0  0  0  0  0  0  0  0  0  0  0  0
   12.8449   -3.9899   -0.1072 C   0  0  0  0  0  0  0  0  0  0  0  0
   13.7342   -4.8127   -0.0492 O   0  0  0  0  0  0  0  0  0  0  0  0
   13.0085   -2.5824   -0.6495 C   0  0  0  0  0  0  0  0  0  0  0  0
   12.0242   -1.6002   -0.0174 C   0  0  0  0  0  0  0  0  0  0  0  0
    5.6334   -2.7075    0.2125 S   0  0  0  0  0  0  0  0  0  0  0  0
    4.5128   -1.3619    0.0919 C   0  0  0  0  0  0  0  0  0  0  0  0
    3.1153   -1.3797    0.1319 C   0  0  0  0  0  0  0  0  0  0  0  0
    0.5083    0.3028   -0.8804 H   0  0  0  0  0  0  0  0  0  0  0  0
    0.5548    0.5056    0.8791 H   0  0  0  0  0  0  0  0  0  0  0  0
    0.4861   -1.1280    0.1770 H   0  0  0  0  0  0  0  0  0  0  0  0
    2.6144    1.9716   -0.2292 H   0  0  0  0  0  0  0  0  0  0  0  0
    4.6605    3.2157   -0.4239 H   0  0  0  0  0  0  0  0  0  0  0  0
    5.9678    2.3117   -1.2444 H   0  0  0  0  0  0  0  0  0  0  0  0
    6.0157    2.5069    0.5039 H   0  0  0  0  0  0  0  0  0  0  0  0
    8.3790   -3.0337    0.1689 H   0  0  0  0  0  0  0  0  0  0  0  0
   10.2091   -5.7763    0.9287 H   0  0  0  0  0  0  0  0  0  0  0  0
   11.9151   -6.0493    1.4272 H   0  0  0  0  0  0  0  0  0  0  0  0
   11.4260   -6.3805   -0.2512 H   0  0  0  0  0  0  0  0  0  0  0  0
   12.8415   -2.6453   -1.7407 H   0  0  0  0  0  0  0  0  0  0  0  0
   14.0568   -2.2886   -0.5057 H   0  0  0  0  0  0  0  0  0  0  0  0
   11.9789   -0.6410   -0.5499 H   0  0  0  0  0  0  0  0  0  0  0  0
   12.3265   -1.3616    1.0206 H   0  0  0  0  0  0  0  0  0  0  0  0
    2.5674   -2.3172    0.2519 H   0  0  0  0  0  0  0  0  0  0  0  0
  1  2  1  0
  1 23  1  0
  1 24  1  0
  1 25  1  0
  2  3  2  0
  2 22  1  0
  3  4  1  0
  3 26  1  0
  4  5  1  0
  4  6  2  0
  5 27  1  0
  5 28  1  0
  5 29  1  0
  6  7  1  0
  6 21  1  0
  7  8  2  0
  8  9  1  0
  8 20  1  0
  9 10  1  0
  9 30  1  0
 10 11  2  0
 10 12  1  0
 12 13  2  0
 12 19  1  0
 13 14  1  0
 14 15  1  0
 14 16  1  0
 15 31  1  0
 15 32  1  0
 15 33  1  0
 16 17  2  0
 16 18  1  0
 18 19  1  0
 18 34  1  0
 18 35  1  0
 19 36  1  0
 19 37  1  0
 20 21  1  0
 21 22  2  0
 22 38  1  0
M  END

