
     RDKit          3D

 27 28  0  0  0  0  0  0  0  0999 V2000
    1.5499    0.4314    1.0669 C   0  0  0  0  0  0  0  0  0  0  0  0
    2.4451    0.0546   -0.1151 C   0  0  0  0  0  0  0  0  0  0  0  0
    3.2887   -1.1034    0.1360 N   0  0  0  0  0  0  0  0  0  0  0  0
    4.5218   -1.0643    0.6844 C   0  0  0  0  0  0  0  0  0  0  0  0
    5.0542    0.1429    0.9819 N   0  0  0  0  0  0  0  0  0  0  0  0
    6.2930    0.1287    1.4378 C   0  0  0  0  0  0  0  0  0  0  0  0
    7.0262   -1.0529    1.6187 C   0  0  0  0  0  0  0  0  0  0  0  0
    8.4319   -0.9238    1.9860 N   0  0  0  0  0  0  0  0  0  0  0  0
    8.7668    0.1078    2.5545 O   0  0  0  0  0  0  0  0  0  0  0  0
    9.1935   -1.8277    1.6780 O   0  0  0  0  0  0  0  0  0  0  0  0
    6.3603   -2.2817    1.3661 C   0  0  0  0  0  0  0  0  0  0  0  0
    6.9117   -3.6232    1.6418 C   0  0  0  0  0  0  0  0  0  0  0  0
    7.6136   -4.0315    3.1854 S   0  0  0  0  0  0  0  0  0  0  0  0
    7.8408   -5.6748    2.7211 C   0  0  0  0  0  0  0  0  0  0  0  0
    7.4108   -5.9153    1.4424 C   0  0  0  0  0  0  0  0  0  0  0  0
    6.8676   -4.7452    0.8343 C   0  0  0  0  0  0  0  0  0  0  0  0
    6.2733   -4.7675   -0.7956 Cl  0  0  0  0  0  0  0  0  0  0  0  0
    5.1159   -2.2558    0.9012 N   0  0  0  0  0  0  0  0  0  0  0  0
    0.9196    1.2973    0.8081 H   0  0  0  0  0  0  0  0  0  0  0  0
    2.1590    0.7018    1.9430 H   0  0  0  0  0  0  0  0  0  0  0  0
    0.8851   -0.4007    1.3501 H   0  0  0  0  0  0  0  0  0  0  0  0
    3.1036    0.8969   -0.3693 H   0  0  0  0  0  0  0  0  0  0  0  0
    1.8336   -0.1679   -1.0047 H   0  0  0  0  0  0  0  0  0  0  0  0
    2.9214   -2.0368   -0.0136 H   0  0  0  0  0  0  0  0  0  0  0  0
    6.7703    1.0856    1.6698 H   0  0  0  0  0  0  0  0  0  0  0  0
    8.2813   -6.3815    3.4230 H   0  0  0  0  0  0  0  0  0  0  0  0
    7.4684   -6.8794    0.9380 H   0  0  0  0  0  0  0  0  0  0  0  0
  1  2  1  0
  1 19  1  0
  1 20  1  0
  1 21  1  0
  2  3  1  0
  2 22  1  0
  2 23  1  0
  3  4  1  0
  3 24  1  0
  4  5  2  0
  4 18  1  0
  5  6  1  0
  6  7  2  0
  6 25  1  0
  7  8  1  0
  7 11  1  0
  8  9  2  0
  8 10  1  0
 11 12  1  0
 11 18  2  0
 12 13  1  0
 12 16  2  0
 13 14  1  0
 14 15  2  0
 14 26  1  0
 15 16  1  0
 15 27  1  0
 16 17  1  0
M  CHG  2   8   1  10  -1
M  END

