
     RDKit          3D

 39 39  0  0  0  0  0  0  0  0999 V2000
    4.0403    0.8734    1.3743 C   0  0  0  0  0  0  0  0  0  0  0  0
    3.0072    0.5992    0.2760 C   0  0  1  0  0  0  0  0  0  0  0  0
    2.6351   -0.8851    0.1920 C   0  0  0  0  0  0  0  0  0  0  0  0
    1.7574    1.4572    0.4862 C   0  0  0  0  0  0  0  0  0  0  0  0
    3.5105    1.0681   -1.0171 O   0  0  0  0  0  0  0  0  0  0  0  0
    4.6186    0.5399   -1.5851 C   0  0  0  0  0  0  0  0  0  0  0  0
    5.3086   -0.3272   -1.0794 O   0  0  0  0  0  0  0  0  0  0  0  0
    4.8694    1.1053   -2.8129 N   0  0  0  0  0  0  0  0  0  0  0  0
    6.0937    0.7303   -3.5063 C   0  0  0  0  0  0  0  0  0  0  0  0
    7.1327    1.8560   -3.6209 C   0  0  0  0  0  0  0  0  0  0  0  0
    6.7286    3.0065   -4.5584 C   0  0  0  0  0  0  0  0  0  0  0  0
    5.7729    4.0907   -4.0024 C   0  0  2  0  0  0  0  0  0  0  0  0
    5.2840    4.5435   -4.8881 H   0  0  0  0  0  0  0  0  0  0  0  0
    6.5654    5.2209   -3.3241 C   0  0  0  0  0  0  0  0  0  0  0  0
    5.7526    6.2555   -2.8110 O   0  0  0  0  0  0  0  0  0  0  0  0
    4.6507    3.5887   -3.0649 C   0  0  0  0  0  0  0  0  0  0  0  0
    4.0705    2.1968   -3.3653 C   0  0  0  0  0  0  0  0  0  0  0  0
    3.6138    0.6192    2.3575 H   0  0  0  0  0  0  0  0  0  0  0  0
    4.3114    1.9410    1.3865 H   0  0  0  0  0  0  0  0  0  0  0  0
    4.9485    0.2787    1.2165 H   0  0  0  0  0  0  0  0  0  0  0  0
    2.1520   -1.2005    1.1302 H   0  0  0  0  0  0  0  0  0  0  0  0
    3.5246   -1.5051    0.0250 H   0  0  0  0  0  0  0  0  0  0  0  0
    1.9234   -1.0550   -0.6315 H   0  0  0  0  0  0  0  0  0  0  0  0
    1.2790    1.2055    1.4449 H   0  0  0  0  0  0  0  0  0  0  0  0
    1.0288    1.2873   -0.3213 H   0  0  0  0  0  0  0  0  0  0  0  0
    2.0186    2.5263    0.4971 H   0  0  0  0  0  0  0  0  0  0  0  0
    5.8346    0.3785   -4.5237 H   0  0  0  0  0  0  0  0  0  0  0  0
    6.5188   -0.1198   -2.9592 H   0  0  0  0  0  0  0  0  0  0  0  0
    8.0569    1.3986   -4.0143 H   0  0  0  0  0  0  0  0  0  0  0  0
    7.3837    2.2282   -2.6126 H   0  0  0  0  0  0  0  0  0  0  0  0
    6.2811    2.5605   -5.4636 H   0  0  0  0  0  0  0  0  0  0  0  0
    7.6406    3.5163   -4.9156 H   0  0  0  0  0  0  0  0  0  0  0  0
    7.3218    5.6149   -4.0339 H   0  0  0  0  0  0  0  0  0  0  0  0
    7.1212    4.8167   -2.4604 H   0  0  0  0  0  0  0  0  0  0  0  0
    5.2877    6.6665   -3.5520 H   0  0  0  0  0  0  0  0  0  0  0  0
    3.8367    4.3303   -3.0760 H   0  0  0  0  0  0  0  0  0  0  0  0
    5.0107    3.5773   -2.0223 H   0  0  0  0  0  0  0  0  0  0  0  0
    3.9777    2.0360   -4.4543 H   0  0  0  0  0  0  0  0  0  0  0  0
    3.0626    2.1218   -2.9439 H   0  0  0  0  0  0  0  0  0  0  0  0
  1  2  1  0
  1 18  1  0
  1 19  1  0
  1 20  1  0
  2  3  1  0
  2  4  1  0
  2  5  1  6
  3 21  1  0
  3 22  1  0
  3 23  1  0
  4 24  1  0
  4 25  1  0
  4 26  1  0
  5  6  1  0
  6  7  2  0
  6  8  1  0
  8  9  1  0
  8 17  1  0
  9 10  1  0
  9 27  1  0
  9 28  1  0
 10 11  1  0
 10 29  1  0
 10 30  1  0
 11 12  1  0
 11 31  1  0
 11 32  1  0
 12 13  1  6
 12 14  1  0
 12 16  1  0
 14 15  1  0
 14 33  1  0
 14 34  1  0
 15 35  1  0
 16 17  1  0
 16 36  1  0
 16 37  1  0
 17 38  1  0
 17 39  1  0
M  END

