
     RDKit          3D

 43 45  0  0  0  0  0  0  0  0999 V2000
    2.7175   -1.0731   -1.9420 O   0  0  0  0  0  0  0  0  0  0  0  0
    2.3203   -0.5226   -0.6404 S   0  0  1  0  0  0  0  0  0  0  0  0
    1.0637    0.2132   -0.4749 O   0  0  0  0  0  0  0  0  0  0  0  0
    2.2889   -1.9133    0.5047 C   0  0  0  0  0  0  0  0  0  0  0  0
    2.7923   -3.1514    0.1025 C   0  0  0  0  0  0  0  0  0  0  0  0
    2.7534   -4.2221    0.9966 C   0  0  0  0  0  0  0  0  0  0  0  0
    2.2101   -4.0595    2.2752 C   0  0  0  0  0  0  0  0  0  0  0  0
    2.1793   -5.4130    3.3619 Cl  0  0  0  0  0  0  0  0  0  0  0  0
    1.6908   -2.8076    2.6631 C   0  0  0  0  0  0  0  0  0  0  0  0
    0.9930   -2.5764    4.2378 Cl  0  0  0  0  0  0  0  0  0  0  0  0
    1.7274   -1.7348    1.7707 C   0  0  0  0  0  0  0  0  0  0  0  0
    3.5432    0.4560   -0.0307 N   0  0  0  0  0  0  0  0  0  0  0  0
    4.9189    0.1846   -0.4737 C   0  0  0  0  0  0  0  0  0  0  0  0
    5.3165    1.0422   -1.6807 C   0  0  0  0  0  0  0  0  0  0  0  0
    5.0708    2.5479   -1.4487 C   0  0  2  0  0  0  0  0  0  0  0  0
    6.1059    3.2110   -0.5025 C   0  0  0  0  0  0  0  0  0  0  0  0
    7.5312    3.1871   -1.0134 C   0  0  0  0  0  0  0  0  0  0  0  0
    7.9239    4.0205   -2.0752 C   0  0  0  0  0  0  0  0  0  0  0  0
    9.2312    3.9957   -2.5661 C   0  0  0  0  0  0  0  0  0  0  0  0
   10.1783    3.1347   -2.0015 C   0  0  0  0  0  0  0  0  0  0  0  0
    9.8056    2.3037   -0.9422 C   0  0  0  0  0  0  0  0  0  0  0  0
    8.4947    2.3324   -0.4550 C   0  0  0  0  0  0  0  0  0  0  0  0
    3.6226    2.7632   -0.9592 C   0  0  0  0  0  0  0  0  0  0  0  0
    3.2562    1.8730    0.2343 C   0  0  0  0  0  0  0  0  0  0  0  0
    3.1949   -3.2715   -0.9041 H   0  0  0  0  0  0  0  0  0  0  0  0
    3.1398   -5.2012    0.7092 H   0  0  0  0  0  0  0  0  0  0  0  0
    1.3080   -0.7724    2.0655 H   0  0  0  0  0  0  0  0  0  0  0  0
    5.0156   -0.8832   -0.7138 H   0  0  0  0  0  0  0  0  0  0  0  0
    5.5815    0.3756    0.3888 H   0  0  0  0  0  0  0  0  0  0  0  0
    4.7153    0.7065   -2.5409 H   0  0  0  0  0  0  0  0  0  0  0  0
    6.3734    0.8564   -1.9320 H   0  0  0  0  0  0  0  0  0  0  0  0
    5.1705    3.0527   -2.4250 H   0  0  0  0  0  0  0  0  0  0  0  0
    6.0738    2.7414    0.4942 H   0  0  0  0  0  0  0  0  0  0  0  0
    5.7968    4.2600   -0.3526 H   0  0  0  0  0  0  0  0  0  0  0  0
    7.1953    4.7054   -2.5198 H   0  0  0  0  0  0  0  0  0  0  0  0
    9.5143    4.6557   -3.3904 H   0  0  0  0  0  0  0  0  0  0  0  0
   11.2023    3.1159   -2.3831 H   0  0  0  0  0  0  0  0  0  0  0  0
   10.5385    1.6309   -0.4890 H   0  0  0  0  0  0  0  0  0  0  0  0
    8.2164    1.6827    0.3802 H   0  0  0  0  0  0  0  0  0  0  0  0
    2.9237    2.5336   -1.7815 H   0  0  0  0  0  0  0  0  0  0  0  0
    3.4597    3.8208   -0.6894 H   0  0  0  0  0  0  0  0  0  0  0  0
    2.1924    1.9739    0.4816 H   0  0  0  0  0  0  0  0  0  0  0  0
    3.8320    2.1573    1.1329 H   0  0  0  0  0  0  0  0  0  0  0  0
  1  2  2  0
  2  3  2  0
  2  4  1  1
  2 12  1  0
  4  5  2  0
  4 11  1  0
  5  6  1  0
  5 25  1  0
  6  7  2  0
  6 26  1  0
  7  8  1  0
  7  9  1  0
  9 10  1  0
  9 11  2  0
 11 27  1  0
 12 13  1  0
 12 24  1  0
 13 14  1  0
 13 28  1  0
 13 29  1  0
 14 15  1  0
 14 30  1  0
 14 31  1  0
 15 16  1  0
 15 23  1  0
 15 32  1  6
 16 17  1  0
 16 33  1  0
 16 34  1  0
 17 18  2  0
 17 22  1  0
 18 19  1  0
 18 35  1  0
 19 20  2  0
 19 36  1  0
 20 21  1  0
 20 37  1  0
 21 22  2  0
 21 38  1  0
 22 39  1  0
 23 24  1  0
 23 40  1  0
 23 41  1  0
 24 42  1  0
 24 43  1  0
M  END

