
     RDKit          3D

 29 28  0  0  0  0  0  0  0  0999 V2000
    0.9531    0.5668   -0.2594 C   0  0  0  0  0  0  0  0  0  0  0  0
    2.3666    0.5174   -0.4566 O   0  0  0  0  0  0  0  0  0  0  0  0
    2.8717   -0.6586   -0.8733 C   0  0  0  0  0  0  0  0  0  0  0  0
    2.1894   -1.6313   -1.0905 O   0  0  0  0  0  0  0  0  0  0  0  0
    4.3824   -0.5899   -0.9961 C   0  0  0  0  0  0  0  0  0  0  0  0
    4.9937   -1.7953   -1.7175 C   0  0  1  0  0  0  0  0  0  0  0  0
    4.6727   -1.8099   -3.2134 C   0  0  0  0  0  0  0  0  0  0  0  0
    6.8342   -1.8209   -1.5344 S   0  0  0  0  0  0  0  0  0  0  0  0
    7.0286   -2.4109    0.1866 C   0  0  0  0  0  0  0  0  0  0  0  0
    6.8531   -3.9225    0.4131 C   0  0  1  0  0  0  0  0  0  0  0  0
    7.9040   -4.7560   -0.3304 C   0  0  0  0  0  0  0  0  0  0  0  0
    6.8161   -4.1478    1.8617 N   0  0  0  0  0  0  0  0  0  0  0  0
    0.7254    1.5881    0.0701 H   0  0  0  0  0  0  0  0  0  0  0  0
    0.6377   -0.1596    0.5052 H   0  0  0  0  0  0  0  0  0  0  0  0
    0.4185    0.3393   -1.1942 H   0  0  0  0  0  0  0  0  0  0  0  0
    4.7723   -0.5067    0.0330 H   0  0  0  0  0  0  0  0  0  0  0  0
    4.6600    0.3545   -1.4916 H   0  0  0  0  0  0  0  0  0  0  0  0
    4.5973   -2.7154   -1.2625 H   0  0  0  0  0  0  0  0  0  0  0  0
    5.0957   -0.9258   -3.7194 H   0  0  0  0  0  0  0  0  0  0  0  0
    3.5826   -1.8086   -3.3641 H   0  0  0  0  0  0  0  0  0  0  0  0
    5.0869   -2.7076   -3.6957 H   0  0  0  0  0  0  0  0  0  0  0  0
    6.3353   -1.8703    0.8493 H   0  0  0  0  0  0  0  0  0  0  0  0
    8.0480   -2.1020    0.4763 H   0  0  0  0  0  0  0  0  0  0  0  0
    5.8551   -4.2015    0.0294 H   0  0  0  0  0  0  0  0  0  0  0  0
    8.9172   -4.5255    0.0446 H   0  0  0  0  0  0  0  0  0  0  0  0
    7.8881   -4.5527   -1.4123 H   0  0  0  0  0  0  0  0  0  0  0  0
    7.7262   -5.8334   -0.1788 H   0  0  0  0  0  0  0  0  0  0  0  0
    7.7450   -3.9901    2.2595 H   0  0  0  0  0  0  0  0  0  0  0  0
    6.5934   -5.1243    2.0588 H   0  0  0  0  0  0  0  0  0  0  0  0
  1  2  1  0
  1 13  1  0
  1 14  1  0
  1 15  1  0
  2  3  1  0
  3  4  2  0
  3  5  1  0
  5  6  1  0
  5 16  1  0
  5 17  1  0
  6  7  1  0
  6  8  1  0
  6 18  1  1
  7 19  1  0
  7 20  1  0
  7 21  1  0
  8  9  1  0
  9 10  1  0
  9 22  1  0
  9 23  1  0
 10 11  1  0
 10 12  1  0
 10 24  1  6
 11 25  1  0
 11 26  1  0
 11 27  1  0
 12 28  1  0
 12 29  1  0
M  END

