
     RDKit          3D

 28 29  0  0  0  0  0  0  0  0999 V2000
    0.8062   -0.1960    0.5125 C   0  0  0  0  0  0  0  0  0  0  0  0
    2.2804    0.0016    0.2124 C   0  0  0  0  0  0  0  0  0  0  0  0
    3.0168   -0.9609    0.9431 O   0  0  0  0  0  0  0  0  0  0  0  0
    4.4009   -0.9751    0.7223 C   0  0  1  0  0  0  0  0  0  0  0  0
    5.0830    0.3103    1.2435 C   0  0  0  0  0  0  0  0  0  0  0  0
    4.5922    0.9373    2.1620 O   0  0  0  0  0  0  0  0  0  0  0  0
    6.3636    0.7348    0.6278 C   0  0  0  0  0  0  0  0  0  0  0  0
    7.0626    0.2750   -0.5498 C   0  0  0  0  0  0  0  0  0  0  0  0
    8.1826    1.0443   -0.6484 C   0  0  0  0  0  0  0  0  0  0  0  0
    8.2315    1.9415    0.3759 O   0  0  0  0  0  0  0  0  0  0  0  0
    7.1376    1.7534    1.1333 C   0  0  0  0  0  0  0  0  0  0  0  0
    4.9697   -2.1685    1.4703 C   0  0  1  0  0  0  0  0  0  0  0  0
    4.7487   -3.5578    0.9343 C   0  0  0  0  0  0  0  0  0  0  0  0
    6.1339   -2.9670    0.9383 C   0  0  0  0  0  0  0  0  0  0  0  0
    0.1969    0.5338   -0.0436 H   0  0  0  0  0  0  0  0  0  0  0  0
    0.6154   -0.0625    1.5883 H   0  0  0  0  0  0  0  0  0  0  0  0
    0.4835   -1.2103    0.2302 H   0  0  0  0  0  0  0  0  0  0  0  0
    2.5915    1.0258    0.4902 H   0  0  0  0  0  0  0  0  0  0  0  0
    2.4753   -0.1196   -0.8751 H   0  0  0  0  0  0  0  0  0  0  0  0
    4.6170   -1.0862   -0.3620 H   0  0  0  0  0  0  0  0  0  0  0  0
    6.7675   -0.5122   -1.2386 H   0  0  0  0  0  0  0  0  0  0  0  0
    9.0063    1.0811   -1.3563 H   0  0  0  0  0  0  0  0  0  0  0  0
    7.0142    2.3935    2.0026 H   0  0  0  0  0  0  0  0  0  0  0  0
    4.9058   -2.0467    2.5567 H   0  0  0  0  0  0  0  0  0  0  0  0
    4.2301   -3.6510   -0.0244 H   0  0  0  0  0  0  0  0  0  0  0  0
    4.5113   -4.3501    1.6493 H   0  0  0  0  0  0  0  0  0  0  0  0
    6.5708   -2.6757   -0.0208 H   0  0  0  0  0  0  0  0  0  0  0  0
    6.8658   -3.3425    1.6586 H   0  0  0  0  0  0  0  0  0  0  0  0
  1  2  1  0
  1 15  1  0
  1 16  1  0
  1 17  1  0
  2  3  1  0
  2 18  1  0
  2 19  1  0
  3  4  1  0
  4  5  1  0
  4 12  1  0
  4 20  1  6
  5  6  2  0
  5  7  1  0
  7  8  1  0
  7 11  2  0
  8  9  2  0
  8 21  1  0
  9 10  1  0
  9 22  1  0
 10 11  1  0
 11 23  1  0
 12 13  1  0
 12 14  1  0
 12 24  1  1
 13 14  1  0
 13 25  1  0
 13 26  1  0
 14 27  1  0
 14 28  1  0
M  END

