
     RDKit          3D

 37 39  0  0  0  0  0  0  0  0999 V2000
    0.8074    0.6979   -1.0045 C   0  0  0  0  0  0  0  0  0  0  0  0
    2.2822    0.5493   -1.2162 C   0  0  0  0  0  0  0  0  0  0  0  0
    3.2596    1.4861   -1.0203 C   0  0  0  0  0  0  0  0  0  0  0  0
    4.5773    1.0048   -1.3319 C   0  0  0  0  0  0  0  0  0  0  0  0
    5.8664    1.6176   -1.2640 C   0  0  0  0  0  0  0  0  0  0  0  0
    5.9999    2.9155   -0.8661 N   0  0  0  0  0  0  0  0  0  0  0  0
    7.1268    3.5692   -0.1713 C   0  0  1  0  0  0  0  0  0  0  0  0
    8.4755    3.4052   -0.9159 C   0  0  0  0  0  0  0  0  0  0  0  0
    8.4153    3.8037   -2.3895 C   0  0  0  0  0  0  0  0  0  0  0  0
    8.5804    4.9387   -2.7658 O   0  0  0  0  0  0  0  0  0  0  0  0
    8.1585    2.8065   -3.2392 O   0  0  0  0  0  0  0  0  0  0  0  0
    6.7920    5.0705    0.0101 C   0  0  0  0  0  0  0  0  0  0  0  0
    7.6369    5.5364    1.2151 C   0  0  0  0  0  0  0  0  0  0  0  0
    7.9898    4.2510    2.0227 C   0  0  0  0  0  0  0  0  0  0  0  0
    7.2674    3.0983    1.3009 C   0  0  0  0  0  0  0  0  0  0  0  0
    6.9462    0.9080   -1.6356 N   0  0  0  0  0  0  0  0  0  0  0  0
    6.7865   -0.3720   -2.0213 C   0  0  0  0  0  0  0  0  0  0  0  0
    5.6529   -1.0460   -2.1014 N   0  0  0  0  0  0  0  0  0  0  0  0
    4.5715   -0.3360   -1.7638 C   0  0  0  0  0  0  0  0  0  0  0  0
    2.9429   -0.9806   -1.7855 S   0  0  0  0  0  0  0  0  0  0  0  0
    0.5768    1.7112   -0.6444 H   0  0  0  0  0  0  0  0  0  0  0  0
    0.4274   -0.0231   -0.2615 H   0  0  0  0  0  0  0  0  0  0  0  0
    0.2439    0.5317   -1.9378 H   0  0  0  0  0  0  0  0  0  0  0  0
    3.0270    2.4923   -0.6655 H   0  0  0  0  0  0  0  0  0  0  0  0
    5.1170    3.3732   -0.6738 H   0  0  0  0  0  0  0  0  0  0  0  0
    8.8268    2.3711   -0.8101 H   0  0  0  0  0  0  0  0  0  0  0  0
    9.2097    4.0691   -0.4406 H   0  0  0  0  0  0  0  0  0  0  0  0
    7.9244    1.9945   -2.7234 H   0  0  0  0  0  0  0  0  0  0  0  0
    5.7169    5.1615    0.2482 H   0  0  0  0  0  0  0  0  0  0  0  0
    6.9830    5.6474   -0.9057 H   0  0  0  0  0  0  0  0  0  0  0  0
    7.0847    6.2684    1.8234 H   0  0  0  0  0  0  0  0  0  0  0  0
    8.5501    6.0474    0.8748 H   0  0  0  0  0  0  0  0  0  0  0  0
    7.6831    4.3205    3.0773 H   0  0  0  0  0  0  0  0  0  0  0  0
    9.0783    4.0845    2.0289 H   0  0  0  0  0  0  0  0  0  0  0  0
    6.2514    2.9672    1.7108 H   0  0  0  0  0  0  0  0  0  0  0  0
    7.7805    2.1281    1.3875 H   0  0  0  0  0  0  0  0  0  0  0  0
    7.7032   -0.9000   -2.3088 H   0  0  0  0  0  0  0  0  0  0  0  0
  1  2  1  0
  1 21  1  0
  1 22  1  0
  1 23  1  0
  2  3  2  0
  2 20  1  0
  3  4  1  0
  3 24  1  0
  4  5  2  0
  4 19  1  0
  5  6  1  0
  5 16  1  0
  7  6  1  6
  6 25  1  0
  7  8  1  0
  7 12  1  0
  7 15  1  0
  8  9  1  0
  8 26  1  0
  8 27  1  0
  9 10  2  0
  9 11  1  0
 11 28  1  0
 12 13  1  0
 12 29  1  0
 12 30  1  0
 13 14  1  0
 13 31  1  0
 13 32  1  0
 14 15  1  0
 14 33  1  0
 14 34  1  0
 15 35  1  0
 15 36  1  0
 16 17  2  0
 17 18  1  0
 17 37  1  0
 18 19  2  0
 19 20  1  0
M  END

