
     RDKit          3D

 42 43  0  0  0  0  0  0  0  0999 V2000
    2.8189    0.7810   -1.3718 C   0  0  0  0  0  0  0  0  0  0  0  0
    2.2991   -0.5008   -0.1962 S   0  0  0  0  0  0  0  0  0  0  0  0
    3.1614   -0.0769    1.2976 C   0  0  0  0  0  0  0  0  0  0  0  0
    4.0300    1.0142    1.4426 C   0  0  0  0  0  0  0  0  0  0  0  0
    4.6604    1.2606    2.6675 C   0  0  0  0  0  0  0  0  0  0  0  0
    4.4482    0.4311    3.7760 C   0  0  0  0  0  0  0  0  0  0  0  0
    5.1481    0.6713    5.1204 C   0  0  2  0  0  0  0  0  0  0  0  0
    4.4481    0.3775    5.9155 H   0  0  0  0  0  0  0  0  0  0  0  0
    5.4883    2.0802    5.3260 N   0  0  0  0  0  0  0  0  0  0  0  0
    6.6549    2.6438    4.9480 C   0  0  0  0  0  0  0  0  0  0  0  0
    6.9129    4.2843    4.7909 S   0  0  0  0  0  0  0  0  0  0  0  0
    7.6742    1.7383    4.7166 N   0  0  0  0  0  0  0  0  0  0  0  0
    7.6246    0.3872    5.0157 C   0  0  0  0  0  0  0  0  0  0  0  0
    8.9693   -0.2911    5.0140 C   0  0  0  0  0  0  0  0  0  0  0  0
    6.4099   -0.1718    5.2995 C   0  0  0  0  0  0  0  0  0  0  0  0
    6.1777   -1.5376    5.7955 C   0  0  0  0  0  0  0  0  0  0  0  0
    5.0737   -1.9515    6.1023 O   0  0  0  0  0  0  0  0  0  0  0  0
    7.2914   -2.2945    5.9070 O   0  0  0  0  0  0  0  0  0  0  0  0
    7.1422   -3.6514    6.4010 C   0  0  1  0  0  0  0  0  0  0  0  0
    6.7728   -4.5803    5.2503 C   0  0  0  0  0  0  0  0  0  0  0  0
    8.4562   -4.0110    7.0776 C   0  0  0  0  0  0  0  0  0  0  0  0
    3.5663   -0.6551    3.6273 C   0  0  0  0  0  0  0  0  0  0  0  0
    2.9363   -0.9076    2.4126 C   0  0  0  0  0  0  0  0  0  0  0  0
    2.2980    0.5471   -2.3110 H   0  0  0  0  0  0  0  0  0  0  0  0
    3.9038    0.7548   -1.5522 H   0  0  0  0  0  0  0  0  0  0  0  0
    2.5172    1.7858   -1.0407 H   0  0  0  0  0  0  0  0  0  0  0  0
    4.2237    1.6916    0.6103 H   0  0  0  0  0  0  0  0  0  0  0  0
    5.3118    2.1341    2.7436 H   0  0  0  0  0  0  0  0  0  0  0  0
    4.7296    2.7391    5.4663 H   0  0  0  0  0  0  0  0  0  0  0  0
    8.5604    2.1665    4.4740 H   0  0  0  0  0  0  0  0  0  0  0  0
    9.7341    0.3734    4.5847 H   0  0  0  0  0  0  0  0  0  0  0  0
    8.9431   -1.2258    4.4418 H   0  0  0  0  0  0  0  0  0  0  0  0
    9.2747   -0.5555    6.0374 H   0  0  0  0  0  0  0  0  0  0  0  0
    6.3224   -3.6432    7.1349 H   0  0  0  0  0  0  0  0  0  0  0  0
    7.5529   -4.5689    4.4720 H   0  0  0  0  0  0  0  0  0  0  0  0
    5.8164   -4.2783    4.8002 H   0  0  0  0  0  0  0  0  0  0  0  0
    6.6660   -5.6137    5.6165 H   0  0  0  0  0  0  0  0  0  0  0  0
    9.2898   -3.9948    6.3571 H   0  0  0  0  0  0  0  0  0  0  0  0
    8.3956   -5.0227    7.5078 H   0  0  0  0  0  0  0  0  0  0  0  0
    8.6855   -3.3050    7.8902 H   0  0  0  0  0  0  0  0  0  0  0  0
    3.3847   -1.3143    4.4784 H   0  0  0  0  0  0  0  0  0  0  0  0
    2.2537   -1.7574    2.3248 H   0  0  0  0  0  0  0  0  0  0  0  0
  1  2  1  0
  1 24  1  0
  1 25  1  0
  1 26  1  0
  2  3  1  0
  3  4  2  0
  3 23  1  0
  4  5  1  0
  4 27  1  0
  5  6  2  0
  5 28  1  0
  6  7  1  0
  6 22  1  0
  7  8  1  1
  7  9  1  0
  7 15  1  0
  9 10  1  0
  9 29  1  0
 10 11  2  0
 10 12  1  0
 12 13  1  0
 12 30  1  0
 13 14  1  0
 13 15  2  0
 14 31  1  0
 14 32  1  0
 14 33  1  0
 15 16  1  0
 16 17  2  0
 16 18  1  0
 18 19  1  0
 19 20  1  0
 19 21  1  0
 19 34  1  1
 20 35  1  0
 20 36  1  0
 20 37  1  0
 21 38  1  0
 21 39  1  0
 21 40  1  0
 22 23  2  0
 22 41  1  0
 23 42  1  0
M  END

