
     RDKit          3D

 41 43  0  0  0  0  0  0  0  0999 V2000
    1.1689    1.3715   -0.0375 N   0  0  0  0  0  0  0  0  0  0  0  0
    2.2974    1.1111   -0.0202 C   0  0  0  0  0  0  0  0  0  0  0  0
    3.7301    0.7908   -0.0189 C   0  0  1  0  0  0  0  0  0  0  0  0
    3.9746   -0.4838    0.8197 C   0  0  0  0  0  0  0  0  0  0  0  0
    4.1987   -0.4554    2.0038 O   0  0  0  0  0  0  0  0  0  0  0  0
    3.8779   -1.6496    0.0904 N   0  0  0  0  0  0  0  0  0  0  0  0
    3.6888   -1.7919   -1.2992 C   0  0  0  0  0  0  0  0  0  0  0  0
    3.4876   -2.8763   -1.7976 O   0  0  0  0  0  0  0  0  0  0  0  0
    3.7605   -0.6160   -2.0010 N   0  0  0  0  0  0  0  0  0  0  0  0
    4.2762    0.6304   -1.4669 C   0  0  2  0  0  0  0  0  0  0  0  0
    5.7998    0.7726   -1.5192 C   0  0  0  0  0  0  0  0  0  0  0  0
    6.3777    2.0315   -1.2886 C   0  0  0  0  0  0  0  0  0  0  0  0
    7.7592    2.2048   -1.3210 C   0  0  0  0  0  0  0  0  0  0  0  0
    8.6185    1.1226   -1.5922 C   0  0  0  0  0  0  0  0  0  0  0  0
   10.0940    1.3038   -1.6278 C   0  0  0  0  0  0  0  0  0  0  0  0
   10.7347    2.1886   -0.7433 C   0  0  0  0  0  0  0  0  0  0  0  0
   12.1198    2.3646   -0.7834 C   0  0  0  0  0  0  0  0  0  0  0  0
   12.7875    3.2815    0.2160 C   0  0  1  0  0  0  0  0  0  0  0  0
   11.9784    4.2912    0.5802 F   0  0  0  0  0  0  0  0  0  0  0  0
   13.1238    2.6206    1.3380 F   0  0  0  0  0  0  0  0  0  0  0  0
   13.9135    3.8190   -0.2799 F   0  0  0  0  0  0  0  0  0  0  0  0
   12.8983    1.6631   -1.7077 C   0  0  0  0  0  0  0  0  0  0  0  0
   12.2721    0.7775   -2.5879 C   0  0  0  0  0  0  0  0  0  0  0  0
   13.1004   -0.0249   -3.5653 C   0  0  1  0  0  0  0  0  0  0  0  0
   14.2387    0.6077   -3.8906 F   0  0  0  0  0  0  0  0  0  0  0  0
   13.4431   -1.2190   -3.0482 F   0  0  0  0  0  0  0  0  0  0  0  0
   12.4273   -0.2677   -4.7030 F   0  0  0  0  0  0  0  0  0  0  0  0
   10.8865    0.6014   -2.5515 C   0  0  0  0  0  0  0  0  0  0  0  0
    8.0341   -0.1317   -1.8338 C   0  0  0  0  0  0  0  0  0  0  0  0
    6.6483   -0.3045   -1.8003 C   0  0  0  0  0  0  0  0  0  0  0  0
    4.2604    1.5996    0.5033 H   0  0  0  0  0  0  0  0  0  0  0  0
    3.9257   -2.5240    0.6090 H   0  0  0  0  0  0  0  0  0  0  0  0
    3.6664   -0.7254   -3.0047 H   0  0  0  0  0  0  0  0  0  0  0  0
    3.8439    1.4472   -2.0654 H   0  0  0  0  0  0  0  0  0  0  0  0
    5.7396    2.8993   -1.0950 H   0  0  0  0  0  0  0  0  0  0  0  0
    8.1744    3.2024   -1.1625 H   0  0  0  0  0  0  0  0  0  0  0  0
   10.1501    2.7396   -0.0054 H   0  0  0  0  0  0  0  0  0  0  0  0
   13.9771    1.8146   -1.7502 H   0  0  0  0  0  0  0  0  0  0  0  0
   10.4170   -0.0681   -3.2737 H   0  0  0  0  0  0  0  0  0  0  0  0
    8.6694   -0.9981   -2.0306 H   0  0  0  0  0  0  0  0  0  0  0  0
    6.2354   -1.2947   -2.0007 H   0  0  0  0  0  0  0  0  0  0  0  0
  1  2  3  0
  2  3  1  0
  3  4  1  0
  3 10  1  0
  3 31  1  1
  4  5  2  0
  4  6  1  0
  6  7  1  0
  6 32  1  0
  7  8  2  0
  7  9  1  0
  9 10  1  0
  9 33  1  0
 10 11  1  0
 10 34  1  6
 11 12  2  0
 11 30  1  0
 12 13  1  0
 12 35  1  0
 13 14  2  0
 13 36  1  0
 14 15  1  0
 14 29  1  0
 15 16  2  0
 15 28  1  0
 16 17  1  0
 16 37  1  0
 17 18  1  0
 17 22  2  0
 18 19  1  1
 18 20  1  0
 18 21  1  0
 22 23  1  0
 22 38  1  0
 23 24  1  0
 23 28  2  0
 24 25  1  6
 24 26  1  0
 24 27  1  0
 28 39  1  0
 29 30  2  0
 29 40  1  0
 30 41  1  0
M  END

