
     RDKit          3D

 32 33  0  0  0  0  0  0  0  0999 V2000
    0.9930   -0.0482    0.2755 C   0  0  0  0  0  0  0  0  0  0  0  0
    2.4878    0.0308    0.1009 C   0  0  0  0  0  0  0  0  0  0  0  0
    3.2445   -1.0001   -0.0560 N   0  0  0  0  0  0  0  0  0  0  0  0
    2.5650   -2.2057   -0.0515 O   0  0  0  0  0  0  0  0  0  0  0  0
    3.1652    1.3536    0.1039 C   0  0  0  0  0  0  0  0  0  0  0  0
    2.4441    2.5473    0.2774 C   0  0  0  0  0  0  0  0  0  0  0  0
    3.0671    3.7968    0.2829 C   0  0  0  0  0  0  0  0  0  0  0  0
    4.4584    3.8814    0.1108 C   0  0  0  0  0  0  0  0  0  0  0  0
    5.1636    5.0918    0.1028 N   0  0  0  0  0  0  0  0  0  0  0  0
    4.6968    6.3661    0.2523 C   0  0  0  0  0  0  0  0  0  0  0  0
    3.5325    6.6939    0.4242 O   0  0  0  0  0  0  0  0  0  0  0  0
    5.7988    7.4023    0.1843 C   0  0  0  0  0  0  0  0  0  0  0  0
    5.4676    8.7558    0.3202 C   0  0  0  0  0  0  0  0  0  0  0  0
    6.4878    9.7028    0.2563 C   0  0  0  0  0  0  0  0  0  0  0  0
    7.7959    9.2525    0.0589 C   0  0  0  0  0  0  0  0  0  0  0  0
    9.1218   10.3744   -0.0316 Cl  0  0  0  0  0  0  0  0  0  0  0  0
    8.0374    7.8765   -0.0674 C   0  0  0  0  0  0  0  0  0  0  0  0
    7.0561    6.9816   -0.0048 N   0  0  0  0  0  0  0  0  0  0  0  0
    5.1943    2.6910   -0.0646 C   0  0  0  0  0  0  0  0  0  0  0  0
    4.5617    1.4568   -0.0677 C   0  0  0  0  0  0  0  0  0  0  0  0
    0.6533   -1.0882    0.2358 H   0  0  0  0  0  0  0  0  0  0  0  0
    0.4784    0.5241   -0.5129 H   0  0  0  0  0  0  0  0  0  0  0  0
    0.6910    0.3863    1.2422 H   0  0  0  0  0  0  0  0  0  0  0  0
    3.2746   -2.8481   -0.1790 H   0  0  0  0  0  0  0  0  0  0  0  0
    1.3619    2.5186    0.4143 H   0  0  0  0  0  0  0  0  0  0  0  0
    2.4897    4.7084    0.4187 H   0  0  0  0  0  0  0  0  0  0  0  0
    6.1736    5.0482   -0.0272 H   0  0  0  0  0  0  0  0  0  0  0  0
    4.4236    9.0325    0.4720 H   0  0  0  0  0  0  0  0  0  0  0  0
    6.2828   10.7703    0.3565 H   0  0  0  0  0  0  0  0  0  0  0  0
    9.0571    7.5102   -0.2226 H   0  0  0  0  0  0  0  0  0  0  0  0
    6.2786    2.7446   -0.2002 H   0  0  0  0  0  0  0  0  0  0  0  0
    5.1418    0.5435   -0.2042 H   0  0  0  0  0  0  0  0  0  0  0  0
  1  2  1  0
  1 21  1  0
  1 22  1  0
  1 23  1  0
  2  3  2  0
  2  5  1  0
  3  4  1  0
  4 24  1  0
  5  6  2  0
  5 20  1  0
  6  7  1  0
  6 25  1  0
  7  8  2  0
  7 26  1  0
  8  9  1  0
  8 19  1  0
  9 10  1  0
  9 27  1  0
 10 11  2  0
 10 12  1  0
 12 13  2  0
 12 18  1  0
 13 14  1  0
 13 28  1  0
 14 15  2  0
 14 29  1  0
 15 16  1  0
 15 17  1  0
 17 18  2  0
 17 30  1  0
 19 20  2  0
 19 31  1  0
 20 32  1  0
M  END

