
     RDKit          3D

 48 49  0  0  0  0  0  0  0  0999 V2000
    1.0704    0.4385    1.3957 C   0  0  0  0  0  0  0  0  0  0  0  0
    2.5777    0.5376    1.2604 C   0  0  0  0  0  0  0  0  0  0  0  0
    3.1074   -0.7786    1.2250 O   0  0  0  0  0  0  0  0  0  0  0  0
    4.4528   -0.9582    1.1522 C   0  0  0  0  0  0  0  0  0  0  0  0
    5.3938    0.0732    1.0497 C   0  0  0  0  0  0  0  0  0  0  0  0
    6.7679   -0.1901    1.0079 C   0  0  0  0  0  0  0  0  0  0  0  0
    7.2230   -1.5131    1.0676 C   0  0  0  0  0  0  0  0  0  0  0  0
    8.5861   -1.8600    1.0388 N   0  0  0  0  0  0  0  0  0  0  0  0
    9.6736   -1.0609    0.9496 C   0  0  0  0  0  0  0  0  0  0  0  0
    9.7041    0.1606    0.8731 O   0  0  0  0  0  0  0  0  0  0  0  0
   10.9707   -1.9030    0.9532 C   0  0  0  0  0  0  0  0  0  0  0  0
   10.9371   -3.1258    1.0277 O   0  0  0  0  0  0  0  0  0  0  0  0
   12.0620   -1.1114    0.8660 N   0  0  0  0  0  0  0  0  0  0  0  0
   13.4161   -1.4758    0.8393 C   0  0  0  0  0  0  0  0  0  0  0  0
   13.8865   -2.7925    0.9046 C   0  0  0  0  0  0  0  0  0  0  0  0
   15.2608   -3.0521    0.8722 C   0  0  0  0  0  0  0  0  0  0  0  0
   16.1990   -2.0180    0.7743 C   0  0  0  0  0  0  0  0  0  0  0  0
   17.6823   -2.2922    0.7333 C   0  0  0  0  0  0  0  0  0  0  0  0
   15.7202   -0.6975    0.7092 C   0  0  0  0  0  0  0  0  0  0  0  0
   14.3553   -0.4224    0.7404 C   0  0  0  0  0  0  0  0  0  0  0  0
   13.8410    0.8388    0.6805 O   0  0  0  0  0  0  0  0  0  0  0  0
    6.2830   -2.5558    1.1575 C   0  0  0  0  0  0  0  0  0  0  0  0
    4.9155   -2.2983    1.1999 C   0  0  0  0  0  0  0  0  0  0  0  0
    4.0567   -3.3466    1.3532 O   0  0  0  0  0  0  0  0  0  0  0  0
    3.1819   -3.6521    0.2635 C   0  0  0  0  0  0  0  0  0  0  0  0
    2.3260   -4.8355    0.6682 C   0  0  0  0  0  0  0  0  0  0  0  0
    0.6271    1.4451    1.4450 H   0  0  0  0  0  0  0  0  0  0  0  0
    0.7984   -0.1077    2.3117 H   0  0  0  0  0  0  0  0  0  0  0  0
    0.6327   -0.0909    0.5355 H   0  0  0  0  0  0  0  0  0  0  0  0
    3.0116    1.0928    2.1133 H   0  0  0  0  0  0  0  0  0  0  0  0
    2.8536    1.0828    0.3376 H   0  0  0  0  0  0  0  0  0  0  0  0
    5.0656    1.1119    1.0106 H   0  0  0  0  0  0  0  0  0  0  0  0
    7.4858    0.6238    0.9342 H   0  0  0  0  0  0  0  0  0  0  0  0
    8.8299   -2.8490    1.0912 H   0  0  0  0  0  0  0  0  0  0  0  0
   11.8498   -0.1143    0.8133 H   0  0  0  0  0  0  0  0  0  0  0  0
   13.1636   -3.6024    0.9813 H   0  0  0  0  0  0  0  0  0  0  0  0
   15.6045   -4.0883    0.9253 H   0  0  0  0  0  0  0  0  0  0  0  0
   17.8952   -3.3654    0.8446 H   0  0  0  0  0  0  0  0  0  0  0  0
   18.2141   -1.7582    1.5386 H   0  0  0  0  0  0  0  0  0  0  0  0
   18.1269   -1.9600   -0.2205 H   0  0  0  0  0  0  0  0  0  0  0  0
   16.4259    0.1371    0.6326 H   0  0  0  0  0  0  0  0  0  0  0  0
   14.5544    1.4868    0.6208 H   0  0  0  0  0  0  0  0  0  0  0  0
    6.6022   -3.5995    1.2086 H   0  0  0  0  0  0  0  0  0  0  0  0
    3.7869   -3.8913   -0.6321 H   0  0  0  0  0  0  0  0  0  0  0  0
    2.5552   -2.7774    0.0253 H   0  0  0  0  0  0  0  0  0  0  0  0
    2.9530   -5.7074    0.9110 H   0  0  0  0  0  0  0  0  0  0  0  0
    1.6442   -5.1126   -0.1513 H   0  0  0  0  0  0  0  0  0  0  0  0
    1.7229   -4.5891    1.5556 H   0  0  0  0  0  0  0  0  0  0  0  0
  1  2  1  0
  1 27  1  0
  1 28  1  0
  1 29  1  0
  2  3  1  0
  2 30  1  0
  2 31  1  0
  3  4  1  0
  4  5  2  0
  4 23  1  0
  5  6  1  0
  5 32  1  0
  6  7  2  0
  6 33  1  0
  7  8  1  0
  7 22  1  0
  8  9  1  0
  8 34  1  0
  9 10  2  0
  9 11  1  0
 11 12  2  0
 11 13  1  0
 13 14  1  0
 13 35  1  0
 14 15  2  0
 14 20  1  0
 15 16  1  0
 15 36  1  0
 16 17  2  0
 16 37  1  0
 17 18  1  0
 17 19  1  0
 18 38  1  0
 18 39  1  0
 18 40  1  0
 19 20  2  0
 19 41  1  0
 20 21  1  0
 21 42  1  0
 22 23  2  0
 22 43  1  0
 23 24  1  0
 24 25  1  0
 25 26  1  0
 25 44  1  0
 25 45  1  0
 26 46  1  0
 26 47  1  0
 26 48  1  0
M  END

