
     RDKit          3D

 51 52  0  0  0  0  0  0  0  0999 V2000
    9.7951   -2.7604   -0.1319 C   0  0  0  0  0  0  0  0  0  0  0  0
    9.3924   -1.5208    0.4562 O   0  0  0  0  0  0  0  0  0  0  0  0
    9.2836   -0.4749   -0.3702 C   0  0  0  0  0  0  0  0  0  0  0  0
    9.4997   -0.5238   -1.5583 O   0  0  0  0  0  0  0  0  0  0  0  0
    8.8605    0.7735    0.3749 C   0  0  0  0  0  0  0  0  0  0  0  0
    8.7146    1.8627   -0.5525 N   0  0  0  0  0  0  0  0  0  0  0  0
    8.4803    3.1338   -0.1103 C   0  0  0  0  0  0  0  0  0  0  0  0
    8.3658    3.3788    1.0848 O   0  0  0  0  0  0  0  0  0  0  0  0
    8.3756    4.2042   -1.1577 C   0  0  0  0  0  0  0  0  0  0  0  0
    8.2258    3.9594   -2.5318 C   0  0  0  0  0  0  0  0  0  0  0  0
    8.1267    4.9980   -3.4568 C   0  0  0  0  0  0  0  0  0  0  0  0
    8.1758    6.3338   -3.0120 C   0  0  0  0  0  0  0  0  0  0  0  0
    8.0874    7.4359   -3.8689 N   0  0  0  0  0  0  0  0  0  0  0  0
    7.9493    7.4685   -5.2509 C   0  0  0  0  0  0  0  0  0  0  0  0
    7.8835    6.4618   -5.9401 O   0  0  0  0  0  0  0  0  0  0  0  0
    7.8897    8.8460   -5.8011 C   0  0  0  0  0  0  0  0  0  0  0  0
    7.7536    9.0352   -7.1322 C   0  0  0  0  0  0  0  0  0  0  0  0
    7.6758   10.2963   -7.8571 C   0  0  0  0  0  0  0  0  0  0  0  0
    7.7392   11.5585   -7.2300 C   0  0  0  0  0  0  0  0  0  0  0  0
    7.6628   12.7481   -7.9356 C   0  0  0  0  0  0  0  0  0  0  0  0
    7.5160   12.7138   -9.3344 C   0  0  0  0  0  0  0  0  0  0  0  0
    7.4481   13.9132   -9.9558 O   0  0  0  0  0  0  0  0  0  0  0  0
    7.2999   13.9714  -11.3573 C   0  0  0  0  0  0  0  0  0  0  0  0
    7.4486   11.4819  -10.0022 C   0  0  0  0  0  0  0  0  0  0  0  0
    7.5277   10.2851   -9.2712 C   0  0  0  0  0  0  0  0  0  0  0  0
    7.4683    9.0679   -9.8589 O   0  0  0  0  0  0  0  0  0  0  0  0
    7.3211    8.9534  -11.2563 C   0  0  0  0  0  0  0  0  0  0  0  0
    8.3150    6.5853   -1.6308 C   0  0  0  0  0  0  0  0  0  0  0  0
    8.4072    5.5390   -0.7229 C   0  0  0  0  0  0  0  0  0  0  0  0
    9.8292   -3.4889    0.6870 H   0  0  0  0  0  0  0  0  0  0  0  0
   10.7860   -2.6655   -0.6010 H   0  0  0  0  0  0  0  0  0  0  0  0
    9.0740   -3.0804   -0.8989 H   0  0  0  0  0  0  0  0  0  0  0  0
    9.6074    0.9960    1.1590 H   0  0  0  0  0  0  0  0  0  0  0  0
    7.9238    0.5627    0.9218 H   0  0  0  0  0  0  0  0  0  0  0  0
    8.9558    1.6625   -1.5173 H   0  0  0  0  0  0  0  0  0  0  0  0
    8.1578    2.9362   -2.9105 H   0  0  0  0  0  0  0  0  0  0  0  0
    8.0061    4.7976   -4.5184 H   0  0  0  0  0  0  0  0  0  0  0  0
    8.1301    8.3373   -3.4084 H   0  0  0  0  0  0  0  0  0  0  0  0
    7.9580    9.6867   -5.1031 H   0  0  0  0  0  0  0  0  0  0  0  0
    7.6944    8.1265   -7.7365 H   0  0  0  0  0  0  0  0  0  0  0  0
    7.8530   11.6019   -6.1448 H   0  0  0  0  0  0  0  0  0  0  0  0
    7.7132   13.7172   -7.4372 H   0  0  0  0  0  0  0  0  0  0  0  0
    7.2691   15.0362  -11.6239 H   0  0  0  0  0  0  0  0  0  0  0  0
    6.3619   13.4925  -11.6911 H   0  0  0  0  0  0  0  0  0  0  0  0
    8.1495   13.4968  -11.8801 H   0  0  0  0  0  0  0  0  0  0  0  0
    7.3354   11.4501  -11.0824 H   0  0  0  0  0  0  0  0  0  0  0  0
    7.2994    7.8784  -11.4783 H   0  0  0  0  0  0  0  0  0  0  0  0
    8.1675    9.4132  -11.7971 H   0  0  0  0  0  0  0  0  0  0  0  0
    6.3790    9.4104  -11.6083 H   0  0  0  0  0  0  0  0  0  0  0  0
    8.3479    7.6188   -1.2718 H   0  0  0  0  0  0  0  0  0  0  0  0
    8.5049    5.7298    0.3474 H   0  0  0  0  0  0  0  0  0  0  0  0
  1  2  1  0
  1 30  1  0
  1 31  1  0
  1 32  1  0
  2  3  1  0
  3  4  2  0
  3  5  1  0
  5  6  1  0
  5 33  1  0
  5 34  1  0
  6  7  1  0
  6 35  1  0
  7  8  2  0
  7  9  1  0
  9 10  2  0
  9 29  1  0
 10 11  1  0
 10 36  1  0
 11 12  2  0
 11 37  1  0
 12 13  1  0
 12 28  1  0
 13 14  1  0
 13 38  1  0
 14 15  2  0
 14 16  1  0
 16 17  2  0
 16 39  1  0
 17 18  1  0
 17 40  1  0
 18 19  2  0
 18 25  1  0
 19 20  1  0
 19 41  1  0
 20 21  2  0
 20 42  1  0
 21 22  1  0
 21 24  1  0
 22 23  1  0
 23 43  1  0
 23 44  1  0
 23 45  1  0
 24 25  2  0
 24 46  1  0
 25 26  1  0
 26 27  1  0
 27 47  1  0
 27 48  1  0
 27 49  1  0
 28 29  2  0
 28 50  1  0
 29 51  1  0
M  END

