
     RDKit          3D

 30 30  0  0  0  0  0  0  0  0999 V2000
    2.0240   -1.7264    1.3453 C   0  0  0  0  0  0  0  0  0  0  0  0
    2.9001   -0.7745    0.5931 C   0  0  0  0  0  0  0  0  0  0  0  0
    4.1138   -0.2342    0.9911 C   0  0  0  0  0  0  0  0  0  0  0  0
    4.5607    0.5761   -0.0153 N   0  0  0  0  0  0  0  0  0  0  0  0
    5.7727    1.3891   -0.0342 C   0  0  0  0  0  0  0  0  0  0  0  0
    5.4867    2.8871    0.0888 C   0  0  0  0  0  0  0  0  0  0  0  0
    6.7634    3.7292    0.0489 C   0  0  0  0  0  0  0  0  0  0  0  0
    6.5067    5.2349    0.1494 C   0  0  0  0  0  0  0  0  0  0  0  0
    7.7899    6.0646    0.2171 C   0  0  0  0  0  0  0  0  0  0  0  0
    8.6167    5.7254    1.3143 O   0  0  0  0  0  0  0  0  0  0  0  0
    3.7266    0.6123   -1.0450 N   0  0  0  0  0  0  0  0  0  0  0  0
    2.7297   -0.1928   -0.6936 C   0  0  0  0  0  0  0  0  0  0  0  0
    1.6186   -0.4001   -1.6058 N   0  0  0  0  0  0  0  0  0  0  0  0
    0.7363   -1.1600   -1.2179 O   0  0  0  0  0  0  0  0  0  0  0  0
    1.6287    0.1802   -2.6746 O   0  0  0  0  0  0  0  0  0  0  0  0
    2.4663   -1.9720    2.3221 H   0  0  0  0  0  0  0  0  0  0  0  0
    1.8736   -2.6587    0.7804 H   0  0  0  0  0  0  0  0  0  0  0  0
    1.0222   -1.3010    1.5070 H   0  0  0  0  0  0  0  0  0  0  0  0
    4.6845   -0.3745    1.9071 H   0  0  0  0  0  0  0  0  0  0  0  0
    6.3021    1.1740   -0.9755 H   0  0  0  0  0  0  0  0  0  0  0  0
    6.4091    1.0400    0.7932 H   0  0  0  0  0  0  0  0  0  0  0  0
    4.9405    3.0723    1.0309 H   0  0  0  0  0  0  0  0  0  0  0  0
    4.8075    3.1775   -0.7299 H   0  0  0  0  0  0  0  0  0  0  0  0
    7.3149    3.5195   -0.8862 H   0  0  0  0  0  0  0  0  0  0  0  0
    7.4401    3.4364    0.8701 H   0  0  0  0  0  0  0  0  0  0  0  0
    5.8946    5.4477    1.0475 H   0  0  0  0  0  0  0  0  0  0  0  0
    5.9054    5.5785   -0.7117 H   0  0  0  0  0  0  0  0  0  0  0  0
    7.5361    7.1436    0.2188 H   0  0  0  0  0  0  0  0  0  0  0  0
    8.3983    5.8839   -0.6852 H   0  0  0  0  0  0  0  0  0  0  0  0
    8.1558    5.9757    2.1260 H   0  0  0  0  0  0  0  0  0  0  0  0
  1  2  1  0
  1 16  1  0
  1 17  1  0
  1 18  1  0
  2  3  2  0
  2 12  1  0
  3  4  1  0
  3 19  1  0
  4  5  1  0
  4 11  1  0
  5  6  1  0
  5 20  1  0
  5 21  1  0
  6  7  1  0
  6 22  1  0
  6 23  1  0
  7  8  1  0
  7 24  1  0
  7 25  1  0
  8  9  1  0
  8 26  1  0
  8 27  1  0
  9 10  1  0
  9 28  1  0
  9 29  1  0
 10 30  1  0
 11 12  2  0
 12 13  1  0
 13 14  2  0
 13 15  1  0
M  CHG  2  13   1  15  -1
M  END

