
     RDKit          3D

 42 44  0  0  0  0  0  0  0  0999 V2000
    1.1020   -0.1359    0.0758 O   0  0  0  0  0  0  0  0  0  0  0  0
    2.3082    0.0395    0.0493 C   0  0  0  0  0  0  0  0  0  0  0  0
    3.0857   -0.3885   -1.1751 C   0  0  0  0  0  0  0  0  0  0  0  0
    3.8307    0.5229   -1.9345 C   0  0  0  0  0  0  0  0  0  0  0  0
    4.4397    0.0948   -3.1171 C   0  0  0  0  0  0  0  0  0  0  0  0
    5.3677    1.2355   -4.0599 Cl  0  0  0  0  0  0  0  0  0  0  0  0
    4.3252   -1.2254   -3.5573 C   0  0  0  0  0  0  0  0  0  0  0  0
    3.5649   -2.1166   -2.7930 C   0  0  0  0  0  0  0  0  0  0  0  0
    3.3999   -3.7680   -3.3317 Cl  0  0  0  0  0  0  0  0  0  0  0  0
    2.9333   -1.7102   -1.6163 C   0  0  0  0  0  0  0  0  0  0  0  0
    2.9914    0.6339    1.0981 N   0  0  0  0  0  0  0  0  0  0  0  0
    2.1944    1.0029    2.2701 C   0  0  0  0  0  0  0  0  0  0  0  0
    2.6117    2.3576    2.8263 C   0  0  0  0  0  0  0  0  0  0  0  0
    4.3610    2.3461    3.3180 S   0  0  2  0  0  0  0  0  0  0  0  0
    4.5125    1.2788    4.3259 O   0  0  0  0  0  0  0  0  0  0  0  0
    4.7524    3.7279    3.6463 O   0  0  0  0  0  0  0  0  0  0  0  0
    5.2021    1.7326    1.7609 C   0  0  1  0  0  0  0  0  0  0  0  0
    5.2128    2.8105    0.6577 C   0  0  0  0  0  0  0  0  0  0  0  0
    6.1809    3.9797    0.8960 C   0  0  0  0  0  0  0  0  0  0  0  0
    7.5939    3.4845    1.2243 C   0  0  0  0  0  0  0  0  0  0  0  0
    7.5791    2.5117    2.4083 C   0  0  0  0  0  0  0  0  0  0  0  0
    6.6393    1.3254    2.1530 C   0  0  0  0  0  0  0  0  0  0  0  0
    4.4224    0.4533    1.3504 C   0  0  0  0  0  0  0  0  0  0  0  0
    3.9229    1.5636   -1.6275 H   0  0  0  0  0  0  0  0  0  0  0  0
    4.8090   -1.5517   -4.4776 H   0  0  0  0  0  0  0  0  0  0  0  0
    2.3204   -2.4120   -1.0501 H   0  0  0  0  0  0  0  0  0  0  0  0
    2.3081    0.2391    3.0602 H   0  0  0  0  0  0  0  0  0  0  0  0
    1.1403    1.0165    1.9664 H   0  0  0  0  0  0  0  0  0  0  0  0
    2.0830    2.5984    3.7608 H   0  0  0  0  0  0  0  0  0  0  0  0
    2.4724    3.1807    2.1115 H   0  0  0  0  0  0  0  0  0  0  0  0
    4.1934    3.1811    0.4629 H   0  0  0  0  0  0  0  0  0  0  0  0
    5.5237    2.2874   -0.2646 H   0  0  0  0  0  0  0  0  0  0  0  0
    5.8079    4.6022    1.7219 H   0  0  0  0  0  0  0  0  0  0  0  0
    6.1956    4.6116   -0.0076 H   0  0  0  0  0  0  0  0  0  0  0  0
    8.2529    4.3407    1.4428 H   0  0  0  0  0  0  0  0  0  0  0  0
    8.0241    2.9778    0.3395 H   0  0  0  0  0  0  0  0  0  0  0  0
    7.2608    3.0436    3.3192 H   0  0  0  0  0  0  0  0  0  0  0  0
    8.5929    2.1257    2.6042 H   0  0  0  0  0  0  0  0  0  0  0  0
    6.6013    0.6604    3.0292 H   0  0  0  0  0  0  0  0  0  0  0  0
    7.0339    0.7237    1.3129 H   0  0  0  0  0  0  0  0  0  0  0  0
    4.5545   -0.2933    2.1538 H   0  0  0  0  0  0  0  0  0  0  0  0
    4.8990    0.0492    0.4485 H   0  0  0  0  0  0  0  0  0  0  0  0
  1  2  2  0
  2  3  1  0
  2 11  1  0
  3  4  2  0
  3 10  1  0
  4  5  1  0
  4 24  1  0
  5  6  1  0
  5  7  2  0
  7  8  1  0
  7 25  1  0
  8  9  1  0
  8 10  2  0
 10 26  1  0
 11 12  1  0
 11 23  1  0
 12 13  1  0
 12 27  1  0
 12 28  1  0
 14 13  1  6
 13 29  1  0
 13 30  1  0
 14 15  2  0
 14 16  2  0
 14 17  1  0
 17 18  1  6
 17 22  1  0
 17 23  1  0
 18 19  1  0
 18 31  1  0
 18 32  1  0
 19 20  1  0
 19 33  1  0
 19 34  1  0
 20 21  1  0
 20 35  1  0
 20 36  1  0
 21 22  1  0
 21 37  1  0
 21 38  1  0
 22 39  1  0
 22 40  1  0
 23 41  1  0
 23 42  1  0
M  END

