
     RDKit          3D

 45 47  0  0  0  0  0  0  0  0999 V2000
    1.4386    0.1987   -0.0616 C   0  0  0  0  0  0  0  0  0  0  0  0
    2.8962   -0.1314   -0.0375 C   0  0  0  0  0  0  0  0  0  0  0  0
    3.8268    0.8167    0.0019 N   0  0  0  0  0  0  0  0  0  0  0  0
    5.0166    0.1790    0.0165 N   0  0  0  0  0  0  0  0  0  0  0  0
    6.2416    0.9614    0.0036 C   0  0  0  0  0  0  0  0  0  0  0  0
    6.8164    1.2024   -1.3825 C   0  0  0  0  0  0  0  0  0  0  0  0
    5.9963    1.6682   -2.4237 C   0  0  0  0  0  0  0  0  0  0  0  0
    6.5236    1.9192   -3.6905 C   0  0  0  0  0  0  0  0  0  0  0  0
    7.8841    1.7061   -3.9116 C   0  0  0  0  0  0  0  0  0  0  0  0
    8.3947    1.9472   -5.1277 F   0  0  0  0  0  0  0  0  0  0  0  0
    8.7235    1.2466   -2.9010 C   0  0  0  0  0  0  0  0  0  0  0  0
    8.1786    0.9943   -1.6381 C   0  0  0  0  0  0  0  0  0  0  0  0
    4.8857   -1.1774   -0.0405 C   0  0  0  0  0  0  0  0  0  0  0  0
    6.0348   -2.1302   -0.0656 C   0  0  0  0  0  0  0  0  0  0  0  0
    3.5143   -1.4149   -0.0639 C   0  0  0  0  0  0  0  0  0  0  0  0
    2.8921   -2.6828   -0.0776 N   0  0  0  0  0  0  0  0  0  0  0  0
    1.9768   -3.0918   -1.0152 C   0  0  0  0  0  0  0  0  0  0  0  0
    1.6305   -2.4057   -1.9606 O   0  0  0  0  0  0  0  0  0  0  0  0
    1.3872   -4.4786   -0.7653 C   0  0  0  0  0  0  0  0  0  0  0  0
    0.9629   -5.1347   -2.0785 C   0  0  0  0  0  0  0  0  0  0  0  0
    0.2826   -6.4023   -1.8652 N   0  0  0  0  0  0  0  0  0  0  0  0
   -1.0003   -6.7210   -2.1867 C   0  0  0  0  0  0  0  0  0  0  0  0
   -1.1796   -8.0349   -1.7821 C   0  0  0  0  0  0  0  0  0  0  0  0
   -2.7412   -9.0712   -1.9499 Br  0  0  0  0  0  0  0  0  0  0  0  0
    0.0606   -8.4212   -1.2232 C   0  0  0  0  0  0  0  0  0  0  0  0
    0.9336   -7.4195   -1.2816 N   0  0  0  0  0  0  0  0  0  0  0  0
    1.2987    1.2813    0.0631 H   0  0  0  0  0  0  0  0  0  0  0  0
    0.8977   -0.3210    0.7469 H   0  0  0  0  0  0  0  0  0  0  0  0
    0.9878   -0.1234   -1.0133 H   0  0  0  0  0  0  0  0  0  0  0  0
    6.9897    0.4639    0.6390 H   0  0  0  0  0  0  0  0  0  0  0  0
    5.9843    1.9172    0.4847 H   0  0  0  0  0  0  0  0  0  0  0  0
    4.9326    1.8313   -2.2341 H   0  0  0  0  0  0  0  0  0  0  0  0
    5.8981    2.2788   -4.5099 H   0  0  0  0  0  0  0  0  0  0  0  0
    9.7827    1.0877   -3.1123 H   0  0  0  0  0  0  0  0  0  0  0  0
    8.8323    0.6306   -0.8398 H   0  0  0  0  0  0  0  0  0  0  0  0
    6.7381   -1.8981   -0.8815 H   0  0  0  0  0  0  0  0  0  0  0  0
    5.6644   -3.1529   -0.2255 H   0  0  0  0  0  0  0  0  0  0  0  0
    6.6077   -2.1237    0.8781 H   0  0  0  0  0  0  0  0  0  0  0  0
    3.1198   -3.3343    0.6656 H   0  0  0  0  0  0  0  0  0  0  0  0
    0.5022   -4.3578   -0.1154 H   0  0  0  0  0  0  0  0  0  0  0  0
    2.0890   -5.1345   -0.2274 H   0  0  0  0  0  0  0  0  0  0  0  0
    1.8415   -5.3105   -2.7191 H   0  0  0  0  0  0  0  0  0  0  0  0
    0.2869   -4.4655   -2.6260 H   0  0  0  0  0  0  0  0  0  0  0  0
   -1.6750   -6.0188   -2.6701 H   0  0  0  0  0  0  0  0  0  0  0  0
    0.3368   -9.3821   -0.7912 H   0  0  0  0  0  0  0  0  0  0  0  0
  1  2  1  0
  1 27  1  0
  1 28  1  0
  1 29  1  0
  2  3  2  0
  2 15  1  0
  3  4  1  0
  4  5  1  0
  4 13  1  0
  5  6  1  0
  5 30  1  0
  5 31  1  0
  6  7  2  0
  6 12  1  0
  7  8  1  0
  7 32  1  0
  8  9  2  0
  8 33  1  0
  9 10  1  0
  9 11  1  0
 11 12  2  0
 11 34  1  0
 12 35  1  0
 13 14  1  0
 13 15  2  0
 14 36  1  0
 14 37  1  0
 14 38  1  0
 15 16  1  0
 16 17  1  0
 16 39  1  0
 17 18  2  0
 17 19  1  0
 19 20  1  0
 19 40  1  0
 19 41  1  0
 20 21  1  0
 20 42  1  0
 20 43  1  0
 21 22  1  0
 21 26  1  0
 22 23  2  0
 22 44  1  0
 23 24  1  0
 23 25  1  0
 25 26  2  0
 25 45  1  0
M  END

