
     RDKit          3D

 57 56  0  0  0  0  0  0  0  0999 V2000
    3.4384    6.9356    3.0087 C   0  0  0  0  0  0  0  0  0  0  0  0
    2.7253    5.5786    2.9326 C   0  0  1  0  0  0  0  0  0  0  0  0
    1.2380    5.7167    3.2822 C   0  0  0  0  0  0  0  0  0  0  0  0
    2.8917    4.8971    1.5623 C   0  0  0  0  0  0  0  0  0  0  0  0
    4.3286    4.5788    1.1297 C   0  0  0  0  0  0  0  0  0  0  0  0
    5.0219    3.6295    1.9913 N   0  0  0  0  0  0  0  0  0  0  0  0
    6.1133    3.9421    2.7397 C   0  0  0  0  0  0  0  0  0  0  0  0
    6.5887    5.0711    2.7958 O   0  0  0  0  0  0  0  0  0  0  0  0
    6.7217    2.7620    3.5181 C   0  0  2  0  0  0  0  0  0  0  0  0
    6.6929    1.8742    2.8622 H   0  0  0  0  0  0  0  0  0  0  0  0
    5.9281    2.3632    4.7979 C   0  0  0  0  0  0  0  0  0  0  0  0
    6.1221    3.2238    6.0509 C   0  0  0  0  0  0  0  0  0  0  0  0
    5.6378    4.6709    5.9554 C   0  0  0  0  0  0  0  0  0  0  0  0
    5.7385    5.3331    7.2393 N   0  0  0  0  0  0  0  0  0  0  0  0
    5.5795    6.5972    7.2900 C   0  0  0  0  0  0  0  0  0  0  0  0
    5.3033    7.4743    6.2799 N   0  0  0  0  0  0  0  0  0  0  0  0
    5.5809    7.1262    8.6158 N   0  0  0  0  0  0  0  0  0  0  0  0
    5.9869    8.3771    9.0196 N   0  0  0  0  0  0  0  0  0  0  0  0
    6.0268    9.2755    8.1880 O   0  0  0  0  0  0  0  0  0  0  0  0
    6.2374    8.4884   10.2038 O   0  0  0  0  0  0  0  0  0  0  0  0
    8.1124    3.0644    3.7671 N   0  0  0  0  0  0  0  0  0  0  0  0
    9.0550    2.0917    3.8575 C   0  0  0  0  0  0  0  0  0  0  0  0
    8.8014    0.8965    3.8309 O   0  0  0  0  0  0  0  0  0  0  0  0
   10.4998    2.6043    3.9269 C   0  0  0  0  0  0  0  0  0  0  0  0
   10.6313    3.9905    4.3419 N   0  0  0  0  0  0  0  0  0  0  0  0
   10.5364    4.1537    5.7841 C   0  0  0  0  0  0  0  0  0  0  0  0
   11.7945    4.6615    3.7874 C   0  0  0  0  0  0  0  0  0  0  0  0
    3.2994    7.3909    4.0025 H   0  0  0  0  0  0  0  0  0  0  0  0
    3.0331    7.6396    2.2609 H   0  0  0  0  0  0  0  0  0  0  0  0
    4.5215    6.8387    2.8341 H   0  0  0  0  0  0  0  0  0  0  0  0
    3.1855    4.9162    3.6891 H   0  0  0  0  0  0  0  0  0  0  0  0
    0.7201    6.3693    2.5581 H   0  0  0  0  0  0  0  0  0  0  0  0
    1.1021    6.1585    4.2823 H   0  0  0  0  0  0  0  0  0  0  0  0
    0.7264    4.7403    3.2743 H   0  0  0  0  0  0  0  0  0  0  0  0
    2.4452    5.5392    0.7806 H   0  0  0  0  0  0  0  0  0  0  0  0
    2.3013    3.9622    1.5529 H   0  0  0  0  0  0  0  0  0  0  0  0
    4.9476    5.4855    1.1082 H   0  0  0  0  0  0  0  0  0  0  0  0
    4.3137    4.1747    0.1026 H   0  0  0  0  0  0  0  0  0  0  0  0
    4.7245    2.6605    1.9679 H   0  0  0  0  0  0  0  0  0  0  0  0
    6.2436    1.3362    5.0384 H   0  0  0  0  0  0  0  0  0  0  0  0
    4.8557    2.3064    4.5371 H   0  0  0  0  0  0  0  0  0  0  0  0
    7.1870    3.2286    6.3356 H   0  0  0  0  0  0  0  0  0  0  0  0
    5.5908    2.7423    6.8887 H   0  0  0  0  0  0  0  0  0  0  0  0
    4.5834    4.6827    5.6053 H   0  0  0  0  0  0  0  0  0  0  0  0
    6.2196    5.1986    5.1756 H   0  0  0  0  0  0  0  0  0  0  0  0
    5.5011    7.1573    5.3379 H   0  0  0  0  0  0  0  0  0  0  0  0
    5.4454    8.4605    6.4797 H   0  0  0  0  0  0  0  0  0  0  0  0
    5.7349    6.4289    9.3398 H   0  0  0  0  0  0  0  0  0  0  0  0
    8.4203    4.0350    3.7224 H   0  0  0  0  0  0  0  0  0  0  0  0
   10.9016    2.4931    2.9057 H   0  0  0  0  0  0  0  0  0  0  0  0
   11.0659    1.8890    4.5596 H   0  0  0  0  0  0  0  0  0  0  0  0
    9.6108    3.6936    6.1608 H   0  0  0  0  0  0  0  0  0  0  0  0
   10.5083    5.2238    6.0432 H   0  0  0  0  0  0  0  0  0  0  0  0
   11.3913    3.6915    6.3271 H   0  0  0  0  0  0  0  0  0  0  0  0
   11.7851    4.5947    2.6884 H   0  0  0  0  0  0  0  0  0  0  0  0
   12.7602    4.2409    4.1486 H   0  0  0  0  0  0  0  0  0  0  0  0
   11.7748    5.7288    4.0592 H   0  0  0  0  0  0  0  0  0  0  0  0
  1  2  1  0
  1 28  1  0
  1 29  1  0
  1 30  1  0
  2  3  1  0
  2  4  1  0
  2 31  1  1
  3 32  1  0
  3 33  1  0
  3 34  1  0
  4  5  1  0
  4 35  1  0
  4 36  1  0
  5  6  1  0
  5 37  1  0
  5 38  1  0
  6  7  1  0
  6 39  1  0
  7  8  2  0
  7  9  1  0
  9 10  1  6
  9 11  1  0
  9 21  1  0
 11 12  1  0
 11 40  1  0
 11 41  1  0
 12 13  1  0
 12 42  1  0
 12 43  1  0
 13 14  1  0
 13 44  1  0
 13 45  1  0
 14 15  2  0
 15 16  1  0
 15 17  1  0
 16 46  1  0
 16 47  1  0
 17 18  1  0
 17 48  1  0
 18 19  2  0
 18 20  1  0
 21 22  1  0
 21 49  1  0
 22 23  2  0
 22 24  1  0
 24 25  1  0
 24 50  1  0
 24 51  1  0
 25 26  1  0
 25 27  1  0
 26 52  1  0
 26 53  1  0
 26 54  1  0
 27 55  1  0
 27 56  1  0
 27 57  1  0
M  CHG  2  18   1  20  -1
M  END

