
     RDKit          3D

 41 41  0  0  0  0  0  0  0  0999 V2000
    4.1014    1.1295   -3.8943 C   0  0  0  0  0  0  0  0  0  0  0  0
    3.6479    1.5293   -2.4834 C   0  0  1  0  0  0  0  0  0  0  0  0
    2.1324    1.3498   -2.3269 C   0  0  0  0  0  0  0  0  0  0  0  0
    4.3952    0.7600   -1.3779 C   0  0  0  0  0  0  0  0  0  0  0  0
    5.9129    0.9762   -1.3080 C   0  0  0  0  0  0  0  0  0  0  0  0
    6.3023    2.3613   -1.0666 N   0  0  0  0  0  0  0  0  0  0  0  0
    6.6257    2.8330    0.1627 C   0  0  0  0  0  0  0  0  0  0  0  0
    6.6127    2.1524    1.1796 O   0  0  0  0  0  0  0  0  0  0  0  0
    7.0689    4.3147    0.1819 C   0  0  1  0  0  0  0  0  0  0  0  0
    6.6184    5.0465    1.4428 C   0  0  0  0  0  0  0  0  0  0  0  0
    8.5138    4.3920   -0.0656 N   0  0  0  0  0  0  0  0  0  0  0  0
    8.9130    4.9623   -1.2306 N   0  0  0  0  0  0  0  0  0  0  0  0
   10.1979    4.9206   -1.2797 N   0  0  0  0  0  0  0  0  0  0  0  0
   10.6793    4.3131   -0.1570 C   0  0  0  0  0  0  0  0  0  0  0  0
   12.1634    4.1853    0.0584 C   0  0  0  0  0  0  0  0  0  0  0  0
   12.9484    4.8616   -0.5531 O   0  0  0  0  0  0  0  0  0  0  0  0
   12.5510    3.2981    0.9788 O   0  0  0  0  0  0  0  0  0  0  0  0
    9.5931    3.9570    0.6461 C   0  0  0  0  0  0  0  0  0  0  0  0
    9.5319    3.2652    1.9806 C   0  0  0  0  0  0  0  0  0  0  0  0
   10.3503    2.0429    1.9485 N   0  0  0  0  0  0  0  0  0  0  0  0
    3.5484    1.6942   -4.6618 H   0  0  0  0  0  0  0  0  0  0  0  0
    3.9197    0.0563   -4.0773 H   0  0  0  0  0  0  0  0  0  0  0  0
    5.1739    1.3167   -4.0652 H   0  0  0  0  0  0  0  0  0  0  0  0
    3.8674    2.6057   -2.3467 H   0  0  0  0  0  0  0  0  0  0  0  0
    1.8459    0.2909   -2.4481 H   0  0  0  0  0  0  0  0  0  0  0  0
    1.5799    1.9316   -3.0820 H   0  0  0  0  0  0  0  0  0  0  0  0
    1.7875    1.6756   -1.3323 H   0  0  0  0  0  0  0  0  0  0  0  0
    4.2155   -0.3234   -1.5056 H   0  0  0  0  0  0  0  0  0  0  0  0
    3.9677    1.0288   -0.3968 H   0  0  0  0  0  0  0  0  0  0  0  0
    6.4037    0.6395   -2.2350 H   0  0  0  0  0  0  0  0  0  0  0  0
    6.3249    0.3819   -0.4803 H   0  0  0  0  0  0  0  0  0  0  0  0
    6.3845    2.9899   -1.8576 H   0  0  0  0  0  0  0  0  0  0  0  0
    6.6487    4.8262   -0.6956 H   0  0  0  0  0  0  0  0  0  0  0  0
    6.9574    4.5406    2.3561 H   0  0  0  0  0  0  0  0  0  0  0  0
    5.5189    5.0796    1.4743 H   0  0  0  0  0  0  0  0  0  0  0  0
    6.9970    6.0790    1.4365 H   0  0  0  0  0  0  0  0  0  0  0  0
   11.8021    2.7248    1.3113 H   0  0  0  0  0  0  0  0  0  0  0  0
    8.4863    3.0596    2.2507 H   0  0  0  0  0  0  0  0  0  0  0  0
    9.9602    3.9306    2.7491 H   0  0  0  0  0  0  0  0  0  0  0  0
    9.9007    1.3298    1.3716 H   0  0  0  0  0  0  0  0  0  0  0  0
   10.4433    1.6498    2.8860 H   0  0  0  0  0  0  0  0  0  0  0  0
  1  2  1  0
  1 21  1  0
  1 22  1  0
  1 23  1  0
  2  3  1  0
  2  4  1  0
  2 24  1  1
  3 25  1  0
  3 26  1  0
  3 27  1  0
  4  5  1  0
  4 28  1  0
  4 29  1  0
  5  6  1  0
  5 30  1  0
  5 31  1  0
  6  7  1  0
  6 32  1  0
  7  8  2  0
  7  9  1  0
  9 10  1  0
  9 11  1  0
  9 33  1  6
 10 34  1  0
 10 35  1  0
 10 36  1  0
 11 12  1  0
 11 18  1  0
 12 13  2  0
 13 14  1  0
 14 15  1  0
 14 18  2  0
 15 16  2  0
 15 17  1  0
 17 37  1  0
 18 19  1  0
 19 20  1  0
 19 38  1  0
 19 39  1  0
 20 40  1  0
 20 41  1  0
M  END

