
     RDKit          3D

 35 36  0  0  0  0  0  0  0  0999 V2000
    1.1279    1.1606   -0.4384 C   0  0  0  0  0  0  0  0  0  0  0  0
    2.4367    0.7103   -0.1596 O   0  0  0  0  0  0  0  0  0  0  0  0
    3.0871    1.1872    0.9285 C   0  0  0  0  0  0  0  0  0  0  0  0
    2.5374    2.0951    1.8384 C   0  0  0  0  0  0  0  0  0  0  0  0
    3.3009    2.5540    2.9211 C   0  0  0  0  0  0  0  0  0  0  0  0
    2.4445    3.8224    4.0901 Br  0  0  0  0  0  0  0  0  0  0  0  0
    4.6136    2.1284    3.1397 C   0  0  0  0  0  0  0  0  0  0  0  0
    5.4906    2.5809    4.2955 C   0  0  0  0  0  0  0  0  0  0  0  0
    6.6741    3.3149    3.8851 N   0  0  0  0  0  0  0  0  0  0  0  0
    7.8024    2.6374    3.5353 N   0  0  0  0  0  0  0  0  0  0  0  0
    8.6852    3.5574    3.1683 C   0  0  0  0  0  0  0  0  0  0  0  0
   10.0643    3.1810    2.7305 C   0  0  0  0  0  0  0  0  0  0  0  0
    8.1088    4.8547    3.2646 C   0  0  0  0  0  0  0  0  0  0  0  0
    8.9801    6.7113    2.8235 I   0  0  0  0  0  0  0  0  0  0  0  0
    6.8064    4.6615    3.7233 C   0  0  0  0  0  0  0  0  0  0  0  0
    5.8234    5.5643    4.0707 N   0  0  0  0  0  0  0  0  0  0  0  0
    5.1428    1.2088    2.2126 C   0  0  0  0  0  0  0  0  0  0  0  0
    4.4187    0.7338    1.1249 C   0  0  0  0  0  0  0  0  0  0  0  0
    5.0279   -0.1022    0.2401 O   0  0  0  0  0  0  0  0  0  0  0  0
    4.5223   -1.4250    0.1216 C   0  0  0  0  0  0  0  0  0  0  0  0
    0.8166    0.6591   -1.3641 H   0  0  0  0  0  0  0  0  0  0  0  0
    1.0986    2.2535   -0.5950 H   0  0  0  0  0  0  0  0  0  0  0  0
    0.4219    0.8954    0.3688 H   0  0  0  0  0  0  0  0  0  0  0  0
    1.5222    2.4657    1.7110 H   0  0  0  0  0  0  0  0  0  0  0  0
    5.8548    1.7027    4.8484 H   0  0  0  0  0  0  0  0  0  0  0  0
    4.9233    3.2062    4.9971 H   0  0  0  0  0  0  0  0  0  0  0  0
   10.1766    2.0887    2.7659 H   0  0  0  0  0  0  0  0  0  0  0  0
   10.8301    3.6358    3.3802 H   0  0  0  0  0  0  0  0  0  0  0  0
   10.2667    3.5234    1.7024 H   0  0  0  0  0  0  0  0  0  0  0  0
    6.0449    6.5203    3.8097 H   0  0  0  0  0  0  0  0  0  0  0  0
    4.8671    5.3117    3.8332 H   0  0  0  0  0  0  0  0  0  0  0  0
    6.1741    0.8686    2.3305 H   0  0  0  0  0  0  0  0  0  0  0  0
    5.1813   -1.9489   -0.5845 H   0  0  0  0  0  0  0  0  0  0  0  0
    3.4918   -1.4385   -0.2661 H   0  0  0  0  0  0  0  0  0  0  0  0
    4.5532   -1.9497    1.0939 H   0  0  0  0  0  0  0  0  0  0  0  0
  1  2  1  0
  1 21  1  0
  1 22  1  0
  1 23  1  0
  2  3  1  0
  3  4  2  0
  3 18  1  0
  4  5  1  0
  4 24  1  0
  5  6  1  0
  5  7  2  0
  7  8  1  0
  7 17  1  0
  8  9  1  0
  8 25  1  0
  8 26  1  0
  9 10  1  0
  9 15  1  0
 10 11  2  0
 11 12  1  0
 11 13  1  0
 12 27  1  0
 12 28  1  0
 12 29  1  0
 13 14  1  0
 13 15  2  0
 15 16  1  0
 16 30  1  0
 16 31  1  0
 17 18  2  0
 17 32  1  0
 18 19  1  0
 19 20  1  0
 20 33  1  0
 20 34  1  0
 20 35  1  0
M  END

