
     RDKit          3D

 37 39  0  0  0  0  0  0  0  0999 V2000
    5.2381   -0.9474    1.7217 C   0  0  0  0  0  0  0  0  0  0  0  0
    4.5910   -0.7278    0.3906 C   0  0  0  0  0  0  0  0  0  0  0  0
    4.8165    0.3709   -0.2898 N   0  0  0  0  0  0  0  0  0  0  0  0
    4.0751    0.2603   -1.4522 O   0  0  0  0  0  0  0  0  0  0  0  0
    3.3950   -0.8989   -1.4637 C   0  0  0  0  0  0  0  0  0  0  0  0
    2.5188   -1.1542   -2.6593 C   0  0  0  0  0  0  0  0  0  0  0  0
    1.4052   -0.2323   -2.8251 N   0  0  0  0  0  0  0  0  0  0  0  0
    3.6729   -1.5888   -0.3097 C   0  0  0  0  0  0  0  0  0  0  0  0
    3.1986   -2.9258    0.1200 C   0  0  0  0  0  0  0  0  0  0  0  0
    4.0478   -4.0418   -0.0013 C   0  0  0  0  0  0  0  0  0  0  0  0
    3.6057   -5.2931    0.4217 C   0  0  0  0  0  0  0  0  0  0  0  0
    2.3919   -5.4947    0.9462 N   0  0  0  0  0  0  0  0  0  0  0  0
    1.6119   -4.4519    1.0700 C   0  0  0  0  0  0  0  0  0  0  0  0
    0.3996   -4.6774    1.5880 F   0  0  0  0  0  0  0  0  0  0  0  0
    1.9289   -3.1328    0.7001 C   0  0  0  0  0  0  0  0  0  0  0  0
    0.9148   -2.0223    0.8554 C   0  0  0  0  0  0  0  0  0  0  0  0
    0.5201   -1.4284   -0.1330 O   0  0  0  0  0  0  0  0  0  0  0  0
    0.4268   -1.6638    2.2192 C   0  0  0  0  0  0  0  0  0  0  0  0
   -0.6245   -0.7341    2.3229 C   0  0  0  0  0  0  0  0  0  0  0  0
   -1.1106   -0.3417    3.5654 C   0  0  0  0  0  0  0  0  0  0  0  0
   -0.5354   -0.8783    4.7252 C   0  0  0  0  0  0  0  0  0  0  0  0
   -1.1364   -0.3911    6.2859 Cl  0  0  0  0  0  0  0  0  0  0  0  0
    0.5155   -1.7985    4.6477 C   0  0  0  0  0  0  0  0  0  0  0  0
    0.9893   -2.1881    3.3957 C   0  0  0  0  0  0  0  0  0  0  0  0
    5.8918   -0.0981    1.9619 H   0  0  0  0  0  0  0  0  0  0  0  0
    5.8406   -1.8697    1.7256 H   0  0  0  0  0  0  0  0  0  0  0  0
    4.4819   -1.0448    2.5173 H   0  0  0  0  0  0  0  0  0  0  0  0
    2.1297   -2.1801   -2.5833 H   0  0  0  0  0  0  0  0  0  0  0  0
    3.1544   -1.1190   -3.5617 H   0  0  0  0  0  0  0  0  0  0  0  0
    0.7861   -0.3142   -2.0185 H   0  0  0  0  0  0  0  0  0  0  0  0
    1.7458    0.7290   -2.8504 H   0  0  0  0  0  0  0  0  0  0  0  0
    5.0423   -3.9250   -0.4356 H   0  0  0  0  0  0  0  0  0  0  0  0
    4.2519   -6.1729    0.3314 H   0  0  0  0  0  0  0  0  0  0  0  0
   -1.0518   -0.3282    1.4042 H   0  0  0  0  0  0  0  0  0  0  0  0
   -1.9294    0.3747    3.6483 H   0  0  0  0  0  0  0  0  0  0  0  0
    0.9522   -2.2019    5.5623 H   0  0  0  0  0  0  0  0  0  0  0  0
    1.8131   -2.9022    3.3430 H   0  0  0  0  0  0  0  0  0  0  0  0
  1  2  1  0
  1 25  1  0
  1 26  1  0
  1 27  1  0
  2  3  2  0
  2  8  1  0
  3  4  1  0
  4  5  1  0
  5  6  1  0
  5  8  2  0
  6  7  1  0
  6 28  1  0
  6 29  1  0
  7 30  1  0
  7 31  1  0
  8  9  1  0
  9 10  2  0
  9 15  1  0
 10 11  1  0
 10 32  1  0
 11 12  2  0
 11 33  1  0
 12 13  1  0
 13 14  1  0
 13 15  2  0
 15 16  1  0
 16 17  2  0
 16 18  1  0
 18 19  2  0
 18 24  1  0
 19 20  1  0
 19 34  1  0
 20 21  2  0
 20 35  1  0
 21 22  1  0
 21 23  1  0
 23 24  2  0
 23 36  1  0
 24 37  1  0
M  END

