
     RDKit          3D

 27 28  0  0  0  0  0  0  0  0999 V2000
    1.0542   -0.0721    0.6155 N   0  0  0  0  0  0  0  0  0  0  0  0
    2.1980   -0.0390    0.4301 C   0  0  0  0  0  0  0  0  0  0  0  0
    3.6452    0.0074    0.2194 C   0  0  1  0  0  0  0  0  0  0  0  0
    4.3276    1.2760    0.8034 C   0  0  0  0  0  0  0  0  0  0  0  0
    5.7568    0.8048    1.0927 C   0  0  0  0  0  0  0  0  0  0  0  0
    5.5372   -0.5845    1.7024 C   0  0  0  0  0  0  0  0  0  0  0  0
    4.4040   -1.2114    0.8619 C   0  0  2  0  0  0  0  0  0  0  0  0
    4.9935   -2.2774   -0.5357 S   0  0  0  0  0  0  0  0  0  0  0  0
    5.5821   -3.7272    0.3346 C   0  0  0  0  0  0  0  0  0  0  0  0
    4.6784   -4.6495    0.8876 C   0  0  0  0  0  0  0  0  0  0  0  0
    5.1397   -5.7970    1.5349 C   0  0  0  0  0  0  0  0  0  0  0  0
    6.5162   -6.0361    1.6092 C   0  0  0  0  0  0  0  0  0  0  0  0
    7.1510   -7.6067    2.4814 Br  0  0  0  0  0  0  0  0  0  0  0  0
    7.4304   -5.1408    1.0482 C   0  0  0  0  0  0  0  0  0  0  0  0
    6.9585   -3.9865    0.4167 C   0  0  0  0  0  0  0  0  0  0  0  0
    3.8090   -0.0063   -0.8723 H   0  0  0  0  0  0  0  0  0  0  0  0
    3.8279    1.5690    1.7408 H   0  0  0  0  0  0  0  0  0  0  0  0
    4.2637    2.1294    0.1124 H   0  0  0  0  0  0  0  0  0  0  0  0
    6.3101    1.4890    1.7536 H   0  0  0  0  0  0  0  0  0  0  0  0
    6.3251    0.7165    0.1512 H   0  0  0  0  0  0  0  0  0  0  0  0
    5.1894   -0.4791    2.7448 H   0  0  0  0  0  0  0  0  0  0  0  0
    6.4393   -1.2127    1.7238 H   0  0  0  0  0  0  0  0  0  0  0  0
    3.7275   -1.8216    1.4745 H   0  0  0  0  0  0  0  0  0  0  0  0
    3.6037   -4.4717    0.8033 H   0  0  0  0  0  0  0  0  0  0  0  0
    4.4342   -6.5087    1.9669 H   0  0  0  0  0  0  0  0  0  0  0  0
    8.5018   -5.3394    1.1074 H   0  0  0  0  0  0  0  0  0  0  0  0
    7.6659   -3.2787   -0.0210 H   0  0  0  0  0  0  0  0  0  0  0  0
  1  2  3  0
  2  3  1  0
  3  4  1  0
  3  7  1  0
  3 16  1  6
  4  5  1  0
  4 17  1  0
  4 18  1  0
  5  6  1  0
  5 19  1  0
  5 20  1  0
  6  7  1  0
  6 21  1  0
  6 22  1  0
  7  8  1  0
  7 23  1  1
  8  9  1  0
  9 10  2  0
  9 15  1  0
 10 11  1  0
 10 24  1  0
 11 12  2  0
 11 25  1  0
 12 13  1  0
 12 14  1  0
 14 15  2  0
 14 26  1  0
 15 27  1  0
M  END

