
     RDKit          3D

 31 32  0  0  0  0  0  0  0  0999 V2000
    1.0402   -0.0168    0.3857 C   0  0  0  0  0  0  0  0  0  0  0  0
    2.5161    0.0442    0.0823 C   0  0  0  0  0  0  0  0  0  0  0  0
    3.1644    1.2776   -0.0671 C   0  0  0  0  0  0  0  0  0  0  0  0
    4.5287    1.3614   -0.3454 C   0  0  0  0  0  0  0  0  0  0  0  0
    5.2990    0.1962   -0.4890 C   0  0  0  0  0  0  0  0  0  0  0  0
    6.7535    0.2647   -0.7877 C   0  0  0  0  0  0  0  0  0  0  0  0
    7.5619    1.2751   -0.2355 C   0  0  0  0  0  0  0  0  0  0  0  0
    8.9274    1.3442   -0.5148 C   0  0  0  0  0  0  0  0  0  0  0  0
    9.5191    0.3982   -1.3564 C   0  0  0  0  0  0  0  0  0  0  0  0
   10.9918    0.4421   -1.6719 C   0  0  1  0  0  0  0  0  0  0  0  0
   11.6066    1.4904   -1.0986 F   0  0  0  0  0  0  0  0  0  0  0  0
   11.6228   -0.6713   -1.2489 F   0  0  0  0  0  0  0  0  0  0  0  0
   11.2117    0.5251   -2.9989 F   0  0  0  0  0  0  0  0  0  0  0  0
    8.7309   -0.6162   -1.9164 C   0  0  0  0  0  0  0  0  0  0  0  0
    7.3689   -0.6793   -1.6347 C   0  0  0  0  0  0  0  0  0  0  0  0
    4.6457   -1.0409   -0.3402 C   0  0  0  0  0  0  0  0  0  0  0  0
    3.2786   -1.1398   -0.0570 C   0  0  0  0  0  0  0  0  0  0  0  0
    2.6321   -2.4937    0.1056 C   0  0  0  0  0  0  0  0  0  0  0  0
    0.6039    0.9901    0.4569 H   0  0  0  0  0  0  0  0  0  0  0  0
    0.8416   -0.5372    1.3384 H   0  0  0  0  0  0  0  0  0  0  0  0
    0.4864   -0.5692   -0.3926 H   0  0  0  0  0  0  0  0  0  0  0  0
    2.5823    2.1986    0.0298 H   0  0  0  0  0  0  0  0  0  0  0  0
    4.9908    2.3421   -0.4787 H   0  0  0  0  0  0  0  0  0  0  0  0
    7.1206    2.0071    0.4439 H   0  0  0  0  0  0  0  0  0  0  0  0
    9.5377    2.1317   -0.0701 H   0  0  0  0  0  0  0  0  0  0  0  0
    9.1836   -1.3534   -2.5836 H   0  0  0  0  0  0  0  0  0  0  0  0
    6.7641   -1.4607   -2.0995 H   0  0  0  0  0  0  0  0  0  0  0  0
    5.2280   -1.9625   -0.4216 H   0  0  0  0  0  0  0  0  0  0  0  0
    3.3607   -3.3059   -0.0308 H   0  0  0  0  0  0  0  0  0  0  0  0
    1.8185   -2.6457   -0.6241 H   0  0  0  0  0  0  0  0  0  0  0  0
    2.1807   -2.6116    1.1055 H   0  0  0  0  0  0  0  0  0  0  0  0
  1  2  1  0
  1 19  1  0
  1 20  1  0
  1 21  1  0
  2  3  2  0
  2 17  1  0
  3  4  1  0
  3 22  1  0
  4  5  2  0
  4 23  1  0
  5  6  1  0
  5 16  1  0
  6  7  2  0
  6 15  1  0
  7  8  1  0
  7 24  1  0
  8  9  2  0
  8 25  1  0
  9 10  1  0
  9 14  1  0
 10 11  1  1
 10 12  1  0
 10 13  1  0
 14 15  2  0
 14 26  1  0
 15 27  1  0
 16 17  2  0
 16 28  1  0
 17 18  1  0
 18 29  1  0
 18 30  1  0
 18 31  1  0
M  END

