
     RDKit          3D

 37 39  0  0  0  0  0  0  0  0999 V2000
    2.7772    1.1264   -0.6811 N   0  0  0  0  0  0  0  0  0  0  0  0
    2.6763   -0.2381   -0.1713 C   0  0  0  0  0  0  0  0  0  0  0  0
    3.1284   -0.3626    1.3019 C   0  0  1  0  0  0  0  0  0  0  0  0
    2.6394   -1.6575    1.9304 C   0  0  0  0  0  0  0  0  0  0  0  0
    1.7859   -1.6375    3.0464 C   0  0  0  0  0  0  0  0  0  0  0  0
    1.3150   -2.8218    3.6140 C   0  0  0  0  0  0  0  0  0  0  0  0
    1.6915   -4.0587    3.0853 C   0  0  0  0  0  0  0  0  0  0  0  0
    2.5642   -4.0963    1.9796 C   0  0  0  0  0  0  0  0  0  0  0  0
    3.0219   -2.9039    1.4128 C   0  0  0  0  0  0  0  0  0  0  0  0
    2.9790   -5.2820    1.4363 O   0  0  0  0  0  0  0  0  0  0  0  0
    2.7525   -6.4164    2.2581 C   0  0  0  0  0  0  0  0  0  0  0  0
    1.3557   -6.3648    2.8547 C   0  0  0  0  0  0  0  0  0  0  0  0
    1.2064   -5.2039    3.6557 O   0  0  0  0  0  0  0  0  0  0  0  0
    4.6633   -0.1962    1.4764 C   0  0  1  0  0  0  0  0  0  0  0  0
    5.1594    0.9674    0.8188 O   0  0  0  0  0  0  0  0  0  0  0  0
    5.0828   -0.2139    2.9152 C   0  0  0  0  0  0  0  0  0  0  0  0
    5.9724   -0.9540    3.6411 C   0  0  0  0  0  0  0  0  0  0  0  0
    5.9501   -0.4405    4.9818 C   0  0  0  0  0  0  0  0  0  0  0  0
    5.0447    0.5812    4.9587 C   0  0  0  0  0  0  0  0  0  0  0  0
    4.4973    1.6525    6.1782 Cl  0  0  0  0  0  0  0  0  0  0  0  0
    4.5109    0.7341    3.7266 O   0  0  0  0  0  0  0  0  0  0  0  0
    2.2515    1.2151   -1.5501 H   0  0  0  0  0  0  0  0  0  0  0  0
    3.7503    1.3417   -0.8924 H   0  0  0  0  0  0  0  0  0  0  0  0
    3.2249   -0.9898   -0.7797 H   0  0  0  0  0  0  0  0  0  0  0  0
    1.6158   -0.5358   -0.2072 H   0  0  0  0  0  0  0  0  0  0  0  0
    2.6533    0.4754    1.8392 H   0  0  0  0  0  0  0  0  0  0  0  0
    1.4826   -0.6794    3.4752 H   0  0  0  0  0  0  0  0  0  0  0  0
    0.6423   -2.8128    4.4743 H   0  0  0  0  0  0  0  0  0  0  0  0
    3.6919   -2.9894    0.5542 H   0  0  0  0  0  0  0  0  0  0  0  0
    3.5037   -6.4527    3.0698 H   0  0  0  0  0  0  0  0  0  0  0  0
    2.8805   -7.3046    1.6220 H   0  0  0  0  0  0  0  0  0  0  0  0
    1.1701   -7.2315    3.5061 H   0  0  0  0  0  0  0  0  0  0  0  0
    0.6031   -6.3660    2.0434 H   0  0  0  0  0  0  0  0  0  0  0  0
    5.1729   -1.0419    0.9884 H   0  0  0  0  0  0  0  0  0  0  0  0
    4.6819    1.7301    1.1776 H   0  0  0  0  0  0  0  0  0  0  0  0
    6.5762   -1.7765    3.2639 H   0  0  0  0  0  0  0  0  0  0  0  0
    6.5207   -0.7773    5.8430 H   0  0  0  0  0  0  0  0  0  0  0  0
  1  2  1  0
  1 22  1  0
  1 23  1  0
  2  3  1  0
  2 24  1  0
  2 25  1  0
  3  4  1  0
  3 14  1  0
  3 26  1  1
  4  5  2  0
  4  9  1  0
  5  6  1  0
  5 27  1  0
  6  7  2  0
  6 28  1  0
  7  8  1  0
  7 13  1  0
  8  9  2  0
  8 10  1  0
  9 29  1  0
 10 11  1  0
 11 12  1  0
 11 30  1  0
 11 31  1  0
 12 13  1  0
 12 32  1  0
 12 33  1  0
 14 15  1  0
 14 16  1  0
 14 34  1  6
 15 35  1  0
 16 17  2  0
 16 21  1  0
 17 18  1  0
 17 36  1  0
 18 19  2  0
 18 37  1  0
 19 20  1  0
 19 21  1  0
M  END

