
     RDKit          3D

100107  0  0  0  0  0  0  0  0999 V2000
    2.5147    0.9835    0.5816 C   0  0  0  0  0  0  0  0  0  0  0  0
    2.8353   -0.0117   -0.3639 O   0  0  0  0  0  0  0  0  0  0  0  0
    3.1529    0.3526   -1.6304 C   0  0  0  0  0  0  0  0  0  0  0  0
    3.1911    1.6752   -2.0953 C   0  0  0  0  0  0  0  0  0  0  0  0
    3.5332    1.9283   -3.4265 C   0  0  0  0  0  0  0  0  0  0  0  0
    3.8446    0.8967   -4.3298 C   0  0  0  0  0  0  0  0  0  0  0  0
    4.1939    1.2329   -5.7096 C   0  0  0  0  0  0  0  0  0  0  0  0
    4.5167    0.3805   -6.7056 C   0  0  0  0  0  0  0  0  0  0  0  0
    4.8584    0.7963   -8.0734 C   0  0  0  0  0  0  0  0  0  0  0  0
    4.8518    2.1047   -8.3749 N   0  0  0  0  0  0  0  0  0  0  0  0
    5.1680    2.4603   -9.6293 C   0  0  0  0  0  0  0  0  0  0  0  0
    5.1714    3.8804   -9.9968 C   0  0  0  0  0  0  0  0  0  0  0  0
    4.8707    4.8790   -9.1364 C   0  0  0  0  0  0  0  0  0  0  0  0
    4.8484    6.3141   -9.4046 C   0  0  0  0  0  0  0  0  0  0  0  0
    4.4818    7.2027   -8.3724 C   0  0  0  0  0  0  0  0  0  0  0  0
    4.4336    8.5794   -8.5674 C   0  0  0  0  0  0  0  0  0  0  0  0
    4.7671    9.1370   -9.8167 C   0  0  0  0  0  0  0  0  0  0  0  0
    4.7304   10.5333  -10.0255 N   0  0  0  0  0  0  0  0  0  0  0  0
    5.1150   11.4257   -8.9866 C   0  0  0  0  0  0  0  0  0  0  0  0
    6.2759   11.1861   -8.2293 C   0  0  0  0  0  0  0  0  0  0  0  0
    6.6468   12.0644   -7.2099 C   0  0  0  0  0  0  0  0  0  0  0  0
    5.8807   13.2027   -6.9383 C   0  0  0  0  0  0  0  0  0  0  0  0
    4.7311   13.4498   -7.6955 C   0  0  0  0  0  0  0  0  0  0  0  0
    4.3439   12.5679   -8.7060 C   0  0  0  0  0  0  0  0  0  0  0  0
    4.3004   11.0625  -11.2736 C   0  0  0  0  0  0  0  0  0  0  0  0
    3.1641   10.5431  -11.9200 C   0  0  0  0  0  0  0  0  0  0  0  0
    2.7499   11.0653  -13.1464 C   0  0  0  0  0  0  0  0  0  0  0  0
    3.4467   12.1223  -13.7412 C   0  0  0  0  0  0  0  0  0  0  0  0
    4.5710   12.6482  -13.0967 C   0  0  0  0  0  0  0  0  0  0  0  0
    5.0019   12.1212  -11.8782 C   0  0  0  0  0  0  0  0  0  0  0  0
    5.1442    8.2593  -10.8565 C   0  0  0  0  0  0  0  0  0  0  0  0
    5.1773    6.8863  -10.6534 C   0  0  0  0  0  0  0  0  0  0  0  0
    5.4940    1.4829  -10.5870 C   0  0  0  0  0  0  0  0  0  0  0  0
    5.4765    0.1363  -10.1899 C   0  0  0  0  0  0  0  0  0  0  0  0
    5.8072   -0.9266  -11.1441 C   0  0  0  0  0  0  0  0  0  0  0  0
    5.8114   -2.2400  -10.8217 C   0  0  0  0  0  0  0  0  0  0  0  0
    6.1220   -3.3731  -11.6879 C   0  0  0  0  0  0  0  0  0  0  0  0
    6.4485   -3.2508  -13.0568 C   0  0  0  0  0  0  0  0  0  0  0  0
    6.7330   -4.3618  -13.8393 C   0  0  0  0  0  0  0  0  0  0  0  0
    6.7161   -5.6611  -13.2866 C   0  0  0  0  0  0  0  0  0  0  0  0
    7.0091   -6.7903  -14.0828 N   0  0  0  0  0  0  0  0  0  0  0  0
    8.0070   -6.7174  -15.0935 C   0  0  0  0  0  0  0  0  0  0  0  0
    9.2400   -6.0894  -14.8404 C   0  0  0  0  0  0  0  0  0  0  0  0
   10.2135   -6.0187  -15.8382 C   0  0  0  0  0  0  0  0  0  0  0  0
    9.9850   -6.5854  -17.0963 C   0  0  0  0  0  0  0  0  0  0  0  0
    8.7642   -7.2196  -17.3487 C   0  0  0  0  0  0  0  0  0  0  0  0
    7.7787   -7.2805  -16.3621 C   0  0  0  0  0  0  0  0  0  0  0  0
    6.3162   -8.0152  -13.8756 C   0  0  0  0  0  0  0  0  0  0  0  0
    4.9207   -8.0281  -13.6985 C   0  0  0  0  0  0  0  0  0  0  0  0
    4.2470   -9.2331  -13.4929 C   0  0  0  0  0  0  0  0  0  0  0  0
    4.9457  -10.4448  -13.4774 C   0  0  0  0  0  0  0  0  0  0  0  0
    6.3318  -10.4371  -13.6630 C   0  0  0  0  0  0  0  0  0  0  0  0
    7.0157   -9.2350  -13.8528 C   0  0  0  0  0  0  0  0  0  0  0  0
    6.3953   -5.7968  -11.9222 C   0  0  0  0  0  0  0  0  0  0  0  0
    6.1003   -4.6772  -11.1508 C   0  0  0  0  0  0  0  0  0  0  0  0
    5.1559   -0.1959   -8.9272 N   0  0  0  0  0  0  0  0  0  0  0  0
    3.7989   -0.4286   -3.8355 C   0  0  0  0  0  0  0  0  0  0  0  0
    3.4616   -0.6972   -2.5186 C   0  0  0  0  0  0  0  0  0  0  0  0
    2.2954    0.4622    1.5231 H   0  0  0  0  0  0  0  0  0  0  0  0
    1.6258    1.5666    0.2798 H   0  0  0  0  0  0  0  0  0  0  0  0
    3.3562    1.6805    0.7468 H   0  0  0  0  0  0  0  0  0  0  0  0
    2.9581    2.5113   -1.4358 H   0  0  0  0  0  0  0  0  0  0  0  0
    3.5597    2.9639   -3.7769 H   0  0  0  0  0  0  0  0  0  0  0  0
    4.1919    2.2989   -5.9586 H   0  0  0  0  0  0  0  0  0  0  0  0
    4.5461   -0.7009   -6.5544 H   0  0  0  0  0  0  0  0  0  0  0  0
    5.4372    4.0970  -11.0356 H   0  0  0  0  0  0  0  0  0  0  0  0
    4.6117    4.5764   -8.1168 H   0  0  0  0  0  0  0  0  0  0  0  0
    4.2135    6.7949   -7.3939 H   0  0  0  0  0  0  0  0  0  0  0  0
    4.1317    9.2336   -7.7480 H   0  0  0  0  0  0  0  0  0  0  0  0
    6.8860   10.3070   -8.4457 H   0  0  0  0  0  0  0  0  0  0  0  0
    7.5524   11.8626   -6.6317 H   0  0  0  0  0  0  0  0  0  0  0  0
    6.1775   13.8916   -6.1440 H   0  0  0  0  0  0  0  0  0  0  0  0
    4.1195   14.3325   -7.4910 H   0  0  0  0  0  0  0  0  0  0  0  0
    3.4389   12.7596   -9.2856 H   0  0  0  0  0  0  0  0  0  0  0  0
    2.6070    9.7280  -11.4541 H   0  0  0  0  0  0  0  0  0  0  0  0
    1.8643   10.6495  -13.6343 H   0  0  0  0  0  0  0  0  0  0  0  0
    3.1158   12.5330  -14.6979 H   0  0  0  0  0  0  0  0  0  0  0  0
    5.1288   13.4707  -13.5522 H   0  0  0  0  0  0  0  0  0  0  0  0
    5.8875   12.5278  -11.3860 H   0  0  0  0  0  0  0  0  0  0  0  0
    5.4190    8.6688  -11.8300 H   0  0  0  0  0  0  0  0  0  0  0  0
    5.4829    6.2442  -11.4825 H   0  0  0  0  0  0  0  0  0  0  0  0
    5.7534    1.7642  -11.6098 H   0  0  0  0  0  0  0  0  0  0  0  0
    6.0590   -0.5939  -12.1553 H   0  0  0  0  0  0  0  0  0  0  0  0
    5.5518   -2.4807   -9.7857 H   0  0  0  0  0  0  0  0  0  0  0  0
    6.4644   -2.2647  -13.5262 H   0  0  0  0  0  0  0  0  0  0  0  0
    6.9671   -4.2328  -14.8974 H   0  0  0  0  0  0  0  0  0  0  0  0
    9.4308   -5.6582  -13.8558 H   0  0  0  0  0  0  0  0  0  0  0  0
   11.1661   -5.5271  -15.6236 H   0  0  0  0  0  0  0  0  0  0  0  0
   10.7518   -6.5341  -17.8728 H   0  0  0  0  0  0  0  0  0  0  0  0
    8.5692   -7.6623  -18.3291 H   0  0  0  0  0  0  0  0  0  0  0  0
    6.8232   -7.7661  -16.5690 H   0  0  0  0  0  0  0  0  0  0  0  0
    4.3678   -7.0871  -13.7234 H   0  0  0  0  0  0  0  0  0  0  0  0
    3.1623   -9.2242  -13.3571 H   0  0  0  0  0  0  0  0  0  0  0  0
    4.4143  -11.3867  -13.3226 H   0  0  0  0  0  0  0  0  0  0  0  0
    6.8919  -11.3758  -13.6477 H   0  0  0  0  0  0  0  0  0  0  0  0
    8.0993   -9.2344  -13.9848 H   0  0  0  0  0  0  0  0  0  0  0  0
    6.3818   -6.7885  -11.4674 H   0  0  0  0  0  0  0  0  0  0  0  0
    5.8587   -4.8091  -10.0925 H   0  0  0  0  0  0  0  0  0  0  0  0
    4.0333   -1.2630   -4.4997 H   0  0  0  0  0  0  0  0  0  0  0  0
    3.4270   -1.7206   -2.1391 H   0  0  0  0  0  0  0  0  0  0  0  0
  1  2  1  0
  1 59  1  0
  1 60  1  0
  1 61  1  0
  2  3  1  0
  3  4  2  0
  3 58  1  0
  4  5  1  0
  4 62  1  0
  5  6  2  0
  5 63  1  0
  6  7  1  0
  6 57  1  0
  7  8  2  0
  7 64  1  0
  8  9  1  0
  8 65  1  0
  9 10  2  0
  9 56  1  0
 10 11  1  0
 11 12  1  0
 11 33  2  0
 12 13  2  0
 12 66  1  0
 13 14  1  0
 13 67  1  0
 14 15  2  0
 14 32  1  0
 15 16  1  0
 15 68  1  0
 16 17  2  0
 16 69  1  0
 17 18  1  0
 17 31  1  0
 18 19  1  0
 18 25  1  0
 19 20  2  0
 19 24  1  0
 20 21  1  0
 20 70  1  0
 21 22  2  0
 21 71  1  0
 22 23  1  0
 22 72  1  0
 23 24  2  0
 23 73  1  0
 24 74  1  0
 25 26  2  0
 25 30  1  0
 26 27  1  0
 26 75  1  0
 27 28  2  0
 27 76  1  0
 28 29  1  0
 28 77  1  0
 29 30  2  0
 29 78  1  0
 30 79  1  0
 31 32  2  0
 31 80  1  0
 32 81  1  0
 33 34  1  0
 33 82  1  0
 34 35  1  0
 34 56  2  0
 35 36  2  0
 35 83  1  0
 36 37  1  0
 36 84  1  0
 37 38  2  0
 37 55  1  0
 38 39  1  0
 38 85  1  0
 39 40  2  0
 39 86  1  0
 40 41  1  0
 40 54  1  0
 41 42  1  0
 41 48  1  0
 42 43  2  0
 42 47  1  0
 43 44  1  0
 43 87  1  0
 44 45  2  0
 44 88  1  0
 45 46  1  0
 45 89  1  0
 46 47  2  0
 46 90  1  0
 47 91  1  0
 48 49  2  0
 48 53  1  0
 49 50  1  0
 49 92  1  0
 50 51  2  0
 50 93  1  0
 51 52  1  0
 51 94  1  0
 52 53  2  0
 52 95  1  0
 53 96  1  0
 54 55  2  0
 54 97  1  0
 55 98  1  0
 57 58  2  0
 57 99  1  0
 58100  1  0
M  END

