
     RDKit          3D

 44 46  0  0  0  0  0  0  0  0999 V2000
   -0.1119    3.7103   -2.6181 C   0  0  0  0  0  0  0  0  0  0  0  0
   -0.0176    2.4507   -1.9919 O   0  0  0  0  0  0  0  0  0  0  0  0
    1.2827    1.9665   -1.7744 C   0  0  1  0  0  0  0  0  0  0  0  0
    1.9517    2.5812   -0.5385 C   0  0  0  0  0  0  0  0  0  0  0  0
    1.1886    2.3220    0.6612 N   0  0  0  0  0  0  0  0  0  0  0  0
    0.4192    3.2477    1.2983 C   0  0  0  0  0  0  0  0  0  0  0  0
   -0.4951    2.8528    2.3074 C   0  0  0  0  0  0  0  0  0  0  0  0
   -1.2167    3.8551    2.9474 C   0  0  0  0  0  0  0  0  0  0  0  0
   -2.2033    3.5563    4.0208 C   0  0  0  0  0  0  0  0  0  0  0  0
   -2.2038    2.3523    4.7423 C   0  0  0  0  0  0  0  0  0  0  0  0
   -3.1649    2.1483    5.7309 C   0  0  0  0  0  0  0  0  0  0  0  0
   -4.1007    3.1594    5.9705 C   0  0  0  0  0  0  0  0  0  0  0  0
   -4.1167    4.3127    5.2977 N   0  0  0  0  0  0  0  0  0  0  0  0
   -3.1924    4.5020    4.3562 C   0  0  0  0  0  0  0  0  0  0  0  0
   -1.0602    5.1511    2.6071 N   0  0  0  0  0  0  0  0  0  0  0  0
   -0.1817    5.4338    1.6444 C   0  0  0  0  0  0  0  0  0  0  0  0
   -0.0118    6.8690    1.2803 C   0  0  0  0  0  0  0  0  0  0  0  0
   -0.7625    7.8725    1.9116 C   0  0  0  0  0  0  0  0  0  0  0  0
   -0.5702    9.1998    1.5340 C   0  0  0  0  0  0  0  0  0  0  0  0
    0.3691    9.4823    0.5364 C   0  0  0  0  0  0  0  0  0  0  0  0
    1.0970    8.5413   -0.0713 N   0  0  0  0  0  0  0  0  0  0  0  0
    0.9088    7.2730    0.2961 C   0  0  0  0  0  0  0  0  0  0  0  0
    0.5620    4.5410    0.9784 N   0  0  0  0  0  0  0  0  0  0  0  0
    1.2100    0.5963   -1.5414 O   0  0  0  0  0  0  0  0  0  0  0  0
    0.7091   -0.1753   -2.6151 C   0  0  0  0  0  0  0  0  0  0  0  0
   -1.1726    3.8795   -2.8517 H   0  0  0  0  0  0  0  0  0  0  0  0
    0.4667    3.7424   -3.5626 H   0  0  0  0  0  0  0  0  0  0  0  0
    0.2335    4.5308   -1.9633 H   0  0  0  0  0  0  0  0  0  0  0  0
    1.9084    2.1788   -2.6753 H   0  0  0  0  0  0  0  0  0  0  0  0
    2.0535    3.6667   -0.6544 H   0  0  0  0  0  0  0  0  0  0  0  0
    2.9632    2.1497   -0.4506 H   0  0  0  0  0  0  0  0  0  0  0  0
    0.9482    1.3489    0.8123 H   0  0  0  0  0  0  0  0  0  0  0  0
   -0.6314    1.7974    2.5450 H   0  0  0  0  0  0  0  0  0  0  0  0
   -1.4485    1.5866    4.5517 H   0  0  0  0  0  0  0  0  0  0  0  0
   -3.1854    1.2249    6.3142 H   0  0  0  0  0  0  0  0  0  0  0  0
   -4.8679    3.0307    6.7437 H   0  0  0  0  0  0  0  0  0  0  0  0
   -3.2170    5.4511    3.8138 H   0  0  0  0  0  0  0  0  0  0  0  0
   -1.4784    7.5927    2.6856 H   0  0  0  0  0  0  0  0  0  0  0  0
   -1.1375   10.0070    2.0033 H   0  0  0  0  0  0  0  0  0  0  0  0
    0.5409   10.5173    0.2164 H   0  0  0  0  0  0  0  0  0  0  0  0
    1.5175    6.5146   -0.2044 H   0  0  0  0  0  0  0  0  0  0  0  0
    0.7463   -1.2284   -2.3033 H   0  0  0  0  0  0  0  0  0  0  0  0
    1.3326   -0.0510   -3.5220 H   0  0  0  0  0  0  0  0  0  0  0  0
   -0.3296    0.0977   -2.8616 H   0  0  0  0  0  0  0  0  0  0  0  0
  1  2  1  0
  1 26  1  0
  1 27  1  0
  1 28  1  0
  2  3  1  0
  3  4  1  0
  3 24  1  0
  3 29  1  6
  4  5  1  0
  4 30  1  0
  4 31  1  0
  5  6  1  0
  5 32  1  0
  6  7  2  0
  6 23  1  0
  7  8  1  0
  7 33  1  0
  8  9  1  0
  8 15  2  0
  9 10  2  0
  9 14  1  0
 10 11  1  0
 10 34  1  0
 11 12  2  0
 11 35  1  0
 12 13  1  0
 12 36  1  0
 13 14  2  0
 14 37  1  0
 15 16  1  0
 16 17  1  0
 16 23  2  0
 17 18  2  0
 17 22  1  0
 18 19  1  0
 18 38  1  0
 19 20  2  0
 19 39  1  0
 20 21  1  0
 20 40  1  0
 21 22  2  0
 22 41  1  0
 24 25  1  0
 25 42  1  0
 25 43  1  0
 25 44  1  0
M  END

