
     RDKit          3D

 46 48  0  0  0  0  0  0  0  0999 V2000
    2.5081    0.7646   -0.8312 C   0  0  0  0  0  0  0  0  0  0  0  0
    3.9993    0.5778   -0.6299 C   0  0  0  0  0  0  0  0  0  0  0  0
    4.1892   -0.2578    0.5050 O   0  0  0  0  0  0  0  0  0  0  0  0
    5.4383   -0.5854    0.9034 C   0  0  0  0  0  0  0  0  0  0  0  0
    6.6179   -0.1527    0.2713 C   0  0  0  0  0  0  0  0  0  0  0  0
    7.8571   -0.5523    0.7660 C   0  0  0  0  0  0  0  0  0  0  0  0
    7.9640   -1.3874    1.8938 C   0  0  0  0  0  0  0  0  0  0  0  0
    9.3150   -1.7507    2.3409 C   0  0  0  0  0  0  0  0  0  0  0  0
   10.4178   -1.2975    1.7805 N   0  0  0  0  0  0  0  0  0  0  0  0
   11.4953   -1.8433    2.4222 N   0  0  0  0  0  0  0  0  0  0  0  0
   11.0481   -2.6239    3.3739 C   0  0  0  0  0  0  0  0  0  0  0  0
   11.9668   -3.5762    4.5312 S   0  0  0  0  0  0  0  0  0  0  0  0
   13.6219   -2.7866    4.3556 C   0  0  0  0  0  0  0  0  0  0  0  0
   14.4934   -3.3399    3.2169 C   0  0  0  0  0  0  0  0  0  0  0  0
   15.4407   -4.0643    3.4674 O   0  0  0  0  0  0  0  0  0  0  0  0
   14.1104   -2.9192    1.9741 N   0  0  0  0  0  0  0  0  0  0  0  0
   14.6697   -3.2571    0.7333 C   0  0  0  0  0  0  0  0  0  0  0  0
   15.8248   -4.0499    0.5860 C   0  0  0  0  0  0  0  0  0  0  0  0
   16.3146   -4.3310   -0.6918 C   0  0  0  0  0  0  0  0  0  0  0  0
   15.6849   -3.8438   -1.8358 C   0  0  0  0  0  0  0  0  0  0  0  0
   14.5295   -3.0527   -1.6912 C   0  0  0  0  0  0  0  0  0  0  0  0
   13.8579   -2.5401   -2.8546 C   0  0  0  0  0  0  0  0  0  0  0  0
   13.3193   -2.1295   -3.7979 N   0  0  0  0  0  0  0  0  0  0  0  0
   14.0256   -2.7622   -0.4145 C   0  0  0  0  0  0  0  0  0  0  0  0
    9.6737   -2.6110    3.3757 N   0  0  0  0  0  0  0  0  0  0  0  0
    8.8433   -3.2964    4.2531 N   0  0  0  0  0  0  0  0  0  0  0  0
    6.7743   -1.8140    2.5204 C   0  0  0  0  0  0  0  0  0  0  0  0
    5.5350   -1.4188    2.0320 C   0  0  0  0  0  0  0  0  0  0  0  0
    2.3206    1.4084   -1.7043 H   0  0  0  0  0  0  0  0  0  0  0  0
    2.0518    1.2347    0.0533 H   0  0  0  0  0  0  0  0  0  0  0  0
    2.0139   -0.2043   -1.0000 H   0  0  0  0  0  0  0  0  0  0  0  0
    4.4991    1.5511   -0.4676 H   0  0  0  0  0  0  0  0  0  0  0  0
    4.4611    0.1123   -1.5206 H   0  0  0  0  0  0  0  0  0  0  0  0
    6.5822    0.4926   -0.6062 H   0  0  0  0  0  0  0  0  0  0  0  0
    8.7721   -0.2172    0.2754 H   0  0  0  0  0  0  0  0  0  0  0  0
   14.1382   -3.0197    5.2949 H   0  0  0  0  0  0  0  0  0  0  0  0
   13.4677   -1.7009    4.2710 H   0  0  0  0  0  0  0  0  0  0  0  0
   13.2538   -2.3424    1.9449 H   0  0  0  0  0  0  0  0  0  0  0  0
   16.3186   -4.4348    1.4753 H   0  0  0  0  0  0  0  0  0  0  0  0
   17.2119   -4.9466   -0.7911 H   0  0  0  0  0  0  0  0  0  0  0  0
   16.0724   -4.0660   -2.8312 H   0  0  0  0  0  0  0  0  0  0  0  0
   13.1260   -2.1510   -0.3132 H   0  0  0  0  0  0  0  0  0  0  0  0
    9.0874   -3.0556    5.2155 H   0  0  0  0  0  0  0  0  0  0  0  0
    8.9537   -4.3037    4.1249 H   0  0  0  0  0  0  0  0  0  0  0  0
    6.8271   -2.4592    3.3956 H   0  0  0  0  0  0  0  0  0  0  0  0
    4.6111   -1.7459    2.5130 H   0  0  0  0  0  0  0  0  0  0  0  0
  1  2  1  0
  1 29  1  0
  1 30  1  0
  1 31  1  0
  2  3  1  0
  2 32  1  0
  2 33  1  0
  3  4  1  0
  4  5  2  0
  4 28  1  0
  5  6  1  0
  5 34  1  0
  6  7  2  0
  6 35  1  0
  7  8  1  0
  7 27  1  0
  8  9  2  0
  8 25  1  0
  9 10  1  0
 10 11  2  0
 11 12  1  0
 11 25  1  0
 12 13  1  0
 13 14  1  0
 13 36  1  0
 13 37  1  0
 14 15  2  0
 14 16  1  0
 16 17  1  0
 16 38  1  0
 17 18  2  0
 17 24  1  0
 18 19  1  0
 18 39  1  0
 19 20  2  0
 19 40  1  0
 20 21  1  0
 20 41  1  0
 21 22  1  0
 21 24  2  0
 22 23  3  0
 24 42  1  0
 25 26  1  0
 26 43  1  0
 26 44  1  0
 27 28  2  0
 27 45  1  0
 28 46  1  0
M  END

