
     RDKit          3D

 61 64  0  0  0  0  0  0  0  0999 V2000
    4.8822   -1.3233   -2.6011 C   0  0  0  0  0  0  0  0  0  0  0  0
    5.3899   -2.7522   -2.7093 C   0  0  0  0  0  0  0  0  0  0  0  0
    6.5566   -3.0121   -2.4760 O   0  0  0  0  0  0  0  0  0  0  0  0
    4.4277   -3.8275   -3.1071 C   0  0  0  0  0  0  0  0  0  0  0  0
    3.0715   -3.5898   -3.3866 C   0  0  0  0  0  0  0  0  0  0  0  0
    2.2075   -4.6209   -3.7539 C   0  0  0  0  0  0  0  0  0  0  0  0
    2.6977   -5.9372   -3.8508 C   0  0  0  0  0  0  0  0  0  0  0  0
    1.9095   -7.0352   -4.2161 N   0  0  0  0  0  0  0  0  0  0  0  0
    0.5657   -7.0724   -4.4689 C   0  0  0  0  0  0  0  0  0  0  0  0
   -0.1923   -6.1189   -4.4586 O   0  0  0  0  0  0  0  0  0  0  0  0
    0.0404   -8.4740   -4.8163 C   0  0  0  0  0  0  0  0  0  0  0  0
   -0.1657   -9.6110   -3.3824 S   0  0  0  0  0  0  0  0  0  0  0  0
    1.4598  -10.2840   -3.2814 C   0  0  0  0  0  0  0  0  0  0  0  0
    2.5359   -9.8266   -3.8864 N   0  0  0  0  0  0  0  0  0  0  0  0
    3.5888  -10.6233   -3.5318 N   0  0  0  0  0  0  0  0  0  0  0  0
    3.1317  -11.5458   -2.7241 C   0  0  0  0  0  0  0  0  0  0  0  0
    3.9665  -12.6333   -2.1348 C   0  0  0  0  0  0  0  0  0  0  0  0
    3.8309  -12.6096   -0.7238 O   0  0  0  0  0  0  0  0  0  0  0  0
    4.5539  -13.4967    0.0263 C   0  0  0  0  0  0  0  0  0  0  0  0
    5.4376  -14.4450   -0.5007 C   0  0  0  0  0  0  0  0  0  0  0  0
    6.1246  -15.3061    0.3665 C   0  0  0  0  0  0  0  0  0  0  0  0
    5.9568  -15.2498    1.7538 C   0  0  0  0  0  0  0  0  0  0  0  0
    6.7044  -16.1745    2.6837 C   0  0  0  0  0  0  0  0  0  0  0  0
    5.0633  -14.2859    2.2592 C   0  0  0  0  0  0  0  0  0  0  0  0
    4.3718  -13.4217    1.4174 C   0  0  0  0  0  0  0  0  0  0  0  0
    1.7745  -11.3814   -2.5257 N   0  0  0  0  0  0  0  0  0  0  0  0
    0.8751  -12.1987   -1.6997 C   0  0  0  0  0  0  0  0  0  0  0  0
    0.5413  -13.5473   -2.3090 C   0  0  0  0  0  0  0  0  0  0  0  0
    0.9541  -14.7295   -1.6786 C   0  0  0  0  0  0  0  0  0  0  0  0
    0.6411  -15.9763   -2.2313 C   0  0  0  0  0  0  0  0  0  0  0  0
   -0.0844  -16.0512   -3.4224 C   0  0  0  0  0  0  0  0  0  0  0  0
   -0.5009  -14.8755   -4.0576 C   0  0  0  0  0  0  0  0  0  0  0  0
   -0.1926  -13.6318   -3.5038 C   0  0  0  0  0  0  0  0  0  0  0  0
    4.0596   -6.1863   -3.5707 C   0  0  0  0  0  0  0  0  0  0  0  0
    4.9041   -5.1485   -3.2065 C   0  0  0  0  0  0  0  0  0  0  0  0
    5.7164   -0.6762   -2.3016 H   0  0  0  0  0  0  0  0  0  0  0  0
    4.0731   -1.2449   -1.8569 H   0  0  0  0  0  0  0  0  0  0  0  0
    4.4749   -0.9733   -3.5634 H   0  0  0  0  0  0  0  0  0  0  0  0
    2.6649   -2.5786   -3.3198 H   0  0  0  0  0  0  0  0  0  0  0  0
    1.1591   -4.4261   -3.9662 H   0  0  0  0  0  0  0  0  0  0  0  0
    2.3838   -7.9511   -4.2315 H   0  0  0  0  0  0  0  0  0  0  0  0
    0.6691   -8.9832   -5.5609 H   0  0  0  0  0  0  0  0  0  0  0  0
   -0.9763   -8.3459   -5.2077 H   0  0  0  0  0  0  0  0  0  0  0  0
    5.0058  -12.4410   -2.4494 H   0  0  0  0  0  0  0  0  0  0  0  0
    3.6598  -13.6201   -2.5308 H   0  0  0  0  0  0  0  0  0  0  0  0
    5.6072  -14.5278   -1.5744 H   0  0  0  0  0  0  0  0  0  0  0  0
    6.8123  -16.0407   -0.0622 H   0  0  0  0  0  0  0  0  0  0  0  0
    7.3241  -16.8926    2.1266 H   0  0  0  0  0  0  0  0  0  0  0  0
    6.0135  -16.7512    3.3214 H   0  0  0  0  0  0  0  0  0  0  0  0
    7.3710  -15.6127    3.3599 H   0  0  0  0  0  0  0  0  0  0  0  0
    4.9087  -14.2094    3.3397 H   0  0  0  0  0  0  0  0  0  0  0  0
    3.6867  -12.6705    1.8164 H   0  0  0  0  0  0  0  0  0  0  0  0
   -0.0396  -11.6069   -1.5465 H   0  0  0  0  0  0  0  0  0  0  0  0
    1.3550  -12.3281   -0.7215 H   0  0  0  0  0  0  0  0  0  0  0  0
    1.5230  -14.6761   -0.7464 H   0  0  0  0  0  0  0  0  0  0  0  0
    0.9679  -16.8898   -1.7283 H   0  0  0  0  0  0  0  0  0  0  0  0
   -0.3289  -17.0242   -3.8559 H   0  0  0  0  0  0  0  0  0  0  0  0
   -1.0741  -14.9288   -4.9866 H   0  0  0  0  0  0  0  0  0  0  0  0
   -0.5293  -12.7167   -3.9989 H   0  0  0  0  0  0  0  0  0  0  0  0
    4.4415   -7.2086   -3.6406 H   0  0  0  0  0  0  0  0  0  0  0  0
    5.9578   -5.3329   -2.9879 H   0  0  0  0  0  0  0  0  0  0  0  0
  1  2  1  0
  1 36  1  0
  1 37  1  0
  1 38  1  0
  2  3  2  0
  2  4  1  0
  4  5  2  0
  4 35  1  0
  5  6  1  0
  5 39  1  0
  6  7  2  0
  6 40  1  0
  7  8  1  0
  7 34  1  0
  8  9  1  0
  8 41  1  0
  9 10  2  0
  9 11  1  0
 11 12  1  0
 11 42  1  0
 11 43  1  0
 12 13  1  0
 13 14  2  0
 13 26  1  0
 14 15  1  0
 15 16  2  0
 16 17  1  0
 16 26  1  0
 17 18  1  0
 17 44  1  0
 17 45  1  0
 18 19  1  0
 19 20  2  0
 19 25  1  0
 20 21  1  0
 20 46  1  0
 21 22  2  0
 21 47  1  0
 22 23  1  0
 22 24  1  0
 23 48  1  0
 23 49  1  0
 23 50  1  0
 24 25  2  0
 24 51  1  0
 25 52  1  0
 26 27  1  0
 27 28  1  0
 27 53  1  0
 27 54  1  0
 28 29  2  0
 28 33  1  0
 29 30  1  0
 29 55  1  0
 30 31  2  0
 30 56  1  0
 31 32  1  0
 31 57  1  0
 32 33  2  0
 32 58  1  0
 33 59  1  0
 34 35  2  0
 34 60  1  0
 35 61  1  0
M  END

