
     RDKit          3D

 26 27  0  0  0  0  0  0  0  0999 V2000
    1.0610   -0.0598    0.0186 N   0  0  0  0  0  0  0  0  0  0  0  0
    2.5137    0.0412    0.0824 C   0  0  1  0  0  0  0  0  0  0  0  0
    3.1051    0.0758   -1.3545 C   0  0  0  0  0  0  0  0  0  0  0  0
    3.8835    0.9554   -1.6640 O   0  0  0  0  0  0  0  0  0  0  0  0
    2.7787   -1.0060   -2.3521 C   0  0  0  0  0  0  0  0  0  0  0  0
    3.6024   -1.1003   -3.4929 C   0  0  0  0  0  0  0  0  0  0  0  0
    3.4386   -2.0125   -4.4495 N   0  0  0  0  0  0  0  0  0  0  0  0
    2.4381   -2.8866   -4.3293 C   0  0  0  0  0  0  0  0  0  0  0  0
    1.5719   -2.8697   -3.2351 C   0  0  0  0  0  0  0  0  0  0  0  0
    0.5793   -3.7651   -3.1668 F   0  0  0  0  0  0  0  0  0  0  0  0
    1.7266   -1.9277   -2.2264 C   0  0  0  0  0  0  0  0  0  0  0  0
    3.0900    1.2119    0.9164 C   0  0  0  0  0  0  0  0  0  0  0  0
    4.4273    0.6700    1.4529 C   0  0  0  0  0  0  0  0  0  0  0  0
    4.4263   -0.7403    1.2055 O   0  0  0  0  0  0  0  0  0  0  0  0
    3.1334   -1.1524    0.8549 C   0  0  0  0  0  0  0  0  0  0  0  0
    0.6555    0.7722   -0.4110 H   0  0  0  0  0  0  0  0  0  0  0  0
    0.6702   -0.1246    0.9593 H   0  0  0  0  0  0  0  0  0  0  0  0
    4.4286   -0.3929   -3.6070 H   0  0  0  0  0  0  0  0  0  0  0  0
    2.2992   -3.6326   -5.1203 H   0  0  0  0  0  0  0  0  0  0  0  0
    1.0354   -1.8790   -1.3845 H   0  0  0  0  0  0  0  0  0  0  0  0
    2.3864    1.4218    1.7376 H   0  0  0  0  0  0  0  0  0  0  0  0
    3.2143    2.1229    0.3170 H   0  0  0  0  0  0  0  0  0  0  0  0
    4.5448    0.8642    2.5348 H   0  0  0  0  0  0  0  0  0  0  0  0
    5.2941    1.1024    0.9299 H   0  0  0  0  0  0  0  0  0  0  0  0
    2.4954   -1.3598    1.7439 H   0  0  0  0  0  0  0  0  0  0  0  0
    3.2043   -2.0810    0.2697 H   0  0  0  0  0  0  0  0  0  0  0  0
  1  2  1  0
  1 16  1  0
  1 17  1  0
  2  3  1  6
  2 12  1  0
  2 15  1  0
  3  4  2  0
  3  5  1  0
  5  6  2  0
  5 11  1  0
  6  7  1  0
  6 18  1  0
  7  8  2  0
  8  9  1  0
  8 19  1  0
  9 10  1  0
  9 11  2  0
 11 20  1  0
 12 13  1  0
 12 21  1  0
 12 22  1  0
 13 14  1  0
 13 23  1  0
 13 24  1  0
 14 15  1  0
 15 25  1  0
 15 26  1  0
M  END

