
     RDKit          3D

 64 70  0  0  0  0  0  0  0  0999 V2000
    3.7591   -3.4545   -2.8296 C   0  0  0  0  0  0  0  0  0  0  0  0
    3.4365   -3.5575   -4.1407 C   0  0  0  0  0  0  0  0  0  0  0  0
    2.8641   -2.5343   -5.0163 C   0  0  0  0  0  0  0  0  0  0  0  0
    3.1796   -2.5848   -6.3921 C   0  0  0  0  0  0  0  0  0  0  0  0
    2.7421   -1.6044   -7.2775 C   0  0  0  0  0  0  0  0  0  0  0  0
    1.9631   -0.5425   -6.8027 C   0  0  0  0  0  0  0  0  0  0  0  0
    1.6071   -0.4959   -5.4561 C   0  0  0  0  0  0  0  0  0  0  0  0
    2.0231   -1.4903   -4.5526 C   0  0  0  0  0  0  0  0  0  0  0  0
    1.5555   -1.4283   -3.1386 C   0  0  0  0  0  0  0  0  0  0  0  0
    0.2519   -1.3912   -2.7610 C   0  0  0  0  0  0  0  0  0  0  0  0
   -0.9889   -1.5407   -3.5377 C   0  0  0  0  0  0  0  0  0  0  0  0
   -1.0912   -2.2351   -4.7610 C   0  0  0  0  0  0  0  0  0  0  0  0
   -2.3144   -2.3588   -5.4120 C   0  0  0  0  0  0  0  0  0  0  0  0
   -3.5054   -1.8194   -4.8787 C   0  0  0  0  0  0  0  0  0  0  0  0
   -4.7460   -1.9691   -5.6555 C   0  0  0  0  0  0  0  0  0  0  0  0
   -6.0498   -1.9301   -5.2790 C   0  0  0  0  0  0  0  0  0  0  0  0
   -7.1046   -2.0509   -6.3272 C   0  0  0  0  0  0  0  0  0  0  0  0
   -7.0766   -3.1336   -7.2243 C   0  0  0  0  0  0  0  0  0  0  0  0
   -7.9859   -3.2330   -8.2774 C   0  0  0  0  0  0  0  0  0  0  0  0
   -8.9458   -2.2321   -8.4599 C   0  0  0  0  0  0  0  0  0  0  0  0
   -8.9919   -1.1571   -7.5768 C   0  0  0  0  0  0  0  0  0  0  0  0
   -8.1023   -1.0518   -6.4859 C   0  0  0  0  0  0  0  0  0  0  0  0
   -8.2502    0.0988   -5.5929 C   0  0  0  0  0  0  0  0  0  0  0  0
   -7.9284    0.2036   -4.2817 C   0  0  0  0  0  0  0  0  0  0  0  0
   -7.3583   -0.8191   -3.4040 C   0  0  0  0  0  0  0  0  0  0  0  0
   -7.6749   -0.7660   -2.0287 C   0  0  0  0  0  0  0  0  0  0  0  0
   -7.2399   -1.7459   -1.1414 C   0  0  0  0  0  0  0  0  0  0  0  0
   -6.4624   -2.8099   -1.6139 C   0  0  0  0  0  0  0  0  0  0  0  0
   -6.1051   -2.8590   -2.9601 C   0  0  0  0  0  0  0  0  0  0  0  0
   -6.5186   -1.8652   -3.8655 C   0  0  0  0  0  0  0  0  0  0  0  0
   -3.4030   -1.1249   -3.6554 C   0  0  0  0  0  0  0  0  0  0  0  0
   -2.1798   -1.0012   -3.0044 C   0  0  0  0  0  0  0  0  0  0  0  0
    2.6109   -1.3076   -2.0910 C   0  0  0  0  0  0  0  0  0  0  0  0
    2.5821   -0.2264   -1.1922 C   0  0  0  0  0  0  0  0  0  0  0  0
    3.4920   -0.1272   -0.1396 C   0  0  0  0  0  0  0  0  0  0  0  0
    4.4535   -1.1271    0.0405 C   0  0  0  0  0  0  0  0  0  0  0  0
    4.5005   -2.2006   -0.8443 C   0  0  0  0  0  0  0  0  0  0  0  0
    3.6101   -2.3055   -1.9346 C   0  0  0  0  0  0  0  0  0  0  0  0
    4.2868   -4.3080   -2.3905 H   0  0  0  0  0  0  0  0  0  0  0  0
    3.7331   -4.4832   -4.6456 H   0  0  0  0  0  0  0  0  0  0  0  0
    3.8019   -3.4068   -6.7568 H   0  0  0  0  0  0  0  0  0  0  0  0
    3.0133   -1.6614   -8.3347 H   0  0  0  0  0  0  0  0  0  0  0  0
    1.6217    0.2405   -7.4844 H   0  0  0  0  0  0  0  0  0  0  0  0
    0.9752    0.3150   -5.0877 H   0  0  0  0  0  0  0  0  0  0  0  0
    0.0772   -1.2452   -1.6890 H   0  0  0  0  0  0  0  0  0  0  0  0
   -0.2070   -2.6950   -5.2018 H   0  0  0  0  0  0  0  0  0  0  0  0
   -2.3574   -2.9012   -6.3609 H   0  0  0  0  0  0  0  0  0  0  0  0
   -4.5708   -2.1168   -6.7273 H   0  0  0  0  0  0  0  0  0  0  0  0
   -6.3197   -3.9090   -7.0851 H   0  0  0  0  0  0  0  0  0  0  0  0
   -7.9395   -4.0859   -8.9593 H   0  0  0  0  0  0  0  0  0  0  0  0
   -9.6566   -2.2914   -9.2878 H   0  0  0  0  0  0  0  0  0  0  0  0
   -9.7412   -0.3731   -7.7174 H   0  0  0  0  0  0  0  0  0  0  0  0
   -8.7764    0.9524   -6.0337 H   0  0  0  0  0  0  0  0  0  0  0  0
   -8.2240    1.1305   -3.7786 H   0  0  0  0  0  0  0  0  0  0  0  0
   -8.2962    0.0575   -1.6658 H   0  0  0  0  0  0  0  0  0  0  0  0
   -7.5120   -1.6869   -0.0845 H   0  0  0  0  0  0  0  0  0  0  0  0
   -6.1229   -3.5925   -0.9308 H   0  0  0  0  0  0  0  0  0  0  0  0
   -5.4743   -3.6716   -3.3267 H   0  0  0  0  0  0  0  0  0  0  0  0
   -4.2872   -0.6650   -3.2146 H   0  0  0  0  0  0  0  0  0  0  0  0
   -2.1368   -0.4588   -2.0556 H   0  0  0  0  0  0  0  0  0  0  0  0
    1.8239    0.5481   -1.3295 H   0  0  0  0  0  0  0  0  0  0  0  0
    3.4448    0.7245    0.5437 H   0  0  0  0  0  0  0  0  0  0  0  0
    5.1649   -1.0680    0.8680 H   0  0  0  0  0  0  0  0  0  0  0  0
    5.2510   -2.9838   -0.7055 H   0  0  0  0  0  0  0  0  0  0  0  0
  1  2  2  0
  1 38  1  0
  1 39  1  0
  2  3  1  0
  2 40  1  0
  3  4  2  0
  3  8  1  0
  4  5  1  0
  4 41  1  0
  5  6  2  0
  5 42  1  0
  6  7  1  0
  6 43  1  0
  7  8  2  0
  7 44  1  0
  8  9  1  0
  9 10  2  0
  9 33  1  0
 10 11  1  0
 10 45  1  0
 11 12  2  0
 11 32  1  0
 12 13  1  0
 12 46  1  0
 13 14  2  0
 13 47  1  0
 14 15  1  0
 14 31  1  0
 15 16  2  0
 15 48  1  0
 16 17  1  0
 16 30  1  0
 17 18  2  0
 17 22  1  0
 18 19  1  0
 18 49  1  0
 19 20  2  0
 19 50  1  0
 20 21  1  0
 20 51  1  0
 21 22  2  0
 21 52  1  0
 22 23  1  0
 23 24  2  0
 23 53  1  0
 24 25  1  0
 24 54  1  0
 25 26  1  0
 25 30  2  0
 26 27  2  0
 26 55  1  0
 27 28  1  0
 27 56  1  0
 28 29  2  0
 28 57  1  0
 29 30  1  0
 29 58  1  0
 31 32  2  0
 31 59  1  0
 32 60  1  0
 33 34  2  0
 33 38  1  0
 34 35  1  0
 34 61  1  0
 35 36  2  0
 35 62  1  0
 36 37  1  0
 36 63  1  0
 37 38  2  0
 37 64  1  0
M  END

