
     RDKit          3D

 36 38  0  0  0  0  0  0  0  0999 V2000
    2.5480   -1.0941    1.2115 O   0  0  0  0  0  0  0  0  0  0  0  0
    2.9098   -0.3642    0.3018 C   0  0  0  0  0  0  0  0  0  0  0  0
    2.9057    0.9994    0.4162 N   0  0  0  0  0  0  0  0  0  0  0  0
    2.4665    1.6842    1.6315 C   0  0  1  0  0  0  0  0  0  0  0  0
    3.1886    3.0337    1.7832 C   0  0  0  0  0  0  0  0  0  0  0  0
    2.6632    4.0833    0.7966 C   0  0  0  0  0  0  0  0  0  0  0  0
    1.2223    4.2199    0.9393 N   0  0  0  0  0  0  0  0  0  0  0  0
    0.5025    2.9798    0.6693 C   0  0  0  0  0  0  0  0  0  0  0  0
    0.9389    1.9012    1.6616 C   0  0  0  0  0  0  0  0  0  0  0  0
    3.4390   -0.8860   -1.0357 C   0  0  2  0  0  0  0  0  0  0  0  0
    3.1681   -2.3942   -1.2859 C   0  0  0  0  0  0  0  0  0  0  0  0
    4.5973   -2.9692   -1.5793 C   0  0  2  0  0  0  0  0  0  0  0  0
    5.3646   -2.8907   -0.2692 C   0  0  0  0  0  0  0  0  0  0  0  0
    5.6115   -1.5944   -0.0225 C   0  0  0  0  0  0  0  0  0  0  0  0
    5.0154   -0.7946   -1.1713 C   0  0  1  0  0  0  0  0  0  0  0  0
    5.2319   -1.7822   -2.3396 C   0  0  0  0  0  0  0  0  0  0  0  0
    3.1718    1.5531   -0.3888 H   0  0  0  0  0  0  0  0  0  0  0  0
    2.7372    1.0171    2.4631 H   0  0  0  0  0  0  0  0  0  0  0  0
    4.2760    2.8983    1.6613 H   0  0  0  0  0  0  0  0  0  0  0  0
    3.0125    3.4046    2.8057 H   0  0  0  0  0  0  0  0  0  0  0  0
    2.9696    3.8037   -0.2429 H   0  0  0  0  0  0  0  0  0  0  0  0
    3.1402    5.0559    1.0005 H   0  0  0  0  0  0  0  0  0  0  0  0
    0.8716    4.9775    0.3574 H   0  0  0  0  0  0  0  0  0  0  0  0
    0.6685    2.6051   -0.3689 H   0  0  0  0  0  0  0  0  0  0  0  0
   -0.5791    3.1673    0.7665 H   0  0  0  0  0  0  0  0  0  0  0  0
    0.4314    0.9460    1.4569 H   0  0  0  0  0  0  0  0  0  0  0  0
    0.6521    2.2190    2.6782 H   0  0  0  0  0  0  0  0  0  0  0  0
    2.9965   -0.2740   -1.8401 H   0  0  0  0  0  0  0  0  0  0  0  0
    2.5043   -2.5408   -2.1521 H   0  0  0  0  0  0  0  0  0  0  0  0
    2.7020   -2.8594   -0.4074 H   0  0  0  0  0  0  0  0  0  0  0  0
    4.5942   -3.9458   -2.0829 H   0  0  0  0  0  0  0  0  0  0  0  0
    5.5517   -3.7341    0.3986 H   0  0  0  0  0  0  0  0  0  0  0  0
    6.0393   -1.1650    0.8851 H   0  0  0  0  0  0  0  0  0  0  0  0
    5.3916    0.2303   -1.2995 H   0  0  0  0  0  0  0  0  0  0  0  0
    6.2964   -1.9369   -2.5714 H   0  0  0  0  0  0  0  0  0  0  0  0
    4.6888   -1.5050   -3.2585 H   0  0  0  0  0  0  0  0  0  0  0  0
  1  2  2  0
  2  3  1  0
  2 10  1  0
  3  4  1  0
  3 17  1  0
  4  5  1  0
  4  9  1  0
  4 18  1  1
  5  6  1  0
  5 19  1  0
  5 20  1  0
  6  7  1  0
  6 21  1  0
  6 22  1  0
  7  8  1  0
  7 23  1  0
  8  9  1  0
  8 24  1  0
  8 25  1  0
  9 26  1  0
  9 27  1  0
 10 11  1  0
 10 15  1  0
 10 28  1  6
 11 12  1  0
 11 29  1  0
 11 30  1  0
 12 13  1  0
 12 16  1  0
 12 31  1  6
 13 14  2  0
 13 32  1  0
 14 15  1  0
 14 33  1  0
 15 16  1  0
 15 34  1  6
 16 35  1  0
 16 36  1  0
M  END

