
     RDKit          3D

102103  0  0  0  0  0  0  0  0999 V2000
    2.0384   -0.5366    0.7941 C   0  0  0  0  0  0  0  0  0  0  0  0
    1.8257    0.6170    1.7874 C   0  0  1  0  0  0  0  0  0  0  0  0
    1.5833    1.9209    1.0079 C   0  0  0  0  0  0  0  0  0  0  0  0
    0.6024    0.3188    2.6731 C   0  0  0  0  0  0  0  0  0  0  0  0
    3.0605    0.7472    2.7255 C   0  0  0  0  0  0  0  0  0  0  0  0
    4.3388    1.0308    2.0823 N   0  0  0  0  0  0  0  0  0  0  0  0
    4.7676    2.4275    2.1101 C   0  0  0  0  0  0  0  0  0  0  0  0
    5.6175    2.7718    0.8744 C   0  0  0  0  0  0  0  0  0  0  0  0
    6.5669    3.8724    1.0502 N   0  0  0  0  0  0  0  0  0  0  0  0
    5.9343    5.1819    1.0709 C   0  0  0  0  0  0  0  0  0  0  0  0
    5.3290    5.5600    2.4288 C   0  0  0  0  0  0  0  0  0  0  0  0
    4.1811    5.9373    2.5256 O   0  0  0  0  0  0  0  0  0  0  0  0
    6.2517    5.4751    3.6318 C   0  0  0  0  0  0  0  0  0  0  0  0
    5.5035    5.6169    4.9570 C   0  0  0  0  0  0  0  0  0  0  0  0
    6.3609    5.4055    6.1125 N   0  0  0  0  0  0  0  0  0  0  0  0
    6.9442    6.4226    6.8745 C   0  0  0  0  0  0  0  0  0  0  0  0
    6.8204    7.6091    6.6852 O   0  0  0  0  0  0  0  0  0  0  0  0
    7.7360    5.7296    7.9526 C   0  0  0  0  0  0  0  0  0  0  0  0
    7.6060    4.4063    7.7957 C   0  0  0  0  0  0  0  0  0  0  0  0
    6.7213    4.1489    6.6045 C   0  0  0  0  0  0  0  0  0  0  0  0
    6.3759    3.0850    6.1455 O   0  0  0  0  0  0  0  0  0  0  0  0
    7.7176    3.7892    0.1487 C   0  0  0  0  0  0  0  0  0  0  0  0
    8.6724    2.6059    0.3909 C   0  0  0  0  0  0  0  0  0  0  0  0
    8.2435    1.2909   -0.1091 N   0  0  0  0  0  0  0  0  0  0  0  0
    8.1082    1.1993   -1.5458 C   0  0  0  0  0  0  0  0  0  0  0  0
    9.3912    1.3393   -2.3784 C   0  0  0  0  0  0  0  0  0  0  0  0
   10.5008    1.5046   -1.9253 O   0  0  0  0  0  0  0  0  0  0  0  0
    9.0890    1.2481   -3.6810 O   0  0  0  0  0  0  0  0  0  0  0  0
   10.0987    1.3284   -4.7492 C   0  0  1  0  0  0  0  0  0  0  0  0
   11.1005    0.1785   -4.6046 C   0  0  0  0  0  0  0  0  0  0  0  0
    9.2643    1.1670   -6.0206 C   0  0  0  0  0  0  0  0  0  0  0  0
   10.7829    2.6986   -4.7159 C   0  0  0  0  0  0  0  0  0  0  0  0
    8.9552    0.1630    0.5098 C   0  0  0  0  0  0  0  0  0  0  0  0
    8.2552   -1.2055    0.4340 C   0  0  0  0  0  0  0  0  0  0  0  0
    7.1615   -1.4118    1.3773 N   0  0  0  0  0  0  0  0  0  0  0  0
    7.0311   -2.7453    1.8985 C   0  0  0  0  0  0  0  0  0  0  0  0
    6.5843   -3.8167    0.8903 C   0  0  0  0  0  0  0  0  0  0  0  0
    6.4077   -3.6149   -0.2886 O   0  0  0  0  0  0  0  0  0  0  0  0
    6.4359   -4.9963    1.5114 O   0  0  0  0  0  0  0  0  0  0  0  0
    6.0348   -6.2261    0.8110 C   0  0  1  0  0  0  0  0  0  0  0  0
    7.0832   -6.5877   -0.2460 C   0  0  0  0  0  0  0  0  0  0  0  0
    6.0107   -7.2665    1.9316 C   0  0  0  0  0  0  0  0  0  0  0  0
    4.6401   -6.0477    0.2027 C   0  0  0  0  0  0  0  0  0  0  0  0
    5.8958   -0.7260    1.1177 C   0  0  0  0  0  0  0  0  0  0  0  0
    5.4403    0.1015    2.3365 C   0  0  0  0  0  0  0  0  0  0  0  0
    1.1681   -0.6494    0.1267 H   0  0  0  0  0  0  0  0  0  0  0  0
    2.1833   -1.4965    1.3188 H   0  0  0  0  0  0  0  0  0  0  0  0
    2.9263   -0.3541    0.1707 H   0  0  0  0  0  0  0  0  0  0  0  0
    0.6887    1.8322    0.3693 H   0  0  0  0  0  0  0  0  0  0  0  0
    2.4362    2.1576    0.3535 H   0  0  0  0  0  0  0  0  0  0  0  0
    1.4236    2.7758    1.6861 H   0  0  0  0  0  0  0  0  0  0  0  0
   -0.3093    0.2070    2.0638 H   0  0  0  0  0  0  0  0  0  0  0  0
    0.4223    1.1312    3.3969 H   0  0  0  0  0  0  0  0  0  0  0  0
    0.7377   -0.6148    3.2450 H   0  0  0  0  0  0  0  0  0  0  0  0
    3.1494   -0.2035    3.2789 H   0  0  0  0  0  0  0  0  0  0  0  0
    2.8303    1.5181    3.4895 H   0  0  0  0  0  0  0  0  0  0  0  0
    5.3676    2.6346    3.0232 H   0  0  0  0  0  0  0  0  0  0  0  0
    3.8799    3.0728    2.1578 H   0  0  0  0  0  0  0  0  0  0  0  0
    4.9450    2.9558    0.0060 H   0  0  0  0  0  0  0  0  0  0  0  0
    6.2186    1.8944    0.6241 H   0  0  0  0  0  0  0  0  0  0  0  0
    5.1280    5.2953    0.3164 H   0  0  0  0  0  0  0  0  0  0  0  0
    6.6969    5.9512    0.8546 H   0  0  0  0  0  0  0  0  0  0  0  0
    7.0111    6.2725    3.5277 H   0  0  0  0  0  0  0  0  0  0  0  0
    6.8010    4.5230    3.5756 H   0  0  0  0  0  0  0  0  0  0  0  0
    4.6837    4.8857    5.0016 H   0  0  0  0  0  0  0  0  0  0  0  0
    5.0637    6.6185    5.0502 H   0  0  0  0  0  0  0  0  0  0  0  0
    8.2968    6.2871    8.7023 H   0  0  0  0  0  0  0  0  0  0  0  0
    8.0323    3.5933    8.3829 H   0  0  0  0  0  0  0  0  0  0  0  0
    8.3216    4.6964    0.3090 H   0  0  0  0  0  0  0  0  0  0  0  0
    7.4097    3.8250   -0.9214 H   0  0  0  0  0  0  0  0  0  0  0  0
    8.8051    2.5151    1.4802 H   0  0  0  0  0  0  0  0  0  0  0  0
    9.6588    2.8853   -0.0293 H   0  0  0  0  0  0  0  0  0  0  0  0
    7.4004    1.9564   -1.9201 H   0  0  0  0  0  0  0  0  0  0  0  0
    7.6544    0.2356   -1.8265 H   0  0  0  0  0  0  0  0  0  0  0  0
   10.5743   -0.7886   -4.5823 H   0  0  0  0  0  0  0  0  0  0  0  0
   11.6942    0.2804   -3.6873 H   0  0  0  0  0  0  0  0  0  0  0  0
   11.7841    0.1739   -5.4679 H   0  0  0  0  0  0  0  0  0  0  0  0
    8.7364    0.2014   -6.0175 H   0  0  0  0  0  0  0  0  0  0  0  0
    9.9117    1.2088   -6.9097 H   0  0  0  0  0  0  0  0  0  0  0  0
    8.5143    1.9687   -6.0963 H   0  0  0  0  0  0  0  0  0  0  0  0
   11.3733    2.8268   -3.7998 H   0  0  0  0  0  0  0  0  0  0  0  0
   10.0333    3.5036   -4.7720 H   0  0  0  0  0  0  0  0  0  0  0  0
   11.4532    2.7978   -5.5840 H   0  0  0  0  0  0  0  0  0  0  0  0
    9.0921    0.4030    1.5754 H   0  0  0  0  0  0  0  0  0  0  0  0
    9.9685    0.0505    0.0742 H   0  0  0  0  0  0  0  0  0  0  0  0
    9.0333   -1.9474    0.6774 H   0  0  0  0  0  0  0  0  0  0  0  0
    7.9533   -1.4365   -0.6072 H   0  0  0  0  0  0  0  0  0  0  0  0
    6.3118   -2.7664    2.7347 H   0  0  0  0  0  0  0  0  0  0  0  0
    7.9847   -3.0937    2.3339 H   0  0  0  0  0  0  0  0  0  0  0  0
    8.0814   -6.6631    0.2133 H   0  0  0  0  0  0  0  0  0  0  0  0
    7.1167   -5.8368   -1.0456 H   0  0  0  0  0  0  0  0  0  0  0  0
    6.8388   -7.5653   -0.6904 H   0  0  0  0  0  0  0  0  0  0  0  0
    7.0037   -7.3572    2.3975 H   0  0  0  0  0  0  0  0  0  0  0  0
    5.7203   -8.2506    1.5334 H   0  0  0  0  0  0  0  0  0  0  0  0
    5.2899   -6.9786    2.7118 H   0  0  0  0  0  0  0  0  0  0  0  0
    4.6470   -5.2920   -0.5929 H   0  0  0  0  0  0  0  0  0  0  0  0
    3.9198   -5.7413    0.9774 H   0  0  0  0  0  0  0  0  0  0  0  0
    4.2966   -7.0041   -0.2218 H   0  0  0  0  0  0  0  0  0  0  0  0
    5.1018   -1.4367    0.8213 H   0  0  0  0  0  0  0  0  0  0  0  0
    6.0256   -0.0508    0.2632 H   0  0  0  0  0  0  0  0  0  0  0  0
    6.3238    0.6565    2.6990 H   0  0  0  0  0  0  0  0  0  0  0  0
    5.1714   -0.5863    3.1592 H   0  0  0  0  0  0  0  0  0  0  0  0
  2  1  1  6
  1 46  1  0
  1 47  1  0
  1 48  1  0
  2  3  1  0
  2  4  1  0
  2  5  1  0
  3 49  1  0
  3 50  1  0
  3 51  1  0
  4 52  1  0
  4 53  1  0
  4 54  1  0
  5  6  1  0
  5 55  1  0
  5 56  1  0
  6  7  1  0
  6 45  1  0
  7  8  1  0
  7 57  1  0
  7 58  1  0
  8  9  1  0
  8 59  1  0
  8 60  1  0
  9 10  1  0
  9 22  1  0
 10 11  1  0
 10 61  1  0
 10 62  1  0
 11 12  2  0
 11 13  1  0
 13 14  1  0
 13 63  1  0
 13 64  1  0
 14 15  1  0
 14 65  1  0
 14 66  1  0
 15 16  1  0
 15 20  1  0
 16 17  2  0
 16 18  1  0
 18 19  2  0
 18 67  1  0
 19 20  1  0
 19 68  1  0
 20 21  2  0
 22 23  1  0
 22 69  1  0
 22 70  1  0
 23 24  1  0
 23 71  1  0
 23 72  1  0
 24 25  1  0
 24 33  1  0
 25 26  1  0
 25 73  1  0
 25 74  1  0
 26 27  2  0
 26 28  1  0
 29 28  1  1
 29 30  1  0
 29 31  1  0
 29 32  1  0
 30 75  1  0
 30 76  1  0
 30 77  1  0
 31 78  1  0
 31 79  1  0
 31 80  1  0
 32 81  1  0
 32 82  1  0
 32 83  1  0
 33 34  1  0
 33 84  1  0
 33 85  1  0
 34 35  1  0
 34 86  1  0
 34 87  1  0
 35 36  1  0
 35 44  1  0
 36 37  1  0
 36 88  1  0
 36 89  1  0
 37 38  2  0
 37 39  1  0
 40 39  1  1
 40 41  1  0
 40 42  1  0
 40 43  1  0
 41 90  1  0
 41 91  1  0
 41 92  1  0
 42 93  1  0
 42 94  1  0
 42 95  1  0
 43 96  1  0
 43 97  1  0
 43 98  1  0
 44 45  1  0
 44 99  1  0
 44100  1  0
 45101  1  0
 45102  1  0
M  END

