
     RDKit          3D

 40 42  0  0  0  0  0  0  0  0999 V2000
    2.0124    4.0931    1.7514 C   0  0  0  0  0  0  0  0  0  0  0  0
    3.2425    3.9205    1.0787 O   0  0  0  0  0  0  0  0  0  0  0  0
    3.4251    2.8243    0.2991 C   0  0  0  0  0  0  0  0  0  0  0  0
    2.5002    1.7865    0.1479 C   0  0  0  0  0  0  0  0  0  0  0  0
    2.8065    0.7060   -0.6914 C   0  0  0  0  0  0  0  0  0  0  0  0
    4.0139    0.6487   -1.3726 C   0  0  0  0  0  0  0  0  0  0  0  0
    4.9727    1.6786   -1.2373 C   0  0  0  0  0  0  0  0  0  0  0  0
    6.2636    1.6666   -1.9329 C   0  0  0  0  0  0  0  0  0  0  0  0
    6.6749    0.7432   -2.8287 C   0  0  0  0  0  0  0  0  0  0  0  0
    7.9676    0.7200   -3.5220 C   0  0  0  0  0  0  0  0  0  0  0  0
    8.9854    1.7019   -3.3059 C   0  0  0  0  0  0  0  0  0  0  0  0
   10.1687    1.6121   -3.9945 C   0  0  0  0  0  0  0  0  0  0  0  0
   10.3773    0.5484   -4.9147 C   0  0  0  0  0  0  0  0  0  0  0  0
   11.5648    0.3643   -5.6778 C   0  0  0  0  0  0  0  0  0  0  0  0
   12.8979    1.4912   -5.5198 Cl  0  0  0  0  0  0  0  0  0  0  0  0
   11.6886   -0.6966   -6.5500 C   0  0  0  0  0  0  0  0  0  0  0  0
   10.6237   -1.6117   -6.6875 C   0  0  0  0  0  0  0  0  0  0  0  0
   10.7856   -2.9626   -7.8002 Cl  0  0  0  0  0  0  0  0  0  0  0  0
    9.4365   -1.4929   -5.9743 C   0  0  0  0  0  0  0  0  0  0  0  0
    8.4166   -2.3523   -6.0930 O   0  0  0  0  0  0  0  0  0  0  0  0
    9.2996   -0.3884   -5.0625 C   0  0  0  0  0  0  0  0  0  0  0  0
    8.1432   -0.2812   -4.3751 N   0  0  0  0  0  0  0  0  0  0  0  0
    4.6563    2.7597   -0.3927 C   0  0  0  0  0  0  0  0  0  0  0  0
    5.5254    3.8338   -0.3083 O   0  0  0  0  0  0  0  0  0  0  0  0
    6.1904    4.0385    0.8738 C   0  0  1  0  0  0  0  0  0  0  0  0
    7.2626    3.2061    0.9490 F   0  0  0  0  0  0  0  0  0  0  0  0
    6.6526    5.2942    0.8523 F   0  0  0  0  0  0  0  0  0  0  0  0
    2.0816    5.0502    2.2847 H   0  0  0  0  0  0  0  0  0  0  0  0
    1.8280    3.2861    2.4827 H   0  0  0  0  0  0  0  0  0  0  0  0
    1.1659    4.1358    1.0439 H   0  0  0  0  0  0  0  0  0  0  0  0
    1.5446    1.8131    0.6711 H   0  0  0  0  0  0  0  0  0  0  0  0
    2.0795   -0.1015   -0.8065 H   0  0  0  0  0  0  0  0  0  0  0  0
    4.2299   -0.2050   -2.0157 H   0  0  0  0  0  0  0  0  0  0  0  0
    6.9255    2.4937   -1.6735 H   0  0  0  0  0  0  0  0  0  0  0  0
    6.0325   -0.0929   -3.1164 H   0  0  0  0  0  0  0  0  0  0  0  0
    8.8262    2.5163   -2.5981 H   0  0  0  0  0  0  0  0  0  0  0  0
   10.9609    2.3477   -3.8478 H   0  0  0  0  0  0  0  0  0  0  0  0
   12.5985   -0.8355   -7.1332 H   0  0  0  0  0  0  0  0  0  0  0  0
    8.6674   -3.0312   -6.7415 H   0  0  0  0  0  0  0  0  0  0  0  0
    5.5597    3.8781    1.7620 H   0  0  0  0  0  0  0  0  0  0  0  0
  1  2  1  0
  1 28  1  0
  1 29  1  0
  1 30  1  0
  2  3  1  0
  3  4  2  0
  3 23  1  0
  4  5  1  0
  4 31  1  0
  5  6  2  0
  5 32  1  0
  6  7  1  0
  6 33  1  0
  7  8  1  0
  7 23  2  0
  8  9  2  0
  8 34  1  0
  9 10  1  0
  9 35  1  0
 10 11  2  0
 10 22  1  0
 11 12  1  0
 11 36  1  0
 12 13  2  0
 12 37  1  0
 13 14  1  0
 13 21  1  0
 14 15  1  0
 14 16  2  0
 16 17  1  0
 16 38  1  0
 17 18  1  0
 17 19  2  0
 19 20  1  0
 19 21  1  0
 20 39  1  0
 21 22  2  0
 23 24  1  0
 24 25  1  0
 25 26  1  0
 25 27  1  0
 25 40  1  1
M  END

