
     RDKit          3D

 50 53  0  0  0  0  0  0  0  0999 V2000
    2.7663    2.5342    2.9688 C   0  0  0  0  0  0  0  0  0  0  0  0
    3.7324    1.8651    2.0208 C   0  0  0  0  0  0  0  0  0  0  0  0
    5.1042    1.7980    2.3086 C   0  0  0  0  0  0  0  0  0  0  0  0
    6.0007    1.2129    1.4113 C   0  0  0  0  0  0  0  0  0  0  0  0
    5.5627    0.6603    0.1979 C   0  0  0  0  0  0  0  0  0  0  0  0
    6.5627    0.0138   -0.7574 C   0  0  0  0  0  0  0  0  0  0  0  0
    6.9206   -1.3665   -0.4877 N   0  0  0  0  0  0  0  0  0  0  0  0
    7.3894   -1.8062    0.8040 C   0  0  0  0  0  0  0  0  0  0  0  0
    7.7352   -3.2552    0.4759 C   0  0  0  0  0  0  0  0  0  0  0  0
    6.7324   -3.6363   -0.4569 O   0  0  0  0  0  0  0  0  0  0  0  0
    6.3260   -2.5002   -1.1981 C   0  0  1  0  0  0  0  0  0  0  0  0
    6.7282   -2.5285   -2.2333 H   0  0  0  0  0  0  0  0  0  0  0  0
    4.8229   -2.5318   -1.3147 C   0  0  0  0  0  0  0  0  0  0  0  0
    3.8813   -3.1348   -0.5014 C   0  0  0  0  0  0  0  0  0  0  0  0
    2.6938   -2.8059   -1.0692 N   0  0  0  0  0  0  0  0  0  0  0  0
    1.3446   -3.2035   -0.6833 C   0  0  0  0  0  0  0  0  0  0  0  0
    1.0060   -4.6399   -1.0361 C   0  0  0  0  0  0  0  0  0  0  0  0
    0.5218   -5.5178   -0.0574 C   0  0  0  0  0  0  0  0  0  0  0  0
    0.1903   -6.8309   -0.4004 C   0  0  0  0  0  0  0  0  0  0  0  0
    0.3459   -7.2737   -1.7158 C   0  0  0  0  0  0  0  0  0  0  0  0
    0.8321   -6.4125   -2.7128 C   0  0  0  0  0  0  0  0  0  0  0  0
    0.9981   -6.8760   -4.1400 C   0  0  0  0  0  0  0  0  0  0  0  0
    1.1556   -5.0960   -2.3527 C   0  0  0  0  0  0  0  0  0  0  0  0
    2.8839   -2.0580   -2.1711 N   0  0  0  0  0  0  0  0  0  0  0  0
    4.1650   -1.8959   -2.3219 N   0  0  0  0  0  0  0  0  0  0  0  0
    4.1913    0.7296   -0.0926 C   0  0  0  0  0  0  0  0  0  0  0  0
    3.2964    1.3211    0.8025 C   0  0  0  0  0  0  0  0  0  0  0  0
    3.1131    2.4725    4.0119 H   0  0  0  0  0  0  0  0  0  0  0  0
    1.7648    2.0798    2.9144 H   0  0  0  0  0  0  0  0  0  0  0  0
    2.6491    3.6057    2.7280 H   0  0  0  0  0  0  0  0  0  0  0  0
    5.4787    2.2177    3.2473 H   0  0  0  0  0  0  0  0  0  0  0  0
    7.0671    1.1947    1.6575 H   0  0  0  0  0  0  0  0  0  0  0  0
    7.4877    0.6229   -0.7425 H   0  0  0  0  0  0  0  0  0  0  0  0
    6.1716    0.0588   -1.7851 H   0  0  0  0  0  0  0  0  0  0  0  0
    6.6307   -1.7450    1.6151 H   0  0  0  0  0  0  0  0  0  0  0  0
    8.2705   -1.2249    1.1300 H   0  0  0  0  0  0  0  0  0  0  0  0
    7.6824   -3.9384    1.3371 H   0  0  0  0  0  0  0  0  0  0  0  0
    8.7429   -3.3269    0.0231 H   0  0  0  0  0  0  0  0  0  0  0  0
    3.9697   -3.7586    0.3824 H   0  0  0  0  0  0  0  0  0  0  0  0
    0.6791   -2.5028   -1.2090 H   0  0  0  0  0  0  0  0  0  0  0  0
    1.2266   -3.0343    0.3971 H   0  0  0  0  0  0  0  0  0  0  0  0
    0.4033   -5.1748    0.9745 H   0  0  0  0  0  0  0  0  0  0  0  0
   -0.1863   -7.5153    0.3640 H   0  0  0  0  0  0  0  0  0  0  0  0
    0.0887   -8.3047   -1.9745 H   0  0  0  0  0  0  0  0  0  0  0  0
    0.7879   -7.9506   -4.2444 H   0  0  0  0  0  0  0  0  0  0  0  0
    2.0226   -6.6931   -4.5031 H   0  0  0  0  0  0  0  0  0  0  0  0
    0.3168   -6.3333   -4.8168 H   0  0  0  0  0  0  0  0  0  0  0  0
    1.5387   -4.4077   -3.1126 H   0  0  0  0  0  0  0  0  0  0  0  0
    3.8182    0.3190   -1.0333 H   0  0  0  0  0  0  0  0  0  0  0  0
    2.2337    1.3654    0.5443 H   0  0  0  0  0  0  0  0  0  0  0  0
  1  2  1  0
  1 28  1  0
  1 29  1  0
  1 30  1  0
  2  3  2  0
  2 27  1  0
  3  4  1  0
  3 31  1  0
  4  5  2  0
  4 32  1  0
  5  6  1  0
  5 26  1  0
  6  7  1  0
  6 33  1  0
  6 34  1  0
  7  8  1  0
  7 11  1  0
  8  9  1  0
  8 35  1  0
  8 36  1  0
  9 10  1  0
  9 37  1  0
  9 38  1  0
 10 11  1  0
 11 12  1  6
 11 13  1  0
 13 14  2  0
 13 25  1  0
 14 15  1  0
 14 39  1  0
 15 16  1  0
 15 24  1  0
 16 17  1  0
 16 40  1  0
 16 41  1  0
 17 18  2  0
 17 23  1  0
 18 19  1  0
 18 42  1  0
 19 20  2  0
 19 43  1  0
 20 21  1  0
 20 44  1  0
 21 22  1  0
 21 23  2  0
 22 45  1  0
 22 46  1  0
 22 47  1  0
 23 48  1  0
 24 25  2  0
 26 27  2  0
 26 49  1  0
 27 50  1  0
M  END

