
     RDKit          3D

 31 32  0  0  0  0  0  0  0  0999 V2000
    1.2636    0.7264   -0.0728 F   0  0  0  0  0  0  0  0  0  0  0  0
    2.5937    0.3423    0.0247 C   0  0  1  0  0  0  0  0  0  0  0  0
    2.8316    0.2731    1.3836 F   0  0  0  0  0  0  0  0  0  0  0  0
    2.7907   -1.0316   -0.5949 C   0  0  0  0  0  0  0  0  0  0  0  0
    2.2025   -2.2340    0.1937 C   0  0  1  0  0  0  0  0  0  0  0  0
    0.6649   -2.2528    0.2927 C   0  0  0  0  0  0  0  0  0  0  0  0
   -0.0014   -2.6318   -1.0367 C   0  0  0  0  0  0  0  0  0  0  0  0
    0.5692   -3.9504   -1.5737 C   0  0  0  0  0  0  0  0  0  0  0  0
    2.0969   -3.8899   -1.6459 C   0  0  0  0  0  0  0  0  0  0  0  0
    2.6422   -3.5237   -0.3432 N   0  0  0  0  0  0  0  0  0  0  0  0
    3.4156    1.4380   -0.5794 C   0  0  0  0  0  0  0  0  0  0  0  0
    4.6867    1.4535   -1.1335 C   0  0  0  0  0  0  0  0  0  0  0  0
    4.9849    2.8039   -1.4692 C   0  0  0  0  0  0  0  0  0  0  0  0
    3.8882    3.5682   -1.1095 C   0  0  0  0  0  0  0  0  0  0  0  0
    2.9521    2.7311   -0.5687 N   0  0  0  0  0  0  0  0  0  0  0  0
    2.0288    2.9902   -0.2447 H   0  0  0  0  0  0  0  0  0  0  0  0
    3.8780   -1.1908   -0.6805 H   0  0  0  0  0  0  0  0  0  0  0  0
    2.4022   -0.9805   -1.6229 H   0  0  0  0  0  0  0  0  0  0  0  0
    2.6027   -2.1586    1.2170 H   0  0  0  0  0  0  0  0  0  0  0  0
    0.2953   -1.2832    0.6534 H   0  0  0  0  0  0  0  0  0  0  0  0
    0.3996   -3.0082    1.0515 H   0  0  0  0  0  0  0  0  0  0  0  0
    0.1561   -1.8290   -1.7798 H   0  0  0  0  0  0  0  0  0  0  0  0
   -1.0931   -2.7098   -0.9019 H   0  0  0  0  0  0  0  0  0  0  0  0
    0.1546   -4.1837   -2.5689 H   0  0  0  0  0  0  0  0  0  0  0  0
    0.2823   -4.7746   -0.8975 H   0  0  0  0  0  0  0  0  0  0  0  0
    2.3888   -3.1925   -2.4652 H   0  0  0  0  0  0  0  0  0  0  0  0
    2.5028   -4.8768   -1.9234 H   0  0  0  0  0  0  0  0  0  0  0  0
    3.6571   -3.5986   -0.3337 H   0  0  0  0  0  0  0  0  0  0  0  0
    5.3355    0.5920   -1.2762 H   0  0  0  0  0  0  0  0  0  0  0  0
    5.8996    3.1750   -1.9272 H   0  0  0  0  0  0  0  0  0  0  0  0
    3.7030    4.6357   -1.2071 H   0  0  0  0  0  0  0  0  0  0  0  0
  2  1  1  1
  2  3  1  0
  2  4  1  0
  2 11  1  0
  4  5  1  0
  4 17  1  0
  4 18  1  0
  5  6  1  0
  5 10  1  0
  5 19  1  1
  6  7  1  0
  6 20  1  0
  6 21  1  0
  7  8  1  0
  7 22  1  0
  7 23  1  0
  8  9  1  0
  8 24  1  0
  8 25  1  0
  9 10  1  0
  9 26  1  0
  9 27  1  0
 10 28  1  0
 11 12  2  0
 11 15  1  0
 12 13  1  0
 12 29  1  0
 13 14  2  0
 13 30  1  0
 14 15  1  0
 14 31  1  0
 15 16  1  0
M  END

