
     RDKit          3D

 56 60  0  0  0  0  0  0  0  0999 V2000
    2.1913    0.0728   -0.9518 C   0  0  0  0  0  0  0  0  0  0  0  0
    3.2869    0.7870   -0.1779 C   0  0  0  0  0  0  0  0  0  0  0  0
    3.9488   -0.0949    0.7471 O   0  0  0  0  0  0  0  0  0  0  0  0
    3.3965   -0.2484    1.9655 C   0  0  0  0  0  0  0  0  0  0  0  0
    2.3840    0.3138    2.3178 O   0  0  0  0  0  0  0  0  0  0  0  0
    4.1764   -1.1857    2.8301 C   0  0  0  0  0  0  0  0  0  0  0  0
    3.7110   -1.4238    4.1320 C   0  0  0  0  0  0  0  0  0  0  0  0
    4.4060   -2.2861    4.9780 C   0  0  0  0  0  0  0  0  0  0  0  0
    5.5748   -2.9298    4.5424 C   0  0  0  0  0  0  0  0  0  0  0  0
    6.2799   -3.9187    5.4624 C   0  0  1  0  0  0  0  0  0  0  0  0
    5.8601   -5.3908    5.2084 C   0  0  0  0  0  0  0  0  0  0  0  0
    7.1348   -6.0028    4.6361 C   0  0  0  0  0  0  0  0  0  0  0  0
    7.2031   -7.3731    4.1134 C   0  0  0  0  0  0  0  0  0  0  0  0
    6.0723   -8.1726    4.2874 C   0  0  0  0  0  0  0  0  0  0  0  0
    6.0179   -9.5144    3.8558 C   0  0  0  0  0  0  0  0  0  0  0  0
    7.1043  -10.0802    3.2291 C   0  0  0  0  0  0  0  0  0  0  0  0
    8.2829   -9.3166    3.0029 C   0  0  0  0  0  0  0  0  0  0  0  0
    9.3989   -9.9013    2.3406 C   0  0  0  0  0  0  0  0  0  0  0  0
   10.5450   -9.1762    2.0983 C   0  0  0  0  0  0  0  0  0  0  0  0
   10.6134   -7.8254    2.5099 C   0  0  0  0  0  0  0  0  0  0  0  0
    9.5509   -7.2282    3.1607 C   0  0  0  0  0  0  0  0  0  0  0  0
    8.3523   -7.9455    3.4376 C   0  0  0  0  0  0  0  0  0  0  0  0
    8.1317   -5.1790    4.7204 N   0  0  0  0  0  0  0  0  0  0  0  0
    7.7347   -3.9932    5.2424 N   0  0  0  0  0  0  0  0  0  0  0  0
    8.6649   -3.0261    5.6174 C   0  0  0  0  0  0  0  0  0  0  0  0
   10.0497   -3.2672    5.4879 C   0  0  0  0  0  0  0  0  0  0  0  0
   10.9756   -2.2998    5.8684 C   0  0  0  0  0  0  0  0  0  0  0  0
   10.5419   -1.0770    6.3914 C   0  0  0  0  0  0  0  0  0  0  0  0
   11.7119    0.1352    6.8706 Cl  0  0  0  0  0  0  0  0  0  0  0  0
    9.1765   -0.8252    6.5316 C   0  0  0  0  0  0  0  0  0  0  0  0
    8.2435   -1.7892    6.1472 C   0  0  0  0  0  0  0  0  0  0  0  0
    6.0385   -2.6865    3.2411 C   0  0  0  0  0  0  0  0  0  0  0  0
    5.3474   -1.8229    2.3911 C   0  0  0  0  0  0  0  0  0  0  0  0
    1.7607    0.7534   -1.7037 H   0  0  0  0  0  0  0  0  0  0  0  0
    1.3827   -0.2477   -0.2785 H   0  0  0  0  0  0  0  0  0  0  0  0
    2.5894   -0.8104   -1.4753 H   0  0  0  0  0  0  0  0  0  0  0  0
    2.8803    1.6448    0.3778 H   0  0  0  0  0  0  0  0  0  0  0  0
    4.0855    1.1375   -0.8478 H   0  0  0  0  0  0  0  0  0  0  0  0
    2.8030   -0.9163    4.4631 H   0  0  0  0  0  0  0  0  0  0  0  0
    4.0377   -2.4597    5.9935 H   0  0  0  0  0  0  0  0  0  0  0  0
    6.0793   -3.6306    6.5071 H   0  0  0  0  0  0  0  0  0  0  0  0
    5.0091   -5.4589    4.5158 H   0  0  0  0  0  0  0  0  0  0  0  0
    5.5676   -5.9007    6.1411 H   0  0  0  0  0  0  0  0  0  0  0  0
    5.1927   -7.7621    4.7847 H   0  0  0  0  0  0  0  0  0  0  0  0
    5.1091  -10.0966    4.0262 H   0  0  0  0  0  0  0  0  0  0  0  0
    7.0769  -11.1199    2.8926 H   0  0  0  0  0  0  0  0  0  0  0  0
    9.3255  -10.9450    2.0228 H   0  0  0  0  0  0  0  0  0  0  0  0
   11.3938   -9.6378    1.5875 H   0  0  0  0  0  0  0  0  0  0  0  0
   11.5172   -7.2438    2.3099 H   0  0  0  0  0  0  0  0  0  0  0  0
    9.6194   -6.1895    3.4720 H   0  0  0  0  0  0  0  0  0  0  0  0
   10.3888   -4.2242    5.0946 H   0  0  0  0  0  0  0  0  0  0  0  0
   12.0444   -2.4958    5.7658 H   0  0  0  0  0  0  0  0  0  0  0  0
    8.8389    0.1298    6.9380 H   0  0  0  0  0  0  0  0  0  0  0  0
    7.1830   -1.5602    6.2500 H   0  0  0  0  0  0  0  0  0  0  0  0
    6.9552   -3.1697    2.8956 H   0  0  0  0  0  0  0  0  0  0  0  0
    5.7128   -1.6345    1.3811 H   0  0  0  0  0  0  0  0  0  0  0  0
  1  2  1  0
  1 34  1  0
  1 35  1  0
  1 36  1  0
  2  3  1  0
  2 37  1  0
  2 38  1  0
  3  4  1  0
  4  5  2  0
  4  6  1  0
  6  7  2  0
  6 33  1  0
  7  8  1  0
  7 39  1  0
  8  9  2  0
  8 40  1  0
  9 10  1  0
  9 32  1  0
 10 11  1  0
 10 24  1  0
 10 41  1  1
 11 12  1  0
 11 42  1  0
 11 43  1  0
 12 13  1  0
 12 23  2  0
 13 14  2  0
 13 22  1  0
 14 15  1  0
 14 44  1  0
 15 16  2  0
 15 45  1  0
 16 17  1  0
 16 46  1  0
 17 18  1  0
 17 22  2  0
 18 19  2  0
 18 47  1  0
 19 20  1  0
 19 48  1  0
 20 21  2  0
 20 49  1  0
 21 22  1  0
 21 50  1  0
 23 24  1  0
 24 25  1  0
 25 26  2  0
 25 31  1  0
 26 27  1  0
 26 51  1  0
 27 28  2  0
 27 52  1  0
 28 29  1  0
 28 30  1  0
 30 31  2  0
 30 53  1  0
 31 54  1  0
 32 33  2  0
 32 55  1  0
 33 56  1  0
M  END

