
     RDKit          3D

 84 87  0  0  0  0  0  0  0  0999 V2000
    2.3979   -6.2133    2.9275 C   0  0  0  0  0  0  0  0  0  0  0  0
    2.9743   -4.8992    2.3985 C   0  0  0  0  0  0  0  0  0  0  0  0
    3.8407   -5.0699    1.1467 C   0  0  0  0  0  0  0  0  0  0  0  0
    4.4216   -3.7580    0.6114 C   0  0  0  0  0  0  0  0  0  0  0  0
    5.2854   -3.9305   -0.6424 C   0  0  0  0  0  0  0  0  0  0  0  0
    5.8618   -2.6082   -1.1637 C   0  0  0  0  0  0  0  0  0  0  0  0
    6.7902   -2.7625   -2.3777 C   0  0  1  0  0  0  0  0  0  0  0  0
    6.1338   -3.2099   -3.6917 C   0  0  0  0  0  0  0  0  0  0  0  0
    5.5809   -1.9797   -4.4464 C   0  0  1  0  0  0  0  0  0  0  0  0
    4.2412   -1.4250   -3.9677 C   0  0  0  0  0  0  0  0  0  0  0  0
    3.0878   -2.1670   -3.8520 C   0  0  0  0  0  0  0  0  0  0  0  0
    3.0522   -3.5461   -4.2267 C   0  0  0  0  0  0  0  0  0  0  0  0
    3.0288   -4.6645   -4.5439 N   0  0  0  0  0  0  0  0  0  0  0  0
    1.8296   -1.5358   -3.3843 C   0  0  0  0  0  0  0  0  0  0  0  0
    1.7511   -0.3768   -3.0327 O   0  0  0  0  0  0  0  0  0  0  0  0
    0.7967   -2.3862   -3.3882 O   0  0  0  0  0  0  0  0  0  0  0  0
   -0.4600   -1.8675   -2.9503 C   0  0  0  0  0  0  0  0  0  0  0  0
    4.2796    0.2943   -3.6674 S   0  0  0  0  0  0  0  0  0  0  0  0
    5.9499    0.4688   -4.2722 C   0  0  0  0  0  0  0  0  0  0  0  0
    6.4570    1.6733   -4.5969 C   0  0  0  0  0  0  0  0  0  0  0  0
    8.1236    1.8512   -5.2107 S   0  0  0  0  0  0  0  0  0  0  0  0
    8.1665    3.5672   -4.8922 C   0  0  0  0  0  0  0  0  0  0  0  0
    9.3170    4.3108   -5.0262 C   0  0  0  0  0  0  0  0  0  0  0  0
    9.3688    5.6838   -4.6304 C   0  0  0  0  0  0  0  0  0  0  0  0
    9.4113    6.7950   -4.2910 N   0  0  0  0  0  0  0  0  0  0  0  0
   10.5650    3.6827   -5.5269 C   0  0  0  0  0  0  0  0  0  0  0  0
   10.6382    2.5238   -5.8795 O   0  0  0  0  0  0  0  0  0  0  0  0
   11.5948    4.5363   -5.5498 O   0  0  0  0  0  0  0  0  0  0  0  0
   12.8414    4.0216   -6.0202 C   0  0  0  0  0  0  0  0  0  0  0  0
    6.8331    4.1159   -4.3854 C   0  0  1  0  0  0  0  0  0  0  0  0
    6.2973    5.3581   -5.1238 C   0  0  0  0  0  0  0  0  0  0  0  0
    5.7364    4.9137   -6.4749 C   0  0  2  0  0  0  0  0  0  0  0  0
    4.8142    5.9245   -7.1636 C   0  0  0  0  0  0  0  0  0  0  0  0
    5.5262    7.2031   -7.6230 C   0  0  0  0  0  0  0  0  0  0  0  0
    4.6018    8.1741   -8.3645 C   0  0  0  0  0  0  0  0  0  0  0  0
    5.2976    9.4570   -8.8281 C   0  0  0  0  0  0  0  0  0  0  0  0
    4.3746   10.4299   -9.5686 C   0  0  0  0  0  0  0  0  0  0  0  0
    5.0763   11.7083  -10.0293 C   0  0  0  0  0  0  0  0  0  0  0  0
    4.8215    3.3456   -6.1013 S   0  0  0  0  0  0  0  0  0  0  0  0
    5.7663    3.0011   -4.5242 C   0  0  1  0  0  0  0  0  0  0  0  0
    6.6433   -0.8586   -4.3494 C   0  0  1  0  0  0  0  0  0  0  0  0
    7.6526   -1.1799   -2.8073 S   0  0  0  0  0  0  0  0  0  0  0  0
    1.7807   -6.0530    3.8260 H   0  0  0  0  0  0  0  0  0  0  0  0
    3.1986   -6.9228    3.1966 H   0  0  0  0  0  0  0  0  0  0  0  0
    1.7637   -6.7061    2.1716 H   0  0  0  0  0  0  0  0  0  0  0  0
    3.5728   -4.4131    3.1906 H   0  0  0  0  0  0  0  0  0  0  0  0
    2.1495   -4.1979    2.1753 H   0  0  0  0  0  0  0  0  0  0  0  0
    3.2429   -5.5552    0.3528 H   0  0  0  0  0  0  0  0  0  0  0  0
    4.6669   -5.7712    1.3688 H   0  0  0  0  0  0  0  0  0  0  0  0
    5.0210   -3.2724    1.4039 H   0  0  0  0  0  0  0  0  0  0  0  0
    3.5961   -3.0564    0.3898 H   0  0  0  0  0  0  0  0  0  0  0  0
    4.6825   -4.4203   -1.4275 H   0  0  0  0  0  0  0  0  0  0  0  0
    6.1149   -4.6277   -0.4207 H   0  0  0  0  0  0  0  0  0  0  0  0
    6.4389   -2.1251   -0.3568 H   0  0  0  0  0  0  0  0  0  0  0  0
    5.0457   -1.9059   -1.4022 H   0  0  0  0  0  0  0  0  0  0  0  0
    7.5883   -3.4769   -2.1179 H   0  0  0  0  0  0  0  0  0  0  0  0
    5.3699   -3.9809   -3.5304 H   0  0  0  0  0  0  0  0  0  0  0  0
    6.9019   -3.6621   -4.3379 H   0  0  0  0  0  0  0  0  0  0  0  0
    5.4321   -2.2532   -5.5062 H   0  0  0  0  0  0  0  0  0  0  0  0
   -1.1709   -2.6994   -3.0194 H   0  0  0  0  0  0  0  0  0  0  0  0
   -0.7817   -1.0336   -3.5921 H   0  0  0  0  0  0  0  0  0  0  0  0
   -0.3919   -1.5056   -1.9133 H   0  0  0  0  0  0  0  0  0  0  0  0
   13.5511    4.8558   -5.9690 H   0  0  0  0  0  0  0  0  0  0  0  0
   12.7475    3.6601   -7.0553 H   0  0  0  0  0  0  0  0  0  0  0  0
   13.1820    3.1885   -5.3872 H   0  0  0  0  0  0  0  0  0  0  0  0
    6.9813    4.3564   -3.3175 H   0  0  0  0  0  0  0  0  0  0  0  0
    7.0589    6.1407   -5.2310 H   0  0  0  0  0  0  0  0  0  0  0  0
    5.4811    5.7836   -4.5163 H   0  0  0  0  0  0  0  0  0  0  0  0
    6.5660    4.6622   -7.1574 H   0  0  0  0  0  0  0  0  0  0  0  0
    3.9848    6.1747   -6.4785 H   0  0  0  0  0  0  0  0  0  0  0  0
    4.3492    5.4409   -8.0407 H   0  0  0  0  0  0  0  0  0  0  0  0
    6.3750    6.9339   -8.2783 H   0  0  0  0  0  0  0  0  0  0  0  0
    5.9695    7.7204   -6.7536 H   0  0  0  0  0  0  0  0  0  0  0  0
    3.7496    8.4364   -7.7103 H   0  0  0  0  0  0  0  0  0  0  0  0
    4.1599    7.6610   -9.2389 H   0  0  0  0  0  0  0  0  0  0  0  0
    6.1499    9.1942   -9.4822 H   0  0  0  0  0  0  0  0  0  0  0  0
    5.7403    9.9690   -7.9533 H   0  0  0  0  0  0  0  0  0  0  0  0
    3.5235   10.6916   -8.9136 H   0  0  0  0  0  0  0  0  0  0  0  0
    3.9321    9.9164  -10.4418 H   0  0  0  0  0  0  0  0  0  0  0  0
    5.4971   12.2649   -9.1750 H   0  0  0  0  0  0  0  0  0  0  0  0
    4.3836   12.3833  -10.5568 H   0  0  0  0  0  0  0  0  0  0  0  0
    5.9093   11.4832  -10.7164 H   0  0  0  0  0  0  0  0  0  0  0  0
    5.0489    3.0322   -3.6922 H   0  0  0  0  0  0  0  0  0  0  0  0
    7.3326   -0.8933   -5.2050 H   0  0  0  0  0  0  0  0  0  0  0  0
  1  2  1  0
  1 43  1  0
  1 44  1  0
  1 45  1  0
  2  3  1  0
  2 46  1  0
  2 47  1  0
  3  4  1  0
  3 48  1  0
  3 49  1  0
  4  5  1  0
  4 50  1  0
  4 51  1  0
  5  6  1  0
  5 52  1  0
  5 53  1  0
  6  7  1  0
  6 54  1  0
  6 55  1  0
  7  8  1  0
  7 42  1  0
  7 56  1  1
  8  9  1  0
  8 57  1  0
  8 58  1  0
  9 10  1  0
  9 41  1  0
  9 59  1  6
 10 11  2  0
 10 18  1  0
 11 12  1  0
 11 14  1  0
 12 13  3  0
 14 15  2  0
 14 16  1  0
 16 17  1  0
 17 60  1  0
 17 61  1  0
 17 62  1  0
 18 19  1  0
 19 20  2  0
 19 41  1  0
 20 21  1  0
 20 40  1  0
 21 22  2  0
 22 23  1  0
 22 30  1  0
 23 24  1  0
 23 26  2  0
 24 25  3  0
 26 27  1  0
 26 28  1  0
 28 29  1  0
 29 63  1  0
 29 64  1  0
 29 65  1  0
 30 31  1  0
 30 40  1  0
 30 66  1  1
 31 32  1  0
 31 67  1  0
 31 68  1  0
 32 33  1  0
 32 39  1  0
 32 69  1  6
 33 34  1  0
 33 70  1  0
 33 71  1  0
 34 35  1  0
 34 72  1  0
 34 73  1  0
 35 36  1  0
 35 74  1  0
 35 75  1  0
 36 37  1  0
 36 76  1  0
 36 77  1  0
 37 38  1  0
 37 78  1  0
 37 79  1  0
 38 80  1  0
 38 81  1  0
 38 82  1  0
 39 40  1  0
 40 83  1  1
 41 42  1  0
 41 84  1  6
M  CHG  2  21   1  27  -1
M  END

