
     RDKit          3D

 39 40  0  0  0  0  0  0  0  0999 V2000
    5.1780   -6.5050   -3.8519 C   0  0  0  0  0  0  0  0  0  0  0  0
    5.5180   -5.1154   -3.3418 C   0  0  2  0  0  0  0  0  0  0  0  0
    6.2994   -4.6705   -3.9912 H   0  0  0  0  0  0  0  0  0  0  0  0
    6.0032   -5.0884   -1.8984 C   0  0  0  0  0  0  0  0  0  0  0  0
    6.3431   -3.6507   -1.4726 C   0  0  2  0  0  0  0  0  0  0  0  0
    7.2632   -3.3427   -2.0043 H   0  0  0  0  0  0  0  0  0  0  0  0
    6.6527   -3.5099   -0.0411 N   0  0  0  0  0  0  0  0  0  0  0  0
    8.1928   -4.1303    0.4195 S   0  0  0  0  0  0  0  0  0  0  0  0
    8.1470   -5.6310    0.5894 O   0  0  0  0  0  0  0  0  0  0  0  0
    8.2338   -3.4407    2.1937 C   0  0  1  0  0  0  0  0  0  0  0  0
    9.5794   -3.9483    2.7299 C   0  0  0  0  0  0  0  0  0  0  0  0
    8.1929   -1.9150    2.1301 C   0  0  0  0  0  0  0  0  0  0  0  0
    7.0747   -4.0473    2.9829 C   0  0  0  0  0  0  0  0  0  0  0  0
    5.2158   -2.7102   -1.8797 C   0  0  0  0  0  0  0  0  0  0  0  0
    5.0674   -1.4393   -1.3038 C   0  0  0  0  0  0  0  0  0  0  0  0
    4.0296   -0.5848   -1.6756 C   0  0  0  0  0  0  0  0  0  0  0  0
    3.1082   -1.0031   -2.6437 C   0  0  0  0  0  0  0  0  0  0  0  0
    3.2360   -2.2572   -3.2345 C   0  0  0  0  0  0  0  0  0  0  0  0
    4.2867   -3.1117   -2.8628 C   0  0  0  0  0  0  0  0  0  0  0  0
    4.3334   -4.3190   -3.4862 O   0  0  0  0  0  0  0  0  0  0  0  0
    6.0735   -7.1447   -3.8483 H   0  0  0  0  0  0  0  0  0  0  0  0
    4.7884   -6.4507   -4.8794 H   0  0  0  0  0  0  0  0  0  0  0  0
    4.4100   -6.9722   -3.2157 H   0  0  0  0  0  0  0  0  0  0  0  0
    6.8789   -5.7401   -1.7650 H   0  0  0  0  0  0  0  0  0  0  0  0
    5.2051   -5.4863   -1.2464 H   0  0  0  0  0  0  0  0  0  0  0  0
    5.9079   -3.8992    0.5436 H   0  0  0  0  0  0  0  0  0  0  0  0
   10.4247   -3.5417    2.1507 H   0  0  0  0  0  0  0  0  0  0  0  0
    9.6286   -5.0461    2.6893 H   0  0  0  0  0  0  0  0  0  0  0  0
    9.7045   -3.6294    3.7775 H   0  0  0  0  0  0  0  0  0  0  0  0
    8.9875   -1.5175    1.4774 H   0  0  0  0  0  0  0  0  0  0  0  0
    8.3532   -1.4987    3.1391 H   0  0  0  0  0  0  0  0  0  0  0  0
    7.2265   -1.5498    1.7557 H   0  0  0  0  0  0  0  0  0  0  0  0
    7.0382   -5.1369    2.8275 H   0  0  0  0  0  0  0  0  0  0  0  0
    6.1047   -3.6088    2.6990 H   0  0  0  0  0  0  0  0  0  0  0  0
    7.2141   -3.8564    4.0598 H   0  0  0  0  0  0  0  0  0  0  0  0
    5.7855   -1.1337   -0.5404 H   0  0  0  0  0  0  0  0  0  0  0  0
    3.9365    0.3998   -1.2116 H   0  0  0  0  0  0  0  0  0  0  0  0
    2.2869   -0.3467   -2.9431 H   0  0  0  0  0  0  0  0  0  0  0  0
    2.5344   -2.6071   -3.9946 H   0  0  0  0  0  0  0  0  0  0  0  0
  1  2  1  0
  1 21  1  0
  1 22  1  0
  1 23  1  0
  2  3  1  6
  2  4  1  0
  2 20  1  0
  4  5  1  0
  4 24  1  0
  4 25  1  0
  5  6  1  6
  5  7  1  0
  5 14  1  0
  7  8  1  0
  7 26  1  0
  8  9  1  1
  8 10  1  0
 10 11  1  1
 10 12  1  0
 10 13  1  0
 11 27  1  0
 11 28  1  0
 11 29  1  0
 12 30  1  0
 12 31  1  0
 12 32  1  0
 13 33  1  0
 13 34  1  0
 13 35  1  0
 14 15  1  0
 14 19  2  0
 15 16  2  0
 15 36  1  0
 16 17  1  0
 16 37  1  0
 17 18  2  0
 17 38  1  0
 18 19  1  0
 18 39  1  0
 19 20  1  0
M  CHG  2   8   1   9  -1
M  END

