
     RDKit          3D

 41 41  0  0  0  0  0  0  0  0999 V2000
    5.1628   -0.5908   -2.2498 C   0  0  0  0  0  0  0  0  0  0  0  0
    4.5595   -1.0687   -0.9242 C   0  0  1  0  0  0  0  0  0  0  0  0
    4.9068   -2.5366   -0.6485 C   0  0  0  0  0  0  0  0  0  0  0  0
    4.9853   -0.1873    0.2599 C   0  0  0  0  0  0  0  0  0  0  0  0
    4.5601    1.1986    0.1155 N   0  0  0  0  0  0  0  0  0  0  0  0
    4.9508    2.0765    1.2222 C   0  0  0  0  0  0  0  0  0  0  0  0
    6.4180    2.3902    1.2604 C   0  0  0  0  0  0  0  0  0  0  0  0
    7.3553    2.0754    2.2331 C   0  0  0  0  0  0  0  0  0  0  0  0
    8.6116    2.5968    1.8137 C   0  0  0  0  0  0  0  0  0  0  0  0
    8.4016    3.2115    0.5946 C   0  0  0  0  0  0  0  0  0  0  0  0
    7.0732    3.0841    0.2584 N   0  0  0  0  0  0  0  0  0  0  0  0
    6.4622    3.6638   -0.9280 C   0  0  0  0  0  0  0  0  0  0  0  0
    6.0285    5.1234   -0.7189 C   0  0  0  0  0  0  0  0  0  0  0  0
    5.4976    5.7258   -1.9310 N   0  0  0  0  0  0  0  0  0  0  0  0
    4.1743    5.2485   -2.2863 C   0  0  0  0  0  0  0  0  0  0  0  0
    5.5612    7.1747   -1.9159 C   0  0  0  0  0  0  0  0  0  0  0  0
    4.8082   -1.2061   -3.0928 H   0  0  0  0  0  0  0  0  0  0  0  0
    6.2641   -0.6600   -2.2242 H   0  0  0  0  0  0  0  0  0  0  0  0
    4.9006    0.4577   -2.4521 H   0  0  0  0  0  0  0  0  0  0  0  0
    3.4561   -0.9971   -1.0069 H   0  0  0  0  0  0  0  0  0  0  0  0
    5.9973   -2.6702   -0.5443 H   0  0  0  0  0  0  0  0  0  0  0  0
    4.5707   -3.1870   -1.4719 H   0  0  0  0  0  0  0  0  0  0  0  0
    4.4366   -2.8998    0.2799 H   0  0  0  0  0  0  0  0  0  0  0  0
    6.0861   -0.2006    0.3467 H   0  0  0  0  0  0  0  0  0  0  0  0
    4.6013   -0.6419    1.2025 H   0  0  0  0  0  0  0  0  0  0  0  0
    3.5466    1.2334    0.0069 H   0  0  0  0  0  0  0  0  0  0  0  0
    4.6896    1.6520    2.2156 H   0  0  0  0  0  0  0  0  0  0  0  0
    4.3624    3.0060    1.1211 H   0  0  0  0  0  0  0  0  0  0  0  0
    7.1466    1.5210    3.1471 H   0  0  0  0  0  0  0  0  0  0  0  0
    9.5634    2.5199    2.3360 H   0  0  0  0  0  0  0  0  0  0  0  0
    9.0945    3.7209   -0.0728 H   0  0  0  0  0  0  0  0  0  0  0  0
    5.6155    3.0221   -1.2061 H   0  0  0  0  0  0  0  0  0  0  0  0
    7.1881    3.6286   -1.7549 H   0  0  0  0  0  0  0  0  0  0  0  0
    6.9150    5.6986   -0.4070 H   0  0  0  0  0  0  0  0  0  0  0  0
    5.3091    5.1799    0.1322 H   0  0  0  0  0  0  0  0  0  0  0  0
    4.1616    4.1525   -2.3797 H   0  0  0  0  0  0  0  0  0  0  0  0
    3.8731    5.6642   -3.2610 H   0  0  0  0  0  0  0  0  0  0  0  0
    3.3932    5.5334   -1.5418 H   0  0  0  0  0  0  0  0  0  0  0  0
    6.5950    7.5104   -1.7381 H   0  0  0  0  0  0  0  0  0  0  0  0
    4.9147    7.6392   -1.1346 H   0  0  0  0  0  0  0  0  0  0  0  0
    5.2406    7.5760   -2.8909 H   0  0  0  0  0  0  0  0  0  0  0  0
  1  2  1  0
  1 17  1  0
  1 18  1  0
  1 19  1  0
  2  3  1  0
  2  4  1  0
  2 20  1  6
  3 21  1  0
  3 22  1  0
  3 23  1  0
  4  5  1  0
  4 24  1  0
  4 25  1  0
  5  6  1  0
  5 26  1  0
  6  7  1  0
  6 27  1  0
  6 28  1  0
  7  8  2  0
  7 11  1  0
  8  9  1  0
  8 29  1  0
  9 10  2  0
  9 30  1  0
 10 11  1  0
 10 31  1  0
 11 12  1  0
 12 13  1  0
 12 32  1  0
 12 33  1  0
 13 14  1  0
 13 34  1  0
 13 35  1  0
 14 15  1  0
 14 16  1  0
 15 36  1  0
 15 37  1  0
 15 38  1  0
 16 39  1  0
 16 40  1  0
 16 41  1  0
M  END

