
     RDKit          3D

 34 35  0  0  0  0  0  0  0  0999 V2000
    1.3326   -1.2558    0.2495 O   0  0  0  0  0  0  0  0  0  0  0  0
    2.1436   -0.3805   -0.0087 C   0  0  0  0  0  0  0  0  0  0  0  0
    2.4241    0.7325    0.7172 N   0  0  0  0  0  0  0  0  0  0  0  0
    1.8735    1.1666    1.9296 C   0  0  0  0  0  0  0  0  0  0  0  0
    0.8746    0.4510    2.6121 C   0  0  0  0  0  0  0  0  0  0  0  0
    0.3731    0.9465    3.8166 C   0  0  0  0  0  0  0  0  0  0  0  0
    0.8499    2.1449    4.3546 C   0  0  0  0  0  0  0  0  0  0  0  0
    0.3190    2.6889    5.6547 C   0  0  1  0  0  0  0  0  0  0  0  0
   -0.6431    1.9118    6.1786 F   0  0  0  0  0  0  0  0  0  0  0  0
    1.2929    2.7999    6.5802 F   0  0  0  0  0  0  0  0  0  0  0  0
   -0.2013    3.9227    5.4996 F   0  0  0  0  0  0  0  0  0  0  0  0
    1.8462    2.8580    3.6727 C   0  0  0  0  0  0  0  0  0  0  0  0
    2.3533    2.3746    2.4728 C   0  0  0  0  0  0  0  0  0  0  0  0
    3.0187   -0.4284   -1.2839 C   0  0  0  0  0  0  0  0  0  0  0  0
    3.8279    0.4588   -1.5268 O   0  0  0  0  0  0  0  0  0  0  0  0
    2.7512   -1.5299   -2.0165 N   0  0  0  0  0  0  0  0  0  0  0  0
    3.3214   -1.9440   -3.2305 C   0  0  0  0  0  0  0  0  0  0  0  0
    4.3173   -1.2368   -3.9183 C   0  0  0  0  0  0  0  0  0  0  0  0
    4.8222   -1.7335   -5.1244 C   0  0  0  0  0  0  0  0  0  0  0  0
    4.3411   -2.9327   -5.6520 C   0  0  0  0  0  0  0  0  0  0  0  0
    3.3472   -3.6453   -4.9721 C   0  0  0  0  0  0  0  0  0  0  0  0
    2.8366   -3.1593   -3.7685 C   0  0  0  0  0  0  0  0  0  0  0  0
    1.8698   -3.7931   -3.0469 O   0  0  0  0  0  0  0  0  0  0  0  0
    3.1467    1.3075    0.2822 H   0  0  0  0  0  0  0  0  0  0  0  0
    0.5030   -0.4819    2.1937 H   0  0  0  0  0  0  0  0  0  0  0  0
   -0.4023    0.3887    4.3438 H   0  0  0  0  0  0  0  0  0  0  0  0
    2.2270    3.7962    4.0823 H   0  0  0  0  0  0  0  0  0  0  0  0
    3.1301    2.9340    1.9445 H   0  0  0  0  0  0  0  0  0  0  0  0
    2.0325   -2.1356   -1.6183 H   0  0  0  0  0  0  0  0  0  0  0  0
    4.6828   -0.3034   -3.4947 H   0  0  0  0  0  0  0  0  0  0  0  0
    5.5982   -1.1735   -5.6509 H   0  0  0  0  0  0  0  0  0  0  0  0
    4.7345   -3.3217   -6.5940 H   0  0  0  0  0  0  0  0  0  0  0  0
    2.9624   -4.5869   -5.3760 H   0  0  0  0  0  0  0  0  0  0  0  0
    1.5968   -4.6051   -3.4926 H   0  0  0  0  0  0  0  0  0  0  0  0
  1  2  2  0
  2  3  1  0
  2 14  1  0
  3  4  1  0
  3 24  1  0
  4  5  2  0
  4 13  1  0
  5  6  1  0
  5 25  1  0
  6  7  2  0
  6 26  1  0
  7  8  1  0
  7 12  1  0
  8  9  1  1
  8 10  1  0
  8 11  1  0
 12 13  2  0
 12 27  1  0
 13 28  1  0
 14 15  2  0
 14 16  1  0
 16 17  1  0
 16 29  1  0
 17 18  2  0
 17 22  1  0
 18 19  1  0
 18 30  1  0
 19 20  2  0
 19 31  1  0
 20 21  1  0
 20 32  1  0
 21 22  2  0
 21 33  1  0
 22 23  1  0
 23 34  1  0
M  END

