
     RDKit          3D

 21 23  0  0  0  0  0  0  0  0999 V2000
    3.8470    0.7774   -0.8062 O   0  0  0  0  0  0  0  0  0  0  0  0
    2.7557   -0.1675   -0.6006 S   0  0  1  0  0  0  0  0  0  0  0  0
    2.3389   -0.3068    0.9923 O   0  0  0  0  0  0  0  0  0  0  0  0
    1.5977   -0.2070   -1.4856 O   0  0  0  0  0  0  0  0  0  0  0  0
    3.0044   -1.5734    0.5222 C   0  0  1  0  0  0  0  0  0  0  0  0
    2.0814   -2.7013    0.2993 C   0  0  0  0  0  0  0  0  0  0  0  0
    2.5043   -3.9754    0.3757 C   0  0  0  0  0  0  0  0  0  0  0  0
    3.8945   -4.3282    0.7538 C   0  0  0  0  0  0  0  0  0  0  0  0
    4.2705   -5.4877    0.7617 O   0  0  0  0  0  0  0  0  0  0  0  0
    4.7848   -3.1964    1.1576 C   0  0  0  0  0  0  0  0  0  0  0  0
    6.0605   -3.4842    1.6590 C   0  0  0  0  0  0  0  0  0  0  0  0
    6.8886   -2.4566    2.1077 C   0  0  0  0  0  0  0  0  0  0  0  0
    6.4412   -1.1305    2.0634 C   0  0  0  0  0  0  0  0  0  0  0  0
    5.1777   -0.8262    1.5553 C   0  0  0  0  0  0  0  0  0  0  0  0
    4.3452   -1.8544    1.0884 C   0  0  0  0  0  0  0  0  0  0  0  0
    1.0562   -2.4456    0.0229 H   0  0  0  0  0  0  0  0  0  0  0  0
    1.8376   -4.8151    0.1660 H   0  0  0  0  0  0  0  0  0  0  0  0
    6.3716   -4.5301    1.6953 H   0  0  0  0  0  0  0  0  0  0  0  0
    7.8821   -2.6862    2.5003 H   0  0  0  0  0  0  0  0  0  0  0  0
    7.0828   -0.3238    2.4258 H   0  0  0  0  0  0  0  0  0  0  0  0
    4.8356    0.2074    1.5122 H   0  0  0  0  0  0  0  0  0  0  0  0
  1  2  2  0
  2  3  1  1
  2  4  2  0
  2  5  1  0
  5  3  1  1
  5  6  1  0
  5 15  1  0
  6  7  2  0
  6 16  1  0
  7  8  1  0
  7 17  1  0
  8  9  2  0
  8 10  1  0
 10 11  2  0
 10 15  1  0
 11 12  1  0
 11 18  1  0
 12 13  2  0
 12 19  1  0
 13 14  1  0
 13 20  1  0
 14 15  2  0
 14 21  1  0
M  END

