
     RDKit          3D

 30 30  0  0  0  0  0  0  0  0999 V2000
    1.2618    0.1564   -0.4318 C   0  0  0  0  0  0  0  0  0  0  0  0
    2.5498   -0.0212    0.0941 O   0  0  0  0  0  0  0  0  0  0  0  0
    2.9874    0.9794    1.0037 C   0  0  1  0  0  0  0  0  0  0  0  0
    2.4872    0.6438    2.4286 C   0  0  0  0  0  0  0  0  0  0  0  0
    2.7229    1.7085    3.5059 C   0  0  0  0  0  0  0  0  0  0  0  0
    1.8779    2.9762    3.3556 C   0  0  0  0  0  0  0  0  0  0  0  0
    2.2043    3.9385    4.4019 N   0  0  0  0  0  0  0  0  0  0  0  0
    4.5016    1.0599    0.9195 C   0  0  0  0  0  0  0  0  0  0  0  0
    5.2600   -0.0910    0.6563 C   0  0  0  0  0  0  0  0  0  0  0  0
    6.6538   -0.0383    0.6058 C   0  0  0  0  0  0  0  0  0  0  0  0
    7.3036    1.1805    0.8220 C   0  0  0  0  0  0  0  0  0  0  0  0
    9.0523    1.2540    0.7601 Cl  0  0  0  0  0  0  0  0  0  0  0  0
    6.5712    2.3412    1.0790 C   0  0  0  0  0  0  0  0  0  0  0  0
    5.1759    2.2721    1.1219 C   0  0  0  0  0  0  0  0  0  0  0  0
    1.0678   -0.6789   -1.1209 H   0  0  0  0  0  0  0  0  0  0  0  0
    1.1743    1.1053   -0.9990 H   0  0  0  0  0  0  0  0  0  0  0  0
    0.4720    0.1504    0.3452 H   0  0  0  0  0  0  0  0  0  0  0  0
    2.5739    1.9589    0.6918 H   0  0  0  0  0  0  0  0  0  0  0  0
    2.9725   -0.2999    2.7267 H   0  0  0  0  0  0  0  0  0  0  0  0
    1.4059    0.4280    2.3639 H   0  0  0  0  0  0  0  0  0  0  0  0
    3.7857    1.9976    3.5474 H   0  0  0  0  0  0  0  0  0  0  0  0
    2.4966    1.2588    4.4899 H   0  0  0  0  0  0  0  0  0  0  0  0
    0.8036    2.6837    3.3196 H   0  0  0  0  0  0  0  0  0  0  0  0
    2.0897    3.4560    2.3837 H   0  0  0  0  0  0  0  0  0  0  0  0
    1.9566    3.5610    5.3180 H   0  0  0  0  0  0  0  0  0  0  0  0
    1.6572    4.7919    4.2905 H   0  0  0  0  0  0  0  0  0  0  0  0
    4.7446   -1.0347    0.4700 H   0  0  0  0  0  0  0  0  0  0  0  0
    7.2398   -0.9349    0.3958 H   0  0  0  0  0  0  0  0  0  0  0  0
    7.0892    3.2886    1.2363 H   0  0  0  0  0  0  0  0  0  0  0  0
    4.6087    3.1876    1.3114 H   0  0  0  0  0  0  0  0  0  0  0  0
  1  2  1  0
  1 15  1  0
  1 16  1  0
  1 17  1  0
  2  3  1  0
  3  4  1  0
  3  8  1  0
  3 18  1  6
  4  5  1  0
  4 19  1  0
  4 20  1  0
  5  6  1  0
  5 21  1  0
  5 22  1  0
  6  7  1  0
  6 23  1  0
  6 24  1  0
  7 25  1  0
  7 26  1  0
  8  9  2  0
  8 14  1  0
  9 10  1  0
  9 27  1  0
 10 11  2  0
 10 28  1  0
 11 12  1  0
 11 13  1  0
 13 14  2  0
 13 29  1  0
 14 30  1  0
M  END

