
     RDKit          3D

 39 42  0  0  0  0  0  0  0  0999 V2000
    1.2655    0.9743   -0.3522 C   0  0  0  0  0  0  0  0  0  0  0  0
    2.1998    0.0310    0.1251 O   0  0  0  0  0  0  0  0  0  0  0  0
    3.0127    0.3504    1.1685 C   0  0  0  0  0  0  0  0  0  0  0  0
    3.0475    1.6203    1.7625 C   0  0  0  0  0  0  0  0  0  0  0  0
    3.8756    1.8571    2.8641 C   0  0  0  0  0  0  0  0  0  0  0  0
    4.6675    0.8333    3.3858 C   0  0  0  0  0  0  0  0  0  0  0  0
    4.6396   -0.4271    2.7866 C   0  0  0  0  0  0  0  0  0  0  0  0
    3.8369   -0.6909    1.6649 C   0  0  0  0  0  0  0  0  0  0  0  0
    3.8141   -2.0624    1.1249 C   0  0  0  0  0  0  0  0  0  0  0  0
    3.7618   -3.1476    1.8798 N   0  0  0  0  0  0  0  0  0  0  0  0
    3.8201   -4.2439    1.0750 C   0  0  0  0  0  0  0  0  0  0  0  0
    3.7564   -5.6010    1.6393 C   0  0  0  0  0  0  0  0  0  0  0  0
    3.2072   -5.7826    2.9254 C   0  0  0  0  0  0  0  0  0  0  0  0
    3.1283   -7.0512    3.4981 C   0  0  0  0  0  0  0  0  0  0  0  0
    3.5975   -8.1730    2.8049 C   0  0  0  0  0  0  0  0  0  0  0  0
    4.1591   -8.0065    1.5361 C   0  0  0  0  0  0  0  0  0  0  0  0
    4.2433   -6.7360    0.9614 C   0  0  0  0  0  0  0  0  0  0  0  0
    3.9116   -3.8241   -0.2663 C   0  0  0  0  0  0  0  0  0  0  0  0
    3.9546   -4.4385   -1.5457 C   0  0  0  0  0  0  0  0  0  0  0  0
    4.0830   -3.6685   -2.6761 C   0  0  0  0  0  0  0  0  0  0  0  0
    4.1813   -2.2462   -2.5616 C   0  0  0  0  0  0  0  0  0  0  0  0
    4.1000   -1.6437   -1.3400 C   0  0  0  0  0  0  0  0  0  0  0  0
    3.9270   -2.4130   -0.2080 N   0  0  0  0  0  0  0  0  0  0  0  0
    0.6993    0.4745   -1.1494 H   0  0  0  0  0  0  0  0  0  0  0  0
    1.7589    1.8698   -0.7715 H   0  0  0  0  0  0  0  0  0  0  0  0
    0.5663    1.2920    0.4413 H   0  0  0  0  0  0  0  0  0  0  0  0
    2.4190    2.4254    1.3819 H   0  0  0  0  0  0  0  0  0  0  0  0
    3.8894    2.8515    3.3178 H   0  0  0  0  0  0  0  0  0  0  0  0
    5.3059    1.0135    4.2535 H   0  0  0  0  0  0  0  0  0  0  0  0
    5.2437   -1.2447    3.1843 H   0  0  0  0  0  0  0  0  0  0  0  0
    2.8456   -4.9040    3.4619 H   0  0  0  0  0  0  0  0  0  0  0  0
    2.6943   -7.1673    4.4950 H   0  0  0  0  0  0  0  0  0  0  0  0
    3.5331   -9.1675    3.2539 H   0  0  0  0  0  0  0  0  0  0  0  0
    4.5479   -8.8712    0.9914 H   0  0  0  0  0  0  0  0  0  0  0  0
    4.7266   -6.6270   -0.0108 H   0  0  0  0  0  0  0  0  0  0  0  0
    3.8784   -5.5232   -1.6131 H   0  0  0  0  0  0  0  0  0  0  0  0
    4.1157   -4.1367   -3.6619 H   0  0  0  0  0  0  0  0  0  0  0  0
    4.3195   -1.6252   -3.4482 H   0  0  0  0  0  0  0  0  0  0  0  0
    4.1590   -0.5688   -1.1895 H   0  0  0  0  0  0  0  0  0  0  0  0
  1  2  1  0
  1 24  1  0
  1 25  1  0
  1 26  1  0
  2  3  1  0
  3  4  2  0
  3  8  1  0
  4  5  1  0
  4 27  1  0
  5  6  2  0
  5 28  1  0
  6  7  1  0
  6 29  1  0
  7  8  2  0
  7 30  1  0
  8  9  1  0
  9 10  2  0
  9 23  1  0
 10 11  1  0
 11 12  1  0
 11 18  2  0
 12 13  2  0
 12 17  1  0
 13 14  1  0
 13 31  1  0
 14 15  2  0
 14 32  1  0
 15 16  1  0
 15 33  1  0
 16 17  2  0
 16 34  1  0
 17 35  1  0
 18 19  1  0
 18 23  1  0
 19 20  2  0
 19 36  1  0
 20 21  1  0
 20 37  1  0
 21 22  2  0
 21 38  1  0
 22 23  1  0
 22 39  1  0
M  END

