
     RDKit          3D

 47 46  0  0  0  0  0  0  0  0999 V2000
    9.8569    2.3919    5.1956 C   0  0  0  0  0  0  0  0  0  0  0  0
    9.9665    1.9067    3.7868 C   0  0  0  0  0  0  0  0  0  0  0  0
    9.3892    2.4813    2.7111 C   0  0  0  0  0  0  0  0  0  0  0  0
    9.5296    1.9669    1.3649 C   0  0  0  0  0  0  0  0  0  0  0  0
    8.9706    2.5076    0.2605 C   0  0  0  0  0  0  0  0  0  0  0  0
    9.1755    1.8962   -1.0741 C   0  0  0  0  0  0  0  0  0  0  0  0
    9.8642    0.8844   -1.2394 O   0  0  0  0  0  0  0  0  0  0  0  0
    8.5482    2.5283   -2.1056 N   0  0  0  0  0  0  0  0  0  0  0  0
    8.6005    2.0737   -3.4859 C   0  0  0  0  0  0  0  0  0  0  0  0
    9.4457    2.9534   -4.4240 C   0  0  0  0  0  0  0  0  0  0  0  0
   10.9301    3.1224   -4.0287 C   0  0  1  0  0  0  0  0  0  0  0  0
   11.6605    1.7529   -4.0833 C   0  0  0  0  0  0  0  0  0  0  0  0
   12.6168    1.4551   -2.9068 C   0  0  0  0  0  0  0  0  0  0  0  0
   12.8680   -0.0425   -2.7603 C   0  0  0  0  0  0  0  0  0  0  0  0
   13.8780   -0.5881   -3.1276 O   0  0  0  0  0  0  0  0  0  0  0  0
   11.8534   -0.7418   -2.2261 O   0  0  0  0  0  0  0  0  0  0  0  0
   11.6418    4.2784   -4.8257 C   0  0  1  0  0  0  0  0  0  0  0  0
   11.0136    5.6387   -4.4535 C   0  0  0  0  0  0  0  0  0  0  0  0
   13.1349    4.3462   -4.4449 C   0  0  0  0  0  0  0  0  0  0  0  0
   11.5313    4.0784   -6.3505 C   0  0  0  0  0  0  0  0  0  0  0  0
    9.4211    1.6141    5.8477 H   0  0  0  0  0  0  0  0  0  0  0  0
    9.2362    3.2971    5.2748 H   0  0  0  0  0  0  0  0  0  0  0  0
   10.8542    2.6172    5.6136 H   0  0  0  0  0  0  0  0  0  0  0  0
   10.5712    1.0047    3.6257 H   0  0  0  0  0  0  0  0  0  0  0  0
    8.7796    3.3838    2.8455 H   0  0  0  0  0  0  0  0  0  0  0  0
   10.1360    1.0648    1.2229 H   0  0  0  0  0  0  0  0  0  0  0  0
    8.3499    3.4073    0.3348 H   0  0  0  0  0  0  0  0  0  0  0  0
    8.0075    3.3586   -1.8934 H   0  0  0  0  0  0  0  0  0  0  0  0
    7.5707    2.0236   -3.8790 H   0  0  0  0  0  0  0  0  0  0  0  0
    8.9786    1.0435   -3.4566 H   0  0  0  0  0  0  0  0  0  0  0  0
    8.9603    3.9404   -4.4954 H   0  0  0  0  0  0  0  0  0  0  0  0
    9.3713    2.5069   -5.4306 H   0  0  0  0  0  0  0  0  0  0  0  0
   10.9370    3.4514   -2.9737 H   0  0  0  0  0  0  0  0  0  0  0  0
   12.2088    1.6384   -5.0325 H   0  0  0  0  0  0  0  0  0  0  0  0
   10.9061    0.9529   -4.0963 H   0  0  0  0  0  0  0  0  0  0  0  0
   12.1709    1.8304   -1.9717 H   0  0  0  0  0  0  0  0  0  0  0  0
   13.5914    1.9404   -3.0418 H   0  0  0  0  0  0  0  0  0  0  0  0
   11.1306   -0.1575   -1.9089 H   0  0  0  0  0  0  0  0  0  0  0  0
   11.0709    5.8202   -3.3671 H   0  0  0  0  0  0  0  0  0  0  0  0
    9.9577    5.7165   -4.7548 H   0  0  0  0  0  0  0  0  0  0  0  0
   11.5513    6.4598   -4.9546 H   0  0  0  0  0  0  0  0  0  0  0  0
   13.2696    4.4588   -3.3568 H   0  0  0  0  0  0  0  0  0  0  0  0
   13.6115    5.2136   -4.9298 H   0  0  0  0  0  0  0  0  0  0  0  0
   13.6886    3.4512   -4.7645 H   0  0  0  0  0  0  0  0  0  0  0  0
   10.4893    4.1355   -6.7022 H   0  0  0  0  0  0  0  0  0  0  0  0
   11.9422    3.1068   -6.6681 H   0  0  0  0  0  0  0  0  0  0  0  0
   12.0973    4.8610   -6.8814 H   0  0  0  0  0  0  0  0  0  0  0  0
  1  2  1  0
  1 21  1  0
  1 22  1  0
  1 23  1  0
  2  3  2  0
  2 24  1  0
  3  4  1  0
  3 25  1  0
  4  5  2  0
  4 26  1  0
  5  6  1  0
  5 27  1  0
  6  7  2  0
  6  8  1  0
  8  9  1  0
  8 28  1  0
  9 10  1  0
  9 29  1  0
  9 30  1  0
 10 11  1  0
 10 31  1  0
 10 32  1  0
 11 12  1  0
 11 17  1  0
 11 33  1  1
 12 13  1  0
 12 34  1  0
 12 35  1  0
 13 14  1  0
 13 36  1  0
 13 37  1  0
 14 15  2  0
 14 16  1  0
 16 38  1  0
 17 18  1  6
 17 19  1  0
 17 20  1  0
 18 39  1  0
 18 40  1  0
 18 41  1  0
 19 42  1  0
 19 43  1  0
 19 44  1  0
 20 45  1  0
 20 46  1  0
 20 47  1  0
M  END

