
     RDKit          3D

 41 42  0  0  0  0  0  0  0  0999 V2000
    2.9640    1.0448    1.3547 C   0  0  0  0  0  0  0  0  0  0  0  0
    2.3467    0.3385    0.1484 C   0  0  0  0  0  0  0  0  0  0  0  0
    2.8566    0.8255   -1.2342 C   0  0  1  0  0  0  0  0  0  0  0  0
    2.2102    0.0123   -2.3666 C   0  0  0  0  0  0  0  0  0  0  0  0
    1.3732    0.6144   -3.3156 C   0  0  0  0  0  0  0  0  0  0  0  0
    0.7627   -0.1378   -4.3232 C   0  0  0  0  0  0  0  0  0  0  0  0
    0.9980   -1.5118   -4.3911 C   0  0  0  0  0  0  0  0  0  0  0  0
    0.2391   -2.4623   -5.6475 Cl  0  0  0  0  0  0  0  0  0  0  0  0
    1.8419   -2.1328   -3.4652 C   0  0  0  0  0  0  0  0  0  0  0  0
    2.4398   -1.3712   -2.4610 C   0  0  0  0  0  0  0  0  0  0  0  0
    2.6982    2.2608   -1.4049 N   0  0  0  0  0  0  0  0  0  0  0  0
    3.8784    2.9415   -1.5544 C   0  0  0  0  0  0  0  0  0  0  0  0
    4.0482    4.1329   -1.6578 O   0  0  0  0  0  0  0  0  0  0  0  0
    4.8994    1.9607   -1.5511 N   0  0  0  0  0  0  0  0  0  0  0  0
    6.3163    2.2791   -1.6903 C   0  0  0  0  0  0  0  0  0  0  0  0
    6.9153    1.8625   -3.0381 C   0  0  0  0  0  0  0  0  0  0  0  0
    6.3012    2.5615   -4.2523 C   0  0  0  0  0  0  0  0  0  0  0  0
    6.9382    2.1385   -5.5762 C   0  0  0  0  0  0  0  0  0  0  0  0
    6.3469    2.8644   -6.6953 N   0  0  0  0  0  0  0  0  0  0  0  0
    4.4034    0.7009   -1.3156 C   0  0  0  0  0  0  0  0  0  0  0  0
    5.0493   -0.3143   -1.1799 O   0  0  0  0  0  0  0  0  0  0  0  0
    2.5186    0.6651    2.2871 H   0  0  0  0  0  0  0  0  0  0  0  0
    2.7950    2.1325    1.3258 H   0  0  0  0  0  0  0  0  0  0  0  0
    4.0498    0.8697    1.4154 H   0  0  0  0  0  0  0  0  0  0  0  0
    1.2491    0.4576    0.1523 H   0  0  0  0  0  0  0  0  0  0  0  0
    2.5376   -0.7434    0.2107 H   0  0  0  0  0  0  0  0  0  0  0  0
    1.1978    1.6907   -3.2829 H   0  0  0  0  0  0  0  0  0  0  0  0
    0.1096    0.3397   -5.0555 H   0  0  0  0  0  0  0  0  0  0  0  0
    2.0306   -3.2052   -3.5361 H   0  0  0  0  0  0  0  0  0  0  0  0
    3.1212   -1.8553   -1.7597 H   0  0  0  0  0  0  0  0  0  0  0  0
    1.8391    2.7687   -1.2363 H   0  0  0  0  0  0  0  0  0  0  0  0
    6.8537    1.7732   -0.8731 H   0  0  0  0  0  0  0  0  0  0  0  0
    6.3975    3.3660   -1.5430 H   0  0  0  0  0  0  0  0  0  0  0  0
    6.8288    0.7672   -3.1404 H   0  0  0  0  0  0  0  0  0  0  0  0
    7.9973    2.0811   -2.9926 H   0  0  0  0  0  0  0  0  0  0  0  0
    6.3855    3.6568   -4.1530 H   0  0  0  0  0  0  0  0  0  0  0  0
    5.2179    2.3430   -4.2953 H   0  0  0  0  0  0  0  0  0  0  0  0
    6.8746    1.0302   -5.6643 H   0  0  0  0  0  0  0  0  0  0  0  0
    8.0168    2.3766   -5.5474 H   0  0  0  0  0  0  0  0  0  0  0  0
    5.3668    2.5994   -6.8068 H   0  0  0  0  0  0  0  0  0  0  0  0
    6.8072    2.6101   -7.5693 H   0  0  0  0  0  0  0  0  0  0  0  0
  1  2  1  0
  1 22  1  0
  1 23  1  0
  1 24  1  0
  3  2  1  1
  2 25  1  0
  2 26  1  0
  3  4  1  0
  3 11  1  0
  3 20  1  0
  4  5  2  0
  4 10  1  0
  5  6  1  0
  5 27  1  0
  6  7  2  0
  6 28  1  0
  7  8  1  0
  7  9  1  0
  9 10  2  0
  9 29  1  0
 10 30  1  0
 11 12  1  0
 11 31  1  0
 12 13  2  0
 12 14  1  0
 14 15  1  0
 14 20  1  0
 15 16  1  0
 15 32  1  0
 15 33  1  0
 16 17  1  0
 16 34  1  0
 16 35  1  0
 17 18  1  0
 17 36  1  0
 17 37  1  0
 18 19  1  0
 18 38  1  0
 18 39  1  0
 19 40  1  0
 19 41  1  0
 20 21  2  0
M  END

