
     RDKit          3D

 34 35  0  0  0  0  0  0  0  0999 V2000
    2.2746   -2.1752   -3.0920 C   0  0  0  0  0  0  0  0  0  0  0  0
    3.5575   -2.8171   -3.5270 C   0  0  0  0  0  0  0  0  0  0  0  0
    3.8483   -3.1688   -5.2048 S   0  0  0  0  0  0  0  0  0  0  0  0
    5.4045   -3.8702   -4.8617 C   0  0  0  0  0  0  0  0  0  0  0  0
    6.4795   -4.5412   -6.2501 Br  0  0  0  0  0  0  0  0  0  0  0  0
    5.6967   -3.8415   -3.5260 C   0  0  0  0  0  0  0  0  0  0  0  0
    4.6360   -3.2414   -2.7753 C   0  0  0  0  0  0  0  0  0  0  0  0
    4.7586   -3.0638   -0.9993 S   0  0  1  0  0  0  0  0  0  0  0  0
    6.1109   -3.4789   -0.6358 O   0  0  0  0  0  0  0  0  0  0  0  0
    4.2163   -1.7636   -0.6058 O   0  0  0  0  0  0  0  0  0  0  0  0
    3.6667   -4.1626   -0.3254 N   0  0  0  0  0  0  0  0  0  0  0  0
    3.6562   -5.5624   -0.5300 C   0  0  0  0  0  0  0  0  0  0  0  0
    4.8402   -6.3163   -0.5456 C   0  0  0  0  0  0  0  0  0  0  0  0
    4.7595   -7.6968   -0.7334 C   0  0  0  0  0  0  0  0  0  0  0  0
    3.5274   -8.3396   -0.8771 C   0  0  0  0  0  0  0  0  0  0  0  0
    2.3365   -7.5965   -0.8445 C   0  0  0  0  0  0  0  0  0  0  0  0
    0.9619   -8.2438   -1.0332 C   0  0  1  0  0  0  0  0  0  0  0  0
    0.8307   -9.6298   -0.3975 C   0  0  0  0  0  0  0  0  0  0  0  0
   -0.0870   -7.3918   -0.5982 O   0  0  0  0  0  0  0  0  0  0  0  0
    2.4192   -6.2077   -0.6854 C   0  0  0  0  0  0  0  0  0  0  0  0
    1.8274   -1.5822   -3.9030 H   0  0  0  0  0  0  0  0  0  0  0  0
    2.4612   -1.5151   -2.2336 H   0  0  0  0  0  0  0  0  0  0  0  0
    1.5320   -2.9353   -2.7917 H   0  0  0  0  0  0  0  0  0  0  0  0
    6.6192   -4.2074   -3.0790 H   0  0  0  0  0  0  0  0  0  0  0  0
    2.7634   -3.7182   -0.1833 H   0  0  0  0  0  0  0  0  0  0  0  0
    5.8000   -5.8224   -0.3985 H   0  0  0  0  0  0  0  0  0  0  0  0
    5.6804   -8.2856   -0.7492 H   0  0  0  0  0  0  0  0  0  0  0  0
    3.5028   -9.4221   -1.0135 H   0  0  0  0  0  0  0  0  0  0  0  0
    0.7913   -8.3464   -2.1204 H   0  0  0  0  0  0  0  0  0  0  0  0
    1.0408   -9.5880    0.6849 H   0  0  0  0  0  0  0  0  0  0  0  0
    1.5196  -10.3618   -0.8443 H   0  0  0  0  0  0  0  0  0  0  0  0
   -0.1962   -9.9972   -0.5410 H   0  0  0  0  0  0  0  0  0  0  0  0
   -0.0167   -7.3073    0.3638 H   0  0  0  0  0  0  0  0  0  0  0  0
    1.4950   -5.6256   -0.6841 H   0  0  0  0  0  0  0  0  0  0  0  0
  1  2  1  0
  1 21  1  0
  1 22  1  0
  1 23  1  0
  2  3  1  0
  2  7  2  0
  3  4  1  0
  4  5  1  0
  4  6  2  0
  6  7  1  0
  6 24  1  0
  7  8  1  0
  8  9  2  0
  8 10  2  0
  8 11  1  1
 11 12  1  0
 11 25  1  0
 12 13  2  0
 12 20  1  0
 13 14  1  0
 13 26  1  0
 14 15  2  0
 14 27  1  0
 15 16  1  0
 15 28  1  0
 16 17  1  0
 16 20  2  0
 17 18  1  0
 17 19  1  0
 17 29  1  6
 18 30  1  0
 18 31  1  0
 18 32  1  0
 19 33  1  0
 20 34  1  0
M  END

