
     RDKit          3D

 35 36  0  0  0  0  0  0  0  0999 V2000
    3.9992   -2.8805    4.1055 C   0  0  0  0  0  0  0  0  0  0  0  0
    4.5423   -2.3758    2.9749 C   0  0  0  0  0  0  0  0  0  0  0  0
    5.6890   -3.0849    2.2949 C   0  0  0  0  0  0  0  0  0  0  0  0
    3.9143   -1.1669    2.4212 C   0  0  0  0  0  0  0  0  0  0  0  0
    4.2256   -0.3241    1.4024 C   0  0  0  0  0  0  0  0  0  0  0  0
    5.4232   -0.2005    0.5642 C   0  0  0  0  0  0  0  0  0  0  0  0
    5.4676    0.2456   -0.7087 C   0  0  0  0  0  0  0  0  0  0  0  0
    4.2993    0.5843   -1.5796 C   0  0  0  0  0  0  0  0  0  0  0  0
    6.6474   -0.5676    1.1406 O   0  0  0  0  0  0  0  0  0  0  0  0
    7.1936    0.1758    2.1239 C   0  0  0  0  0  0  0  0  0  0  0  0
    8.0261   -0.3894    2.9243 N   0  0  0  0  0  0  0  0  0  0  0  0
    8.6121    0.4085    3.8859 C   0  0  0  0  0  0  0  0  0  0  0  0
    9.5476   -0.1518    4.7912 C   0  0  0  0  0  0  0  0  0  0  0  0
   10.1456    0.5424    5.7448 N   0  0  0  0  0  0  0  0  0  0  0  0
    9.8589    1.8517    5.8721 C   0  0  0  0  0  0  0  0  0  0  0  0
    8.9603    2.5154    5.0459 C   0  0  0  0  0  0  0  0  0  0  0  0
    8.3228    1.7846    4.0322 C   0  0  0  0  0  0  0  0  0  0  0  0
    7.3616    2.4164    3.1113 C   0  0  0  0  0  0  0  0  0  0  0  0
    7.0151    3.5797    3.1054 O   0  0  0  0  0  0  0  0  0  0  0  0
    6.8514    1.5047    2.1713 N   0  0  0  0  0  0  0  0  0  0  0  0
    6.2001    1.8835    1.4862 H   0  0  0  0  0  0  0  0  0  0  0  0
    4.3840   -3.7957    4.5631 H   0  0  0  0  0  0  0  0  0  0  0  0
    3.1616   -2.3891    4.6086 H   0  0  0  0  0  0  0  0  0  0  0  0
    5.7695   -4.1160    2.6686 H   0  0  0  0  0  0  0  0  0  0  0  0
    6.6474   -2.5774    2.4785 H   0  0  0  0  0  0  0  0  0  0  0  0
    5.5484   -3.1233    1.2036 H   0  0  0  0  0  0  0  0  0  0  0  0
    2.9637   -0.9297    2.9123 H   0  0  0  0  0  0  0  0  0  0  0  0
    3.4585    0.4209    1.1686 H   0  0  0  0  0  0  0  0  0  0  0  0
    6.4641    0.3216   -1.1570 H   0  0  0  0  0  0  0  0  0  0  0  0
    3.3350    0.4902   -1.0619 H   0  0  0  0  0  0  0  0  0  0  0  0
    4.2702   -0.0826   -2.4595 H   0  0  0  0  0  0  0  0  0  0  0  0
    4.3852    1.6115   -1.9738 H   0  0  0  0  0  0  0  0  0  0  0  0
    9.7867   -1.2171    4.6950 H   0  0  0  0  0  0  0  0  0  0  0  0
   10.3764    2.3879    6.6750 H   0  0  0  0  0  0  0  0  0  0  0  0
    8.7408    3.5785    5.1634 H   0  0  0  0  0  0  0  0  0  0  0  0
  1  2  2  0
  1 22  1  0
  1 23  1  0
  2  3  1  0
  2  4  1  0
  3 24  1  0
  3 25  1  0
  3 26  1  0
  4  5  2  0
  4 27  1  0
  5  6  1  0
  5 28  1  0
  6  7  2  0
  6  9  1  0
  7  8  1  0
  7 29  1  0
  8 30  1  0
  8 31  1  0
  8 32  1  0
  9 10  1  0
 10 11  2  0
 10 20  1  0
 11 12  1  0
 12 13  2  0
 12 17  1  0
 13 14  1  0
 13 33  1  0
 14 15  2  0
 15 16  1  0
 15 34  1  0
 16 17  2  0
 16 35  1  0
 17 18  1  0
 18 19  2  0
 18 20  1  0
 20 21  1  0
M  END

