
     RDKit          3D

 29 31  0  0  0  0  0  0  0  0999 V2000
    0.9911   -0.4224   -0.2902 C   0  0  0  0  0  0  0  0  0  0  0  0
    2.4242   -0.2666   -0.2132 N   0  0  0  0  0  0  0  0  0  0  0  0
    3.0589    0.9735   -0.2751 C   0  0  0  0  0  0  0  0  0  0  0  0
    2.5380    2.0661   -0.3962 O   0  0  0  0  0  0  0  0  0  0  0  0
    4.4264    0.7069   -0.1588 N   0  0  0  0  0  0  0  0  0  0  0  0
    5.4140    1.7738   -0.1619 C   0  0  0  0  0  0  0  0  0  0  0  0
    6.1747    1.9267   -1.4392 C   0  0  0  0  0  0  0  0  0  0  0  0
    5.9913    2.6947   -2.5555 C   0  0  0  0  0  0  0  0  0  0  0  0
    7.0499    2.3657   -3.4658 C   0  0  0  0  0  0  0  0  0  0  0  0
    7.7947    1.4163   -2.8243 C   0  0  0  0  0  0  0  0  0  0  0  0
    9.3368    0.4938   -3.3333 Br  0  0  0  0  0  0  0  0  0  0  0  0
    7.2856    1.1398   -1.6037 O   0  0  0  0  0  0  0  0  0  0  0  0
    4.6403   -0.6636   -0.0380 C   0  0  0  0  0  0  0  0  0  0  0  0
    5.8012   -1.4200    0.0946 C   0  0  0  0  0  0  0  0  0  0  0  0
    5.6609   -2.8125    0.2111 C   0  0  0  0  0  0  0  0  0  0  0  0
    4.4003   -3.4205    0.1896 C   0  0  0  0  0  0  0  0  0  0  0  0
    3.2293   -2.6586    0.0479 C   0  0  0  0  0  0  0  0  0  0  0  0
    3.3662   -1.2781   -0.0651 C   0  0  0  0  0  0  0  0  0  0  0  0
    0.5541    0.5781   -0.4073 H   0  0  0  0  0  0  0  0  0  0  0  0
    0.5907   -0.8855    0.6272 H   0  0  0  0  0  0  0  0  0  0  0  0
    0.7043   -1.0450   -1.1541 H   0  0  0  0  0  0  0  0  0  0  0  0
    6.1176    1.6155    0.6721 H   0  0  0  0  0  0  0  0  0  0  0  0
    4.8550    2.7007    0.0271 H   0  0  0  0  0  0  0  0  0  0  0  0
    5.1864    3.4105   -2.7105 H   0  0  0  0  0  0  0  0  0  0  0  0
    7.2366    2.7757   -4.4549 H   0  0  0  0  0  0  0  0  0  0  0  0
    6.7858   -0.9510    0.0847 H   0  0  0  0  0  0  0  0  0  0  0  0
    6.5561   -3.4301    0.3142 H   0  0  0  0  0  0  0  0  0  0  0  0
    4.3228   -4.5065    0.2800 H   0  0  0  0  0  0  0  0  0  0  0  0
    2.2468   -3.1341    0.0279 H   0  0  0  0  0  0  0  0  0  0  0  0
  1  2  1  0
  1 19  1  0
  1 20  1  0
  1 21  1  0
  2  3  1  0
  2 18  1  0
  3  4  2  0
  3  5  1  0
  5  6  1  0
  5 13  1  0
  6  7  1  0
  6 22  1  0
  6 23  1  0
  7  8  2  0
  7 12  1  0
  8  9  1  0
  8 24  1  0
  9 10  2  0
  9 25  1  0
 10 11  1  0
 10 12  1  0
 13 14  1  0
 13 18  2  0
 14 15  2  0
 14 26  1  0
 15 16  1  0
 15 27  1  0
 16 17  2  0
 16 28  1  0
 17 18  1  0
 17 29  1  0
M  END

