
     RDKit          3D

 41 43  0  0  0  0  0  0  0  0999 V2000
    2.9720   -1.4840   -0.1420 C   0  0  0  0  0  0  0  0  0  0  0  0
    2.4082   -0.1873    0.1997 N   0  0  0  0  0  0  0  0  0  0  0  0
    1.1039    0.1222   -0.2777 C   0  0  0  0  0  0  0  0  0  0  0  0
    0.0518    0.3987    0.6138 C   0  0  0  0  0  0  0  0  0  0  0  0
   -1.2290    0.6759    0.1326 C   0  0  0  0  0  0  0  0  0  0  0  0
   -1.4887    0.6644   -1.2420 C   0  0  0  0  0  0  0  0  0  0  0  0
   -0.4498    0.3817   -2.1335 C   0  0  0  0  0  0  0  0  0  0  0  0
    0.8378    0.1223   -1.6581 C   0  0  0  0  0  0  0  0  0  0  0  0
    3.0637    0.6214    1.1298 C   0  0  0  0  0  0  0  0  0  0  0  0
    2.7168    1.9818    1.3032 C   0  0  0  0  0  0  0  0  0  0  0  0
    3.3996    2.7817    2.2102 C   0  0  0  0  0  0  0  0  0  0  0  0
    4.4689    2.2952    2.9929 C   0  0  0  0  0  0  0  0  0  0  0  0
    5.1459    3.1939    3.9277 C   0  0  0  0  0  0  0  0  0  0  0  0
    6.1911    2.9060    4.7367 C   0  0  0  0  0  0  0  0  0  0  0  0
    6.8637    3.8132    5.6727 C   0  0  0  0  0  0  0  0  0  0  0  0
    6.4859    5.1607    5.8629 C   0  0  0  0  0  0  0  0  0  0  0  0
    7.1627    5.9769    6.7669 C   0  0  0  0  0  0  0  0  0  0  0  0
    8.2383    5.4761    7.5113 C   0  0  0  0  0  0  0  0  0  0  0  0
    8.6277    4.1452    7.3381 C   0  0  0  0  0  0  0  0  0  0  0  0
    7.9492    3.3282    6.4323 C   0  0  0  0  0  0  0  0  0  0  0  0
    4.8152    0.9425    2.8059 C   0  0  0  0  0  0  0  0  0  0  0  0
    4.1391    0.1257    1.9055 C   0  0  0  0  0  0  0  0  0  0  0  0
    2.4098   -1.9152   -0.9788 H   0  0  0  0  0  0  0  0  0  0  0  0
    2.9169   -2.2007    0.7001 H   0  0  0  0  0  0  0  0  0  0  0  0
    4.0288   -1.3942   -0.4431 H   0  0  0  0  0  0  0  0  0  0  0  0
    0.2460    0.3930    1.6882 H   0  0  0  0  0  0  0  0  0  0  0  0
   -2.0349    0.8876    0.8403 H   0  0  0  0  0  0  0  0  0  0  0  0
   -2.4938    0.8750   -1.6151 H   0  0  0  0  0  0  0  0  0  0  0  0
   -0.6372    0.3773   -3.2104 H   0  0  0  0  0  0  0  0  0  0  0  0
    1.6519   -0.0718   -2.3604 H   0  0  0  0  0  0  0  0  0  0  0  0
    1.9108    2.4148    0.7102 H   0  0  0  0  0  0  0  0  0  0  0  0
    3.1036    3.8302    2.3115 H   0  0  0  0  0  0  0  0  0  0  0  0
    4.7347    4.2090    3.9491 H   0  0  0  0  0  0  0  0  0  0  0  0
    6.6071    1.8930    4.7152 H   0  0  0  0  0  0  0  0  0  0  0  0
    5.6504    5.5770    5.2960 H   0  0  0  0  0  0  0  0  0  0  0  0
    6.8487    7.0166    6.8940 H   0  0  0  0  0  0  0  0  0  0  0  0
    8.7664    6.1195    8.2194 H   0  0  0  0  0  0  0  0  0  0  0  0
    9.4653    3.7397    7.9119 H   0  0  0  0  0  0  0  0  0  0  0  0
    8.2619    2.2879    6.3040 H   0  0  0  0  0  0  0  0  0  0  0  0
    5.6331    0.5053    3.3832 H   0  0  0  0  0  0  0  0  0  0  0  0
    4.4500   -0.9146    1.8152 H   0  0  0  0  0  0  0  0  0  0  0  0
  1  2  1  0
  1 23  1  0
  1 24  1  0
  1 25  1  0
  2  3  1  0
  2  9  1  0
  3  4  2  0
  3  8  1  0
  4  5  1  0
  4 26  1  0
  5  6  2  0
  5 27  1  0
  6  7  1  0
  6 28  1  0
  7  8  2  0
  7 29  1  0
  8 30  1  0
  9 10  2  0
  9 22  1  0
 10 11  1  0
 10 31  1  0
 11 12  2  0
 11 32  1  0
 12 13  1  0
 12 21  1  0
 13 14  2  0
 13 33  1  0
 14 15  1  0
 14 34  1  0
 15 16  2  0
 15 20  1  0
 16 17  1  0
 16 35  1  0
 17 18  2  0
 17 36  1  0
 18 19  1  0
 18 37  1  0
 19 20  2  0
 19 38  1  0
 20 39  1  0
 21 22  2  0
 21 40  1  0
 22 41  1  0
M  END

