
     RDKit          3D

 34 36  0  0  0  0  0  0  0  0999 V2000
    5.4072    3.1753   -0.5749 Br  0  0  0  0  0  0  0  0  0  0  0  0
    5.1177    1.2710   -0.1562 C   0  0  0  0  0  0  0  0  0  0  0  0
    5.1274    0.4089   -1.4141 C   0  0  0  0  0  0  0  0  0  0  0  0
    4.8973   -0.9749   -1.0290 N   0  0  0  0  0  0  0  0  0  0  0  0
    5.3308   -2.0546   -1.9257 C   0  0  2  0  0  0  0  0  0  0  0  0
    6.8749   -2.1367   -1.9726 C   0  0  0  0  0  0  0  0  0  0  0  0
    7.3288   -3.3332   -2.8327 C   0  0  1  0  0  0  0  0  0  0  0  0
    6.7844   -4.6392   -2.2235 C   0  0  0  0  0  0  0  0  0  0  0  0
    5.2450   -4.5828   -2.1884 C   0  0  2  0  0  0  0  0  0  0  0  0
    4.7035   -4.4242   -3.6226 C   0  0  0  0  0  0  0  0  0  0  0  0
    5.2487   -3.1202   -4.2364 C   0  0  2  0  0  0  0  0  0  0  0  0
    6.7889   -3.1713   -4.2674 C   0  0  0  0  0  0  0  0  0  0  0  0
    4.7972   -1.9215   -3.3773 C   0  0  0  0  0  0  0  0  0  0  0  0
    4.8007   -3.3805   -1.3354 C   0  0  0  0  0  0  0  0  0  0  0  0
    4.1526    1.2249    0.3665 H   0  0  0  0  0  0  0  0  0  0  0  0
    5.9141    0.9726    0.5359 H   0  0  0  0  0  0  0  0  0  0  0  0
    6.1149    0.4977   -1.8904 H   0  0  0  0  0  0  0  0  0  0  0  0
    4.3931    0.8131   -2.1404 H   0  0  0  0  0  0  0  0  0  0  0  0
    3.9152   -1.1099   -0.7912 H   0  0  0  0  0  0  0  0  0  0  0  0
    7.2552   -2.2281   -0.9415 H   0  0  0  0  0  0  0  0  0  0  0  0
    7.2950   -1.2057   -2.3889 H   0  0  0  0  0  0  0  0  0  0  0  0
    8.4314   -3.3652   -2.8532 H   0  0  0  0  0  0  0  0  0  0  0  0
    7.1830   -4.7778   -1.2036 H   0  0  0  0  0  0  0  0  0  0  0  0
    7.1199   -5.5064   -2.8184 H   0  0  0  0  0  0  0  0  0  0  0  0
    4.8488   -5.5106   -1.7417 H   0  0  0  0  0  0  0  0  0  0  0  0
    3.5997   -4.4070   -3.6130 H   0  0  0  0  0  0  0  0  0  0  0  0
    5.0028   -5.2893   -4.2393 H   0  0  0  0  0  0  0  0  0  0  0  0
    4.8605   -3.0022   -5.2625 H   0  0  0  0  0  0  0  0  0  0  0  0
    7.1904   -2.2493   -4.7230 H   0  0  0  0  0  0  0  0  0  0  0  0
    7.1283   -4.0113   -4.8978 H   0  0  0  0  0  0  0  0  0  0  0  0
    3.6941   -1.8602   -3.3547 H   0  0  0  0  0  0  0  0  0  0  0  0
    5.1601   -0.9816   -3.8269 H   0  0  0  0  0  0  0  0  0  0  0  0
    5.1647   -3.4777   -0.2990 H   0  0  0  0  0  0  0  0  0  0  0  0
    3.6967   -3.3409   -1.2861 H   0  0  0  0  0  0  0  0  0  0  0  0
  1  2  1  0
  2  3  1  0
  2 15  1  0
  2 16  1  0
  3  4  1  0
  3 17  1  0
  3 18  1  0
  5  4  1  1
  4 19  1  0
  5  6  1  0
  5 13  1  0
  5 14  1  0
  6  7  1  0
  6 20  1  0
  6 21  1  0
  7  8  1  0
  7 12  1  0
  7 22  1  6
  8  9  1  0
  8 23  1  0
  8 24  1  0
  9 10  1  0
  9 14  1  0
  9 25  1  1
 10 11  1  0
 10 26  1  0
 10 27  1  0
 11 12  1  0
 11 13  1  0
 11 28  1  6
 12 29  1  0
 12 30  1  0
 13 31  1  0
 13 32  1  0
 14 33  1  0
 14 34  1  0
M  END

