
     RDKit          3D

 31 31  0  0  0  0  0  0  0  0999 V2000
    5.0374   -3.4682    0.8496 N   0  0  0  0  0  0  0  0  0  0  0  0
    4.3819   -2.3944    0.3336 C   0  0  0  0  0  0  0  0  0  0  0  0
    3.1899   -2.3042    0.1497 O   0  0  0  0  0  0  0  0  0  0  0  0
    5.2666   -1.3757    0.0872 O   0  0  0  0  0  0  0  0  0  0  0  0
    4.7886   -0.2544   -0.6591 C   0  0  0  0  0  0  0  0  0  0  0  0
    5.2560   -0.3637   -2.1063 C   0  0  0  0  0  0  0  0  0  0  0  0
    6.6859   -0.6368   -2.1290 N   0  0  0  0  0  0  0  0  0  0  0  0
    7.3208   -1.0585   -3.2574 C   0  0  0  0  0  0  0  0  0  0  0  0
    6.8873   -0.8959   -4.3833 O   0  0  0  0  0  0  0  0  0  0  0  0
    8.6898   -1.6782   -3.0178 C   0  0  0  0  0  0  0  0  0  0  0  0
    9.7499   -1.1666   -3.7561 C   0  0  0  0  0  0  0  0  0  0  0  0
   11.0786   -1.6155   -3.5675 C   0  0  0  0  0  0  0  0  0  0  0  0
   12.0978   -1.0970   -4.3076 N   0  0  0  0  0  0  0  0  0  0  0  0
   11.3199   -2.6030   -2.5814 C   0  0  0  0  0  0  0  0  0  0  0  0
   10.2708   -3.1301   -1.8463 C   0  0  0  0  0  0  0  0  0  0  0  0
    8.9595   -2.6952   -2.0762 C   0  0  0  0  0  0  0  0  0  0  0  0
    7.8851   -3.3743   -1.3644 N   0  0  0  0  0  0  0  0  0  0  0  0
    6.8033   -3.4887   -1.9233 O   0  0  0  0  0  0  0  0  0  0  0  0
    8.1218   -3.8041   -0.2350 O   0  0  0  0  0  0  0  0  0  0  0  0
    4.4844   -4.3129    0.9259 H   0  0  0  0  0  0  0  0  0  0  0  0
    6.0297   -3.5852    0.6562 H   0  0  0  0  0  0  0  0  0  0  0  0
    5.2143    0.6392   -0.1756 H   0  0  0  0  0  0  0  0  0  0  0  0
    3.6921   -0.2105   -0.6078 H   0  0  0  0  0  0  0  0  0  0  0  0
    5.0261    0.5712   -2.6445 H   0  0  0  0  0  0  0  0  0  0  0  0
    4.7136   -1.1753   -2.6213 H   0  0  0  0  0  0  0  0  0  0  0  0
    7.0719   -0.9284   -1.2381 H   0  0  0  0  0  0  0  0  0  0  0  0
    9.5339   -0.3887   -4.4922 H   0  0  0  0  0  0  0  0  0  0  0  0
   11.9168   -0.4258   -5.0403 H   0  0  0  0  0  0  0  0  0  0  0  0
   13.0446   -1.4300   -4.1956 H   0  0  0  0  0  0  0  0  0  0  0  0
   12.3378   -2.9620   -2.4105 H   0  0  0  0  0  0  0  0  0  0  0  0
   10.4434   -3.9069   -1.1006 H   0  0  0  0  0  0  0  0  0  0  0  0
  1  2  1  0
  1 20  1  0
  1 21  1  0
  2  3  2  0
  2  4  1  0
  4  5  1  0
  5  6  1  0
  5 22  1  0
  5 23  1  0
  6  7  1  0
  6 24  1  0
  6 25  1  0
  7  8  1  0
  7 26  1  0
  8  9  2  0
  8 10  1  0
 10 11  2  0
 10 16  1  0
 11 12  1  0
 11 27  1  0
 12 13  1  0
 12 14  2  0
 13 28  1  0
 13 29  1  0
 14 15  1  0
 14 30  1  0
 15 16  2  0
 15 31  1  0
 16 17  1  0
 17 18  2  0
 17 19  1  0
M  CHG  2  17   1  19  -1
M  END

