
     RDKit          3D

 63 66  0  0  0  0  0  0  0  0999 V2000
    1.5220  -18.5456   -3.0565 C   0  0  0  0  0  0  0  0  0  0  0  0
    2.0615  -17.2825   -3.6841 C   0  0  0  0  0  0  0  0  0  0  0  0
    1.4131  -16.0488   -3.5232 C   0  0  0  0  0  0  0  0  0  0  0  0
    1.9036  -14.8838   -4.1172 C   0  0  0  0  0  0  0  0  0  0  0  0
    3.0623  -14.9345   -4.8974 C   0  0  0  0  0  0  0  0  0  0  0  0
    3.4559  -13.7728   -5.5168 O   0  0  0  0  0  0  0  0  0  0  0  0
    4.7810  -13.4378   -5.6625 C   0  0  0  0  0  0  0  0  0  0  0  0
    5.1465  -12.7746   -6.8386 C   0  0  0  0  0  0  0  0  0  0  0  0
    6.4627  -12.3456   -7.0115 C   0  0  0  0  0  0  0  0  0  0  0  0
    7.4480  -12.5681   -6.0341 C   0  0  0  0  0  0  0  0  0  0  0  0
    8.8664  -12.0866   -6.2438 C   0  0  0  0  0  0  0  0  0  0  0  0
    9.2813  -10.7765   -5.4812 C   0  0  1  0  0  0  0  0  0  0  0  0
   10.6813  -10.3655   -5.9688 C   0  0  0  0  0  0  0  0  0  0  0  0
    8.2924   -9.6411   -5.7862 C   0  0  0  0  0  0  0  0  0  0  0  0
    9.2974  -10.9359   -4.0195 N   0  0  0  0  0  0  0  0  0  0  0  0
   10.2580  -11.8437   -3.4195 C   0  0  0  0  0  0  0  0  0  0  0  0
    9.9912  -11.9967   -1.9234 C   0  0  2  0  0  0  0  0  0  0  0  0
   10.7447  -12.6984   -1.5101 H   0  0  0  0  0  0  0  0  0  0  0  0
    8.6888  -12.5359   -1.7729 O   0  0  0  0  0  0  0  0  0  0  0  0
   10.1125  -10.6798   -1.1640 C   0  0  0  0  0  0  0  0  0  0  0  0
    9.7293  -10.9725    0.1850 O   0  0  0  0  0  0  0  0  0  0  0  0
    9.6389  -10.0068    1.1285 C   0  0  0  0  0  0  0  0  0  0  0  0
    9.1059  -10.3480    2.3624 C   0  0  0  0  0  0  0  0  0  0  0  0
    8.9810   -9.4112    3.4264 C   0  0  0  0  0  0  0  0  0  0  0  0
    9.3790   -8.0959    3.3065 C   0  0  0  0  0  0  0  0  0  0  0  0
    9.9290   -7.7194    2.0571 C   0  0  0  0  0  0  0  0  0  0  0  0
   10.4080   -6.5279    1.6396 N   0  0  0  0  0  0  0  0  0  0  0  0
   10.7881   -6.7824    0.4038 N   0  0  0  0  0  0  0  0  0  0  0  0
   11.1970   -6.0533   -0.1742 H   0  0  0  0  0  0  0  0  0  0  0  0
   10.6265   -7.9992   -0.0710 N   0  0  0  0  0  0  0  0  0  0  0  0
   10.0660   -8.6512    0.9718 C   0  0  0  0  0  0  0  0  0  0  0  0
    7.0565  -13.2412   -4.8622 C   0  0  0  0  0  0  0  0  0  0  0  0
    5.7397  -13.6678   -4.6688 C   0  0  0  0  0  0  0  0  0  0  0  0
    3.7256  -16.1556   -5.0792 C   0  0  0  0  0  0  0  0  0  0  0  0
    3.2250  -17.3077   -4.4713 C   0  0  0  0  0  0  0  0  0  0  0  0
    0.7675  -18.3238   -2.2869 H   0  0  0  0  0  0  0  0  0  0  0  0
    2.3228  -19.1371   -2.5840 H   0  0  0  0  0  0  0  0  0  0  0  0
    1.0433  -19.1960   -3.8094 H   0  0  0  0  0  0  0  0  0  0  0  0
    0.5057  -15.9932   -2.9148 H   0  0  0  0  0  0  0  0  0  0  0  0
    1.3983  -13.9245   -3.9885 H   0  0  0  0  0  0  0  0  0  0  0  0
    4.3869  -12.6029   -7.6039 H   0  0  0  0  0  0  0  0  0  0  0  0
    6.7337  -11.8315   -7.9383 H   0  0  0  0  0  0  0  0  0  0  0  0
    9.0267  -11.9142   -7.3206 H   0  0  0  0  0  0  0  0  0  0  0  0
    9.5731  -12.8835   -5.9575 H   0  0  0  0  0  0  0  0  0  0  0  0
   10.6480  -10.0720   -7.0292 H   0  0  0  0  0  0  0  0  0  0  0  0
   11.4107  -11.1860   -5.8792 H   0  0  0  0  0  0  0  0  0  0  0  0
   11.0519   -9.5091   -5.3841 H   0  0  0  0  0  0  0  0  0  0  0  0
    8.1968   -9.4745   -6.8711 H   0  0  0  0  0  0  0  0  0  0  0  0
    8.6363   -8.7081   -5.3148 H   0  0  0  0  0  0  0  0  0  0  0  0
    7.2894   -9.8706   -5.3942 H   0  0  0  0  0  0  0  0  0  0  0  0
    8.3650  -11.1809   -3.6871 H   0  0  0  0  0  0  0  0  0  0  0  0
   11.2827  -11.4581   -3.5513 H   0  0  0  0  0  0  0  0  0  0  0  0
   10.2514  -12.8675   -3.8535 H   0  0  0  0  0  0  0  0  0  0  0  0
    8.4560  -12.4507   -0.8367 H   0  0  0  0  0  0  0  0  0  0  0  0
    9.4490   -9.9180   -1.5979 H   0  0  0  0  0  0  0  0  0  0  0  0
   11.1445  -10.2975   -1.1994 H   0  0  0  0  0  0  0  0  0  0  0  0
    8.7768  -11.3793    2.5056 H   0  0  0  0  0  0  0  0  0  0  0  0
    8.5498   -9.7608    4.3679 H   0  0  0  0  0  0  0  0  0  0  0  0
    9.2836   -7.3756    4.1194 H   0  0  0  0  0  0  0  0  0  0  0  0
    7.7796  -13.4344   -4.0665 H   0  0  0  0  0  0  0  0  0  0  0  0
    5.4598  -14.1776   -3.7451 H   0  0  0  0  0  0  0  0  0  0  0  0
    4.6266  -16.2016   -5.6936 H   0  0  0  0  0  0  0  0  0  0  0  0
    3.7527  -18.2546   -4.6203 H   0  0  0  0  0  0  0  0  0  0  0  0
  1  2  1  0
  1 36  1  0
  1 37  1  0
  1 38  1  0
  2  3  2  0
  2 35  1  0
  3  4  1  0
  3 39  1  0
  4  5  2  0
  4 40  1  0
  5  6  1  0
  5 34  1  0
  6  7  1  0
  7  8  2  0
  7 33  1  0
  8  9  1  0
  8 41  1  0
  9 10  2  0
  9 42  1  0
 10 11  1  0
 10 32  1  0
 11 12  1  0
 11 43  1  0
 11 44  1  0
 12 13  1  0
 12 14  1  0
 12 15  1  1
 13 45  1  0
 13 46  1  0
 13 47  1  0
 14 48  1  0
 14 49  1  0
 14 50  1  0
 15 16  1  0
 15 51  1  0
 16 17  1  0
 16 52  1  0
 16 53  1  0
 17 18  1  1
 17 19  1  0
 17 20  1  0
 19 54  1  0
 20 21  1  0
 20 55  1  0
 20 56  1  0
 21 22  1  0
 22 23  2  0
 22 31  1  0
 23 24  1  0
 23 57  1  0
 24 25  2  0
 24 58  1  0
 25 26  1  0
 25 59  1  0
 26 27  2  0
 26 31  1  0
 27 28  1  0
 28 29  1  0
 28 30  1  0
 30 31  2  0
 32 33  2  0
 32 60  1  0
 33 61  1  0
 34 35  2  0
 34 62  1  0
 35 63  1  0
M  END

