
     RDKit          3D

 30 32  0  0  0  0  0  0  0  0999 V2000
    1.6057    0.4612    1.3108 O   0  0  0  0  0  0  0  0  0  0  0  0
    2.4290    0.1693    0.4692 C   0  0  0  0  0  0  0  0  0  0  0  0
    2.9124   -1.2463    0.1962 C   0  0  0  0  0  0  0  0  0  0  0  0
    3.2850   -1.4731   -1.2730 C   0  0  0  0  0  0  0  0  0  0  0  0
    4.2128   -0.3901   -1.7729 C   0  0  0  0  0  0  0  0  0  0  0  0
    5.2009   -0.6088   -2.7291 C   0  0  0  0  0  0  0  0  0  0  0  0
    6.0093    0.4282   -3.2295 C   0  0  0  0  0  0  0  0  0  0  0  0
    7.0835    0.2269   -4.2576 C   0  0  1  0  0  0  0  0  0  0  0  0
    8.6850   -0.7042   -3.3783 Br  0  0  0  0  0  0  0  0  0  0  0  0
    6.7241   -0.4861   -5.5009 C   0  0  0  0  0  0  0  0  0  0  0  0
    6.9229   -0.1527   -6.8169 C   0  0  0  0  0  0  0  0  0  0  0  0
    6.3779   -1.2249   -7.5940 C   0  0  0  0  0  0  0  0  0  0  0  0
    5.8941   -2.1306   -6.6936 C   0  0  0  0  0  0  0  0  0  0  0  0
    6.0978   -1.6925   -5.4264 O   0  0  0  0  0  0  0  0  0  0  0  0
    5.7834    1.7086   -2.7093 C   0  0  0  0  0  0  0  0  0  0  0  0
    6.5305    2.7372   -3.1465 F   0  0  0  0  0  0  0  0  0  0  0  0
    4.8171    1.9720   -1.7449 C   0  0  0  0  0  0  0  0  0  0  0  0
    4.0272    0.9182   -1.2703 C   0  0  0  0  0  0  0  0  0  0  0  0
    3.0437    1.1431   -0.3032 N   0  0  0  0  0  0  0  0  0  0  0  0
    2.1289   -1.9331    0.5437 H   0  0  0  0  0  0  0  0  0  0  0  0
    3.7961   -1.4092    0.8403 H   0  0  0  0  0  0  0  0  0  0  0  0
    2.3624   -1.4702   -1.8842 H   0  0  0  0  0  0  0  0  0  0  0  0
    3.7420   -2.4650   -1.4072 H   0  0  0  0  0  0  0  0  0  0  0  0
    5.3550   -1.6192   -3.1104 H   0  0  0  0  0  0  0  0  0  0  0  0
    7.5118    1.1924   -4.5382 H   0  0  0  0  0  0  0  0  0  0  0  0
    7.4045    0.7519   -7.1822 H   0  0  0  0  0  0  0  0  0  0  0  0
    6.3503   -1.3098   -8.6782 H   0  0  0  0  0  0  0  0  0  0  0  0
    5.3983   -3.0926   -6.7936 H   0  0  0  0  0  0  0  0  0  0  0  0
    4.7008    2.9912   -1.3719 H   0  0  0  0  0  0  0  0  0  0  0  0
    2.8024    2.0986   -0.0560 H   0  0  0  0  0  0  0  0  0  0  0  0
  1  2  2  0
  2  3  1  0
  2 19  1  0
  3  4  1  0
  3 20  1  0
  3 21  1  0
  4  5  1  0
  4 22  1  0
  4 23  1  0
  5  6  1  0
  5 18  2  0
  6  7  2  0
  6 24  1  0
  7  8  1  0
  7 15  1  0
  8  9  1  0
  8 10  1  0
  8 25  1  6
 10 11  2  0
 10 14  1  0
 11 12  1  0
 11 26  1  0
 12 13  2  0
 12 27  1  0
 13 14  1  0
 13 28  1  0
 15 16  1  0
 15 17  2  0
 17 18  1  0
 17 29  1  0
 18 19  1  0
 19 30  1  0
M  END

