
     RDKit          3D

 42 44  0  0  0  0  0  0  0  0999 V2000
    1.3646    0.4021   -0.5449 C   0  0  0  0  0  0  0  0  0  0  0  0
    2.7081    0.2249    0.1531 C   0  0  1  0  0  0  0  0  0  0  0  0
    3.0013    1.2277    1.2969 C   0  0  0  0  0  0  0  0  0  0  0  0
    3.9877    0.4853    2.1706 C   0  0  0  0  0  0  0  0  0  0  0  0
    4.8340    0.9739    3.1695 C   0  0  0  0  0  0  0  0  0  0  0  0
    5.6631    0.0810    3.8593 C   0  0  0  0  0  0  0  0  0  0  0  0
    5.6456   -1.2872    3.5577 C   0  0  0  0  0  0  0  0  0  0  0  0
    4.7962   -1.7793    2.5598 C   0  0  0  0  0  0  0  0  0  0  0  0
    3.9755   -0.8859    1.8671 C   0  0  0  0  0  0  0  0  0  0  0  0
    2.9592   -1.1860    0.7809 C   0  0  1  0  0  0  0  0  0  0  0  0
    1.7723   -1.8180    1.3612 N   0  0  0  0  0  0  0  0  0  0  0  0
    1.0788   -2.7862    0.6656 C   0  0  0  0  0  0  0  0  0  0  0  0
    1.3965   -3.1157   -0.4706 O   0  0  0  0  0  0  0  0  0  0  0  0
   -0.0112   -3.3574    1.3151 N   0  0  0  0  0  0  0  0  0  0  0  0
   -0.5347   -2.9634    2.6142 C   0  0  0  0  0  0  0  0  0  0  0  0
   -2.0637   -2.8272    2.5774 C   0  0  0  0  0  0  0  0  0  0  0  0
   -2.7496   -4.0920    2.0135 C   0  0  2  0  0  0  0  0  0  0  0  0
   -2.6556   -5.2154    2.9609 C   0  0  0  0  0  0  0  0  0  0  0  0
   -2.5653   -6.0963    3.7089 N   0  0  0  0  0  0  0  0  0  0  0  0
   -2.1251   -4.4508    0.6445 C   0  0  0  0  0  0  0  0  0  0  0  0
   -0.6029   -4.5600    0.7366 C   0  0  0  0  0  0  0  0  0  0  0  0
    1.2901    1.3997   -1.0075 H   0  0  0  0  0  0  0  0  0  0  0  0
    0.5311    0.2990    0.1684 H   0  0  0  0  0  0  0  0  0  0  0  0
    1.2250   -0.3549   -1.3316 H   0  0  0  0  0  0  0  0  0  0  0  0
    3.5108    0.3513   -0.5950 H   0  0  0  0  0  0  0  0  0  0  0  0
    2.0808    1.4605    1.8658 H   0  0  0  0  0  0  0  0  0  0  0  0
    3.3903    2.1903    0.9269 H   0  0  0  0  0  0  0  0  0  0  0  0
    4.8545    2.0406    3.4101 H   0  0  0  0  0  0  0  0  0  0  0  0
    6.3336    0.4548    4.6377 H   0  0  0  0  0  0  0  0  0  0  0  0
    6.3029   -1.9715    4.1004 H   0  0  0  0  0  0  0  0  0  0  0  0
    4.7826   -2.8466    2.3209 H   0  0  0  0  0  0  0  0  0  0  0  0
    3.3336   -1.8804    0.0151 H   0  0  0  0  0  0  0  0  0  0  0  0
    1.6631   -1.7444    2.3633 H   0  0  0  0  0  0  0  0  0  0  0  0
   -0.1201   -1.9910    2.9089 H   0  0  0  0  0  0  0  0  0  0  0  0
   -0.2463   -3.6968    3.3943 H   0  0  0  0  0  0  0  0  0  0  0  0
   -2.3325   -1.9821    1.9227 H   0  0  0  0  0  0  0  0  0  0  0  0
   -2.4409   -2.5998    3.5869 H   0  0  0  0  0  0  0  0  0  0  0  0
   -3.8256   -3.8874    1.8819 H   0  0  0  0  0  0  0  0  0  0  0  0
   -2.3943   -3.6544   -0.0685 H   0  0  0  0  0  0  0  0  0  0  0  0
   -2.5476   -5.3940    0.2643 H   0  0  0  0  0  0  0  0  0  0  0  0
   -0.1593   -4.6956   -0.2567 H   0  0  0  0  0  0  0  0  0  0  0  0
   -0.3335   -5.4416    1.3520 H   0  0  0  0  0  0  0  0  0  0  0  0
  1  2  1  0
  1 22  1  0
  1 23  1  0
  1 24  1  0
  2  3  1  0
  2 10  1  0
  2 25  1  6
  3  4  1  0
  3 26  1  0
  3 27  1  0
  4  5  2  0
  4  9  1  0
  5  6  1  0
  5 28  1  0
  6  7  2  0
  6 29  1  0
  7  8  1  0
  7 30  1  0
  8  9  2  0
  8 31  1  0
  9 10  1  0
 10 11  1  0
 10 32  1  6
 11 12  1  0
 11 33  1  0
 12 13  2  0
 12 14  1  0
 14 15  1  0
 14 21  1  0
 15 16  1  0
 15 34  1  0
 15 35  1  0
 16 17  1  0
 16 36  1  0
 16 37  1  0
 17 18  1  0
 17 20  1  0
 17 38  1  6
 18 19  3  0
 20 21  1  0
 20 39  1  0
 20 40  1  0
 21 41  1  0
 21 42  1  0
M  END

