
     RDKit          3D

 46 48  0  0  0  0  0  0  0  0999 V2000
    1.6280   -1.7837   -1.8188 O   0  0  0  0  0  0  0  0  0  0  0  0
    2.6705   -1.2083   -1.5914 C   0  0  0  0  0  0  0  0  0  0  0  0
    2.9796   -0.5845   -0.2381 C   0  0  0  0  0  0  0  0  0  0  0  0
    4.3773   -0.9726    0.2764 C   0  0  0  0  0  0  0  0  0  0  0  0
    5.5073   -0.7251   -0.7535 C   0  0  2  0  0  0  0  0  0  0  0  0
    5.7755    0.7712   -0.9142 C   0  0  0  0  0  0  0  0  0  0  0  0
    4.9307    1.5067   -1.4183 O   0  0  0  0  0  0  0  0  0  0  0  0
    6.9471    1.3066   -0.4453 N   0  0  0  0  0  0  0  0  0  0  0  0
    7.0891    2.7731   -0.4869 C   0  0  0  0  0  0  0  0  0  0  0  0
    8.2610    3.0811    0.4627 C   0  0  0  0  0  0  0  0  0  0  0  0
    8.4362    1.7869    1.2718 C   0  0  0  0  0  0  0  0  0  0  0  0
    8.0710    0.6782    0.2604 C   0  0  2  0  0  0  0  0  0  0  0  0
    9.2739    0.3262   -0.6895 C   0  0  1  0  0  0  0  0  0  0  0  0
   10.4900   -0.2838    0.0475 C   0  0  0  0  0  0  0  0  0  0  0  0
   10.3674   -1.7866    0.3231 C   0  0  0  0  0  0  0  0  0  0  0  0
   10.1692   -2.5547   -0.9850 C   0  0  0  0  0  0  0  0  0  0  0  0
    8.9161   -2.0639   -1.7220 C   0  0  0  0  0  0  0  0  0  0  0  0
    8.8174   -0.5481   -1.8649 C   0  0  0  0  0  0  0  0  0  0  0  0
    8.3508   -0.0406   -2.8627 O   0  0  0  0  0  0  0  0  0  0  0  0
    5.1572   -1.3963   -2.1026 C   0  0  0  0  0  0  0  0  0  0  0  0
    3.7590   -1.0325   -2.6361 C   0  0  0  0  0  0  0  0  0  0  0  0
    2.1925   -0.8832    0.4700 H   0  0  0  0  0  0  0  0  0  0  0  0
    2.9371    0.5094   -0.3728 H   0  0  0  0  0  0  0  0  0  0  0  0
    4.3826   -2.0488    0.5242 H   0  0  0  0  0  0  0  0  0  0  0  0
    4.5932   -0.4383    1.2172 H   0  0  0  0  0  0  0  0  0  0  0  0
    6.4079   -1.2189   -0.3660 H   0  0  0  0  0  0  0  0  0  0  0  0
    6.1396    3.2264   -0.1645 H   0  0  0  0  0  0  0  0  0  0  0  0
    7.2675    3.1192   -1.5175 H   0  0  0  0  0  0  0  0  0  0  0  0
    8.0578    3.9517    1.1031 H   0  0  0  0  0  0  0  0  0  0  0  0
    9.1771    3.3096   -0.1041 H   0  0  0  0  0  0  0  0  0  0  0  0
    7.7100    1.7524    2.1001 H   0  0  0  0  0  0  0  0  0  0  0  0
    9.4375    1.6795    1.7102 H   0  0  0  0  0  0  0  0  0  0  0  0
    7.7371   -0.2295    0.7823 H   0  0  0  0  0  0  0  0  0  0  0  0
    9.5764    1.2752   -1.1580 H   0  0  0  0  0  0  0  0  0  0  0  0
   10.6836    0.2638    0.9824 H   0  0  0  0  0  0  0  0  0  0  0  0
   11.3837   -0.1222   -0.5804 H   0  0  0  0  0  0  0  0  0  0  0  0
    9.5223   -1.9886    1.0068 H   0  0  0  0  0  0  0  0  0  0  0  0
   11.2721   -2.1413    0.8435 H   0  0  0  0  0  0  0  0  0  0  0  0
   10.0926   -3.6385   -0.8011 H   0  0  0  0  0  0  0  0  0  0  0  0
   11.0560   -2.4105   -1.6276 H   0  0  0  0  0  0  0  0  0  0  0  0
    8.0220   -2.3829   -1.1541 H   0  0  0  0  0  0  0  0  0  0  0  0
    8.8168   -2.4976   -2.7279 H   0  0  0  0  0  0  0  0  0  0  0  0
    5.2060   -2.4892   -1.9484 H   0  0  0  0  0  0  0  0  0  0  0  0
    5.9227   -1.1488   -2.8544 H   0  0  0  0  0  0  0  0  0  0  0  0
    3.4966   -1.6363   -3.5174 H   0  0  0  0  0  0  0  0  0  0  0  0
    3.7570    0.0320   -2.9236 H   0  0  0  0  0  0  0  0  0  0  0  0
  1  2  2  0
  2  3  1  0
  2 21  1  0
  3  4  1  0
  3 22  1  0
  3 23  1  0
  4  5  1  0
  4 24  1  0
  4 25  1  0
  5  6  1  0
  5 20  1  0
  5 26  1  1
  6  7  2  0
  6  8  1  0
  8  9  1  0
  8 12  1  0
  9 10  1  0
  9 27  1  0
  9 28  1  0
 10 11  1  0
 10 29  1  0
 10 30  1  0
 11 12  1  0
 11 31  1  0
 11 32  1  0
 12 13  1  0
 12 33  1  1
 13 14  1  0
 13 18  1  0
 13 34  1  6
 14 15  1  0
 14 35  1  0
 14 36  1  0
 15 16  1  0
 15 37  1  0
 15 38  1  0
 16 17  1  0
 16 39  1  0
 16 40  1  0
 17 18  1  0
 17 41  1  0
 17 42  1  0
 18 19  2  0
 20 21  1  0
 20 43  1  0
 20 44  1  0
 21 45  1  0
 21 46  1  0
M  END

