
     RDKit          3D

  5  4  0  0  0  0  0  0  0  0999 V2000
    0.9354    0.0587   -0.0667 C   0  0  0  0  0  0  0  0  0  0  0  0
    3.1024    0.0591   -0.0667 I   0  0  0  0  0  0  0  0  0  0  0  0
    0.6043   -0.6787    0.6736 H   0  0  0  0  0  0  0  0  0  0  0  0
    0.6045   -0.2138   -1.0756 H   0  0  0  0  0  0  0  0  0  0  0  0
    0.6050    1.0688    0.2017 H   0  0  0  0  0  0  0  0  0  0  0  0
  1  2  1  0
  1  3  1  0
  1  4  1  0
  1  5  1  0
M  END

