
     RDKit          3D

 23 24  0  0  0  0  0  0  0  0999 V2000
    1.1148   -0.1943    0.9423 C   0  0  0  0  0  0  0  0  0  0  0  0
    2.6419   -0.1881    1.0293 C   0  0  0  0  0  0  0  0  0  0  0  0
    3.2243   -1.5920    0.9196 C   0  0  0  0  0  0  0  0  0  0  0  0
    4.6663   -1.5721    0.9058 O   0  0  0  0  0  0  0  0  0  0  0  0
    5.2938   -1.5920    2.0759 C   0  0  0  0  0  0  0  0  0  0  0  0
    4.7650   -1.6344    3.1642 O   0  0  0  0  0  0  0  0  0  0  0  0
    6.7809   -1.5617    1.9214 C   0  0  0  0  0  0  0  0  0  0  0  0
    7.4007   -1.5107    0.7804 N   0  0  0  0  0  0  0  0  0  0  0  0
    9.0756   -1.4876    0.9880 S   0  0  0  0  0  0  0  0  0  0  0  0
    8.9432   -1.5512    2.7367 C   0  0  0  0  0  0  0  0  0  0  0  0
    9.7153   -1.5745    3.7855 N   0  0  0  0  0  0  0  0  0  0  0  0
    8.8325   -1.6276    4.8462 C   0  0  0  0  0  0  0  0  0  0  0  0
    7.5152   -1.6366    4.4340 C   0  0  0  0  0  0  0  0  0  0  0  0
    7.5883   -1.5863    3.0496 N   0  0  0  0  0  0  0  0  0  0  0  0
    0.7123    0.8271    1.0213 H   0  0  0  0  0  0  0  0  0  0  0  0
    0.6660   -0.7910    1.7536 H   0  0  0  0  0  0  0  0  0  0  0  0
    0.7648   -0.6155   -0.0149 H   0  0  0  0  0  0  0  0  0  0  0  0
    2.9628    0.2559    1.9860 H   0  0  0  0  0  0  0  0  0  0  0  0
    3.0695    0.4348    0.2255 H   0  0  0  0  0  0  0  0  0  0  0  0
    2.9456   -2.0635   -0.0340 H   0  0  0  0  0  0  0  0  0  0  0  0
    2.8821   -2.2272    1.7506 H   0  0  0  0  0  0  0  0  0  0  0  0
    9.1928   -1.6576    5.8744 H   0  0  0  0  0  0  0  0  0  0  0  0
    6.5668   -1.6721    4.9583 H   0  0  0  0  0  0  0  0  0  0  0  0
  1  2  1  0
  1 15  1  0
  1 16  1  0
  1 17  1  0
  2  3  1  0
  2 18  1  0
  2 19  1  0
  3  4  1  0
  3 20  1  0
  3 21  1  0
  4  5  1  0
  5  6  2  0
  5  7  1  0
  7  8  2  0
  7 14  1  0
  8  9  1  0
  9 10  1  0
 10 11  2  0
 10 14  1  0
 11 12  1  0
 12 13  2  0
 12 22  1  0
 13 14  1  0
 13 23  1  0
M  END

