
     RDKit          3D

 36 36  0  0  0  0  0  0  0  0999 V2000
    0.9098   -0.7734   -1.7401 C   0  0  0  0  0  0  0  0  0  0  0  0
    2.3620   -0.4553   -2.0511 C   0  0  0  0  0  0  0  0  0  0  0  0
    3.1241   -0.7216   -0.8891 O   0  0  0  0  0  0  0  0  0  0  0  0
    4.5486   -0.7429   -0.9854 C   0  0  1  0  0  0  0  0  0  0  0  0
    5.1023    0.6465   -1.3786 C   0  0  0  0  0  0  0  0  0  0  0  0
    4.6802    1.7821   -0.4460 C   0  0  0  0  0  0  0  0  0  0  0  0
    4.9898   -1.1936    0.4275 C   0  0  0  0  0  0  0  0  0  0  0  0
    6.4953   -1.2560    0.6775 C   0  0  0  0  0  0  0  0  0  0  0  0
    4.9771   -1.8170   -1.9914 C   0  0  0  0  0  0  0  0  0  0  0  0
    4.5847   -3.0551   -1.9155 N   0  0  0  0  0  0  0  0  0  0  0  0
    5.0972   -3.8344   -2.9247 C   0  0  0  0  0  0  0  0  0  0  0  0
    4.7015   -5.2875   -2.9212 C   0  0  0  0  0  0  0  0  0  0  0  0
    5.2145   -6.1737   -4.0477 C   0  0  0  0  0  0  0  0  0  0  0  0
    5.9387   -5.8368   -4.9434 O   0  0  0  0  0  0  0  0  0  0  0  0
    4.7832   -7.4553   -3.9772 O   0  0  0  0  0  0  0  0  0  0  0  0
    5.9173   -3.1753   -3.8069 C   0  0  0  0  0  0  0  0  0  0  0  0
    6.0444   -1.5139   -3.3565 S   0  0  0  0  0  0  0  0  0  0  0  0
    0.2717   -0.5648   -2.6135 H   0  0  0  0  0  0  0  0  0  0  0  0
    0.5517   -0.1659   -0.8944 H   0  0  0  0  0  0  0  0  0  0  0  0
    0.8008   -1.8344   -1.4680 H   0  0  0  0  0  0  0  0  0  0  0  0
    2.4608    0.6053   -2.3569 H   0  0  0  0  0  0  0  0  0  0  0  0
    2.7116   -1.0715   -2.9009 H   0  0  0  0  0  0  0  0  0  0  0  0
    4.7732    0.8772   -2.4057 H   0  0  0  0  0  0  0  0  0  0  0  0
    6.2022    0.5902   -1.4264 H   0  0  0  0  0  0  0  0  0  0  0  0
    3.5864    1.8127   -0.3300 H   0  0  0  0  0  0  0  0  0  0  0  0
    5.0102    2.7538   -0.8454 H   0  0  0  0  0  0  0  0  0  0  0  0
    5.1155    1.6740    0.5594 H   0  0  0  0  0  0  0  0  0  0  0  0
    4.5359   -2.1845    0.5784 H   0  0  0  0  0  0  0  0  0  0  0  0
    4.5056   -0.5162    1.1482 H   0  0  0  0  0  0  0  0  0  0  0  0
    7.0065   -1.9107   -0.0466 H   0  0  0  0  0  0  0  0  0  0  0  0
    6.6971   -1.6590    1.6824 H   0  0  0  0  0  0  0  0  0  0  0  0
    6.9722   -0.2639    0.6251 H   0  0  0  0  0  0  0  0  0  0  0  0
    3.5978   -5.3506   -2.9081 H   0  0  0  0  0  0  0  0  0  0  0  0
    5.0205   -5.7392   -1.9632 H   0  0  0  0  0  0  0  0  0  0  0  0
    4.2075   -7.5856   -3.2102 H   0  0  0  0  0  0  0  0  0  0  0  0
    6.4301   -3.5908   -4.6696 H   0  0  0  0  0  0  0  0  0  0  0  0
  1  2  1  0
  1 18  1  0
  1 19  1  0
  1 20  1  0
  2  3  1  0
  2 21  1  0
  2 22  1  0
  4  3  1  1
  4  5  1  0
  4  7  1  0
  4  9  1  0
  5  6  1  0
  5 23  1  0
  5 24  1  0
  6 25  1  0
  6 26  1  0
  6 27  1  0
  7  8  1  0
  7 28  1  0
  7 29  1  0
  8 30  1  0
  8 31  1  0
  8 32  1  0
  9 10  2  0
  9 17  1  0
 10 11  1  0
 11 12  1  0
 11 16  2  0
 12 13  1  0
 12 33  1  0
 12 34  1  0
 13 14  2  0
 13 15  1  0
 15 35  1  0
 16 17  1  0
 16 36  1  0
M  END

