
     RDKit          3D

 68 71  0  0  0  0  0  0  0  0999 V2000
    3.5238    0.5541    0.1932 O   0  0  0  0  0  0  0  0  0  0  0  0
    3.9025    1.4462   -0.5519 C   0  0  0  0  0  0  0  0  0  0  0  0
    3.0718    2.7415   -0.6946 C   0  0  0  0  0  0  0  0  0  0  0  0
    2.1430    2.8945    0.4084 N   0  0  0  0  0  0  0  0  0  0  0  0
    0.7225    2.6727    0.1549 C   0  0  0  0  0  0  0  0  0  0  0  0
    0.3435    1.2245   -0.1771 C   0  0  0  0  0  0  0  0  0  0  0  0
   -1.1744    1.0524   -0.3026 C   0  0  0  0  0  0  0  0  0  0  0  0
   -1.5544   -0.2630   -0.8035 N   0  0  0  0  0  0  0  0  0  0  0  0
   -1.4046   -1.3757    0.1362 C   0  0  0  0  0  0  0  0  0  0  0  0
   -2.6018   -1.5121    1.0834 C   0  0  0  0  0  0  0  0  0  0  0  0
   -3.8147   -1.6126    0.3589 O   0  0  0  0  0  0  0  0  0  0  0  0
   -4.0200   -0.5005   -0.4931 C   0  0  0  0  0  0  0  0  0  0  0  0
   -2.8515   -0.3453   -1.4719 C   0  0  0  0  0  0  0  0  0  0  0  0
    2.7022    3.3255    1.5871 C   0  0  0  0  0  0  0  0  0  0  0  0
    3.8769    3.6762    1.6355 O   0  0  0  0  0  0  0  0  0  0  0  0
    1.8656    3.3750    2.8390 C   0  0  0  0  0  0  0  0  0  0  0  0
    1.1222    2.2781    3.3025 C   0  0  0  0  0  0  0  0  0  0  0  0
    0.4574    2.3333    4.5296 C   0  0  0  0  0  0  0  0  0  0  0  0
    0.5382    3.4998    5.2867 C   0  0  0  0  0  0  0  0  0  0  0  0
   -0.1059    3.5625    6.4597 F   0  0  0  0  0  0  0  0  0  0  0  0
    1.2814    4.5998    4.8602 C   0  0  0  0  0  0  0  0  0  0  0  0
    1.9564    4.5233    3.6427 C   0  0  0  0  0  0  0  0  0  0  0  0
    5.0346    1.3228   -1.3114 N   0  0  0  0  0  0  0  0  0  0  0  0
    5.5841    2.3570   -2.1834 C   0  0  0  0  0  0  0  0  0  0  0  0
    6.7673    3.1380   -1.6261 C   0  0  0  0  0  0  0  0  0  0  0  0
    6.7378    3.6879   -0.3341 C   0  0  0  0  0  0  0  0  0  0  0  0
    7.8193    4.4394    0.1336 C   0  0  0  0  0  0  0  0  0  0  0  0
    8.9394    4.6538   -0.6764 C   0  0  0  0  0  0  0  0  0  0  0  0
    8.9757    4.1076   -1.9618 C   0  0  0  0  0  0  0  0  0  0  0  0
    7.8962    3.3519   -2.4289 C   0  0  0  0  0  0  0  0  0  0  0  0
    5.7791    0.0583   -1.1874 C   0  0  0  0  0  0  0  0  0  0  0  0
    6.7816    0.0073   -0.0785 C   0  0  0  0  0  0  0  0  0  0  0  0
    6.6752   -0.2325    1.2650 C   0  0  0  0  0  0  0  0  0  0  0  0
    7.9993   -0.1134    1.8017 C   0  0  0  0  0  0  0  0  0  0  0  0
    8.8087    0.1876    0.7432 C   0  0  0  0  0  0  0  0  0  0  0  0
    8.0827    0.2608   -0.3993 O   0  0  0  0  0  0  0  0  0  0  0  0
    2.5023    2.6920   -1.6363 H   0  0  0  0  0  0  0  0  0  0  0  0
    3.7252    3.6226   -0.7383 H   0  0  0  0  0  0  0  0  0  0  0  0
    0.4151    3.3292   -0.6821 H   0  0  0  0  0  0  0  0  0  0  0  0
    0.1608    3.0212    1.0315 H   0  0  0  0  0  0  0  0  0  0  0  0
    0.7647    0.5579    0.5909 H   0  0  0  0  0  0  0  0  0  0  0  0
    0.8070    0.9101   -1.1260 H   0  0  0  0  0  0  0  0  0  0  0  0
   -1.5530    1.7969   -1.0245 H   0  0  0  0  0  0  0  0  0  0  0  0
   -1.6481    1.3158    0.6708 H   0  0  0  0  0  0  0  0  0  0  0  0
   -0.4708   -1.2641    0.7083 H   0  0  0  0  0  0  0  0  0  0  0  0
   -1.3156   -2.3109   -0.4460 H   0  0  0  0  0  0  0  0  0  0  0  0
   -2.6457   -0.6471    1.7795 H   0  0  0  0  0  0  0  0  0  0  0  0
   -2.5166   -2.4256    1.6931 H   0  0  0  0  0  0  0  0  0  0  0  0
   -4.1455    0.4253    0.1087 H   0  0  0  0  0  0  0  0  0  0  0  0
   -4.9642   -0.6800   -1.0317 H   0  0  0  0  0  0  0  0  0  0  0  0
   -2.9963    0.5417   -2.1105 H   0  0  0  0  0  0  0  0  0  0  0  0
   -2.8422   -1.2302   -2.1350 H   0  0  0  0  0  0  0  0  0  0  0  0
    1.0835    1.3592    2.7147 H   0  0  0  0  0  0  0  0  0  0  0  0
   -0.1136    1.4847    4.9113 H   0  0  0  0  0  0  0  0  0  0  0  0
    1.3307    5.4903    5.4897 H   0  0  0  0  0  0  0  0  0  0  0  0
    2.5730    5.3585    3.3047 H   0  0  0  0  0  0  0  0  0  0  0  0
    4.7791    3.0551   -2.4547 H   0  0  0  0  0  0  0  0  0  0  0  0
    5.8881    1.8777   -3.1290 H   0  0  0  0  0  0  0  0  0  0  0  0
    5.8748    3.5360    0.3201 H   0  0  0  0  0  0  0  0  0  0  0  0
    7.7830    4.8598    1.1419 H   0  0  0  0  0  0  0  0  0  0  0  0
    9.7828    5.2417   -0.3049 H   0  0  0  0  0  0  0  0  0  0  0  0
    9.8487    4.2624   -2.6014 H   0  0  0  0  0  0  0  0  0  0  0  0
    7.9352    2.9185   -3.4331 H   0  0  0  0  0  0  0  0  0  0  0  0
    6.2959   -0.1245   -2.1412 H   0  0  0  0  0  0  0  0  0  0  0  0
    5.0374   -0.7349   -1.0288 H   0  0  0  0  0  0  0  0  0  0  0  0
    5.7506   -0.4482    1.7950 H   0  0  0  0  0  0  0  0  0  0  0  0
    8.3071   -0.2355    2.8383 H   0  0  0  0  0  0  0  0  0  0  0  0
    9.8760    0.3680    0.6452 H   0  0  0  0  0  0  0  0  0  0  0  0
  1  2  2  0
  2  3  1  0
  2 23  1  0
  3  4  1  0
  3 37  1  0
  3 38  1  0
  4  5  1  0
  4 14  1  0
  5  6  1  0
  5 39  1  0
  5 40  1  0
  6  7  1  0
  6 41  1  0
  6 42  1  0
  7  8  1  0
  7 43  1  0
  7 44  1  0
  8  9  1  0
  8 13  1  0
  9 10  1  0
  9 45  1  0
  9 46  1  0
 10 11  1  0
 10 47  1  0
 10 48  1  0
 11 12  1  0
 12 13  1  0
 12 49  1  0
 12 50  1  0
 13 51  1  0
 13 52  1  0
 14 15  2  0
 14 16  1  0
 16 17  2  0
 16 22  1  0
 17 18  1  0
 17 53  1  0
 18 19  2  0
 18 54  1  0
 19 20  1  0
 19 21  1  0
 21 22  2  0
 21 55  1  0
 22 56  1  0
 23 24  1  0
 23 31  1  0
 24 25  1  0
 24 57  1  0
 24 58  1  0
 25 26  2  0
 25 30  1  0
 26 27  1  0
 26 59  1  0
 27 28  2  0
 27 60  1  0
 28 29  1  0
 28 61  1  0
 29 30  2  0
 29 62  1  0
 30 63  1  0
 31 32  1  0
 31 64  1  0
 31 65  1  0
 32 33  2  0
 32 36  1  0
 33 34  1  0
 33 66  1  0
 34 35  2  0
 34 67  1  0
 35 36  1  0
 35 68  1  0
M  END

