
     RDKit          3D

 79 85  0  0  0  0  0  0  0  0999 V2000
    7.1256   -1.2337   -0.4658 C   0  0  0  0  0  0  0  0  0  0  0  0
    6.7015   -2.0556    0.7670 C   0  0  0  0  0  0  0  0  0  0  0  0
    5.2196   -2.2193    0.8721 C   0  0  0  0  0  0  0  0  0  0  0  0
    4.2663   -1.5337    1.5445 C   0  0  0  0  0  0  0  0  0  0  0  0
    4.5581   -0.3915    2.4381 C   0  0  0  0  0  0  0  0  0  0  0  0
    5.2051   -0.3897    3.6274 C   0  0  0  0  0  0  0  0  0  0  0  0
    5.7940   -1.5192    4.3777 C   0  0  0  0  0  0  0  0  0  0  0  0
    5.0816   -2.5376    4.9161 C   0  0  0  0  0  0  0  0  0  0  0  0
    3.6216   -2.8472    4.9426 C   0  0  0  0  0  0  0  0  0  0  0  0
    3.2557   -4.1882    4.2789 C   0  0  0  0  0  0  0  0  0  0  0  0
    6.1831   -3.6283    5.8723 S   0  0  1  0  0  0  0  0  0  0  0  0
    5.8322   -3.4991    7.2911 O   0  0  0  0  0  0  0  0  0  0  0  0
    6.2856   -4.9597    5.2644 O   0  0  0  0  0  0  0  0  0  0  0  0
    7.6330   -2.6580    5.4566 C   0  0  0  0  0  0  0  0  0  0  0  0
    8.9387   -2.9394    5.8074 C   0  0  0  0  0  0  0  0  0  0  0  0
    9.9659   -2.0830    5.3464 C   0  0  0  0  0  0  0  0  0  0  0  0
   11.3633   -2.3385    5.7152 C   0  0  0  0  0  0  0  0  0  0  0  0
   11.8353   -3.1117    6.7674 C   0  0  0  0  0  0  0  0  0  0  0  0
   13.2477   -3.1471    6.8418 C   0  0  0  0  0  0  0  0  0  0  0  0
   13.8613   -2.4051    5.8481 C   0  0  0  0  0  0  0  0  0  0  0  0
   15.2938   -2.1741    5.5605 C   0  0  0  0  0  0  0  0  0  0  0  0
   16.3059   -2.8431    6.4713 C   0  0  0  0  0  0  0  0  0  0  0  0
   15.6311   -1.4725    4.6246 O   0  0  0  0  0  0  0  0  0  0  0  0
   12.6848   -1.6576    4.8066 S   0  0  0  0  0  0  0  0  0  0  0  0
    9.6009   -0.9912    4.5306 C   0  0  0  0  0  0  0  0  0  0  0  0
    8.2736   -0.7366    4.1773 C   0  0  0  0  0  0  0  0  0  0  0  0
    7.2584   -1.5754    4.6500 C   0  0  0  0  0  0  0  0  0  0  0  0
    5.2021    1.0129    4.2204 C   0  0  2  0  0  0  0  0  0  0  0  0
    6.3263    1.3416    4.8863 F   0  0  0  0  0  0  0  0  0  0  0  0
    4.1666    1.1492    5.0861 F   0  0  0  0  0  0  0  0  0  0  0  0
    4.9798    1.9250    2.9901 C   0  0  1  0  0  0  0  0  0  0  0  0
    4.3603    3.0710    3.2850 F   0  0  0  0  0  0  0  0  0  0  0  0
    6.1784    2.2010    2.4307 F   0  0  0  0  0  0  0  0  0  0  0  0
    4.1645    1.0203    2.0288 C   0  0  2  0  0  0  0  0  0  0  0  0
    2.8399    1.2721    2.1977 F   0  0  0  0  0  0  0  0  0  0  0  0
    4.4594    1.2671    0.7366 F   0  0  0  0  0  0  0  0  0  0  0  0
    2.8731   -1.9937    1.2851 C   0  0  0  0  0  0  0  0  0  0  0  0
    1.6720   -1.5231    1.8260 C   0  0  0  0  0  0  0  0  0  0  0  0
    0.4642   -2.1186    1.4508 C   0  0  0  0  0  0  0  0  0  0  0  0
    0.4061   -3.1980    0.5450 C   0  0  0  0  0  0  0  0  0  0  0  0
   -0.8684   -3.8120    0.1542 C   0  0  0  0  0  0  0  0  0  0  0  0
   -1.1238   -4.6009   -0.9594 C   0  0  0  0  0  0  0  0  0  0  0  0
   -2.4688   -5.0327   -1.0383 C   0  0  0  0  0  0  0  0  0  0  0  0
   -3.2458   -4.5797    0.0131 C   0  0  0  0  0  0  0  0  0  0  0  0
   -4.6779   -4.7924    0.3171 C   0  0  0  0  0  0  0  0  0  0  0  0
   -5.4768   -5.6473   -0.6485 C   0  0  0  0  0  0  0  0  0  0  0  0
   -5.1800   -4.2945    1.3079 O   0  0  0  0  0  0  0  0  0  0  0  0
   -2.3081   -3.6130    1.1148 S   0  0  0  0  0  0  0  0  0  0  0  0
    1.6244   -3.6825    0.0123 C   0  0  0  0  0  0  0  0  0  0  0  0
    2.8025   -3.0698    0.3885 C   0  0  0  0  0  0  0  0  0  0  0  0
    4.4583   -3.5365   -0.1175 S   0  0  1  0  0  0  0  0  0  0  0  0
    4.6603   -3.2917   -1.5504 O   0  0  0  0  0  0  0  0  0  0  0  0
    4.8276   -4.8371    0.4557 O   0  0  0  0  0  0  0  0  0  0  0  0
    8.2233   -1.1724   -0.5204 H   0  0  0  0  0  0  0  0  0  0  0  0
    6.7219   -0.2113   -0.4067 H   0  0  0  0  0  0  0  0  0  0  0  0
    6.7530   -1.6965   -1.3903 H   0  0  0  0  0  0  0  0  0  0  0  0
    7.0817   -1.5852    1.6854 H   0  0  0  0  0  0  0  0  0  0  0  0
    7.1518   -3.0622    0.7237 H   0  0  0  0  0  0  0  0  0  0  0  0
    3.0741   -2.0156    4.4732 H   0  0  0  0  0  0  0  0  0  0  0  0
    3.3104   -2.8702    6.0031 H   0  0  0  0  0  0  0  0  0  0  0  0
    3.5916   -4.2265    3.2321 H   0  0  0  0  0  0  0  0  0  0  0  0
    2.1646   -4.3285    4.3005 H   0  0  0  0  0  0  0  0  0  0  0  0
    3.7258   -5.0321    4.8026 H   0  0  0  0  0  0  0  0  0  0  0  0
    9.1674   -3.8198    6.4099 H   0  0  0  0  0  0  0  0  0  0  0  0
   11.1833   -3.6181    7.4799 H   0  0  0  0  0  0  0  0  0  0  0  0
   13.7983   -3.6965    7.6065 H   0  0  0  0  0  0  0  0  0  0  0  0
   16.1647   -2.5248    7.5168 H   0  0  0  0  0  0  0  0  0  0  0  0
   17.3153   -2.5691    6.1390 H   0  0  0  0  0  0  0  0  0  0  0  0
   16.1951   -3.9390    6.4417 H   0  0  0  0  0  0  0  0  0  0  0  0
   10.3759   -0.3105    4.1712 H   0  0  0  0  0  0  0  0  0  0  0  0
    8.0412    0.1258    3.5511 H   0  0  0  0  0  0  0  0  0  0  0  0
    1.6630   -0.6846    2.5219 H   0  0  0  0  0  0  0  0  0  0  0  0
   -0.4639   -1.7196    1.8661 H   0  0  0  0  0  0  0  0  0  0  0  0
   -0.3709   -4.8409   -1.7109 H   0  0  0  0  0  0  0  0  0  0  0  0
   -2.8572   -5.6535   -1.8468 H   0  0  0  0  0  0  0  0  0  0  0  0
   -5.0510   -6.6613   -0.7184 H   0  0  0  0  0  0  0  0  0  0  0  0
   -5.4627   -5.2130   -1.6612 H   0  0  0  0  0  0  0  0  0  0  0  0
   -6.5126   -5.7095   -0.2915 H   0  0  0  0  0  0  0  0  0  0  0  0
    1.6422   -4.5353   -0.6681 H   0  0  0  0  0  0  0  0  0  0  0  0
  1  2  1  0
  1 54  1  0
  1 55  1  0
  1 56  1  0
  2  3  1  0
  2 57  1  0
  2 58  1  0
  3  4  1  0
  3 51  2  0
  4  5  1  0
  4 37  2  0
  5  6  2  0
  5 34  1  0
  6  7  1  0
  6 28  1  0
  7  8  2  0
  7 27  1  0
  8  9  1  0
 11  8  1  6
  9 10  1  0
  9 59  1  0
  9 60  1  0
 10 61  1  0
 10 62  1  0
 10 63  1  0
 11 12  2  0
 11 13  2  0
 11 14  1  0
 14 15  1  0
 14 27  2  0
 15 16  2  0
 15 64  1  0
 16 17  1  0
 16 25  1  0
 17 18  2  0
 17 24  1  0
 18 19  1  0
 18 65  1  0
 19 20  2  0
 19 66  1  0
 20 21  1  0
 20 24  1  0
 21 22  1  0
 21 23  2  0
 22 67  1  0
 22 68  1  0
 22 69  1  0
 25 26  2  0
 25 70  1  0
 26 27  1  0
 26 71  1  0
 28 29  1  1
 28 30  1  0
 28 31  1  0
 31 32  1  1
 31 33  1  0
 31 34  1  0
 34 35  1  6
 34 36  1  0
 37 38  1  0
 37 50  1  0
 38 39  2  0
 38 72  1  0
 39 40  1  0
 39 73  1  0
 40 41  2  0
 40 49  1  0
 41 42  1  0
 41 48  1  0
 42 43  2  0
 42 74  1  0
 43 44  1  0
 43 75  1  0
 44 45  1  0
 44 48  2  0
 45 46  1  0
 45 47  2  0
 46 76  1  0
 46 77  1  0
 46 78  1  0
 49 50  2  0
 49 79  1  0
 50 51  1  0
 51 52  2  0
 51 53  1  1
M  CHG  2  48   1  53  -1
M  END

