
     RDKit          3D

 47 48  0  0  0  0  0  0  0  0999 V2000
    0.8316    1.3581   -1.5341 C   0  0  0  0  0  0  0  0  0  0  0  0
    2.3286    1.5494   -1.6941 C   0  0  0  0  0  0  0  0  0  0  0  0
    2.9987    0.5000   -1.0254 O   0  0  0  0  0  0  0  0  0  0  0  0
    4.3957    0.5496   -1.1079 C   0  0  1  0  0  0  0  0  0  0  0  0
    4.7122    0.6277   -2.1668 H   0  0  0  0  0  0  0  0  0  0  0  0
    5.1745    1.5572   -0.2325 C   0  0  0  0  0  0  0  0  0  0  0  0
    6.2110    0.4401    0.0781 C   0  0  2  0  0  0  0  0  0  0  0  0
    6.7346    0.3435    1.5164 C   0  0  0  0  0  0  0  0  0  0  0  0
    7.5396   -0.8058    1.7151 O   0  0  0  0  0  0  0  0  0  0  0  0
    7.3412    0.4668   -0.8474 N   0  0  0  0  0  0  0  0  0  0  0  0
    8.1788    1.5410   -0.9992 C   0  0  0  0  0  0  0  0  0  0  0  0
    7.9741    2.6562   -0.5375 O   0  0  0  0  0  0  0  0  0  0  0  0
    9.3850    1.2718   -1.8149 C   0  0  0  0  0  0  0  0  0  0  0  0
   10.4082    2.0976   -2.1962 C   0  0  0  0  0  0  0  0  0  0  0  0
   11.3102    1.2986   -2.9672 C   0  0  0  0  0  0  0  0  0  0  0  0
   10.7714    0.0409   -2.9983 C   0  0  0  0  0  0  0  0  0  0  0  0
   11.2174   -1.2400   -3.6232 C   0  0  0  0  0  0  0  0  0  0  0  0
   12.4142   -1.0100   -4.3106 O   0  0  0  0  0  0  0  0  0  0  0  0
   12.9376   -2.1532   -4.9339 C   0  0  0  0  0  0  0  0  0  0  0  0
    9.6053    0.0097   -2.3062 O   0  0  0  0  0  0  0  0  0  0  0  0
    5.1294   -0.6272   -0.4047 C   0  0  1  0  0  0  0  0  0  0  0  0
    4.2895   -1.1895    0.7494 C   0  0  0  0  0  0  0  0  0  0  0  0
    5.5921   -1.7704   -1.3094 C   0  0  0  0  0  0  0  0  0  0  0  0
    0.2810    2.1586   -2.0525 H   0  0  0  0  0  0  0  0  0  0  0  0
    0.5502    1.3750   -0.4697 H   0  0  0  0  0  0  0  0  0  0  0  0
    0.5185    0.3897   -1.9546 H   0  0  0  0  0  0  0  0  0  0  0  0
    2.6384    2.5316   -1.2828 H   0  0  0  0  0  0  0  0  0  0  0  0
    2.6077    1.5537   -2.7689 H   0  0  0  0  0  0  0  0  0  0  0  0
    4.5998    1.8183    0.6690 H   0  0  0  0  0  0  0  0  0  0  0  0
    5.5690    2.4722   -0.6867 H   0  0  0  0  0  0  0  0  0  0  0  0
    5.8992    0.3886    2.2375 H   0  0  0  0  0  0  0  0  0  0  0  0
    7.3740    1.2198    1.7045 H   0  0  0  0  0  0  0  0  0  0  0  0
    6.9570   -1.5716    1.7889 H   0  0  0  0  0  0  0  0  0  0  0  0
    7.7477   -0.4331   -1.0765 H   0  0  0  0  0  0  0  0  0  0  0  0
   10.4875    3.1516   -1.9419 H   0  0  0  0  0  0  0  0  0  0  0  0
   12.2401    1.5982   -3.4424 H   0  0  0  0  0  0  0  0  0  0  0  0
   10.4231   -1.6202   -4.3039 H   0  0  0  0  0  0  0  0  0  0  0  0
   11.3439   -2.0161   -2.8354 H   0  0  0  0  0  0  0  0  0  0  0  0
   13.8691   -1.8608   -5.4391 H   0  0  0  0  0  0  0  0  0  0  0  0
   12.2406   -2.5693   -5.6894 H   0  0  0  0  0  0  0  0  0  0  0  0
   13.1677   -2.9551   -4.2033 H   0  0  0  0  0  0  0  0  0  0  0  0
    3.9093   -0.4094    1.4228 H   0  0  0  0  0  0  0  0  0  0  0  0
    4.8678   -1.9115    1.3508 H   0  0  0  0  0  0  0  0  0  0  0  0
    3.4132   -1.7171    0.3458 H   0  0  0  0  0  0  0  0  0  0  0  0
    6.1560   -1.4090   -2.1821 H   0  0  0  0  0  0  0  0  0  0  0  0
    4.7183   -2.3250   -1.6882 H   0  0  0  0  0  0  0  0  0  0  0  0
    6.2268   -2.4883   -0.7615 H   0  0  0  0  0  0  0  0  0  0  0  0
  1  2  1  0
  1 24  1  0
  1 25  1  0
  1 26  1  0
  2  3  1  0
  2 27  1  0
  2 28  1  0
  3  4  1  0
  4  5  1  6
  4  6  1  0
  4 21  1  0
  6  7  1  0
  6 29  1  0
  6 30  1  0
  7  8  1  0
  7 10  1  6
  7 21  1  0
  8  9  1  0
  8 31  1  0
  8 32  1  0
  9 33  1  0
 10 11  1  0
 10 34  1  0
 11 12  2  0
 11 13  1  0
 13 14  2  0
 13 20  1  0
 14 15  1  0
 14 35  1  0
 15 16  2  0
 15 36  1  0
 16 17  1  0
 16 20  1  0
 17 18  1  0
 17 37  1  0
 17 38  1  0
 18 19  1  0
 19 39  1  0
 19 40  1  0
 19 41  1  0
 21 22  1  1
 21 23  1  0
 22 42  1  0
 22 43  1  0
 22 44  1  0
 23 45  1  0
 23 46  1  0
 23 47  1  0
M  END

