
     RDKit          3D

 60 63  0  0  0  0  0  0  0  0999 V2000
    6.5466   -3.1087    0.1504 C   0  0  0  0  0  0  0  0  0  0  0  0
    5.5200   -2.1263    0.4253 N   0  0  0  0  0  0  0  0  0  0  0  0
    5.7113   -0.8411    0.9056 C   0  0  0  0  0  0  0  0  0  0  0  0
    4.4729   -0.2468    0.8821 C   0  0  0  0  0  0  0  0  0  0  0  0
    3.5241   -1.1299    0.4301 N   0  0  0  0  0  0  0  0  0  0  0  0
    4.1725   -2.2483    0.1646 C   0  0  0  0  0  0  0  0  0  0  0  0
    3.6429   -3.4213   -0.3764 N   0  0  0  0  0  0  0  0  0  0  0  0
    3.5392   -4.5899    0.5184 C   0  0  0  0  0  0  0  0  0  0  0  0
    2.2366   -4.5716    1.3354 C   0  0  0  0  0  0  0  0  0  0  0  0
    1.0395   -4.4421    0.5015 N   0  0  0  0  0  0  0  0  0  0  0  0
    0.6229   -5.6604   -0.1820 C   0  0  0  0  0  0  0  0  0  0  0  0
    0.3739   -6.8435    0.7671 C   0  0  0  0  0  0  0  0  0  0  0  0
    1.0788   -7.8427    0.6769 O   0  0  0  0  0  0  0  0  0  0  0  0
   -0.6338   -6.7364    1.6874 N   0  0  0  0  0  0  0  0  0  0  0  0
   -1.5722   -5.6238    1.8282 C   0  0  0  0  0  0  0  0  0  0  0  0
   -3.0116   -6.0888    1.5619 C   0  0  0  0  0  0  0  0  0  0  0  0
   -3.4212   -7.3354    2.3765 C   0  0  2  0  0  0  0  0  0  0  0  0
   -3.7036   -6.9991    3.8454 C   0  0  0  0  0  0  0  0  0  0  0  0
   -3.1062   -6.1044    4.4362 O   0  0  0  0  0  0  0  0  0  0  0  0
   -4.6248   -7.7682    4.5004 N   0  0  0  0  0  0  0  0  0  0  0  0
   -4.8566   -7.5600    5.9368 C   0  0  0  0  0  0  0  0  0  0  0  0
   -5.6362   -8.8090    6.3588 C   0  0  0  0  0  0  0  0  0  0  0  0
   -6.4372   -9.1591    5.0972 C   0  0  0  0  0  0  0  0  0  0  0  0
   -5.4552   -8.8502    3.9566 C   0  0  0  0  0  0  0  0  0  0  0  0
   -2.3210   -8.4250    2.2741 C   0  0  0  0  0  0  0  0  0  0  0  0
   -0.9228   -7.8678    2.5644 C   0  0  0  0  0  0  0  0  0  0  0  0
    1.1503   -3.2677   -0.3693 C   0  0  0  0  0  0  0  0  0  0  0  0
    2.4411   -3.2579   -1.2061 C   0  0  0  0  0  0  0  0  0  0  0  0
    7.4587   -2.6058   -0.2033 H   0  0  0  0  0  0  0  0  0  0  0  0
    6.1831   -3.7841   -0.6366 H   0  0  0  0  0  0  0  0  0  0  0  0
    6.8007   -3.7083    1.0413 H   0  0  0  0  0  0  0  0  0  0  0  0
    6.6908   -0.4826    1.2130 H   0  0  0  0  0  0  0  0  0  0  0  0
    4.2148    0.7693    1.1787 H   0  0  0  0  0  0  0  0  0  0  0  0
    4.4068   -4.6125    1.1948 H   0  0  0  0  0  0  0  0  0  0  0  0
    3.5881   -5.5055   -0.0962 H   0  0  0  0  0  0  0  0  0  0  0  0
    2.2602   -3.7112    2.0268 H   0  0  0  0  0  0  0  0  0  0  0  0
    2.1671   -5.4832    1.9493 H   0  0  0  0  0  0  0  0  0  0  0  0
    1.3514   -6.0560   -0.9159 H   0  0  0  0  0  0  0  0  0  0  0  0
   -0.3016   -5.4338   -0.7417 H   0  0  0  0  0  0  0  0  0  0  0  0
   -1.2830   -4.8088    1.1575 H   0  0  0  0  0  0  0  0  0  0  0  0
   -1.5083   -5.2367    2.8564 H   0  0  0  0  0  0  0  0  0  0  0  0
   -3.1134   -6.3367    0.4906 H   0  0  0  0  0  0  0  0  0  0  0  0
   -3.7032   -5.2567    1.7696 H   0  0  0  0  0  0  0  0  0  0  0  0
   -4.3406   -7.7431    1.9299 H   0  0  0  0  0  0  0  0  0  0  0  0
   -5.4401   -6.6357    6.1024 H   0  0  0  0  0  0  0  0  0  0  0  0
   -3.8990   -7.4270    6.4604 H   0  0  0  0  0  0  0  0  0  0  0  0
   -6.2686   -8.6366    7.2421 H   0  0  0  0  0  0  0  0  0  0  0  0
   -4.9376   -9.6269    6.6038 H   0  0  0  0  0  0  0  0  0  0  0  0
   -7.3204   -8.5035    5.0177 H   0  0  0  0  0  0  0  0  0  0  0  0
   -6.7934  -10.1997    5.0729 H   0  0  0  0  0  0  0  0  0  0  0  0
   -5.9766   -8.5438    3.0361 H   0  0  0  0  0  0  0  0  0  0  0  0
   -4.8444   -9.7379    3.7078 H   0  0  0  0  0  0  0  0  0  0  0  0
   -2.3295   -8.8405    1.2521 H   0  0  0  0  0  0  0  0  0  0  0  0
   -2.5368   -9.2607    2.9608 H   0  0  0  0  0  0  0  0  0  0  0  0
   -0.1535   -8.6294    2.3888 H   0  0  0  0  0  0  0  0  0  0  0  0
   -0.8577   -7.5327    3.6143 H   0  0  0  0  0  0  0  0  0  0  0  0
    1.1469   -2.3636    0.2603 H   0  0  0  0  0  0  0  0  0  0  0  0
    0.2678   -3.2234   -1.0298 H   0  0  0  0  0  0  0  0  0  0  0  0
    2.5244   -2.3146   -1.7634 H   0  0  0  0  0  0  0  0  0  0  0  0
    2.4281   -4.0829   -1.9414 H   0  0  0  0  0  0  0  0  0  0  0  0
  1  2  1  0
  1 29  1  0
  1 30  1  0
  1 31  1  0
  2  3  1  0
  2  6  1  0
  3  4  2  0
  3 32  1  0
  4  5  1  0
  4 33  1  0
  5  6  2  0
  6  7  1  0
  7  8  1  0
  7 28  1  0
  8  9  1  0
  8 34  1  0
  8 35  1  0
  9 10  1  0
  9 36  1  0
  9 37  1  0
 10 11  1  0
 10 27  1  0
 11 12  1  0
 11 38  1  0
 11 39  1  0
 12 13  2  0
 12 14  1  0
 14 15  1  0
 14 26  1  0
 15 16  1  0
 15 40  1  0
 15 41  1  0
 16 17  1  0
 16 42  1  0
 16 43  1  0
 17 18  1  0
 17 25  1  0
 17 44  1  6
 18 19  2  0
 18 20  1  0
 20 21  1  0
 20 24  1  0
 21 22  1  0
 21 45  1  0
 21 46  1  0
 22 23  1  0
 22 47  1  0
 22 48  1  0
 23 24  1  0
 23 49  1  0
 23 50  1  0
 24 51  1  0
 24 52  1  0
 25 26  1  0
 25 53  1  0
 25 54  1  0
 26 55  1  0
 26 56  1  0
 27 28  1  0
 27 57  1  0
 27 58  1  0
 28 59  1  0
 28 60  1  0
M  END

