
     RDKit          3D

105115  0  0  0  0  0  0  0  0999 V2000
    1.3202    0.0231   -5.0639 C   0  0  0  0  0  0  0  0  0  0  0  0
    2.7053   -0.1676   -5.1011 C   0  0  0  0  0  0  0  0  0  0  0  0
    3.4576   -0.0862   -3.9277 C   0  0  0  0  0  0  0  0  0  0  0  0
    2.8465    0.2105   -2.6937 C   0  0  0  0  0  0  0  0  0  0  0  0
    3.6595    0.2779   -1.4400 C   0  0  0  0  0  0  0  0  0  0  0  0
    3.5479    1.3065   -0.5420 C   0  0  0  0  0  0  0  0  0  0  0  0
    4.1609    1.2558    0.8221 C   0  0  0  0  0  0  0  0  0  0  0  0
    4.9139    2.3422    1.3081 C   0  0  0  0  0  0  0  0  0  0  0  0
    5.4757    2.3127    2.5861 C   0  0  0  0  0  0  0  0  0  0  0  0
    5.2784    1.2048    3.4164 C   0  0  0  0  0  0  0  0  0  0  0  0
    4.5142    0.1280    2.9564 C   0  0  0  0  0  0  0  0  0  0  0  0
    3.9634    0.1526    1.6735 C   0  0  0  0  0  0  0  0  0  0  0  0
    2.8045    2.5661   -0.8463 C   0  0  0  0  0  0  0  0  0  0  0  0
    1.8913    3.1051    0.0797 C   0  0  0  0  0  0  0  0  0  0  0  0
    1.2006    4.2842   -0.1883 C   0  0  0  0  0  0  0  0  0  0  0  0
    1.4249    5.0048   -1.3783 C   0  0  0  0  0  0  0  0  0  0  0  0
    0.6913    6.2612   -1.6528 C   0  0  0  0  0  0  0  0  0  0  0  0
    1.3115    7.4324   -2.1417 C   0  0  0  0  0  0  0  0  0  0  0  0
    2.6719    7.4181   -2.3333 N   0  0  0  0  0  0  0  0  0  0  0  0
    3.2511    8.4817   -2.8061 C   0  0  0  0  0  0  0  0  0  0  0  0
    2.5072    9.6613   -3.1446 C   0  0  0  0  0  0  0  0  0  0  0  0
    1.2236    9.7402   -2.9536 N   0  0  0  0  0  0  0  0  0  0  0  0
    0.5628    8.6580   -2.4249 C   0  0  0  0  0  0  0  0  0  0  0  0
   -0.8273    8.7669   -2.1974 C   0  0  0  0  0  0  0  0  0  0  0  0
   -1.6009   10.0021   -2.4571 C   0  0  0  0  0  0  0  0  0  0  0  0
   -2.8460    9.9499   -3.1151 C   0  0  0  0  0  0  0  0  0  0  0  0
   -3.5825   11.1062   -3.3587 C   0  0  0  0  0  0  0  0  0  0  0  0
   -3.1187   12.3685   -2.9444 C   0  0  0  0  0  0  0  0  0  0  0  0
   -3.8841   13.6194   -3.2277 C   0  0  0  0  0  0  0  0  0  0  0  0
   -5.2258   13.7414   -2.9779 C   0  0  0  0  0  0  0  0  0  0  0  0
   -6.0384   14.8900   -3.4859 C   0  0  0  0  0  0  0  0  0  0  0  0
   -5.9929   15.2783   -4.8381 C   0  0  0  0  0  0  0  0  0  0  0  0
   -6.7789   16.3316   -5.3096 C   0  0  0  0  0  0  0  0  0  0  0  0
   -7.6261   17.0241   -4.4389 C   0  0  0  0  0  0  0  0  0  0  0  0
   -7.6899   16.6444   -3.0944 C   0  0  0  0  0  0  0  0  0  0  0  0
   -6.9136   15.5824   -2.6265 C   0  0  0  0  0  0  0  0  0  0  0  0
   -5.9914   12.7404   -2.1725 C   0  0  0  0  0  0  0  0  0  0  0  0
   -5.5304   12.3045   -0.9161 C   0  0  0  0  0  0  0  0  0  0  0  0
   -6.2673   11.3928   -0.1577 C   0  0  0  0  0  0  0  0  0  0  0  0
   -7.4813   10.8936   -0.6393 C   0  0  0  0  0  0  0  0  0  0  0  0
   -7.9583   11.3247   -1.8813 C   0  0  0  0  0  0  0  0  0  0  0  0
   -7.2271   12.2460   -2.6336 C   0  0  0  0  0  0  0  0  0  0  0  0
   -3.0694   14.7337   -3.8060 C   0  0  0  0  0  0  0  0  0  0  0  0
   -3.1074   16.0293   -3.2577 C   0  0  0  0  0  0  0  0  0  0  0  0
   -2.3207   17.0555   -3.7849 C   0  0  0  0  0  0  0  0  0  0  0  0
   -1.4802   16.8103   -4.8752 C   0  0  0  0  0  0  0  0  0  0  0  0
   -1.4237   15.5257   -5.4251 C   0  0  0  0  0  0  0  0  0  0  0  0
   -2.2009   14.4970   -4.8891 C   0  0  0  0  0  0  0  0  0  0  0  0
   -1.8703   12.4208   -2.2939 C   0  0  0  0  0  0  0  0  0  0  0  0
   -1.1309   11.2671   -2.0506 C   0  0  0  0  0  0  0  0  0  0  0  0
   -1.4590    7.5914   -1.6966 C   0  0  0  0  0  0  0  0  0  0  0  0
   -2.7688    7.4760   -1.4112 N   0  0  0  0  0  0  0  0  0  0  0  0
   -3.0117    5.9579   -0.8773 S   0  0  0  0  0  0  0  0  0  0  0  0
   -1.4972    5.3681   -0.9686 N   0  0  0  0  0  0  0  0  0  0  0  0
   -0.7127    6.3600   -1.4288 C   0  0  0  0  0  0  0  0  0  0  0  0
    2.3589    4.4797   -2.2934 C   0  0  0  0  0  0  0  0  0  0  0  0
    3.0243    3.2844   -2.0366 C   0  0  0  0  0  0  0  0  0  0  0  0
    4.6013   -0.8671   -1.2407 C   0  0  0  0  0  0  0  0  0  0  0  0
    4.1620   -2.1939   -1.4156 C   0  0  0  0  0  0  0  0  0  0  0  0
    5.0375   -3.2688   -1.2496 C   0  0  0  0  0  0  0  0  0  0  0  0
    6.3791   -3.0406   -0.9271 C   0  0  0  0  0  0  0  0  0  0  0  0
    6.8356   -1.7281   -0.7726 C   0  0  0  0  0  0  0  0  0  0  0  0
    5.9566   -0.6541   -0.9258 C   0  0  0  0  0  0  0  0  0  0  0  0
    1.4505    0.3897   -2.6717 C   0  0  0  0  0  0  0  0  0  0  0  0
    0.6960    0.2956   -3.8428 C   0  0  0  0  0  0  0  0  0  0  0  0
    0.7296   -0.0476   -5.9810 H   0  0  0  0  0  0  0  0  0  0  0  0
    3.2032   -0.3854   -6.0497 H   0  0  0  0  0  0  0  0  0  0  0  0
    4.5377   -0.2468   -3.9649 H   0  0  0  0  0  0  0  0  0  0  0  0
    5.0643    3.2167    0.6705 H   0  0  0  0  0  0  0  0  0  0  0  0
    6.0675    3.1623    2.9372 H   0  0  0  0  0  0  0  0  0  0  0  0
    5.7118    1.1840    4.4197 H   0  0  0  0  0  0  0  0  0  0  0  0
    4.3426   -0.7376    3.6018 H   0  0  0  0  0  0  0  0  0  0  0  0
    3.3658   -0.6916    1.3241 H   0  0  0  0  0  0  0  0  0  0  0  0
    1.7126    2.5838    1.0230 H   0  0  0  0  0  0  0  0  0  0  0  0
    0.4859    4.6611    0.5435 H   0  0  0  0  0  0  0  0  0  0  0  0
    4.3401    8.4594   -2.9440 H   0  0  0  0  0  0  0  0  0  0  0  0
    3.0199   10.5300   -3.5779 H   0  0  0  0  0  0  0  0  0  0  0  0
   -3.2362    8.9903   -3.4546 H   0  0  0  0  0  0  0  0  0  0  0  0
   -4.5343   11.0317   -3.8876 H   0  0  0  0  0  0  0  0  0  0  0  0
   -5.3366   14.7418   -5.5260 H   0  0  0  0  0  0  0  0  0  0  0  0
   -6.7309   16.6112   -6.3653 H   0  0  0  0  0  0  0  0  0  0  0  0
   -8.2390   17.8505   -4.8077 H   0  0  0  0  0  0  0  0  0  0  0  0
   -8.3521   17.1759   -2.4057 H   0  0  0  0  0  0  0  0  0  0  0  0
   -6.9783   15.2857   -1.5769 H   0  0  0  0  0  0  0  0  0  0  0  0
   -4.5850   12.6908   -0.5304 H   0  0  0  0  0  0  0  0  0  0  0  0
   -5.8906   11.0718    0.8170 H   0  0  0  0  0  0  0  0  0  0  0  0
   -8.0565   10.1776   -0.0466 H   0  0  0  0  0  0  0  0  0  0  0  0
   -8.9084   10.9441   -2.2657 H   0  0  0  0  0  0  0  0  0  0  0  0
   -7.6127   12.5848   -3.5982 H   0  0  0  0  0  0  0  0  0  0  0  0
   -3.7587   16.2294   -2.4047 H   0  0  0  0  0  0  0  0  0  0  0  0
   -2.3631   18.0526   -3.3389 H   0  0  0  0  0  0  0  0  0  0  0  0
   -0.8668   17.6145   -5.2897 H   0  0  0  0  0  0  0  0  0  0  0  0
   -0.7665   15.3215   -6.2745 H   0  0  0  0  0  0  0  0  0  0  0  0
   -2.1417   13.4937   -5.3180 H   0  0  0  0  0  0  0  0  0  0  0  0
   -1.4771   13.3858   -1.9656 H   0  0  0  0  0  0  0  0  0  0  0  0
   -0.1765   11.3440   -1.5309 H   0  0  0  0  0  0  0  0  0  0  0  0
    2.5589    5.0125   -3.2223 H   0  0  0  0  0  0  0  0  0  0  0  0
    3.7357    2.9006   -2.7701 H   0  0  0  0  0  0  0  0  0  0  0  0
    3.1181   -2.3814   -1.6782 H   0  0  0  0  0  0  0  0  0  0  0  0
    4.6707   -4.2907   -1.3771 H   0  0  0  0  0  0  0  0  0  0  0  0
    7.0668   -3.8813   -0.8043 H   0  0  0  0  0  0  0  0  0  0  0  0
    7.8852   -1.5375   -0.5336 H   0  0  0  0  0  0  0  0  0  0  0  0
    6.3229    0.3673   -0.8060 H   0  0  0  0  0  0  0  0  0  0  0  0
    0.9535    0.6004   -1.7228 H   0  0  0  0  0  0  0  0  0  0  0  0
   -0.3875    0.4339   -3.7997 H   0  0  0  0  0  0  0  0  0  0  0  0
  1  2  2  0
  1 65  1  0
  1 66  1  0
  2  3  1  0
  2 67  1  0
  3  4  2  0
  3 68  1  0
  4  5  1  0
  4 64  1  0
  5  6  2  0
  5 58  1  0
  6  7  1  0
  6 13  1  0
  7  8  2  0
  7 12  1  0
  8  9  1  0
  8 69  1  0
  9 10  2  0
  9 70  1  0
 10 11  1  0
 10 71  1  0
 11 12  2  0
 11 72  1  0
 12 73  1  0
 13 14  2  0
 13 57  1  0
 14 15  1  0
 14 74  1  0
 15 16  2  0
 15 75  1  0
 16 17  1  0
 16 56  1  0
 17 18  2  0
 17 55  1  0
 18 19  1  0
 18 23  1  0
 19 20  2  0
 20 21  1  0
 20 76  1  0
 21 22  2  0
 21 77  1  0
 22 23  1  0
 23 24  2  0
 24 25  1  0
 24 51  1  0
 25 26  2  0
 25 50  1  0
 26 27  1  0
 26 78  1  0
 27 28  2  0
 27 79  1  0
 28 29  1  0
 28 49  1  0
 29 30  2  0
 29 43  1  0
 30 31  1  0
 30 37  1  0
 31 32  2  0
 31 36  1  0
 32 33  1  0
 32 80  1  0
 33 34  2  0
 33 81  1  0
 34 35  1  0
 34 82  1  0
 35 36  2  0
 35 83  1  0
 36 84  1  0
 37 38  2  0
 37 42  1  0
 38 39  1  0
 38 85  1  0
 39 40  2  0
 39 86  1  0
 40 41  1  0
 40 87  1  0
 41 42  2  0
 41 88  1  0
 42 89  1  0
 43 44  2  0
 43 48  1  0
 44 45  1  0
 44 90  1  0
 45 46  2  0
 45 91  1  0
 46 47  1  0
 46 92  1  0
 47 48  2  0
 47 93  1  0
 48 94  1  0
 49 50  2  0
 49 95  1  0
 50 96  1  0
 51 52  2  0
 51 55  1  0
 52 53  1  0
 53 54  1  0
 54 55  2  0
 56 57  2  0
 56 97  1  0
 57 98  1  0
 58 59  2  0
 58 63  1  0
 59 60  1  0
 59 99  1  0
 60 61  2  0
 60100  1  0
 61 62  1  0
 61101  1  0
 62 63  2  0
 62102  1  0
 63103  1  0
 64 65  2  0
 64104  1  0
 65105  1  0
M  END

