
     RDKit          3D

 38 39  0  0  0  0  0  0  0  0999 V2000
    1.1342    0.3549    0.0266 N   0  0  0  0  0  0  0  0  0  0  0  0
    2.5742    0.0933   -0.1562 C   0  0  1  0  0  0  0  0  0  0  0  0
    3.2135    0.4891    1.1911 C   0  0  0  0  0  0  0  0  0  0  0  0
    4.7123    0.3813    1.3876 C   0  0  0  0  0  0  0  0  0  0  0  0
    5.5071    0.0989    0.5159 O   0  0  0  0  0  0  0  0  0  0  0  0
    5.2154    0.6449    2.8194 C   0  0  0  0  0  0  0  0  0  0  0  0
    5.4696   -0.6579    3.5526 C   0  0  0  0  0  0  0  0  0  0  0  0
    6.5341   -1.4786    3.1311 C   0  0  0  0  0  0  0  0  0  0  0  0
    6.8287   -2.6930    3.7460 C   0  0  0  0  0  0  0  0  0  0  0  0
    6.0377   -3.1054    4.8160 C   0  0  0  0  0  0  0  0  0  0  0  0
    6.3058   -4.2664    5.4264 F   0  0  0  0  0  0  0  0  0  0  0  0
    4.9698   -2.3386    5.2697 C   0  0  0  0  0  0  0  0  0  0  0  0
    4.6943   -1.1256    4.6293 C   0  0  0  0  0  0  0  0  0  0  0  0
    3.2021   -0.1247    5.2955 Br  0  0  0  0  0  0  0  0  0  0  0  0
    2.8810   -1.3903   -0.4983 C   0  0  0  0  0  0  0  0  0  0  0  0
    2.3363   -1.8075   -1.8708 C   0  0  0  0  0  0  0  0  0  0  0  0
    2.8684   -0.8941   -2.9823 C   0  0  0  0  0  0  0  0  0  0  0  0
    2.5643    0.5800   -2.6850 C   0  0  0  0  0  0  0  0  0  0  0  0
    3.0841    1.0005   -1.3015 C   0  0  0  0  0  0  0  0  0  0  0  0
    0.7361   -0.3146    0.6880 H   0  0  0  0  0  0  0  0  0  0  0  0
    0.6273    0.2207   -0.8466 H   0  0  0  0  0  0  0  0  0  0  0  0
    2.7457   -0.0926    2.0085 H   0  0  0  0  0  0  0  0  0  0  0  0
    2.9314    1.5342    1.4180 H   0  0  0  0  0  0  0  0  0  0  0  0
    4.5052    1.2679    3.3767 H   0  0  0  0  0  0  0  0  0  0  0  0
    6.1634    1.1951    2.7200 H   0  0  0  0  0  0  0  0  0  0  0  0
    7.1340   -1.1451    2.2814 H   0  0  0  0  0  0  0  0  0  0  0  0
    7.6572   -3.3197    3.4117 H   0  0  0  0  0  0  0  0  0  0  0  0
    4.3680   -2.6902    6.1078 H   0  0  0  0  0  0  0  0  0  0  0  0
    2.4592   -2.0352    0.2943 H   0  0  0  0  0  0  0  0  0  0  0  0
    3.9722   -1.5403   -0.4859 H   0  0  0  0  0  0  0  0  0  0  0  0
    1.2312   -1.7694   -1.8617 H   0  0  0  0  0  0  0  0  0  0  0  0
    2.6018   -2.8582   -2.0747 H   0  0  0  0  0  0  0  0  0  0  0  0
    2.4442   -1.1856   -3.9581 H   0  0  0  0  0  0  0  0  0  0  0  0
    3.9627   -1.0274   -3.0642 H   0  0  0  0  0  0  0  0  0  0  0  0
    1.4741    0.7528   -2.7553 H   0  0  0  0  0  0  0  0  0  0  0  0
    3.0145    1.2269   -3.4565 H   0  0  0  0  0  0  0  0  0  0  0  0
    2.7896    2.0406   -1.0828 H   0  0  0  0  0  0  0  0  0  0  0  0
    4.1833    0.9593   -1.3073 H   0  0  0  0  0  0  0  0  0  0  0  0
  2  1  1  1
  1 20  1  0
  1 21  1  0
  2  3  1  0
  2 15  1  0
  2 19  1  0
  3  4  1  0
  3 22  1  0
  3 23  1  0
  4  5  2  0
  4  6  1  0
  6  7  1  0
  6 24  1  0
  6 25  1  0
  7  8  2  0
  7 13  1  0
  8  9  1  0
  8 26  1  0
  9 10  2  0
  9 27  1  0
 10 11  1  0
 10 12  1  0
 12 13  2  0
 12 28  1  0
 13 14  1  0
 15 16  1  0
 15 29  1  0
 15 30  1  0
 16 17  1  0
 16 31  1  0
 16 32  1  0
 17 18  1  0
 17 33  1  0
 17 34  1  0
 18 19  1  0
 18 35  1  0
 18 36  1  0
 19 37  1  0
 19 38  1  0
M  END

