
     RDKit          3D

 61 65  0  0  0  0  0  0  0  0999 V2000
    2.3770   -1.5595   -1.8038 C   0  0  0  0  0  0  0  0  0  0  0  0
    3.1993   -1.1624   -0.6207 C   0  0  0  0  0  0  0  0  0  0  0  0
    3.8704   -0.0159   -0.5867 N   0  0  0  0  0  0  0  0  0  0  0  0
    4.4927    0.0209    0.6124 N   0  0  0  0  0  0  0  0  0  0  0  0
    5.2720    1.1904    0.9760 C   0  0  0  0  0  0  0  0  0  0  0  0
    4.4684    2.2727    1.6815 C   0  0  0  0  0  0  0  0  0  0  0  0
    3.2664    2.7264    1.1111 C   0  0  0  0  0  0  0  0  0  0  0  0
    2.5062    3.7279    1.7137 C   0  0  0  0  0  0  0  0  0  0  0  0
    2.9389    4.3062    2.9114 C   0  0  0  0  0  0  0  0  0  0  0  0
    4.1276    3.8765    3.5006 C   0  0  0  0  0  0  0  0  0  0  0  0
    4.8779    2.8676    2.8860 C   0  0  0  0  0  0  0  0  0  0  0  0
    6.3647    2.3614    3.6859 Cl  0  0  0  0  0  0  0  0  0  0  0  0
    4.2147   -1.0719    1.3805 C   0  0  0  0  0  0  0  0  0  0  0  0
    4.7515   -1.2914    2.7561 C   0  0  0  0  0  0  0  0  0  0  0  0
    3.3832   -1.8720    0.6021 C   0  0  0  0  0  0  0  0  0  0  0  0
    2.8770   -3.1378    0.9625 N   0  0  0  0  0  0  0  0  0  0  0  0
    1.5209   -3.4362    0.9970 C   0  0  0  0  0  0  0  0  0  0  0  0
    0.6554   -2.6203    0.7280 O   0  0  0  0  0  0  0  0  0  0  0  0
    1.2450   -4.7396    1.3565 N   0  0  0  0  0  0  0  0  0  0  0  0
   -0.1143   -5.2323    1.4748 C   0  0  0  0  0  0  0  0  0  0  0  0
   -0.5565   -6.2262    0.3806 C   0  0  2  0  0  0  0  0  0  0  0  0
    0.3085   -7.5097    0.3990 C   0  0  0  0  0  0  0  0  0  0  0  0
   -0.1735   -8.5082   -0.6719 C   0  0  1  0  0  0  0  0  0  0  0  0
   -1.6397   -8.8905   -0.3901 C   0  0  0  0  0  0  0  0  0  0  0  0
   -2.5179   -7.6245   -0.4282 C   0  0  2  0  0  0  0  0  0  0  0  0
   -2.4157   -6.9706   -1.8201 C   0  0  0  0  0  0  0  0  0  0  0  0
   -0.9499   -6.5861   -2.1010 C   0  0  2  0  0  0  0  0  0  0  0  0
   -0.0720   -7.8525   -2.0630 C   0  0  0  0  0  0  0  0  0  0  0  0
   -0.4648   -5.5923   -1.0275 C   0  0  0  0  0  0  0  0  0  0  0  0
   -2.0275   -6.6296    0.6413 C   0  0  0  0  0  0  0  0  0  0  0  0
    2.5148   -0.8348   -2.6183 H   0  0  0  0  0  0  0  0  0  0  0  0
    1.3123   -1.6081   -1.5275 H   0  0  0  0  0  0  0  0  0  0  0  0
    2.6623   -2.5600   -2.1700 H   0  0  0  0  0  0  0  0  0  0  0  0
    5.6832    1.5875    0.0357 H   0  0  0  0  0  0  0  0  0  0  0  0
    6.1164    0.8772    1.6015 H   0  0  0  0  0  0  0  0  0  0  0  0
    2.9351    2.2649    0.1775 H   0  0  0  0  0  0  0  0  0  0  0  0
    1.5749    4.0580    1.2476 H   0  0  0  0  0  0  0  0  0  0  0  0
    2.3517    5.0925    3.3920 H   0  0  0  0  0  0  0  0  0  0  0  0
    4.4816    4.3111    4.4367 H   0  0  0  0  0  0  0  0  0  0  0  0
    5.8383   -1.4866    2.7570 H   0  0  0  0  0  0  0  0  0  0  0  0
    4.2525   -2.1618    3.2060 H   0  0  0  0  0  0  0  0  0  0  0  0
    4.5780   -0.4238    3.4119 H   0  0  0  0  0  0  0  0  0  0  0  0
    3.5430   -3.8841    1.1274 H   0  0  0  0  0  0  0  0  0  0  0  0
    2.0016   -5.3429    1.6522 H   0  0  0  0  0  0  0  0  0  0  0  0
   -0.7665   -4.3471    1.4483 H   0  0  0  0  0  0  0  0  0  0  0  0
   -0.2439   -5.7106    2.4633 H   0  0  0  0  0  0  0  0  0  0  0  0
    0.2604   -7.9772    1.3999 H   0  0  0  0  0  0  0  0  0  0  0  0
    1.3660   -7.2496    0.2147 H   0  0  0  0  0  0  0  0  0  0  0  0
    0.4584   -9.4126   -0.6401 H   0  0  0  0  0  0  0  0  0  0  0  0
   -1.7219   -9.3811    0.5957 H   0  0  0  0  0  0  0  0  0  0  0  0
   -1.9922   -9.6207   -1.1393 H   0  0  0  0  0  0  0  0  0  0  0  0
   -3.5675   -7.8952   -0.2211 H   0  0  0  0  0  0  0  0  0  0  0  0
   -3.0580   -6.0740   -1.8663 H   0  0  0  0  0  0  0  0  0  0  0  0
   -2.7833   -7.6665   -2.5944 H   0  0  0  0  0  0  0  0  0  0  0  0
   -0.8750   -6.1136   -3.0954 H   0  0  0  0  0  0  0  0  0  0  0  0
    0.9781   -7.5933   -2.2850 H   0  0  0  0  0  0  0  0  0  0  0  0
   -0.3953   -8.5648   -2.8420 H   0  0  0  0  0  0  0  0  0  0  0  0
   -1.0654   -4.6676   -1.0574 H   0  0  0  0  0  0  0  0  0  0  0  0
    0.5773   -5.2945   -1.2316 H   0  0  0  0  0  0  0  0  0  0  0  0
   -2.1193   -7.0795    1.6465 H   0  0  0  0  0  0  0  0  0  0  0  0
   -2.6635   -5.7268    0.6395 H   0  0  0  0  0  0  0  0  0  0  0  0
  1  2  1  0
  1 31  1  0
  1 32  1  0
  1 33  1  0
  2  3  2  0
  2 15  1  0
  3  4  1  0
  4  5  1  0
  4 13  1  0
  5  6  1  0
  5 34  1  0
  5 35  1  0
  6  7  2  0
  6 11  1  0
  7  8  1  0
  7 36  1  0
  8  9  2  0
  8 37  1  0
  9 10  1  0
  9 38  1  0
 10 11  2  0
 10 39  1  0
 11 12  1  0
 13 14  1  0
 13 15  2  0
 14 40  1  0
 14 41  1  0
 14 42  1  0
 15 16  1  0
 16 17  1  0
 16 43  1  0
 17 18  2  0
 17 19  1  0
 19 20  1  0
 19 44  1  0
 21 20  1  1
 20 45  1  0
 20 46  1  0
 21 22  1  0
 21 29  1  0
 21 30  1  0
 22 23  1  0
 22 47  1  0
 22 48  1  0
 23 24  1  0
 23 28  1  0
 23 49  1  6
 24 25  1  0
 24 50  1  0
 24 51  1  0
 25 26  1  0
 25 30  1  0
 25 52  1  1
 26 27  1  0
 26 53  1  0
 26 54  1  0
 27 28  1  0
 27 29  1  0
 27 55  1  6
 28 56  1  0
 28 57  1  0
 29 58  1  0
 29 59  1  0
 30 60  1  0
 30 61  1  0
M  END

