
     RDKit          3D

 59 62  0  0  0  0  0  0  0  0999 V2000
    0.7672    1.4117    0.1122 C   0  0  0  0  0  0  0  0  0  0  0  0
    2.2347    1.0592    0.0945 C   0  0  0  0  0  0  0  0  0  0  0  0
    2.9527    0.8652    1.2793 C   0  0  0  0  0  0  0  0  0  0  0  0
    4.3169    0.5396    1.2795 C   0  0  0  0  0  0  0  0  0  0  0  0
    5.0495    0.3418    2.5859 C   0  0  0  0  0  0  0  0  0  0  0  0
    4.9799    0.4047    0.0403 C   0  0  0  0  0  0  0  0  0  0  0  0
    6.4345    0.0563    0.0155 C   0  0  0  0  0  0  0  0  0  0  0  0
    6.8338   -1.2923   -0.0332 C   0  0  0  0  0  0  0  0  0  0  0  0
    6.0690   -2.4809   -0.1168 C   0  0  0  0  0  0  0  0  0  0  0  0
    6.9652   -3.5564   -0.2003 C   0  0  0  0  0  0  0  0  0  0  0  0
    6.6185   -4.9611   -0.3117 C   0  0  0  0  0  0  0  0  0  0  0  0
    7.4808   -5.9957   -0.4051 C   0  0  0  0  0  0  0  0  0  0  0  0
    7.0842   -7.4181   -0.5176 C   0  0  0  0  0  0  0  0  0  0  0  0
    7.8967   -8.3153   -0.6029 O   0  0  0  0  0  0  0  0  0  0  0  0
    5.7469   -7.5871   -0.5139 O   0  0  0  0  0  0  0  0  0  0  0  0
    5.1183   -8.9083   -0.6141 C   0  0  1  0  0  0  0  0  0  0  0  0
    5.5213   -9.7740    0.5848 C   0  0  0  0  0  0  0  0  0  0  0  0
    3.6242   -8.5818   -0.5664 C   0  0  0  0  0  0  0  0  0  0  0  0
    5.4864   -9.5650   -1.9492 C   0  0  0  0  0  0  0  0  0  0  0  0
    8.2674   -2.9737   -0.1588 C   0  0  0  0  0  0  0  0  0  0  0  0
    8.1838   -1.6481   -0.0577 N   0  0  0  0  0  0  0  0  0  0  0  0
    9.3933   -0.6559    0.1261 B   0  0  1  0  0  0  0  0  0  0  0  0
    9.9324   -0.8184    1.3876 F   0  0  0  0  0  0  0  0  0  0  0  0
   10.3306   -0.8648   -0.8626 F   0  0  0  0  0  0  0  0  0  0  0  0
    8.7670    0.7761   -0.0051 N   0  0  0  0  0  0  0  0  0  0  0  0
    9.4410    1.9319   -0.0498 C   0  0  0  0  0  0  0  0  0  0  0  0
    8.5430    3.0251   -0.0560 C   0  0  0  0  0  0  0  0  0  0  0  0
    7.2615    2.4873   -0.0113 C   0  0  0  0  0  0  0  0  0  0  0  0
    7.4052    1.0707    0.0169 C   0  0  0  0  0  0  0  0  0  0  0  0
    4.2802    0.5947   -1.1746 C   0  0  0  0  0  0  0  0  0  0  0  0
    4.9754    0.4555   -2.5089 C   0  0  0  0  0  0  0  0  0  0  0  0
    2.9195    0.9185   -1.1206 C   0  0  0  0  0  0  0  0  0  0  0  0
    0.3738    1.4607    1.1381 H   0  0  0  0  0  0  0  0  0  0  0  0
    0.1709    0.6690   -0.4434 H   0  0  0  0  0  0  0  0  0  0  0  0
    0.5859    2.3893   -0.3652 H   0  0  0  0  0  0  0  0  0  0  0  0
    2.4388    0.9692    2.2394 H   0  0  0  0  0  0  0  0  0  0  0  0
    4.3724    0.4711    3.4422 H   0  0  0  0  0  0  0  0  0  0  0  0
    5.8783    1.0593    2.6977 H   0  0  0  0  0  0  0  0  0  0  0  0
    5.4939   -0.6641    2.6538 H   0  0  0  0  0  0  0  0  0  0  0  0
    4.9819   -2.5311   -0.1266 H   0  0  0  0  0  0  0  0  0  0  0  0
    5.5491   -5.1910   -0.3195 H   0  0  0  0  0  0  0  0  0  0  0  0
    8.5643   -5.8523   -0.4054 H   0  0  0  0  0  0  0  0  0  0  0  0
    5.2870   -9.2555    1.5277 H   0  0  0  0  0  0  0  0  0  0  0  0
    6.5938  -10.0046    0.5650 H   0  0  0  0  0  0  0  0  0  0  0  0
    4.9558  -10.7189    0.5656 H   0  0  0  0  0  0  0  0  0  0  0  0
    3.3688   -8.0711    0.3746 H   0  0  0  0  0  0  0  0  0  0  0  0
    3.0290   -9.5051   -0.6343 H   0  0  0  0  0  0  0  0  0  0  0  0
    3.3441   -7.9244   -1.4037 H   0  0  0  0  0  0  0  0  0  0  0  0
    6.5587   -9.7923   -1.9970 H   0  0  0  0  0  0  0  0  0  0  0  0
    5.2267   -8.8998   -2.7877 H   0  0  0  0  0  0  0  0  0  0  0  0
    4.9203  -10.5021   -2.0692 H   0  0  0  0  0  0  0  0  0  0  0  0
    9.2383   -3.4666   -0.1942 H   0  0  0  0  0  0  0  0  0  0  0  0
   10.5304    1.9390   -0.0730 H   0  0  0  0  0  0  0  0  0  0  0  0
    8.8210    4.0764   -0.0939 H   0  0  0  0  0  0  0  0  0  0  0  0
    6.3124    3.0193   -0.0098 H   0  0  0  0  0  0  0  0  0  0  0  0
    5.4070   -0.5500   -2.6386 H   0  0  0  0  0  0  0  0  0  0  0  0
    5.8078    1.1706   -2.6082 H   0  0  0  0  0  0  0  0  0  0  0  0
    4.2765    0.6329   -3.3387 H   0  0  0  0  0  0  0  0  0  0  0  0
    2.3780    1.0651   -2.0602 H   0  0  0  0  0  0  0  0  0  0  0  0
  1  2  1  0
  1 33  1  0
  1 34  1  0
  1 35  1  0
  2  3  2  0
  2 32  1  0
  3  4  1  0
  3 36  1  0
  4  5  1  0
  4  6  2  0
  5 37  1  0
  5 38  1  0
  5 39  1  0
  6  7  1  0
  6 30  1  0
  7  8  1  0
  7 29  2  0
  8  9  2  0
  8 21  1  0
  9 10  1  0
  9 40  1  0
 10 11  1  0
 10 20  2  0
 11 12  2  0
 11 41  1  0
 12 13  1  0
 12 42  1  0
 13 14  2  0
 13 15  1  0
 16 15  1  1
 16 17  1  0
 16 18  1  0
 16 19  1  0
 17 43  1  0
 17 44  1  0
 17 45  1  0
 18 46  1  0
 18 47  1  0
 18 48  1  0
 19 49  1  0
 19 50  1  0
 19 51  1  0
 20 21  1  0
 20 52  1  0
 21 22  1  0
 22 23  1  1
 22 24  1  0
 22 25  1  0
 25 26  2  0
 25 29  1  0
 26 27  1  0
 26 53  1  0
 27 28  2  0
 27 54  1  0
 28 29  1  0
 28 55  1  0
 30 31  1  0
 30 32  2  0
 31 56  1  0
 31 57  1  0
 31 58  1  0
 32 59  1  0
M  CHG  2  22  -1  25   1
M  END

