
     RDKit          3D

 42 43  0  0  0  0  0  0  0  0999 V2000
    3.1026    1.8395    1.1713 C   0  0  0  0  0  0  0  0  0  0  0  0
    2.3667    0.8316    2.0575 C   0  0  0  0  0  0  0  0  0  0  0  0
    3.0355   -0.5459    2.2210 C   0  0  1  0  0  0  0  0  0  0  0  0
    3.2147   -1.2967    0.9010 C   0  0  0  0  0  0  0  0  0  0  0  0
    4.3374   -0.3472    2.9043 N   0  0  0  0  0  0  0  0  0  0  0  0
    5.1204   -1.6623    3.6317 S   0  0  1  0  0  0  0  0  0  0  0  0
    5.6592   -1.1595    4.8990 O   0  0  0  0  0  0  0  0  0  0  0  0
    4.2575   -2.8483    3.5897 O   0  0  0  0  0  0  0  0  0  0  0  0
    6.5048   -1.9732    2.4923 C   0  0  1  0  0  0  0  0  0  0  0  0
    7.4823   -0.7803    2.3775 C   0  0  0  0  0  0  0  0  0  0  0  0
    8.7551   -1.3886    2.3374 O   0  0  0  0  0  0  0  0  0  0  0  0
    8.6359   -2.3846    3.3786 N   0  0  0  0  0  0  0  0  0  0  0  0
    9.8818   -3.1112    3.4554 C   0  0  0  0  0  0  0  0  0  0  0  0
    7.4035   -3.1280    3.0170 C   0  0  2  0  0  0  0  0  0  0  0  0
    7.5823   -4.2561    2.0107 C   0  0  0  0  0  0  0  0  0  0  0  0
    7.9470   -3.9885    0.6780 C   0  0  0  0  0  0  0  0  0  0  0  0
    8.1520   -4.9998   -0.2589 C   0  0  0  0  0  0  0  0  0  0  0  0
    7.9882   -6.3308    0.1342 C   0  0  0  0  0  0  0  0  0  0  0  0
    8.2232   -7.6163   -1.0233 Cl  0  0  0  0  0  0  0  0  0  0  0  0
    7.6417   -6.6455    1.4479 C   0  0  0  0  0  0  0  0  0  0  0  0
    7.4530   -5.6108    2.3702 C   0  0  0  0  0  0  0  0  0  0  0  0
    7.0558   -6.0787    4.0138 Cl  0  0  0  0  0  0  0  0  0  0  0  0
    2.5718    2.8042    1.1605 H   0  0  0  0  0  0  0  0  0  0  0  0
    3.1745    1.4933    0.1284 H   0  0  0  0  0  0  0  0  0  0  0  0
    4.1270    2.0242    1.5308 H   0  0  0  0  0  0  0  0  0  0  0  0
    1.3521    0.6563    1.6613 H   0  0  0  0  0  0  0  0  0  0  0  0
    2.2193    1.2631    3.0646 H   0  0  0  0  0  0  0  0  0  0  0  0
    2.3767   -1.1554    2.8650 H   0  0  0  0  0  0  0  0  0  0  0  0
    3.9196   -0.7793    0.2321 H   0  0  0  0  0  0  0  0  0  0  0  0
    2.2466   -1.3844    0.3833 H   0  0  0  0  0  0  0  0  0  0  0  0
    3.5814   -2.3168    1.0848 H   0  0  0  0  0  0  0  0  0  0  0  0
    4.3070    0.3813    3.6188 H   0  0  0  0  0  0  0  0  0  0  0  0
    6.0243   -2.2308    1.5409 H   0  0  0  0  0  0  0  0  0  0  0  0
    7.3862   -0.1240    3.2592 H   0  0  0  0  0  0  0  0  0  0  0  0
    7.3522   -0.2012    1.4537 H   0  0  0  0  0  0  0  0  0  0  0  0
   10.6693   -2.4230    3.7953 H   0  0  0  0  0  0  0  0  0  0  0  0
   10.1943   -3.5689    2.4970 H   0  0  0  0  0  0  0  0  0  0  0  0
    9.7629   -3.9053    4.2075 H   0  0  0  0  0  0  0  0  0  0  0  0
    6.9993   -3.5478    3.9470 H   0  0  0  0  0  0  0  0  0  0  0  0
    8.0928   -2.9510    0.3725 H   0  0  0  0  0  0  0  0  0  0  0  0
    8.4356   -4.7635   -1.2853 H   0  0  0  0  0  0  0  0  0  0  0  0
    7.5208   -7.6832    1.7576 H   0  0  0  0  0  0  0  0  0  0  0  0
  1  2  1  0
  1 23  1  0
  1 24  1  0
  1 25  1  0
  2  3  1  0
  2 26  1  0
  2 27  1  0
  3  4  1  0
  3  5  1  0
  3 28  1  1
  4 29  1  0
  4 30  1  0
  4 31  1  0
  6  5  1  6
  5 32  1  0
  6  7  2  0
  6  8  2  0
  6  9  1  0
  9 10  1  0
  9 14  1  0
  9 33  1  6
 10 11  1  0
 10 34  1  0
 10 35  1  0
 11 12  1  0
 12 13  1  0
 12 14  1  0
 13 36  1  0
 13 37  1  0
 13 38  1  0
 14 15  1  0
 14 39  1  1
 15 16  2  0
 15 21  1  0
 16 17  1  0
 16 40  1  0
 17 18  2  0
 17 41  1  0
 18 19  1  0
 18 20  1  0
 20 21  2  0
 20 42  1  0
 21 22  1  0
M  END

