
     RDKit          3D

 36 37  0  0  0  0  0  0  0  0999 V2000
    1.0736    0.0201    0.4636 C   0  0  0  0  0  0  0  0  0  0  0  0
    2.4815   -0.0441    0.1247 N   0  0  0  0  0  0  0  0  0  0  0  0
    2.9414   -1.3436   -0.3565 C   0  0  0  0  0  0  0  0  0  0  0  0
    2.5751   -1.6339   -1.8252 C   0  0  0  0  0  0  0  0  0  0  0  0
    3.0296   -0.5094   -2.7815 C   0  0  2  0  0  0  0  0  0  0  0  0
    4.5448   -0.5996   -3.0749 C   0  0  0  0  0  0  0  0  0  0  0  0
    5.0332    0.3910   -4.0280 N   0  0  0  0  0  0  0  0  0  0  0  0
    6.0187    1.3692   -3.6123 C   0  0  0  0  0  0  0  0  0  0  0  0
    4.9299    0.1267   -5.3731 C   0  0  0  0  0  0  0  0  0  0  0  0
    5.5699    0.8305   -6.2992 N   0  0  0  0  0  0  0  0  0  0  0  0
    5.1310    0.2284   -7.4570 N   0  0  0  0  0  0  0  0  0  0  0  0
    5.5199    0.5018   -8.3497 H   0  0  0  0  0  0  0  0  0  0  0  0
    4.2924   -0.7893   -7.1627 C   0  0  0  0  0  0  0  0  0  0  0  0
    3.7431   -1.6367   -8.1009 N   0  0  0  0  0  0  0  0  0  0  0  0
    4.1314   -0.8817   -5.8554 N   0  0  0  0  0  0  0  0  0  0  0  0
    2.5923    0.8607   -2.2226 C   0  0  0  0  0  0  0  0  0  0  0  0
    2.9579    1.0351   -0.7370 C   0  0  0  0  0  0  0  0  0  0  0  0
    0.8354   -0.7594    1.2063 H   0  0  0  0  0  0  0  0  0  0  0  0
    0.3663   -0.1099   -0.3862 H   0  0  0  0  0  0  0  0  0  0  0  0
    0.8483    0.9954    0.9262 H   0  0  0  0  0  0  0  0  0  0  0  0
    2.5345   -2.1298    0.3013 H   0  0  0  0  0  0  0  0  0  0  0  0
    4.0401   -1.3807   -0.2347 H   0  0  0  0  0  0  0  0  0  0  0  0
    1.4805   -1.7503   -1.9084 H   0  0  0  0  0  0  0  0  0  0  0  0
    3.0090   -2.6012   -2.1346 H   0  0  0  0  0  0  0  0  0  0  0  0
    2.5362   -0.6633   -3.7539 H   0  0  0  0  0  0  0  0  0  0  0  0
    4.7559   -1.6145   -3.4533 H   0  0  0  0  0  0  0  0  0  0  0  0
    5.1309   -0.4798   -2.1504 H   0  0  0  0  0  0  0  0  0  0  0  0
    5.7967    1.7091   -2.5904 H   0  0  0  0  0  0  0  0  0  0  0  0
    5.9878    2.2375   -4.2856 H   0  0  0  0  0  0  0  0  0  0  0  0
    7.0547    0.9734   -3.6336 H   0  0  0  0  0  0  0  0  0  0  0  0
    3.4709   -1.2122   -8.9818 H   0  0  0  0  0  0  0  0  0  0  0  0
    3.0136   -2.2242   -7.7102 H   0  0  0  0  0  0  0  0  0  0  0  0
    1.4989    0.9592   -2.3404 H   0  0  0  0  0  0  0  0  0  0  0  0
    3.0389    1.6707   -2.8232 H   0  0  0  0  0  0  0  0  0  0  0  0
    2.5652    1.9925   -0.3556 H   0  0  0  0  0  0  0  0  0  0  0  0
    4.0577    1.0911   -0.6300 H   0  0  0  0  0  0  0  0  0  0  0  0
  1  2  1  0
  1 18  1  0
  1 19  1  0
  1 20  1  0
  2  3  1  0
  2 17  1  0
  3  4  1  0
  3 21  1  0
  3 22  1  0
  4  5  1  0
  4 23  1  0
  4 24  1  0
  5  6  1  0
  5 16  1  0
  5 25  1  6
  6  7  1  0
  6 26  1  0
  6 27  1  0
  7  8  1  0
  7  9  1  0
  8 28  1  0
  8 29  1  0
  8 30  1  0
  9 10  2  0
  9 15  1  0
 10 11  1  0
 11 12  1  0
 11 13  1  0
 13 14  1  0
 13 15  2  0
 14 31  1  0
 14 32  1  0
 16 17  1  0
 16 33  1  0
 16 34  1  0
 17 35  1  0
 17 36  1  0
M  END

