
     RDKit          3D

 38 38  0  0  0  0  0  0  0  0999 V2000
    3.1978   -1.4944    2.3313 C   0  0  0  0  0  0  0  0  0  0  0  0
    3.5483   -0.8828    1.3455 C   0  0  0  0  0  0  0  0  0  0  0  0
    3.9913   -0.1448    0.1518 C   0  0  1  0  0  0  0  0  0  0  0  0
    4.5800    1.1404    0.5292 N   0  0  0  0  0  0  0  0  0  0  0  0
    4.0000    2.3236    0.1096 C   0  0  0  0  0  0  0  0  0  0  0  0
    3.0846    2.3647   -0.7000 O   0  0  0  0  0  0  0  0  0  0  0  0
    4.5496    3.4695    0.6517 N   0  0  0  0  0  0  0  0  0  0  0  0
    4.0785    4.7804    0.2226 C   0  0  0  0  0  0  0  0  0  0  0  0
    5.3442    5.6579    0.2929 C   0  0  1  0  0  0  0  0  0  0  0  0
    5.9460    5.5041   -0.6185 H   0  0  0  0  0  0  0  0  0  0  0  0
    5.0103    7.1360    0.5079 C   0  0  0  0  0  0  0  0  0  0  0  0
    4.4632    7.5336    1.4995 O   0  0  0  0  0  0  0  0  0  0  0  0
    5.3348    7.9768   -0.4913 O   0  0  0  0  0  0  0  0  0  0  0  0
    6.0886    5.0476    1.4995 C   0  0  2  0  0  0  0  0  0  0  0  0
    5.6646    5.4907    2.4138 H   0  0  0  0  0  0  0  0  0  0  0  0
    7.5742    5.3467    1.5161 C   0  0  1  0  0  0  0  0  0  0  0  0
    8.1935    4.8807    0.4113 F   0  0  0  0  0  0  0  0  0  0  0  0
    7.8040    6.6697    1.5676 F   0  0  0  0  0  0  0  0  0  0  0  0
    8.1724    4.7824    2.5767 F   0  0  0  0  0  0  0  0  0  0  0  0
    5.7757    3.5381    1.4362 C   0  0  0  0  0  0  0  0  0  0  0  0
    4.9239   -0.9995   -0.7573 C   0  0  1  0  0  0  0  0  0  0  0  0
    5.1697   -0.2946   -2.0950 C   0  0  0  0  0  0  0  0  0  0  0  0
    6.2378   -1.3735   -0.0638 C   0  0  0  0  0  0  0  0  0  0  0  0
    2.8732   -2.0336    3.2014 H   0  0  0  0  0  0  0  0  0  0  0  0
    3.0990    0.1163   -0.4404 H   0  0  0  0  0  0  0  0  0  0  0  0
    5.1713    1.1426    1.3507 H   0  0  0  0  0  0  0  0  0  0  0  0
    3.3118    5.1848    0.9072 H   0  0  0  0  0  0  0  0  0  0  0  0
    3.6391    4.7118   -0.7812 H   0  0  0  0  0  0  0  0  0  0  0  0
    5.7913    7.5053   -1.2023 H   0  0  0  0  0  0  0  0  0  0  0  0
    5.6560    3.1269    2.4541 H   0  0  0  0  0  0  0  0  0  0  0  0
    6.5921    2.9812    0.9421 H   0  0  0  0  0  0  0  0  0  0  0  0
    4.3628   -1.9303   -0.9544 H   0  0  0  0  0  0  0  0  0  0  0  0
    5.7290    0.6435   -1.9492 H   0  0  0  0  0  0  0  0  0  0  0  0
    4.2255   -0.0418   -2.6016 H   0  0  0  0  0  0  0  0  0  0  0  0
    5.7605   -0.9356   -2.7684 H   0  0  0  0  0  0  0  0  0  0  0  0
    6.8414   -0.4751    0.1499 H   0  0  0  0  0  0  0  0  0  0  0  0
    6.8456   -2.0290   -0.7072 H   0  0  0  0  0  0  0  0  0  0  0  0
    6.0604   -1.9029    0.8854 H   0  0  0  0  0  0  0  0  0  0  0  0
  1  2  3  0
  1 24  1  0
  2  3  1  0
  3  4  1  0
  3 21  1  0
  3 25  1  6
  4  5  1  0
  4 26  1  0
  5  6  2  0
  5  7  1  0
  7  8  1  0
  7 20  1  0
  8  9  1  0
  8 27  1  0
  8 28  1  0
  9 10  1  6
  9 11  1  0
  9 14  1  0
 11 12  2  0
 11 13  1  0
 13 29  1  0
 14 15  1  1
 14 16  1  0
 14 20  1  0
 16 17  1  6
 16 18  1  0
 16 19  1  0
 20 30  1  0
 20 31  1  0
 21 22  1  0
 21 23  1  0
 21 32  1  6
 22 33  1  0
 22 34  1  0
 22 35  1  0
 23 36  1  0
 23 37  1  0
 23 38  1  0
M  END

