
     RDKit          3D

 59 62  0  0  0  0  0  0  0  0999 V2000
    4.0665   -1.1430    1.0220 C   0  0  0  0  0  0  0  0  0  0  0  0
    3.2733   -0.2293    0.2795 O   0  0  0  0  0  0  0  0  0  0  0  0
    3.6428   -0.0305   -1.0234 C   0  0  0  0  0  0  0  0  0  0  0  0
    4.2502    1.1623   -1.4079 C   0  0  0  0  0  0  0  0  0  0  0  0
    4.5942    1.4253   -2.7384 C   0  0  0  0  0  0  0  0  0  0  0  0
    4.3278    0.4541   -3.7125 C   0  0  0  0  0  0  0  0  0  0  0  0
    4.6431    0.6233   -5.0744 N   0  0  0  0  0  0  0  0  0  0  0  0
    5.2365    1.6836   -5.7009 C   0  0  0  0  0  0  0  0  0  0  0  0
    5.6166    2.7132   -5.1715 O   0  0  0  0  0  0  0  0  0  0  0  0
    5.4558    1.4545   -7.2133 C   0  0  1  0  0  0  0  0  0  0  0  0
    6.9255    1.1561   -7.4933 C   0  0  0  0  0  0  0  0  0  0  0  0
    4.6688    0.3863   -7.7187 O   0  0  0  0  0  0  0  0  0  0  0  0
    3.3603    0.7462   -8.1290 C   0  0  0  0  0  0  0  0  0  0  0  0
    2.6071   -0.4713   -8.6124 C   0  0  0  0  0  0  0  0  0  0  0  0
    1.2060   -0.4985   -8.5483 C   0  0  0  0  0  0  0  0  0  0  0  0
    0.4920   -1.5964   -9.0353 C   0  0  0  0  0  0  0  0  0  0  0  0
    1.1728   -2.6876   -9.5838 C   0  0  0  0  0  0  0  0  0  0  0  0
    2.5695   -2.6713   -9.6427 C   0  0  0  0  0  0  0  0  0  0  0  0
    3.2835   -1.5695   -9.1630 C   0  0  0  0  0  0  0  0  0  0  0  0
    3.7116   -0.7595   -3.3433 C   0  0  0  0  0  0  0  0  0  0  0  0
    3.3642   -1.0047   -2.0127 C   0  0  0  0  0  0  0  0  0  0  0  0
    2.7535   -2.1372   -1.5765 O   0  0  0  0  0  0  0  0  0  0  0  0
    2.3120   -3.1071   -2.5023 C   0  0  0  0  0  0  0  0  0  0  0  0
    1.4986   -4.1610   -1.7809 C   0  0  0  0  0  0  0  0  0  0  0  0
    0.8857   -3.8790   -0.5265 C   0  0  0  0  0  0  0  0  0  0  0  0
    0.1212   -4.8580    0.0659 C   0  0  0  0  0  0  0  0  0  0  0  0
   -0.0416   -6.1133   -0.5791 C   0  0  0  0  0  0  0  0  0  0  0  0
   -0.8125   -7.1800   -0.0408 C   0  0  0  0  0  0  0  0  0  0  0  0
   -0.9269   -8.3738   -0.7223 C   0  0  0  0  0  0  0  0  0  0  0  0
   -0.2743   -8.5513   -1.9701 C   0  0  0  0  0  0  0  0  0  0  0  0
    0.4814   -7.5359   -2.5177 C   0  0  0  0  0  0  0  0  0  0  0  0
    0.6182   -6.2920   -1.8402 C   0  0  0  0  0  0  0  0  0  0  0  0
    1.3740   -5.3119   -2.4061 N   0  0  0  0  0  0  0  0  0  0  0  0
    3.6625   -1.1590    2.0444 H   0  0  0  0  0  0  0  0  0  0  0  0
    5.1222   -0.8169    1.0606 H   0  0  0  0  0  0  0  0  0  0  0  0
    4.0200   -2.1614    0.6012 H   0  0  0  0  0  0  0  0  0  0  0  0
    4.4443    1.9058   -0.6315 H   0  0  0  0  0  0  0  0  0  0  0  0
    5.0653    2.3616   -3.0266 H   0  0  0  0  0  0  0  0  0  0  0  0
    4.4189   -0.1465   -5.7000 H   0  0  0  0  0  0  0  0  0  0  0  0
    5.1760    2.4053   -7.7026 H   0  0  0  0  0  0  0  0  0  0  0  0
    7.2164    0.1995   -7.0317 H   0  0  0  0  0  0  0  0  0  0  0  0
    7.5538    1.9552   -7.0752 H   0  0  0  0  0  0  0  0  0  0  0  0
    7.0993    1.0878   -8.5774 H   0  0  0  0  0  0  0  0  0  0  0  0
    3.4272    1.4984   -8.9422 H   0  0  0  0  0  0  0  0  0  0  0  0
    2.8040    1.2259   -7.3000 H   0  0  0  0  0  0  0  0  0  0  0  0
    0.6667    0.3471   -8.1104 H   0  0  0  0  0  0  0  0  0  0  0  0
   -0.5995   -1.6030   -8.9779 H   0  0  0  0  0  0  0  0  0  0  0  0
    0.6162   -3.5500   -9.9594 H   0  0  0  0  0  0  0  0  0  0  0  0
    3.1087   -3.5231  -10.0655 H   0  0  0  0  0  0  0  0  0  0  0  0
    4.3740   -1.5562   -9.2026 H   0  0  0  0  0  0  0  0  0  0  0  0
    3.5079   -1.5067   -4.1116 H   0  0  0  0  0  0  0  0  0  0  0  0
    3.1570   -3.5995   -3.0153 H   0  0  0  0  0  0  0  0  0  0  0  0
    1.6820   -2.6360   -3.2825 H   0  0  0  0  0  0  0  0  0  0  0  0
    1.0380   -2.9031   -0.0649 H   0  0  0  0  0  0  0  0  0  0  0  0
   -0.3652   -4.6815    1.0297 H   0  0  0  0  0  0  0  0  0  0  0  0
   -1.3130   -7.0378    0.9212 H   0  0  0  0  0  0  0  0  0  0  0  0
   -1.5214   -9.1893   -0.3032 H   0  0  0  0  0  0  0  0  0  0  0  0
   -0.3742   -9.5032   -2.4981 H   0  0  0  0  0  0  0  0  0  0  0  0
    0.9933   -7.6486   -3.4754 H   0  0  0  0  0  0  0  0  0  0  0  0
  1  2  1  0
  1 34  1  0
  1 35  1  0
  1 36  1  0
  2  3  1  0
  3  4  2  0
  3 21  1  0
  4  5  1  0
  4 37  1  0
  5  6  2  0
  5 38  1  0
  6  7  1  0
  6 20  1  0
  7  8  1  0
  7 39  1  0
  8  9  2  0
  8 10  1  0
 10 11  1  0
 10 12  1  0
 10 40  1  6
 11 41  1  0
 11 42  1  0
 11 43  1  0
 12 13  1  0
 13 14  1  0
 13 44  1  0
 13 45  1  0
 14 15  2  0
 14 19  1  0
 15 16  1  0
 15 46  1  0
 16 17  2  0
 16 47  1  0
 17 18  1  0
 17 48  1  0
 18 19  2  0
 18 49  1  0
 19 50  1  0
 20 21  2  0
 20 51  1  0
 21 22  1  0
 22 23  1  0
 23 24  1  0
 23 52  1  0
 23 53  1  0
 24 25  2  0
 24 33  1  0
 25 26  1  0
 25 54  1  0
 26 27  2  0
 26 55  1  0
 27 28  1  0
 27 32  1  0
 28 29  2  0
 28 56  1  0
 29 30  1  0
 29 57  1  0
 30 31  2  0
 30 58  1  0
 31 32  1  0
 31 59  1  0
 32 33  2  0
M  END

