
     RDKit          3D

 38 39  0  0  0  0  0  0  0  0999 V2000
    5.4168    1.5553    1.1112 C   0  0  0  0  0  0  0  0  0  0  0  0
    4.5326    1.4969   -0.1392 C   0  0  1  0  0  0  0  0  0  0  0  0
    4.4470    2.8532   -0.8505 C   0  0  0  0  0  0  0  0  0  0  0  0
    4.9939    0.4565   -1.0480 N   0  0  0  0  0  0  0  0  0  0  0  0
    4.2084   -0.5558   -1.5027 C   0  0  0  0  0  0  0  0  0  0  0  0
    3.0390   -0.7237   -1.1960 O   0  0  0  0  0  0  0  0  0  0  0  0
    4.9094   -1.4889   -2.5003 C   0  0  0  0  0  0  0  0  0  0  0  0
    6.3612   -1.4370   -2.4302 N   0  0  0  0  0  0  0  0  0  0  0  0
    7.0610   -2.0159   -3.5719 C   0  0  0  0  0  0  0  0  0  0  0  0
    8.5770   -1.8879   -3.4430 C   0  0  2  0  0  0  0  0  0  0  0  0
    9.3649   -2.4272   -4.6786 C   0  0  0  0  0  0  0  0  0  0  0  0
   10.4108   -3.4030   -4.0407 C   0  0  2  0  0  0  0  0  0  0  0  0
    9.6172   -4.5862   -3.5059 C   0  0  0  0  0  0  0  0  0  0  0  0
    8.9208   -4.1563   -2.4409 C   0  0  0  0  0  0  0  0  0  0  0  0
    9.2448   -2.6805   -2.2535 C   0  0  1  0  0  0  0  0  0  0  0  0
   10.7190   -2.6621   -2.7196 C   0  0  0  0  0  0  0  0  0  0  0  0
    5.0470    2.3142    1.8189 H   0  0  0  0  0  0  0  0  0  0  0  0
    6.4561    1.8219    0.8509 H   0  0  0  0  0  0  0  0  0  0  0  0
    5.4329    0.5831    1.6274 H   0  0  0  0  0  0  0  0  0  0  0  0
    3.5169    1.1871    0.1516 H   0  0  0  0  0  0  0  0  0  0  0  0
    5.4412    3.1810   -1.2008 H   0  0  0  0  0  0  0  0  0  0  0  0
    4.0582    3.6295   -0.1721 H   0  0  0  0  0  0  0  0  0  0  0  0
    3.7793    2.7950   -1.7236 H   0  0  0  0  0  0  0  0  0  0  0  0
    5.9442    0.4698   -1.4140 H   0  0  0  0  0  0  0  0  0  0  0  0
    4.5943   -1.1615   -3.5071 H   0  0  0  0  0  0  0  0  0  0  0  0
    4.4685   -2.4954   -2.3562 H   0  0  0  0  0  0  0  0  0  0  0  0
    6.6750   -1.8873   -1.5705 H   0  0  0  0  0  0  0  0  0  0  0  0
    6.7348   -1.4723   -4.4766 H   0  0  0  0  0  0  0  0  0  0  0  0
    6.7953   -3.0820   -3.7431 H   0  0  0  0  0  0  0  0  0  0  0  0
    8.8027   -0.8192   -3.2927 H   0  0  0  0  0  0  0  0  0  0  0  0
    9.8687   -1.6102   -5.2186 H   0  0  0  0  0  0  0  0  0  0  0  0
    8.7144   -2.9457   -5.4002 H   0  0  0  0  0  0  0  0  0  0  0  0
   11.2605   -3.6456   -4.6939 H   0  0  0  0  0  0  0  0  0  0  0  0
    9.5556   -5.5667   -3.9833 H   0  0  0  0  0  0  0  0  0  0  0  0
    8.1791   -4.7194   -1.8702 H   0  0  0  0  0  0  0  0  0  0  0  0
    9.0378   -2.2577   -1.2597 H   0  0  0  0  0  0  0  0  0  0  0  0
   11.3857   -3.2291   -2.0529 H   0  0  0  0  0  0  0  0  0  0  0  0
   11.1205   -1.6458   -2.8669 H   0  0  0  0  0  0  0  0  0  0  0  0
  1  2  1  0
  1 17  1  0
  1 18  1  0
  1 19  1  0
  2  3  1  0
  2  4  1  0
  2 20  1  1
  3 21  1  0
  3 22  1  0
  3 23  1  0
  4  5  1  0
  4 24  1  0
  5  6  2  0
  5  7  1  0
  7  8  1  0
  7 25  1  0
  7 26  1  0
  8  9  1  0
  8 27  1  0
  9 10  1  0
  9 28  1  0
  9 29  1  0
 10 11  1  0
 10 15  1  0
 10 30  1  1
 11 12  1  0
 11 31  1  0
 11 32  1  0
 12 13  1  0
 12 16  1  0
 12 33  1  6
 13 14  2  0
 13 34  1  0
 14 15  1  0
 14 35  1  0
 15 16  1  0
 15 36  1  1
 16 37  1  0
 16 38  1  0
M  END

