
     RDKit          3D

 20 19  0  0  0  0  0  0  0  0999 V2000
    2.5446    2.4332    0.9859 C   0  0  0  0  0  0  0  0  0  0  0  0
    2.3663    1.3430    2.0575 C   0  0  1  0  0  0  0  0  0  0  0  0
    2.8659    1.8648    3.4189 C   0  0  0  0  0  0  0  0  0  0  0  0
    0.8626    1.0075    2.2088 C   0  0  0  0  0  0  0  0  0  0  0  0
    3.1227    0.0274    1.6887 C   0  0  2  0  0  0  0  0  0  0  0  0
    2.9729   -0.6983    2.4995 H   0  0  0  0  0  0  0  0  0  0  0  0
    5.1056    0.2736    1.6670 Br  0  0  0  0  0  0  0  0  0  0  0  0
    2.7059   -0.5958    0.3643 C   0  0  0  0  0  0  0  0  0  0  0  0
    3.2966   -2.4579    0.1501 Br  0  0  0  0  0  0  0  0  0  0  0  0
    2.0197    3.3522    1.2912 H   0  0  0  0  0  0  0  0  0  0  0  0
    2.1293    2.1281    0.0121 H   0  0  0  0  0  0  0  0  0  0  0  0
    3.6071    2.6804    0.8425 H   0  0  0  0  0  0  0  0  0  0  0  0
    2.2742    2.7424    3.7236 H   0  0  0  0  0  0  0  0  0  0  0  0
    3.9228    2.1613    3.3780 H   0  0  0  0  0  0  0  0  0  0  0  0
    2.7590    1.0983    4.2040 H   0  0  0  0  0  0  0  0  0  0  0  0
    0.3262    1.8876    2.5962 H   0  0  0  0  0  0  0  0  0  0  0  0
    0.7006    0.1812    2.9203 H   0  0  0  0  0  0  0  0  0  0  0  0
    0.3880    0.7358    1.2539 H   0  0  0  0  0  0  0  0  0  0  0  0
    3.1058   -0.0489   -0.4971 H   0  0  0  0  0  0  0  0  0  0  0  0
    1.6133   -0.6430    0.2896 H   0  0  0  0  0  0  0  0  0  0  0  0
  2  1  1  6
  1 10  1  0
  1 11  1  0
  1 12  1  0
  2  3  1  0
  2  4  1  0
  2  5  1  0
  3 13  1  0
  3 14  1  0
  3 15  1  0
  4 16  1  0
  4 17  1  0
  4 18  1  0
  5  6  1  1
  5  7  1  0
  5  8  1  0
  8  9  1  0
  8 19  1  0
  8 20  1  0
M  END

