
     RDKit          3D

 47 51  0  0  0  0  0  0  0  0999 V2000
    0.9773   -0.2174    0.4314 O   0  0  0  0  0  0  0  0  0  0  0  0
    2.1804   -0.2079    0.2758 C   0  0  0  0  0  0  0  0  0  0  0  0
    3.0668   -1.3791    0.3136 C   0  0  0  0  0  0  0  0  0  0  0  0
    2.5323   -2.6629    0.5237 C   0  0  0  0  0  0  0  0  0  0  0  0
    3.3748   -3.7672    0.5459 C   0  0  0  0  0  0  0  0  0  0  0  0
    4.7607   -3.5991    0.3552 C   0  0  0  0  0  0  0  0  0  0  0  0
    5.3050   -2.3376    0.1498 C   0  0  0  0  0  0  0  0  0  0  0  0
    4.4596   -1.2085    0.1320 C   0  0  0  0  0  0  0  0  0  0  0  0
    5.0103    0.0435   -0.0681 N   0  0  0  0  0  0  0  0  0  0  0  0
    4.2422    1.0708   -0.1135 C   0  0  0  0  0  0  0  0  0  0  0  0
    4.9351    2.6998   -0.3633 S   0  0  0  0  0  0  0  0  0  0  0  0
    6.7141    2.2772   -0.3308 C   0  0  0  0  0  0  0  0  0  0  0  0
    7.2244    1.6564   -1.6376 C   0  0  0  0  0  0  0  0  0  0  0  0
    8.6444    1.3555   -1.5835 N   0  0  0  0  0  0  0  0  0  0  0  0
    9.1399    0.0929   -1.2768 C   0  0  0  0  0  0  0  0  0  0  0  0
    8.5362   -0.9164   -1.0424 O   0  0  0  0  0  0  0  0  0  0  0  0
   10.5208    0.1833   -1.2886 O   0  0  0  0  0  0  0  0  0  0  0  0
   10.8703    1.4727   -1.5926 C   0  0  0  0  0  0  0  0  0  0  0  0
   12.1406    2.0073   -1.7177 C   0  0  0  0  0  0  0  0  0  0  0  0
   12.2223    3.3714   -2.0464 C   0  0  0  0  0  0  0  0  0  0  0  0
   11.0685    4.1416   -2.2373 C   0  0  0  0  0  0  0  0  0  0  0  0
    9.7849    3.5859   -2.1075 C   0  0  0  0  0  0  0  0  0  0  0  0
    9.7079    2.2348   -1.7799 C   0  0  0  0  0  0  0  0  0  0  0  0
    2.8601    1.0231    0.0164 N   0  0  0  0  0  0  0  0  0  0  0  0
    2.0651    2.2137   -0.0142 C   0  0  0  0  0  0  0  0  0  0  0  0
    1.5887    2.7496   -1.2145 C   0  0  0  0  0  0  0  0  0  0  0  0
    0.7997    3.8999   -1.2204 C   0  0  0  0  0  0  0  0  0  0  0  0
    0.4825    4.4981   -0.0016 C   0  0  0  0  0  0  0  0  0  0  0  0
   -0.2744    5.5988    0.0068 F   0  0  0  0  0  0  0  0  0  0  0  0
    0.9290    3.9857    1.2154 C   0  0  0  0  0  0  0  0  0  0  0  0
    1.7170    2.8405    1.1897 C   0  0  0  0  0  0  0  0  0  0  0  0
    2.1585    2.3248    2.3356 F   0  0  0  0  0  0  0  0  0  0  0  0
    1.4538   -2.7594    0.6638 H   0  0  0  0  0  0  0  0  0  0  0  0
    2.9640   -4.7665    0.7075 H   0  0  0  0  0  0  0  0  0  0  0  0
    5.4174   -4.4730    0.3674 H   0  0  0  0  0  0  0  0  0  0  0  0
    6.3742   -2.1826   -0.0112 H   0  0  0  0  0  0  0  0  0  0  0  0
    6.8819    1.5862    0.5063 H   0  0  0  0  0  0  0  0  0  0  0  0
    7.2154    3.2332   -0.1146 H   0  0  0  0  0  0  0  0  0  0  0  0
    7.0359    2.3290   -2.4893 H   0  0  0  0  0  0  0  0  0  0  0  0
    6.6995    0.7087   -1.8112 H   0  0  0  0  0  0  0  0  0  0  0  0
   13.0284    1.3912   -1.5678 H   0  0  0  0  0  0  0  0  0  0  0  0
   13.2047    3.8363   -2.1547 H   0  0  0  0  0  0  0  0  0  0  0  0
   11.1653    5.1993   -2.4928 H   0  0  0  0  0  0  0  0  0  0  0  0
    8.8903    4.1926   -2.2586 H   0  0  0  0  0  0  0  0  0  0  0  0
    1.8452    2.2520   -2.1514 H   0  0  0  0  0  0  0  0  0  0  0  0
    0.4224    4.3329   -2.1477 H   0  0  0  0  0  0  0  0  0  0  0  0
    0.6675    4.4626    2.1603 H   0  0  0  0  0  0  0  0  0  0  0  0
  1  2  2  0
  2  3  1  0
  2 24  1  0
  3  4  2  0
  3  8  1  0
  4  5  1  0
  4 33  1  0
  5  6  2  0
  5 34  1  0
  6  7  1  0
  6 35  1  0
  7  8  2  0
  7 36  1  0
  8  9  1  0
  9 10  2  0
 10 11  1  0
 10 24  1  0
 11 12  1  0
 12 13  1  0
 12 37  1  0
 12 38  1  0
 13 14  1  0
 13 39  1  0
 13 40  1  0
 14 15  1  0
 14 23  1  0
 15 16  2  0
 15 17  1  0
 17 18  1  0
 18 19  1  0
 18 23  2  0
 19 20  2  0
 19 41  1  0
 20 21  1  0
 20 42  1  0
 21 22  2  0
 21 43  1  0
 22 23  1  0
 22 44  1  0
 24 25  1  0
 25 26  2  0
 25 31  1  0
 26 27  1  0
 26 45  1  0
 27 28  2  0
 27 46  1  0
 28 29  1  0
 28 30  1  0
 30 31  2  0
 30 47  1  0
 31 32  1  0
M  END

