
     RDKit          3D

 75 84  0  0  0  0  0  0  0  0999 V2000
    1.2055   -1.0551    0.5347 O   0  0  0  0  0  0  0  0  0  0  0  0
    2.4446   -0.2183    0.3895 P   0  0  2  0  0  0  0  0  0  0  0  0
    3.4990   -0.3042    1.8827 C   0  0  0  0  0  0  0  0  0  0  0  0
    4.7168    0.3839    2.0076 C   0  0  0  0  0  0  0  0  0  0  0  0
    5.4658    0.2679    3.1800 C   0  0  0  0  0  0  0  0  0  0  0  0
    5.0036   -0.5337    4.2310 C   0  0  0  0  0  0  0  0  0  0  0  0
    3.7919   -1.2194    4.1088 C   0  0  0  0  0  0  0  0  0  0  0  0
    3.0379   -1.1066    2.9364 C   0  0  0  0  0  0  0  0  0  0  0  0
    2.2585    1.5509   -0.0541 C   0  0  0  0  0  0  0  0  0  0  0  0
    1.4969    2.5234    0.5910 C   0  0  0  0  0  0  0  0  0  0  0  0
    1.4611    3.8226    0.0728 C   0  0  0  0  0  0  0  0  0  0  0  0
    2.1872    4.1419   -1.0862 C   0  0  0  0  0  0  0  0  0  0  0  0
    2.1672    5.4678   -1.6350 N   0  0  0  0  0  0  0  0  0  0  0  0
    1.1002    5.8212   -2.5020 C   0  0  0  0  0  0  0  0  0  0  0  0
   -0.0811    5.0603   -2.5648 C   0  0  0  0  0  0  0  0  0  0  0  0
   -1.1239    5.4162   -3.4249 C   0  0  0  0  0  0  0  0  0  0  0  0
   -1.0263    6.5551   -4.2238 C   0  0  0  0  0  0  0  0  0  0  0  0
    0.1376    7.3263   -4.1667 C   0  0  0  0  0  0  0  0  0  0  0  0
    1.2006    6.9552   -3.3378 C   0  0  0  0  0  0  0  0  0  0  0  0
    2.7297    7.8548   -3.4502 S   0  0  0  0  0  0  0  0  0  0  0  0
    3.3204    7.6334   -1.7884 C   0  0  0  0  0  0  0  0  0  0  0  0
    4.1523    8.6106   -1.2335 C   0  0  0  0  0  0  0  0  0  0  0  0
    4.7652    8.4078    0.0058 C   0  0  0  0  0  0  0  0  0  0  0  0
    4.5199    7.2210    0.6958 C   0  0  0  0  0  0  0  0  0  0  0  0
    3.6587    6.2560    0.1657 C   0  0  0  0  0  0  0  0  0  0  0  0
    3.0401    6.4412   -1.0841 C   0  0  0  0  0  0  0  0  0  0  0  0
    2.9452    3.1594   -1.7375 C   0  0  0  0  0  0  0  0  0  0  0  0
    2.9792    1.8571   -1.2280 C   0  0  0  0  0  0  0  0  0  0  0  0
    3.6982    0.6923   -1.8034 C   0  0  0  0  0  0  0  0  0  0  0  0
    4.4779    0.6754   -2.9646 C   0  0  0  0  0  0  0  0  0  0  0  0
    5.0661   -0.5231   -3.3906 C   0  0  0  0  0  0  0  0  0  0  0  0
    5.8560   -0.5110   -4.5886 N   0  0  0  0  0  0  0  0  0  0  0  0
    7.2658   -0.4065   -4.4681 C   0  0  0  0  0  0  0  0  0  0  0  0
    7.9231   -0.6512   -3.2486 C   0  0  0  0  0  0  0  0  0  0  0  0
    9.3125   -0.5414   -3.1419 C   0  0  0  0  0  0  0  0  0  0  0  0
   10.0850   -0.2110   -4.2549 C   0  0  0  0  0  0  0  0  0  0  0  0
    9.4480    0.0278   -5.4755 C   0  0  0  0  0  0  0  0  0  0  0  0
    8.0556   -0.0421   -5.5813 C   0  0  0  0  0  0  0  0  0  0  0  0
    7.2863    0.4658   -7.1010 S   0  0  0  0  0  0  0  0  0  0  0  0
    5.8326   -0.5559   -7.0471 C   0  0  0  0  0  0  0  0  0  0  0  0
    5.2381   -0.9461   -8.2509 C   0  0  0  0  0  0  0  0  0  0  0  0
    4.0124   -1.6170   -8.2576 C   0  0  0  0  0  0  0  0  0  0  0  0
    3.3955   -1.9124   -7.0422 C   0  0  0  0  0  0  0  0  0  0  0  0
    4.0024   -1.5601   -5.8334 C   0  0  0  0  0  0  0  0  0  0  0  0
    5.2318   -0.8769   -5.8100 C   0  0  0  0  0  0  0  0  0  0  0  0
    4.8735   -1.7055   -2.6575 C   0  0  0  0  0  0  0  0  0  0  0  0
    4.1003   -1.6934   -1.4915 C   0  0  0  0  0  0  0  0  0  0  0  0
    3.5237   -0.4981   -1.0660 C   0  0  0  0  0  0  0  0  0  0  0  0
    5.0836    1.0117    1.1908 H   0  0  0  0  0  0  0  0  0  0  0  0
    6.4135    0.8040    3.2759 H   0  0  0  0  0  0  0  0  0  0  0  0
    5.5922   -0.6227    5.1478 H   0  0  0  0  0  0  0  0  0  0  0  0
    3.4309   -1.8453    4.9290 H   0  0  0  0  0  0  0  0  0  0  0  0
    2.0880   -1.6335    2.8183 H   0  0  0  0  0  0  0  0  0  0  0  0
    0.9275    2.2756    1.4906 H   0  0  0  0  0  0  0  0  0  0  0  0
    0.8677    4.5980    0.5618 H   0  0  0  0  0  0  0  0  0  0  0  0
   -0.1868    4.1717   -1.9437 H   0  0  0  0  0  0  0  0  0  0  0  0
   -2.0219    4.7945   -3.4565 H   0  0  0  0  0  0  0  0  0  0  0  0
   -1.8429    6.8433   -4.8893 H   0  0  0  0  0  0  0  0  0  0  0  0
    0.2404    8.2205   -4.7865 H   0  0  0  0  0  0  0  0  0  0  0  0
    4.3324    9.5299   -1.7964 H   0  0  0  0  0  0  0  0  0  0  0  0
    5.4283    9.1699    0.4209 H   0  0  0  0  0  0  0  0  0  0  0  0
    4.9913    7.0379    1.6645 H   0  0  0  0  0  0  0  0  0  0  0  0
    3.4750    5.3427    0.7301 H   0  0  0  0  0  0  0  0  0  0  0  0
    3.4927    3.4359   -2.6405 H   0  0  0  0  0  0  0  0  0  0  0  0
    4.6397    1.5764   -3.5594 H   0  0  0  0  0  0  0  0  0  0  0  0
    7.3439   -0.9217   -2.3667 H   0  0  0  0  0  0  0  0  0  0  0  0
    9.7876   -0.7279   -2.1757 H   0  0  0  0  0  0  0  0  0  0  0  0
   11.1719   -0.1351   -4.1794 H   0  0  0  0  0  0  0  0  0  0  0  0
   10.0304    0.2934   -6.3613 H   0  0  0  0  0  0  0  0  0  0  0  0
    5.7392   -0.6988   -9.1901 H   0  0  0  0  0  0  0  0  0  0  0  0
    3.5473   -1.8999   -9.2044 H   0  0  0  0  0  0  0  0  0  0  0  0
    2.4342   -2.4315   -7.0223 H   0  0  0  0  0  0  0  0  0  0  0  0
    3.5045   -1.8118   -4.8979 H   0  0  0  0  0  0  0  0  0  0  0  0
    5.3311   -2.6325   -3.0094 H   0  0  0  0  0  0  0  0  0  0  0  0
    3.9476   -2.6154   -0.9246 H   0  0  0  0  0  0  0  0  0  0  0  0
  1  2  2  0
  2  3  1  1
  2  9  1  0
  2 48  1  0
  3  4  2  0
  3  8  1  0
  4  5  1  0
  4 49  1  0
  5  6  2  0
  5 50  1  0
  6  7  1  0
  6 51  1  0
  7  8  2  0
  7 52  1  0
  8 53  1  0
  9 10  2  0
  9 28  1  0
 10 11  1  0
 10 54  1  0
 11 12  2  0
 11 55  1  0
 12 13  1  0
 12 27  1  0
 13 14  1  0
 13 26  1  0
 14 15  2  0
 14 19  1  0
 15 16  1  0
 15 56  1  0
 16 17  2  0
 16 57  1  0
 17 18  1  0
 17 58  1  0
 18 19  2  0
 18 59  1  0
 19 20  1  0
 20 21  1  0
 21 22  2  0
 21 26  1  0
 22 23  1  0
 22 60  1  0
 23 24  2  0
 23 61  1  0
 24 25  1  0
 24 62  1  0
 25 26  2  0
 25 63  1  0
 27 28  2  0
 27 64  1  0
 28 29  1  0
 29 30  2  0
 29 48  1  0
 30 31  1  0
 30 65  1  0
 31 32  1  0
 31 46  2  0
 32 33  1  0
 32 45  1  0
 33 34  2  0
 33 38  1  0
 34 35  1  0
 34 66  1  0
 35 36  2  0
 35 67  1  0
 36 37  1  0
 36 68  1  0
 37 38  2  0
 37 69  1  0
 38 39  1  0
 39 40  1  0
 40 41  2  0
 40 45  1  0
 41 42  1  0
 41 70  1  0
 42 43  2  0
 42 71  1  0
 43 44  1  0
 43 72  1  0
 44 45  2  0
 44 73  1  0
 46 47  1  0
 46 74  1  0
 47 48  2  0
 47 75  1  0
M  END

