
     RDKit          3D

 47 49  0  0  0  0  0  0  0  0999 V2000
    0.9713   -0.3185   -0.3770 O   0  0  0  0  0  0  0  0  0  0  0  0
    2.0448   -0.0145    0.1262 C   0  0  0  0  0  0  0  0  0  0  0  0
    2.7123    1.1435   -0.2292 N   0  0  0  0  0  0  0  0  0  0  0  0
    2.1172    2.0582   -1.1915 C   0  0  0  0  0  0  0  0  0  0  0  0
    1.0220    2.9598   -0.6041 C   0  0  1  0  0  0  0  0  0  0  0  0
    1.4934    3.9171    0.4998 C   0  0  0  0  0  0  0  0  0  0  0  0
    0.5044    5.0844    0.5534 C   0  0  0  0  0  0  0  0  0  0  0  0
    0.3235    5.5668   -0.8883 C   0  0  0  0  0  0  0  0  0  0  0  0
    0.3035    4.0461   -1.9362 S   0  0  0  0  0  0  0  0  0  0  0  0
    2.6731   -0.8192    1.0666 N   0  0  0  0  0  0  0  0  0  0  0  0
    1.9181   -1.9151    1.6664 C   0  0  0  0  0  0  0  0  0  0  0  0
    2.6874   -3.2327    1.5564 C   0  0  0  0  0  0  0  0  0  0  0  0
    4.0621   -3.1033    2.0617 N   0  0  0  0  0  0  0  0  0  0  0  0
    4.3267   -3.4501    3.6956 S   0  0  1  0  0  0  0  0  0  0  0  0
    5.6308   -2.8691    4.0293 O   0  0  0  0  0  0  0  0  0  0  0  0
    3.1323   -3.1263    4.4874 O   0  0  0  0  0  0  0  0  0  0  0  0
    4.4862   -5.2372    3.7048 C   0  0  0  0  0  0  0  0  0  0  0  0
    5.6250   -5.8264    3.1418 C   0  0  0  0  0  0  0  0  0  0  0  0
    5.7651   -7.2118    3.1745 C   0  0  0  0  0  0  0  0  0  0  0  0
    4.7645   -7.9783    3.7776 C   0  0  0  0  0  0  0  0  0  0  0  0
    4.9008   -9.3069    3.8082 F   0  0  0  0  0  0  0  0  0  0  0  0
    3.6342   -7.3997    4.3513 C   0  0  0  0  0  0  0  0  0  0  0  0
    3.4964   -6.0101    4.3173 C   0  0  0  0  0  0  0  0  0  0  0  0
    4.8004   -1.9908    1.4602 C   0  0  0  0  0  0  0  0  0  0  0  0
    4.0343   -0.6625    1.5566 C   0  0  0  0  0  0  0  0  0  0  0  0
    3.3797    1.5366    0.4219 H   0  0  0  0  0  0  0  0  0  0  0  0
    1.6914    1.4526   -2.0032 H   0  0  0  0  0  0  0  0  0  0  0  0
    2.9156    2.6841   -1.6228 H   0  0  0  0  0  0  0  0  0  0  0  0
    0.2137    2.3127   -0.2307 H   0  0  0  0  0  0  0  0  0  0  0  0
    2.4999    4.3010    0.2496 H   0  0  0  0  0  0  0  0  0  0  0  0
    1.5687    3.3978    1.4694 H   0  0  0  0  0  0  0  0  0  0  0  0
    0.8560    5.8986    1.2089 H   0  0  0  0  0  0  0  0  0  0  0  0
   -0.4620    4.7331    0.9520 H   0  0  0  0  0  0  0  0  0  0  0  0
    1.1551    6.2182   -1.2012 H   0  0  0  0  0  0  0  0  0  0  0  0
   -0.6174    6.1160   -1.0395 H   0  0  0  0  0  0  0  0  0  0  0  0
    0.9567   -1.9807    1.1421 H   0  0  0  0  0  0  0  0  0  0  0  0
    1.7336   -1.7043    2.7356 H   0  0  0  0  0  0  0  0  0  0  0  0
    2.7544   -3.5464    0.5004 H   0  0  0  0  0  0  0  0  0  0  0  0
    2.1661   -4.0280    2.1076 H   0  0  0  0  0  0  0  0  0  0  0  0
    6.3977   -5.2029    2.6886 H   0  0  0  0  0  0  0  0  0  0  0  0
    6.6372   -7.7103    2.7476 H   0  0  0  0  0  0  0  0  0  0  0  0
    2.8831   -8.0382    4.8198 H   0  0  0  0  0  0  0  0  0  0  0  0
    2.6340   -5.5181    4.7696 H   0  0  0  0  0  0  0  0  0  0  0  0
    4.9588   -2.2427    0.3969 H   0  0  0  0  0  0  0  0  0  0  0  0
    5.7792   -1.9054    1.9486 H   0  0  0  0  0  0  0  0  0  0  0  0
    4.5708    0.0812    0.9526 H   0  0  0  0  0  0  0  0  0  0  0  0
    4.0386   -0.3193    2.6103 H   0  0  0  0  0  0  0  0  0  0  0  0
  1  2  2  0
  2  3  1  0
  2 10  1  0
  3  4  1  0
  3 26  1  0
  4  5  1  0
  4 27  1  0
  4 28  1  0
  5  6  1  0
  5  9  1  0
  5 29  1  1
  6  7  1  0
  6 30  1  0
  6 31  1  0
  7  8  1  0
  7 32  1  0
  7 33  1  0
  8  9  1  0
  8 34  1  0
  8 35  1  0
 10 11  1  0
 10 25  1  0
 11 12  1  0
 11 36  1  0
 11 37  1  0
 12 13  1  0
 12 38  1  0
 12 39  1  0
 13 14  1  0
 13 24  1  0
 14 15  2  0
 14 16  2  0
 14 17  1  6
 17 18  2  0
 17 23  1  0
 18 19  1  0
 18 40  1  0
 19 20  2  0
 19 41  1  0
 20 21  1  0
 20 22  1  0
 22 23  2  0
 22 42  1  0
 23 43  1  0
 24 25  1  0
 24 44  1  0
 24 45  1  0
 25 46  1  0
 25 47  1  0
M  END

