
     RDKit          3D

 32 34  0  0  0  0  0  0  0  0999 V2000
    1.2729   -0.9997   -1.7930 C   0  0  0  0  0  0  0  0  0  0  0  0
    2.3497   -0.4062   -0.9394 C   0  0  0  0  0  0  0  0  0  0  0  0
    3.8072    0.2424   -1.6483 S   0  0  0  0  0  0  0  0  0  0  0  0
    4.4654    0.7121   -0.1037 C   0  0  0  0  0  0  0  0  0  0  0  0
    5.7776    1.4380   -0.0395 C   0  0  1  0  0  0  0  0  0  0  0  0
    5.6593    3.0047    0.1684 C   0  0  1  0  0  0  0  0  0  0  0  0
    4.5806    3.4751    1.0100 N   0  0  0  0  0  0  0  0  0  0  0  0
    7.0081    3.3220    0.8195 C   0  0  0  0  0  0  0  0  0  0  0  0
    7.3659    2.0684    1.6140 C   0  0  0  0  0  0  0  0  0  0  0  0
    8.1693    1.9852    2.5179 O   0  0  0  0  0  0  0  0  0  0  0  0
    6.6317    1.0233    1.0770 N   0  0  0  0  0  0  0  0  0  0  0  0
    6.8396   -0.3568    1.4147 C   0  0  1  0  0  0  0  0  0  0  0  0
    7.4250   -1.2936    0.3790 C   0  0  0  0  0  0  0  0  0  0  0  0
    8.2364   -0.8872    1.5782 C   0  0  0  0  0  0  0  0  0  0  0  0
    3.6001    0.3784    0.9086 C   0  0  0  0  0  0  0  0  0  0  0  0
    2.4118   -0.2541    0.4260 C   0  0  0  0  0  0  0  0  0  0  0  0
    1.0436   -0.8311    1.6135 Br  0  0  0  0  0  0  0  0  0  0  0  0
    1.6799   -1.7238   -2.5166 H   0  0  0  0  0  0  0  0  0  0  0  0
    0.7341   -0.2257   -2.3657 H   0  0  0  0  0  0  0  0  0  0  0  0
    0.5409   -1.5205   -1.1602 H   0  0  0  0  0  0  0  0  0  0  0  0
    6.3041    1.2676   -1.0001 H   0  0  0  0  0  0  0  0  0  0  0  0
    5.5491    3.4753   -0.8210 H   0  0  0  0  0  0  0  0  0  0  0  0
    4.6675    3.1235    1.9641 H   0  0  0  0  0  0  0  0  0  0  0  0
    3.6728    3.1691    0.6624 H   0  0  0  0  0  0  0  0  0  0  0  0
    6.9797    4.2134    1.4602 H   0  0  0  0  0  0  0  0  0  0  0  0
    7.7988    3.4729    0.0650 H   0  0  0  0  0  0  0  0  0  0  0  0
    6.0732   -0.7860    2.0703 H   0  0  0  0  0  0  0  0  0  0  0  0
    7.7021   -0.8664   -0.5891 H   0  0  0  0  0  0  0  0  0  0  0  0
    7.0174   -2.3066    0.3233 H   0  0  0  0  0  0  0  0  0  0  0  0
    9.0604   -0.1854    1.4410 H   0  0  0  0  0  0  0  0  0  0  0  0
    8.4002   -1.6152    2.3771 H   0  0  0  0  0  0  0  0  0  0  0  0
    3.7955    0.5588    1.9651 H   0  0  0  0  0  0  0  0  0  0  0  0
  1  2  1  0
  1 18  1  0
  1 19  1  0
  1 20  1  0
  2  3  1  0
  2 16  2  0
  3  4  1  0
  4  5  1  0
  4 15  2  0
  5  6  1  0
  5 11  1  0
  5 21  1  6
  6  7  1  0
  6  8  1  0
  6 22  1  6
  7 23  1  0
  7 24  1  0
  8  9  1  0
  8 25  1  0
  8 26  1  0
  9 10  2  0
  9 11  1  0
 11 12  1  0
 12 13  1  0
 12 14  1  0
 12 27  1  1
 13 14  1  0
 13 28  1  0
 13 29  1  0
 14 30  1  0
 14 31  1  0
 15 16  1  0
 15 32  1  0
 16 17  1  0
M  END

