
     RDKit          3D

 43 45  0  0  0  0  0  0  0  0999 V2000
    1.7431   -1.9274   -3.1657 C   0  0  0  0  0  0  0  0  0  0  0  0
    1.7190   -0.9652   -1.9772 C   0  0  0  0  0  0  0  0  0  0  0  0
    2.5169    0.2313   -2.1791 N   0  0  0  0  0  0  0  0  0  0  0  0
    1.9616    1.4428   -2.5954 C   0  0  0  0  0  0  0  0  0  0  0  0
    0.7878    1.6746   -2.8185 O   0  0  0  0  0  0  0  0  0  0  0  0
    3.0262    2.3389   -2.7047 N   0  0  0  0  0  0  0  0  0  0  0  0
    2.8240    3.7141   -3.1377 C   0  0  0  0  0  0  0  0  0  0  0  0
    2.3132    4.6571   -2.0425 C   0  0  0  0  0  0  0  0  0  0  0  0
    3.3023    4.9058   -0.9017 C   0  0  0  0  0  0  0  0  0  0  0  0
    2.8291    5.8904    0.0525 N   0  0  0  0  0  0  0  0  0  0  0  0
    1.6921    5.4960    0.8775 C   0  0  0  0  0  0  0  0  0  0  0  0
    1.5990    6.6105    1.9364 C   0  0  0  0  0  0  0  0  0  0  0  0
    3.0360    7.1973    2.0071 C   0  0  0  0  0  0  0  0  0  0  0  0
    3.8360    6.3565    0.9976 C   0  0  0  0  0  0  0  0  0  0  0  0
    4.2185    1.7018   -2.3752 C   0  0  0  0  0  0  0  0  0  0  0  0
    5.5368    2.1487   -2.3316 C   0  0  0  0  0  0  0  0  0  0  0  0
    6.5304    1.2317   -1.9531 C   0  0  0  0  0  0  0  0  0  0  0  0
    6.2089   -0.0906   -1.6263 C   0  0  0  0  0  0  0  0  0  0  0  0
    4.8812   -0.5449   -1.6694 C   0  0  0  0  0  0  0  0  0  0  0  0
    3.8944    0.3623   -2.0473 C   0  0  0  0  0  0  0  0  0  0  0  0
    1.1260   -2.8140   -2.9491 H   0  0  0  0  0  0  0  0  0  0  0  0
    2.7653   -2.2706   -3.3900 H   0  0  0  0  0  0  0  0  0  0  0  0
    1.3379   -1.4408   -4.0661 H   0  0  0  0  0  0  0  0  0  0  0  0
    2.0735   -1.4659   -1.0605 H   0  0  0  0  0  0  0  0  0  0  0  0
    0.6914   -0.6201   -1.7907 H   0  0  0  0  0  0  0  0  0  0  0  0
    2.0876    3.6890   -3.9552 H   0  0  0  0  0  0  0  0  0  0  0  0
    3.7750    4.0758   -3.5601 H   0  0  0  0  0  0  0  0  0  0  0  0
    1.3659    4.2462   -1.6583 H   0  0  0  0  0  0  0  0  0  0  0  0
    2.0688    5.6270   -2.5083 H   0  0  0  0  0  0  0  0  0  0  0  0
    4.2488    5.2833   -1.3284 H   0  0  0  0  0  0  0  0  0  0  0  0
    3.5529    3.9410   -0.3992 H   0  0  0  0  0  0  0  0  0  0  0  0
    1.8731    4.5097    1.3686 H   0  0  0  0  0  0  0  0  0  0  0  0
    0.7726    5.3961    0.2805 H   0  0  0  0  0  0  0  0  0  0  0  0
    1.2516    6.2175    2.9036 H   0  0  0  0  0  0  0  0  0  0  0  0
    0.8807    7.3826    1.6225 H   0  0  0  0  0  0  0  0  0  0  0  0
    3.4708    7.1410    3.0164 H   0  0  0  0  0  0  0  0  0  0  0  0
    3.0353    8.2568    1.7102 H   0  0  0  0  0  0  0  0  0  0  0  0
    4.3343    5.5031    1.5172 H   0  0  0  0  0  0  0  0  0  0  0  0
    4.6262    6.9270    0.4817 H   0  0  0  0  0  0  0  0  0  0  0  0
    5.7952    3.1800   -2.5779 H   0  0  0  0  0  0  0  0  0  0  0  0
    7.5713    1.5609   -1.9122 H   0  0  0  0  0  0  0  0  0  0  0  0
    7.0012   -0.7834   -1.3335 H   0  0  0  0  0  0  0  0  0  0  0  0
    4.6344   -1.5779   -1.4172 H   0  0  0  0  0  0  0  0  0  0  0  0
  1  2  1  0
  1 21  1  0
  1 22  1  0
  1 23  1  0
  2  3  1  0
  2 24  1  0
  2 25  1  0
  3  4  1  0
  3 20  1  0
  4  5  2  0
  4  6  1  0
  6  7  1  0
  6 15  1  0
  7  8  1  0
  7 26  1  0
  7 27  1  0
  8  9  1  0
  8 28  1  0
  8 29  1  0
  9 10  1  0
  9 30  1  0
  9 31  1  0
 10 11  1  0
 10 14  1  0
 11 12  1  0
 11 32  1  0
 11 33  1  0
 12 13  1  0
 12 34  1  0
 12 35  1  0
 13 14  1  0
 13 36  1  0
 13 37  1  0
 14 38  1  0
 14 39  1  0
 15 16  1  0
 15 20  2  0
 16 17  2  0
 16 40  1  0
 17 18  1  0
 17 41  1  0
 18 19  2  0
 18 42  1  0
 19 20  1  0
 19 43  1  0
M  END

