
     RDKit          3D

 43 44  0  0  0  0  0  0  0  0999 V2000
    2.6090    0.6141   -1.2567 C   0  0  0  0  0  0  0  0  0  0  0  0
    2.2736    0.0259    0.1210 C   0  0  1  0  0  0  0  0  0  0  0  0
    0.7558   -0.0730    0.3255 C   0  0  0  0  0  0  0  0  0  0  0  0
    2.9272   -1.3480    0.3584 C   0  0  0  0  0  0  0  0  0  0  0  0
    4.4682   -1.3900    0.2772 C   0  0  1  0  0  0  0  0  0  0  0  0
    4.7846   -1.0298   -0.7107 H   0  0  0  0  0  0  0  0  0  0  0  0
    5.0873   -0.4657    1.2229 N   0  0  0  0  0  0  0  0  0  0  0  0
    5.9005    0.5513    0.8366 C   0  0  0  0  0  0  0  0  0  0  0  0
    6.1280    0.8496   -0.3247 O   0  0  0  0  0  0  0  0  0  0  0  0
    6.5110    1.4092    1.9550 C   0  0  0  0  0  0  0  0  0  0  0  0
    6.4763    0.7760    3.6666 S   0  0  0  0  0  0  0  0  0  0  0  0
    7.7538   -0.4607    3.6075 C   0  0  0  0  0  0  0  0  0  0  0  0
    8.4270   -0.6511    2.4741 N   0  0  0  0  0  0  0  0  0  0  0  0
    9.3748   -1.5909    2.4939 C   0  0  0  0  0  0  0  0  0  0  0  0
    9.6545   -2.3373    3.6391 C   0  0  0  0  0  0  0  0  0  0  0  0
    8.8823   -2.0462    4.7687 C   0  0  0  0  0  0  0  0  0  0  0  0
    7.9319   -1.1134    4.7612 N   0  0  0  0  0  0  0  0  0  0  0  0
    4.9989   -2.8103    0.4456 C   0  0  0  0  0  0  0  0  0  0  0  0
    5.5422   -3.4961   -0.6503 C   0  0  0  0  0  0  0  0  0  0  0  0
    6.0121   -4.8067   -0.5182 C   0  0  0  0  0  0  0  0  0  0  0  0
    5.9490   -5.4532    0.7188 C   0  0  0  0  0  0  0  0  0  0  0  0
    5.4116   -4.7802    1.8210 C   0  0  0  0  0  0  0  0  0  0  0  0
    4.9392   -3.4726    1.6830 C   0  0  0  0  0  0  0  0  0  0  0  0
    2.0792    1.5683   -1.4113 H   0  0  0  0  0  0  0  0  0  0  0  0
    2.2958   -0.0703   -2.0650 H   0  0  0  0  0  0  0  0  0  0  0  0
    3.6852    0.8135   -1.3716 H   0  0  0  0  0  0  0  0  0  0  0  0
    2.6701    0.7169    0.8874 H   0  0  0  0  0  0  0  0  0  0  0  0
    0.2988   -0.7479   -0.4189 H   0  0  0  0  0  0  0  0  0  0  0  0
    0.2740    0.9123    0.2187 H   0  0  0  0  0  0  0  0  0  0  0  0
    0.5039   -0.4630    1.3255 H   0  0  0  0  0  0  0  0  0  0  0  0
    2.5347   -2.0714   -0.3784 H   0  0  0  0  0  0  0  0  0  0  0  0
    2.6140   -1.7301    1.3472 H   0  0  0  0  0  0  0  0  0  0  0  0
    4.9904   -0.6319    2.2205 H   0  0  0  0  0  0  0  0  0  0  0  0
    5.9592    2.3621    1.9921 H   0  0  0  0  0  0  0  0  0  0  0  0
    7.5454    1.6274    1.6625 H   0  0  0  0  0  0  0  0  0  0  0  0
    9.9265   -1.7514    1.5605 H   0  0  0  0  0  0  0  0  0  0  0  0
   10.4290   -3.1056    3.6520 H   0  0  0  0  0  0  0  0  0  0  0  0
    9.0352   -2.5850    5.7116 H   0  0  0  0  0  0  0  0  0  0  0  0
    5.6021   -2.9939   -1.6200 H   0  0  0  0  0  0  0  0  0  0  0  0
    6.4327   -5.3222   -1.3857 H   0  0  0  0  0  0  0  0  0  0  0  0
    6.3169   -6.4769    0.8251 H   0  0  0  0  0  0  0  0  0  0  0  0
    5.3570   -5.2770    2.7933 H   0  0  0  0  0  0  0  0  0  0  0  0
    4.5185   -2.9672    2.5577 H   0  0  0  0  0  0  0  0  0  0  0  0
  1  2  1  0
  1 24  1  0
  1 25  1  0
  1 26  1  0
  2  3  1  0
  2  4  1  0
  2 27  1  1
  3 28  1  0
  3 29  1  0
  3 30  1  0
  4  5  1  0
  4 31  1  0
  4 32  1  0
  5  6  1  6
  5  7  1  0
  5 18  1  0
  7  8  1  0
  7 33  1  0
  8  9  2  0
  8 10  1  0
 10 11  1  0
 10 34  1  0
 10 35  1  0
 11 12  1  0
 12 13  2  0
 12 17  1  0
 13 14  1  0
 14 15  2  0
 14 36  1  0
 15 16  1  0
 15 37  1  0
 16 17  2  0
 16 38  1  0
 18 19  2  0
 18 23  1  0
 19 20  1  0
 19 39  1  0
 20 21  2  0
 20 40  1  0
 21 22  1  0
 21 41  1  0
 22 23  2  0
 22 42  1  0
 23 43  1  0
M  END

