
     RDKit          3D

 35 36  0  0  0  0  0  0  0  0999 V2000
    3.1044   -0.7780    0.9136 C   0  0  0  0  0  0  0  0  0  0  0  0
    2.6570   -0.1539   -0.3160 N   0  0  0  0  0  0  0  0  0  0  0  0
    1.2166   -0.0282   -0.3785 C   0  0  0  0  0  0  0  0  0  0  0  0
    3.3411    1.0976   -0.6104 C   0  0  0  0  0  0  0  0  0  0  0  0
    4.8152    0.9325   -0.8658 C   0  0  0  0  0  0  0  0  0  0  0  0
    5.6751    1.6676   -0.1756 N   0  0  0  0  0  0  0  0  0  0  0  0
    6.9059    1.2933   -0.6036 N   0  0  0  0  0  0  0  0  0  0  0  0
    8.0914    1.9153   -0.0632 C   0  0  0  0  0  0  0  0  0  0  0  0
    6.8428    0.3313   -1.5631 C   0  0  0  0  0  0  0  0  0  0  0  0
    7.9924   -0.2130   -2.1203 N   0  0  0  0  0  0  0  0  0  0  0  0
    5.4865    0.0453   -1.7714 C   0  0  0  0  0  0  0  0  0  0  0  0
    4.9440   -0.9392   -2.7210 C   0  0  0  0  0  0  0  0  0  0  0  0
    3.7935   -0.6742   -3.4917 C   0  0  0  0  0  0  0  0  0  0  0  0
    3.3117   -1.6093   -4.4058 C   0  0  0  0  0  0  0  0  0  0  0  0
    3.9586   -2.8360   -4.5922 C   0  0  0  0  0  0  0  0  0  0  0  0
    5.0960   -3.1049   -3.8305 C   0  0  0  0  0  0  0  0  0  0  0  0
    5.9252   -4.6382   -4.0260 Cl  0  0  0  0  0  0  0  0  0  0  0  0
    5.5849   -2.1824   -2.9017 C   0  0  0  0  0  0  0  0  0  0  0  0
    2.6419   -1.7725    1.0193 H   0  0  0  0  0  0  0  0  0  0  0  0
    2.8494   -0.1847    1.8231 H   0  0  0  0  0  0  0  0  0  0  0  0
    4.1959   -0.9122    0.8990 H   0  0  0  0  0  0  0  0  0  0  0  0
    0.7454   -1.0143   -0.2388 H   0  0  0  0  0  0  0  0  0  0  0  0
    0.9086    0.3544   -1.3652 H   0  0  0  0  0  0  0  0  0  0  0  0
    0.7956    0.6574    0.3950 H   0  0  0  0  0  0  0  0  0  0  0  0
    3.2357    1.8494    0.2041 H   0  0  0  0  0  0  0  0  0  0  0  0
    2.8574    1.5380   -1.4997 H   0  0  0  0  0  0  0  0  0  0  0  0
    7.8157    2.3831    0.8899 H   0  0  0  0  0  0  0  0  0  0  0  0
    8.4954    2.6955   -0.7332 H   0  0  0  0  0  0  0  0  0  0  0  0
    8.8704    1.1576    0.1147 H   0  0  0  0  0  0  0  0  0  0  0  0
    8.7192    0.4636   -2.3413 H   0  0  0  0  0  0  0  0  0  0  0  0
    7.8001   -0.8042   -2.9240 H   0  0  0  0  0  0  0  0  0  0  0  0
    3.2834    0.2833   -3.3815 H   0  0  0  0  0  0  0  0  0  0  0  0
    2.4192   -1.3810   -4.9943 H   0  0  0  0  0  0  0  0  0  0  0  0
    3.5907   -3.5707   -5.3097 H   0  0  0  0  0  0  0  0  0  0  0  0
    6.4473   -2.4545   -2.2908 H   0  0  0  0  0  0  0  0  0  0  0  0
  1  2  1  0
  1 19  1  0
  1 20  1  0
  1 21  1  0
  2  3  1  0
  2  4  1  0
  3 22  1  0
  3 23  1  0
  3 24  1  0
  4  5  1  0
  4 25  1  0
  4 26  1  0
  5  6  2  0
  5 11  1  0
  6  7  1  0
  7  8  1  0
  7  9  1  0
  8 27  1  0
  8 28  1  0
  8 29  1  0
  9 10  1  0
  9 11  2  0
 10 30  1  0
 10 31  1  0
 11 12  1  0
 12 13  2  0
 12 18  1  0
 13 14  1  0
 13 32  1  0
 14 15  2  0
 14 33  1  0
 15 16  1  0
 15 34  1  0
 16 17  1  0
 16 18  2  0
 18 35  1  0
M  END

