
     RDKit          3D

 61 64  0  0  0  0  0  0  0  0999 V2000
    3.6387   -1.6664    4.2744 C   0  0  0  0  0  0  0  0  0  0  0  0
    3.0122   -2.1571    2.9783 C   0  0  0  0  0  0  0  0  0  0  0  0
    3.3210   -1.3032    1.8649 O   0  0  0  0  0  0  0  0  0  0  0  0
    4.5532   -1.4442    1.2891 C   0  0  0  0  0  0  0  0  0  0  0  0
    5.4787   -0.3983    1.3936 C   0  0  0  0  0  0  0  0  0  0  0  0
    6.7445   -0.4700    0.7976 C   0  0  0  0  0  0  0  0  0  0  0  0
    7.7407    0.6723    0.9510 C   0  0  0  0  0  0  0  0  0  0  0  0
    8.3569    1.1739   -0.2815 N   0  0  0  0  0  0  0  0  0  0  0  0
    7.4944    1.7150   -1.3448 C   0  0  1  0  0  0  0  0  0  0  0  0
    6.4121    2.6638   -0.8169 C   0  0  0  0  0  0  0  0  0  0  0  0
    8.3863    2.5072   -2.3258 C   0  0  0  0  0  0  0  0  0  0  0  0
    8.0547    2.7682   -3.4514 O   0  0  0  0  0  0  0  0  0  0  0  0
    9.5371    2.9201   -1.7808 O   0  0  0  0  0  0  0  0  0  0  0  0
    7.0778   -1.6340    0.0882 C   0  0  0  0  0  0  0  0  0  0  0  0
    6.1591   -2.6760   -0.0435 C   0  0  0  0  0  0  0  0  0  0  0  0
    4.8899   -2.5936    0.5411 C   0  0  0  0  0  0  0  0  0  0  0  0
    4.0179   -3.6372    0.3958 O   0  0  0  0  0  0  0  0  0  0  0  0
    2.8749   -3.4022   -0.4388 C   0  0  0  0  0  0  0  0  0  0  0  0
    2.1022   -4.7038   -0.6478 C   0  0  2  0  0  0  0  0  0  0  0  0
    1.5971   -5.2810    0.6972 C   0  0  0  0  0  0  0  0  0  0  0  0
    0.7852   -6.5692    0.4605 C   0  0  1  0  0  0  0  0  0  0  0  0
   -0.4276   -6.2538   -0.4366 C   0  0  0  0  0  0  0  0  0  0  0  0
    0.0630   -5.6973   -1.7876 C   0  0  2  0  0  0  0  0  0  0  0  0
    0.9550   -6.7462   -2.4803 C   0  0  0  0  0  0  0  0  0  0  0  0
    2.1688   -7.0616   -1.5844 C   0  0  2  0  0  0  0  0  0  0  0  0
    1.6787   -7.6165   -0.2325 C   0  0  0  0  0  0  0  0  0  0  0  0
    2.9783   -5.7725   -1.3455 C   0  0  0  0  0  0  0  0  0  0  0  0
    0.8761   -4.4102   -1.5470 C   0  0  0  0  0  0  0  0  0  0  0  0
    3.3368   -2.3189    5.1098 H   0  0  0  0  0  0  0  0  0  0  0  0
    3.3137   -0.6394    4.5037 H   0  0  0  0  0  0  0  0  0  0  0  0
    4.7387   -1.6776    4.2193 H   0  0  0  0  0  0  0  0  0  0  0  0
    1.9139   -2.1430    3.0509 H   0  0  0  0  0  0  0  0  0  0  0  0
    3.3200   -3.1911    2.7531 H   0  0  0  0  0  0  0  0  0  0  0  0
    5.1771    0.4836    1.9649 H   0  0  0  0  0  0  0  0  0  0  0  0
    8.5706    0.3475    1.6023 H   0  0  0  0  0  0  0  0  0  0  0  0
    7.2584    1.5095    1.4761 H   0  0  0  0  0  0  0  0  0  0  0  0
    8.9410    0.4391   -0.6817 H   0  0  0  0  0  0  0  0  0  0  0  0
    7.0000    0.9253   -1.9397 H   0  0  0  0  0  0  0  0  0  0  0  0
    6.8549    3.4663   -0.2051 H   0  0  0  0  0  0  0  0  0  0  0  0
    5.6612    2.1303   -0.2172 H   0  0  0  0  0  0  0  0  0  0  0  0
    5.8989    3.1248   -1.6725 H   0  0  0  0  0  0  0  0  0  0  0  0
    9.5336    2.5393   -0.8700 H   0  0  0  0  0  0  0  0  0  0  0  0
    8.0631   -1.7342   -0.3770 H   0  0  0  0  0  0  0  0  0  0  0  0
    6.4053   -3.5785   -0.6073 H   0  0  0  0  0  0  0  0  0  0  0  0
    3.2192   -3.0095   -1.4140 H   0  0  0  0  0  0  0  0  0  0  0  0
    2.2261   -2.6385    0.0247 H   0  0  0  0  0  0  0  0  0  0  0  0
    0.9726   -4.5281    1.2109 H   0  0  0  0  0  0  0  0  0  0  0  0
    2.4577   -5.4865    1.3539 H   0  0  0  0  0  0  0  0  0  0  0  0
    0.4364   -6.9633    1.4305 H   0  0  0  0  0  0  0  0  0  0  0  0
   -1.0870   -5.5205    0.0598 H   0  0  0  0  0  0  0  0  0  0  0  0
   -1.0296   -7.1649   -0.5980 H   0  0  0  0  0  0  0  0  0  0  0  0
   -0.8034   -5.4642   -2.4298 H   0  0  0  0  0  0  0  0  0  0  0  0
    1.2945   -6.3686   -3.4607 H   0  0  0  0  0  0  0  0  0  0  0  0
    0.3763   -7.6656   -2.6765 H   0  0  0  0  0  0  0  0  0  0  0  0
    2.8116   -7.8089   -2.0805 H   0  0  0  0  0  0  0  0  0  0  0  0
    2.5409   -7.8647    0.4106 H   0  0  0  0  0  0  0  0  0  0  0  0
    1.1158   -8.5534   -0.3875 H   0  0  0  0  0  0  0  0  0  0  0  0
    3.3486   -5.3746   -2.3074 H   0  0  0  0  0  0  0  0  0  0  0  0
    3.8637   -5.9823   -0.7244 H   0  0  0  0  0  0  0  0  0  0  0  0
    0.2383   -3.6439   -1.0716 H   0  0  0  0  0  0  0  0  0  0  0  0
    1.2117   -3.9904   -2.5119 H   0  0  0  0  0  0  0  0  0  0  0  0
  1  2  1  0
  1 29  1  0
  1 30  1  0
  1 31  1  0
  2  3  1  0
  2 32  1  0
  2 33  1  0
  3  4  1  0
  4  5  2  0
  4 16  1  0
  5  6  1  0
  5 34  1  0
  6  7  1  0
  6 14  2  0
  7  8  1  0
  7 35  1  0
  7 36  1  0
  8  9  1  0
  8 37  1  0
  9 10  1  0
  9 11  1  0
  9 38  1  6
 10 39  1  0
 10 40  1  0
 10 41  1  0
 11 12  2  0
 11 13  1  0
 13 42  1  0
 14 15  1  0
 14 43  1  0
 15 16  2  0
 15 44  1  0
 16 17  1  0
 17 18  1  0
 19 18  1  1
 18 45  1  0
 18 46  1  0
 19 20  1  0
 19 27  1  0
 19 28  1  0
 20 21  1  0
 20 47  1  0
 20 48  1  0
 21 22  1  0
 21 26  1  0
 21 49  1  1
 22 23  1  0
 22 50  1  0
 22 51  1  0
 23 24  1  0
 23 28  1  0
 23 52  1  6
 24 25  1  0
 24 53  1  0
 24 54  1  0
 25 26  1  0
 25 27  1  0
 25 55  1  6
 26 56  1  0
 26 57  1  0
 27 58  1  0
 27 59  1  0
 28 60  1  0
 28 61  1  0
M  END

