
     RDKit          3D

 57 58  0  0  0  0  0  0  0  0999 V2000
    2.9571    1.8964    1.0941 C   0  0  0  0  0  0  0  0  0  0  0  0
    2.5595    2.1127   -0.3672 C   0  0  0  0  0  0  0  0  0  0  0  0
    2.9640    0.9878   -1.3610 C   0  0  1  0  0  0  0  0  0  0  0  0
    2.3269   -0.3568   -0.9792 C   0  0  0  0  0  0  0  0  0  0  0  0
    2.5121    1.3921   -2.7813 C   0  0  0  0  0  0  0  0  0  0  0  0
    4.4912    0.8263   -1.3571 C   0  0  0  0  0  0  0  0  0  0  0  0
    5.0846   -0.1827   -1.0616 O   0  0  0  0  0  0  0  0  0  0  0  0
    5.1212    1.9609   -1.7345 O   0  0  0  0  0  0  0  0  0  0  0  0
    6.5563    1.9241   -1.8125 C   0  0  2  0  0  0  0  0  0  0  0  0
    7.2718    2.1274   -0.4450 C   0  0  0  0  0  0  0  0  0  0  0  0
    8.1139    3.3959   -0.6989 C   0  0  1  0  0  0  0  0  0  0  0  0
    8.5366    3.1714   -2.1587 C   0  0  0  0  0  0  0  0  0  0  0  0
    7.0887    3.0858   -2.6779 C   0  0  2  0  0  0  0  0  0  0  0  0
    6.4822    4.4483   -2.2237 C   0  0  2  0  0  0  0  0  0  0  0  0
    6.5024    5.5066   -3.3871 C   0  0  1  0  0  0  0  0  0  0  0  0
    7.8286    5.6731   -4.1396 C   0  0  0  0  0  0  0  0  0  0  0  0
    5.4126    5.1166   -4.4089 C   0  0  0  0  0  0  0  0  0  0  0  0
    6.1833    6.8150   -2.9036 O   0  0  0  0  0  0  0  0  0  0  0  0
    7.1372    4.6180   -0.7660 C   0  0  2  0  0  0  0  0  0  0  0  0
    7.7012    5.9353   -0.1140 C   0  0  1  0  0  0  0  0  0  0  0  0
    8.8298    6.6360   -0.8750 C   0  0  0  0  0  0  0  0  0  0  0  0
    6.5790    6.9269    0.2101 C   0  0  0  0  0  0  0  0  0  0  0  0
    8.1827    5.5594    1.1892 O   0  0  0  0  0  0  0  0  0  0  0  0
    2.6558    2.7605    1.7072 H   0  0  0  0  0  0  0  0  0  0  0  0
    4.0468    1.7770    1.2111 H   0  0  0  0  0  0  0  0  0  0  0  0
    2.4790    1.0044    1.5275 H   0  0  0  0  0  0  0  0  0  0  0  0
    2.9928    3.0602   -0.7261 H   0  0  0  0  0  0  0  0  0  0  0  0
    1.4635    2.2303   -0.4363 H   0  0  0  0  0  0  0  0  0  0  0  0
    1.2308   -0.2550   -0.9331 H   0  0  0  0  0  0  0  0  0  0  0  0
    2.6874   -0.7203   -0.0074 H   0  0  0  0  0  0  0  0  0  0  0  0
    2.5709   -1.1309   -1.7218 H   0  0  0  0  0  0  0  0  0  0  0  0
    1.4143    1.4809   -2.8141 H   0  0  0  0  0  0  0  0  0  0  0  0
    2.8095    0.6353   -3.5249 H   0  0  0  0  0  0  0  0  0  0  0  0
    2.9460    2.3565   -3.0818 H   0  0  0  0  0  0  0  0  0  0  0  0
    6.8356    0.9570   -2.2533 H   0  0  0  0  0  0  0  0  0  0  0  0
    7.9029    1.2580   -0.2074 H   0  0  0  0  0  0  0  0  0  0  0  0
    6.5529    2.2496    0.3775 H   0  0  0  0  0  0  0  0  0  0  0  0
    8.9305    3.5109    0.0251 H   0  0  0  0  0  0  0  0  0  0  0  0
    9.1071    2.2394   -2.3054 H   0  0  0  0  0  0  0  0  0  0  0  0
    9.1109    3.9988   -2.5918 H   0  0  0  0  0  0  0  0  0  0  0  0
    6.9684    2.8843   -3.7505 H   0  0  0  0  0  0  0  0  0  0  0  0
    5.4082    4.3007   -2.0403 H   0  0  0  0  0  0  0  0  0  0  0  0
    8.1090    4.7531   -4.6710 H   0  0  0  0  0  0  0  0  0  0  0  0
    8.6537    5.9571   -3.4767 H   0  0  0  0  0  0  0  0  0  0  0  0
    7.7085    6.4748   -4.8836 H   0  0  0  0  0  0  0  0  0  0  0  0
    5.5919    4.1329   -4.8669 H   0  0  0  0  0  0  0  0  0  0  0  0
    5.3741    5.8690   -5.2110 H   0  0  0  0  0  0  0  0  0  0  0  0
    4.4214    5.0797   -3.9256 H   0  0  0  0  0  0  0  0  0  0  0  0
    5.2780    6.7958   -2.5650 H   0  0  0  0  0  0  0  0  0  0  0  0
    6.3182    4.3845   -0.0702 H   0  0  0  0  0  0  0  0  0  0  0  0
    8.4551    7.1078   -1.7913 H   0  0  0  0  0  0  0  0  0  0  0  0
    9.6411    5.9365   -1.1401 H   0  0  0  0  0  0  0  0  0  0  0  0
    9.2596    7.4214   -0.2335 H   0  0  0  0  0  0  0  0  0  0  0  0
    6.1365    7.3400   -0.7010 H   0  0  0  0  0  0  0  0  0  0  0  0
    6.9908    7.7517    0.8111 H   0  0  0  0  0  0  0  0  0  0  0  0
    5.8005    6.4334    0.8126 H   0  0  0  0  0  0  0  0  0  0  0  0
    9.0566    5.1630    1.0893 H   0  0  0  0  0  0  0  0  0  0  0  0
  1  2  1  0
  1 24  1  0
  1 25  1  0
  1 26  1  0
  2  3  1  0
  2 27  1  0
  2 28  1  0
  3  4  1  0
  3  5  1  0
  3  6  1  6
  4 29  1  0
  4 30  1  0
  4 31  1  0
  5 32  1  0
  5 33  1  0
  5 34  1  0
  6  7  2  0
  6  8  1  0
  8  9  1  0
  9 10  1  0
  9 13  1  0
  9 35  1  6
 10 11  1  0
 10 36  1  0
 10 37  1  0
 11 12  1  0
 11 19  1  0
 11 38  1  1
 12 13  1  0
 12 39  1  0
 12 40  1  0
 13 14  1  0
 13 41  1  6
 14 15  1  0
 14 19  1  0
 14 42  1  1
 15 16  1  0
 15 17  1  0
 15 18  1  1
 16 43  1  0
 16 44  1  0
 16 45  1  0
 17 46  1  0
 17 47  1  0
 17 48  1  0
 18 49  1  0
 19 20  1  0
 19 50  1  1
 20 21  1  0
 20 22  1  0
 20 23  1  1
 21 51  1  0
 21 52  1  0
 21 53  1  0
 22 54  1  0
 22 55  1  0
 22 56  1  0
 23 57  1  0
M  END

