
     RDKit          3D

 37 38  0  0  0  0  0  0  0  0999 V2000
    2.7866    4.6830    0.7918 C   0  0  0  0  0  0  0  0  0  0  0  0
    3.7308    3.8115    0.1619 O   0  0  0  0  0  0  0  0  0  0  0  0
    3.6786    2.5133    0.5145 C   0  0  0  0  0  0  0  0  0  0  0  0
    2.8859    2.0755    1.3077 O   0  0  0  0  0  0  0  0  0  0  0  0
    4.7524    1.6657   -0.1697 C   0  0  1  0  0  0  0  0  0  0  0  0
    4.1713    0.2953   -0.6101 C   0  0  0  0  0  0  0  0  0  0  0  0
    5.1209   -0.7231   -0.6327 O   0  0  0  0  0  0  0  0  0  0  0  0
    5.4081    2.4280   -1.2277 N   0  0  0  0  0  0  0  0  0  0  0  0
    6.3917    1.9814   -2.0299 C   0  0  0  0  0  0  0  0  0  0  0  0
    6.8294    0.8333   -2.0547 O   0  0  0  0  0  0  0  0  0  0  0  0
    6.9402    3.0352   -3.0263 C   0  0  2  0  0  0  0  0  0  0  0  0
    8.4608    2.8572   -3.2582 C   0  0  0  0  0  0  0  0  0  0  0  0
    9.2531    4.2106   -2.3092 S   0  0  0  0  0  0  0  0  0  0  0  0
    7.6651    5.0374   -2.1888 C   0  0  0  0  0  0  0  0  0  0  0  0
    7.5886    6.4009   -1.6197 C   0  0  0  0  0  0  0  0  0  0  0  0
    6.3497    7.0689   -1.5931 C   0  0  0  0  0  0  0  0  0  0  0  0
    6.2527    8.3529   -1.0603 C   0  0  0  0  0  0  0  0  0  0  0  0
    7.3879    8.9889   -0.5428 C   0  0  0  0  0  0  0  0  0  0  0  0
    8.6222    8.3342   -0.5664 C   0  0  0  0  0  0  0  0  0  0  0  0
    8.7237    7.0498   -1.1053 C   0  0  0  0  0  0  0  0  0  0  0  0
    6.6398    4.3876   -2.5949 N   0  0  0  0  0  0  0  0  0  0  0  0
    2.9977    5.6882    0.4081 H   0  0  0  0  0  0  0  0  0  0  0  0
    2.9055    4.6550    1.8848 H   0  0  0  0  0  0  0  0  0  0  0  0
    1.7581    4.3827    0.5425 H   0  0  0  0  0  0  0  0  0  0  0  0
    5.4813    1.4240    0.6291 H   0  0  0  0  0  0  0  0  0  0  0  0
    3.6575    0.4427   -1.5852 H   0  0  0  0  0  0  0  0  0  0  0  0
    3.4060    0.0212    0.1308 H   0  0  0  0  0  0  0  0  0  0  0  0
    5.8559   -0.4144   -1.1996 H   0  0  0  0  0  0  0  0  0  0  0  0
    5.1998    3.4231   -1.2907 H   0  0  0  0  0  0  0  0  0  0  0  0
    6.4026    2.8275   -3.9686 H   0  0  0  0  0  0  0  0  0  0  0  0
    8.7284    2.9677   -4.3184 H   0  0  0  0  0  0  0  0  0  0  0  0
    8.8019    1.8769   -2.9007 H   0  0  0  0  0  0  0  0  0  0  0  0
    5.4753    6.5617   -2.0039 H   0  0  0  0  0  0  0  0  0  0  0  0
    5.2871    8.8651   -1.0500 H   0  0  0  0  0  0  0  0  0  0  0  0
    7.3098    9.9959   -0.1251 H   0  0  0  0  0  0  0  0  0  0  0  0
    9.5124    8.8257   -0.1668 H   0  0  0  0  0  0  0  0  0  0  0  0
    9.6951    6.5500   -1.1246 H   0  0  0  0  0  0  0  0  0  0  0  0
  1  2  1  0
  1 22  1  0
  1 23  1  0
  1 24  1  0
  2  3  1  0
  3  4  2  0
  3  5  1  0
  5  6  1  0
  5  8  1  0
  5 25  1  1
  6  7  1  0
  6 26  1  0
  6 27  1  0
  7 28  1  0
  8  9  1  0
  8 29  1  0
  9 10  2  0
  9 11  1  0
 11 12  1  0
 11 21  1  0
 11 30  1  6
 12 13  1  0
 12 31  1  0
 12 32  1  0
 13 14  1  0
 14 15  1  0
 14 21  2  0
 15 16  2  0
 15 20  1  0
 16 17  1  0
 16 33  1  0
 17 18  2  0
 17 34  1  0
 18 19  1  0
 18 35  1  0
 19 20  2  0
 19 36  1  0
 20 37  1  0
M  END

