
     RDKit          3D

 54 57  0  0  0  0  0  0  0  0999 V2000
    4.5684    2.2058   -4.9417 C   0  0  0  0  0  0  0  0  0  0  0  0
    4.4853    1.3531   -3.8108 O   0  0  0  0  0  0  0  0  0  0  0  0
    4.0488    1.8223   -2.5960 C   0  0  0  0  0  0  0  0  0  0  0  0
    3.7001    3.1641   -2.4217 C   0  0  0  0  0  0  0  0  0  0  0  0
    3.2669    3.6227   -1.1751 C   0  0  0  0  0  0  0  0  0  0  0  0
    3.1828    2.7396   -0.1016 C   0  0  0  0  0  0  0  0  0  0  0  0
    3.5272    1.3992   -0.2744 C   0  0  0  0  0  0  0  0  0  0  0  0
    3.9647    0.8914   -1.5138 C   0  0  0  0  0  0  0  0  0  0  0  0
    4.3468   -0.5375   -1.6676 C   0  0  0  0  0  0  0  0  0  0  0  0
    5.0342   -0.8742   -2.7666 O   0  0  0  0  0  0  0  0  0  0  0  0
    4.0908   -1.6093   -0.8268 C   0  0  0  0  0  0  0  0  0  0  0  0
    3.3285   -1.7795    0.4008 C   0  0  0  0  0  0  0  0  0  0  0  0
    2.8418   -0.9947    1.1973 O   0  0  0  0  0  0  0  0  0  0  0  0
    3.1637   -3.2965    0.6106 C   0  0  0  0  0  0  0  0  0  0  0  0
    2.5109   -3.7866    1.5049 O   0  0  0  0  0  0  0  0  0  0  0  0
    3.8638   -3.9354   -0.3969 N   0  0  0  0  0  0  0  0  0  0  0  0
    3.8692   -5.3312   -0.6514 C   0  0  0  0  0  0  0  0  0  0  0  0
    3.2263   -6.2409    0.2138 C   0  0  0  0  0  0  0  0  0  0  0  0
    3.2401   -7.5996   -0.0979 C   0  0  0  0  0  0  0  0  0  0  0  0
    3.8729   -8.1034   -1.2362 C   0  0  0  0  0  0  0  0  0  0  0  0
    4.5185   -7.1986   -2.0930 C   0  0  0  0  0  0  0  0  0  0  0  0
    5.2002   -7.5887   -3.2646 N   0  0  0  0  0  0  0  0  0  0  0  0
    5.3617   -8.8473   -3.7988 C   0  0  0  0  0  0  0  0  0  0  0  0
    6.1712   -8.8840   -5.0888 C   0  0  0  0  0  0  0  0  0  0  0  0
    4.9095   -9.8648   -3.3075 O   0  0  0  0  0  0  0  0  0  0  0  0
    4.5105   -5.8246   -1.7999 C   0  0  0  0  0  0  0  0  0  0  0  0
    4.5889   -2.9864   -1.2615 C   0  0  2  0  0  0  0  0  0  0  0  0
    6.1121   -3.1316   -1.1318 C   0  0  0  0  0  0  0  0  0  0  0  0
    6.7564   -2.8885    0.0909 C   0  0  0  0  0  0  0  0  0  0  0  0
    8.1415   -3.0263    0.1624 C   0  0  0  0  0  0  0  0  0  0  0  0
    8.8414   -3.3970   -0.9890 C   0  0  0  0  0  0  0  0  0  0  0  0
    8.1107   -3.6224   -2.1572 C   0  0  0  0  0  0  0  0  0  0  0  0
    6.7823   -3.4990   -2.2288 N   0  0  0  0  0  0  0  0  0  0  0  0
    4.9243    1.5809   -5.7707 H   0  0  0  0  0  0  0  0  0  0  0  0
    5.2821    3.0292   -4.7730 H   0  0  0  0  0  0  0  0  0  0  0  0
    3.5803    2.6211   -5.1982 H   0  0  0  0  0  0  0  0  0  0  0  0
    3.7654    3.8615   -3.2556 H   0  0  0  0  0  0  0  0  0  0  0  0
    2.9990    4.6754   -1.0547 H   0  0  0  0  0  0  0  0  0  0  0  0
    2.8459    3.0850    0.8779 H   0  0  0  0  0  0  0  0  0  0  0  0
    3.4279    0.7108    0.5642 H   0  0  0  0  0  0  0  0  0  0  0  0
    5.0625   -0.1208   -3.3914 H   0  0  0  0  0  0  0  0  0  0  0  0
    2.7242   -5.8747    1.1041 H   0  0  0  0  0  0  0  0  0  0  0  0
    2.7363   -8.2967    0.5769 H   0  0  0  0  0  0  0  0  0  0  0  0
    3.8798   -9.1652   -1.4674 H   0  0  0  0  0  0  0  0  0  0  0  0
    5.6330   -6.8276   -3.7736 H   0  0  0  0  0  0  0  0  0  0  0  0
    6.5181   -7.9003   -5.4384 H   0  0  0  0  0  0  0  0  0  0  0  0
    5.5548   -9.3477   -5.8738 H   0  0  0  0  0  0  0  0  0  0  0  0
    7.0426   -9.5388   -4.9355 H   0  0  0  0  0  0  0  0  0  0  0  0
    5.0413   -5.1507   -2.4719 H   0  0  0  0  0  0  0  0  0  0  0  0
    4.3447   -3.1683   -2.3176 H   0  0  0  0  0  0  0  0  0  0  0  0
    6.1811   -2.5943    0.9713 H   0  0  0  0  0  0  0  0  0  0  0  0
    8.6681   -2.8455    1.1031 H   0  0  0  0  0  0  0  0  0  0  0  0
    9.9273   -3.5152   -0.9825 H   0  0  0  0  0  0  0  0  0  0  0  0
    8.6230   -3.9224   -3.0793 H   0  0  0  0  0  0  0  0  0  0  0  0
  1  2  1  0
  1 34  1  0
  1 35  1  0
  1 36  1  0
  2  3  1  0
  3  4  2  0
  3  8  1  0
  4  5  1  0
  4 37  1  0
  5  6  2  0
  5 38  1  0
  6  7  1  0
  6 39  1  0
  7  8  2  0
  7 40  1  0
  8  9  1  0
  9 10  1  0
  9 11  2  0
 10 41  1  0
 11 12  1  0
 11 27  1  0
 12 13  2  0
 12 14  1  0
 14 15  2  0
 14 16  1  0
 16 17  1  0
 16 27  1  0
 17 18  2  0
 17 26  1  0
 18 19  1  0
 18 42  1  0
 19 20  2  0
 19 43  1  0
 20 21  1  0
 20 44  1  0
 21 22  1  0
 21 26  2  0
 22 23  1  0
 22 45  1  0
 23 24  1  0
 23 25  2  0
 24 46  1  0
 24 47  1  0
 24 48  1  0
 26 49  1  0
 27 28  1  0
 27 50  1  6
 28 29  2  0
 28 33  1  0
 29 30  1  0
 29 51  1  0
 30 31  2  0
 30 52  1  0
 31 32  1  0
 31 53  1  0
 32 33  2  0
 32 54  1  0
M  END

