
     RDKit          3D

 92 95  0  0  0  0  0  0  0  0999 V2000
    1.6459   -0.5010   -0.3405 C   0  0  0  0  0  0  0  0  0  0  0  0
    2.9603   -0.6403   -0.0410 C   0  0  0  0  0  0  0  0  0  0  0  0
    3.6846    0.1988    0.8063 N   0  0  0  0  0  0  0  0  0  0  0  0
    3.4459    1.5120    1.2122 C   0  0  0  0  0  0  0  0  0  0  0  0
    2.6205    2.4256    0.5385 C   0  0  0  0  0  0  0  0  0  0  0  0
    2.5018    3.7591    0.9656 C   0  0  0  0  0  0  0  0  0  0  0  0
    1.5967    4.7244    0.1708 C   0  0  1  0  0  0  0  0  0  0  0  0
    0.1519    4.1745    0.1475 C   0  0  0  0  0  0  0  0  0  0  0  0
    1.5642    6.1339    0.7889 C   0  0  0  0  0  0  0  0  0  0  0  0
    2.1237    4.8455   -1.2782 C   0  0  0  0  0  0  0  0  0  0  0  0
    3.2367    4.1875    2.0797 C   0  0  0  0  0  0  0  0  0  0  0  0
    4.0642    3.2878    2.7726 C   0  0  0  0  0  0  0  0  0  0  0  0
    4.8619    3.6577    3.8716 N   0  0  0  0  0  0  0  0  0  0  0  0
    4.6061    4.8980    4.9730 S   0  0  1  0  0  0  0  0  0  0  0  0
    3.0832    4.4541    5.8296 C   0  0  0  0  0  0  0  0  0  0  0  0
    5.7140    4.7779    5.9165 O   0  0  0  0  0  0  0  0  0  0  0  0
    4.3375    6.1393    4.2506 O   0  0  0  0  0  0  0  0  0  0  0  0
    4.1474    1.9516    2.3558 C   0  0  0  0  0  0  0  0  0  0  0  0
    4.9831    1.0792    3.0308 O   0  0  0  0  0  0  0  0  0  0  0  0
    4.3420    0.2756    4.0200 C   0  0  0  0  0  0  0  0  0  0  0  0
    3.8032   -1.7086   -0.6195 C   0  0  0  0  0  0  0  0  0  0  0  0
    5.1009   -1.5663   -1.0650 C   0  0  0  0  0  0  0  0  0  0  0  0
    5.5090   -2.8207   -1.6137 C   0  0  0  0  0  0  0  0  0  0  0  0
    6.7120   -3.2502   -2.2046 C   0  0  0  0  0  0  0  0  0  0  0  0
    6.8033   -4.5643   -2.6367 C   0  0  0  0  0  0  0  0  0  0  0  0
    5.7017   -5.4348   -2.5128 C   0  0  0  0  0  0  0  0  0  0  0  0
    4.4754   -5.0514   -1.9564 C   0  0  0  0  0  0  0  0  0  0  0  0
    3.3157   -6.0281   -1.9920 C   0  0  0  0  0  0  0  0  0  0  0  0
    2.2610   -5.7332   -3.0942 C   0  0  1  0  0  0  0  0  0  0  0  0
    2.8097   -5.8641   -4.5301 C   0  0  0  0  0  0  0  0  0  0  0  0
    3.0145   -7.3202   -4.9612 C   0  0  0  0  0  0  0  0  0  0  0  0
    1.8025   -8.1075   -4.7549 N   0  0  0  0  0  0  0  0  0  0  0  0
    1.3237   -8.8816   -5.7815 C   0  0  0  0  0  0  0  0  0  0  0  0
    1.8267   -8.9242   -6.8896 O   0  0  0  0  0  0  0  0  0  0  0  0
    0.2273   -9.5794   -5.4051 O   0  0  0  0  0  0  0  0  0  0  0  0
   -0.4774  -10.4662   -6.3329 C   0  0  1  0  0  0  0  0  0  0  0  0
    0.4490  -11.6006   -6.7849 C   0  0  0  0  0  0  0  0  0  0  0  0
   -1.6217  -11.0144   -5.4771 C   0  0  0  0  0  0  0  0  0  0  0  0
   -1.0264   -9.6636   -7.5176 C   0  0  0  0  0  0  0  0  0  0  0  0
    1.2514   -8.0738   -3.4049 C   0  0  0  0  0  0  0  0  0  0  0  0
    1.0119   -6.6276   -2.9519 C   0  0  0  0  0  0  0  0  0  0  0  0
    4.4044   -3.7164   -1.4797 C   0  0  0  0  0  0  0  0  0  0  0  0
    3.3693   -3.0181   -0.8540 N   0  0  0  0  0  0  0  0  0  0  0  0
    2.2596   -3.6474   -0.1522 C   0  0  0  0  0  0  0  0  0  0  0  0
    1.0235    0.2652    0.1192 H   0  0  0  0  0  0  0  0  0  0  0  0
    1.1852   -1.1510   -1.0832 H   0  0  0  0  0  0  0  0  0  0  0  0
    4.5405   -0.1949    1.1817 H   0  0  0  0  0  0  0  0  0  0  0  0
    2.0944    2.0915   -0.3529 H   0  0  0  0  0  0  0  0  0  0  0  0
   -0.2504    4.0766    1.1686 H   0  0  0  0  0  0  0  0  0  0  0  0
    0.0939    3.1858   -0.3327 H   0  0  0  0  0  0  0  0  0  0  0  0
   -0.5090    4.8552   -0.4139 H   0  0  0  0  0  0  0  0  0  0  0  0
    1.1820    6.1221    1.8215 H   0  0  0  0  0  0  0  0  0  0  0  0
    0.9003    6.7836    0.1973 H   0  0  0  0  0  0  0  0  0  0  0  0
    2.5598    6.6029    0.8013 H   0  0  0  0  0  0  0  0  0  0  0  0
    2.1268    3.8756   -1.7984 H   0  0  0  0  0  0  0  0  0  0  0  0
    3.1534    5.2364   -1.2911 H   0  0  0  0  0  0  0  0  0  0  0  0
    1.4905    5.5350   -1.8606 H   0  0  0  0  0  0  0  0  0  0  0  0
    3.2118    5.2214    2.4122 H   0  0  0  0  0  0  0  0  0  0  0  0
    5.5299    2.9641    4.1992 H   0  0  0  0  0  0  0  0  0  0  0  0
    3.2515    3.5254    6.3894 H   0  0  0  0  0  0  0  0  0  0  0  0
    2.2767    4.3432    5.0926 H   0  0  0  0  0  0  0  0  0  0  0  0
    2.8647    5.2856    6.5134 H   0  0  0  0  0  0  0  0  0  0  0  0
    5.1151   -0.3685    4.4623 H   0  0  0  0  0  0  0  0  0  0  0  0
    3.5521   -0.3545    3.5775 H   0  0  0  0  0  0  0  0  0  0  0  0
    3.8930    0.8990    4.8132 H   0  0  0  0  0  0  0  0  0  0  0  0
    5.6714   -0.6399   -1.0620 H   0  0  0  0  0  0  0  0  0  0  0  0
    7.5524   -2.5596   -2.3103 H   0  0  0  0  0  0  0  0  0  0  0  0
    7.7275   -4.9325   -3.0887 H   0  0  0  0  0  0  0  0  0  0  0  0
    5.7995   -6.4587   -2.8843 H   0  0  0  0  0  0  0  0  0  0  0  0
    2.7957   -6.0635   -1.0235 H   0  0  0  0  0  0  0  0  0  0  0  0
    3.7307   -7.0378   -2.1348 H   0  0  0  0  0  0  0  0  0  0  0  0
    1.9415   -4.6857   -2.9597 H   0  0  0  0  0  0  0  0  0  0  0  0
    3.7586   -5.3146   -4.6333 H   0  0  0  0  0  0  0  0  0  0  0  0
    2.0919   -5.3952   -5.2246 H   0  0  0  0  0  0  0  0  0  0  0  0
    3.8476   -7.7780   -4.3924 H   0  0  0  0  0  0  0  0  0  0  0  0
    3.2762   -7.3842   -6.0240 H   0  0  0  0  0  0  0  0  0  0  0  0
    0.8559  -12.1329   -5.9107 H   0  0  0  0  0  0  0  0  0  0  0  0
    1.2827  -11.2123   -7.3829 H   0  0  0  0  0  0  0  0  0  0  0  0
   -0.1180  -12.3244   -7.3912 H   0  0  0  0  0  0  0  0  0  0  0  0
   -1.2279  -11.5536   -4.6020 H   0  0  0  0  0  0  0  0  0  0  0  0
   -2.2391  -11.7099   -6.0656 H   0  0  0  0  0  0  0  0  0  0  0  0
   -2.2650  -10.1963   -5.1186 H   0  0  0  0  0  0  0  0  0  0  0  0
   -0.2110   -9.2521   -8.1253 H   0  0  0  0  0  0  0  0  0  0  0  0
   -1.6560   -8.8342   -7.1585 H   0  0  0  0  0  0  0  0  0  0  0  0
   -1.6495  -10.3146   -8.1509 H   0  0  0  0  0  0  0  0  0  0  0  0
    1.9505   -8.5811   -2.7108 H   0  0  0  0  0  0  0  0  0  0  0  0
    0.3159   -8.6420   -3.3899 H   0  0  0  0  0  0  0  0  0  0  0  0
    0.6532   -6.6301   -1.9080 H   0  0  0  0  0  0  0  0  0  0  0  0
    0.1998   -6.2054   -3.5684 H   0  0  0  0  0  0  0  0  0  0  0  0
    1.5264   -4.0810   -0.8483 H   0  0  0  0  0  0  0  0  0  0  0  0
    1.7446   -2.8926    0.4511 H   0  0  0  0  0  0  0  0  0  0  0  0
    2.6252   -4.4419    0.5173 H   0  0  0  0  0  0  0  0  0  0  0  0
  1  2  2  0
  1 45  1  0
  1 46  1  0
  2  3  1  0
  2 21  1  0
  3  4  1  0
  3 47  1  0
  4  5  2  0
  4 18  1  0
  5  6  1  0
  5 48  1  0
  6  7  1  0
  6 11  2  0
  7  8  1  6
  7  9  1  0
  7 10  1  0
  8 49  1  0
  8 50  1  0
  8 51  1  0
  9 52  1  0
  9 53  1  0
  9 54  1  0
 10 55  1  0
 10 56  1  0
 10 57  1  0
 11 12  1  0
 11 58  1  0
 12 13  1  0
 12 18  2  0
 14 13  1  6
 13 59  1  0
 14 15  1  0
 14 16  2  0
 14 17  2  0
 15 60  1  0
 15 61  1  0
 15 62  1  0
 18 19  1  0
 19 20  1  0
 20 63  1  0
 20 64  1  0
 20 65  1  0
 21 22  2  0
 21 43  1  0
 22 23  1  0
 22 66  1  0
 23 24  2  0
 23 42  1  0
 24 25  1  0
 24 67  1  0
 25 26  2  0
 25 68  1  0
 26 27  1  0
 26 69  1  0
 27 28  1  0
 27 42  2  0
 28 29  1  0
 28 70  1  0
 28 71  1  0
 29 30  1  0
 29 41  1  0
 29 72  1  1
 30 31  1  0
 30 73  1  0
 30 74  1  0
 31 32  1  0
 31 75  1  0
 31 76  1  0
 32 33  1  0
 32 40  1  0
 33 34  2  0
 33 35  1  0
 36 35  1  1
 36 37  1  0
 36 38  1  0
 36 39  1  0
 37 77  1  0
 37 78  1  0
 37 79  1  0
 38 80  1  0
 38 81  1  0
 38 82  1  0
 39 83  1  0
 39 84  1  0
 39 85  1  0
 40 41  1  0
 40 86  1  0
 40 87  1  0
 41 88  1  0
 41 89  1  0
 42 43  1  0
 43 44  1  0
 44 90  1  0
 44 91  1  0
 44 92  1  0
M  END

