
     RDKit          3D

 57 61  0  0  0  0  0  0  0  0999 V2000
   11.0932   -0.9750   -7.2508 C   0  0  0  0  0  0  0  0  0  0  0  0
   10.0371   -1.5399   -6.5069 O   0  0  0  0  0  0  0  0  0  0  0  0
    8.9300   -0.7966   -6.2573 C   0  0  0  0  0  0  0  0  0  0  0  0
    8.7458    0.5236   -6.6847 C   0  0  0  0  0  0  0  0  0  0  0  0
    7.5492    1.1813   -6.3658 C   0  0  0  0  0  0  0  0  0  0  0  0
    6.5376    0.5617   -5.6365 C   0  0  0  0  0  0  0  0  0  0  0  0
    5.2090    1.2156   -5.3108 C   0  0  2  0  0  0  0  0  0  0  0  0
    4.9575    1.0238   -4.2576 H   0  0  0  0  0  0  0  0  0  0  0  0
    4.0289    0.8076   -6.2034 C   0  0  2  0  0  0  0  0  0  0  0  0
    3.1041    1.0268   -5.6384 H   0  0  0  0  0  0  0  0  0  0  0  0
    3.6938   -0.4297   -7.0184 C   0  0  0  0  0  0  0  0  0  0  0  0
    3.9163   -1.5959   -6.8318 O   0  0  0  0  0  0  0  0  0  0  0  0
    2.9206    0.0902   -8.1033 N   0  0  0  0  0  0  0  0  0  0  0  0
    2.1783   -0.7275   -9.0102 C   0  0  0  0  0  0  0  0  0  0  0  0
    1.4416   -1.8205   -8.5402 C   0  0  0  0  0  0  0  0  0  0  0  0
    0.7247   -2.6148   -9.4374 C   0  0  0  0  0  0  0  0  0  0  0  0
    0.7103   -2.3379  -10.8117 C   0  0  0  0  0  0  0  0  0  0  0  0
   -0.0753   -3.1869  -11.7806 C   0  0  0  0  0  0  0  0  0  0  0  0
    1.4516   -1.2330  -11.2630 C   0  0  0  0  0  0  0  0  0  0  0  0
    2.1823   -0.4383  -10.3823 C   0  0  0  0  0  0  0  0  0  0  0  0
    2.9554    1.5143   -8.1849 C   0  0  0  0  0  0  0  0  0  0  0  0
    2.2547    2.2022   -8.8747 O   0  0  0  0  0  0  0  0  0  0  0  0
    4.1195    1.8660   -7.2810 C   0  0  1  0  0  0  0  0  0  0  0  0
    5.0337    1.6947   -7.8901 H   0  0  0  0  0  0  0  0  0  0  0  0
    4.2271    3.0579   -6.5710 O   0  0  0  0  0  0  0  0  0  0  0  0
    5.2169    2.7019   -5.5541 N   0  0  0  0  0  0  0  0  0  0  0  0
    5.1815    3.5986   -4.4753 C   0  0  0  0  0  0  0  0  0  0  0  0
    4.4694    4.8109   -4.5469 C   0  0  0  0  0  0  0  0  0  0  0  0
    4.4999    5.7000   -3.4710 C   0  0  0  0  0  0  0  0  0  0  0  0
    5.2303    5.4105   -2.3151 C   0  0  0  0  0  0  0  0  0  0  0  0
    5.9431    4.2095   -2.2490 C   0  0  0  0  0  0  0  0  0  0  0  0
    5.9271    3.3080   -3.3139 C   0  0  0  0  0  0  0  0  0  0  0  0
    6.7509   -0.7669   -5.1899 C   0  0  0  0  0  0  0  0  0  0  0  0
    5.7485   -1.2963   -4.4471 O   0  0  0  0  0  0  0  0  0  0  0  0
    5.7335   -2.6833   -4.1828 C   0  0  0  0  0  0  0  0  0  0  0  0
    7.9287   -1.4418   -5.5069 C   0  0  0  0  0  0  0  0  0  0  0  0
   11.8696   -1.7481   -7.3288 H   0  0  0  0  0  0  0  0  0  0  0  0
   11.5209   -0.0879   -6.7499 H   0  0  0  0  0  0  0  0  0  0  0  0
   10.7717   -0.6869   -8.2679 H   0  0  0  0  0  0  0  0  0  0  0  0
    9.5100    1.0488   -7.2563 H   0  0  0  0  0  0  0  0  0  0  0  0
    7.4000    2.2150   -6.6843 H   0  0  0  0  0  0  0  0  0  0  0  0
    1.4368   -2.0611   -7.4771 H   0  0  0  0  0  0  0  0  0  0  0  0
    0.1595   -3.4688   -9.0542 H   0  0  0  0  0  0  0  0  0  0  0  0
   -0.5463   -4.0445  -11.2782 H   0  0  0  0  0  0  0  0  0  0  0  0
    0.5695   -3.5785  -12.5848 H   0  0  0  0  0  0  0  0  0  0  0  0
   -0.8746   -2.6020  -12.2665 H   0  0  0  0  0  0  0  0  0  0  0  0
    1.4617   -0.9896  -12.3293 H   0  0  0  0  0  0  0  0  0  0  0  0
    2.7465    0.4150  -10.7597 H   0  0  0  0  0  0  0  0  0  0  0  0
    3.8961    5.0432   -5.4424 H   0  0  0  0  0  0  0  0  0  0  0  0
    3.9371    6.6349   -3.5417 H   0  0  0  0  0  0  0  0  0  0  0  0
    5.2479    6.1126   -1.4785 H   0  0  0  0  0  0  0  0  0  0  0  0
    6.5276    3.9667   -1.3576 H   0  0  0  0  0  0  0  0  0  0  0  0
    6.5152    2.3906   -3.2547 H   0  0  0  0  0  0  0  0  0  0  0  0
    4.7930   -2.8895   -3.6551 H   0  0  0  0  0  0  0  0  0  0  0  0
    6.5787   -2.9872   -3.5401 H   0  0  0  0  0  0  0  0  0  0  0  0
    5.7544   -3.2648   -5.1193 H   0  0  0  0  0  0  0  0  0  0  0  0
    8.1142   -2.4656   -5.1861 H   0  0  0  0  0  0  0  0  0  0  0  0
  1  2  1  0
  1 37  1  0
  1 38  1  0
  1 39  1  0
  2  3  1  0
  3  4  2  0
  3 36  1  0
  4  5  1  0
  4 40  1  0
  5  6  2  0
  5 41  1  0
  6  7  1  0
  6 33  1  0
  7  8  1  1
  7  9  1  0
  7 26  1  0
  9 10  1  1
  9 11  1  0
  9 23  1  0
 11 12  2  0
 11 13  1  0
 13 14  1  0
 13 21  1  0
 14 15  2  0
 14 20  1  0
 15 16  1  0
 15 42  1  0
 16 17  2  0
 16 43  1  0
 17 18  1  0
 17 19  1  0
 18 44  1  0
 18 45  1  0
 18 46  1  0
 19 20  2  0
 19 47  1  0
 20 48  1  0
 21 22  2  0
 21 23  1  0
 23 24  1  6
 23 25  1  0
 25 26  1  0
 26 27  1  0
 27 28  2  0
 27 32  1  0
 28 29  1  0
 28 49  1  0
 29 30  2  0
 29 50  1  0
 30 31  1  0
 30 51  1  0
 31 32  2  0
 31 52  1  0
 32 53  1  0
 33 34  1  0
 33 36  2  0
 34 35  1  0
 35 54  1  0
 35 55  1  0
 35 56  1  0
 36 57  1  0
M  END

