
     RDKit          3D

 35 35  0  0  0  0  0  0  0  0999 V2000
    3.4772   -0.0002    0.9013 C   0  0  0  0  0  0  0  0  0  0  0  0
    5.0040    0.0866    0.9157 C   0  0  0  0  0  0  0  0  0  0  0  0
    5.6631   -0.5622   -0.3046 C   0  0  0  0  0  0  0  0  0  0  0  0
    7.1919   -0.4795   -0.2921 C   0  0  0  0  0  0  0  0  0  0  0  0
    7.8514   -1.0678   -1.5272 C   0  0  0  0  0  0  0  0  0  0  0  0
    7.4654   -0.2806   -2.6628 O   0  0  0  0  0  0  0  0  0  0  0  0
    7.8414   -0.7273   -3.8844 C   0  0  0  0  0  0  0  0  0  0  0  0
    8.9145   -0.1451   -4.5704 C   0  0  0  0  0  0  0  0  0  0  0  0
    9.8235    1.1213   -3.7854 Cl  0  0  0  0  0  0  0  0  0  0  0  0
    9.2661   -0.5482   -5.8633 C   0  0  0  0  0  0  0  0  0  0  0  0
    8.5495   -1.5728   -6.4868 C   0  0  0  0  0  0  0  0  0  0  0  0
    8.9186   -2.0188   -7.8653 C   0  0  0  0  0  0  0  0  0  0  0  0
    7.7788   -1.1844   -9.2775 Br  0  0  0  0  0  0  0  0  0  0  0  0
    7.4747   -2.1804   -5.8121 C   0  0  0  0  0  0  0  0  0  0  0  0
    7.1189   -1.7687   -4.5253 C   0  0  0  0  0  0  0  0  0  0  0  0
    6.1010   -2.2931   -3.8016 O   0  0  0  0  0  0  0  0  0  0  0  0
    5.2847   -3.2895   -4.3787 C   0  0  0  0  0  0  0  0  0  0  0  0
    3.0343    0.4812    1.7879 H   0  0  0  0  0  0  0  0  0  0  0  0
    3.1351   -1.0489    0.8867 H   0  0  0  0  0  0  0  0  0  0  0  0
    3.0577    0.4941    0.0090 H   0  0  0  0  0  0  0  0  0  0  0  0
    5.3918   -0.3863    1.8370 H   0  0  0  0  0  0  0  0  0  0  0  0
    5.3120    1.1466    0.9721 H   0  0  0  0  0  0  0  0  0  0  0  0
    5.2905   -0.0866   -1.2274 H   0  0  0  0  0  0  0  0  0  0  0  0
    5.3572   -1.6235   -0.3676 H   0  0  0  0  0  0  0  0  0  0  0  0
    7.5947   -1.0087    0.5902 H   0  0  0  0  0  0  0  0  0  0  0  0
    7.5112    0.5734   -0.1976 H   0  0  0  0  0  0  0  0  0  0  0  0
    7.5372   -2.1152   -1.6792 H   0  0  0  0  0  0  0  0  0  0  0  0
    8.9522   -1.0445   -1.4330 H   0  0  0  0  0  0  0  0  0  0  0  0
   10.1010   -0.0587   -6.3668 H   0  0  0  0  0  0  0  0  0  0  0  0
    8.7810   -3.0966   -8.0097 H   0  0  0  0  0  0  0  0  0  0  0  0
    9.9433   -1.7388   -8.1332 H   0  0  0  0  0  0  0  0  0  0  0  0
    6.9137   -2.9691   -6.3136 H   0  0  0  0  0  0  0  0  0  0  0  0
    4.5216   -3.5386   -3.6297 H   0  0  0  0  0  0  0  0  0  0  0  0
    5.8592   -4.2014   -4.6222 H   0  0  0  0  0  0  0  0  0  0  0  0
    4.7850   -2.9270   -5.2943 H   0  0  0  0  0  0  0  0  0  0  0  0
  1  2  1  0
  1 18  1  0
  1 19  1  0
  1 20  1  0
  2  3  1  0
  2 21  1  0
  2 22  1  0
  3  4  1  0
  3 23  1  0
  3 24  1  0
  4  5  1  0
  4 25  1  0
  4 26  1  0
  5  6  1  0
  5 27  1  0
  5 28  1  0
  6  7  1  0
  7  8  2  0
  7 15  1  0
  8  9  1  0
  8 10  1  0
 10 11  2  0
 10 29  1  0
 11 12  1  0
 11 14  1  0
 12 13  1  0
 12 30  1  0
 12 31  1  0
 14 15  2  0
 14 32  1  0
 15 16  1  0
 16 17  1  0
 17 33  1  0
 17 34  1  0
 17 35  1  0
M  END

