
     RDKit          3D

 31 32  0  0  0  0  0  0  0  0999 V2000
    0.8217    0.2127   -0.1138 C   0  0  0  0  0  0  0  0  0  0  0  0
    2.3421    0.1062    0.0210 C   0  0  0  0  0  0  0  0  0  0  0  0
    2.9676   -0.7946   -1.0495 C   0  0  0  0  0  0  0  0  0  0  0  0
    4.5094   -0.8298   -1.0560 C   0  0  1  0  0  0  0  0  0  0  0  0
    5.0933   -1.3585    0.2749 C   0  0  0  0  0  0  0  0  0  0  0  0
    6.5539   -1.4067    0.2507 N   0  0  0  0  0  0  0  0  0  0  0  0
    5.0013   -1.6246   -2.2354 C   0  0  0  0  0  0  0  0  0  0  0  0
    4.3727   -2.6376   -2.8024 N   0  0  0  0  0  0  0  0  0  0  0  0
    5.0892   -3.0972   -3.8561 N   0  0  0  0  0  0  0  0  0  0  0  0
    6.1802   -2.3526   -3.9441 C   0  0  0  0  0  0  0  0  0  0  0  0
    7.2667   -2.3768   -4.8607 C   0  0  0  0  0  0  0  0  0  0  0  0
    8.2799   -1.4643   -4.7128 C   0  0  0  0  0  0  0  0  0  0  0  0
    8.2496   -0.5115   -3.6424 C   0  0  0  0  0  0  0  0  0  0  0  0
    7.2095   -0.4901   -2.7573 C   0  0  0  0  0  0  0  0  0  0  0  0
    6.1809   -1.3944   -2.9200 N   0  0  0  0  0  0  0  0  0  0  0  0
    0.3902    0.8572    0.6684 H   0  0  0  0  0  0  0  0  0  0  0  0
    0.3440   -0.7776   -0.0320 H   0  0  0  0  0  0  0  0  0  0  0  0
    0.5346    0.6349   -1.0912 H   0  0  0  0  0  0  0  0  0  0  0  0
    2.5856   -0.2709    1.0293 H   0  0  0  0  0  0  0  0  0  0  0  0
    2.7888    1.1161   -0.0401 H   0  0  0  0  0  0  0  0  0  0  0  0
    2.6302   -0.4584   -2.0442 H   0  0  0  0  0  0  0  0  0  0  0  0
    2.5893   -1.8255   -0.9498 H   0  0  0  0  0  0  0  0  0  0  0  0
    4.8818    0.2040   -1.1756 H   0  0  0  0  0  0  0  0  0  0  0  0
    4.6146   -2.3346    0.4987 H   0  0  0  0  0  0  0  0  0  0  0  0
    4.7949   -0.6683    1.0790 H   0  0  0  0  0  0  0  0  0  0  0  0
    6.8772   -2.2379   -0.2461 H   0  0  0  0  0  0  0  0  0  0  0  0
    6.9229   -1.4873    1.1974 H   0  0  0  0  0  0  0  0  0  0  0  0
    7.2546   -3.1247   -5.6542 H   0  0  0  0  0  0  0  0  0  0  0  0
    9.1237   -1.4628   -5.4062 H   0  0  0  0  0  0  0  0  0  0  0  0
    9.0660    0.2009   -3.5145 H   0  0  0  0  0  0  0  0  0  0  0  0
    7.1508    0.1628   -1.8879 H   0  0  0  0  0  0  0  0  0  0  0  0
  1  2  1  0
  1 16  1  0
  1 17  1  0
  1 18  1  0
  2  3  1  0
  2 19  1  0
  2 20  1  0
  3  4  1  0
  3 21  1  0
  3 22  1  0
  4  5  1  0
  4  7  1  0
  4 23  1  6
  5  6  1  0
  5 24  1  0
  5 25  1  0
  6 26  1  0
  6 27  1  0
  7  8  2  0
  7 15  1  0
  8  9  1  0
  9 10  2  0
 10 11  1  0
 10 15  1  0
 11 12  2  0
 11 28  1  0
 12 13  1  0
 12 29  1  0
 13 14  2  0
 13 30  1  0
 14 15  1  0
 14 31  1  0
M  END

