
     RDKit          3D

 37 38  0  0  0  0  0  0  0  0999 V2000
    3.3557    0.5158    1.0237 O   0  0  0  0  0  0  0  0  0  0  0  0
    2.5974   -0.0573   -0.0205 C   0  0  0  0  0  0  0  0  0  0  0  0
    2.9529    0.6538   -1.3485 C   0  0  1  0  0  0  0  0  0  0  0  0
    4.4074    0.6168   -1.5827 N   0  0  0  0  0  0  0  0  0  0  0  0
    5.2767   -0.4639   -1.5218 C   0  0  0  0  0  0  0  0  0  0  0  0
    6.6524   -0.1926   -1.3031 C   0  0  0  0  0  0  0  0  0  0  0  0
    7.5976   -1.2116   -1.2752 C   0  0  0  0  0  0  0  0  0  0  0  0
    7.2301   -2.5511   -1.4566 C   0  0  0  0  0  0  0  0  0  0  0  0
    5.8813   -2.8095   -1.6665 C   0  0  0  0  0  0  0  0  0  0  0  0
    5.4787   -4.0811   -1.8445 F   0  0  0  0  0  0  0  0  0  0  0  0
    4.9075   -1.8136   -1.7047 C   0  0  0  0  0  0  0  0  0  0  0  0
    2.1576   -0.0210   -2.4918 C   0  0  0  0  0  0  0  0  0  0  0  0
    2.2169    0.6307   -3.8818 C   0  0  0  0  0  0  0  0  0  0  0  0
    1.3677    1.9048   -4.0228 C   0  0  0  0  0  0  0  0  0  0  0  0
    2.0080    3.2154   -3.5226 C   0  0  0  0  0  0  0  0  0  0  0  0
    2.9827    3.0943   -2.3386 C   0  0  0  0  0  0  0  0  0  0  0  0
    2.5678    2.1527   -1.1940 C   0  0  0  0  0  0  0  0  0  0  0  0
    3.3107   -0.0613    1.7946 H   0  0  0  0  0  0  0  0  0  0  0  0
    1.5085    0.0556    0.1564 H   0  0  0  0  0  0  0  0  0  0  0  0
    2.8022   -1.1389   -0.1144 H   0  0  0  0  0  0  0  0  0  0  0  0
    4.8561    1.4535   -1.2289 H   0  0  0  0  0  0  0  0  0  0  0  0
    6.9691    0.8437   -1.1556 H   0  0  0  0  0  0  0  0  0  0  0  0
    8.6476   -0.9603   -1.1038 H   0  0  0  0  0  0  0  0  0  0  0  0
    7.9515   -3.3686   -1.4366 H   0  0  0  0  0  0  0  0  0  0  0  0
    3.8835   -2.1270   -1.8880 H   0  0  0  0  0  0  0  0  0  0  0  0
    1.1006   -0.0706   -2.1749 H   0  0  0  0  0  0  0  0  0  0  0  0
    2.4822   -1.0665   -2.5844 H   0  0  0  0  0  0  0  0  0  0  0  0
    1.8437   -0.1134   -4.6051 H   0  0  0  0  0  0  0  0  0  0  0  0
    3.2667    0.8209   -4.1632 H   0  0  0  0  0  0  0  0  0  0  0  0
    0.4131    1.7339   -3.4937 H   0  0  0  0  0  0  0  0  0  0  0  0
    1.0895    2.0410   -5.0814 H   0  0  0  0  0  0  0  0  0  0  0  0
    1.1979    3.9180   -3.2594 H   0  0  0  0  0  0  0  0  0  0  0  0
    2.5533    3.6957   -4.3535 H   0  0  0  0  0  0  0  0  0  0  0  0
    3.1352    4.1044   -1.9228 H   0  0  0  0  0  0  0  0  0  0  0  0
    3.9700    2.7821   -2.7145 H   0  0  0  0  0  0  0  0  0  0  0  0
    1.4783    2.2079   -1.0290 H   0  0  0  0  0  0  0  0  0  0  0  0
    3.0282    2.4955   -0.2539 H   0  0  0  0  0  0  0  0  0  0  0  0
  1  2  1  0
  1 18  1  0
  2  3  1  0
  2 19  1  0
  2 20  1  0
  3  4  1  6
  3 12  1  0
  3 17  1  0
  4  5  1  0
  4 21  1  0
  5  6  2  0
  5 11  1  0
  6  7  1  0
  6 22  1  0
  7  8  2  0
  7 23  1  0
  8  9  1  0
  8 24  1  0
  9 10  1  0
  9 11  2  0
 11 25  1  0
 12 13  1  0
 12 26  1  0
 12 27  1  0
 13 14  1  0
 13 28  1  0
 13 29  1  0
 14 15  1  0
 14 30  1  0
 14 31  1  0
 15 16  1  0
 15 32  1  0
 15 33  1  0
 16 17  1  0
 16 34  1  0
 16 35  1  0
 17 36  1  0
 17 37  1  0
M  END

