
     RDKit          3D

 45 45  0  0  0  0  0  0  0  0999 V2000
    1.2006    0.0249    0.7605 C   0  0  0  0  0  0  0  0  0  0  0  0
    2.5967   -0.0647    0.1849 C   0  0  0  0  0  0  0  0  0  0  0  0
    3.3973    1.0860    0.1485 C   0  0  0  0  0  0  0  0  0  0  0  0
    4.7005    1.1075   -0.3774 C   0  0  0  0  0  0  0  0  0  0  0  0
    5.5128    2.4178   -0.3771 C   0  0  1  0  0  0  0  0  0  0  0  0
    5.6883    2.9155    1.0764 C   0  0  0  0  0  0  0  0  0  0  0  0
    6.9116    2.2329   -0.9928 C   0  0  0  0  0  0  0  0  0  0  0  0
    4.7626    3.4911   -1.1994 C   0  0  0  0  0  0  0  0  0  0  0  0
    5.1930   -0.1005   -0.8904 C   0  0  0  0  0  0  0  0  0  0  0  0
    4.4111   -1.2578   -0.8658 C   0  0  0  0  0  0  0  0  0  0  0  0
    3.1161   -1.2752   -0.3318 C   0  0  0  0  0  0  0  0  0  0  0  0
    2.3408   -2.5807   -0.3262 C   0  0  0  0  0  0  0  0  0  0  0  0
    2.8262   -3.6111    0.7146 C   0  0  0  0  0  0  0  0  0  0  0  0
    2.6118   -3.1944    2.1709 C   0  0  0  0  0  0  0  0  0  0  0  0
    3.1363   -4.2227    3.1772 C   0  0  0  0  0  0  0  0  0  0  0  0
    2.7475   -3.8765    4.6092 C   0  0  0  0  0  0  0  0  0  0  0  0
    1.6404   -3.4667    4.9190 O   0  0  0  0  0  0  0  0  0  0  0  0
    3.7265   -4.0731    5.5432 N   0  0  0  0  0  0  0  0  0  0  0  0
    3.5203   -3.8440    6.9048 N   0  0  0  0  0  0  0  0  0  0  0  0
    0.9857    1.0444    1.1124 H   0  0  0  0  0  0  0  0  0  0  0  0
    1.0590   -0.6571    1.6140 H   0  0  0  0  0  0  0  0  0  0  0  0
    0.4320   -0.2352    0.0131 H   0  0  0  0  0  0  0  0  0  0  0  0
    2.9710    2.0081    0.5528 H   0  0  0  0  0  0  0  0  0  0  0  0
    6.2270    2.1722    1.6855 H   0  0  0  0  0  0  0  0  0  0  0  0
    4.7207    3.1088    1.5639 H   0  0  0  0  0  0  0  0  0  0  0  0
    6.2655    3.8549    1.0961 H   0  0  0  0  0  0  0  0  0  0  0  0
    7.5116    1.4962   -0.4358 H   0  0  0  0  0  0  0  0  0  0  0  0
    7.4586    3.1888   -0.9715 H   0  0  0  0  0  0  0  0  0  0  0  0
    6.8584    1.9062   -2.0432 H   0  0  0  0  0  0  0  0  0  0  0  0
    3.7660    3.7045   -0.7837 H   0  0  0  0  0  0  0  0  0  0  0  0
    4.6267    3.1648   -2.2428 H   0  0  0  0  0  0  0  0  0  0  0  0
    5.3296    4.4369   -1.2089 H   0  0  0  0  0  0  0  0  0  0  0  0
    6.1924   -0.1569   -1.3226 H   0  0  0  0  0  0  0  0  0  0  0  0
    4.8240   -2.1812   -1.2847 H   0  0  0  0  0  0  0  0  0  0  0  0
    2.4272   -3.0419   -1.3250 H   0  0  0  0  0  0  0  0  0  0  0  0
    1.2674   -2.3945   -0.1709 H   0  0  0  0  0  0  0  0  0  0  0  0
    3.8988   -3.8151    0.5429 H   0  0  0  0  0  0  0  0  0  0  0  0
    2.3030   -4.5672    0.5314 H   0  0  0  0  0  0  0  0  0  0  0  0
    1.5387   -3.0430    2.3718 H   0  0  0  0  0  0  0  0  0  0  0  0
    3.1021   -2.2232    2.3576 H   0  0  0  0  0  0  0  0  0  0  0  0
    4.2295   -4.3435    3.0845 H   0  0  0  0  0  0  0  0  0  0  0  0
    2.6931   -5.2117    2.9586 H   0  0  0  0  0  0  0  0  0  0  0  0
    4.6464   -4.4077    5.2827 H   0  0  0  0  0  0  0  0  0  0  0  0
    2.7199   -4.4064    7.2062 H   0  0  0  0  0  0  0  0  0  0  0  0
    3.2160   -2.8738    7.0213 H   0  0  0  0  0  0  0  0  0  0  0  0
  1  2  1  0
  1 20  1  0
  1 21  1  0
  1 22  1  0
  2  3  2  0
  2 11  1  0
  3  4  1  0
  3 23  1  0
  4  5  1  0
  4  9  2  0
  5  6  1  1
  5  7  1  0
  5  8  1  0
  6 24  1  0
  6 25  1  0
  6 26  1  0
  7 27  1  0
  7 28  1  0
  7 29  1  0
  8 30  1  0
  8 31  1  0
  8 32  1  0
  9 10  1  0
  9 33  1  0
 10 11  2  0
 10 34  1  0
 11 12  1  0
 12 13  1  0
 12 35  1  0
 12 36  1  0
 13 14  1  0
 13 37  1  0
 13 38  1  0
 14 15  1  0
 14 39  1  0
 14 40  1  0
 15 16  1  0
 15 41  1  0
 15 42  1  0
 16 17  2  0
 16 18  1  0
 18 19  1  0
 18 43  1  0
 19 44  1  0
 19 45  1  0
M  END

