
     RDKit          3D

 39 41  0  0  0  0  0  0  0  0999 V2000
    1.0594    0.0465    0.5712 C   0  0  0  0  0  0  0  0  0  0  0  0
    2.5760   -0.0807    0.6325 C   0  0  0  0  0  0  0  0  0  0  0  0
    3.1242   -1.1492    0.4161 O   0  0  0  0  0  0  0  0  0  0  0  0
    3.2978    1.0551    0.9395 N   0  0  0  0  0  0  0  0  0  0  0  0
    4.7512    0.9708    1.0519 C   0  0  0  0  0  0  0  0  0  0  0  0
    5.4284    2.0549    0.2094 C   0  0  0  0  0  0  0  0  0  0  0  0
    4.8767    3.3687    0.5431 N   0  0  0  0  0  0  0  0  0  0  0  0
    5.6994    4.3307    1.0526 C   0  0  0  0  0  0  0  0  0  0  0  0
    6.9122    4.1936    1.1572 O   0  0  0  0  0  0  0  0  0  0  0  0
    5.0596    5.6119    1.6175 C   0  0  0  0  0  0  0  0  0  0  0  0
    4.1057    5.5064    2.3801 O   0  0  0  0  0  0  0  0  0  0  0  0
    5.6632    6.9092    1.3014 C   0  0  0  0  0  0  0  0  0  0  0  0
    5.0869    8.0663    1.8103 C   0  0  0  0  0  0  0  0  0  0  0  0
    5.7460    9.1603    1.3446 N   0  0  0  0  0  0  0  0  0  0  0  0
    5.5158   10.1196    1.5713 H   0  0  0  0  0  0  0  0  0  0  0  0
    6.7806    8.7653    0.5128 C   0  0  0  0  0  0  0  0  0  0  0  0
    7.7075    9.5583   -0.1754 C   0  0  0  0  0  0  0  0  0  0  0  0
    8.6490    8.8783   -0.9331 C   0  0  0  0  0  0  0  0  0  0  0  0
    9.5621    9.5863   -1.6171 F   0  0  0  0  0  0  0  0  0  0  0  0
    8.6919    7.4765   -1.0082 C   0  0  0  0  0  0  0  0  0  0  0  0
    7.7659    6.7054   -0.3130 C   0  0  0  0  0  0  0  0  0  0  0  0
    6.7734    7.3423    0.4588 C   0  0  0  0  0  0  0  0  0  0  0  0
    3.4287    3.4468    0.3839 C   0  0  0  0  0  0  0  0  0  0  0  0
    2.7454    2.3693    1.2366 C   0  0  0  0  0  0  0  0  0  0  0  0
    0.6598   -0.9473    0.3375 H   0  0  0  0  0  0  0  0  0  0  0  0
    0.7362    0.7520   -0.2109 H   0  0  0  0  0  0  0  0  0  0  0  0
    0.6359    0.3877    1.5291 H   0  0  0  0  0  0  0  0  0  0  0  0
    5.0520   -0.0319    0.7237 H   0  0  0  0  0  0  0  0  0  0  0  0
    5.0495    1.0956    2.1100 H   0  0  0  0  0  0  0  0  0  0  0  0
    5.2587    1.8545   -0.8638 H   0  0  0  0  0  0  0  0  0  0  0  0
    6.5087    2.0822    0.3966 H   0  0  0  0  0  0  0  0  0  0  0  0
    4.2300    8.1442    2.4758 H   0  0  0  0  0  0  0  0  0  0  0  0
    7.7115   10.6486   -0.1317 H   0  0  0  0  0  0  0  0  0  0  0  0
    9.4731    7.0120   -1.6129 H   0  0  0  0  0  0  0  0  0  0  0  0
    7.8232    5.6186   -0.3432 H   0  0  0  0  0  0  0  0  0  0  0  0
    3.1844    3.2745   -0.6809 H   0  0  0  0  0  0  0  0  0  0  0  0
    3.0616    4.4352    0.6738 H   0  0  0  0  0  0  0  0  0  0  0  0
    1.6659    2.3839    1.0466 H   0  0  0  0  0  0  0  0  0  0  0  0
    2.9057    2.6232    2.3014 H   0  0  0  0  0  0  0  0  0  0  0  0
  1  2  1  0
  1 25  1  0
  1 26  1  0
  1 27  1  0
  2  3  2  0
  2  4  1  0
  4  5  1  0
  4 24  1  0
  5  6  1  0
  5 28  1  0
  5 29  1  0
  6  7  1  0
  6 30  1  0
  6 31  1  0
  7  8  1  0
  7 23  1  0
  8  9  2  0
  8 10  1  0
 10 11  2  0
 10 12  1  0
 12 13  2  0
 12 22  1  0
 13 14  1  0
 13 32  1  0
 14 15  1  0
 14 16  1  0
 16 17  1  0
 16 22  2  0
 17 18  2  0
 17 33  1  0
 18 19  1  0
 18 20  1  0
 20 21  2  0
 20 34  1  0
 21 22  1  0
 21 35  1  0
 23 24  1  0
 23 36  1  0
 23 37  1  0
 24 38  1  0
 24 39  1  0
M  END

