
     RDKit          3D

 55 57  0  0  0  0  0  0  0  0999 V2000
    1.9473   -3.0502   -0.4435 C   0  0  0  0  0  0  0  0  0  0  0  0
    3.2298   -2.3894   -0.3462 N   0  0  0  0  0  0  0  0  0  0  0  0
    3.4311   -1.1081   -0.7816 C   0  0  0  0  0  0  0  0  0  0  0  0
    2.5441   -0.4129   -1.2563 O   0  0  0  0  0  0  0  0  0  0  0  0
    4.8751   -0.6236   -0.6348 C   0  0  1  0  0  0  0  0  0  0  0  0
    5.7997   -1.3289   -1.6735 C   0  0  0  0  0  0  0  0  0  0  0  0
    7.2079   -1.3560   -1.3268 N   0  0  0  0  0  0  0  0  0  0  0  0
    7.5402   -2.2000   -0.1908 C   0  0  0  0  0  0  0  0  0  0  0  0
    7.2517   -3.6702   -0.4481 C   0  0  0  0  0  0  0  0  0  0  0  0
    8.1408   -4.4447   -1.2094 C   0  0  0  0  0  0  0  0  0  0  0  0
    7.8549   -5.7925   -1.4085 C   0  0  0  0  0  0  0  0  0  0  0  0
    6.6928   -6.3264   -0.8473 C   0  0  0  0  0  0  0  0  0  0  0  0
    5.8420   -5.4860   -0.1167 C   0  0  0  0  0  0  0  0  0  0  0  0
    4.5624   -5.9971    0.4952 C   0  0  0  0  0  0  0  0  0  0  0  0
    6.1253   -4.1837    0.0667 N   0  0  0  0  0  0  0  0  0  0  0  0
    7.9950   -0.1404   -1.5249 C   0  0  0  0  0  0  0  0  0  0  0  0
    7.2199    1.2000   -1.5688 C   0  0  0  0  0  0  0  0  0  0  0  0
    6.2819    1.4893   -0.4950 N   0  0  0  0  0  0  0  0  0  0  0  0
    6.8233    1.4621    0.8709 C   0  0  1  0  0  0  0  0  0  0  0  0
    8.0419    2.4033    1.0106 C   0  0  0  0  0  0  0  0  0  0  0  0
    7.6268    3.8713    0.8999 C   0  0  0  0  0  0  0  0  0  0  0  0
    6.6578    4.2133    1.8719 O   0  0  0  0  0  0  0  0  0  0  0  0
    5.4857    3.4252    1.7803 C   0  0  0  0  0  0  0  0  0  0  0  0
    5.7979    1.9345    1.9240 C   0  0  0  0  0  0  0  0  0  0  0  0
    4.9597    0.9113   -0.7227 C   0  0  0  0  0  0  0  0  0  0  0  0
    1.9664   -3.8935   -1.1572 H   0  0  0  0  0  0  0  0  0  0  0  0
    1.2166   -2.3123   -0.8007 H   0  0  0  0  0  0  0  0  0  0  0  0
    1.6155   -3.4345    0.5360 H   0  0  0  0  0  0  0  0  0  0  0  0
    4.0304   -2.9094    0.0108 H   0  0  0  0  0  0  0  0  0  0  0  0
    5.2073   -0.9448    0.3673 H   0  0  0  0  0  0  0  0  0  0  0  0
    5.6718   -0.8481   -2.6574 H   0  0  0  0  0  0  0  0  0  0  0  0
    5.4582   -2.3666   -1.8057 H   0  0  0  0  0  0  0  0  0  0  0  0
    7.0094   -1.9239    0.7457 H   0  0  0  0  0  0  0  0  0  0  0  0
    8.6167   -2.0902    0.0086 H   0  0  0  0  0  0  0  0  0  0  0  0
    9.0396   -3.9877   -1.6287 H   0  0  0  0  0  0  0  0  0  0  0  0
    8.5319   -6.4263   -1.9875 H   0  0  0  0  0  0  0  0  0  0  0  0
    6.4437   -7.3822   -0.9745 H   0  0  0  0  0  0  0  0  0  0  0  0
    4.4961   -7.0934    0.4503 H   0  0  0  0  0  0  0  0  0  0  0  0
    3.6865   -5.5830   -0.0319 H   0  0  0  0  0  0  0  0  0  0  0  0
    4.4876   -5.6781    1.5463 H   0  0  0  0  0  0  0  0  0  0  0  0
    8.5664   -0.1917   -2.4764 H   0  0  0  0  0  0  0  0  0  0  0  0
    8.7536   -0.0885   -0.7270 H   0  0  0  0  0  0  0  0  0  0  0  0
    6.6548    1.2571   -2.5119 H   0  0  0  0  0  0  0  0  0  0  0  0
    7.9816    1.9963   -1.6452 H   0  0  0  0  0  0  0  0  0  0  0  0
    7.1495    0.4381    1.1588 H   0  0  0  0  0  0  0  0  0  0  0  0
    8.8289    2.1773    0.2748 H   0  0  0  0  0  0  0  0  0  0  0  0
    8.4883    2.2355    2.0048 H   0  0  0  0  0  0  0  0  0  0  0  0
    7.2384    4.0753   -0.1182 H   0  0  0  0  0  0  0  0  0  0  0  0
    8.4889    4.5344    1.0734 H   0  0  0  0  0  0  0  0  0  0  0  0
    4.9701    3.6150    0.8177 H   0  0  0  0  0  0  0  0  0  0  0  0
    4.8205    3.7625    2.5905 H   0  0  0  0  0  0  0  0  0  0  0  0
    4.8694    1.3449    1.8960 H   0  0  0  0  0  0  0  0  0  0  0  0
    6.2423    1.7644    2.9188 H   0  0  0  0  0  0  0  0  0  0  0  0
    4.6199    1.2182   -1.7250 H   0  0  0  0  0  0  0  0  0  0  0  0
    4.2305    1.3542   -0.0322 H   0  0  0  0  0  0  0  0  0  0  0  0
  1  2  1  0
  1 26  1  0
  1 27  1  0
  1 28  1  0
  2  3  1  0
  2 29  1  0
  3  4  2  0
  3  5  1  0
  5  6  1  0
  5 25  1  0
  5 30  1  1
  6  7  1  0
  6 31  1  0
  6 32  1  0
  7  8  1  0
  7 16  1  0
  8  9  1  0
  8 33  1  0
  8 34  1  0
  9 10  2  0
  9 15  1  0
 10 11  1  0
 10 35  1  0
 11 12  2  0
 11 36  1  0
 12 13  1  0
 12 37  1  0
 13 14  1  0
 13 15  2  0
 14 38  1  0
 14 39  1  0
 14 40  1  0
 16 17  1  0
 16 41  1  0
 16 42  1  0
 17 18  1  0
 17 43  1  0
 17 44  1  0
 18 19  1  0
 18 25  1  0
 19 20  1  0
 19 24  1  0
 19 45  1  1
 20 21  1  0
 20 46  1  0
 20 47  1  0
 21 22  1  0
 21 48  1  0
 21 49  1  0
 22 23  1  0
 23 24  1  0
 23 50  1  0
 23 51  1  0
 24 52  1  0
 24 53  1  0
 25 54  1  0
 25 55  1  0
M  END

