
     RDKit          3D

 33 32  0  0  0  0  0  0  0  0999 V2000
    0.9330   -0.3576   -0.3158 C   0  0  0  0  0  0  0  0  0  0  0  0
    2.4396   -0.2017   -0.1326 C   0  0  0  0  0  0  0  0  0  0  0  0
    2.7990    0.8152    1.3501 S   0  0  0  0  0  0  0  0  0  0  0  0
    4.6311    0.8152    1.2968 C   0  0  0  0  0  0  0  0  0  0  0  0
    5.1918    1.6355    2.4596 C   0  0  0  0  0  0  0  0  0  0  0  0
    6.7329    1.5974    2.5993 C   0  0  1  0  0  0  0  0  0  0  0  0
    7.4487    2.2263    1.4005 C   0  0  0  0  0  0  0  0  0  0  0  0
    7.2227    2.2351    3.8209 N   0  0  0  0  0  0  0  0  0  0  0  0
    6.8972    1.6105    5.0884 C   0  0  0  0  0  0  0  0  0  0  0  0
    7.6878    2.2558    6.2286 C   0  0  0  0  0  0  0  0  0  0  0  0
    7.3997    1.5917    7.5867 C   0  0  0  0  0  0  0  0  0  0  0  0
    8.1290    2.2068    8.6980 C   0  0  0  0  0  0  0  0  0  0  0  0
    8.7107    2.7046    9.5677 N   0  0  0  0  0  0  0  0  0  0  0  0
    0.7156   -0.9682   -1.2068 H   0  0  0  0  0  0  0  0  0  0  0  0
    0.4437    0.6205   -0.4469 H   0  0  0  0  0  0  0  0  0  0  0  0
    0.4741   -0.8520    0.5550 H   0  0  0  0  0  0  0  0  0  0  0  0
    2.8900    0.2842   -1.0145 H   0  0  0  0  0  0  0  0  0  0  0  0
    2.9205   -1.1871   -0.0131 H   0  0  0  0  0  0  0  0  0  0  0  0
    4.9542    1.2253    0.3264 H   0  0  0  0  0  0  0  0  0  0  0  0
    4.9909   -0.2271    1.3553 H   0  0  0  0  0  0  0  0  0  0  0  0
    4.7414    1.2607    3.3941 H   0  0  0  0  0  0  0  0  0  0  0  0
    4.8681    2.6877    2.3577 H   0  0  0  0  0  0  0  0  0  0  0  0
    7.0377    0.5353    2.6618 H   0  0  0  0  0  0  0  0  0  0  0  0
    7.1614    3.2863    1.2864 H   0  0  0  0  0  0  0  0  0  0  0  0
    7.2055    1.7130    0.4580 H   0  0  0  0  0  0  0  0  0  0  0  0
    8.5377    2.1857    1.5488 H   0  0  0  0  0  0  0  0  0  0  0  0
    6.9675    3.2232    3.8289 H   0  0  0  0  0  0  0  0  0  0  0  0
    7.1679    0.5410    5.0196 H   0  0  0  0  0  0  0  0  0  0  0  0
    5.8139    1.6309    5.3478 H   0  0  0  0  0  0  0  0  0  0  0  0
    7.4378    3.3290    6.2927 H   0  0  0  0  0  0  0  0  0  0  0  0
    8.7630    2.1986    5.9979 H   0  0  0  0  0  0  0  0  0  0  0  0
    7.6653    0.5208    7.5548 H   0  0  0  0  0  0  0  0  0  0  0  0
    6.3216    1.6375    7.8188 H   0  0  0  0  0  0  0  0  0  0  0  0
  1  2  1  0
  1 14  1  0
  1 15  1  0
  1 16  1  0
  2  3  1  0
  2 17  1  0
  2 18  1  0
  3  4  1  0
  4  5  1  0
  4 19  1  0
  4 20  1  0
  5  6  1  0
  5 21  1  0
  5 22  1  0
  6  7  1  0
  6  8  1  0
  6 23  1  1
  7 24  1  0
  7 25  1  0
  7 26  1  0
  8  9  1  0
  8 27  1  0
  9 10  1  0
  9 28  1  0
  9 29  1  0
 10 11  1  0
 10 30  1  0
 10 31  1  0
 11 12  1  0
 11 32  1  0
 11 33  1  0
 12 13  3  0
M  END

