
     RDKit          3D

 38 40  0  0  0  0  0  0  0  0999 V2000
    1.5933    3.3954    0.0001 C   0  0  0  0  0  0  0  0  0  0  0  0
    3.0298    2.9277   -0.2354 C   0  0  0  0  0  0  0  0  0  0  0  0
    3.0824    1.5721   -0.9506 C   0  0  0  0  0  0  0  0  0  0  0  0
    4.4305    1.0654   -1.2212 N   0  0  0  0  0  0  0  0  0  0  0  0
    5.0432    0.0798   -0.3428 C   0  0  0  0  0  0  0  0  0  0  0  0
    5.7965    0.6403    0.8518 C   0  0  1  0  0  0  0  0  0  0  0  0
    5.1031    0.8685    2.1711 C   0  0  0  0  0  0  0  0  0  0  0  0
    6.0931   -0.2595    2.0243 C   0  0  0  0  0  0  0  0  0  0  0  0
    5.1010    1.5857   -2.2875 C   0  0  0  0  0  0  0  0  0  0  0  0
    4.6221    2.4862   -3.0941 N   0  0  0  0  0  0  0  0  0  0  0  0
    5.5120    2.7843   -4.0987 C   0  0  0  0  0  0  0  0  0  0  0  0
    6.7232    2.1289   -4.0729 C   0  0  0  0  0  0  0  0  0  0  0  0
    6.7613    1.0422   -2.7056 S   0  0  0  0  0  0  0  0  0  0  0  0
    7.8379    2.3045   -5.0597 C   0  0  0  0  0  0  0  0  0  0  0  0
    7.6871    3.6611   -5.7660 C   0  0  0  0  0  0  0  0  0  0  0  0
    6.2551    3.8871   -6.2651 C   0  0  0  0  0  0  0  0  0  0  0  0
    5.1935    3.7655   -5.1696 C   0  0  0  0  0  0  0  0  0  0  0  0
    4.1590    4.3984   -5.2025 O   0  0  0  0  0  0  0  0  0  0  0  0
    1.5702    4.3713    0.5096 H   0  0  0  0  0  0  0  0  0  0  0  0
    1.0289    2.6820    0.6254 H   0  0  0  0  0  0  0  0  0  0  0  0
    1.0478    3.5065   -0.9515 H   0  0  0  0  0  0  0  0  0  0  0  0
    3.5692    2.8578    0.7240 H   0  0  0  0  0  0  0  0  0  0  0  0
    3.5650    3.6639   -0.8557 H   0  0  0  0  0  0  0  0  0  0  0  0
    2.5559    1.6573   -1.9146 H   0  0  0  0  0  0  0  0  0  0  0  0
    2.5624    0.8054   -0.3523 H   0  0  0  0  0  0  0  0  0  0  0  0
    5.7265   -0.5434   -0.9467 H   0  0  0  0  0  0  0  0  0  0  0  0
    4.2496   -0.5998    0.0119 H   0  0  0  0  0  0  0  0  0  0  0  0
    6.5793    1.3579    0.5822 H   0  0  0  0  0  0  0  0  0  0  0  0
    4.0423    0.6086    2.2464 H   0  0  0  0  0  0  0  0  0  0  0  0
    5.3893    1.7420    2.7634 H   0  0  0  0  0  0  0  0  0  0  0  0
    5.7019   -1.2819    1.9967 H   0  0  0  0  0  0  0  0  0  0  0  0
    7.0669   -0.1710    2.5137 H   0  0  0  0  0  0  0  0  0  0  0  0
    7.8140    1.4865   -5.8059 H   0  0  0  0  0  0  0  0  0  0  0  0
    8.8199    2.2336   -4.5629 H   0  0  0  0  0  0  0  0  0  0  0  0
    8.3979    3.7271   -6.6054 H   0  0  0  0  0  0  0  0  0  0  0  0
    7.9553    4.4640   -5.0578 H   0  0  0  0  0  0  0  0  0  0  0  0
    6.0037    3.1340   -7.0368 H   0  0  0  0  0  0  0  0  0  0  0  0
    6.1319    4.8728   -6.7378 H   0  0  0  0  0  0  0  0  0  0  0  0
  1  2  1  0
  1 19  1  0
  1 20  1  0
  1 21  1  0
  2  3  1  0
  2 22  1  0
  2 23  1  0
  3  4  1  0
  3 24  1  0
  3 25  1  0
  4  5  1  0
  4  9  1  0
  5  6  1  0
  5 26  1  0
  5 27  1  0
  6  7  1  0
  6  8  1  0
  6 28  1  6
  7  8  1  0
  7 29  1  0
  7 30  1  0
  8 31  1  0
  8 32  1  0
  9 10  2  0
  9 13  1  0
 10 11  1  0
 11 12  1  0
 11 17  2  0
 12 13  2  0
 12 14  1  0
 14 15  1  0
 14 33  1  0
 14 34  1  0
 15 16  1  0
 15 35  1  0
 15 36  1  0
 16 17  1  0
 16 37  1  0
 16 38  1  0
 17 18  1  0
M  CHG  2  13   1  18  -1
M  END

