
     RDKit          3D

 30 31  0  0  0  0  0  0  0  0999 V2000
    1.1560    0.2092    0.2657 C   0  0  0  0  0  0  0  0  0  0  0  0
    2.6008    0.1422    0.1469 N   0  0  0  0  0  0  0  0  0  0  0  0
    3.5082    1.1164    0.4080 C   0  0  0  0  0  0  0  0  0  0  0  0
    4.7684    0.5734    0.1810 C   0  0  0  0  0  0  0  0  0  0  0  0
    6.1037    1.2054    0.3767 C   0  0  0  0  0  0  0  0  0  0  0  0
    7.0926    0.5533    0.6600 O   0  0  0  0  0  0  0  0  0  0  0  0
    6.0975    2.5757    0.2235 N   0  0  0  0  0  0  0  0  0  0  0  0
    7.1569    3.4764    0.4096 C   0  0  0  0  0  0  0  0  0  0  0  0
    8.4546    3.1246    0.8059 C   0  0  0  0  0  0  0  0  0  0  0  0
    9.4403    4.1036    0.9694 C   0  0  0  0  0  0  0  0  0  0  0  0
    9.1326    5.4421    0.7341 C   0  0  0  0  0  0  0  0  0  0  0  0
   10.3563    6.6765    0.9323 Cl  0  0  0  0  0  0  0  0  0  0  0  0
    7.8448    5.8192    0.3359 C   0  0  0  0  0  0  0  0  0  0  0  0
    6.8653    4.8416    0.1765 C   0  0  0  0  0  0  0  0  0  0  0  0
    5.5843    5.1278   -0.2065 O   0  0  0  0  0  0  0  0  0  0  0  0
    4.4834   -0.7637   -0.2202 C   0  0  0  0  0  0  0  0  0  0  0  0
    5.4453   -1.8625   -0.5996 C   0  0  1  0  0  0  0  0  0  0  0  0
    6.3730   -1.4152   -1.4601 F   0  0  0  0  0  0  0  0  0  0  0  0
    6.0819   -2.3560    0.4711 F   0  0  0  0  0  0  0  0  0  0  0  0
    4.8013   -2.8792   -1.1890 F   0  0  0  0  0  0  0  0  0  0  0  0
    3.1786   -0.9997   -0.2388 N   0  0  0  0  0  0  0  0  0  0  0  0
    0.8630    1.2357    0.5212 H   0  0  0  0  0  0  0  0  0  0  0  0
    0.8068   -0.4771    1.0514 H   0  0  0  0  0  0  0  0  0  0  0  0
    0.6915   -0.0775   -0.6885 H   0  0  0  0  0  0  0  0  0  0  0  0
    3.2040    2.1001    0.7610 H   0  0  0  0  0  0  0  0  0  0  0  0
    5.2482    3.0053   -0.1247 H   0  0  0  0  0  0  0  0  0  0  0  0
    8.6799    2.0745    0.9776 H   0  0  0  0  0  0  0  0  0  0  0  0
   10.4478    3.8213    1.2771 H   0  0  0  0  0  0  0  0  0  0  0  0
    7.6119    6.8710    0.1543 H   0  0  0  0  0  0  0  0  0  0  0  0
    5.4914    6.0743   -0.3744 H   0  0  0  0  0  0  0  0  0  0  0  0
  1  2  1  0
  1 22  1  0
  1 23  1  0
  1 24  1  0
  2  3  1  0
  2 21  1  0
  3  4  2  0
  3 25  1  0
  4  5  1  0
  4 16  1  0
  5  6  2  0
  5  7  1  0
  7  8  1  0
  7 26  1  0
  8  9  2  0
  8 14  1  0
  9 10  1  0
  9 27  1  0
 10 11  2  0
 10 28  1  0
 11 12  1  0
 11 13  1  0
 13 14  2  0
 13 29  1  0
 14 15  1  0
 15 30  1  0
 16 17  1  0
 16 21  2  0
 17 18  1  6
 17 19  1  0
 17 20  1  0
M  END

