
     RDKit          3D

 34 35  0  0  0  0  0  0  0  0999 V2000
    1.0726    0.3412   -0.3825 C   0  0  0  0  0  0  0  0  0  0  0  0
    2.5931    0.1969   -0.4489 C   0  0  0  0  0  0  0  0  0  0  0  0
    3.0812   -0.6627   -1.6267 C   0  0  1  0  0  0  0  0  0  0  0  0
    2.6887   -0.1628   -3.0344 C   0  0  0  0  0  0  0  0  0  0  0  0
    3.0254    1.2886   -3.3811 C   0  0  0  0  0  0  0  0  0  0  0  0
    4.5356   -0.8732   -1.5173 N   0  0  0  0  0  0  0  0  0  0  0  0
    5.3891    0.1688   -1.5533 N   0  0  0  0  0  0  0  0  0  0  0  0
    6.5825   -0.3159   -1.5395 N   0  0  0  0  0  0  0  0  0  0  0  0
    6.5566   -1.6585   -1.4852 N   0  0  0  0  0  0  0  0  0  0  0  0
    5.2779   -2.0128   -1.4653 C   0  0  0  0  0  0  0  0  0  0  0  0
    4.8163   -3.4067   -1.4389 C   0  0  0  0  0  0  0  0  0  0  0  0
    5.4729   -4.3690   -2.2335 C   0  0  0  0  0  0  0  0  0  0  0  0
    5.1243   -5.7114   -2.2037 C   0  0  0  0  0  0  0  0  0  0  0  0
    4.0941   -6.1709   -1.3504 C   0  0  0  0  0  0  0  0  0  0  0  0
    3.7664   -7.5034   -1.2894 N   0  0  0  0  0  0  0  0  0  0  0  0
    3.4425   -5.2274   -0.5305 C   0  0  0  0  0  0  0  0  0  0  0  0
    3.8173   -3.8930   -0.5842 C   0  0  0  0  0  0  0  0  0  0  0  0
    3.1875   -3.0369    0.2459 F   0  0  0  0  0  0  0  0  0  0  0  0
    0.7774    0.8960    0.5215 H   0  0  0  0  0  0  0  0  0  0  0  0
    0.5759   -0.6429   -0.3424 H   0  0  0  0  0  0  0  0  0  0  0  0
    0.6653    0.8867   -1.2483 H   0  0  0  0  0  0  0  0  0  0  0  0
    2.9573   -0.2784    0.4761 H   0  0  0  0  0  0  0  0  0  0  0  0
    3.0751    1.1860   -0.4988 H   0  0  0  0  0  0  0  0  0  0  0  0
    2.6472   -1.6640   -1.5135 H   0  0  0  0  0  0  0  0  0  0  0  0
    1.6019   -0.3238   -3.1364 H   0  0  0  0  0  0  0  0  0  0  0  0
    3.1569   -0.8414   -3.7680 H   0  0  0  0  0  0  0  0  0  0  0  0
    2.4949    1.9994   -2.7278 H   0  0  0  0  0  0  0  0  0  0  0  0
    2.7244    1.5087   -4.4176 H   0  0  0  0  0  0  0  0  0  0  0  0
    4.1015    1.4892   -3.2831 H   0  0  0  0  0  0  0  0  0  0  0  0
    6.2811   -4.0300   -2.8841 H   0  0  0  0  0  0  0  0  0  0  0  0
    5.6549   -6.4245   -2.8394 H   0  0  0  0  0  0  0  0  0  0  0  0
    4.0950   -8.1185   -2.0218 H   0  0  0  0  0  0  0  0  0  0  0  0
    2.9001   -7.7764   -0.8449 H   0  0  0  0  0  0  0  0  0  0  0  0
    2.6571   -5.5229    0.1680 H   0  0  0  0  0  0  0  0  0  0  0  0
  1  2  1  0
  1 19  1  0
  1 20  1  0
  1 21  1  0
  2  3  1  0
  2 22  1  0
  2 23  1  0
  3  4  1  0
  3  6  1  0
  3 24  1  1
  4  5  1  0
  4 25  1  0
  4 26  1  0
  5 27  1  0
  5 28  1  0
  5 29  1  0
  6  7  1  0
  6 10  1  0
  7  8  2  0
  8  9  1  0
  9 10  2  0
 10 11  1  0
 11 12  2  0
 11 17  1  0
 12 13  1  0
 12 30  1  0
 13 14  2  0
 13 31  1  0
 14 15  1  0
 14 16  1  0
 15 32  1  0
 15 33  1  0
 16 17  2  0
 16 34  1  0
 17 18  1  0
M  END

