
     RDKit          3D

 39 41  0  0  0  0  0  0  0  0999 V2000
    2.1567   -1.9954    3.0875 C   0  0  0  0  0  0  0  0  0  0  0  0
    3.4926   -1.6645    2.4700 C   0  0  0  0  0  0  0  0  0  0  0  0
    4.3679   -0.7236    3.0433 C   0  0  0  0  0  0  0  0  0  0  0  0
    5.5846   -0.4525    2.4282 C   0  0  0  0  0  0  0  0  0  0  0  0
    5.9123   -1.1277    1.2441 C   0  0  0  0  0  0  0  0  0  0  0  0
    7.1086   -0.8369    0.6736 O   0  0  0  0  0  0  0  0  0  0  0  0
    7.4837   -1.4875   -0.5234 C   0  0  0  0  0  0  0  0  0  0  0  0
    8.8441   -1.0068   -0.9753 C   0  0  0  0  0  0  0  0  0  0  0  0
    9.5869   -0.0510   -0.2718 C   0  0  0  0  0  0  0  0  0  0  0  0
   10.8314    0.3271   -0.7761 C   0  0  0  0  0  0  0  0  0  0  0  0
   11.3049   -0.2516   -1.9608 C   0  0  0  0  0  0  0  0  0  0  0  0
   12.6316    0.1469   -2.5689 C   0  0  0  0  0  0  0  0  0  0  0  0
   13.6517    0.3729   -1.5556 N   0  0  0  0  0  0  0  0  0  0  0  0
   14.9017    0.8750   -2.0513 C   0  0  1  0  0  0  0  0  0  0  0  0
   16.1840    0.4938   -1.3780 C   0  0  0  0  0  0  0  0  0  0  0  0
   15.9078    0.0045   -2.7842 C   0  0  0  0  0  0  0  0  0  0  0  0
   10.4787   -1.2072   -2.5717 C   0  0  0  0  0  0  0  0  0  0  0  0
    9.2869   -1.5735   -2.1021 N   0  0  0  0  0  0  0  0  0  0  0  0
    4.9800   -2.0519    0.7414 C   0  0  0  0  0  0  0  0  0  0  0  0
    3.8151   -2.3035    1.3410 N   0  0  0  0  0  0  0  0  0  0  0  0
    2.0049   -1.4751    4.0443 H   0  0  0  0  0  0  0  0  0  0  0  0
    2.0714   -3.0804    3.2576 H   0  0  0  0  0  0  0  0  0  0  0  0
    1.3372   -1.7155    2.4052 H   0  0  0  0  0  0  0  0  0  0  0  0
    4.0939   -0.2083    3.9672 H   0  0  0  0  0  0  0  0  0  0  0  0
    6.2911    0.2707    2.8421 H   0  0  0  0  0  0  0  0  0  0  0  0
    6.7501   -1.2907   -1.3279 H   0  0  0  0  0  0  0  0  0  0  0  0
    7.5204   -2.5843   -0.3835 H   0  0  0  0  0  0  0  0  0  0  0  0
    9.1884    0.3790    0.6470 H   0  0  0  0  0  0  0  0  0  0  0  0
   11.4515    1.0614   -0.2565 H   0  0  0  0  0  0  0  0  0  0  0  0
   12.5039    1.0955   -3.1244 H   0  0  0  0  0  0  0  0  0  0  0  0
   12.9237   -0.6052   -3.3341 H   0  0  0  0  0  0  0  0  0  0  0  0
   13.7873   -0.4641   -0.9907 H   0  0  0  0  0  0  0  0  0  0  0  0
   14.8261    1.9128   -2.4008 H   0  0  0  0  0  0  0  0  0  0  0  0
   16.1337   -0.2383   -0.5648 H   0  0  0  0  0  0  0  0  0  0  0  0
   16.9437    1.2656   -1.2261 H   0  0  0  0  0  0  0  0  0  0  0  0
   15.6633   -1.0555   -2.9085 H   0  0  0  0  0  0  0  0  0  0  0  0
   16.4804    0.4346   -3.6116 H   0  0  0  0  0  0  0  0  0  0  0  0
   10.8109   -1.7019   -3.4940 H   0  0  0  0  0  0  0  0  0  0  0  0
    5.1806   -2.6101   -0.1783 H   0  0  0  0  0  0  0  0  0  0  0  0
  1  2  1  0
  1 21  1  0
  1 22  1  0
  1 23  1  0
  2  3  2  0
  2 20  1  0
  3  4  1  0
  3 24  1  0
  4  5  2  0
  4 25  1  0
  5  6  1  0
  5 19  1  0
  6  7  1  0
  7  8  1  0
  7 26  1  0
  7 27  1  0
  8  9  2  0
  8 18  1  0
  9 10  1  0
  9 28  1  0
 10 11  2  0
 10 29  1  0
 11 12  1  0
 11 17  1  0
 12 13  1  0
 12 30  1  0
 12 31  1  0
 13 14  1  0
 13 32  1  0
 14 15  1  0
 14 16  1  0
 14 33  1  6
 15 16  1  0
 15 34  1  0
 15 35  1  0
 16 36  1  0
 16 37  1  0
 17 18  2  0
 17 38  1  0
 19 20  2  0
 19 39  1  0
M  END

