
     RDKit          3D

 33 33  0  0  0  0  0  0  0  0999 V2000
    0.9847    0.2462    0.1248 C   0  0  0  0  0  0  0  0  0  0  0  0
    2.7881    0.1653    0.0487 S   0  0  1  0  0  0  0  0  0  0  0  0
    3.1608   -0.0965   -1.3487 O   0  0  0  0  0  0  0  0  0  0  0  0
    3.3136    1.3410    0.7586 O   0  0  0  0  0  0  0  0  0  0  0  0
    3.2133   -1.3098    1.0288 C   0  0  0  0  0  0  0  0  0  0  0  0
    4.7287   -1.4924    1.0487 C   0  0  0  0  0  0  0  0  0  0  0  0
    5.1662   -2.6868    1.8983 C   0  0  0  0  0  0  0  0  0  0  0  0
    6.6083   -2.8385    1.8677 N   0  0  0  0  0  0  0  0  0  0  0  0
    7.1448   -3.9439    2.6324 C   0  0  1  0  0  0  0  0  0  0  0  0
    6.9601   -5.3373    2.0104 C   0  0  0  0  0  0  0  0  0  0  0  0
    8.1012   -6.2078    2.6151 C   0  0  0  0  0  0  0  0  0  0  0  0
    9.0826   -5.2175    3.2937 C   0  0  0  0  0  0  0  0  0  0  0  0
    8.6713   -3.8363    2.7658 C   0  0  2  0  0  0  0  0  0  0  0  0
    9.1111   -2.7236    3.5130 O   0  0  0  0  0  0  0  0  0  0  0  0
    0.7209    1.1355   -0.4642 H   0  0  0  0  0  0  0  0  0  0  0  0
    0.6648    0.3713    1.1676 H   0  0  0  0  0  0  0  0  0  0  0  0
    0.5561   -0.6548   -0.3331 H   0  0  0  0  0  0  0  0  0  0  0  0
    2.6980   -2.1611    0.5568 H   0  0  0  0  0  0  0  0  0  0  0  0
    2.8009   -1.1437    2.0366 H   0  0  0  0  0  0  0  0  0  0  0  0
    5.1879   -0.5683    1.4393 H   0  0  0  0  0  0  0  0  0  0  0  0
    5.0985   -1.6218    0.0201 H   0  0  0  0  0  0  0  0  0  0  0  0
    4.7060   -3.6070    1.4967 H   0  0  0  0  0  0  0  0  0  0  0  0
    4.7629   -2.5733    2.9335 H   0  0  0  0  0  0  0  0  0  0  0  0
    7.0564   -1.9804    2.1937 H   0  0  0  0  0  0  0  0  0  0  0  0
    6.7333   -3.9672    3.6744 H   0  0  0  0  0  0  0  0  0  0  0  0
    7.0768   -5.2362    0.9191 H   0  0  0  0  0  0  0  0  0  0  0  0
    5.9630   -5.7650    2.1938 H   0  0  0  0  0  0  0  0  0  0  0  0
    8.6010   -6.7924    1.8281 H   0  0  0  0  0  0  0  0  0  0  0  0
    7.7130   -6.9376    3.3417 H   0  0  0  0  0  0  0  0  0  0  0  0
   10.1419   -5.4429    3.1008 H   0  0  0  0  0  0  0  0  0  0  0  0
    8.9483   -5.2263    4.3907 H   0  0  0  0  0  0  0  0  0  0  0  0
    9.0776   -3.6819    1.7510 H   0  0  0  0  0  0  0  0  0  0  0  0
    8.8326   -2.8507    4.4312 H   0  0  0  0  0  0  0  0  0  0  0  0
  2  1  1  6
  1 15  1  0
  1 16  1  0
  1 17  1  0
  2  3  2  0
  2  4  2  0
  2  5  1  0
  5  6  1  0
  5 18  1  0
  5 19  1  0
  6  7  1  0
  6 20  1  0
  6 21  1  0
  7  8  1  0
  7 22  1  0
  7 23  1  0
  8  9  1  0
  8 24  1  0
  9 10  1  0
  9 13  1  0
  9 25  1  1
 10 11  1  0
 10 26  1  0
 10 27  1  0
 11 12  1  0
 11 28  1  0
 11 29  1  0
 12 13  1  0
 12 30  1  0
 12 31  1  0
 13 14  1  0
 13 32  1  6
 14 33  1  0
M  END

