
     RDKit          3D

 24 25  0  0  0  0  0  0  0  0999 V2000
    1.1047   -0.2040   -0.1891 C   0  0  0  0  0  0  0  0  0  0  0  0
    2.4989   -0.0689    0.0240 O   0  0  0  0  0  0  0  0  0  0  0  0
    3.0358    1.1485    0.1225 C   0  0  0  0  0  0  0  0  0  0  0  0
    2.0672    2.6192   -0.0861 S   0  0  0  0  0  0  0  0  0  0  0  0
    3.4949    3.6213    0.1744 C   0  0  0  0  0  0  0  0  0  0  0  0
    3.5294    5.0248    0.1675 C   0  0  0  0  0  0  0  0  0  0  0  0
    2.2850    5.8479   -0.1049 C   0  0  0  0  0  0  0  0  0  0  0  0
    2.3694    7.1819    0.3352 O   0  0  0  0  0  0  0  0  0  0  0  0
    4.7670    5.6335    0.3964 C   0  0  0  0  0  0  0  0  0  0  0  0
    5.9218    4.8674    0.6337 C   0  0  0  0  0  0  0  0  0  0  0  0
    5.8728    3.4774    0.6422 C   0  0  0  0  0  0  0  0  0  0  0  0
    4.6457    2.8294    0.4074 C   0  0  0  0  0  0  0  0  0  0  0  0
    4.3622    1.4097    0.3711 C   0  0  0  0  0  0  0  0  0  0  0  0
    5.5506    0.1297    0.6991 S   0  0  0  0  0  0  0  0  0  0  0  0
    0.8977   -1.2811   -0.2244 H   0  0  0  0  0  0  0  0  0  0  0  0
    0.7993    0.2566   -1.1450 H   0  0  0  0  0  0  0  0  0  0  0  0
    0.5275    0.2514    0.6344 H   0  0  0  0  0  0  0  0  0  0  0  0
    1.4029    5.3277    0.3252 H   0  0  0  0  0  0  0  0  0  0  0  0
    2.1083    5.8979   -1.1940 H   0  0  0  0  0  0  0  0  0  0  0  0
    2.5228    7.1712    1.2901 H   0  0  0  0  0  0  0  0  0  0  0  0
    4.8179    6.7240    0.3864 H   0  0  0  0  0  0  0  0  0  0  0  0
    6.8727    5.3756    0.8137 H   0  0  0  0  0  0  0  0  0  0  0  0
    6.7639    2.8756    0.8338 H   0  0  0  0  0  0  0  0  0  0  0  0
    6.1025    0.0703   -0.5400 H   0  0  0  0  0  0  0  0  0  0  0  0
  1  2  1  0
  1 15  1  0
  1 16  1  0
  1 17  1  0
  2  3  1  0
  3  4  1  0
  3 13  2  0
  4  5  1  0
  5  6  2  0
  5 12  1  0
  6  7  1  0
  6  9  1  0
  7  8  1  0
  7 18  1  0
  7 19  1  0
  8 20  1  0
  9 10  2  0
  9 21  1  0
 10 11  1  0
 10 22  1  0
 11 12  2  0
 11 23  1  0
 12 13  1  0
 13 14  1  0
 14 24  1  0
M  END

