
     RDKit          3D

 62 64  0  0  0  0  0  0  0  0999 V2000
   13.2585    1.3217   -1.2948 C   0  0  0  0  0  0  0  0  0  0  0  0
   12.5320    0.2827   -2.0848 C   0  0  0  0  0  0  0  0  0  0  0  0
   12.6331   -1.0027   -1.7836 N   0  0  0  0  0  0  0  0  0  0  0  0
   11.8700   -1.6715   -2.6843 N   0  0  0  0  0  0  0  0  0  0  0  0
   11.7497   -3.1207   -2.5615 C   0  0  0  0  0  0  0  0  0  0  0  0
   10.5690   -3.5718   -1.7191 C   0  0  0  0  0  0  0  0  0  0  0  0
   10.4109   -3.1030   -0.4037 C   0  0  0  0  0  0  0  0  0  0  0  0
    9.3405   -3.5459    0.3739 C   0  0  0  0  0  0  0  0  0  0  0  0
    8.4134   -4.4528   -0.1498 C   0  0  0  0  0  0  0  0  0  0  0  0
    8.5511   -4.9203   -1.4641 C   0  0  0  0  0  0  0  0  0  0  0  0
    7.6124   -5.9085   -2.1144 C   0  0  0  0  0  0  0  0  0  0  0  0
    7.9488   -6.5442   -3.1049 O   0  0  0  0  0  0  0  0  0  0  0  0
    6.3823   -6.0456   -1.5394 N   0  0  0  0  0  0  0  0  0  0  0  0
    5.3676   -6.9622   -2.0684 C   0  0  2  0  0  0  0  0  0  0  0  0
    5.9401   -7.8001   -2.4976 H   0  0  0  0  0  0  0  0  0  0  0  0
    4.5766   -6.3198   -3.2125 C   0  0  0  0  0  0  0  0  0  0  0  0
    4.5297   -7.4982   -0.9113 C   0  0  0  0  0  0  0  0  0  0  0  0
    5.1540   -8.2438    0.0997 C   0  0  0  0  0  0  0  0  0  0  0  0
    4.4332   -8.7522    1.1820 C   0  0  0  0  0  0  0  0  0  0  0  0
    3.0494   -8.5398    1.3070 C   0  0  0  0  0  0  0  0  0  0  0  0
    2.2174   -9.0861    2.4838 C   0  0  1  0  0  0  0  0  0  0  0  0
    3.0785   -9.8699    3.4906 C   0  0  0  0  0  0  0  0  0  0  0  0
    1.5507   -7.9085    3.2323 C   0  0  0  0  0  0  0  0  0  0  0  0
    1.1233  -10.0350    1.9418 C   0  0  0  0  0  0  0  0  0  0  0  0
    2.4310   -7.7933    0.2898 C   0  0  0  0  0  0  0  0  0  0  0  0
    3.1498   -7.2833   -0.7945 C   0  0  0  0  0  0  0  0  0  0  0  0
    9.6402   -4.4804   -2.2327 C   0  0  0  0  0  0  0  0  0  0  0  0
   11.2547   -0.8604   -3.5769 C   0  0  0  0  0  0  0  0  0  0  0  0
   10.3593   -1.3650   -4.6597 C   0  0  0  0  0  0  0  0  0  0  0  0
   11.6731    0.4285   -3.2169 C   0  0  0  0  0  0  0  0  0  0  0  0
   11.3195    1.6620   -3.8568 N   0  0  0  0  0  0  0  0  0  0  0  0
   11.7495    2.6966   -3.3592 O   0  0  0  0  0  0  0  0  0  0  0  0
   10.6144    1.6243   -4.8605 O   0  0  0  0  0  0  0  0  0  0  0  0
   13.8466    0.8315   -0.5069 H   0  0  0  0  0  0  0  0  0  0  0  0
   12.5554    2.0358   -0.8405 H   0  0  0  0  0  0  0  0  0  0  0  0
   13.9257    1.9140   -1.9386 H   0  0  0  0  0  0  0  0  0  0  0  0
   12.6959   -3.4548   -2.1113 H   0  0  0  0  0  0  0  0  0  0  0  0
   11.6857   -3.5556   -3.5683 H   0  0  0  0  0  0  0  0  0  0  0  0
   11.1345   -2.3931    0.0047 H   0  0  0  0  0  0  0  0  0  0  0  0
    9.2319   -3.1911    1.4017 H   0  0  0  0  0  0  0  0  0  0  0  0
    7.6013   -4.8103    0.4881 H   0  0  0  0  0  0  0  0  0  0  0  0
    6.0940   -5.3969   -0.8172 H   0  0  0  0  0  0  0  0  0  0  0  0
    3.8494   -7.0284   -3.6381 H   0  0  0  0  0  0  0  0  0  0  0  0
    5.2728   -6.0257   -4.0108 H   0  0  0  0  0  0  0  0  0  0  0  0
    4.0318   -5.4217   -2.8797 H   0  0  0  0  0  0  0  0  0  0  0  0
    6.2298   -8.4321    0.0390 H   0  0  0  0  0  0  0  0  0  0  0  0
    4.9720   -9.3284    1.9345 H   0  0  0  0  0  0  0  0  0  0  0  0
    3.8658   -9.2415    3.9360 H   0  0  0  0  0  0  0  0  0  0  0  0
    3.5603  -10.7449    3.0268 H   0  0  0  0  0  0  0  0  0  0  0  0
    2.4465  -10.2393    4.3135 H   0  0  0  0  0  0  0  0  0  0  0  0
    2.3078   -7.2169    3.6352 H   0  0  0  0  0  0  0  0  0  0  0  0
    0.9470   -8.2811    4.0762 H   0  0  0  0  0  0  0  0  0  0  0  0
    0.8833   -7.3292    2.5763 H   0  0  0  0  0  0  0  0  0  0  0  0
    1.5698  -10.8874    1.4055 H   0  0  0  0  0  0  0  0  0  0  0  0
    0.4419   -9.5219    1.2462 H   0  0  0  0  0  0  0  0  0  0  0  0
    0.5153  -10.4345    2.7703 H   0  0  0  0  0  0  0  0  0  0  0  0
    1.3567   -7.5985    0.3339 H   0  0  0  0  0  0  0  0  0  0  0  0
    2.6140   -6.7136   -1.5559 H   0  0  0  0  0  0  0  0  0  0  0  0
    9.7390   -4.8816   -3.2443 H   0  0  0  0  0  0  0  0  0  0  0  0
   10.9354   -1.9177   -5.4216 H   0  0  0  0  0  0  0  0  0  0  0  0
    9.8695   -0.5189   -5.1518 H   0  0  0  0  0  0  0  0  0  0  0  0
    9.5958   -2.0481   -4.2565 H   0  0  0  0  0  0  0  0  0  0  0  0
  1  2  1  0
  1 34  1  0
  1 35  1  0
  1 36  1  0
  2  3  2  0
  2 30  1  0
  3  4  1  0
  4  5  1  0
  4 28  1  0
  5  6  1  0
  5 37  1  0
  5 38  1  0
  6  7  2  0
  6 27  1  0
  7  8  1  0
  7 39  1  0
  8  9  2  0
  8 40  1  0
  9 10  1  0
  9 41  1  0
 10 11  1  0
 10 27  2  0
 11 12  2  0
 11 13  1  0
 13 14  1  0
 13 42  1  0
 14 15  1  6
 14 16  1  0
 14 17  1  0
 16 43  1  0
 16 44  1  0
 16 45  1  0
 17 18  2  0
 17 26  1  0
 18 19  1  0
 18 46  1  0
 19 20  2  0
 19 47  1  0
 20 21  1  0
 20 25  1  0
 21 22  1  1
 21 23  1  0
 21 24  1  0
 22 48  1  0
 22 49  1  0
 22 50  1  0
 23 51  1  0
 23 52  1  0
 23 53  1  0
 24 54  1  0
 24 55  1  0
 24 56  1  0
 25 26  2  0
 25 57  1  0
 26 58  1  0
 27 59  1  0
 28 29  1  0
 28 30  2  0
 29 60  1  0
 29 61  1  0
 29 62  1  0
 30 31  1  0
 31 32  2  0
 31 33  1  0
M  CHG  2  31   1  33  -1
M  END

