
     RDKit          3D

 31 31  0  0  0  0  0  0  0  0999 V2000
    1.2375    0.2352    0.1855 C   0  0  0  0  0  0  0  0  0  0  0  0
    2.7113   -0.1611    0.0182 C   0  0  1  0  0  0  0  0  0  0  0  0
    3.1464   -1.0568    1.1851 C   0  0  0  0  0  0  0  0  0  0  0  0
    2.9008   -0.8932   -1.3389 C   0  0  0  0  0  0  0  0  0  0  0  0
    2.1306   -2.0738   -1.4437 O   0  0  0  0  0  0  0  0  0  0  0  0
    3.4837    1.1045    0.0108 N   0  0  0  0  0  0  0  0  0  0  0  0
    5.1612    1.2399    0.0652 S   0  0  1  0  0  0  0  0  0  0  0  0
    5.8150   -0.0197   -0.3250 O   0  0  0  0  0  0  0  0  0  0  0  0
    5.4360    2.4863   -0.6553 O   0  0  0  0  0  0  0  0  0  0  0  0
    5.5353    1.4918    1.7897 C   0  0  0  0  0  0  0  0  0  0  0  0
    6.4576    0.6658    2.4461 C   0  0  0  0  0  0  0  0  0  0  0  0
    6.7788    0.9409    3.7653 C   0  0  0  0  0  0  0  0  0  0  0  0
    6.1658    2.0540    4.3952 C   0  0  0  0  0  0  0  0  0  0  0  0
    6.4173    2.3660    5.6974 N   0  0  0  0  0  0  0  0  0  0  0  0
    5.2915    2.8496    3.7510 N   0  0  0  0  0  0  0  0  0  0  0  0
    4.9931    2.5772    2.4868 C   0  0  0  0  0  0  0  0  0  0  0  0
    0.6038   -0.6573    0.0838 H   0  0  0  0  0  0  0  0  0  0  0  0
    0.9314    0.9519   -0.5950 H   0  0  0  0  0  0  0  0  0  0  0  0
    1.0618    0.6993    1.1676 H   0  0  0  0  0  0  0  0  0  0  0  0
    2.5188   -1.9603    1.2003 H   0  0  0  0  0  0  0  0  0  0  0  0
    3.0187   -0.5389    2.1475 H   0  0  0  0  0  0  0  0  0  0  0  0
    4.1974   -1.3646    1.0879 H   0  0  0  0  0  0  0  0  0  0  0  0
    3.9758   -1.0818   -1.4957 H   0  0  0  0  0  0  0  0  0  0  0  0
    2.5623   -0.2176   -2.1440 H   0  0  0  0  0  0  0  0  0  0  0  0
    2.6338   -2.8013   -1.0589 H   0  0  0  0  0  0  0  0  0  0  0  0
    3.1559    1.7951   -0.6641 H   0  0  0  0  0  0  0  0  0  0  0  0
    6.9067   -0.1743    1.9128 H   0  0  0  0  0  0  0  0  0  0  0  0
    7.4905    0.3168    4.3105 H   0  0  0  0  0  0  0  0  0  0  0  0
    7.1748    1.9265    6.1999 H   0  0  0  0  0  0  0  0  0  0  0  0
    6.0419    3.2379    6.0485 H   0  0  0  0  0  0  0  0  0  0  0  0
    4.2825    3.2482    1.9916 H   0  0  0  0  0  0  0  0  0  0  0  0
  1  2  1  0
  1 17  1  0
  1 18  1  0
  1 19  1  0
  2  3  1  0
  2  4  1  0
  2  6  1  6
  3 20  1  0
  3 21  1  0
  3 22  1  0
  4  5  1  0
  4 23  1  0
  4 24  1  0
  5 25  1  0
  7  6  1  1
  6 26  1  0
  7  8  2  0
  7  9  2  0
  7 10  1  0
 10 11  2  0
 10 16  1  0
 11 12  1  0
 11 27  1  0
 12 13  2  0
 12 28  1  0
 13 14  1  0
 13 15  1  0
 14 29  1  0
 14 30  1  0
 15 16  2  0
 16 31  1  0
M  END

