
     RDKit          3D

 51 53  0  0  0  0  0  0  0  0999 V2000
    1.3201    2.4972    1.6461 C   0  0  0  0  0  0  0  0  0  0  0  0
    2.1218    1.4983    1.2687 C   0  0  0  0  0  0  0  0  0  0  0  0
    2.8596    1.4375   -0.0489 C   0  0  0  0  0  0  0  0  0  0  0  0
    4.3672    1.3185    0.1150 C   0  0  0  0  0  0  0  0  0  0  0  0
    5.1823    2.4095   -0.1924 C   0  0  0  0  0  0  0  0  0  0  0  0
    6.5629    2.3781    0.0478 C   0  0  0  0  0  0  0  0  0  0  0  0
    7.3540    3.6030   -0.3236 C   0  0  0  0  0  0  0  0  0  0  0  0
    6.9054    4.4493   -1.0815 O   0  0  0  0  0  0  0  0  0  0  0  0
    8.5976    3.6979    0.2618 N   0  0  0  0  0  0  0  0  0  0  0  0
    9.5624    4.6921    0.0780 C   0  0  0  0  0  0  0  0  0  0  0  0
    9.4480    5.8022   -0.7650 C   0  0  0  0  0  0  0  0  0  0  0  0
   10.5159    6.7073   -0.8397 C   0  0  0  0  0  0  0  0  0  0  0  0
   11.6551    6.4782   -0.0756 C   0  0  0  0  0  0  0  0  0  0  0  0
   11.7734    5.4150    0.7343 N   0  0  0  0  0  0  0  0  0  0  0  0
   10.7772    4.5673    0.8060 C   0  0  0  0  0  0  0  0  0  0  0  0
   10.8604    3.4512    1.5979 O   0  0  0  0  0  0  0  0  0  0  0  0
   11.8905    3.2541    2.5042 C   0  0  0  0  0  0  0  0  0  0  0  0
   12.2139    4.2023    3.4798 C   0  0  0  0  0  0  0  0  0  0  0  0
   13.2044    3.9009    4.4168 C   0  0  0  0  0  0  0  0  0  0  0  0
   13.8636    2.6669    4.3870 C   0  0  0  0  0  0  0  0  0  0  0  0
   13.5270    1.7272    3.4090 C   0  0  0  0  0  0  0  0  0  0  0  0
   12.5415    2.0196    2.4619 C   0  0  0  0  0  0  0  0  0  0  0  0
    7.1307    1.2210    0.5874 C   0  0  0  0  0  0  0  0  0  0  0  0
    6.3447    0.1009    0.8969 C   0  0  0  0  0  0  0  0  0  0  0  0
    7.0215   -0.9338    1.4552 O   0  0  0  0  0  0  0  0  0  0  0  0
    6.5912   -2.2802    1.3598 C   0  0  0  0  0  0  0  0  0  0  0  0
    4.9515    0.1495    0.6538 C   0  0  0  0  0  0  0  0  0  0  0  0
    4.1741   -0.9188    1.0288 O   0  0  0  0  0  0  0  0  0  0  0  0
    3.5416   -1.7064    0.0279 C   0  0  0  0  0  0  0  0  0  0  0  0
    0.8102    2.4845    2.6136 H   0  0  0  0  0  0  0  0  0  0  0  0
    1.1421    3.3670    1.0044 H   0  0  0  0  0  0  0  0  0  0  0  0
    2.2840    0.6489    1.9424 H   0  0  0  0  0  0  0  0  0  0  0  0
    2.6380    2.3411   -0.6364 H   0  0  0  0  0  0  0  0  0  0  0  0
    2.4731    0.5875   -0.6371 H   0  0  0  0  0  0  0  0  0  0  0  0
    4.7523    3.3195   -0.6139 H   0  0  0  0  0  0  0  0  0  0  0  0
    8.8559    2.9983    0.9480 H   0  0  0  0  0  0  0  0  0  0  0  0
    8.5332    5.9383   -1.3375 H   0  0  0  0  0  0  0  0  0  0  0  0
   10.4513    7.5825   -1.4895 H   0  0  0  0  0  0  0  0  0  0  0  0
   12.5082    7.1640   -0.1083 H   0  0  0  0  0  0  0  0  0  0  0  0
   11.6999    5.1634    3.4998 H   0  0  0  0  0  0  0  0  0  0  0  0
   13.4612    4.6398    5.1801 H   0  0  0  0  0  0  0  0  0  0  0  0
   14.6364    2.4396    5.1251 H   0  0  0  0  0  0  0  0  0  0  0  0
   14.0349    0.7600    3.3775 H   0  0  0  0  0  0  0  0  0  0  0  0
   12.2650    1.3011    1.6877 H   0  0  0  0  0  0  0  0  0  0  0  0
    8.2033    1.1161    0.7630 H   0  0  0  0  0  0  0  0  0  0  0  0
    7.4500   -2.8910    1.6734 H   0  0  0  0  0  0  0  0  0  0  0  0
    6.3297   -2.5521    0.3220 H   0  0  0  0  0  0  0  0  0  0  0  0
    5.7342   -2.4903    2.0155 H   0  0  0  0  0  0  0  0  0  0  0  0
    3.7700   -2.7675    0.2224 H   0  0  0  0  0  0  0  0  0  0  0  0
    3.9006   -1.4489   -0.9816 H   0  0  0  0  0  0  0  0  0  0  0  0
    2.4474   -1.5765    0.0663 H   0  0  0  0  0  0  0  0  0  0  0  0
  1  2  2  0
  1 30  1  0
  1 31  1  0
  2  3  1  0
  2 32  1  0
  3  4  1  0
  3 33  1  0
  3 34  1  0
  4  5  2  0
  4 27  1  0
  5  6  1  0
  5 35  1  0
  6  7  1  0
  6 23  2  0
  7  8  2  0
  7  9  1  0
  9 10  1  0
  9 36  1  0
 10 11  2  0
 10 15  1  0
 11 12  1  0
 11 37  1  0
 12 13  2  0
 12 38  1  0
 13 14  1  0
 13 39  1  0
 14 15  2  0
 15 16  1  0
 16 17  1  0
 17 18  2  0
 17 22  1  0
 18 19  1  0
 18 40  1  0
 19 20  2  0
 19 41  1  0
 20 21  1  0
 20 42  1  0
 21 22  2  0
 21 43  1  0
 22 44  1  0
 23 24  1  0
 23 45  1  0
 24 25  1  0
 24 27  2  0
 25 26  1  0
 26 46  1  0
 26 47  1  0
 26 48  1  0
 27 28  1  0
 28 29  1  0
 29 49  1  0
 29 50  1  0
 29 51  1  0
M  END

