
     RDKit          3D

 56 59  0  0  0  0  0  0  0  0999 V2000
    6.7923   -2.1950   -3.2011 C   0  0  0  0  0  0  0  0  0  0  0  0
    5.6408   -2.6834   -2.5438 O   0  0  0  0  0  0  0  0  0  0  0  0
    5.5974   -2.7235   -1.1950 C   0  0  0  0  0  0  0  0  0  0  0  0
    6.6431   -2.2951   -0.3627 C   0  0  0  0  0  0  0  0  0  0  0  0
    6.5084   -2.3742    1.0247 C   0  0  0  0  0  0  0  0  0  0  0  0
    5.3395   -2.8808    1.6095 C   0  0  0  0  0  0  0  0  0  0  0  0
    5.1349   -2.9934    3.0899 C   0  0  0  0  0  0  0  0  0  0  0  0
    6.2484   -2.5348    4.0162 C   0  0  0  0  0  0  0  0  0  0  0  0
    4.0979   -3.4428    3.5407 O   0  0  0  0  0  0  0  0  0  0  0  0
    4.3022   -3.3088    0.7603 C   0  0  0  0  0  0  0  0  0  0  0  0
    4.4059   -3.2460   -0.6262 C   0  0  0  0  0  0  0  0  0  0  0  0
    3.2855   -3.7089   -1.5140 C   0  0  0  0  0  0  0  0  0  0  0  0
    2.1995   -2.2635   -1.9283 S   0  0  0  0  0  0  0  0  0  0  0  0
    1.1087   -3.0615   -3.0508 C   0  0  0  0  0  0  0  0  0  0  0  0
    1.0582   -4.3513   -3.3049 N   0  0  0  0  0  0  0  0  0  0  0  0
    0.0905   -4.5428   -4.2411 N   0  0  0  0  0  0  0  0  0  0  0  0
   -0.4475   -3.3781   -4.5384 C   0  0  0  0  0  0  0  0  0  0  0  0
   -1.5184   -3.2234   -5.5316 C   0  0  0  0  0  0  0  0  0  0  0  0
   -1.6303   -4.2182   -6.5278 C   0  0  0  0  0  0  0  0  0  0  0  0
   -2.6302   -4.1534   -7.4907 C   0  0  0  0  0  0  0  0  0  0  0  0
   -3.5291   -3.0837   -7.4607 C   0  0  0  0  0  0  0  0  0  0  0  0
   -4.5865   -3.0016   -8.4869 N   0  0  0  0  0  0  0  0  0  0  0  0
   -4.6296   -3.8882   -9.3251 O   0  0  0  0  0  0  0  0  0  0  0  0
   -5.3519   -2.0514   -8.4348 O   0  0  0  0  0  0  0  0  0  0  0  0
   -3.4560   -2.0942   -6.4817 C   0  0  0  0  0  0  0  0  0  0  0  0
   -2.4531   -2.1691   -5.5161 C   0  0  0  0  0  0  0  0  0  0  0  0
    0.1765   -2.3796   -3.7992 N   0  0  0  0  0  0  0  0  0  0  0  0
    0.0587   -0.9295   -3.8920 C   0  0  0  0  0  0  0  0  0  0  0  0
   -0.9587   -0.2850   -2.9628 C   0  0  0  0  0  0  0  0  0  0  0  0
   -1.4070   -0.9109   -1.7922 C   0  0  0  0  0  0  0  0  0  0  0  0
   -2.3135   -0.2633   -0.9464 C   0  0  0  0  0  0  0  0  0  0  0  0
   -2.7792    1.0163   -1.2577 C   0  0  0  0  0  0  0  0  0  0  0  0
   -2.3357    1.6478   -2.4242 C   0  0  0  0  0  0  0  0  0  0  0  0
   -1.4337    0.9998   -3.2708 C   0  0  0  0  0  0  0  0  0  0  0  0
    6.5884   -2.2665   -4.2774 H   0  0  0  0  0  0  0  0  0  0  0  0
    7.6848   -2.7998   -2.9630 H   0  0  0  0  0  0  0  0  0  0  0  0
    6.9923   -1.1407   -2.9418 H   0  0  0  0  0  0  0  0  0  0  0  0
    7.5647   -1.8985   -0.7880 H   0  0  0  0  0  0  0  0  0  0  0  0
    7.3376   -2.0329    1.6475 H   0  0  0  0  0  0  0  0  0  0  0  0
    6.4810   -1.4689    3.8599 H   0  0  0  0  0  0  0  0  0  0  0  0
    7.1752   -3.1026    3.8337 H   0  0  0  0  0  0  0  0  0  0  0  0
    5.9271   -2.6881    5.0541 H   0  0  0  0  0  0  0  0  0  0  0  0
    3.3965   -3.7041    1.2262 H   0  0  0  0  0  0  0  0  0  0  0  0
    2.6561   -4.4586   -1.0189 H   0  0  0  0  0  0  0  0  0  0  0  0
    3.6487   -4.1223   -2.4620 H   0  0  0  0  0  0  0  0  0  0  0  0
   -0.9153   -5.0417   -6.5230 H   0  0  0  0  0  0  0  0  0  0  0  0
   -2.7267   -4.9104   -8.2684 H   0  0  0  0  0  0  0  0  0  0  0  0
   -4.1892   -1.2883   -6.4809 H   0  0  0  0  0  0  0  0  0  0  0  0
   -2.4306   -1.4160   -4.7289 H   0  0  0  0  0  0  0  0  0  0  0  0
   -0.1674   -0.6709   -4.9370 H   0  0  0  0  0  0  0  0  0  0  0  0
    1.0615   -0.5193   -3.6825 H   0  0  0  0  0  0  0  0  0  0  0  0
   -1.0492   -1.9095   -1.5336 H   0  0  0  0  0  0  0  0  0  0  0  0
   -2.6553   -0.7654   -0.0379 H   0  0  0  0  0  0  0  0  0  0  0  0
   -3.4882    1.5198   -0.5960 H   0  0  0  0  0  0  0  0  0  0  0  0
   -2.6978    2.6469   -2.6795 H   0  0  0  0  0  0  0  0  0  0  0  0
   -1.0962    1.4986   -4.1846 H   0  0  0  0  0  0  0  0  0  0  0  0
  1  2  1  0
  1 35  1  0
  1 36  1  0
  1 37  1  0
  2  3  1  0
  3  4  2  0
  3 11  1  0
  4  5  1  0
  4 38  1  0
  5  6  2  0
  5 39  1  0
  6  7  1  0
  6 10  1  0
  7  8  1  0
  7  9  2  0
  8 40  1  0
  8 41  1  0
  8 42  1  0
 10 11  2  0
 10 43  1  0
 11 12  1  0
 12 13  1  0
 12 44  1  0
 12 45  1  0
 13 14  2  0
 14 15  1  0
 14 27  1  0
 15 16  2  0
 16 17  1  0
 17 18  1  0
 17 27  2  0
 18 19  2  0
 18 26  1  0
 19 20  1  0
 19 46  1  0
 20 21  2  0
 20 47  1  0
 21 22  1  0
 21 25  1  0
 22 23  1  0
 22 24  1  0
 25 26  2  0
 25 48  1  0
 26 49  1  0
 27 28  1  0
 28 29  1  0
 28 50  1  0
 28 51  1  0
 29 30  2  0
 29 34  1  0
 30 31  1  0
 30 52  1  0
 31 32  2  0
 31 53  1  0
 32 33  1  0
 32 54  1  0
 33 34  2  0
 33 55  1  0
 34 56  1  0
M  CHG  4  13   1  23  -1  24  -1  27   1
M  END

