
     RDKit          3D

 55 56  0  0  0  0  0  0  0  0999 V2000
    0.5859    0.9101   -6.2275 C   0  0  0  0  0  0  0  0  0  0  0  0
    1.0728    1.8135   -5.1066 C   0  0  0  0  0  0  0  0  0  0  0  0
    2.2017    2.6077   -5.5146 O   0  0  0  0  0  0  0  0  0  0  0  0
    3.4277    2.0606   -5.3916 C   0  0  0  0  0  0  0  0  0  0  0  0
    3.6272    0.9506   -4.9608 O   0  0  0  0  0  0  0  0  0  0  0  0
    4.4997    3.0275   -5.8526 C   0  0  0  0  0  0  0  0  0  0  0  0
    5.9074    2.4380   -5.8224 C   0  0  0  0  0  0  0  0  0  0  0  0
    6.9852    3.4345   -6.2573 C   0  0  0  0  0  0  0  0  0  0  0  0
    8.3961    2.8391   -6.2442 C   0  0  0  0  0  0  0  0  0  0  0  0
    9.4583    3.8462   -6.6679 C   0  0  0  0  0  0  0  0  0  0  0  0
   10.7828    3.3008   -6.5796 O   0  0  0  0  0  0  0  0  0  0  0  0
   11.2228    2.5947   -7.6506 C   0  0  0  0  0  0  0  0  0  0  0  0
   10.5695    2.4220   -8.6597 O   0  0  0  0  0  0  0  0  0  0  0  0
   12.4910    2.1152   -7.4542 N   0  0  0  0  0  0  0  0  0  0  0  0
   13.1198    1.2859   -8.4731 C   0  0  0  0  0  0  0  0  0  0  0  0
   14.5224    1.7995   -8.7872 C   0  0  0  0  0  0  0  0  0  0  0  0
   15.3142    1.9455   -7.5649 N   0  0  0  0  0  0  0  0  0  0  0  0
   16.6512    1.6090   -7.5483 C   0  0  0  0  0  0  0  0  0  0  0  0
   17.5248    1.9650   -6.4815 C   0  0  0  0  0  0  0  0  0  0  0  0
   18.8433    1.5460   -6.5281 C   0  0  0  0  0  0  0  0  0  0  0  0
   19.3019    0.7930   -7.6204 C   0  0  0  0  0  0  0  0  0  0  0  0
   20.7128    0.2898   -7.6742 C   0  0  1  0  0  0  0  0  0  0  0  0
   21.5871    1.2121   -7.2230 F   0  0  0  0  0  0  0  0  0  0  0  0
   20.8911   -0.8076   -6.9081 F   0  0  0  0  0  0  0  0  0  0  0  0
   21.0830   -0.0430   -8.9236 F   0  0  0  0  0  0  0  0  0  0  0  0
   18.3794    0.5158   -8.6325 C   0  0  0  0  0  0  0  0  0  0  0  0
   17.1114    0.9086   -8.6006 N   0  0  0  0  0  0  0  0  0  0  0  0
   14.6808    2.7673   -6.5451 C   0  0  0  0  0  0  0  0  0  0  0  0
   13.2650    2.2653   -6.2340 C   0  0  0  0  0  0  0  0  0  0  0  0
   -0.3249    0.3766   -5.9114 H   0  0  0  0  0  0  0  0  0  0  0  0
    1.3490    0.1602   -6.4834 H   0  0  0  0  0  0  0  0  0  0  0  0
    0.3463    1.4952   -7.1292 H   0  0  0  0  0  0  0  0  0  0  0  0
    1.3519    1.2236   -4.2209 H   0  0  0  0  0  0  0  0  0  0  0  0
    0.3031    2.5461   -4.8225 H   0  0  0  0  0  0  0  0  0  0  0  0
    4.4265    3.9258   -5.2136 H   0  0  0  0  0  0  0  0  0  0  0  0
    4.2255    3.3737   -6.8643 H   0  0  0  0  0  0  0  0  0  0  0  0
    5.9409    1.5455   -6.4700 H   0  0  0  0  0  0  0  0  0  0  0  0
    6.1226    2.0701   -4.8052 H   0  0  0  0  0  0  0  0  0  0  0  0
    6.9512    4.3219   -5.5974 H   0  0  0  0  0  0  0  0  0  0  0  0
    6.7543    3.8060   -7.2728 H   0  0  0  0  0  0  0  0  0  0  0  0
    8.4411    1.9744   -6.9266 H   0  0  0  0  0  0  0  0  0  0  0  0
    8.6390    2.4667   -5.2335 H   0  0  0  0  0  0  0  0  0  0  0  0
    9.4662    4.7177   -5.9954 H   0  0  0  0  0  0  0  0  0  0  0  0
    9.2782    4.1902   -7.6974 H   0  0  0  0  0  0  0  0  0  0  0  0
   12.4888    1.3070   -9.3701 H   0  0  0  0  0  0  0  0  0  0  0  0
   13.1814    0.2402   -8.1153 H   0  0  0  0  0  0  0  0  0  0  0  0
   14.4445    2.7816   -9.2952 H   0  0  0  0  0  0  0  0  0  0  0  0
   15.0506    1.1107   -9.4549 H   0  0  0  0  0  0  0  0  0  0  0  0
   17.1890    2.5680   -5.6400 H   0  0  0  0  0  0  0  0  0  0  0  0
   19.5281    1.8165   -5.7209 H   0  0  0  0  0  0  0  0  0  0  0  0
   18.6920   -0.0481   -9.5180 H   0  0  0  0  0  0  0  0  0  0  0  0
   14.6281    3.8238   -6.8789 H   0  0  0  0  0  0  0  0  0  0  0  0
   15.2617    2.7405   -5.6159 H   0  0  0  0  0  0  0  0  0  0  0  0
   12.7576    2.9672   -5.5636 H   0  0  0  0  0  0  0  0  0  0  0  0
   13.3392    1.2877   -5.7186 H   0  0  0  0  0  0  0  0  0  0  0  0
  1  2  1  0
  1 30  1  0
  1 31  1  0
  1 32  1  0
  2  3  1  0
  2 33  1  0
  2 34  1  0
  3  4  1  0
  4  5  2  0
  4  6  1  0
  6  7  1  0
  6 35  1  0
  6 36  1  0
  7  8  1  0
  7 37  1  0
  7 38  1  0
  8  9  1  0
  8 39  1  0
  8 40  1  0
  9 10  1  0
  9 41  1  0
  9 42  1  0
 10 11  1  0
 10 43  1  0
 10 44  1  0
 11 12  1  0
 12 13  2  0
 12 14  1  0
 14 15  1  0
 14 29  1  0
 15 16  1  0
 15 45  1  0
 15 46  1  0
 16 17  1  0
 16 47  1  0
 16 48  1  0
 17 18  1  0
 17 28  1  0
 18 19  2  0
 18 27  1  0
 19 20  1  0
 19 49  1  0
 20 21  2  0
 20 50  1  0
 21 22  1  0
 21 26  1  0
 22 23  1  1
 22 24  1  0
 22 25  1  0
 26 27  2  0
 26 51  1  0
 28 29  1  0
 28 52  1  0
 28 53  1  0
 29 54  1  0
 29 55  1  0
M  END

