
     RDKit          3D

 34 35  0  0  0  0  0  0  0  0999 V2000
    1.4119    0.5645    1.2832 C   0  0  0  0  0  0  0  0  0  0  0  0
    2.5539    0.1283    0.4138 C   0  0  0  0  0  0  0  0  0  0  0  0
    2.7419    0.7346   -0.7405 N   0  0  0  0  0  0  0  0  0  0  0  0
    4.0503    0.0807   -1.5452 S   0  0  0  0  0  0  0  0  0  0  0  0
    4.4219   -1.0621   -0.3036 C   0  0  0  0  0  0  0  0  0  0  0  0
    5.5207   -1.9396   -0.4161 N   0  0  0  0  0  0  0  0  0  0  0  0
    6.8043   -1.4672    0.1172 C   0  0  0  0  0  0  0  0  0  0  0  0
    5.2484   -3.2370   -0.8145 C   0  0  0  0  0  0  0  0  0  0  0  0
    4.1408   -3.5769   -1.1813 O   0  0  0  0  0  0  0  0  0  0  0  0
    6.4256   -4.2391   -0.8139 C   0  0  1  0  0  0  0  0  0  0  0  0
    5.9120   -5.6733   -0.7129 C   0  0  0  0  0  0  0  0  0  0  0  0
    7.2436   -4.0239   -2.0089 N   0  0  0  0  0  0  0  0  0  0  0  0
    6.8639   -4.1411   -3.3121 C   0  0  0  0  0  0  0  0  0  0  0  0
    7.9813   -3.8536   -4.0781 C   0  0  0  0  0  0  0  0  0  0  0  0
    8.9926   -3.5696   -3.1302 C   0  0  0  0  0  0  0  0  0  0  0  0
    8.5376   -3.6743   -1.8837 N   0  0  0  0  0  0  0  0  0  0  0  0
    3.5035   -0.9196    0.7258 C   0  0  0  0  0  0  0  0  0  0  0  0
    3.4501   -1.7127    1.9732 C   0  0  0  0  0  0  0  0  0  0  0  0
    2.5863   -1.6169    2.8145 O   0  0  0  0  0  0  0  0  0  0  0  0
    4.4829   -2.5769    2.1157 O   0  0  0  0  0  0  0  0  0  0  0  0
    0.8863    1.3947    0.7934 H   0  0  0  0  0  0  0  0  0  0  0  0
    1.7670    0.8809    2.2754 H   0  0  0  0  0  0  0  0  0  0  0  0
    0.7133   -0.2674    1.4579 H   0  0  0  0  0  0  0  0  0  0  0  0
    6.8960   -0.3929   -0.0947 H   0  0  0  0  0  0  0  0  0  0  0  0
    7.6431   -1.9777   -0.3722 H   0  0  0  0  0  0  0  0  0  0  0  0
    6.8584   -1.6150    1.2090 H   0  0  0  0  0  0  0  0  0  0  0  0
    7.1034   -4.0348    0.0237 H   0  0  0  0  0  0  0  0  0  0  0  0
    5.1956   -5.8938   -1.5157 H   0  0  0  0  0  0  0  0  0  0  0  0
    5.3886   -5.8173    0.2439 H   0  0  0  0  0  0  0  0  0  0  0  0
    6.7557   -6.3766   -0.7663 H   0  0  0  0  0  0  0  0  0  0  0  0
    5.8449   -4.4073   -3.5852 H   0  0  0  0  0  0  0  0  0  0  0  0
    8.0533   -3.8485   -5.1631 H   0  0  0  0  0  0  0  0  0  0  0  0
   10.0323   -3.2939   -3.3065 H   0  0  0  0  0  0  0  0  0  0  0  0
    4.3272   -3.0370    2.9586 H   0  0  0  0  0  0  0  0  0  0  0  0
  1  2  1  0
  1 21  1  0
  1 22  1  0
  1 23  1  0
  2  3  2  0
  2 17  1  0
  3  4  1  0
  4  5  2  0
  5  6  1  0
  5 17  1  0
  6  7  1  0
  6  8  1  0
  7 24  1  0
  7 25  1  0
  7 26  1  0
  8  9  2  0
  8 10  1  0
 10 11  1  0
 10 12  1  0
 10 27  1  1
 11 28  1  0
 11 29  1  0
 11 30  1  0
 12 13  1  0
 12 16  1  0
 13 14  2  0
 13 31  1  0
 14 15  1  0
 14 32  1  0
 15 16  2  0
 15 33  1  0
 17 18  2  0
 18 19  1  0
 18 20  1  0
 20 34  1  0
M  CHG  2   4   1  19  -1
M  END

