
     RDKit          3D

 43 43  0  0  0  0  0  0  0  0999 V2000
    4.6397    4.0042    4.0634 C   0  0  0  0  0  0  0  0  0  0  0  0
    5.4614    3.0613    3.3352 N   0  0  0  0  0  0  0  0  0  0  0  0
    4.9885    1.8485    2.9122 C   0  0  0  0  0  0  0  0  0  0  0  0
    3.8447    1.4737    3.1259 O   0  0  0  0  0  0  0  0  0  0  0  0
    5.9667    0.9890    2.1508 C   0  0  0  0  0  0  0  0  0  0  0  0
    7.3629    1.1238    2.2385 C   0  0  0  0  0  0  0  0  0  0  0  0
    8.2077    0.2825    1.5148 C   0  0  0  0  0  0  0  0  0  0  0  0
    7.6771   -0.7197    0.6850 C   0  0  0  0  0  0  0  0  0  0  0  0
    8.6048   -1.6408   -0.0864 C   0  0  0  0  0  0  0  0  0  0  0  0
    9.3306   -2.5841    0.7539 N   0  0  0  0  0  0  0  0  0  0  0  0
   10.6060   -2.3501    1.1868 C   0  0  0  0  0  0  0  0  0  0  0  0
   11.2269   -1.3420    0.8823 O   0  0  0  0  0  0  0  0  0  0  0  0
   11.2193   -3.4547    2.0449 C   0  0  0  0  0  0  0  0  0  0  0  0
   12.0675   -2.8839    3.1867 C   0  0  0  0  0  0  0  0  0  0  0  0
   12.9170   -3.8799    4.0227 C   0  0  1  0  0  0  0  0  0  0  0  0
   12.0275   -4.9202    4.7219 C   0  0  0  0  0  0  0  0  0  0  0  0
   13.9635   -4.5872    3.1466 C   0  0  0  0  0  0  0  0  0  0  0  0
   13.6541   -3.1632    5.0774 N   0  0  0  0  0  0  0  0  0  0  0  0
    6.2841   -0.8590    0.6077 C   0  0  0  0  0  0  0  0  0  0  0  0
    5.4383   -0.0221    1.3367 C   0  0  0  0  0  0  0  0  0  0  0  0
    5.1475    4.3525    4.9782 H   0  0  0  0  0  0  0  0  0  0  0  0
    3.7096    3.4921    4.3414 H   0  0  0  0  0  0  0  0  0  0  0  0
    4.3814    4.8862    3.4510 H   0  0  0  0  0  0  0  0  0  0  0  0
    6.3669    3.3670    3.0039 H   0  0  0  0  0  0  0  0  0  0  0  0
    7.8080    1.8743    2.8972 H   0  0  0  0  0  0  0  0  0  0  0  0
    9.2926    0.3917    1.5905 H   0  0  0  0  0  0  0  0  0  0  0  0
    9.3680   -1.0488   -0.6116 H   0  0  0  0  0  0  0  0  0  0  0  0
    8.0316   -2.2041   -0.8398 H   0  0  0  0  0  0  0  0  0  0  0  0
    8.8288   -3.3815    1.1254 H   0  0  0  0  0  0  0  0  0  0  0  0
   11.8524   -4.0529    1.3664 H   0  0  0  0  0  0  0  0  0  0  0  0
   10.4358   -4.1318    2.4223 H   0  0  0  0  0  0  0  0  0  0  0  0
   11.4039   -2.3383    3.8824 H   0  0  0  0  0  0  0  0  0  0  0  0
   12.7402   -2.1267    2.7515 H   0  0  0  0  0  0  0  0  0  0  0  0
   11.5007   -5.5630    3.9997 H   0  0  0  0  0  0  0  0  0  0  0  0
   11.2669   -4.4286    5.3525 H   0  0  0  0  0  0  0  0  0  0  0  0
   12.6406   -5.5614    5.3727 H   0  0  0  0  0  0  0  0  0  0  0  0
   13.4989   -5.2245    2.3786 H   0  0  0  0  0  0  0  0  0  0  0  0
   14.6087   -5.2193    3.7747 H   0  0  0  0  0  0  0  0  0  0  0  0
   14.6058   -3.8535    2.6309 H   0  0  0  0  0  0  0  0  0  0  0  0
   12.9976   -2.6629    5.6797 H   0  0  0  0  0  0  0  0  0  0  0  0
   14.2454   -2.4438    4.6566 H   0  0  0  0  0  0  0  0  0  0  0  0
    5.8535   -1.6347   -0.0331 H   0  0  0  0  0  0  0  0  0  0  0  0
    4.3534   -0.1351    1.2932 H   0  0  0  0  0  0  0  0  0  0  0  0
  1  2  1  0
  1 21  1  0
  1 22  1  0
  1 23  1  0
  2  3  1  0
  2 24  1  0
  3  4  2  0
  3  5  1  0
  5  6  2  0
  5 20  1  0
  6  7  1  0
  6 25  1  0
  7  8  2  0
  7 26  1  0
  8  9  1  0
  8 19  1  0
  9 10  1  0
  9 27  1  0
  9 28  1  0
 10 11  1  0
 10 29  1  0
 11 12  2  0
 11 13  1  0
 13 14  1  0
 13 30  1  0
 13 31  1  0
 14 15  1  0
 14 32  1  0
 14 33  1  0
 15 16  1  0
 15 17  1  0
 15 18  1  1
 16 34  1  0
 16 35  1  0
 16 36  1  0
 17 37  1  0
 17 38  1  0
 17 39  1  0
 18 40  1  0
 18 41  1  0
 19 20  2  0
 19 42  1  0
 20 43  1  0
M  END

