
     RDKit          3D

 40 42  0  0  0  0  0  0  0  0999 V2000
    0.5515    0.6803   -0.9644 C   0  0  0  0  0  0  0  0  0  0  0  0
    1.9681    1.1185   -0.6263 C   0  0  0  0  0  0  0  0  0  0  0  0
    2.2124    2.1304   -0.0007 O   0  0  0  0  0  0  0  0  0  0  0  0
    2.9433    0.2561   -1.1024 N   0  0  0  0  0  0  0  0  0  0  0  0
    4.3372    0.3473   -0.9853 C   0  0  0  0  0  0  0  0  0  0  0  0
    4.9941    1.3928   -0.3100 C   0  0  0  0  0  0  0  0  0  0  0  0
    6.3854    1.4065   -0.2444 C   0  0  0  0  0  0  0  0  0  0  0  0
    7.1738    0.3996   -0.8351 C   0  0  0  0  0  0  0  0  0  0  0  0
    8.6325    0.4155   -0.7517 C   0  0  0  0  0  0  0  0  0  0  0  0
    9.5225   -0.6205   -0.9165 C   0  0  0  0  0  0  0  0  0  0  0  0
   10.8585   -0.1159   -0.7051 C   0  0  0  0  0  0  0  0  0  0  0  0
   12.1152   -0.6479   -0.6966 C   0  0  0  0  0  0  0  0  0  0  0  0
   12.5810   -1.9993   -0.9623 C   0  0  0  0  0  0  0  0  0  0  0  0
   11.7783   -3.0288   -1.5083 C   0  0  0  0  0  0  0  0  0  0  0  0
   12.2918   -4.2996   -1.7345 C   0  0  0  0  0  0  0  0  0  0  0  0
   13.6347   -4.5927   -1.4228 C   0  0  0  0  0  0  0  0  0  0  0  0
   14.1618   -5.9068   -1.6536 C   0  0  0  0  0  0  0  0  0  0  0  0
   14.5865   -6.9718   -1.8410 N   0  0  0  0  0  0  0  0  0  0  0  0
   14.4531   -3.5772   -0.8904 C   0  0  0  0  0  0  0  0  0  0  0  0
   13.9316   -2.3084   -0.6730 C   0  0  0  0  0  0  0  0  0  0  0  0
   10.7010    1.3604   -0.4040 C   0  0  0  0  0  0  0  0  0  0  0  0
   11.5532    2.1957   -0.1917 O   0  0  0  0  0  0  0  0  0  0  0  0
    9.3288    1.5847   -0.4372 N   0  0  0  0  0  0  0  0  0  0  0  0
    6.5004   -0.6402   -1.5090 C   0  0  0  0  0  0  0  0  0  0  0  0
    5.1153   -0.6671   -1.5814 C   0  0  0  0  0  0  0  0  0  0  0  0
   -0.1489    1.3999   -0.5245 H   0  0  0  0  0  0  0  0  0  0  0  0
    0.3390   -0.3244   -0.5639 H   0  0  0  0  0  0  0  0  0  0  0  0
    0.3989    0.6493   -2.0558 H   0  0  0  0  0  0  0  0  0  0  0  0
    2.6099   -0.5548   -1.6111 H   0  0  0  0  0  0  0  0  0  0  0  0
    4.4046    2.1768    0.1585 H   0  0  0  0  0  0  0  0  0  0  0  0
    6.8613    2.2176    0.3117 H   0  0  0  0  0  0  0  0  0  0  0  0
    9.2276   -1.6502   -1.0899 H   0  0  0  0  0  0  0  0  0  0  0  0
   12.8968    0.0736   -0.4332 H   0  0  0  0  0  0  0  0  0  0  0  0
   10.7447   -2.8255   -1.7825 H   0  0  0  0  0  0  0  0  0  0  0  0
   11.6577   -5.0792   -2.1612 H   0  0  0  0  0  0  0  0  0  0  0  0
   15.4964   -3.7935   -0.6526 H   0  0  0  0  0  0  0  0  0  0  0  0
   14.5754   -1.5271   -0.2616 H   0  0  0  0  0  0  0  0  0  0  0  0
    8.9310    2.5128   -0.3762 H   0  0  0  0  0  0  0  0  0  0  0  0
    7.0740   -1.4271   -2.0023 H   0  0  0  0  0  0  0  0  0  0  0  0
    4.6210   -1.4823   -2.1183 H   0  0  0  0  0  0  0  0  0  0  0  0
  1  2  1  0
  1 26  1  0
  1 27  1  0
  1 28  1  0
  2  3  2  0
  2  4  1  0
  4  5  1  0
  4 29  1  0
  5  6  2  0
  5 25  1  0
  6  7  1  0
  6 30  1  0
  7  8  2  0
  7 31  1  0
  8  9  1  0
  8 24  1  0
  9 10  2  0
  9 23  1  0
 10 11  1  0
 10 32  1  0
 11 12  2  0
 11 21  1  0
 12 13  1  0
 12 33  1  0
 13 14  2  0
 13 20  1  0
 14 15  1  0
 14 34  1  0
 15 16  2  0
 15 35  1  0
 16 17  1  0
 16 19  1  0
 17 18  3  0
 19 20  2  0
 19 36  1  0
 20 37  1  0
 21 22  2  0
 21 23  1  0
 23 38  1  0
 24 25  2  0
 24 39  1  0
 25 40  1  0
M  END

