
     RDKit          3D

 54 54  0  0  0  0  0  0  0  0999 V2000
    0.6229   -0.0809   -0.0318 C   0  0  0  0  0  0  0  0  0  0  0  0
    2.1397    0.0960    0.0511 C   0  0  0  0  0  0  0  0  0  0  0  0
    2.7605    0.6784   -1.2226 C   0  0  0  0  0  0  0  0  0  0  0  0
    4.2794    0.8589   -1.1481 C   0  0  0  0  0  0  0  0  0  0  0  0
    4.8995    1.4414   -2.4215 C   0  0  0  0  0  0  0  0  0  0  0  0
    6.4186    1.6216   -2.3466 C   0  0  0  0  0  0  0  0  0  0  0  0
    7.0385    2.2047   -3.6199 C   0  0  0  0  0  0  0  0  0  0  0  0
    8.5576    2.3845   -3.5450 C   0  0  0  0  0  0  0  0  0  0  0  0
    9.1766    2.9685   -4.8182 C   0  0  0  0  0  0  0  0  0  0  0  0
   10.6959    3.1474   -4.7429 C   0  0  0  0  0  0  0  0  0  0  0  0
   11.3077    3.7321   -6.0184 C   0  0  0  0  0  0  0  0  0  0  0  0
   12.8176    3.9054   -5.9379 C   0  0  0  0  0  0  0  0  0  0  0  0
   13.2898    4.4251   -7.1596 O   0  0  0  0  0  0  0  0  0  0  0  0
   14.6887    4.6932   -7.2157 C   0  0  1  0  0  0  0  0  0  0  0  0
   15.5346    3.5288   -7.2482 N   0  0  0  0  0  0  0  0  0  0  0  0
   14.9416    5.5837   -8.4280 C   0  0  0  0  0  0  0  0  0  0  0  0
   16.2390    5.7059   -8.9494 C   0  0  0  0  0  0  0  0  0  0  0  0
   16.4930    6.5520  -10.0322 C   0  0  0  0  0  0  0  0  0  0  0  0
   15.4533    7.2862  -10.6107 C   0  0  0  0  0  0  0  0  0  0  0  0
   14.1586    7.1673  -10.0976 C   0  0  0  0  0  0  0  0  0  0  0  0
   13.9036    6.3232   -9.0127 C   0  0  0  0  0  0  0  0  0  0  0  0
    0.2115   -0.5011    0.9000 H   0  0  0  0  0  0  0  0  0  0  0  0
    0.3427   -0.7600   -0.8547 H   0  0  0  0  0  0  0  0  0  0  0  0
    0.1162    0.8818   -0.2144 H   0  0  0  0  0  0  0  0  0  0  0  0
    2.6132   -0.8780    0.2724 H   0  0  0  0  0  0  0  0  0  0  0  0
    2.3887    0.7497    0.9071 H   0  0  0  0  0  0  0  0  0  0  0  0
    2.2875    1.6534   -1.4449 H   0  0  0  0  0  0  0  0  0  0  0  0
    2.5122    0.0249   -2.0800 H   0  0  0  0  0  0  0  0  0  0  0  0
    4.7519   -0.1162   -0.9257 H   0  0  0  0  0  0  0  0  0  0  0  0
    4.5272    1.5120   -0.2904 H   0  0  0  0  0  0  0  0  0  0  0  0
    4.4275    2.4167   -2.6439 H   0  0  0  0  0  0  0  0  0  0  0  0
    4.6519    0.7886   -3.2794 H   0  0  0  0  0  0  0  0  0  0  0  0
    6.8909    0.6463   -2.1248 H   0  0  0  0  0  0  0  0  0  0  0  0
    6.6665    2.2741   -1.4886 H   0  0  0  0  0  0  0  0  0  0  0  0
    6.5666    3.1802   -3.8415 H   0  0  0  0  0  0  0  0  0  0  0  0
    6.7906    1.5525   -4.4780 H   0  0  0  0  0  0  0  0  0  0  0  0
    9.0297    1.4089   -3.3242 H   0  0  0  0  0  0  0  0  0  0  0  0
    8.8057    3.0364   -2.6867 H   0  0  0  0  0  0  0  0  0  0  0  0
    8.7060    3.9444   -5.0390 H   0  0  0  0  0  0  0  0  0  0  0  0
    8.9294    2.3173   -5.6771 H   0  0  0  0  0  0  0  0  0  0  0  0
   11.1658    2.1705   -4.5229 H   0  0  0  0  0  0  0  0  0  0  0  0
   10.9423    3.7983   -3.8833 H   0  0  0  0  0  0  0  0  0  0  0  0
   10.8537    4.7133   -6.2417 H   0  0  0  0  0  0  0  0  0  0  0  0
   11.0793    3.0837   -6.8821 H   0  0  0  0  0  0  0  0  0  0  0  0
   13.2921    2.9268   -5.7146 H   0  0  0  0  0  0  0  0  0  0  0  0
   13.0847    4.5853   -5.1002 H   0  0  0  0  0  0  0  0  0  0  0  0
   14.9621    5.2557   -6.2976 H   0  0  0  0  0  0  0  0  0  0  0  0
   15.2926    2.9229   -8.0326 H   0  0  0  0  0  0  0  0  0  0  0  0
   15.4838    2.9875   -6.3880 H   0  0  0  0  0  0  0  0  0  0  0  0
   17.0441    5.1224   -8.4993 H   0  0  0  0  0  0  0  0  0  0  0  0
   17.5091    6.6360  -10.4274 H   0  0  0  0  0  0  0  0  0  0  0  0
   15.6512    7.9470  -11.4589 H   0  0  0  0  0  0  0  0  0  0  0  0
   13.3382    7.7345  -10.5459 H   0  0  0  0  0  0  0  0  0  0  0  0
   12.8941    6.2237   -8.6137 H   0  0  0  0  0  0  0  0  0  0  0  0
  1  2  1  0
  1 22  1  0
  1 23  1  0
  1 24  1  0
  2  3  1  0
  2 25  1  0
  2 26  1  0
  3  4  1  0
  3 27  1  0
  3 28  1  0
  4  5  1  0
  4 29  1  0
  4 30  1  0
  5  6  1  0
  5 31  1  0
  5 32  1  0
  6  7  1  0
  6 33  1  0
  6 34  1  0
  7  8  1  0
  7 35  1  0
  7 36  1  0
  8  9  1  0
  8 37  1  0
  8 38  1  0
  9 10  1  0
  9 39  1  0
  9 40  1  0
 10 11  1  0
 10 41  1  0
 10 42  1  0
 11 12  1  0
 11 43  1  0
 11 44  1  0
 12 13  1  0
 12 45  1  0
 12 46  1  0
 13 14  1  0
 14 15  1  0
 14 16  1  0
 14 47  1  1
 15 48  1  0
 15 49  1  0
 16 17  2  0
 16 21  1  0
 17 18  1  0
 17 50  1  0
 18 19  2  0
 18 51  1  0
 19 20  1  0
 19 52  1  0
 20 21  2  0
 20 53  1  0
 21 54  1  0
M  END

