
     RDKit          3D

 39 40  0  0  0  0  0  0  0  0999 V2000
    2.8284    0.0329    2.1146 C   0  0  0  0  0  0  0  0  0  0  0  0
    2.9219    0.0128    0.5878 C   0  0  0  0  0  0  0  0  0  0  0  0
    2.9440    1.3498   -0.0098 N   0  0  0  0  0  0  0  0  0  0  0  0
    1.7301    2.1487    0.0529 C   0  0  0  0  0  0  0  0  0  0  0  0
    0.4356    1.3671   -0.2059 C   0  0  0  0  0  0  0  0  0  0  0  0
    0.4546    0.6038   -1.3875 O   0  0  0  0  0  0  0  0  0  0  0  0
    4.0927    1.7354   -0.6897 C   0  0  0  0  0  0  0  0  0  0  0  0
    4.9546    0.8847   -0.9692 O   0  0  0  0  0  0  0  0  0  0  0  0
    4.3276    3.1252   -1.0823 C   0  0  0  0  0  0  0  0  0  0  0  0
    3.5521    4.6210   -0.4829 S   0  0  0  0  0  0  0  0  0  0  0  0
    4.7617    5.5582   -1.3494 C   0  0  0  0  0  0  0  0  0  0  0  0
    4.7219    6.9156   -1.3269 N   0  0  0  0  0  0  0  0  0  0  0  0
    5.6757    7.7666   -1.9963 C   0  0  1  0  0  0  0  0  0  0  0  0
    5.1573    8.9374   -2.8717 C   0  0  0  0  0  0  0  0  0  0  0  0
    6.3534    9.7821   -2.3606 C   0  0  0  0  0  0  0  0  0  0  0  0
    6.4980    8.7952   -1.1731 C   0  0  0  0  0  0  0  0  0  0  0  0
    5.6518    4.8597   -2.0015 N   0  0  0  0  0  0  0  0  0  0  0  0
    5.4449    3.5143   -1.8466 C   0  0  0  0  0  0  0  0  0  0  0  0
    6.3107    2.6590   -2.4331 N   0  0  0  0  0  0  0  0  0  0  0  0
    2.8401   -0.9969    2.5071 H   0  0  0  0  0  0  0  0  0  0  0  0
    1.9029    0.5101    2.4774 H   0  0  0  0  0  0  0  0  0  0  0  0
    3.6811    0.5740    2.5554 H   0  0  0  0  0  0  0  0  0  0  0  0
    2.0938   -0.5670    0.1493 H   0  0  0  0  0  0  0  0  0  0  0  0
    3.8501   -0.4761    0.2701 H   0  0  0  0  0  0  0  0  0  0  0  0
    1.7909    2.9295   -0.7184 H   0  0  0  0  0  0  0  0  0  0  0  0
    1.6163    2.6747    1.0227 H   0  0  0  0  0  0  0  0  0  0  0  0
   -0.3935    2.1056   -0.1950 H   0  0  0  0  0  0  0  0  0  0  0  0
    0.2299    0.6599    0.6125 H   0  0  0  0  0  0  0  0  0  0  0  0
    0.7685    1.1596   -2.1135 H   0  0  0  0  0  0  0  0  0  0  0  0
    4.0039    7.3561   -0.7644 H   0  0  0  0  0  0  0  0  0  0  0  0
    6.3366    7.1036   -2.5698 H   0  0  0  0  0  0  0  0  0  0  0  0
    4.1981    9.3237   -2.4880 H   0  0  0  0  0  0  0  0  0  0  0  0
    5.0548    8.7607   -3.9534 H   0  0  0  0  0  0  0  0  0  0  0  0
    6.1619   10.8383   -2.1214 H   0  0  0  0  0  0  0  0  0  0  0  0
    7.2142    9.7304   -3.0449 H   0  0  0  0  0  0  0  0  0  0  0  0
    5.9320    9.1385   -0.2912 H   0  0  0  0  0  0  0  0  0  0  0  0
    7.5073    8.4996   -0.8480 H   0  0  0  0  0  0  0  0  0  0  0  0
    7.1658    3.0447   -2.8096 H   0  0  0  0  0  0  0  0  0  0  0  0
    6.2416    1.6917   -2.1162 H   0  0  0  0  0  0  0  0  0  0  0  0
  1  2  1  0
  1 20  1  0
  1 21  1  0
  1 22  1  0
  2  3  1  0
  2 23  1  0
  2 24  1  0
  3  4  1  0
  3  7  1  0
  4  5  1  0
  4 25  1  0
  4 26  1  0
  5  6  1  0
  5 27  1  0
  5 28  1  0
  6 29  1  0
  7  8  2  0
  7  9  1  0
  9 10  1  0
  9 18  2  0
 10 11  1  0
 11 12  1  0
 11 17  2  0
 12 13  1  0
 12 30  1  0
 13 14  1  0
 13 16  1  0
 13 31  1  6
 14 15  1  0
 14 32  1  0
 14 33  1  0
 15 16  1  0
 15 34  1  0
 15 35  1  0
 16 36  1  0
 16 37  1  0
 17 18  1  0
 18 19  1  0
 19 38  1  0
 19 39  1  0
M  END

