
     RDKit          3D

 56 59  0  0  0  0  0  0  0  0999 V2000
    0.9049   -1.7052   -2.8252 C   0  0  0  0  0  0  0  0  0  0  0  0
    1.5774   -3.0504   -2.9375 C   0  0  0  0  0  0  0  0  0  0  0  0
    1.3691   -3.8418   -4.0749 C   0  0  0  0  0  0  0  0  0  0  0  0
    1.9822   -5.0891   -4.2380 C   0  0  0  0  0  0  0  0  0  0  0  0
    2.8244   -5.5910   -3.2286 C   0  0  0  0  0  0  0  0  0  0  0  0
    3.0452   -4.8315   -2.0842 C   0  0  0  0  0  0  0  0  0  0  0  0
    2.4305   -3.5811   -1.9448 C   0  0  0  0  0  0  0  0  0  0  0  0
    2.8338   -2.6598   -0.4570 S   0  0  1  0  0  0  0  0  0  0  0  0
    3.7856   -3.4880    0.3101 O   0  0  0  0  0  0  0  0  0  0  0  0
    3.1916   -1.2792   -0.7918 O   0  0  0  0  0  0  0  0  0  0  0  0
    1.4010   -2.5792    0.3885 N   0  0  0  0  0  0  0  0  0  0  0  0
    0.7039   -3.7946    0.8521 C   0  0  0  0  0  0  0  0  0  0  0  0
   -0.3524   -3.2419    1.8315 C   0  0  0  0  0  0  0  0  0  0  0  0
   -0.4935   -1.7596    1.4478 C   0  0  0  0  0  0  0  0  0  0  0  0
    0.9455   -1.3620    1.0760 C   0  0  1  0  0  0  0  0  0  0  0  0
    0.9809   -0.4968    0.3985 H   0  0  0  0  0  0  0  0  0  0  0  0
    1.7221   -0.9391    2.3458 C   0  0  0  0  0  0  0  0  0  0  0  0
    1.2920   -0.0034    3.0074 O   0  0  0  0  0  0  0  0  0  0  0  0
    2.8376   -1.6391    2.6676 N   0  0  0  0  0  0  0  0  0  0  0  0
    3.6524   -1.2933    3.8274 C   0  0  0  0  0  0  0  0  0  0  0  0
    3.3460   -2.1309    5.0563 C   0  0  0  0  0  0  0  0  0  0  0  0
    4.2285   -3.1292    5.4906 C   0  0  0  0  0  0  0  0  0  0  0  0
    3.9316   -3.9073    6.6151 C   0  0  0  0  0  0  0  0  0  0  0  0
    2.7435   -3.6949    7.3184 C   0  0  0  0  0  0  0  0  0  0  0  0
    1.8557   -2.6993    6.8936 C   0  0  0  0  0  0  0  0  0  0  0  0
    2.1543   -1.9218    5.7727 C   0  0  0  0  0  0  0  0  0  0  0  0
    3.4717   -6.7749   -3.3948 O   0  0  0  0  0  0  0  0  0  0  0  0
    2.8481   -7.7591   -4.2291 C   0  0  1  0  0  0  0  0  0  0  0  0
    3.6647   -8.4146   -4.5623 H   0  0  0  0  0  0  0  0  0  0  0  0
    1.8116   -8.5762   -3.4570 C   0  0  0  0  0  0  0  0  0  0  0  0
    2.2338   -7.1673   -5.5029 C   0  0  0  0  0  0  0  0  0  0  0  0
    2.0786   -7.8237   -6.5102 O   0  0  0  0  0  0  0  0  0  0  0  0
    1.8148   -5.8620   -5.3884 N   0  0  0  0  0  0  0  0  0  0  0  0
    0.3180   -1.4875   -3.7284 H   0  0  0  0  0  0  0  0  0  0  0  0
    1.6452   -0.9062   -2.6766 H   0  0  0  0  0  0  0  0  0  0  0  0
    0.2254   -1.6718   -1.9586 H   0  0  0  0  0  0  0  0  0  0  0  0
    0.7188   -3.4676   -4.8704 H   0  0  0  0  0  0  0  0  0  0  0  0
    3.7112   -5.2068   -1.3072 H   0  0  0  0  0  0  0  0  0  0  0  0
    1.3968   -4.5000    1.3389 H   0  0  0  0  0  0  0  0  0  0  0  0
    0.2425   -4.3131   -0.0063 H   0  0  0  0  0  0  0  0  0  0  0  0
    0.0158   -3.3267    2.8659 H   0  0  0  0  0  0  0  0  0  0  0  0
   -1.3000   -3.7969    1.7723 H   0  0  0  0  0  0  0  0  0  0  0  0
   -0.8820   -1.1254    2.2550 H   0  0  0  0  0  0  0  0  0  0  0  0
   -1.1453   -1.6420    0.5670 H   0  0  0  0  0  0  0  0  0  0  0  0
    3.1575   -2.4033    2.0778 H   0  0  0  0  0  0  0  0  0  0  0  0
    3.4641   -0.2315    4.0426 H   0  0  0  0  0  0  0  0  0  0  0  0
    4.7114   -1.4056    3.5493 H   0  0  0  0  0  0  0  0  0  0  0  0
    5.1614   -3.2994    4.9445 H   0  0  0  0  0  0  0  0  0  0  0  0
    4.6322   -4.6804    6.9419 H   0  0  0  0  0  0  0  0  0  0  0  0
    2.5102   -4.3001    8.1984 H   0  0  0  0  0  0  0  0  0  0  0  0
    0.9279   -2.5235    7.4448 H   0  0  0  0  0  0  0  0  0  0  0  0
    1.4674   -1.1388    5.4403 H   0  0  0  0  0  0  0  0  0  0  0  0
    0.9734   -7.9445   -3.1228 H   0  0  0  0  0  0  0  0  0  0  0  0
    2.2821   -9.0296   -2.5721 H   0  0  0  0  0  0  0  0  0  0  0  0
    1.4127   -9.3754   -4.0987 H   0  0  0  0  0  0  0  0  0  0  0  0
    1.3413   -5.4713   -6.1983 H   0  0  0  0  0  0  0  0  0  0  0  0
  1  2  1  0
  1 34  1  0
  1 35  1  0
  1 36  1  0
  2  3  2  0
  2  7  1  0
  3  4  1  0
  3 37  1  0
  4  5  2  0
  4 33  1  0
  5  6  1  0
  5 27  1  0
  6  7  2  0
  6 38  1  0
  8  7  1  6
  8  9  2  0
  8 10  2  0
  8 11  1  0
 11 12  1  0
 11 15  1  0
 12 13  1  0
 12 39  1  0
 12 40  1  0
 13 14  1  0
 13 41  1  0
 13 42  1  0
 14 15  1  0
 14 43  1  0
 14 44  1  0
 15 16  1  6
 15 17  1  0
 17 18  2  0
 17 19  1  0
 19 20  1  0
 19 45  1  0
 20 21  1  0
 20 46  1  0
 20 47  1  0
 21 22  2  0
 21 26  1  0
 22 23  1  0
 22 48  1  0
 23 24  2  0
 23 49  1  0
 24 25  1  0
 24 50  1  0
 25 26  2  0
 25 51  1  0
 26 52  1  0
 27 28  1  0
 28 29  1  6
 28 30  1  0
 28 31  1  0
 30 53  1  0
 30 54  1  0
 30 55  1  0
 31 32  2  0
 31 33  1  0
 33 56  1  0
M  END

