
     RDKit          3D

 54 57  0  0  0  0  0  0  0  0999 V2000
    2.0028   -0.5855   -1.4521 C   0  0  0  0  0  0  0  0  0  0  0  0
    3.0624   -0.4669   -0.4633 N   0  0  0  0  0  0  0  0  0  0  0  0
    3.6369    0.6667    0.0469 C   0  0  0  0  0  0  0  0  0  0  0  0
    3.4054    2.0069   -0.1822 C   0  0  0  0  0  0  0  0  0  0  0  0
    2.4829    2.7628   -1.0105 C   0  0  0  0  0  0  0  0  0  0  0  0
    1.6129    2.3412   -1.7661 O   0  0  0  0  0  0  0  0  0  0  0  0
    2.6724    4.2852   -0.8620 C   0  0  0  0  0  0  0  0  0  0  0  0
    1.7694    5.0237   -1.6603 O   0  0  0  0  0  0  0  0  0  0  0  0
    2.1274    5.2389   -2.9526 C   0  0  0  0  0  0  0  0  0  0  0  0
    3.1813    4.8792   -3.4114 O   0  0  0  0  0  0  0  0  0  0  0  0
    1.0517    5.9944   -3.7019 C   0  0  0  0  0  0  0  0  0  0  0  0
    0.2286    5.1198   -4.6288 C   0  0  0  0  0  0  0  0  0  0  0  0
   -0.1010    3.8136   -4.3095 C   0  0  0  0  0  0  0  0  0  0  0  0
   -0.9018    3.0246   -5.1731 C   0  0  0  0  0  0  0  0  0  0  0  0
   -1.3825    3.5398   -6.3567 C   0  0  0  0  0  0  0  0  0  0  0  0
   -1.0717    4.8763   -6.7250 C   0  0  0  0  0  0  0  0  0  0  0  0
   -1.5328    5.4733   -7.9284 C   0  0  0  0  0  0  0  0  0  0  0  0
   -1.1916    6.7759   -8.2179 C   0  0  0  0  0  0  0  0  0  0  0  0
   -0.3790    7.4816   -7.2934 C   0  0  0  0  0  0  0  0  0  0  0  0
    0.0671    6.9653   -6.1701 N   0  0  0  0  0  0  0  0  0  0  0  0
   -0.2567    5.6806   -5.8574 C   0  0  0  0  0  0  0  0  0  0  0  0
    4.7393    0.2385    1.0535 C   0  0  1  0  0  0  0  0  0  0  0  0
    6.1283    0.7289    0.5919 C   0  0  0  0  0  0  0  0  0  0  0  0
    4.4240    0.7583    2.4721 C   0  0  0  0  0  0  0  0  0  0  0  0
    4.6489   -1.2748    0.9943 C   0  0  0  0  0  0  0  0  0  0  0  0
    5.3630   -2.2641    1.6583 C   0  0  0  0  0  0  0  0  0  0  0  0
    5.0614   -3.6122    1.4009 C   0  0  0  0  0  0  0  0  0  0  0  0
    4.0572   -3.9478    0.4882 C   0  0  0  0  0  0  0  0  0  0  0  0
    3.3300   -2.9573   -0.1885 C   0  0  0  0  0  0  0  0  0  0  0  0
    3.6454   -1.6252    0.0837 C   0  0  0  0  0  0  0  0  0  0  0  0
    1.6670    0.4125   -1.7550 H   0  0  0  0  0  0  0  0  0  0  0  0
    1.1558   -1.1479   -1.0247 H   0  0  0  0  0  0  0  0  0  0  0  0
    2.3739   -1.1366   -2.3324 H   0  0  0  0  0  0  0  0  0  0  0  0
    4.0715    2.6501    0.3990 H   0  0  0  0  0  0  0  0  0  0  0  0
    3.7136    4.5427   -1.1142 H   0  0  0  0  0  0  0  0  0  0  0  0
    2.4760    4.5752    0.1822 H   0  0  0  0  0  0  0  0  0  0  0  0
    1.5347    6.7762   -4.3029 H   0  0  0  0  0  0  0  0  0  0  0  0
    0.3892    6.4924   -2.9758 H   0  0  0  0  0  0  0  0  0  0  0  0
    0.2705    3.3718   -3.3809 H   0  0  0  0  0  0  0  0  0  0  0  0
   -1.1356    1.9961   -4.8866 H   0  0  0  0  0  0  0  0  0  0  0  0
   -2.0029    2.9347   -7.0237 H   0  0  0  0  0  0  0  0  0  0  0  0
   -2.1550    4.8875   -8.6113 H   0  0  0  0  0  0  0  0  0  0  0  0
   -1.5292    7.2650   -9.1344 H   0  0  0  0  0  0  0  0  0  0  0  0
   -0.0915    8.5189   -7.5088 H   0  0  0  0  0  0  0  0  0  0  0  0
    6.1837    1.8282    0.5947 H   0  0  0  0  0  0  0  0  0  0  0  0
    6.3576    0.3760   -0.4247 H   0  0  0  0  0  0  0  0  0  0  0  0
    6.9075    0.3471    1.2704 H   0  0  0  0  0  0  0  0  0  0  0  0
    4.4488    1.8582    2.5074 H   0  0  0  0  0  0  0  0  0  0  0  0
    5.1701    0.3784    3.1877 H   0  0  0  0  0  0  0  0  0  0  0  0
    3.4300    0.4254    2.8065 H   0  0  0  0  0  0  0  0  0  0  0  0
    6.1499   -2.0046    2.3717 H   0  0  0  0  0  0  0  0  0  0  0  0
    5.6147   -4.4009    1.9158 H   0  0  0  0  0  0  0  0  0  0  0  0
    3.8313   -4.9995    0.2946 H   0  0  0  0  0  0  0  0  0  0  0  0
    2.5491   -3.2290   -0.8996 H   0  0  0  0  0  0  0  0  0  0  0  0
  1  2  1  0
  1 31  1  0
  1 32  1  0
  1 33  1  0
  2  3  1  0
  2 30  1  0
  3  4  2  0
  3 22  1  0
  4  5  1  0
  4 34  1  0
  5  6  2  0
  5  7  1  0
  7  8  1  0
  7 35  1  0
  7 36  1  0
  8  9  1  0
  9 10  2  0
  9 11  1  0
 11 12  1  0
 11 37  1  0
 11 38  1  0
 12 13  2  0
 12 21  1  0
 13 14  1  0
 13 39  1  0
 14 15  2  0
 14 40  1  0
 15 16  1  0
 15 41  1  0
 16 17  1  0
 16 21  2  0
 17 18  2  0
 17 42  1  0
 18 19  1  0
 18 43  1  0
 19 20  2  0
 19 44  1  0
 20 21  1  0
 22 23  1  6
 22 24  1  0
 22 25  1  0
 23 45  1  0
 23 46  1  0
 23 47  1  0
 24 48  1  0
 24 49  1  0
 24 50  1  0
 25 26  2  0
 25 30  1  0
 26 27  1  0
 26 51  1  0
 27 28  2  0
 27 52  1  0
 28 29  1  0
 28 53  1  0
 29 30  2  0
 29 54  1  0
M  END

