
     RDKit          3D

 43 46  0  0  0  0  0  0  0  0999 V2000
    0.7768    0.3163    0.0981 O   0  0  0  0  0  0  0  0  0  0  0  0
    1.9688    0.1421    0.2227 C   0  0  0  0  0  0  0  0  0  0  0  0
    2.5797   -1.0556    0.5074 N   0  0  0  0  0  0  0  0  0  0  0  0
    1.9674   -2.2858    0.7102 C   0  0  0  0  0  0  0  0  0  0  0  0
    2.5866   -3.4593    1.2181 C   0  0  0  0  0  0  0  0  0  0  0  0
    1.6771   -4.4244    1.2432 N   0  0  0  0  0  0  0  0  0  0  0  0
    0.5753   -3.8518    0.7749 N   0  0  0  0  0  0  0  0  0  0  0  0
   -0.6572   -4.5473    0.6422 C   0  0  0  0  0  0  0  0  0  0  0  0
   -0.7266   -5.9059    0.9769 C   0  0  0  0  0  0  0  0  0  0  0  0
   -1.9424   -6.5779    0.8421 C   0  0  0  0  0  0  0  0  0  0  0  0
   -3.0793   -5.9076    0.3785 C   0  0  0  0  0  0  0  0  0  0  0  0
   -2.9939   -4.5511    0.0487 C   0  0  0  0  0  0  0  0  0  0  0  0
   -1.7870   -3.8617    0.1775 C   0  0  0  0  0  0  0  0  0  0  0  0
    0.6985   -2.5647    0.4373 N   0  0  0  0  0  0  0  0  0  0  0  0
    2.9621    1.3013    0.0017 C   0  0  1  0  0  0  0  0  0  0  0  0
    2.3342    2.6858    0.1600 C   0  0  0  0  0  0  0  0  0  0  0  0
    3.5059    3.5738    0.5966 C   0  0  0  0  0  0  0  0  0  0  0  0
    4.4463    2.6481    1.2457 N   0  0  0  0  0  0  0  0  0  0  0  0
    5.5547    3.1194    1.9923 C   0  0  0  0  0  0  0  0  0  0  0  0
    6.3464    2.2591    2.7789 C   0  0  0  0  0  0  0  0  0  0  0  0
    7.4177    2.7777    3.5053 C   0  0  0  0  0  0  0  0  0  0  0  0
    7.7336    4.1390    3.4783 C   0  0  0  0  0  0  0  0  0  0  0  0
    6.9440    4.9801    2.6950 C   0  0  0  0  0  0  0  0  0  0  0  0
    7.3388    6.8463    2.6221 Br  0  0  0  0  0  0  0  0  0  0  0  0
    5.8657    4.4924    1.9548 C   0  0  0  0  0  0  0  0  0  0  0  0
    4.1875    1.3367    0.9179 C   0  0  0  0  0  0  0  0  0  0  0  0
    4.8337    0.3560    1.2611 O   0  0  0  0  0  0  0  0  0  0  0  0
    3.5761   -0.9898    0.7350 H   0  0  0  0  0  0  0  0  0  0  0  0
    3.6100   -3.6236    1.5492 H   0  0  0  0  0  0  0  0  0  0  0  0
    0.1681   -6.4134    1.3366 H   0  0  0  0  0  0  0  0  0  0  0  0
   -1.9990   -7.6377    1.1026 H   0  0  0  0  0  0  0  0  0  0  0  0
   -4.0276   -6.4402    0.2753 H   0  0  0  0  0  0  0  0  0  0  0  0
   -3.8770   -4.0185   -0.3132 H   0  0  0  0  0  0  0  0  0  0  0  0
   -1.7015   -2.8043   -0.0725 H   0  0  0  0  0  0  0  0  0  0  0  0
    3.3628    1.1625   -1.0214 H   0  0  0  0  0  0  0  0  0  0  0  0
    1.5592    2.6452    0.9392 H   0  0  0  0  0  0  0  0  0  0  0  0
    1.8524    3.0504   -0.7560 H   0  0  0  0  0  0  0  0  0  0  0  0
    3.1980    4.3596    1.3017 H   0  0  0  0  0  0  0  0  0  0  0  0
    3.9940    4.0671   -0.2630 H   0  0  0  0  0  0  0  0  0  0  0  0
    6.1227    1.1966    2.8062 H   0  0  0  0  0  0  0  0  0  0  0  0
    8.0229    2.1003    4.1129 H   0  0  0  0  0  0  0  0  0  0  0  0
    8.5719    4.5366    4.0515 H   0  0  0  0  0  0  0  0  0  0  0  0
    5.2866    5.1882    1.3515 H   0  0  0  0  0  0  0  0  0  0  0  0
  1  2  2  0
  2  3  1  0
  2 15  1  0
  3  4  1  0
  3 28  1  0
  4  5  1  0
  4 14  2  0
  5  6  2  0
  5 29  1  0
  6  7  1  0
  7  8  1  0
  7 14  1  0
  8  9  2  0
  8 13  1  0
  9 10  1  0
  9 30  1  0
 10 11  2  0
 10 31  1  0
 11 12  1  0
 11 32  1  0
 12 13  2  0
 12 33  1  0
 13 34  1  0
 15 16  1  0
 15 26  1  0
 15 35  1  6
 16 17  1  0
 16 36  1  0
 16 37  1  0
 17 18  1  0
 17 38  1  0
 17 39  1  0
 18 19  1  0
 18 26  1  0
 19 20  2  0
 19 25  1  0
 20 21  1  0
 20 40  1  0
 21 22  2  0
 21 41  1  0
 22 23  1  0
 22 42  1  0
 23 24  1  0
 23 25  2  0
 25 43  1  0
 26 27  2  0
M  END

