
     RDKit          3D

 46 49  0  0  0  0  0  0  0  0999 V2000
    2.4319    1.3074   -0.3118 O   0  0  0  0  0  0  0  0  0  0  0  0
    2.1144    0.2588    0.2328 C   0  0  0  0  0  0  0  0  0  0  0  0
    1.0986   -0.5293   -0.2283 N   0  0  0  0  0  0  0  0  0  0  0  0
    0.3272   -0.1701   -1.4120 C   0  0  0  0  0  0  0  0  0  0  0  0
   -0.9026    0.6673   -1.1192 C   0  0  0  0  0  0  0  0  0  0  0  0
   -0.8006    2.0135   -0.7408 C   0  0  0  0  0  0  0  0  0  0  0  0
   -1.9631    2.7349   -0.4681 C   0  0  0  0  0  0  0  0  0  0  0  0
   -3.1903    2.0748   -0.5867 C   0  0  0  0  0  0  0  0  0  0  0  0
   -4.5036    2.7863   -0.3039 C   0  0  1  0  0  0  0  0  0  0  0  0
   -4.2973    4.0680    0.0541 F   0  0  0  0  0  0  0  0  0  0  0  0
   -5.2982    2.7912   -1.3820 F   0  0  0  0  0  0  0  0  0  0  0  0
   -5.1739    2.1921    0.6927 F   0  0  0  0  0  0  0  0  0  0  0  0
   -3.3063    0.7991   -0.9494 N   0  0  0  0  0  0  0  0  0  0  0  0
   -2.1921    0.1191   -1.2084 C   0  0  0  0  0  0  0  0  0  0  0  0
    2.8369   -0.2341    1.4641 C   0  0  0  0  0  0  0  0  0  0  0  0
    2.8090   -1.5683    1.9046 C   0  0  0  0  0  0  0  0  0  0  0  0
    3.5258   -1.9323    3.0416 C   0  0  0  0  0  0  0  0  0  0  0  0
    4.2677   -0.9770    3.7400 C   0  0  0  0  0  0  0  0  0  0  0  0
    4.3005    0.3700    3.3285 C   0  0  0  0  0  0  0  0  0  0  0  0
    3.5809    0.7131    2.1713 C   0  0  0  0  0  0  0  0  0  0  0  0
    5.0273    1.3759    3.9728 N   0  0  0  0  0  0  0  0  0  0  0  0
    5.3229    1.6797    5.2978 C   0  0  0  0  0  0  0  0  0  0  0  0
    5.9176    2.7129    5.5359 O   0  0  0  0  0  0  0  0  0  0  0  0
    4.8020    0.8284    6.4280 C   0  0  0  0  0  0  0  0  0  0  0  0
    4.4143    1.5290    7.5819 C   0  0  0  0  0  0  0  0  0  0  0  0
    3.9335    0.8540    8.7044 C   0  0  0  0  0  0  0  0  0  0  0  0
    3.8472   -0.5416    8.7057 C   0  0  0  0  0  0  0  0  0  0  0  0
    4.2472   -1.2618    7.5787 C   0  0  0  0  0  0  0  0  0  0  0  0
    4.7182   -0.5742    6.4585 C   0  0  0  0  0  0  0  0  0  0  0  0
    5.3233   -1.5445    5.0759 S   0  0  2  0  0  0  0  0  0  0  0  0
    6.6949   -1.1180    4.7813 O   0  0  0  0  0  0  0  0  0  0  0  0
    5.0084   -2.9572    5.3289 O   0  0  0  0  0  0  0  0  0  0  0  0
    0.7462   -1.2715    0.3634 H   0  0  0  0  0  0  0  0  0  0  0  0
    0.0326   -1.0971   -1.9278 H   0  0  0  0  0  0  0  0  0  0  0  0
    1.0057    0.3858   -2.0743 H   0  0  0  0  0  0  0  0  0  0  0  0
    0.1844    2.4804   -0.6636 H   0  0  0  0  0  0  0  0  0  0  0  0
   -1.9231    3.7842   -0.1744 H   0  0  0  0  0  0  0  0  0  0  0  0
   -2.3211   -0.9281   -1.5118 H   0  0  0  0  0  0  0  0  0  0  0  0
    2.2693   -2.3370    1.3480 H   0  0  0  0  0  0  0  0  0  0  0  0
    3.5479   -2.9645    3.3960 H   0  0  0  0  0  0  0  0  0  0  0  0
    3.5908    1.7405    1.8014 H   0  0  0  0  0  0  0  0  0  0  0  0
    5.3257    2.1426    3.3734 H   0  0  0  0  0  0  0  0  0  0  0  0
    4.5065    2.6163    7.5779 H   0  0  0  0  0  0  0  0  0  0  0  0
    3.6303    1.4223    9.5869 H   0  0  0  0  0  0  0  0  0  0  0  0
    3.4776   -1.0715    9.5867 H   0  0  0  0  0  0  0  0  0  0  0  0
    4.2103   -2.3522    7.5503 H   0  0  0  0  0  0  0  0  0  0  0  0
  1  2  2  0
  2  3  1  0
  2 15  1  0
  3  4  1  0
  3 33  1  0
  4  5  1  0
  4 34  1  0
  4 35  1  0
  5  6  2  0
  5 14  1  0
  6  7  1  0
  6 36  1  0
  7  8  2  0
  7 37  1  0
  8  9  1  0
  8 13  1  0
  9 10  1  1
  9 11  1  0
  9 12  1  0
 13 14  2  0
 14 38  1  0
 15 16  2  0
 15 20  1  0
 16 17  1  0
 16 39  1  0
 17 18  2  0
 17 40  1  0
 18 19  1  0
 30 18  1  6
 19 20  2  0
 19 21  1  0
 20 41  1  0
 21 22  1  0
 21 42  1  0
 22 23  2  0
 22 24  1  0
 24 25  1  0
 24 29  2  0
 25 26  2  0
 25 43  1  0
 26 27  1  0
 26 44  1  0
 27 28  2  0
 27 45  1  0
 28 29  1  0
 28 46  1  0
 29 30  1  0
 30 31  2  0
 30 32  2  0
M  END

