
     RDKit          3D

 33 34  0  0  0  0  0  0  0  0999 V2000
    0.5823    0.1027    0.2322 C   0  0  0  0  0  0  0  0  0  0  0  0
    2.1074    0.0976    0.2304 C   0  0  1  0  0  0  0  0  0  0  0  0
    2.7595   -1.2236   -0.2527 C   0  0  0  0  0  0  0  0  0  0  0  0
    2.5713   -1.5547   -1.6544 N   0  0  0  0  0  0  0  0  0  0  0  0
    3.1212   -0.6236   -2.6431 C   0  0  2  0  0  0  0  0  0  0  0  0
    4.6563   -0.7097   -2.7187 C   0  0  1  0  0  0  0  0  0  0  0  0
    5.1922   -2.1270   -2.9844 C   0  0  0  0  0  0  0  0  0  0  0  0
    6.6393   -1.8734   -3.4226 C   0  0  0  0  0  0  0  0  0  0  0  0
    6.5440   -0.6285   -4.3310 C   0  0  0  0  0  0  0  0  0  0  0  0
    5.2859    0.1492   -3.8486 C   0  0  0  0  0  0  0  0  0  0  0  0
    2.5881    0.8236   -2.4647 C   0  0  0  0  0  0  0  0  0  0  0  0
    2.7872    1.4717   -0.7786 S   0  0  1  0  0  0  0  0  0  0  0  0
    1.9303    2.6597   -0.6381 O   0  0  0  0  0  0  0  0  0  0  0  0
    4.2288    1.5600   -0.4760 O   0  0  0  0  0  0  0  0  0  0  0  0
    0.2104   -0.6219    0.9747 H   0  0  0  0  0  0  0  0  0  0  0  0
    0.1677   -0.1821   -0.7482 H   0  0  0  0  0  0  0  0  0  0  0  0
    0.1944    1.0982    0.4874 H   0  0  0  0  0  0  0  0  0  0  0  0
    2.4949    0.3506    1.2316 H   0  0  0  0  0  0  0  0  0  0  0  0
    2.3531   -2.0459    0.3600 H   0  0  0  0  0  0  0  0  0  0  0  0
    3.8378   -1.1777   -0.0368 H   0  0  0  0  0  0  0  0  0  0  0  0
    1.6025   -1.7846   -1.8608 H   0  0  0  0  0  0  0  0  0  0  0  0
    2.7409   -0.9608   -3.6241 H   0  0  0  0  0  0  0  0  0  0  0  0
    5.0770   -0.3549   -1.7647 H   0  0  0  0  0  0  0  0  0  0  0  0
    4.6192   -2.5959   -3.8065 H   0  0  0  0  0  0  0  0  0  0  0  0
    5.1023   -2.7913   -2.1126 H   0  0  0  0  0  0  0  0  0  0  0  0
    7.1028   -2.7377   -3.9239 H   0  0  0  0  0  0  0  0  0  0  0  0
    7.2545   -1.6480   -2.5345 H   0  0  0  0  0  0  0  0  0  0  0  0
    6.4202   -0.9352   -5.3823 H   0  0  0  0  0  0  0  0  0  0  0  0
    7.4564   -0.0140   -4.2905 H   0  0  0  0  0  0  0  0  0  0  0  0
    4.5729    0.2748   -4.6825 H   0  0  0  0  0  0  0  0  0  0  0  0
    5.5336    1.1591   -3.4885 H   0  0  0  0  0  0  0  0  0  0  0  0
    1.5088    0.8851   -2.6701 H   0  0  0  0  0  0  0  0  0  0  0  0
    3.1006    1.5612   -3.0996 H   0  0  0  0  0  0  0  0  0  0  0  0
  1  2  1  0
  1 15  1  0
  1 16  1  0
  1 17  1  0
  2  3  1  0
  2 12  1  0
  2 18  1  1
  3  4  1  0
  3 19  1  0
  3 20  1  0
  4  5  1  0
  4 21  1  0
  5  6  1  0
  5 11  1  0
  5 22  1  6
  6  7  1  0
  6 10  1  0
  6 23  1  1
  7  8  1  0
  7 24  1  0
  7 25  1  0
  8  9  1  0
  8 26  1  0
  8 27  1  0
  9 10  1  0
  9 28  1  0
  9 29  1  0
 10 30  1  0
 10 31  1  0
 12 11  1  6
 11 32  1  0
 11 33  1  0
 12 13  2  0
 12 14  2  0
M  END

