
     RDKit          3D

 52 54  0  0  0  0  0  0  0  0999 V2000
    1.5773    3.4170    0.7165 C   0  0  0  0  0  0  0  0  0  0  0  0
    2.8739    2.6450    0.7067 C   0  0  0  0  0  0  0  0  0  0  0  0
    3.9644    3.3351   -0.0909 C   0  0  0  0  0  0  0  0  0  0  0  0
    3.6435    3.4443   -1.4715 O   0  0  0  0  0  0  0  0  0  0  0  0
    3.0750    1.4556    1.3209 C   0  0  0  0  0  0  0  0  0  0  0  0
    2.0481    0.7369    2.1670 C   0  0  0  0  0  0  0  0  0  0  0  0
    4.3754    0.7114    1.2054 C   0  0  0  0  0  0  0  0  0  0  0  0
    4.6896   -0.0062    0.0429 C   0  0  0  0  0  0  0  0  0  0  0  0
    5.8893   -0.7246   -0.0390 C   0  0  0  0  0  0  0  0  0  0  0  0
    6.7798   -0.7443    1.0293 C   0  0  0  0  0  0  0  0  0  0  0  0
    6.4710   -0.0374    2.2045 C   0  0  0  0  0  0  0  0  0  0  0  0
    7.3967   -0.1046    3.2014 O   0  0  0  0  0  0  0  0  0  0  0  0
    7.1549    0.5714    4.4202 C   0  0  0  0  0  0  0  0  0  0  0  0
    8.3076    0.3693    5.3557 C   0  0  0  0  0  0  0  0  0  0  0  0
    8.5387    1.2906    6.3581 N   0  0  0  0  0  0  0  0  0  0  0  0
    9.5699    0.8394    7.0113 C   0  0  0  0  0  0  0  0  0  0  0  0
   10.2354    1.4315    8.1694 C   0  0  0  0  0  0  0  0  0  0  0  0
    9.7504    2.6419    8.6989 C   0  0  0  0  0  0  0  0  0  0  0  0
   10.3692    3.2237    9.8008 C   0  0  0  0  0  0  0  0  0  0  0  0
   11.4807    2.6060   10.3911 C   0  0  0  0  0  0  0  0  0  0  0  0
   12.1130    3.2116   11.6191 C   0  0  1  0  0  0  0  0  0  0  0  0
   12.0390    4.5545   11.6085 F   0  0  0  0  0  0  0  0  0  0  0  0
   11.5024    2.7965   12.7468 F   0  0  0  0  0  0  0  0  0  0  0  0
   13.4107    2.8778   11.7323 F   0  0  0  0  0  0  0  0  0  0  0  0
   11.9707    1.4041    9.8671 C   0  0  0  0  0  0  0  0  0  0  0  0
   11.3531    0.8191    8.7632 C   0  0  0  0  0  0  0  0  0  0  0  0
   10.0454   -0.3270    6.5062 O   0  0  0  0  0  0  0  0  0  0  0  0
    9.2348   -0.6377    5.4458 C   0  0  0  0  0  0  0  0  0  0  0  0
    9.5306   -1.8875    4.7006 C   0  0  0  0  0  0  0  0  0  0  0  0
    5.2716    0.6826    2.2913 C   0  0  0  0  0  0  0  0  0  0  0  0
    1.3569    3.7565   -0.3082 H   0  0  0  0  0  0  0  0  0  0  0  0
    1.6690    4.3277    1.3359 H   0  0  0  0  0  0  0  0  0  0  0  0
    0.7162    2.8438    1.0826 H   0  0  0  0  0  0  0  0  0  0  0  0
    4.9399    2.8436    0.0593 H   0  0  0  0  0  0  0  0  0  0  0  0
    4.0658    4.3750    0.2657 H   0  0  0  0  0  0  0  0  0  0  0  0
    3.5777    2.5462   -1.8227 H   0  0  0  0  0  0  0  0  0  0  0  0
    1.1091    1.2932    2.2801 H   0  0  0  0  0  0  0  0  0  0  0  0
    2.4497    0.5430    3.1766 H   0  0  0  0  0  0  0  0  0  0  0  0
    1.8153   -0.2530    1.7371 H   0  0  0  0  0  0  0  0  0  0  0  0
    3.9903   -0.0065   -0.7968 H   0  0  0  0  0  0  0  0  0  0  0  0
    6.1307   -1.2780   -0.9504 H   0  0  0  0  0  0  0  0  0  0  0  0
    7.7212   -1.2947    0.9788 H   0  0  0  0  0  0  0  0  0  0  0  0
    6.2170    0.2039    4.8822 H   0  0  0  0  0  0  0  0  0  0  0  0
    7.0301    1.6573    4.2581 H   0  0  0  0  0  0  0  0  0  0  0  0
    8.8862    3.1134    8.2281 H   0  0  0  0  0  0  0  0  0  0  0  0
    9.9945    4.1666   10.2036 H   0  0  0  0  0  0  0  0  0  0  0  0
   12.8422    0.9293   10.3210 H   0  0  0  0  0  0  0  0  0  0  0  0
   11.7369   -0.1163    8.3531 H   0  0  0  0  0  0  0  0  0  0  0  0
   10.5389   -1.8539    4.2546 H   0  0  0  0  0  0  0  0  0  0  0  0
    8.7978   -2.0182    3.8964 H   0  0  0  0  0  0  0  0  0  0  0  0
    9.4945   -2.7641    5.3688 H   0  0  0  0  0  0  0  0  0  0  0  0
    5.0212    1.2452    3.1910 H   0  0  0  0  0  0  0  0  0  0  0  0
  1  2  1  0
  1 31  1  0
  1 32  1  0
  1 33  1  0
  2  3  1  0
  2  5  2  0
  3  4  1  0
  3 34  1  0
  3 35  1  0
  4 36  1  0
  5  6  1  0
  5  7  1  0
  6 37  1  0
  6 38  1  0
  6 39  1  0
  7  8  2  0
  7 30  1  0
  8  9  1  0
  8 40  1  0
  9 10  2  0
  9 41  1  0
 10 11  1  0
 10 42  1  0
 11 12  1  0
 11 30  2  0
 12 13  1  0
 13 14  1  0
 13 43  1  0
 13 44  1  0
 14 15  1  0
 14 28  2  0
 15 16  2  0
 16 17  1  0
 16 27  1  0
 17 18  2  0
 17 26  1  0
 18 19  1  0
 18 45  1  0
 19 20  2  0
 19 46  1  0
 20 21  1  0
 20 25  1  0
 21 22  1  6
 21 23  1  0
 21 24  1  0
 25 26  2  0
 25 47  1  0
 26 48  1  0
 27 28  1  0
 28 29  1  0
 29 49  1  0
 29 50  1  0
 29 51  1  0
 30 52  1  0
M  END

