
     RDKit          3D

 47 50  0  0  0  0  0  0  0  0999 V2000
    1.4998   -0.5197    2.2698 N   0  0  0  0  0  0  0  0  0  0  0  0
    2.6232   -0.4816    1.9737 C   0  0  0  0  0  0  0  0  0  0  0  0
    4.0071   -0.4230    1.6067 C   0  0  0  0  0  0  0  0  0  0  0  0
    4.7373   -1.6548    1.6550 C   0  0  0  0  0  0  0  0  0  0  0  0
    5.3176   -2.6608    1.7001 N   0  0  0  0  0  0  0  0  0  0  0  0
    4.5629    0.7838    1.2339 C   0  0  0  0  0  0  0  0  0  0  0  0
    5.8936    1.0586    0.8377 C   0  0  0  0  0  0  0  0  0  0  0  0
    6.5086    2.2478    0.4572 C   0  0  0  0  0  0  0  0  0  0  0  0
    7.8522    1.9388    0.1673 C   0  0  0  0  0  0  0  0  0  0  0  0
    8.0017    0.5705    0.3822 C   0  0  0  0  0  0  0  0  0  0  0  0
    9.1217   -0.3402    0.2611 C   0  0  0  0  0  0  0  0  0  0  0  0
   10.3866    0.1138   -0.1688 C   0  0  0  0  0  0  0  0  0  0  0  0
   11.4606   -0.7558   -0.2884 C   0  0  0  0  0  0  0  0  0  0  0  0
   11.3195   -2.1274    0.0253 C   0  0  0  0  0  0  0  0  0  0  0  0
   12.4055   -3.0092   -0.0935 N   0  0  0  0  0  0  0  0  0  0  0  0
   13.7396   -2.5558    0.1210 C   0  0  0  0  0  0  0  0  0  0  0  0
   14.0603   -1.7809    1.2493 C   0  0  0  0  0  0  0  0  0  0  0  0
   15.3705   -1.3445    1.4537 C   0  0  0  0  0  0  0  0  0  0  0  0
   16.3817   -1.6870    0.5499 C   0  0  0  0  0  0  0  0  0  0  0  0
   16.0679   -2.4678   -0.5672 C   0  0  0  0  0  0  0  0  0  0  0  0
   14.7571   -2.8951   -0.7871 C   0  0  0  0  0  0  0  0  0  0  0  0
   12.1976   -4.3803   -0.4282 C   0  0  0  0  0  0  0  0  0  0  0  0
   11.3629   -4.7363   -1.5015 C   0  0  0  0  0  0  0  0  0  0  0  0
   11.1673   -6.0803   -1.8240 C   0  0  0  0  0  0  0  0  0  0  0  0
   11.8127   -7.0854   -1.0963 C   0  0  0  0  0  0  0  0  0  0  0  0
   12.6530   -6.7334   -0.0354 C   0  0  0  0  0  0  0  0  0  0  0  0
   12.8412   -5.3922    0.3037 C   0  0  0  0  0  0  0  0  0  0  0  0
   10.0542   -2.5826    0.4580 C   0  0  0  0  0  0  0  0  0  0  0  0
    8.9794   -1.7110    0.5702 C   0  0  0  0  0  0  0  0  0  0  0  0
    6.8185    0.0545    0.7845 O   0  0  0  0  0  0  0  0  0  0  0  0
    3.8992    1.6514    1.2409 H   0  0  0  0  0  0  0  0  0  0  0  0
    6.0267    3.2221    0.4015 H   0  0  0  0  0  0  0  0  0  0  0  0
    8.6270    2.6277   -0.1588 H   0  0  0  0  0  0  0  0  0  0  0  0
   10.5305    1.1648   -0.4298 H   0  0  0  0  0  0  0  0  0  0  0  0
   12.4225   -0.3790   -0.6375 H   0  0  0  0  0  0  0  0  0  0  0  0
   13.2774   -1.5257    1.9662 H   0  0  0  0  0  0  0  0  0  0  0  0
   15.6048   -0.7437    2.3363 H   0  0  0  0  0  0  0  0  0  0  0  0
   17.4074   -1.3500    0.7167 H   0  0  0  0  0  0  0  0  0  0  0  0
   16.8485   -2.7397   -1.2823 H   0  0  0  0  0  0  0  0  0  0  0  0
   14.5135   -3.4966   -1.6650 H   0  0  0  0  0  0  0  0  0  0  0  0
   10.8679   -3.9543   -2.0808 H   0  0  0  0  0  0  0  0  0  0  0  0
   10.5136   -6.3424   -2.6598 H   0  0  0  0  0  0  0  0  0  0  0  0
   11.6618   -8.1361   -1.3547 H   0  0  0  0  0  0  0  0  0  0  0  0
   13.1590   -7.5100    0.5438 H   0  0  0  0  0  0  0  0  0  0  0  0
   13.4887   -5.1209    1.1397 H   0  0  0  0  0  0  0  0  0  0  0  0
    9.9186   -3.6333    0.7167 H   0  0  0  0  0  0  0  0  0  0  0  0
    8.0157   -2.0913    0.9156 H   0  0  0  0  0  0  0  0  0  0  0  0
  1  2  3  0
  2  3  1  0
  3  4  1  0
  3  6  2  0
  4  5  3  0
  6  7  1  0
  6 31  1  0
  7  8  2  0
  7 30  1  0
  8  9  1  0
  8 32  1  0
  9 10  2  0
  9 33  1  0
 10 11  1  0
 10 30  1  0
 11 12  2  0
 11 29  1  0
 12 13  1  0
 12 34  1  0
 13 14  2  0
 13 35  1  0
 14 15  1  0
 14 28  1  0
 15 16  1  0
 15 22  1  0
 16 17  2  0
 16 21  1  0
 17 18  1  0
 17 36  1  0
 18 19  2  0
 18 37  1  0
 19 20  1  0
 19 38  1  0
 20 21  2  0
 20 39  1  0
 21 40  1  0
 22 23  2  0
 22 27  1  0
 23 24  1  0
 23 41  1  0
 24 25  2  0
 24 42  1  0
 25 26  1  0
 25 43  1  0
 26 27  2  0
 26 44  1  0
 27 45  1  0
 28 29  2  0
 28 46  1  0
 29 47  1  0
M  END

