
     RDKit          3D

 56 55  0  0  0  0  0  0  0  0999 V2000
    6.4661   -0.1014    3.2227 C   0  0  0  0  0  0  0  0  0  0  0  0
    6.5083   -0.3578    1.7259 C   0  0  0  0  0  0  0  0  0  0  0  0
    5.1903   -0.5181    1.2326 O   0  0  0  0  0  0  0  0  0  0  0  0
    4.7359   -1.0377   -0.2855 Si  0  0  1  0  0  4  0  0  0  0  0  0
    5.4487    0.0359   -1.6384 C   0  0  0  0  0  0  0  0  0  0  0  0
    4.9716   -0.3386   -3.0533 C   0  0  0  0  0  0  0  0  0  0  0  0
    5.4585    0.5902   -4.1850 C   0  0  1  0  0  0  0  0  0  0  0  0
    6.9841    0.5486   -4.3456 C   0  0  0  0  0  0  0  0  0  0  0  0
    4.7736    0.2657   -5.5283 C   0  0  0  0  0  0  0  0  0  0  0  0
    3.2676    0.5457   -5.5974 C   0  0  0  0  0  0  0  0  0  0  0  0
    2.6708    0.2730   -6.9829 C   0  0  0  0  0  0  0  0  0  0  0  0
    1.1445    0.4471   -7.0996 C   0  0  1  0  0  0  0  0  0  0  0  0
    0.6903    1.8897   -6.8382 C   0  0  0  0  0  0  0  0  0  0  0  0
    0.6481   -0.0364   -8.4686 C   0  0  0  0  0  0  0  0  0  0  0  0
    5.2411   -2.5864   -0.5908 O   0  0  0  0  0  0  0  0  0  0  0  0
    4.7643   -3.7702    0.0328 C   0  0  0  0  0  0  0  0  0  0  0  0
    5.3745   -4.9827   -0.6480 C   0  0  0  0  0  0  0  0  0  0  0  0
    3.0779   -1.0523   -0.2578 O   0  0  0  0  0  0  0  0  0  0  0  0
    2.1956   -0.1499    0.3889 C   0  0  0  0  0  0  0  0  0  0  0  0
    0.8509   -0.8202    0.6135 C   0  0  0  0  0  0  0  0  0  0  0  0
    7.4836    0.0344    3.6234 H   0  0  0  0  0  0  0  0  0  0  0  0
    5.9941   -0.9471    3.7469 H   0  0  0  0  0  0  0  0  0  0  0  0
    5.8809    0.8052    3.4429 H   0  0  0  0  0  0  0  0  0  0  0  0
    7.1115   -1.2613    1.5133 H   0  0  0  0  0  0  0  0  0  0  0  0
    7.0074    0.4883    1.2141 H   0  0  0  0  0  0  0  0  0  0  0  0
    6.5496   -0.0130   -1.5675 H   0  0  0  0  0  0  0  0  0  0  0  0
    5.1797    1.0846   -1.4104 H   0  0  0  0  0  0  0  0  0  0  0  0
    3.8694   -0.3573   -3.0510 H   0  0  0  0  0  0  0  0  0  0  0  0
    5.2870   -1.3731   -3.2805 H   0  0  0  0  0  0  0  0  0  0  0  0
    5.1761    1.6260   -3.9107 H   0  0  0  0  0  0  0  0  0  0  0  0
    7.3222   -0.4651   -4.6229 H   0  0  0  0  0  0  0  0  0  0  0  0
    7.5077    0.8322   -3.4196 H   0  0  0  0  0  0  0  0  0  0  0  0
    7.3198    1.2382   -5.1371 H   0  0  0  0  0  0  0  0  0  0  0  0
    4.9628   -0.7958   -5.7786 H   0  0  0  0  0  0  0  0  0  0  0  0
    5.2715    0.8503   -6.3232 H   0  0  0  0  0  0  0  0  0  0  0  0
    3.0889    1.5969   -5.3094 H   0  0  0  0  0  0  0  0  0  0  0  0
    2.7312   -0.0681   -4.8526 H   0  0  0  0  0  0  0  0  0  0  0  0
    2.9266   -0.7613   -7.2771 H   0  0  0  0  0  0  0  0  0  0  0  0
    3.1632    0.9250   -7.7301 H   0  0  0  0  0  0  0  0  0  0  0  0
    0.6791   -0.1967   -6.3283 H   0  0  0  0  0  0  0  0  0  0  0  0
    1.1471    2.5837   -7.5656 H   0  0  0  0  0  0  0  0  0  0  0  0
    0.9630    2.2366   -5.8296 H   0  0  0  0  0  0  0  0  0  0  0  0
   -0.4038    1.9839   -6.9334 H   0  0  0  0  0  0  0  0  0  0  0  0
    1.0849    0.5680   -9.2826 H   0  0  0  0  0  0  0  0  0  0  0  0
   -0.4484    0.0410   -8.5503 H   0  0  0  0  0  0  0  0  0  0  0  0
    0.9253   -1.0875   -8.6510 H   0  0  0  0  0  0  0  0  0  0  0  0
    3.6615   -3.8069   -0.0275 H   0  0  0  0  0  0  0  0  0  0  0  0
    5.0286   -3.7635    1.1077 H   0  0  0  0  0  0  0  0  0  0  0  0
    5.0979   -5.0082   -1.7137 H   0  0  0  0  0  0  0  0  0  0  0  0
    5.0214   -5.9127   -0.1738 H   0  0  0  0  0  0  0  0  0  0  0  0
    6.4736   -4.9537   -0.5819 H   0  0  0  0  0  0  0  0  0  0  0  0
    2.0643    0.7543   -0.2368 H   0  0  0  0  0  0  0  0  0  0  0  0
    2.6273    0.1798    1.3508 H   0  0  0  0  0  0  0  0  0  0  0  0
    0.4183   -1.1520   -0.3435 H   0  0  0  0  0  0  0  0  0  0  0  0
    0.1448   -0.1223    1.0918 H   0  0  0  0  0  0  0  0  0  0  0  0
    0.9611   -1.7032    1.2626 H   0  0  0  0  0  0  0  0  0  0  0  0
  1  2  1  0
  1 21  1  0
  1 22  1  0
  1 23  1  0
  2  3  1  0
  2 24  1  0
  2 25  1  0
  4  3  1  1
  4  5  1  0
  4 15  1  0
  4 18  1  0
  5  6  1  0
  5 26  1  0
  5 27  1  0
  6  7  1  0
  6 28  1  0
  6 29  1  0
  7  8  1  0
  7  9  1  0
  7 30  1  1
  8 31  1  0
  8 32  1  0
  8 33  1  0
  9 10  1  0
  9 34  1  0
  9 35  1  0
 10 11  1  0
 10 36  1  0
 10 37  1  0
 11 12  1  0
 11 38  1  0
 11 39  1  0
 12 13  1  0
 12 14  1  0
 12 40  1  1
 13 41  1  0
 13 42  1  0
 13 43  1  0
 14 44  1  0
 14 45  1  0
 14 46  1  0
 15 16  1  0
 16 17  1  0
 16 47  1  0
 16 48  1  0
 17 49  1  0
 17 50  1  0
 17 51  1  0
 18 19  1  0
 19 20  1  0
 19 52  1  0
 19 53  1  0
 20 54  1  0
 20 55  1  0
 20 56  1  0
M  END

