
     RDKit          3D

 32 33  0  0  0  0  0  0  0  0999 V2000
    4.7209   -1.9518   -1.1285 C   0  0  0  0  0  0  0  0  0  0  0  0
    4.9315   -0.5365   -0.5854 C   0  0  1  0  0  0  0  0  0  0  0  0
    3.8267    0.3976   -0.8276 N   0  0  0  0  0  0  0  0  0  0  0  0
    5.3081   -0.5801    0.9170 C   0  0  0  0  0  0  0  0  0  0  0  0
    5.9817   -1.4904    1.3731 O   0  0  0  0  0  0  0  0  0  0  0  0
    4.8487    0.4998    1.6136 N   0  0  0  0  0  0  0  0  0  0  0  0
    5.0349    0.8346    2.9652 C   0  0  0  0  0  0  0  0  0  0  0  0
    4.4553    2.0245    3.4380 C   0  0  0  0  0  0  0  0  0  0  0  0
    4.6154    2.4152    4.7655 C   0  0  0  0  0  0  0  0  0  0  0  0
    5.3486    1.6175    5.6531 C   0  0  0  0  0  0  0  0  0  0  0  0
    5.9228    0.4143    5.1961 C   0  0  0  0  0  0  0  0  0  0  0  0
    5.7712    0.0366    3.8607 C   0  0  0  0  0  0  0  0  0  0  0  0
    6.6492   -0.4415    6.2082 C   0  0  0  0  0  0  0  0  0  0  0  0
    7.3676    0.4239    7.2498 C   0  0  0  0  0  0  0  0  0  0  0  0
    6.4607    1.4803    7.8651 C   0  0  0  0  0  0  0  0  0  0  0  0
    6.5612    1.8831    9.0075 O   0  0  0  0  0  0  0  0  0  0  0  0
    5.5153    1.9900    6.9978 N   0  0  0  0  0  0  0  0  0  0  0  0
    4.5952   -1.9328   -2.2225 H   0  0  0  0  0  0  0  0  0  0  0  0
    3.8213   -2.4101   -0.6837 H   0  0  0  0  0  0  0  0  0  0  0  0
    5.5782   -2.5909   -0.8767 H   0  0  0  0  0  0  0  0  0  0  0  0
    5.8243   -0.1057   -1.0752 H   0  0  0  0  0  0  0  0  0  0  0  0
    2.9289   -0.0714   -0.6933 H   0  0  0  0  0  0  0  0  0  0  0  0
    3.8362    0.7350   -1.7890 H   0  0  0  0  0  0  0  0  0  0  0  0
    4.2924    1.1283    1.0319 H   0  0  0  0  0  0  0  0  0  0  0  0
    3.8807    2.6569    2.7556 H   0  0  0  0  0  0  0  0  0  0  0  0
    4.1699    3.3506    5.1149 H   0  0  0  0  0  0  0  0  0  0  0  0
    6.2156   -0.8883    3.4968 H   0  0  0  0  0  0  0  0  0  0  0  0
    7.3584   -1.1158    5.7056 H   0  0  0  0  0  0  0  0  0  0  0  0
    5.9143   -1.0901    6.7225 H   0  0  0  0  0  0  0  0  0  0  0  0
    8.2097    0.9626    6.7772 H   0  0  0  0  0  0  0  0  0  0  0  0
    7.7861   -0.1691    8.0743 H   0  0  0  0  0  0  0  0  0  0  0  0
    4.9622    2.7566    7.3694 H   0  0  0  0  0  0  0  0  0  0  0  0
  1  2  1  0
  1 18  1  0
  1 19  1  0
  1 20  1  0
  2  3  1  0
  2  4  1  0
  2 21  1  6
  3 22  1  0
  3 23  1  0
  4  5  2  0
  4  6  1  0
  6  7  1  0
  6 24  1  0
  7  8  2  0
  7 12  1  0
  8  9  1  0
  8 25  1  0
  9 10  2  0
  9 26  1  0
 10 11  1  0
 10 17  1  0
 11 12  2  0
 11 13  1  0
 12 27  1  0
 13 14  1  0
 13 28  1  0
 13 29  1  0
 14 15  1  0
 14 30  1  0
 14 31  1  0
 15 16  2  0
 15 17  1  0
 17 32  1  0
M  END

