
     RDKit          3D

 66 70  0  0  0  0  0  0  0  0999 V2000
    1.6986   -0.3630    0.5222 C   0  0  0  0  0  0  0  0  0  0  0  0
    3.0978   -0.2025   -0.0231 C   0  0  0  0  0  0  0  0  0  0  0  0
    3.6157    1.0816   -0.2238 C   0  0  0  0  0  0  0  0  0  0  0  0
    4.9135    1.3094   -0.7133 C   0  0  0  0  0  0  0  0  0  0  0  0
    5.3959    2.7066   -0.9030 C   0  0  0  0  0  0  0  0  0  0  0  0
    6.6537    3.0095   -1.4653 C   0  0  0  0  0  0  0  0  0  0  0  0
    6.9794    4.3579   -1.5834 C   0  0  0  0  0  0  0  0  0  0  0  0
    6.1726    5.3454   -1.1983 N   0  0  0  0  0  0  0  0  0  0  0  0
    4.9959    4.9617   -0.6787 C   0  0  0  0  0  0  0  0  0  0  0  0
    4.1067    5.9141   -0.2607 N   0  0  0  0  0  0  0  0  0  0  0  0
    4.2225    7.3042   -0.2853 C   0  0  0  0  0  0  0  0  0  0  0  0
    5.2797    8.1407   -0.7398 C   0  0  0  0  0  0  0  0  0  0  0  0
    4.9710    9.4253   -0.5766 N   0  0  0  0  0  0  0  0  0  0  0  0
    3.7510    9.4485   -0.0324 N   0  0  0  0  0  0  0  0  0  0  0  0
    3.1060   10.7030    0.2795 C   0  0  1  0  0  0  0  0  0  0  0  0
    3.8863   11.7538    1.1081 C   0  0  0  0  0  0  0  0  0  0  0  0
    3.3679   12.7984    0.2021 N   0  0  0  0  0  0  0  0  0  0  0  0
    3.0241   11.7903   -0.8209 C   0  0  0  0  0  0  0  0  0  0  0  0
    3.2513    8.1923    0.1650 C   0  0  0  0  0  0  0  0  0  0  0  0
    4.5813    3.6922   -0.5175 N   0  0  0  0  0  0  0  0  0  0  0  0
    5.7112    0.1934   -1.0094 C   0  0  0  0  0  0  0  0  0  0  0  0
    5.2113   -1.0936   -0.8163 C   0  0  0  0  0  0  0  0  0  0  0  0
    3.9160   -1.3173   -0.3288 C   0  0  0  0  0  0  0  0  0  0  0  0
    3.4288   -2.7422   -0.1540 C   0  0  0  0  0  0  0  0  0  0  0  0
    3.1720   -3.1015    1.2325 N   0  0  0  0  0  0  0  0  0  0  0  0
    1.9834   -3.6397    1.6456 C   0  0  0  0  0  0  0  0  0  0  0  0
    1.0527   -3.8597    0.8832 O   0  0  0  0  0  0  0  0  0  0  0  0
    1.8612   -3.9473    3.0976 C   0  0  0  0  0  0  0  0  0  0  0  0
    0.7474   -4.5088    3.6803 C   0  0  0  0  0  0  0  0  0  0  0  0
    0.8116   -4.7217    5.0240 N   0  0  0  0  0  0  0  0  0  0  0  0
    1.9512   -4.3440    5.5320 C   0  0  0  0  0  0  0  0  0  0  0  0
    2.2995   -4.4610    7.0090 C   0  0  1  0  0  0  0  0  0  0  0  0
    1.2643   -3.6379    7.8086 C   0  0  0  0  0  0  0  0  0  0  0  0
    2.1957   -5.9509    7.4058 C   0  0  0  0  0  0  0  0  0  0  0  0
    3.7166   -3.9410    7.3004 C   0  0  0  0  0  0  0  0  0  0  0  0
    3.0587   -3.6755    4.3360 S   0  0  0  0  0  0  0  0  0  0  0  0
    1.1181    0.5610    0.3864 H   0  0  0  0  0  0  0  0  0  0  0  0
    1.7175   -0.5852    1.6028 H   0  0  0  0  0  0  0  0  0  0  0  0
    1.1494   -1.1899    0.0479 H   0  0  0  0  0  0  0  0  0  0  0  0
    2.9995    1.9541   -0.0017 H   0  0  0  0  0  0  0  0  0  0  0  0
    7.3478    2.2422   -1.8025 H   0  0  0  0  0  0  0  0  0  0  0  0
    7.9430    4.6577   -2.0128 H   0  0  0  0  0  0  0  0  0  0  0  0
    3.2508    5.5239    0.1151 H   0  0  0  0  0  0  0  0  0  0  0  0
    6.2276    7.8327   -1.1686 H   0  0  0  0  0  0  0  0  0  0  0  0
    2.1246   10.4704    0.7137 H   0  0  0  0  0  0  0  0  0  0  0  0
    4.9725   11.5672    1.0360 H   0  0  0  0  0  0  0  0  0  0  0  0
    3.6045   11.8679    2.1692 H   0  0  0  0  0  0  0  0  0  0  0  0
    4.0453   13.5015   -0.0875 H   0  0  0  0  0  0  0  0  0  0  0  0
    3.7996   11.6169   -1.5878 H   0  0  0  0  0  0  0  0  0  0  0  0
    2.0473   11.9338   -1.3145 H   0  0  0  0  0  0  0  0  0  0  0  0
    2.2681    8.0239    0.5995 H   0  0  0  0  0  0  0  0  0  0  0  0
    6.7268    0.3131   -1.3889 H   0  0  0  0  0  0  0  0  0  0  0  0
    5.8443   -1.9530   -1.0559 H   0  0  0  0  0  0  0  0  0  0  0  0
    4.1701   -3.4334   -0.5917 H   0  0  0  0  0  0  0  0  0  0  0  0
    2.4809   -2.9127   -0.6856 H   0  0  0  0  0  0  0  0  0  0  0  0
    3.9119   -2.9428    1.9067 H   0  0  0  0  0  0  0  0  0  0  0  0
   -0.1451   -4.7749    3.1121 H   0  0  0  0  0  0  0  0  0  0  0  0
    0.2438   -3.9840    7.5908 H   0  0  0  0  0  0  0  0  0  0  0  0
    1.3247   -2.5682    7.5525 H   0  0  0  0  0  0  0  0  0  0  0  0
    1.4498   -3.7429    8.8897 H   0  0  0  0  0  0  0  0  0  0  0  0
    1.1938   -6.3425    7.1793 H   0  0  0  0  0  0  0  0  0  0  0  0
    2.3862   -6.0700    8.4846 H   0  0  0  0  0  0  0  0  0  0  0  0
    2.9325   -6.5597    6.8581 H   0  0  0  0  0  0  0  0  0  0  0  0
    3.8230   -2.8768    7.0351 H   0  0  0  0  0  0  0  0  0  0  0  0
    4.4815   -4.5122    6.7499 H   0  0  0  0  0  0  0  0  0  0  0  0
    3.9386   -4.0387    8.3743 H   0  0  0  0  0  0  0  0  0  0  0  0
  1  2  1  0
  1 37  1  0
  1 38  1  0
  1 39  1  0
  2  3  2  0
  2 23  1  0
  3  4  1  0
  3 40  1  0
  4  5  1  0
  4 21  2  0
  5  6  2  0
  5 20  1  0
  6  7  1  0
  6 41  1  0
  7  8  2  0
  7 42  1  0
  8  9  1  0
  9 10  1  0
  9 20  2  0
 10 11  1  0
 10 43  1  0
 11 12  1  0
 11 19  2  0
 12 13  2  0
 12 44  1  0
 13 14  1  0
 14 15  1  0
 14 19  1  0
 15 16  1  0
 15 18  1  0
 15 45  1  1
 16 17  1  0
 16 46  1  0
 16 47  1  0
 17 18  1  0
 17 48  1  0
 18 49  1  0
 18 50  1  0
 19 51  1  0
 21 22  1  0
 21 52  1  0
 22 23  2  0
 22 53  1  0
 23 24  1  0
 24 25  1  0
 24 54  1  0
 24 55  1  0
 25 26  1  0
 25 56  1  0
 26 27  2  0
 26 28  1  0
 28 29  2  0
 28 36  1  0
 29 30  1  0
 29 57  1  0
 30 31  2  0
 31 32  1  0
 31 36  1  0
 32 33  1  1
 32 34  1  0
 32 35  1  0
 33 58  1  0
 33 59  1  0
 33 60  1  0
 34 61  1  0
 34 62  1  0
 34 63  1  0
 35 64  1  0
 35 65  1  0
 35 66  1  0
M  END

