
     RDKit          3D

 50 52  0  0  0  0  0  0  0  0999 V2000
   10.2638    0.5707    0.3085 C   0  0  0  0  0  0  0  0  0  0  0  0
    9.1237    0.9825   -0.3934 O   0  0  0  0  0  0  0  0  0  0  0  0
    7.9160    0.5689    0.1870 C   0  0  0  0  0  0  0  0  0  0  0  0
    6.7465    1.1018   -0.6352 C   0  0  0  0  0  0  0  0  0  0  0  0
    6.7778    0.7074   -2.0386 N   0  0  0  0  0  0  0  0  0  0  0  0
    6.7638   -0.7216   -2.3080 C   0  0  0  0  0  0  0  0  0  0  0  0
    6.8982    1.7067   -2.9710 C   0  0  0  0  0  0  0  0  0  0  0  0
    6.9240    2.8949   -2.6614 O   0  0  0  0  0  0  0  0  0  0  0  0
    6.9919    1.3999   -4.4364 C   0  0  0  0  0  0  0  0  0  0  0  0
    7.1623    2.4052   -5.3783 C   0  0  0  0  0  0  0  0  0  0  0  0
    7.1889    1.7555   -6.5626 N   0  0  0  0  0  0  0  0  0  0  0  0
    7.3442    2.2825   -7.9046 C   0  0  1  0  0  0  0  0  0  0  0  0
    6.4287    3.4837   -8.2516 C   0  0  0  0  0  0  0  0  0  0  0  0
    7.5582    4.3853   -7.9900 N   0  0  0  0  0  0  0  0  0  0  0  0
    7.7283    5.5763   -8.7952 C   0  0  0  0  0  0  0  0  0  0  0  0
    8.9207    6.4118   -8.3700 C   0  0  0  0  0  0  0  0  0  0  0  0
    9.1457    6.6956   -7.0126 C   0  0  0  0  0  0  0  0  0  0  0  0
   10.2284    7.4891   -6.6356 C   0  0  0  0  0  0  0  0  0  0  0  0
   11.0965    8.0090   -7.6026 C   0  0  0  0  0  0  0  0  0  0  0  0
   10.8961    7.7387   -8.9625 C   0  0  0  0  0  0  0  0  0  0  0  0
   11.8271    8.2815  -10.0203 C   0  0  0  0  0  0  0  0  0  0  0  0
    9.8021    6.9331   -9.3237 C   0  0  0  0  0  0  0  0  0  0  0  0
    8.5186    3.2759   -8.0941 C   0  0  0  0  0  0  0  0  0  0  0  0
    7.0412    0.4246   -6.3811 N   0  0  0  0  0  0  0  0  0  0  0  0
    6.9247    0.2132   -5.1108 N   0  0  0  0  0  0  0  0  0  0  0  0
   11.1465    0.9346   -0.2376 H   0  0  0  0  0  0  0  0  0  0  0  0
   10.3294   -0.5345    0.3870 H   0  0  0  0  0  0  0  0  0  0  0  0
   10.2922    0.9840    1.3380 H   0  0  0  0  0  0  0  0  0  0  0  0
    7.8124    0.9563    1.2236 H   0  0  0  0  0  0  0  0  0  0  0  0
    7.8811   -0.5393    0.2637 H   0  0  0  0  0  0  0  0  0  0  0  0
    6.7485    2.1981   -0.6119 H   0  0  0  0  0  0  0  0  0  0  0  0
    5.8087    0.7429   -0.1702 H   0  0  0  0  0  0  0  0  0  0  0  0
    5.9541   -1.1978   -1.7279 H   0  0  0  0  0  0  0  0  0  0  0  0
    7.7179   -1.1936   -2.0133 H   0  0  0  0  0  0  0  0  0  0  0  0
    6.6047   -0.9152   -3.3725 H   0  0  0  0  0  0  0  0  0  0  0  0
    7.2599    3.4813   -5.2782 H   0  0  0  0  0  0  0  0  0  0  0  0
    7.3076    1.4142   -8.5721 H   0  0  0  0  0  0  0  0  0  0  0  0
    5.5358    3.6355   -7.6218 H   0  0  0  0  0  0  0  0  0  0  0  0
    6.1171    3.4529   -9.3165 H   0  0  0  0  0  0  0  0  0  0  0  0
    6.8042    6.1744   -8.6922 H   0  0  0  0  0  0  0  0  0  0  0  0
    7.8208    5.3291   -9.8782 H   0  0  0  0  0  0  0  0  0  0  0  0
    8.4688    6.2857   -6.2598 H   0  0  0  0  0  0  0  0  0  0  0  0
   10.4003    7.7075   -5.5783 H   0  0  0  0  0  0  0  0  0  0  0  0
   11.9424    8.6304   -7.2950 H   0  0  0  0  0  0  0  0  0  0  0  0
   12.6054    8.9241   -9.5831 H   0  0  0  0  0  0  0  0  0  0  0  0
   11.2799    8.8774  -10.7698 H   0  0  0  0  0  0  0  0  0  0  0  0
   12.3327    7.4668  -10.5659 H   0  0  0  0  0  0  0  0  0  0  0  0
    9.6351    6.7072  -10.3823 H   0  0  0  0  0  0  0  0  0  0  0  0
    9.3192    3.2610   -7.3371 H   0  0  0  0  0  0  0  0  0  0  0  0
    8.9736    3.1730   -9.1009 H   0  0  0  0  0  0  0  0  0  0  0  0
  1  2  1  0
  1 26  1  0
  1 27  1  0
  1 28  1  0
  2  3  1  0
  3  4  1  0
  3 29  1  0
  3 30  1  0
  4  5  1  0
  4 31  1  0
  4 32  1  0
  5  6  1  0
  5  7  1  0
  6 33  1  0
  6 34  1  0
  6 35  1  0
  7  8  2  0
  7  9  1  0
  9 10  2  0
  9 25  1  0
 10 11  1  0
 10 36  1  0
 11 12  1  0
 11 24  1  0
 12 13  1  0
 12 23  1  0
 12 37  1  6
 13 14  1  0
 13 38  1  0
 13 39  1  0
 14 15  1  0
 14 23  1  0
 15 16  1  0
 15 40  1  0
 15 41  1  0
 16 17  2  0
 16 22  1  0
 17 18  1  0
 17 42  1  0
 18 19  2  0
 18 43  1  0
 19 20  1  0
 19 44  1  0
 20 21  1  0
 20 22  2  0
 21 45  1  0
 21 46  1  0
 21 47  1  0
 22 48  1  0
 23 49  1  0
 23 50  1  0
 24 25  2  0
M  END

