
     RDKit          3D

 43 44  0  0  0  0  0  0  0  0999 V2000
    8.5177    3.2110   -7.4657 O   0  0  0  0  0  0  0  0  0  0  0  0
    8.9381    3.3593   -6.1272 C   0  0  0  0  0  0  0  0  0  0  0  0
    8.2787    2.2369   -5.3191 C   0  0  0  0  0  0  0  0  0  0  0  0
    8.6205    2.2568   -3.9003 C   0  0  0  0  0  0  0  0  0  0  0  0
    8.9138    2.2946   -2.7186 C   0  0  0  0  0  0  0  0  0  0  0  0
    9.2604    2.3206   -1.3468 C   0  0  0  0  0  0  0  0  0  0  0  0
    8.6534    3.0043   -0.3064 C   0  0  0  0  0  0  0  0  0  0  0  0
    9.2825    2.7938    0.9503 C   0  0  0  0  0  0  0  0  0  0  0  0
   10.3712    1.9523    0.8842 C   0  0  0  0  0  0  0  0  0  0  0  0
   11.3013    1.5364    1.9959 C   0  0  0  0  0  0  0  0  0  0  0  0
   10.5991    1.1275    3.2123 N   0  0  0  0  0  0  0  0  0  0  0  0
    9.9055   -0.1515    3.0224 C   0  0  0  0  0  0  0  0  0  0  0  0
    8.7018   -0.3971    3.9386 C   0  0  0  0  0  0  0  0  0  0  0  0
    7.5960    0.6507    3.8183 C   0  0  0  0  0  0  0  0  0  0  0  0
    6.5225    0.4152    4.7077 O   0  0  0  0  0  0  0  0  0  0  0  0
   11.4904    1.1415    4.3637 C   0  0  1  0  0  0  0  0  0  0  0  0
   12.2009    2.4716    4.7241 C   0  0  0  0  0  0  0  0  0  0  0  0
   12.0163    2.1168    6.2204 C   0  0  0  0  0  0  0  0  0  0  0  0
   10.9018    1.1286    5.8013 C   0  0  0  0  0  0  0  0  0  0  0  0
   10.6279    1.4016   -0.7435 S   0  0  0  0  0  0  0  0  0  0  0  0
    8.9215    3.9093   -7.9951 H   0  0  0  0  0  0  0  0  0  0  0  0
    8.6383    4.3378   -5.7015 H   0  0  0  0  0  0  0  0  0  0  0  0
   10.0391    3.2824   -6.0245 H   0  0  0  0  0  0  0  0  0  0  0  0
    8.5715    1.2710   -5.7671 H   0  0  0  0  0  0  0  0  0  0  0  0
    7.1848    2.3153   -5.4480 H   0  0  0  0  0  0  0  0  0  0  0  0
    7.7788    3.6378   -0.4588 H   0  0  0  0  0  0  0  0  0  0  0  0
    8.9464    3.2420    1.8859 H   0  0  0  0  0  0  0  0  0  0  0  0
   11.9446    2.3946    2.2474 H   0  0  0  0  0  0  0  0  0  0  0  0
   11.9901    0.7436    1.6233 H   0  0  0  0  0  0  0  0  0  0  0  0
   10.6196   -1.0004    3.1215 H   0  0  0  0  0  0  0  0  0  0  0  0
    9.5473   -0.1761    1.9810 H   0  0  0  0  0  0  0  0  0  0  0  0
    9.0000   -0.4699    4.9951 H   0  0  0  0  0  0  0  0  0  0  0  0
    8.2867   -1.3877    3.6723 H   0  0  0  0  0  0  0  0  0  0  0  0
    7.2524    0.7134    2.7647 H   0  0  0  0  0  0  0  0  0  0  0  0
    7.9981    1.6427    4.0732 H   0  0  0  0  0  0  0  0  0  0  0  0
    6.1321   -0.4403    4.4860 H   0  0  0  0  0  0  0  0  0  0  0  0
   12.2530    0.3316    4.2800 H   0  0  0  0  0  0  0  0  0  0  0  0
   11.5704    3.3285    4.4381 H   0  0  0  0  0  0  0  0  0  0  0  0
   13.2232    2.6351    4.3495 H   0  0  0  0  0  0  0  0  0  0  0  0
   11.7410    2.9331    6.9044 H   0  0  0  0  0  0  0  0  0  0  0  0
   12.8966    1.5996    6.6328 H   0  0  0  0  0  0  0  0  0  0  0  0
    9.9138    1.6115    5.8205 H   0  0  0  0  0  0  0  0  0  0  0  0
   10.8398    0.1629    6.3252 H   0  0  0  0  0  0  0  0  0  0  0  0
  1  2  1  0
  1 21  1  0
  2  3  1  0
  2 22  1  0
  2 23  1  0
  3  4  1  0
  3 24  1  0
  3 25  1  0
  4  5  3  0
  5  6  1  0
  6  7  2  0
  6 20  1  0
  7  8  1  0
  7 26  1  0
  8  9  2  0
  8 27  1  0
  9 10  1  0
  9 20  1  0
 10 11  1  0
 10 28  1  0
 10 29  1  0
 11 12  1  0
 11 16  1  0
 12 13  1  0
 12 30  1  0
 12 31  1  0
 13 14  1  0
 13 32  1  0
 13 33  1  0
 14 15  1  0
 14 34  1  0
 14 35  1  0
 15 36  1  0
 16 17  1  0
 16 19  1  0
 16 37  1  6
 17 18  1  0
 17 38  1  0
 17 39  1  0
 18 19  1  0
 18 40  1  0
 18 41  1  0
 19 42  1  0
 19 43  1  0
M  END

