
     RDKit          3D

 45 46  0  0  0  0  0  0  0  0999 V2000
    4.1706    1.3525    1.6627 C   0  0  0  0  0  0  0  0  0  0  0  0
    3.6956    0.5432    0.4434 C   0  0  1  0  0  0  0  0  0  0  0  0
    2.3901   -0.2112    0.7494 C   0  0  0  0  0  0  0  0  0  0  0  0
    3.5765    1.4076   -0.8058 C   0  0  0  0  0  0  0  0  0  0  0  0
    4.3631    1.1492   -1.9388 C   0  0  0  0  0  0  0  0  0  0  0  0
    4.2641    1.9326   -3.0914 C   0  0  0  0  0  0  0  0  0  0  0  0
    3.3664    3.0080   -3.1523 C   0  0  0  0  0  0  0  0  0  0  0  0
    3.2812    3.8867   -4.3845 C   0  0  0  0  0  0  0  0  0  0  0  0
    3.4569    3.1355   -5.6174 N   0  0  0  0  0  0  0  0  0  0  0  0
    3.4202    3.9390   -6.8268 C   0  0  0  0  0  0  0  0  0  0  0  0
    3.7871    3.1281   -8.0877 C   0  0  1  0  0  0  0  0  0  0  0  0
    2.8068    1.9721   -8.3482 C   0  0  0  0  0  0  0  0  0  0  0  0
    3.9331    4.0490   -9.2910 C   0  0  0  0  0  0  0  0  0  0  0  0
    5.2000    4.3110   -9.8367 C   0  0  0  0  0  0  0  0  0  0  0  0
    5.3555    5.1694  -10.9293 C   0  0  0  0  0  0  0  0  0  0  0  0
    4.2398    5.7880  -11.4994 C   0  0  0  0  0  0  0  0  0  0  0  0
    2.9708    5.5391  -10.9675 C   0  0  0  0  0  0  0  0  0  0  0  0
    2.8208    4.6787   -9.8765 C   0  0  0  0  0  0  0  0  0  0  0  0
    2.5716    3.2663   -2.0259 C   0  0  0  0  0  0  0  0  0  0  0  0
    2.6770    2.4844   -0.8737 C   0  0  0  0  0  0  0  0  0  0  0  0
    4.3142    0.6958    2.5366 H   0  0  0  0  0  0  0  0  0  0  0  0
    3.4350    2.1237    1.9451 H   0  0  0  0  0  0  0  0  0  0  0  0
    5.1253    1.8616    1.4579 H   0  0  0  0  0  0  0  0  0  0  0  0
    4.4700   -0.2146    0.2310 H   0  0  0  0  0  0  0  0  0  0  0  0
    1.5692    0.4857    0.9867 H   0  0  0  0  0  0  0  0  0  0  0  0
    2.5181   -0.8803    1.6164 H   0  0  0  0  0  0  0  0  0  0  0  0
    2.0705   -0.8226   -0.1090 H   0  0  0  0  0  0  0  0  0  0  0  0
    5.0713    0.3149   -1.9181 H   0  0  0  0  0  0  0  0  0  0  0  0
    4.8799    1.7121   -3.9659 H   0  0  0  0  0  0  0  0  0  0  0  0
    4.0825    4.6497   -4.3428 H   0  0  0  0  0  0  0  0  0  0  0  0
    2.3273    4.4606   -4.3522 H   0  0  0  0  0  0  0  0  0  0  0  0
    2.7624    2.3908   -5.6590 H   0  0  0  0  0  0  0  0  0  0  0  0
    4.1540    4.7554   -6.7127 H   0  0  0  0  0  0  0  0  0  0  0  0
    2.4362    4.4387   -6.9870 H   0  0  0  0  0  0  0  0  0  0  0  0
    4.7767    2.6849   -7.8866 H   0  0  0  0  0  0  0  0  0  0  0  0
    1.7707    2.3311   -8.4644 H   0  0  0  0  0  0  0  0  0  0  0  0
    2.8220    1.2443   -7.5211 H   0  0  0  0  0  0  0  0  0  0  0  0
    3.0764    1.4285   -9.2668 H   0  0  0  0  0  0  0  0  0  0  0  0
    6.0796    3.8312   -9.3973 H   0  0  0  0  0  0  0  0  0  0  0  0
    6.3531    5.3540  -11.3368 H   0  0  0  0  0  0  0  0  0  0  0  0
    4.3574    6.4591  -12.3541 H   0  0  0  0  0  0  0  0  0  0  0  0
    2.0905    6.0170  -11.4059 H   0  0  0  0  0  0  0  0  0  0  0  0
    1.8191    4.4954   -9.4787 H   0  0  0  0  0  0  0  0  0  0  0  0
    1.8553    4.0934   -2.0508 H   0  0  0  0  0  0  0  0  0  0  0  0
    2.0392    2.7176   -0.0165 H   0  0  0  0  0  0  0  0  0  0  0  0
  1  2  1  0
  1 21  1  0
  1 22  1  0
  1 23  1  0
  2  3  1  0
  2  4  1  0
  2 24  1  6
  3 25  1  0
  3 26  1  0
  3 27  1  0
  4  5  2  0
  4 20  1  0
  5  6  1  0
  5 28  1  0
  6  7  2  0
  6 29  1  0
  7  8  1  0
  7 19  1  0
  8  9  1  0
  8 30  1  0
  8 31  1  0
  9 10  1  0
  9 32  1  0
 10 11  1  0
 10 33  1  0
 10 34  1  0
 11 12  1  0
 11 13  1  0
 11 35  1  1
 12 36  1  0
 12 37  1  0
 12 38  1  0
 13 14  2  0
 13 18  1  0
 14 15  1  0
 14 39  1  0
 15 16  2  0
 15 40  1  0
 16 17  1  0
 16 41  1  0
 17 18  2  0
 17 42  1  0
 18 43  1  0
 19 20  2  0
 19 44  1  0
 20 45  1  0
M  END

