
     RDKit          3D

 21 21  0  0  0  0  0  0  0  0999 V2000
    1.2787    0.6928    0.0682 N   0  0  0  0  0  0  0  0  0  0  0  0
    2.4054    0.4250    0.0523 C   0  0  0  0  0  0  0  0  0  0  0  0
    3.8342    0.0903    0.0369 C   0  0  0  0  0  0  0  0  0  0  0  0
    4.2046   -1.0003    1.0309 C   0  0  0  0  0  0  0  0  0  0  0  0
    4.7815   -0.5800    2.1585 N   0  0  0  0  0  0  0  0  0  0  0  0
    5.1490   -1.4352    3.1030 C   0  0  0  0  0  0  0  0  0  0  0  0
    5.7917   -0.8364    4.3499 C   0  0  1  0  0  0  0  0  0  0  0  0
    7.0589   -1.3449    4.4911 F   0  0  0  0  0  0  0  0  0  0  0  0
    5.8897    0.4988    4.2564 F   0  0  0  0  0  0  0  0  0  0  0  0
    4.9530   -2.8282    2.9855 C   0  0  0  0  0  0  0  0  0  0  0  0
    5.3542   -3.8087    4.0451 C   0  0  0  0  0  0  0  0  0  0  0  0
    3.9991   -3.9223    5.4966 Br  0  0  0  0  0  0  0  0  0  0  0  0
    4.3514   -3.2799    1.8053 C   0  0  0  0  0  0  0  0  0  0  0  0
    3.9746   -2.3710    0.8149 C   0  0  0  0  0  0  0  0  0  0  0  0
    3.0796   -3.1138   -0.9615 I   0  0  0  0  0  0  0  0  0  0  0  0
    4.4051    0.9895    0.3120 H   0  0  0  0  0  0  0  0  0  0  0  0
    4.1136   -0.1977   -0.9894 H   0  0  0  0  0  0  0  0  0  0  0  0
    5.2295   -1.0930    5.2654 H   0  0  0  0  0  0  0  0  0  0  0  0
    6.2881   -3.5331    4.5430 H   0  0  0  0  0  0  0  0  0  0  0  0
    5.4310   -4.8260    3.6461 H   0  0  0  0  0  0  0  0  0  0  0  0
    4.1785   -4.3488    1.6634 H   0  0  0  0  0  0  0  0  0  0  0  0
  1  2  3  0
  2  3  1  0
  3  4  1  0
  3 16  1  0
  3 17  1  0
  4  5  2  0
  4 14  1  0
  5  6  1  0
  6  7  1  0
  6 10  2  0
  7  8  1  0
  7  9  1  0
  7 18  1  1
 10 11  1  0
 10 13  1  0
 11 12  1  0
 11 19  1  0
 11 20  1  0
 13 14  2  0
 13 21  1  0
 14 15  1  0
M  END

