
     RDKit          3D

 58 61  0  0  0  0  0  0  0  0999 V2000
    1.3351    1.4082   -4.2409 C   0  0  0  0  0  0  0  0  0  0  0  0
    2.2968    1.8061   -3.1767 C   0  0  0  0  0  0  0  0  0  0  0  0
    3.5653    2.3112   -3.1964 C   0  0  0  0  0  0  0  0  0  0  0  0
    3.8878    2.4563   -1.8067 C   0  0  0  0  0  0  0  0  0  0  0  0
    5.1046    2.9469   -1.3391 N   0  0  0  0  0  0  0  0  0  0  0  0
    5.5374    3.0606   -0.0237 C   0  0  0  0  0  0  0  0  0  0  0  0
    4.8687    2.7301    0.9304 O   0  0  0  0  0  0  0  0  0  0  0  0
    6.9314    3.7185    0.1302 C   0  0  2  0  0  0  0  0  0  0  0  0
    7.4361    3.7216   -0.8532 H   0  0  0  0  0  0  0  0  0  0  0  0
    7.7836    2.8972    1.0983 C   0  0  0  0  0  0  0  0  0  0  0  0
    6.8290    5.1265    0.5231 N   0  0  0  0  0  0  0  0  0  0  0  0
    6.2193    5.4127    1.8234 C   0  0  0  0  0  0  0  0  0  0  0  0
    6.4276    6.8891    2.1881 C   0  0  0  0  0  0  0  0  0  0  0  0
    5.9240    7.8249    1.1777 N   0  0  0  0  0  0  0  0  0  0  0  0
    4.4652    8.0216    1.2006 C   0  0  1  0  0  0  0  0  0  0  0  0
    4.0059    8.6098    2.5398 C   0  0  0  0  0  0  0  0  0  0  0  0
    4.7725    9.5623    3.2295 C   0  0  0  0  0  0  0  0  0  0  0  0
    4.3050   10.1286    4.4180 C   0  0  0  0  0  0  0  0  0  0  0  0
    3.0621    9.7530    4.9381 C   0  0  0  0  0  0  0  0  0  0  0  0
    2.2940    8.8007    4.2627 C   0  0  0  0  0  0  0  0  0  0  0  0
    2.7657    8.2336    3.0753 C   0  0  0  0  0  0  0  0  0  0  0  0
    3.9891    8.9243    0.0598 C   0  0  0  0  0  0  0  0  0  0  0  0
    2.9594    8.4977   -0.7900 C   0  0  0  0  0  0  0  0  0  0  0  0
    2.4821    9.3232   -1.8144 C   0  0  0  0  0  0  0  0  0  0  0  0
    3.0356   10.5904   -2.0067 C   0  0  0  0  0  0  0  0  0  0  0  0
    4.0677   11.0257   -1.1668 C   0  0  0  0  0  0  0  0  0  0  0  0
    4.5368   10.2023   -0.1420 C   0  0  0  0  0  0  0  0  0  0  0  0
    6.5246    7.4834   -0.1107 C   0  0  0  0  0  0  0  0  0  0  0  0
    6.3263    6.0166   -0.5178 C   0  0  0  0  0  0  0  0  0  0  0  0
    2.8996    2.0729   -1.0274 N   0  0  0  0  0  0  0  0  0  0  0  0
    1.8984    1.6630   -1.9031 O   0  0  0  0  0  0  0  0  0  0  0  0
    1.7718    1.5712   -5.2351 H   0  0  0  0  0  0  0  0  0  0  0  0
    0.4040    1.9924   -4.1638 H   0  0  0  0  0  0  0  0  0  0  0  0
    1.0646    0.3443   -4.1440 H   0  0  0  0  0  0  0  0  0  0  0  0
    4.1819    2.5444   -4.0608 H   0  0  0  0  0  0  0  0  0  0  0  0
    5.7517    3.2430   -2.0587 H   0  0  0  0  0  0  0  0  0  0  0  0
    8.7224    3.4294    1.3122 H   0  0  0  0  0  0  0  0  0  0  0  0
    8.0228    1.9167    0.6582 H   0  0  0  0  0  0  0  0  0  0  0  0
    7.2452    2.7108    2.0379 H   0  0  0  0  0  0  0  0  0  0  0  0
    6.6945    4.7895    2.5948 H   0  0  0  0  0  0  0  0  0  0  0  0
    5.1389    5.1591    1.8416 H   0  0  0  0  0  0  0  0  0  0  0  0
    7.5109    7.0701    2.3031 H   0  0  0  0  0  0  0  0  0  0  0  0
    5.9531    7.0971    3.1571 H   0  0  0  0  0  0  0  0  0  0  0  0
    3.9167    7.0653    1.0803 H   0  0  0  0  0  0  0  0  0  0  0  0
    5.7510    9.8410    2.8328 H   0  0  0  0  0  0  0  0  0  0  0  0
    4.9172   10.8664    4.9439 H   0  0  0  0  0  0  0  0  0  0  0  0
    2.6975   10.1956    5.8688 H   0  0  0  0  0  0  0  0  0  0  0  0
    1.3250    8.4922    4.6638 H   0  0  0  0  0  0  0  0  0  0  0  0
    2.1598    7.4854    2.5558 H   0  0  0  0  0  0  0  0  0  0  0  0
    2.5232    7.5046   -0.6483 H   0  0  0  0  0  0  0  0  0  0  0  0
    1.6763    8.9710   -2.4639 H   0  0  0  0  0  0  0  0  0  0  0  0
    2.6663   11.2381   -2.8061 H   0  0  0  0  0  0  0  0  0  0  0  0
    4.5072   12.0165   -1.3097 H   0  0  0  0  0  0  0  0  0  0  0  0
    5.3421   10.5492    0.5084 H   0  0  0  0  0  0  0  0  0  0  0  0
    7.6101    7.6701   -0.0301 H   0  0  0  0  0  0  0  0  0  0  0  0
    6.1342    8.1420   -0.8980 H   0  0  0  0  0  0  0  0  0  0  0  0
    6.8889    5.8280   -1.4496 H   0  0  0  0  0  0  0  0  0  0  0  0
    5.2518    5.8392   -0.7516 H   0  0  0  0  0  0  0  0  0  0  0  0
  1  2  1  0
  1 32  1  0
  1 33  1  0
  1 34  1  0
  2  3  2  0
  2 31  1  0
  3  4  1  0
  3 35  1  0
  4  5  1  0
  4 30  2  0
  5  6  1  0
  5 36  1  0
  6  7  2  0
  6  8  1  0
  8  9  1  6
  8 10  1  0
  8 11  1  0
 10 37  1  0
 10 38  1  0
 10 39  1  0
 11 12  1  0
 11 29  1  0
 12 13  1  0
 12 40  1  0
 12 41  1  0
 13 14  1  0
 13 42  1  0
 13 43  1  0
 14 15  1  0
 14 28  1  0
 15 16  1  0
 15 22  1  0
 15 44  1  6
 16 17  2  0
 16 21  1  0
 17 18  1  0
 17 45  1  0
 18 19  2  0
 18 46  1  0
 19 20  1  0
 19 47  1  0
 20 21  2  0
 20 48  1  0
 21 49  1  0
 22 23  2  0
 22 27  1  0
 23 24  1  0
 23 50  1  0
 24 25  2  0
 24 51  1  0
 25 26  1  0
 25 52  1  0
 26 27  2  0
 26 53  1  0
 27 54  1  0
 28 29  1  0
 28 55  1  0
 28 56  1  0
 29 57  1  0
 29 58  1  0
 30 31  1  0
M  END

