
     RDKit          3D

150161  0  0  0  0  0  0  0  0999 V2000
    1.3245   -0.4166   -0.4980 C   0  0  0  0  0  0  0  0  0  0  0  0
    2.7873   -0.0795   -0.1262 C   0  0  1  0  0  0  0  0  0  0  0  0
    2.9261   -0.0273    1.4131 C   0  0  0  0  0  0  0  0  0  0  0  0
    3.6869   -1.2139   -0.6490 C   0  0  0  0  0  0  0  0  0  0  0  0
    3.1691    1.2890   -0.7264 C   0  0  0  0  0  0  0  0  0  0  0  0
    2.4412    2.4445   -0.3473 C   0  0  0  0  0  0  0  0  0  0  0  0
    2.7184    3.7152   -0.8468 C   0  0  0  0  0  0  0  0  0  0  0  0
    3.7627    3.8467   -1.7701 C   0  0  0  0  0  0  0  0  0  0  0  0
    4.5242    2.7173   -2.1579 C   0  0  0  0  0  0  0  0  0  0  0  0
    4.2191    1.4504   -1.6370 C   0  0  0  0  0  0  0  0  0  0  0  0
    5.5431    3.1936   -3.0744 C   0  0  0  0  0  0  0  0  0  0  0  0
    6.5619    2.5508   -3.7944 C   0  0  0  0  0  0  0  0  0  0  0  0
    7.3998    3.2787   -4.6464 C   0  0  0  0  0  0  0  0  0  0  0  0
    8.5372    2.6251   -5.4575 C   0  0  1  0  0  0  0  0  0  0  0  0
    8.2921    2.8495   -6.9678 C   0  0  0  0  0  0  0  0  0  0  0  0
    9.8888    3.2613   -5.0572 C   0  0  0  0  0  0  0  0  0  0  0  0
    8.6305    1.1089   -5.2085 C   0  0  0  0  0  0  0  0  0  0  0  0
    7.1743    4.6733   -4.7601 C   0  0  0  0  0  0  0  0  0  0  0  0
    6.1727    5.3409   -4.0584 C   0  0  0  0  0  0  0  0  0  0  0  0
    5.3595    4.5925   -3.1989 C   0  0  0  0  0  0  0  0  0  0  0  0
    4.2740    4.9878   -2.4045 N   0  0  0  0  0  0  0  0  0  0  0  0
    3.7819    6.3054   -2.2668 C   0  0  0  0  0  0  0  0  0  0  0  0
    2.4134    6.5768   -2.4406 C   0  0  0  0  0  0  0  0  0  0  0  0
    1.9305    7.8744   -2.2975 C   0  0  0  0  0  0  0  0  0  0  0  0
    2.7992    8.9365   -1.9910 C   0  0  0  0  0  0  0  0  0  0  0  0
    2.2826   10.3191   -1.8454 C   0  0  0  0  0  0  0  0  0  0  0  0
    0.9683   10.5231   -2.0021 N   0  0  0  0  0  0  0  0  0  0  0  0
    0.5415   11.7855   -1.8647 C   0  0  0  0  0  0  0  0  0  0  0  0
   -0.9062   12.0583   -2.0318 C   0  0  0  0  0  0  0  0  0  0  0  0
   -1.7996   11.0215   -2.3538 C   0  0  0  0  0  0  0  0  0  0  0  0
   -3.1580   11.2762   -2.5179 C   0  0  0  0  0  0  0  0  0  0  0  0
   -3.6619   12.5781   -2.3493 C   0  0  0  0  0  0  0  0  0  0  0  0
   -5.0415   12.8378   -2.5084 N   0  0  0  0  0  0  0  0  0  0  0  0
   -6.0885   12.1324   -1.8980 C   0  0  0  0  0  0  0  0  0  0  0  0
   -6.0547   11.0751   -0.9808 C   0  0  0  0  0  0  0  0  0  0  0  0
   -7.2673   10.5789   -0.5071 C   0  0  0  0  0  0  0  0  0  0  0  0
   -8.5241   11.0985   -0.9062 C   0  0  0  0  0  0  0  0  0  0  0  0
   -9.8168   10.4812   -0.3346 C   0  0  1  0  0  0  0  0  0  0  0  0
   -9.8182   10.6151    1.2060 C   0  0  0  0  0  0  0  0  0  0  0  0
  -11.0798   11.1750   -0.8759 C   0  0  0  0  0  0  0  0  0  0  0  0
   -9.8885    8.9850   -0.7194 C   0  0  0  0  0  0  0  0  0  0  0  0
   -8.5298   12.1668   -1.8097 C   0  0  0  0  0  0  0  0  0  0  0  0
   -7.3253   12.6899   -2.3047 C   0  0  0  0  0  0  0  0  0  0  0  0
   -7.0158   13.7824   -3.2078 C   0  0  0  0  0  0  0  0  0  0  0  0
   -7.8122   14.6799   -3.9356 C   0  0  0  0  0  0  0  0  0  0  0  0
   -7.2251   15.6376   -4.7698 C   0  0  0  0  0  0  0  0  0  0  0  0
   -8.0508   16.6511   -5.5881 C   0  0  1  0  0  0  0  0  0  0  0  0
   -7.6665   18.0890   -5.1683 C   0  0  0  0  0  0  0  0  0  0  0  0
   -7.7587   16.4613   -7.0948 C   0  0  0  0  0  0  0  0  0  0  0  0
   -9.5646   16.4776   -5.3692 C   0  0  0  0  0  0  0  0  0  0  0  0
   -5.8106   15.6577   -4.8575 C   0  0  0  0  0  0  0  0  0  0  0  0
   -4.9925   14.7815   -4.1476 C   0  0  0  0  0  0  0  0  0  0  0  0
   -5.6043   13.8446   -3.3061 C   0  0  0  0  0  0  0  0  0  0  0  0
   -2.7738   13.6174   -2.0203 C   0  0  0  0  0  0  0  0  0  0  0  0
   -1.4142   13.3595   -1.8712 C   0  0  0  0  0  0  0  0  0  0  0  0
    1.3512   12.8159   -1.5836 N   0  0  0  0  0  0  0  0  0  0  0  0
    2.6500   12.5275   -1.4397 C   0  0  0  0  0  0  0  0  0  0  0  0
    3.5844   13.6416   -1.1264 C   0  0  0  0  0  0  0  0  0  0  0  0
    3.1078   14.9573   -0.9947 C   0  0  0  0  0  0  0  0  0  0  0  0
    3.9837   16.0011   -0.7020 C   0  0  0  0  0  0  0  0  0  0  0  0
    5.3563   15.7512   -0.5419 C   0  0  0  0  0  0  0  0  0  0  0  0
    6.4056   17.2108   -0.1643 P   0  0  1  0  0  0  0  0  0  0  0  0
    5.6054   18.3336    0.4441 O   0  0  0  0  0  0  0  0  0  0  0  0
    7.7372   16.6276    0.9530 C   0  0  0  0  0  0  0  0  0  0  0  0
    8.9020   15.9711    0.5251 C   0  0  0  0  0  0  0  0  0  0  0  0
    9.8593   15.5611    1.4579 C   0  0  0  0  0  0  0  0  0  0  0  0
    9.6634   15.8116    2.8197 C   0  0  0  0  0  0  0  0  0  0  0  0
    8.5123   16.4799    3.2489 C   0  0  0  0  0  0  0  0  0  0  0  0
    7.5529   16.8907    2.3202 C   0  0  0  0  0  0  0  0  0  0  0  0
    7.2032   17.7050   -1.7398 C   0  0  0  0  0  0  0  0  0  0  0  0
    7.5954   16.8100   -2.7479 C   0  0  0  0  0  0  0  0  0  0  0  0
    8.2005   17.2881   -3.9140 C   0  0  0  0  0  0  0  0  0  0  0  0
    8.4092   18.6605   -4.0836 C   0  0  0  0  0  0  0  0  0  0  0  0
    8.0051   19.5569   -3.0891 C   0  0  0  0  0  0  0  0  0  0  0  0
    7.4005   19.0834   -1.9221 C   0  0  0  0  0  0  0  0  0  0  0  0
    5.8327   14.4352   -0.6547 C   0  0  0  0  0  0  0  0  0  0  0  0
    4.9559   13.3916   -0.9489 C   0  0  0  0  0  0  0  0  0  0  0  0
    3.1573   11.2948   -1.5637 N   0  0  0  0  0  0  0  0  0  0  0  0
    4.1677    8.6604   -1.8247 C   0  0  0  0  0  0  0  0  0  0  0  0
    4.6541    7.3627   -1.9537 C   0  0  0  0  0  0  0  0  0  0  0  0
    1.0324   -1.3916   -0.0736 H   0  0  0  0  0  0  0  0  0  0  0  0
    1.1976   -0.4689   -1.5911 H   0  0  0  0  0  0  0  0  0  0  0  0
    0.6189    0.3368   -0.1156 H   0  0  0  0  0  0  0  0  0  0  0  0
    2.6536   -0.9983    1.8590 H   0  0  0  0  0  0  0  0  0  0  0  0
    2.2731    0.7379    1.8599 H   0  0  0  0  0  0  0  0  0  0  0  0
    3.9621    0.2043    1.7078 H   0  0  0  0  0  0  0  0  0  0  0  0
    3.3804   -2.1712   -0.1987 H   0  0  0  0  0  0  0  0  0  0  0  0
    4.7450   -1.0516   -0.3905 H   0  0  0  0  0  0  0  0  0  0  0  0
    3.6143   -1.3251   -1.7422 H   0  0  0  0  0  0  0  0  0  0  0  0
    1.6241    2.3498    0.3714 H   0  0  0  0  0  0  0  0  0  0  0  0
    2.1368    4.5762   -0.5146 H   0  0  0  0  0  0  0  0  0  0  0  0
    4.8200    0.5974   -1.9525 H   0  0  0  0  0  0  0  0  0  0  0  0
    6.6825    1.4735   -3.6800 H   0  0  0  0  0  0  0  0  0  0  0  0
    8.2573    3.9191   -7.2250 H   0  0  0  0  0  0  0  0  0  0  0  0
    7.3375    2.3989   -7.2832 H   0  0  0  0  0  0  0  0  0  0  0  0
    9.0990    2.3905   -7.5629 H   0  0  0  0  0  0  0  0  0  0  0  0
    9.9063    4.3449   -5.2498 H   0  0  0  0  0  0  0  0  0  0  0  0
   10.7146    2.8081   -5.6305 H   0  0  0  0  0  0  0  0  0  0  0  0
   10.0941    3.1090   -3.9856 H   0  0  0  0  0  0  0  0  0  0  0  0
    7.7069    0.5864   -5.5030 H   0  0  0  0  0  0  0  0  0  0  0  0
    8.8325    0.8779   -4.1508 H   0  0  0  0  0  0  0  0  0  0  0  0
    9.4542    0.6827   -5.8027 H   0  0  0  0  0  0  0  0  0  0  0  0
    7.8054    5.2643   -5.4277 H   0  0  0  0  0  0  0  0  0  0  0  0
    6.0308    6.4145   -4.1893 H   0  0  0  0  0  0  0  0  0  0  0  0
    1.7345    5.7650   -2.7067 H   0  0  0  0  0  0  0  0  0  0  0  0
    0.8703    8.0864   -2.4371 H   0  0  0  0  0  0  0  0  0  0  0  0
   -1.4078   10.0132   -2.4894 H   0  0  0  0  0  0  0  0  0  0  0  0
   -3.8375   10.4693   -2.7969 H   0  0  0  0  0  0  0  0  0  0  0  0
   -5.1125   10.6493   -0.6333 H   0  0  0  0  0  0  0  0  0  0  0  0
   -7.2325    9.7530    0.2069 H   0  0  0  0  0  0  0  0  0  0  0  0
   -9.7742   11.6732    1.5097 H   0  0  0  0  0  0  0  0  0  0  0  0
   -8.9604   10.1002    1.6649 H   0  0  0  0  0  0  0  0  0  0  0  0
  -10.7359   10.1759    1.6314 H   0  0  0  0  0  0  0  0  0  0  0  0
  -11.1080   12.2432   -0.6097 H   0  0  0  0  0  0  0  0  0  0  0  0
  -11.9779   10.7041   -0.4459 H   0  0  0  0  0  0  0  0  0  0  0  0
  -11.1563   11.0928   -1.9714 H   0  0  0  0  0  0  0  0  0  0  0  0
   -9.0317    8.4175   -0.3252 H   0  0  0  0  0  0  0  0  0  0  0  0
   -9.8974    8.8595   -1.8139 H   0  0  0  0  0  0  0  0  0  0  0  0
  -10.8061    8.5254   -0.3158 H   0  0  0  0  0  0  0  0  0  0  0  0
   -9.4679   12.6136   -2.1396 H   0  0  0  0  0  0  0  0  0  0  0  0
   -8.8960   14.6113   -3.8413 H   0  0  0  0  0  0  0  0  0  0  0  0
   -6.5990   18.2959   -5.3391 H   0  0  0  0  0  0  0  0  0  0  0  0
   -7.8722   18.2557   -4.0989 H   0  0  0  0  0  0  0  0  0  0  0  0
   -8.2454   18.8286   -5.7462 H   0  0  0  0  0  0  0  0  0  0  0  0
   -6.6946   16.6153   -7.3306 H   0  0  0  0  0  0  0  0  0  0  0  0
   -8.3397   17.1813   -7.6949 H   0  0  0  0  0  0  0  0  0  0  0  0
   -8.0302   15.4457   -7.4241 H   0  0  0  0  0  0  0  0  0  0  0  0
   -9.8473   16.6278   -4.3155 H   0  0  0  0  0  0  0  0  0  0  0  0
   -9.9130   15.4797   -5.6785 H   0  0  0  0  0  0  0  0  0  0  0  0
  -10.1161   17.2197   -5.9679 H   0  0  0  0  0  0  0  0  0  0  0  0
   -5.3257   16.3869   -5.5105 H   0  0  0  0  0  0  0  0  0  0  0  0
   -3.9085   14.8289   -4.2586 H   0  0  0  0  0  0  0  0  0  0  0  0
   -3.1609   14.6256   -1.8639 H   0  0  0  0  0  0  0  0  0  0  0  0
   -0.7263   14.1641   -1.6107 H   0  0  0  0  0  0  0  0  0  0  0  0
    2.0414   15.1457   -1.1204 H   0  0  0  0  0  0  0  0  0  0  0  0
    3.6148   17.0220   -0.5784 H   0  0  0  0  0  0  0  0  0  0  0  0
    9.0783   15.7937   -0.5387 H   0  0  0  0  0  0  0  0  0  0  0  0
   10.7655   15.0527    1.1186 H   0  0  0  0  0  0  0  0  0  0  0  0
   10.4148   15.4933    3.5470 H   0  0  0  0  0  0  0  0  0  0  0  0
    8.3639   16.6886    4.3115 H   0  0  0  0  0  0  0  0  0  0  0  0
    6.6590   17.4328    2.6379 H   0  0  0  0  0  0  0  0  0  0  0  0
    7.4139   15.7380   -2.6384 H   0  0  0  0  0  0  0  0  0  0  0  0
    8.5011   16.5868   -4.6967 H   0  0  0  0  0  0  0  0  0  0  0  0
    8.8791   19.0324   -4.9978 H   0  0  0  0  0  0  0  0  0  0  0  0
    8.1551   20.6310   -3.2258 H   0  0  0  0  0  0  0  0  0  0  0  0
    7.0597   19.7727   -1.1458 H   0  0  0  0  0  0  0  0  0  0  0  0
    6.8906   14.2139   -0.4944 H   0  0  0  0  0  0  0  0  0  0  0  0
    5.3198   12.3677   -1.0369 H   0  0  0  0  0  0  0  0  0  0  0  0
    4.8425    9.4798   -1.5763 H   0  0  0  0  0  0  0  0  0  0  0  0
    5.7135    7.1555   -1.7941 H   0  0  0  0  0  0  0  0  0  0  0  0
  2  1  1  1
  1 81  1  0
  1 82  1  0
  1 83  1  0
  2  3  1  0
  2  4  1  0
  2  5  1  0
  3 84  1  0
  3 85  1  0
  3 86  1  0
  4 87  1  0
  4 88  1  0
  4 89  1  0
  5  6  2  0
  5 10  1  0
  6  7  1  0
  6 90  1  0
  7  8  2  0
  7 91  1  0
  8  9  1  0
  8 21  1  0
  9 10  2  0
  9 11  1  0
 10 92  1  0
 11 12  2  0
 11 20  1  0
 12 13  1  0
 12 93  1  0
 13 14  1  0
 13 18  2  0
 14 15  1  6
 14 16  1  0
 14 17  1  0
 15 94  1  0
 15 95  1  0
 15 96  1  0
 16 97  1  0
 16 98  1  0
 16 99  1  0
 17100  1  0
 17101  1  0
 17102  1  0
 18 19  1  0
 18103  1  0
 19 20  2  0
 19104  1  0
 20 21  1  0
 21 22  1  0
 22 23  2  0
 22 80  1  0
 23 24  1  0
 23105  1  0
 24 25  2  0
 24106  1  0
 25 26  1  0
 25 79  1  0
 26 27  2  0
 26 78  1  0
 27 28  1  0
 28 29  1  0
 28 56  2  0
 29 30  2  0
 29 55  1  0
 30 31  1  0
 30107  1  0
 31 32  2  0
 31108  1  0
 32 33  1  0
 32 54  1  0
 33 34  1  0
 33 53  1  0
 34 35  2  0
 34 43  1  0
 35 36  1  0
 35109  1  0
 36 37  2  0
 36110  1  0
 37 38  1  0
 37 42  1  0
 38 39  1  1
 38 40  1  0
 38 41  1  0
 39111  1  0
 39112  1  0
 39113  1  0
 40114  1  0
 40115  1  0
 40116  1  0
 41117  1  0
 41118  1  0
 41119  1  0
 42 43  2  0
 42120  1  0
 43 44  1  0
 44 45  1  0
 44 53  2  0
 45 46  2  0
 45121  1  0
 46 47  1  0
 46 51  1  0
 47 48  1  1
 47 49  1  0
 47 50  1  0
 48122  1  0
 48123  1  0
 48124  1  0
 49125  1  0
 49126  1  0
 49127  1  0
 50128  1  0
 50129  1  0
 50130  1  0
 51 52  2  0
 51131  1  0
 52 53  1  0
 52132  1  0
 54 55  2  0
 54133  1  0
 55134  1  0
 56 57  1  0
 57 58  1  0
 57 78  2  0
 58 59  2  0
 58 77  1  0
 59 60  1  0
 59135  1  0
 60 61  2  0
 60136  1  0
 62 61  1  6
 61 76  1  0
 62 63  2  0
 62 64  1  0
 62 70  1  0
 64 65  2  0
 64 69  1  0
 65 66  1  0
 65137  1  0
 66 67  2  0
 66138  1  0
 67 68  1  0
 67139  1  0
 68 69  2  0
 68140  1  0
 69141  1  0
 70 71  2  0
 70 75  1  0
 71 72  1  0
 71142  1  0
 72 73  2  0
 72143  1  0
 73 74  1  0
 73144  1  0
 74 75  2  0
 74145  1  0
 75146  1  0
 76 77  2  0
 76147  1  0
 77148  1  0
 79 80  2  0
 79149  1  0
 80150  1  0
M  END

