
     RDKit          3D

 36 35  0  0  0  0  0  0  0  0999 V2000
    4.7632   -0.4702    5.6481 C   0  0  0  0  0  0  0  0  0  0  0  0
    4.5935   -0.5603    4.1309 C   0  0  0  0  0  0  0  0  0  0  0  0
    5.0474    0.7009    3.3890 C   0  0  0  0  0  0  0  0  0  0  0  0
    4.8718    0.6163    1.8705 C   0  0  0  0  0  0  0  0  0  0  0  0
    5.3216    1.8767    1.1055 C   0  0  0  0  0  0  0  0  0  0  0  0
    6.8028    2.1326    1.1669 C   0  0  0  0  0  0  0  0  0  0  0  0
    7.3939    3.2193    1.6832 C   0  0  0  0  0  0  0  0  0  0  0  0
    8.8804    3.4317    1.7711 C   0  0  0  0  0  0  0  0  0  0  0  0
    9.3170    4.6548    1.0985 N   0  0  0  0  0  0  0  0  0  0  0  0
    9.1596    4.7269   -0.3456 C   0  0  0  0  0  0  0  0  0  0  0  0
    8.1455    5.7950   -0.7637 C   0  0  0  0  0  0  0  0  0  0  0  0
    7.0282    5.3773   -1.3947 N   0  0  0  0  0  0  0  0  0  0  0  0
    8.3683    6.9806   -0.5272 O   0  0  0  0  0  0  0  0  0  0  0  0
   10.1402    5.5486    1.7964 C   0  0  0  0  0  0  0  0  0  0  0  0
   10.5634    5.3111    2.9037 O   0  0  0  0  0  0  0  0  0  0  0  0
   10.4371    6.6743    1.1372 O   0  0  0  0  0  0  0  0  0  0  0  0
    4.4299   -1.3935    6.1484 H   0  0  0  0  0  0  0  0  0  0  0  0
    4.1784    0.3653    6.0682 H   0  0  0  0  0  0  0  0  0  0  0  0
    5.8179   -0.3040    5.9243 H   0  0  0  0  0  0  0  0  0  0  0  0
    3.5341   -0.7638    3.8892 H   0  0  0  0  0  0  0  0  0  0  0  0
    5.1591   -1.4293    3.7475 H   0  0  0  0  0  0  0  0  0  0  0  0
    6.1065    0.9043    3.6282 H   0  0  0  0  0  0  0  0  0  0  0  0
    4.4830    1.5723    3.7714 H   0  0  0  0  0  0  0  0  0  0  0  0
    3.8098    0.4245    1.6358 H   0  0  0  0  0  0  0  0  0  0  0  0
    5.4269   -0.2587    1.4839 H   0  0  0  0  0  0  0  0  0  0  0  0
    4.7761    2.7577    1.4865 H   0  0  0  0  0  0  0  0  0  0  0  0
    5.0233    1.7560    0.0469 H   0  0  0  0  0  0  0  0  0  0  0  0
    7.4427    1.3302    0.7700 H   0  0  0  0  0  0  0  0  0  0  0  0
    6.7749    4.0290    2.0922 H   0  0  0  0  0  0  0  0  0  0  0  0
    9.4140    2.5515    1.3630 H   0  0  0  0  0  0  0  0  0  0  0  0
    9.1985    3.5441    2.8180 H   0  0  0  0  0  0  0  0  0  0  0  0
    8.8675    3.7344   -0.7172 H   0  0  0  0  0  0  0  0  0  0  0  0
   10.1150    4.9955   -0.8295 H   0  0  0  0  0  0  0  0  0  0  0  0
    6.7997    4.3951   -1.4747 H   0  0  0  0  0  0  0  0  0  0  0  0
    6.3238    6.0657   -1.6394 H   0  0  0  0  0  0  0  0  0  0  0  0
    9.7324    6.9250    0.4837 H   0  0  0  0  0  0  0  0  0  0  0  0
  1  2  1  0
  1 17  1  0
  1 18  1  0
  1 19  1  0
  2  3  1  0
  2 20  1  0
  2 21  1  0
  3  4  1  0
  3 22  1  0
  3 23  1  0
  4  5  1  0
  4 24  1  0
  4 25  1  0
  5  6  1  0
  5 26  1  0
  5 27  1  0
  6  7  2  0
  6 28  1  0
  7  8  1  0
  7 29  1  0
  8  9  1  0
  8 30  1  0
  8 31  1  0
  9 10  1  0
  9 14  1  0
 10 11  1  0
 10 32  1  0
 10 33  1  0
 11 12  1  0
 11 13  2  0
 12 34  1  0
 12 35  1  0
 14 15  2  0
 14 16  1  0
 16 36  1  0
M  END

