
     RDKit          3D

 23 23  0  0  0  0  0  0  0  0999 V2000
    1.1020   -0.4605    0.1724 C   0  0  0  0  0  0  0  0  0  0  0  0
    2.5404   -0.2563    0.0167 N   0  0  0  0  0  0  0  0  0  0  0  0
    2.9126    0.7449   -0.9734 C   0  0  0  0  0  0  0  0  0  0  0  0
    2.9462    0.2799   -2.4392 C   0  0  0  0  0  0  0  0  0  0  0  0
    2.9278   -1.0664   -2.6271 N   0  0  0  0  0  0  0  0  0  0  0  0
    3.0038    1.0946   -3.3389 O   0  0  0  0  0  0  0  0  0  0  0  0
    3.3359   -0.6470    1.0848 C   0  0  0  0  0  0  0  0  0  0  0  0
    2.8436   -1.0983    2.1073 O   0  0  0  0  0  0  0  0  0  0  0  0
    4.8262   -0.5627    0.9844 C   0  0  0  0  0  0  0  0  0  0  0  0
    5.6365   -0.5734    2.1010 C   0  0  0  0  0  0  0  0  0  0  0  0
    7.0262   -0.6158    1.8084 C   0  0  0  0  0  0  0  0  0  0  0  0
    7.2626   -0.6616    0.4549 C   0  0  0  0  0  0  0  0  0  0  0  0
    8.9337   -0.7412   -0.4016 Br  0  0  0  0  0  0  0  0  0  0  0  0
    5.7983   -0.6398   -0.4731 S   0  0  0  0  0  0  0  0  0  0  0  0
    0.6427   -0.5785   -0.8201 H   0  0  0  0  0  0  0  0  0  0  0  0
    0.6245    0.3951    0.6833 H   0  0  0  0  0  0  0  0  0  0  0  0
    0.9204   -1.3575    0.7753 H   0  0  0  0  0  0  0  0  0  0  0  0
    3.9000    1.1700   -0.7481 H   0  0  0  0  0  0  0  0  0  0  0  0
    2.2063    1.5919   -0.9388 H   0  0  0  0  0  0  0  0  0  0  0  0
    2.9086   -1.7056   -1.8432 H   0  0  0  0  0  0  0  0  0  0  0  0
    2.9896   -1.4264   -3.5720 H   0  0  0  0  0  0  0  0  0  0  0  0
    5.2148   -0.5672    3.1063 H   0  0  0  0  0  0  0  0  0  0  0  0
    7.8191   -0.6194    2.5561 H   0  0  0  0  0  0  0  0  0  0  0  0
  1  2  1  0
  1 15  1  0
  1 16  1  0
  1 17  1  0
  2  3  1  0
  2  7  1  0
  3  4  1  0
  3 18  1  0
  3 19  1  0
  4  5  1  0
  4  6  2  0
  5 20  1  0
  5 21  1  0
  7  8  2  0
  7  9  1  0
  9 10  2  0
  9 14  1  0
 10 11  1  0
 10 22  1  0
 11 12  2  0
 11 23  1  0
 12 13  1  0
 12 14  1  0
M  END

