
     RDKit          3D

 36 37  0  0  0  0  0  0  0  0999 V2000
    0.8153   -0.0398    0.1036 C   0  0  0  0  0  0  0  0  0  0  0  0
    2.3313    0.0735    0.0350 C   0  0  1  0  0  0  0  0  0  0  0  0
    2.8552   -0.7004   -1.0670 O   0  0  0  0  0  0  0  0  0  0  0  0
    3.1688   -1.9998   -0.8388 C   0  0  0  0  0  0  0  0  0  0  0  0
    3.0693   -2.5244    0.2433 O   0  0  0  0  0  0  0  0  0  0  0  0
    3.6495   -2.6957   -2.0722 C   0  0  0  0  0  0  0  0  0  0  0  0
    3.6592   -2.0760   -3.3358 C   0  0  0  0  0  0  0  0  0  0  0  0
    4.1120   -2.7767   -4.4492 C   0  0  0  0  0  0  0  0  0  0  0  0
    4.5594   -4.1018   -4.3144 C   0  0  0  0  0  0  0  0  0  0  0  0
    5.0449   -4.8480   -5.5073 C   0  0  0  0  0  0  0  0  0  0  0  0
    5.0911   -4.3920   -6.6253 O   0  0  0  0  0  0  0  0  0  0  0  0
    4.5462   -4.7191   -3.0545 C   0  0  0  0  0  0  0  0  0  0  0  0
    4.0914   -4.0214   -1.9374 C   0  0  0  0  0  0  0  0  0  0  0  0
    2.7864    1.5415   -0.0970 C   0  0  0  0  0  0  0  0  0  0  0  0
    2.2849    2.3893    0.6012 O   0  0  0  0  0  0  0  0  0  0  0  0
    3.7903    1.7332   -1.0302 N   0  0  0  0  0  0  0  0  0  0  0  0
    4.4548    2.9047   -1.3838 C   0  0  0  0  0  0  0  0  0  0  0  0
    4.2509    4.0250   -0.7002 N   0  0  0  0  0  0  0  0  0  0  0  0
    4.8842    5.1441   -1.0353 C   0  0  0  0  0  0  0  0  0  0  0  0
    5.7876    5.2050   -2.1003 C   0  0  0  0  0  0  0  0  0  0  0  0
    6.5953    6.6951   -2.4991 Cl  0  0  0  0  0  0  0  0  0  0  0  0
    6.0311    4.0432   -2.8389 C   0  0  0  0  0  0  0  0  0  0  0  0
    5.3583    2.8823   -2.4789 C   0  0  0  0  0  0  0  0  0  0  0  0
    5.6367    1.4051   -3.3809 Cl  0  0  0  0  0  0  0  0  0  0  0  0
    0.5211   -1.0726    0.3380 H   0  0  0  0  0  0  0  0  0  0  0  0
    0.3595    0.2598   -0.8526 H   0  0  0  0  0  0  0  0  0  0  0  0
    0.4444    0.6285    0.8924 H   0  0  0  0  0  0  0  0  0  0  0  0
    2.7744   -0.3193    0.9645 H   0  0  0  0  0  0  0  0  0  0  0  0
    3.3085   -1.0485   -3.4363 H   0  0  0  0  0  0  0  0  0  0  0  0
    4.1288   -2.3199   -5.4411 H   0  0  0  0  0  0  0  0  0  0  0  0
    5.3777   -5.8974   -5.2957 H   0  0  0  0  0  0  0  0  0  0  0  0
    4.8939   -5.7514   -2.9538 H   0  0  0  0  0  0  0  0  0  0  0  0
    4.0693   -4.4828   -0.9486 H   0  0  0  0  0  0  0  0  0  0  0  0
    4.0453    0.9065   -1.5618 H   0  0  0  0  0  0  0  0  0  0  0  0
    4.6763    6.0380   -0.4378 H   0  0  0  0  0  0  0  0  0  0  0  0
    6.7283    4.0428   -3.6773 H   0  0  0  0  0  0  0  0  0  0  0  0
  1  2  1  0
  1 25  1  0
  1 26  1  0
  1 27  1  0
  2  3  1  0
  2 14  1  0
  2 28  1  1
  3  4  1  0
  4  5  2  0
  4  6  1  0
  6  7  2  0
  6 13  1  0
  7  8  1  0
  7 29  1  0
  8  9  2  0
  8 30  1  0
  9 10  1  0
  9 12  1  0
 10 11  2  0
 10 31  1  0
 12 13  2  0
 12 32  1  0
 13 33  1  0
 14 15  2  0
 14 16  1  0
 16 17  1  0
 16 34  1  0
 17 18  2  0
 17 23  1  0
 18 19  1  0
 19 20  2  0
 19 35  1  0
 20 21  1  0
 20 22  1  0
 22 23  2  0
 22 36  1  0
 23 24  1  0
M  END

