
     RDKit          3D

 73 77  0  0  0  0  0  0  0  0999 V2000
    5.2123   -2.8638    7.0297 C   0  0  0  0  0  0  0  0  0  0  0  0
    4.3591   -2.5706    5.8073 C   0  0  0  0  0  0  0  0  0  0  0  0
    4.9979   -3.0128    4.5927 O   0  0  0  0  0  0  0  0  0  0  0  0
    5.8641   -2.1719    4.0019 C   0  0  0  0  0  0  0  0  0  0  0  0
    6.1328   -1.0710    4.4242 O   0  0  0  0  0  0  0  0  0  0  0  0
    6.4569   -2.7517    2.7540 C   0  0  0  0  0  0  0  0  0  0  0  0
    7.3724   -1.9703    2.0337 C   0  0  0  0  0  0  0  0  0  0  0  0
    7.9504   -2.4678    0.8656 C   0  0  0  0  0  0  0  0  0  0  0  0
    7.6190   -3.7466    0.4083 C   0  0  0  0  0  0  0  0  0  0  0  0
    6.7044   -4.5294    1.1257 C   0  0  0  0  0  0  0  0  0  0  0  0
    6.3690   -5.8422    0.6620 N   0  0  0  0  0  0  0  0  0  0  0  0
    7.0809   -7.0119    0.9888 C   0  0  0  0  0  0  0  0  0  0  0  0
    8.2811   -6.9824    1.8768 C   0  0  0  0  0  0  0  0  0  0  0  0
    6.4627   -8.0599    0.3652 C   0  0  0  0  0  0  0  0  0  0  0  0
    5.3335   -7.5454   -0.3743 C   0  0  0  0  0  0  0  0  0  0  0  0
    4.3476   -8.1651   -1.1966 C   0  0  0  0  0  0  0  0  0  0  0  0
    4.0522   -9.4469   -1.6202 C   0  0  0  0  0  0  0  0  0  0  0  0
    2.8681   -9.5398   -2.5032 C   0  0  0  0  0  0  0  0  0  0  0  0
    2.1955   -8.5834   -2.8432 O   0  0  0  0  0  0  0  0  0  0  0  0
    2.5223  -10.8310   -2.9645 N   0  0  0  0  0  0  0  0  0  0  0  0
    1.3611  -10.8938   -3.8287 C   0  0  0  0  0  0  0  0  0  0  0  0
    0.0913  -11.0549   -3.2710 C   0  0  0  0  0  0  0  0  0  0  0  0
   -1.0304  -11.0794   -4.1020 C   0  0  0  0  0  0  0  0  0  0  0  0
   -0.8826  -10.9382   -5.4851 C   0  0  0  0  0  0  0  0  0  0  0  0
    0.3913  -10.7685   -6.0359 C   0  0  0  0  0  0  0  0  0  0  0  0
    1.5153  -10.7435   -5.2082 C   0  0  0  0  0  0  0  0  0  0  0  0
    3.1969  -12.0082   -2.6558 C   0  0  0  0  0  0  0  0  0  0  0  0
    2.7089  -13.4788   -3.2507 S   0  0  0  0  0  0  0  0  0  0  0  0
    4.3004  -11.8759   -1.8212 N   0  0  0  0  0  0  0  0  0  0  0  0
    5.0444  -13.0652   -1.4576 C   0  0  0  0  0  0  0  0  0  0  0  0
    4.7108  -13.7733   -0.3061 C   0  0  0  0  0  0  0  0  0  0  0  0
    5.4603  -14.8974    0.0421 C   0  0  0  0  0  0  0  0  0  0  0  0
    6.5435  -15.3290   -0.7354 C   0  0  0  0  0  0  0  0  0  0  0  0
    7.3336  -16.5502   -0.3351 C   0  0  0  0  0  0  0  0  0  0  0  0
    6.8826  -14.5991   -1.8994 C   0  0  0  0  0  0  0  0  0  0  0  0
    8.0425  -15.0246   -2.7657 C   0  0  0  0  0  0  0  0  0  0  0  0
    6.1252  -13.4731   -2.2401 C   0  0  0  0  0  0  0  0  0  0  0  0
    4.7937  -10.6603   -1.2711 C   0  0  0  0  0  0  0  0  0  0  0  0
    5.7799  -10.7018   -0.5590 O   0  0  0  0  0  0  0  0  0  0  0  0
    5.3164   -6.1442   -0.1557 C   0  0  0  0  0  0  0  0  0  0  0  0
    4.3910   -5.0835   -0.6556 C   0  0  0  0  0  0  0  0  0  0  0  0
    6.1244   -4.0354    2.2978 C   0  0  0  0  0  0  0  0  0  0  0  0
    4.6621   -2.5851    7.9426 H   0  0  0  0  0  0  0  0  0  0  0  0
    6.1464   -2.2834    7.0042 H   0  0  0  0  0  0  0  0  0  0  0  0
    5.4596   -3.9349    7.0912 H   0  0  0  0  0  0  0  0  0  0  0  0
    4.1460   -1.4949    5.7231 H   0  0  0  0  0  0  0  0  0  0  0  0
    3.4104   -3.1253    5.8383 H   0  0  0  0  0  0  0  0  0  0  0  0
    7.6157   -0.9747    2.4093 H   0  0  0  0  0  0  0  0  0  0  0  0
    8.6633   -1.8590    0.3049 H   0  0  0  0  0  0  0  0  0  0  0  0
    8.0646   -4.1471   -0.5049 H   0  0  0  0  0  0  0  0  0  0  0  0
    9.0921   -6.3582    1.4648 H   0  0  0  0  0  0  0  0  0  0  0  0
    8.6682   -8.0034    1.9973 H   0  0  0  0  0  0  0  0  0  0  0  0
    8.0481   -6.5864    2.8798 H   0  0  0  0  0  0  0  0  0  0  0  0
    6.7524   -9.1033    0.4062 H   0  0  0  0  0  0  0  0  0  0  0  0
    3.6215   -7.4603   -1.6134 H   0  0  0  0  0  0  0  0  0  0  0  0
   -0.0119  -11.1656   -2.1898 H   0  0  0  0  0  0  0  0  0  0  0  0
   -2.0242  -11.2090   -3.6662 H   0  0  0  0  0  0  0  0  0  0  0  0
   -1.7616  -10.9580   -6.1345 H   0  0  0  0  0  0  0  0  0  0  0  0
    0.5117  -10.6544   -7.1161 H   0  0  0  0  0  0  0  0  0  0  0  0
    2.5148  -10.6128   -5.6274 H   0  0  0  0  0  0  0  0  0  0  0  0
    3.8684  -13.4511    0.3089 H   0  0  0  0  0  0  0  0  0  0  0  0
    5.1959  -15.4565    0.9440 H   0  0  0  0  0  0  0  0  0  0  0  0
    6.9397  -16.9966    0.5895 H   0  0  0  0  0  0  0  0  0  0  0  0
    8.3974  -16.3103   -0.1658 H   0  0  0  0  0  0  0  0  0  0  0  0
    7.3093  -17.3261   -1.1194 H   0  0  0  0  0  0  0  0  0  0  0  0
    8.9906  -15.0341   -2.2012 H   0  0  0  0  0  0  0  0  0  0  0  0
    8.1705  -14.3497   -3.6242 H   0  0  0  0  0  0  0  0  0  0  0  0
    7.9018  -16.0456   -3.1598 H   0  0  0  0  0  0  0  0  0  0  0  0
    6.3756  -12.9024   -3.1374 H   0  0  0  0  0  0  0  0  0  0  0  0
    3.6293   -5.5035   -1.3235 H   0  0  0  0  0  0  0  0  0  0  0  0
    4.9350   -4.3032   -1.2132 H   0  0  0  0  0  0  0  0  0  0  0  0
    3.8687   -4.5778    0.1737 H   0  0  0  0  0  0  0  0  0  0  0  0
    5.4163   -4.6473    2.8569 H   0  0  0  0  0  0  0  0  0  0  0  0
  1  2  1  0
  1 43  1  0
  1 44  1  0
  1 45  1  0
  2  3  1  0
  2 46  1  0
  2 47  1  0
  3  4  1  0
  4  5  2  0
  4  6  1  0
  6  7  2  0
  6 42  1  0
  7  8  1  0
  7 48  1  0
  8  9  2  0
  8 49  1  0
  9 10  1  0
  9 50  1  0
 10 11  1  0
 10 42  2  0
 11 12  1  0
 11 40  1  0
 12 13  1  0
 12 14  2  0
 13 51  1  0
 13 52  1  0
 13 53  1  0
 14 15  1  0
 14 54  1  0
 15 16  1  0
 15 40  2  0
 16 17  2  0
 16 55  1  0
 17 18  1  0
 17 38  1  0
 18 19  2  0
 18 20  1  0
 20 21  1  0
 20 27  1  0
 21 22  2  0
 21 26  1  0
 22 23  1  0
 22 56  1  0
 23 24  2  0
 23 57  1  0
 24 25  1  0
 24 58  1  0
 25 26  2  0
 25 59  1  0
 26 60  1  0
 27 28  2  0
 27 29  1  0
 29 30  1  0
 29 38  1  0
 30 31  2  0
 30 37  1  0
 31 32  1  0
 31 61  1  0
 32 33  2  0
 32 62  1  0
 33 34  1  0
 33 35  1  0
 34 63  1  0
 34 64  1  0
 34 65  1  0
 35 36  1  0
 35 37  2  0
 36 66  1  0
 36 67  1  0
 36 68  1  0
 37 69  1  0
 38 39  2  0
 40 41  1  0
 41 70  1  0
 41 71  1  0
 41 72  1  0
 42 73  1  0
M  END

