
     RDKit          3D

 48 50  0  0  0  0  0  0  0  0999 V2000
    0.7301    0.2977    0.2145 C   0  0  0  0  0  0  0  0  0  0  0  0
    2.2486    0.2556    0.0105 C   0  0  1  0  0  0  0  0  0  0  0  0
    2.7733   -1.1619   -0.2698 C   0  0  0  0  0  0  0  0  0  0  0  0
    2.3893   -1.6012   -1.6037 N   0  0  0  0  0  0  0  0  0  0  0  0
    1.8014   -2.8310   -1.7762 C   0  0  0  0  0  0  0  0  0  0  0  0
    1.5150   -3.5744   -0.8563 O   0  0  0  0  0  0  0  0  0  0  0  0
    1.5858   -3.0914   -3.0831 O   0  0  0  0  0  0  0  0  0  0  0  0
    0.9447   -4.3328   -3.5289 C   0  0  1  0  0  0  0  0  0  0  0  0
   -0.4767   -4.4231   -2.9638 C   0  0  0  0  0  0  0  0  0  0  0  0
    0.9121   -4.1709   -5.0501 C   0  0  0  0  0  0  0  0  0  0  0  0
    1.8024   -5.5386   -3.1312 C   0  0  0  0  0  0  0  0  0  0  0  0
    2.8113   -0.7108   -2.6719 C   0  0  0  0  0  0  0  0  0  0  0  0
    2.3118    0.7205   -2.4221 C   0  0  0  0  0  0  0  0  0  0  0  0
    2.6599    1.1749   -1.0727 N   0  0  0  0  0  0  0  0  0  0  0  0
    3.6549    2.0984   -0.8480 C   0  0  0  0  0  0  0  0  0  0  0  0
    4.4750    1.8883    0.1842 N   0  0  0  0  0  0  0  0  0  0  0  0
    5.5214    2.7072    0.3904 C   0  0  0  0  0  0  0  0  0  0  0  0
    6.2942    2.4533    1.4777 N   0  0  0  0  0  0  0  0  0  0  0  0
    5.8801    3.7384   -0.3890 N   0  0  0  0  0  0  0  0  0  0  0  0
    5.0163    4.0008   -1.3579 C   0  0  0  0  0  0  0  0  0  0  0  0
    5.1946    5.4072   -2.4050 S   0  0  0  0  0  0  0  0  0  0  0  0
    3.6635    5.0886   -3.1485 C   0  0  0  0  0  0  0  0  0  0  0  0
    3.0425    3.9613   -2.6607 C   0  0  0  0  0  0  0  0  0  0  0  0
    1.7129    3.6392   -3.0731 C   0  0  0  0  0  0  0  0  0  0  0  0
    0.6261    3.4090   -3.4143 N   0  0  0  0  0  0  0  0  0  0  0  0
    3.8376    3.2763   -1.6536 C   0  0  0  0  0  0  0  0  0  0  0  0
    0.4562   -0.2958    1.1006 H   0  0  0  0  0  0  0  0  0  0  0  0
    0.1816   -0.1205   -0.6430 H   0  0  0  0  0  0  0  0  0  0  0  0
    0.3881    1.3320    0.3693 H   0  0  0  0  0  0  0  0  0  0  0  0
    2.7475    0.6129    0.9185 H   0  0  0  0  0  0  0  0  0  0  0  0
    2.3743   -1.8816    0.4552 H   0  0  0  0  0  0  0  0  0  0  0  0
    3.8761   -1.1534   -0.1851 H   0  0  0  0  0  0  0  0  0  0  0  0
   -1.0531   -3.5236   -3.2319 H   0  0  0  0  0  0  0  0  0  0  0  0
   -0.4611   -4.5220   -1.8713 H   0  0  0  0  0  0  0  0  0  0  0  0
   -0.9913   -5.2973   -3.3926 H   0  0  0  0  0  0  0  0  0  0  0  0
    0.3300   -3.2810   -5.3341 H   0  0  0  0  0  0  0  0  0  0  0  0
    0.4484   -5.0531   -5.5170 H   0  0  0  0  0  0  0  0  0  0  0  0
    1.9312   -4.0605   -5.4510 H   0  0  0  0  0  0  0  0  0  0  0  0
    1.8466   -5.6480   -2.0405 H   0  0  0  0  0  0  0  0  0  0  0  0
    2.8269   -5.4241   -3.5191 H   0  0  0  0  0  0  0  0  0  0  0  0
    1.3750   -6.4566   -3.5640 H   0  0  0  0  0  0  0  0  0  0  0  0
    2.4231   -1.0762   -3.6287 H   0  0  0  0  0  0  0  0  0  0  0  0
    3.9181   -0.7032   -2.7312 H   0  0  0  0  0  0  0  0  0  0  0  0
    1.2232    0.7735   -2.5745 H   0  0  0  0  0  0  0  0  0  0  0  0
    2.7755    1.3792   -3.1641 H   0  0  0  0  0  0  0  0  0  0  0  0
    6.1207    1.6221    2.0242 H   0  0  0  0  0  0  0  0  0  0  0  0
    7.1397    2.9895    1.6120 H   0  0  0  0  0  0  0  0  0  0  0  0
    3.2596    5.7700   -3.8953 H   0  0  0  0  0  0  0  0  0  0  0  0
  1  2  1  0
  1 27  1  0
  1 28  1  0
  1 29  1  0
  2  3  1  0
  2 14  1  0
  2 30  1  1
  3  4  1  0
  3 31  1  0
  3 32  1  0
  4  5  1  0
  4 12  1  0
  5  6  2  0
  5  7  1  0
  8  7  1  1
  8  9  1  0
  8 10  1  0
  8 11  1  0
  9 33  1  0
  9 34  1  0
  9 35  1  0
 10 36  1  0
 10 37  1  0
 10 38  1  0
 11 39  1  0
 11 40  1  0
 11 41  1  0
 12 13  1  0
 12 42  1  0
 12 43  1  0
 13 14  1  0
 13 44  1  0
 13 45  1  0
 14 15  1  0
 15 16  2  0
 15 26  1  0
 16 17  1  0
 17 18  1  0
 17 19  2  0
 18 46  1  0
 18 47  1  0
 19 20  1  0
 20 21  1  0
 20 26  2  0
 21 22  1  0
 22 23  2  0
 22 48  1  0
 23 24  1  0
 23 26  1  0
 24 25  3  0
M  END

