
     RDKit          3D

 33 32  0  0  0  0  0  0  0  0999 V2000
    3.5136   -3.2544    0.4736 C   0  0  0  0  0  0  0  0  0  0  0  0
    4.8643   -2.7431    0.3079 N   0  0  0  0  0  0  0  0  0  0  0  0
    5.5889   -3.4806   -0.7156 C   0  0  0  0  0  0  0  0  0  0  0  0
    4.9216   -1.3025    0.0627 C   0  0  0  0  0  0  0  0  0  0  0  0
    4.3724   -0.4141    1.1850 C   0  0  0  0  0  0  0  0  0  0  0  0
    4.9725   -0.6614    2.5775 C   0  0  0  0  0  0  0  0  0  0  0  0
    6.4258   -0.7687    2.5807 N   0  0  0  0  0  0  0  0  0  0  0  0
    7.0997    0.4830    2.2944 C   0  0  0  0  0  0  0  0  0  0  0  0
    6.9697   -1.4096    3.7712 C   0  0  0  0  0  0  0  0  0  0  0  0
    6.4944   -2.8305    3.9758 C   0  0  0  0  0  0  0  0  0  0  0  0
    6.4076   -3.6481    2.8815 N   0  0  0  0  0  0  0  0  0  0  0  0
    6.2966   -3.1942    5.1987 N   0  0  0  0  0  0  0  0  0  0  0  0
    5.9392   -4.5631    5.2454 O   0  0  0  0  0  0  0  0  0  0  0  0
    3.5475   -4.3325    0.6967 H   0  0  0  0  0  0  0  0  0  0  0  0
    2.8839   -3.1162   -0.4350 H   0  0  0  0  0  0  0  0  0  0  0  0
    3.0056   -2.7601    1.3142 H   0  0  0  0  0  0  0  0  0  0  0  0
    5.5983   -4.5553   -0.4740 H   0  0  0  0  0  0  0  0  0  0  0  0
    6.6331   -3.1346   -0.7634 H   0  0  0  0  0  0  0  0  0  0  0  0
    5.1436   -3.3652   -1.7300 H   0  0  0  0  0  0  0  0  0  0  0  0
    4.3897   -1.0421   -0.8828 H   0  0  0  0  0  0  0  0  0  0  0  0
    5.9816   -1.0503   -0.0949 H   0  0  0  0  0  0  0  0  0  0  0  0
    3.2767   -0.5142    1.2658 H   0  0  0  0  0  0  0  0  0  0  0  0
    4.5380    0.6312    0.8731 H   0  0  0  0  0  0  0  0  0  0  0  0
    4.5681   -1.6041    2.9748 H   0  0  0  0  0  0  0  0  0  0  0  0
    4.6154    0.1374    3.2688 H   0  0  0  0  0  0  0  0  0  0  0  0
    6.7609    0.9014    1.3347 H   0  0  0  0  0  0  0  0  0  0  0  0
    8.1860    0.3177    2.2175 H   0  0  0  0  0  0  0  0  0  0  0  0
    6.9309    1.2592    3.0767 H   0  0  0  0  0  0  0  0  0  0  0  0
    6.7587   -0.8537    4.7092 H   0  0  0  0  0  0  0  0  0  0  0  0
    8.0679   -1.4346    3.6542 H   0  0  0  0  0  0  0  0  0  0  0  0
    6.1116   -3.2094    2.0043 H   0  0  0  0  0  0  0  0  0  0  0  0
    5.9729   -4.5437    3.0811 H   0  0  0  0  0  0  0  0  0  0  0  0
    5.7918   -4.7045    6.1873 H   0  0  0  0  0  0  0  0  0  0  0  0
  1  2  1  0
  1 14  1  0
  1 15  1  0
  1 16  1  0
  2  3  1  0
  2  4  1  0
  3 17  1  0
  3 18  1  0
  3 19  1  0
  4  5  1  0
  4 20  1  0
  4 21  1  0
  5  6  1  0
  5 22  1  0
  5 23  1  0
  6  7  1  0
  6 24  1  0
  6 25  1  0
  7  8  1  0
  7  9  1  0
  8 26  1  0
  8 27  1  0
  8 28  1  0
  9 10  1  0
  9 29  1  0
  9 30  1  0
 10 11  1  0
 10 12  2  0
 11 31  1  0
 11 32  1  0
 12 13  1  0
 13 33  1  0
M  END

