
     RDKit          3D

 53 56  0  0  0  0  0  0  0  0999 V2000
    4.3955   -3.5479    2.6781 C   0  0  0  0  0  0  0  0  0  0  0  0
    5.3918   -2.6078    2.3370 O   0  0  0  0  0  0  0  0  0  0  0  0
    5.4231   -1.4218    3.0041 C   0  0  0  0  0  0  0  0  0  0  0  0
    4.5668   -1.0097    4.0214 C   0  0  0  0  0  0  0  0  0  0  0  0
    4.7404    0.2537    4.6348 C   0  0  0  0  0  0  0  0  0  0  0  0
    5.7481    1.1118    4.2373 C   0  0  0  0  0  0  0  0  0  0  0  0
    5.9049    2.2850    4.8768 F   0  0  0  0  0  0  0  0  0  0  0  0
    6.6229    0.7557    3.1917 C   0  0  0  0  0  0  0  0  0  0  0  0
    7.7670    1.3423    2.5183 C   0  0  0  0  0  0  0  0  0  0  0  0
    8.4323    2.6453    2.6417 C   0  0  0  0  0  0  0  0  0  0  0  0
    9.5205    2.8716    2.1294 O   0  0  0  0  0  0  0  0  0  0  0  0
    7.6199    3.8169    3.2244 C   0  0  0  0  0  0  0  0  0  0  0  0
    6.5857    4.0702    2.6256 O   0  0  0  0  0  0  0  0  0  0  0  0
    8.1422    4.5238    4.2661 N   0  0  0  0  0  0  0  0  0  0  0  0
    9.4923    4.3039    4.7898 C   0  0  0  0  0  0  0  0  0  0  0  0
   10.4170    5.4360    4.3341 C   0  0  0  0  0  0  0  0  0  0  0  0
    9.8701    6.7440    4.6951 N   0  0  0  0  0  0  0  0  0  0  0  0
   10.5844    7.5347    5.5728 C   0  0  0  0  0  0  0  0  0  0  0  0
   11.5955    7.1346    6.1335 O   0  0  0  0  0  0  0  0  0  0  0  0
   10.1188    8.9514    5.8079 C   0  0  0  0  0  0  0  0  0  0  0  0
   10.1705    9.4507    7.1189 C   0  0  0  0  0  0  0  0  0  0  0  0
    9.8386   10.7802    7.3835 C   0  0  0  0  0  0  0  0  0  0  0  0
    9.4821   11.6365    6.3359 C   0  0  0  0  0  0  0  0  0  0  0  0
    9.4597   11.1562    5.0232 C   0  0  0  0  0  0  0  0  0  0  0  0
    9.7714    9.8194    4.7603 C   0  0  0  0  0  0  0  0  0  0  0  0
    8.4791    6.9542    4.3023 C   0  0  0  0  0  0  0  0  0  0  0  0
    7.5792    5.7914    4.7767 C   0  0  1  0  0  0  0  0  0  0  0  0
    7.7004    5.7314    5.8740 H   0  0  0  0  0  0  0  0  0  0  0  0
    6.1013    6.0557    4.4969 C   0  0  0  0  0  0  0  0  0  0  0  0
    8.2111    0.3922    1.6071 C   0  0  0  0  0  0  0  0  0  0  0  0
    7.4172   -0.7097    1.6612 N   0  0  0  0  0  0  0  0  0  0  0  0
    7.4995   -1.5422    1.0914 H   0  0  0  0  0  0  0  0  0  0  0  0
    6.4388   -0.5260    2.6180 C   0  0  0  0  0  0  0  0  0  0  0  0
    4.5472   -4.4189    2.0268 H   0  0  0  0  0  0  0  0  0  0  0  0
    3.3809   -3.1448    2.5092 H   0  0  0  0  0  0  0  0  0  0  0  0
    4.4808   -3.8670    3.7324 H   0  0  0  0  0  0  0  0  0  0  0  0
    3.7593   -1.6549    4.3669 H   0  0  0  0  0  0  0  0  0  0  0  0
    4.0787    0.5666    5.4445 H   0  0  0  0  0  0  0  0  0  0  0  0
    9.8889    3.3426    4.4493 H   0  0  0  0  0  0  0  0  0  0  0  0
    9.4403    4.2819    5.8920 H   0  0  0  0  0  0  0  0  0  0  0  0
   10.5241    5.3702    3.2372 H   0  0  0  0  0  0  0  0  0  0  0  0
   11.4051    5.3475    4.8015 H   0  0  0  0  0  0  0  0  0  0  0  0
   10.4847    8.7830    7.9239 H   0  0  0  0  0  0  0  0  0  0  0  0
    9.8690   11.1544    8.4100 H   0  0  0  0  0  0  0  0  0  0  0  0
    9.2314   12.6803    6.5416 H   0  0  0  0  0  0  0  0  0  0  0  0
    9.2031   11.8260    4.1984 H   0  0  0  0  0  0  0  0  0  0  0  0
    9.7659    9.4549    3.7302 H   0  0  0  0  0  0  0  0  0  0  0  0
    8.4000    7.0357    3.2019 H   0  0  0  0  0  0  0  0  0  0  0  0
    8.1099    7.8893    4.7384 H   0  0  0  0  0  0  0  0  0  0  0  0
    5.9051    6.2677    3.4393 H   0  0  0  0  0  0  0  0  0  0  0  0
    5.7878    6.9206    5.1045 H   0  0  0  0  0  0  0  0  0  0  0  0
    5.4872    5.1906    4.7797 H   0  0  0  0  0  0  0  0  0  0  0  0
    9.0461    0.4751    0.9149 H   0  0  0  0  0  0  0  0  0  0  0  0
  1  2  1  0
  1 34  1  0
  1 35  1  0
  1 36  1  0
  2  3  1  0
  3  4  2  0
  3 33  1  0
  4  5  1  0
  4 37  1  0
  5  6  2  0
  5 38  1  0
  6  7  1  0
  6  8  1  0
  8  9  1  0
  8 33  2  0
  9 10  1  0
  9 30  2  0
 10 11  2  0
 10 12  1  0
 12 13  2  0
 12 14  1  0
 14 15  1  0
 14 27  1  0
 15 16  1  0
 15 39  1  0
 15 40  1  0
 16 17  1  0
 16 41  1  0
 16 42  1  0
 17 18  1  0
 17 26  1  0
 18 19  2  0
 18 20  1  0
 20 21  2  0
 20 25  1  0
 21 22  1  0
 21 43  1  0
 22 23  2  0
 22 44  1  0
 23 24  1  0
 23 45  1  0
 24 25  2  0
 24 46  1  0
 25 47  1  0
 26 27  1  0
 26 48  1  0
 26 49  1  0
 27 28  1  1
 27 29  1  0
 29 50  1  0
 29 51  1  0
 29 52  1  0
 30 31  1  0
 30 53  1  0
 31 32  1  0
 31 33  1  0
M  END

