
     RDKit          3D

 47 49  0  0  0  0  0  0  0  0999 V2000
    3.4944    0.4546   -2.4856 O   0  0  0  0  0  0  0  0  0  0  0  0
    3.5249    0.3779   -1.2602 C   0  0  0  0  0  0  0  0  0  0  0  0
    3.5431    1.6842   -0.4727 C   0  0  0  0  0  0  0  0  0  0  0  0
    3.9049    2.8279   -1.1995 C   0  0  0  0  0  0  0  0  0  0  0  0
    3.8994    4.0318   -0.5037 C   0  0  0  0  0  0  0  0  0  0  0  0
    3.5433    4.1143    0.7800 N   0  0  0  0  0  0  0  0  0  0  0  0
    3.1937    2.9770    1.3952 C   0  0  0  0  0  0  0  0  0  0  0  0
    2.7509    3.0915    2.8352 C   0  0  1  0  0  0  0  0  0  0  0  0
    1.3081    2.6210    3.1120 C   0  0  0  0  0  0  0  0  0  0  0  0
    1.2564    2.5602    4.6440 C   0  0  0  0  0  0  0  0  0  0  0  0
    2.6399    2.0027    5.0591 C   0  0  0  0  0  0  0  0  0  0  0  0
    3.5910    2.2861    3.8608 C   0  0  0  0  0  0  0  0  0  0  0  0
    3.1968    1.7623    0.8151 N   0  0  0  0  0  0  0  0  0  0  0  0
    3.5835   -0.8352   -0.6439 N   0  0  0  0  0  0  0  0  0  0  0  0
    3.7131   -2.0136   -1.5207 C   0  0  0  0  0  0  0  0  0  0  0  0
    4.0164   -3.1756   -0.5652 C   0  0  0  0  0  0  0  0  0  0  0  0
    4.5908   -2.4810    0.6779 C   0  0  0  0  0  0  0  0  0  0  0  0
    3.7634   -1.1845    0.7798 C   0  0  2  0  0  0  0  0  0  0  0  0
    2.4164   -1.3635    1.5044 C   0  0  0  0  0  0  0  0  0  0  0  0
    2.5582   -1.5319    3.0184 C   0  0  0  0  0  0  0  0  0  0  0  0
    1.2207   -1.5910    3.7545 C   0  0  0  0  0  0  0  0  0  0  0  0
    1.3625   -1.5282    5.1603 O   0  0  0  0  0  0  0  0  0  0  0  0
    4.1639    2.7481   -2.2543 H   0  0  0  0  0  0  0  0  0  0  0  0
    4.1862    4.9683   -0.9972 H   0  0  0  0  0  0  0  0  0  0  0  0
    2.8169    4.1625    3.0799 H   0  0  0  0  0  0  0  0  0  0  0  0
    1.1631    1.6180    2.6759 H   0  0  0  0  0  0  0  0  0  0  0  0
    0.5507    3.2879    2.6703 H   0  0  0  0  0  0  0  0  0  0  0  0
    0.4228    1.9489    5.0230 H   0  0  0  0  0  0  0  0  0  0  0  0
    1.1180    3.5792    5.0436 H   0  0  0  0  0  0  0  0  0  0  0  0
    2.5658    0.9220    5.2562 H   0  0  0  0  0  0  0  0  0  0  0  0
    2.9999    2.4690    5.9892 H   0  0  0  0  0  0  0  0  0  0  0  0
    3.9247    1.3449    3.3974 H   0  0  0  0  0  0  0  0  0  0  0  0
    4.4985    2.8362    4.1537 H   0  0  0  0  0  0  0  0  0  0  0  0
    4.5267   -1.8329   -2.2428 H   0  0  0  0  0  0  0  0  0  0  0  0
    2.8001   -2.1616   -2.1187 H   0  0  0  0  0  0  0  0  0  0  0  0
    4.7095   -3.9051   -1.0092 H   0  0  0  0  0  0  0  0  0  0  0  0
    3.0938   -3.7207   -0.3100 H   0  0  0  0  0  0  0  0  0  0  0  0
    5.6517   -2.2279    0.5161 H   0  0  0  0  0  0  0  0  0  0  0  0
    4.5342   -3.0968    1.5873 H   0  0  0  0  0  0  0  0  0  0  0  0
    4.3212   -0.3852    1.2842 H   0  0  0  0  0  0  0  0  0  0  0  0
    1.8690   -2.2194    1.0709 H   0  0  0  0  0  0  0  0  0  0  0  0
    1.8158   -0.4648    1.2994 H   0  0  0  0  0  0  0  0  0  0  0  0
    3.1329   -0.6845    3.4271 H   0  0  0  0  0  0  0  0  0  0  0  0
    3.1381   -2.4434    3.2573 H   0  0  0  0  0  0  0  0  0  0  0  0
    0.6541   -2.4935    3.4433 H   0  0  0  0  0  0  0  0  0  0  0  0
    0.6034   -0.7218    3.4748 H   0  0  0  0  0  0  0  0  0  0  0  0
    1.9199   -2.2655    5.4429 H   0  0  0  0  0  0  0  0  0  0  0  0
  1  2  2  0
  2  3  1  0
  2 14  1  0
  3  4  2  0
  3 13  1  0
  4  5  1  0
  4 23  1  0
  5  6  2  0
  5 24  1  0
  6  7  1  0
  7  8  1  0
  7 13  2  0
  8  9  1  0
  8 12  1  0
  8 25  1  1
  9 10  1  0
  9 26  1  0
  9 27  1  0
 10 11  1  0
 10 28  1  0
 10 29  1  0
 11 12  1  0
 11 30  1  0
 11 31  1  0
 12 32  1  0
 12 33  1  0
 14 15  1  0
 14 18  1  0
 15 16  1  0
 15 34  1  0
 15 35  1  0
 16 17  1  0
 16 36  1  0
 16 37  1  0
 17 18  1  0
 17 38  1  0
 17 39  1  0
 18 19  1  0
 18 40  1  1
 19 20  1  0
 19 41  1  0
 19 42  1  0
 20 21  1  0
 20 43  1  0
 20 44  1  0
 21 22  1  0
 21 45  1  0
 21 46  1  0
 22 47  1  0
M  END

