
     RDKit          3D

 42 43  0  0  0  0  0  0  0  0999 V2000
    1.4105    0.0648    0.5135 C   0  0  0  0  0  0  0  0  0  0  0  0
    2.9316    0.0830    0.3140 C   0  0  1  0  0  0  0  0  0  0  0  0
    3.3623    1.3982   -0.3697 C   0  0  0  0  0  0  0  0  0  0  0  0
    4.8038    1.4341   -0.9151 C   0  0  0  0  0  0  0  0  0  0  0  0
    5.1168    2.7117   -1.6649 C   0  0  0  0  0  0  0  0  0  0  0  0
    5.6255    3.8353   -0.9935 C   0  0  0  0  0  0  0  0  0  0  0  0
    5.8796    5.0284   -1.6757 C   0  0  0  0  0  0  0  0  0  0  0  0
    5.6287    5.1195   -3.0481 C   0  0  0  0  0  0  0  0  0  0  0  0
    5.1237    4.0088   -3.7305 C   0  0  0  0  0  0  0  0  0  0  0  0
    4.8708    2.8183   -3.0434 C   0  0  0  0  0  0  0  0  0  0  0  0
    3.7266   -0.1286    1.6254 C   0  0  0  0  0  0  0  0  0  0  0  0
    3.5128   -1.3519    2.4004 N   0  0  0  0  0  0  0  0  0  0  0  0
    3.6889   -2.6595    1.7405 C   0  0  0  0  0  0  0  0  0  0  0  0
    2.5376   -3.5271    2.2708 C   0  0  0  0  0  0  0  0  0  0  0  0
    2.2369   -2.9132    3.6424 C   0  0  0  0  0  0  0  0  0  0  0  0
    2.4371   -1.4015    3.3978 C   0  0  1  0  0  0  0  0  0  0  0  0
    1.4914   -0.9411    3.0654 H   0  0  0  0  0  0  0  0  0  0  0  0
    2.8421   -0.6885    4.6993 C   0  0  0  0  0  0  0  0  0  0  0  0
    2.0526   -0.3277    5.5310 O   0  0  0  0  0  0  0  0  0  0  0  0
    4.1692   -0.5616    4.8297 O   0  0  0  0  0  0  0  0  0  0  0  0
    0.8913    0.2452   -0.4414 H   0  0  0  0  0  0  0  0  0  0  0  0
    1.0888    0.8503    1.2182 H   0  0  0  0  0  0  0  0  0  0  0  0
    1.0531   -0.9011    0.9001 H   0  0  0  0  0  0  0  0  0  0  0  0
    3.1896   -0.7396   -0.3792 H   0  0  0  0  0  0  0  0  0  0  0  0
    3.2165    2.2410    0.3309 H   0  0  0  0  0  0  0  0  0  0  0  0
    2.6754    1.5922   -1.2110 H   0  0  0  0  0  0  0  0  0  0  0  0
    4.9529    0.5697   -1.5854 H   0  0  0  0  0  0  0  0  0  0  0  0
    5.5264    1.3184   -0.0913 H   0  0  0  0  0  0  0  0  0  0  0  0
    5.8305    3.7729    0.0797 H   0  0  0  0  0  0  0  0  0  0  0  0
    6.2792    5.8895   -1.1335 H   0  0  0  0  0  0  0  0  0  0  0  0
    5.8298    6.0506   -3.5840 H   0  0  0  0  0  0  0  0  0  0  0  0
    4.9293    4.0678   -4.8048 H   0  0  0  0  0  0  0  0  0  0  0  0
    4.4806    1.9528   -3.5879 H   0  0  0  0  0  0  0  0  0  0  0  0
    3.5300    0.7249    2.2978 H   0  0  0  0  0  0  0  0  0  0  0  0
    4.8020   -0.0744    1.3840 H   0  0  0  0  0  0  0  0  0  0  0  0
    4.6721   -3.0979    1.9974 H   0  0  0  0  0  0  0  0  0  0  0  0
    3.6602   -2.5693    0.6428 H   0  0  0  0  0  0  0  0  0  0  0  0
    2.7951   -4.5958    2.3215 H   0  0  0  0  0  0  0  0  0  0  0  0
    1.6574   -3.4288    1.6142 H   0  0  0  0  0  0  0  0  0  0  0  0
    2.9679   -3.2697    4.3874 H   0  0  0  0  0  0  0  0  0  0  0  0
    1.2330   -3.1375    4.0281 H   0  0  0  0  0  0  0  0  0  0  0  0
    4.5244   -0.9125    3.9779 H   0  0  0  0  0  0  0  0  0  0  0  0
  1  2  1  0
  1 21  1  0
  1 22  1  0
  1 23  1  0
  2  3  1  0
  2 11  1  0
  2 24  1  6
  3  4  1  0
  3 25  1  0
  3 26  1  0
  4  5  1  0
  4 27  1  0
  4 28  1  0
  5  6  2  0
  5 10  1  0
  6  7  1  0
  6 29  1  0
  7  8  2  0
  7 30  1  0
  8  9  1  0
  8 31  1  0
  9 10  2  0
  9 32  1  0
 10 33  1  0
 11 12  1  0
 11 34  1  0
 11 35  1  0
 12 13  1  0
 12 16  1  0
 13 14  1  0
 13 36  1  0
 13 37  1  0
 14 15  1  0
 14 38  1  0
 14 39  1  0
 15 16  1  0
 15 40  1  0
 15 41  1  0
 16 17  1  6
 16 18  1  0
 18 19  2  0
 18 20  1  0
 20 42  1  0
M  END

