
     RDKit          3D

 18 18  0  0  0  0  0  0  0  0999 V2000
    1.1348   -0.4745   -0.5197 C   0  0  0  0  0  0  0  0  0  0  0  0
    2.4596    0.1029   -0.0241 C   0  0  0  0  0  0  0  0  0  0  0  0
    2.8861    1.2895   -0.7579 N   0  0  0  0  0  0  0  0  0  0  0  0
    2.5396    2.6001   -0.4662 C   0  0  0  0  0  0  0  0  0  0  0  0
    3.1149    3.3854   -1.4418 C   0  0  0  0  0  0  0  0  0  0  0  0
    3.0668    4.8721   -1.6003 C   0  0  0  0  0  0  0  0  0  0  0  0
    3.8037    2.5853   -2.3287 N   0  0  0  0  0  0  0  0  0  0  0  0
    3.6424    1.3669   -1.8958 C   0  0  0  0  0  0  0  0  0  0  0  0
    4.3667   -0.1719   -2.7175 Br  0  0  0  0  0  0  0  0  0  0  0  0
    0.8593   -1.3560    0.0805 H   0  0  0  0  0  0  0  0  0  0  0  0
    1.2130   -0.7874   -1.5720 H   0  0  0  0  0  0  0  0  0  0  0  0
    0.3227    0.2646   -0.4383 H   0  0  0  0  0  0  0  0  0  0  0  0
    3.2605   -0.6463   -0.1058 H   0  0  0  0  0  0  0  0  0  0  0  0
    2.3889    0.3852    1.0378 H   0  0  0  0  0  0  0  0  0  0  0  0
    1.9306    2.8472    0.4005 H   0  0  0  0  0  0  0  0  0  0  0  0
    2.4822    5.3399   -0.7946 H   0  0  0  0  0  0  0  0  0  0  0  0
    2.6122    5.1510   -2.5652 H   0  0  0  0  0  0  0  0  0  0  0  0
    4.0818    5.3023   -1.5874 H   0  0  0  0  0  0  0  0  0  0  0  0
  1  2  1  0
  1 10  1  0
  1 11  1  0
  1 12  1  0
  2  3  1  0
  2 13  1  0
  2 14  1  0
  3  4  1  0
  3  8  1  0
  4  5  2  0
  4 15  1  0
  5  6  1  0
  5  7  1  0
  6 16  1  0
  6 17  1  0
  6 18  1  0
  7  8  2  0
  8  9  1  0
M  END

