
     RDKit          3D

 41 43  0  0  0  0  0  0  0  0999 V2000
    1.2405    1.1458   -0.1623 O   0  0  0  0  0  0  0  0  0  0  0  0
    1.7677    0.0735   -0.4206 C   0  0  0  0  0  0  0  0  0  0  0  0
    1.3241   -0.7714   -1.3886 N   0  0  0  0  0  0  0  0  0  0  0  0
    0.2344   -0.4120   -2.2784 C   0  0  0  0  0  0  0  0  0  0  0  0
    0.6569    0.3910   -3.4848 C   0  0  0  0  0  0  0  0  0  0  0  0
    0.8174    1.7529   -3.5749 C   0  0  0  0  0  0  0  0  0  0  0  0
    1.2961    2.1916   -4.8471 C   0  0  0  0  0  0  0  0  0  0  0  0
    1.5000    1.1441   -5.7095 C   0  0  0  0  0  0  0  0  0  0  0  0
    2.1073    1.2386   -7.4898 Br  0  0  0  0  0  0  0  0  0  0  0  0
    1.1070   -0.3857   -4.9839 S   0  0  0  0  0  0  0  0  0  0  0  0
    2.9684   -0.4786    0.3845 C   0  0  2  0  0  0  0  0  0  0  0  0
    3.7913    0.6535    1.0226 C   0  0  0  0  0  0  0  0  0  0  0  0
    4.7191    1.3243    0.0048 C   0  0  0  0  0  0  0  0  0  0  0  0
    5.5823    0.2912   -0.7309 C   0  0  2  0  0  0  0  0  0  0  0  0
    6.5170    0.9147   -1.7776 C   0  0  0  0  0  0  0  0  0  0  0  0
    7.3442   -0.1465   -2.5139 C   0  0  0  0  0  0  0  0  0  0  0  0
    6.4469   -1.2201   -3.1436 C   0  0  0  0  0  0  0  0  0  0  0  0
    5.5011   -1.8453   -2.1106 C   0  0  0  0  0  0  0  0  0  0  0  0
    4.6784   -0.7813   -1.3779 C   0  0  1  0  0  0  0  0  0  0  0  0
    3.7503   -1.4163   -0.4311 N   0  0  0  0  0  0  0  0  0  0  0  0
    1.9162   -1.5812   -1.5624 H   0  0  0  0  0  0  0  0  0  0  0  0
   -0.4743    0.1958   -1.6970 H   0  0  0  0  0  0  0  0  0  0  0  0
   -0.2863   -1.3315   -2.5878 H   0  0  0  0  0  0  0  0  0  0  0  0
    0.6095    2.4170   -2.7343 H   0  0  0  0  0  0  0  0  0  0  0  0
    1.4784    3.2324   -5.1156 H   0  0  0  0  0  0  0  0  0  0  0  0
    2.5030   -1.0706    1.1930 H   0  0  0  0  0  0  0  0  0  0  0  0
    4.3941    0.2235    1.8418 H   0  0  0  0  0  0  0  0  0  0  0  0
    3.1012    1.3854    1.4666 H   0  0  0  0  0  0  0  0  0  0  0  0
    5.3601    2.0684    0.5078 H   0  0  0  0  0  0  0  0  0  0  0  0
    4.1134    1.8829   -0.7315 H   0  0  0  0  0  0  0  0  0  0  0  0
    6.2118   -0.2288    0.0208 H   0  0  0  0  0  0  0  0  0  0  0  0
    7.1789    1.6533   -1.2935 H   0  0  0  0  0  0  0  0  0  0  0  0
    5.9089    1.4792   -2.5092 H   0  0  0  0  0  0  0  0  0  0  0  0
    8.0389   -0.6259   -1.7996 H   0  0  0  0  0  0  0  0  0  0  0  0
    7.9729    0.3262   -3.2870 H   0  0  0  0  0  0  0  0  0  0  0  0
    7.0596   -2.0043   -3.6188 H   0  0  0  0  0  0  0  0  0  0  0  0
    5.8466   -0.7640   -3.9516 H   0  0  0  0  0  0  0  0  0  0  0  0
    6.0929   -2.4123   -1.3659 H   0  0  0  0  0  0  0  0  0  0  0  0
    4.8208   -2.5702   -2.5876 H   0  0  0  0  0  0  0  0  0  0  0  0
    4.0540   -0.2622   -2.1317 H   0  0  0  0  0  0  0  0  0  0  0  0
    4.2634   -2.0571    0.1737 H   0  0  0  0  0  0  0  0  0  0  0  0
  1  2  2  0
  2  3  1  0
  2 11  1  0
  3  4  1  0
  3 21  1  0
  4  5  1  0
  4 22  1  0
  4 23  1  0
  5  6  2  0
  5 10  1  0
  6  7  1  0
  6 24  1  0
  7  8  2  0
  7 25  1  0
  8  9  1  0
  8 10  1  0
 11 12  1  0
 11 20  1  0
 11 26  1  1
 12 13  1  0
 12 27  1  0
 12 28  1  0
 13 14  1  0
 13 29  1  0
 13 30  1  0
 14 15  1  0
 14 19  1  0
 14 31  1  1
 15 16  1  0
 15 32  1  0
 15 33  1  0
 16 17  1  0
 16 34  1  0
 16 35  1  0
 17 18  1  0
 17 36  1  0
 17 37  1  0
 18 19  1  0
 18 38  1  0
 18 39  1  0
 19 20  1  0
 19 40  1  6
 20 41  1  0
M  END

