
     RDKit          3D

 53 55  0  0  0  0  0  0  0  0999 V2000
    1.0461    0.3018    0.7125 C   0  0  0  0  0  0  0  0  0  0  0  0
    2.5558    0.4377    0.5012 C   0  0  1  0  0  0  0  0  0  0  0  0
    2.9692    0.2751   -0.9634 C   0  0  0  0  0  0  0  0  0  0  0  0
    3.0299    1.7300    1.0249 N   0  0  0  0  0  0  0  0  0  0  0  0
    2.5694    2.8620    0.4998 N   0  0  0  0  0  0  0  0  0  0  0  0
    3.1652    3.8586    1.1597 C   0  0  0  0  0  0  0  0  0  0  0  0
    2.8911    5.2882    0.7927 C   0  0  0  0  0  0  0  0  0  0  0  0
    3.4425    5.6619   -0.4818 O   0  0  0  0  0  0  0  0  0  0  0  0
    4.7804    5.8539   -0.5402 C   0  0  0  0  0  0  0  0  0  0  0  0
    5.1536    6.1864   -1.8040 N   0  0  0  0  0  0  0  0  0  0  0  0
    5.5358    5.7499    0.4040 O   0  0  0  0  0  0  0  0  0  0  0  0
    4.0372    3.3583    2.1607 C   0  0  0  0  0  0  0  0  0  0  0  0
    4.8894    4.1517    3.1113 C   0  0  0  0  0  0  0  0  0  0  0  0
    4.1409    5.0497    3.9186 O   0  0  0  0  0  0  0  0  0  0  0  0
    3.3522    4.4449    4.9099 C   0  0  0  0  0  0  0  0  0  0  0  0
    2.6914    5.4927    5.7733 C   0  0  0  0  0  0  0  0  0  0  0  0
    1.6702    5.1400    6.6667 C   0  0  0  0  0  0  0  0  0  0  0  0
    1.0996    6.1292    7.4702 C   0  0  0  0  0  0  0  0  0  0  0  0
    1.4683    7.4133    7.4371 N   0  0  0  0  0  0  0  0  0  0  0  0
    2.4384    7.7467    6.5830 C   0  0  0  0  0  0  0  0  0  0  0  0
    3.0800    6.8358    5.7368 C   0  0  0  0  0  0  0  0  0  0  0  0
    3.9234    1.9717    2.0436 C   0  0  0  0  0  0  0  0  0  0  0  0
    4.6740    0.7111    3.0141 S   0  0  0  0  0  0  0  0  0  0  0  0
    6.1766    0.3067    2.1156 C   0  0  0  0  0  0  0  0  0  0  0  0
    6.8563   -0.8443    2.5425 C   0  0  0  0  0  0  0  0  0  0  0  0
    8.0470   -1.2031    1.9089 C   0  0  0  0  0  0  0  0  0  0  0  0
    8.8966   -2.6345    2.4381 Cl  0  0  0  0  0  0  0  0  0  0  0  0
    8.5726   -0.4509    0.8545 C   0  0  0  0  0  0  0  0  0  0  0  0
    7.8727    0.6880    0.4495 C   0  0  0  0  0  0  0  0  0  0  0  0
    8.5061    1.6467   -0.8663 Cl  0  0  0  0  0  0  0  0  0  0  0  0
    6.6831    1.0846    1.0672 C   0  0  0  0  0  0  0  0  0  0  0  0
    0.7031   -0.6825    0.3581 H   0  0  0  0  0  0  0  0  0  0  0  0
    0.5065    1.0829    0.1567 H   0  0  0  0  0  0  0  0  0  0  0  0
    0.7865    0.3926    1.7785 H   0  0  0  0  0  0  0  0  0  0  0  0
    3.0734   -0.3175    1.1110 H   0  0  0  0  0  0  0  0  0  0  0  0
    2.5036    1.0558   -1.5834 H   0  0  0  0  0  0  0  0  0  0  0  0
    2.6495   -0.7093   -1.3386 H   0  0  0  0  0  0  0  0  0  0  0  0
    4.0617    0.3474   -1.0763 H   0  0  0  0  0  0  0  0  0  0  0  0
    3.2693    5.9539    1.5797 H   0  0  0  0  0  0  0  0  0  0  0  0
    1.8112    5.4434    0.6688 H   0  0  0  0  0  0  0  0  0  0  0  0
    4.4754    6.2358   -2.5516 H   0  0  0  0  0  0  0  0  0  0  0  0
    6.1339    6.3423   -1.9902 H   0  0  0  0  0  0  0  0  0  0  0  0
    5.5745    4.7849    2.5312 H   0  0  0  0  0  0  0  0  0  0  0  0
    5.4795    3.4619    3.7438 H   0  0  0  0  0  0  0  0  0  0  0  0
    3.9773    3.7877    5.5530 H   0  0  0  0  0  0  0  0  0  0  0  0
    2.5740    3.7913    4.4660 H   0  0  0  0  0  0  0  0  0  0  0  0
    1.3174    4.1069    6.7378 H   0  0  0  0  0  0  0  0  0  0  0  0
    0.2999    5.8675    8.1739 H   0  0  0  0  0  0  0  0  0  0  0  0
    2.7303    8.8040    6.5645 H   0  0  0  0  0  0  0  0  0  0  0  0
    3.8675    7.1583    5.0549 H   0  0  0  0  0  0  0  0  0  0  0  0
    6.4660   -1.4597    3.3547 H   0  0  0  0  0  0  0  0  0  0  0  0
    9.4994   -0.7444    0.3634 H   0  0  0  0  0  0  0  0  0  0  0  0
    6.1747    1.9904    0.7363 H   0  0  0  0  0  0  0  0  0  0  0  0
  1  2  1  0
  1 32  1  0
  1 33  1  0
  1 34  1  0
  2  3  1  0
  2  4  1  0
  2 35  1  1
  3 36  1  0
  3 37  1  0
  3 38  1  0
  4  5  1  0
  4 22  1  0
  5  6  2  0
  6  7  1  0
  6 12  1  0
  7  8  1  0
  7 39  1  0
  7 40  1  0
  8  9  1  0
  9 10  1  0
  9 11  2  0
 10 41  1  0
 10 42  1  0
 12 13  1  0
 12 22  2  0
 13 14  1  0
 13 43  1  0
 13 44  1  0
 14 15  1  0
 15 16  1  0
 15 45  1  0
 15 46  1  0
 16 17  2  0
 16 21  1  0
 17 18  1  0
 17 47  1  0
 18 19  2  0
 18 48  1  0
 19 20  1  0
 20 21  2  0
 20 49  1  0
 21 50  1  0
 22 23  1  0
 23 24  1  0
 24 25  2  0
 24 31  1  0
 25 26  1  0
 25 51  1  0
 26 27  1  0
 26 28  2  0
 28 29  1  0
 28 52  1  0
 29 30  1  0
 29 31  2  0
 31 53  1  0
M  END

