
     RDKit          3D

 45 46  0  0  0  0  0  0  0  0999 V2000
    4.4175   -0.0881   -2.7862 C   0  0  0  0  0  0  0  0  0  0  0  0
    4.1959    0.0367   -1.2826 C   0  0  0  0  0  0  0  0  0  0  0  0
    4.4843   -1.2201   -0.6068 N   0  0  0  0  0  0  0  0  0  0  0  0
    4.4267   -1.2003    0.8554 C   0  0  1  0  0  0  0  0  0  0  0  0
    2.9856   -0.9918    1.3530 C   0  0  0  0  0  0  0  0  0  0  0  0
    5.0030   -2.4944    1.4167 C   0  0  0  0  0  0  0  0  0  0  0  0
    5.7567   -2.4841    2.5958 C   0  0  0  0  0  0  0  0  0  0  0  0
    6.2388   -3.6857    3.1303 C   0  0  0  0  0  0  0  0  0  0  0  0
    5.9808   -4.8983    2.4984 C   0  0  0  0  0  0  0  0  0  0  0  0
    5.2280   -4.9175    1.3109 C   0  0  0  0  0  0  0  0  0  0  0  0
    5.0223   -6.1395    0.7539 O   0  0  0  0  0  0  0  0  0  0  0  0
    4.2823   -6.2518   -0.4478 C   0  0  0  0  0  0  0  0  0  0  0  0
    4.2176   -7.7354   -0.8008 C   0  0  0  0  0  0  0  0  0  0  0  0
    3.4595   -7.9788   -2.0213 N   0  0  0  0  0  0  0  0  0  0  0  0
    4.2080   -7.7061   -3.2379 C   0  0  0  0  0  0  0  0  0  0  0  0
    2.8201   -9.2645   -2.0539 C   0  0  1  0  0  0  0  0  0  0  0  0
    1.5374   -9.4542   -1.2901 C   0  0  0  0  0  0  0  0  0  0  0  0
    1.5176   -9.3968   -2.7982 C   0  0  0  0  0  0  0  0  0  0  0  0
    4.7407   -3.7173    0.7744 C   0  0  0  0  0  0  0  0  0  0  0  0
    4.1658    0.8513   -3.3027 H   0  0  0  0  0  0  0  0  0  0  0  0
    3.7954   -0.8950   -3.2040 H   0  0  0  0  0  0  0  0  0  0  0  0
    5.4714   -0.3210   -3.0171 H   0  0  0  0  0  0  0  0  0  0  0  0
    3.1442    0.3108   -1.0964 H   0  0  0  0  0  0  0  0  0  0  0  0
    4.8051    0.8826   -0.8856 H   0  0  0  0  0  0  0  0  0  0  0  0
    5.4091   -1.5449   -0.8898 H   0  0  0  0  0  0  0  0  0  0  0  0
    5.0369   -0.3647    1.2691 H   0  0  0  0  0  0  0  0  0  0  0  0
    2.3277   -1.7837    0.9621 H   0  0  0  0  0  0  0  0  0  0  0  0
    2.5824   -0.0175    1.0359 H   0  0  0  0  0  0  0  0  0  0  0  0
    2.9541   -1.0240    2.4524 H   0  0  0  0  0  0  0  0  0  0  0  0
    5.9712   -1.5363    3.0969 H   0  0  0  0  0  0  0  0  0  0  0  0
    6.8295   -3.6734    4.0502 H   0  0  0  0  0  0  0  0  0  0  0  0
    6.3517   -5.8448    2.8969 H   0  0  0  0  0  0  0  0  0  0  0  0
    4.7684   -5.6669   -1.2502 H   0  0  0  0  0  0  0  0  0  0  0  0
    3.2581   -5.8558   -0.3232 H   0  0  0  0  0  0  0  0  0  0  0  0
    3.7206   -8.2547    0.0321 H   0  0  0  0  0  0  0  0  0  0  0  0
    5.2535   -8.1375   -0.8533 H   0  0  0  0  0  0  0  0  0  0  0  0
    4.5955   -6.6760   -3.2374 H   0  0  0  0  0  0  0  0  0  0  0  0
    3.5504   -7.8130   -4.1138 H   0  0  0  0  0  0  0  0  0  0  0  0
    5.0751   -8.3913   -3.3766 H   0  0  0  0  0  0  0  0  0  0  0  0
    3.4931  -10.1408   -2.0984 H   0  0  0  0  0  0  0  0  0  0  0  0
    1.1494   -8.5852   -0.7519 H   0  0  0  0  0  0  0  0  0  0  0  0
    1.3646  -10.4148   -0.7968 H   0  0  0  0  0  0  0  0  0  0  0  0
    1.1201   -8.4869   -3.2561 H   0  0  0  0  0  0  0  0  0  0  0  0
    1.3282  -10.3162   -3.3592 H   0  0  0  0  0  0  0  0  0  0  0  0
    4.1617   -3.7004   -0.1483 H   0  0  0  0  0  0  0  0  0  0  0  0
  1  2  1  0
  1 20  1  0
  1 21  1  0
  1 22  1  0
  2  3  1  0
  2 23  1  0
  2 24  1  0
  3  4  1  0
  3 25  1  0
  4  5  1  0
  4  6  1  0
  4 26  1  1
  5 27  1  0
  5 28  1  0
  5 29  1  0
  6  7  2  0
  6 19  1  0
  7  8  1  0
  7 30  1  0
  8  9  2  0
  8 31  1  0
  9 10  1  0
  9 32  1  0
 10 11  1  0
 10 19  2  0
 11 12  1  0
 12 13  1  0
 12 33  1  0
 12 34  1  0
 13 14  1  0
 13 35  1  0
 13 36  1  0
 14 15  1  0
 14 16  1  0
 15 37  1  0
 15 38  1  0
 15 39  1  0
 16 17  1  0
 16 18  1  0
 16 40  1  6
 17 18  1  0
 17 41  1  0
 17 42  1  0
 18 43  1  0
 18 44  1  0
 19 45  1  0
M  END

