
     RDKit          3D

 22 22  0  0  0  0  0  0  0  0999 V2000
    1.1163    0.6042    0.9632 C   0  0  0  0  0  0  0  0  0  0  0  0
    2.6164    1.5694    1.0518 S   0  0  1  0  0  0  0  0  0  0  0  0
    3.3863    1.4433   -0.1768 O   0  0  0  0  0  0  0  0  0  0  0  0
    2.3392    2.8735    1.6356 O   0  0  0  0  0  0  0  0  0  0  0  0
    3.3668    0.6298    2.2467 O   0  0  0  0  0  0  0  0  0  0  0  0
    4.7409    0.5098    2.2183 C   0  0  0  0  0  0  0  0  0  0  0  0
    5.5583    1.6211    2.4391 C   0  0  0  0  0  0  0  0  0  0  0  0
    6.9453    1.4749    2.4507 C   0  0  0  0  0  0  0  0  0  0  0  0
    7.4929    0.2101    2.2488 C   0  0  0  0  0  0  0  0  0  0  0  0
    8.8221    0.0613    2.2667 F   0  0  0  0  0  0  0  0  0  0  0  0
    6.6928   -0.9084    2.0299 C   0  0  0  0  0  0  0  0  0  0  0  0
    5.3034   -0.7592    2.0046 C   0  0  0  0  0  0  0  0  0  0  0  0
    4.4117   -1.9584    1.7724 C   0  0  1  0  0  0  0  0  0  0  0  0
    3.6433   -2.2241    2.8403 F   0  0  0  0  0  0  0  0  0  0  0  0
    3.5813   -1.7699    0.7256 F   0  0  0  0  0  0  0  0  0  0  0  0
    5.1284   -3.0627    1.5108 F   0  0  0  0  0  0  0  0  0  0  0  0
    0.4663    1.1134    0.2390 H   0  0  0  0  0  0  0  0  0  0  0  0
    0.6600    0.5931    1.9605 H   0  0  0  0  0  0  0  0  0  0  0  0
    1.3847   -0.4036    0.6254 H   0  0  0  0  0  0  0  0  0  0  0  0
    5.0933    2.5948    2.6031 H   0  0  0  0  0  0  0  0  0  0  0  0
    7.6063    2.3269    2.6191 H   0  0  0  0  0  0  0  0  0  0  0  0
    7.1561   -1.8824    1.8738 H   0  0  0  0  0  0  0  0  0  0  0  0
  1  2  1  0
  1 17  1  0
  1 18  1  0
  1 19  1  0
  2  3  2  0
  2  4  2  0
  2  5  1  1
  5  6  1  0
  6  7  2  0
  6 12  1  0
  7  8  1  0
  7 20  1  0
  8  9  2  0
  8 21  1  0
  9 10  1  0
  9 11  1  0
 11 12  2  0
 11 22  1  0
 12 13  1  0
 13 14  1  1
 13 15  1  0
 13 16  1  0
M  END

