
     RDKit          3D

 44 46  0  0  0  0  0  0  0  0999 V2000
    1.1631    0.2392    3.4096 C   0  0  0  0  0  0  0  0  0  0  0  0
    1.3480   -0.5016    2.1090 C   0  0  0  0  0  0  0  0  0  0  0  0
    0.5930   -0.1934    0.9669 C   0  0  0  0  0  0  0  0  0  0  0  0
    0.8205   -0.9174   -0.2051 C   0  0  0  0  0  0  0  0  0  0  0  0
    1.7855   -1.9234   -0.2063 C   0  0  0  0  0  0  0  0  0  0  0  0
    2.4959   -2.1660    0.9795 C   0  0  0  0  0  0  0  0  0  0  0  0
    3.5243   -3.2801    1.0865 C   0  0  0  0  0  0  0  0  0  0  0  0
    4.1721   -3.6359   -0.1670 N   0  0  0  0  0  0  0  0  0  0  0  0
    5.1385   -2.6308   -0.5791 C   0  0  0  0  0  0  0  0  0  0  0  0
    4.7267   -4.9856   -0.1697 C   0  0  0  0  0  0  0  0  0  0  0  0
    3.6789   -6.1044   -0.3248 C   0  0  2  0  0  0  0  0  0  0  0  0
    4.3610   -7.4087   -0.2892 N   0  0  0  0  0  0  0  0  0  0  0  0
    4.5886   -7.7878   -1.6854 C   0  0  0  0  0  0  0  0  0  0  0  0
    3.3955   -7.2485   -2.5074 C   0  0  1  0  0  0  0  0  0  0  0  0
    2.1737   -8.2062   -2.5999 C   0  0  0  0  0  0  0  0  0  0  0  0
    1.1749   -7.7235   -1.5339 C   0  0  0  0  0  0  0  0  0  0  0  0
    1.3724   -6.2015   -1.5419 C   0  0  0  0  0  0  0  0  0  0  0  0
    2.8977   -6.0130   -1.6767 C   0  0  1  0  0  0  0  0  0  0  0  0
    2.2779   -1.4671    2.0982 N   0  0  0  0  0  0  0  0  0  0  0  0
    0.3722    1.0001    3.3442 H   0  0  0  0  0  0  0  0  0  0  0  0
    2.1039    0.7320    3.7041 H   0  0  0  0  0  0  0  0  0  0  0  0
    0.9105   -0.4667    4.2170 H   0  0  0  0  0  0  0  0  0  0  0  0
   -0.1555    0.6018    0.9990 H   0  0  0  0  0  0  0  0  0  0  0  0
    0.2477   -0.6976   -1.1104 H   0  0  0  0  0  0  0  0  0  0  0  0
    2.0038   -2.5174   -1.0947 H   0  0  0  0  0  0  0  0  0  0  0  0
    2.9985   -4.1667    1.4793 H   0  0  0  0  0  0  0  0  0  0  0  0
    4.2490   -2.9890    1.8775 H   0  0  0  0  0  0  0  0  0  0  0  0
    4.6627   -1.6389   -0.6192 H   0  0  0  0  0  0  0  0  0  0  0  0
    5.5216   -2.8603   -1.5857 H   0  0  0  0  0  0  0  0  0  0  0  0
    6.0093   -2.5567    0.1112 H   0  0  0  0  0  0  0  0  0  0  0  0
    5.3245   -5.1995    0.7424 H   0  0  0  0  0  0  0  0  0  0  0  0
    5.4285   -5.0576   -1.0165 H   0  0  0  0  0  0  0  0  0  0  0  0
    2.9837   -6.0518    0.5294 H   0  0  0  0  0  0  0  0  0  0  0  0
    3.7607   -8.0981    0.1576 H   0  0  0  0  0  0  0  0  0  0  0  0
    4.7235   -8.8774   -1.7748 H   0  0  0  0  0  0  0  0  0  0  0  0
    5.5260   -7.3248   -2.0428 H   0  0  0  0  0  0  0  0  0  0  0  0
    3.7276   -6.9605   -3.5168 H   0  0  0  0  0  0  0  0  0  0  0  0
    2.4560   -9.2652   -2.4798 H   0  0  0  0  0  0  0  0  0  0  0  0
    1.7104   -8.1161   -3.5966 H   0  0  0  0  0  0  0  0  0  0  0  0
    1.4362   -8.1358   -0.5431 H   0  0  0  0  0  0  0  0  0  0  0  0
    0.1372   -8.0314   -1.7405 H   0  0  0  0  0  0  0  0  0  0  0  0
    0.9538   -5.6953   -0.6570 H   0  0  0  0  0  0  0  0  0  0  0  0
    0.8656   -5.7725   -2.4242 H   0  0  0  0  0  0  0  0  0  0  0  0
    3.1292   -5.0534   -2.1608 H   0  0  0  0  0  0  0  0  0  0  0  0
  1  2  1  0
  1 20  1  0
  1 21  1  0
  1 22  1  0
  2  3  2  0
  2 19  1  0
  3  4  1  0
  3 23  1  0
  4  5  2  0
  4 24  1  0
  5  6  1  0
  5 25  1  0
  6  7  1  0
  6 19  2  0
  7  8  1  0
  7 26  1  0
  7 27  1  0
  8  9  1  0
  8 10  1  0
  9 28  1  0
  9 29  1  0
  9 30  1  0
 10 11  1  0
 10 31  1  0
 10 32  1  0
 11 12  1  0
 11 18  1  0
 11 33  1  1
 12 13  1  0
 12 34  1  0
 13 14  1  0
 13 35  1  0
 13 36  1  0
 14 15  1  0
 14 18  1  0
 14 37  1  6
 15 16  1  0
 15 38  1  0
 15 39  1  0
 16 17  1  0
 16 40  1  0
 16 41  1  0
 17 18  1  0
 17 42  1  0
 17 43  1  0
 18 44  1  6
M  END

