
     RDKit          3D

 48 50  0  0  0  0  0  0  0  0999 V2000
    5.0474   -0.0234    2.7616 C   0  0  0  0  0  0  0  0  0  0  0  0
    3.6581    0.2976    2.2172 C   0  0  0  0  0  0  0  0  0  0  0  0
    3.6613    1.4188    1.2865 N   0  0  0  0  0  0  0  0  0  0  0  0
    3.1767    2.6738    1.4877 C   0  0  0  0  0  0  0  0  0  0  0  0
    3.4424    3.4019    0.3332 C   0  0  0  0  0  0  0  0  0  0  0  0
    3.1092    4.8377    0.0488 C   0  0  0  0  0  0  0  0  0  0  0  0
    1.7044    5.1103    0.2962 N   0  0  0  0  0  0  0  0  0  0  0  0
    1.1341    6.3609    0.1339 C   0  0  0  0  0  0  0  0  0  0  0  0
   -0.2756    6.4931    0.1675 C   0  0  0  0  0  0  0  0  0  0  0  0
   -0.8701    7.7420    0.0402 C   0  0  0  0  0  0  0  0  0  0  0  0
   -0.0906    8.8961   -0.1196 C   0  0  0  0  0  0  0  0  0  0  0  0
    1.3051    8.7880   -0.1556 C   0  0  0  0  0  0  0  0  0  0  0  0
    2.1597   10.0263   -0.3070 C   0  0  0  0  0  0  0  0  0  0  0  0
    3.3117   10.0305   -1.7427 S   0  0  0  0  0  0  0  0  0  0  0  0
    2.1179    9.9207   -3.1568 C   0  0  1  0  0  0  0  0  0  0  0  0
    1.3943   11.2488   -3.4403 C   0  0  0  0  0  0  0  0  0  0  0  0
    2.3293   12.2710   -4.0883 C   0  0  0  0  0  0  0  0  0  0  0  0
    2.9302   11.7577   -5.2630 O   0  0  0  0  0  0  0  0  0  0  0  0
    3.7122   10.6060   -5.0146 C   0  0  0  0  0  0  0  0  0  0  0  0
    2.8731    9.4718   -4.4202 C   0  0  0  0  0  0  0  0  0  0  0  0
    1.9072    7.5248   -0.0407 C   0  0  0  0  0  0  0  0  0  0  0  0
    4.1007    2.4672   -0.5050 C   0  0  0  0  0  0  0  0  0  0  0  0
    4.2299    1.2798    0.0811 N   0  0  0  0  0  0  0  0  0  0  0  0
    5.0016   -0.8968    3.4309 H   0  0  0  0  0  0  0  0  0  0  0  0
    5.4581    0.8266    3.3290 H   0  0  0  0  0  0  0  0  0  0  0  0
    5.7353   -0.2524    1.9346 H   0  0  0  0  0  0  0  0  0  0  0  0
    2.9622    0.5537    3.0304 H   0  0  0  0  0  0  0  0  0  0  0  0
    3.2422   -0.5735    1.6868 H   0  0  0  0  0  0  0  0  0  0  0  0
    2.6829    2.9573    2.4153 H   0  0  0  0  0  0  0  0  0  0  0  0
    3.4056    5.0785   -0.9931 H   0  0  0  0  0  0  0  0  0  0  0  0
    3.7150    5.4996    0.6940 H   0  0  0  0  0  0  0  0  0  0  0  0
    1.0876    4.3232    0.1313 H   0  0  0  0  0  0  0  0  0  0  0  0
   -0.8941    5.6001    0.2974 H   0  0  0  0  0  0  0  0  0  0  0  0
   -1.9604    7.8218    0.0649 H   0  0  0  0  0  0  0  0  0  0  0  0
   -0.5681    9.8749   -0.2124 H   0  0  0  0  0  0  0  0  0  0  0  0
    2.8390   10.1403    0.5534 H   0  0  0  0  0  0  0  0  0  0  0  0
    1.5291   10.9277   -0.3369 H   0  0  0  0  0  0  0  0  0  0  0  0
    1.3899    9.1463   -2.8712 H   0  0  0  0  0  0  0  0  0  0  0  0
    0.9522   11.6677   -2.5215 H   0  0  0  0  0  0  0  0  0  0  0  0
    0.5577   11.0445   -4.1328 H   0  0  0  0  0  0  0  0  0  0  0  0
    3.1084   12.5750   -3.3600 H   0  0  0  0  0  0  0  0  0  0  0  0
    1.7748   13.1737   -4.3880 H   0  0  0  0  0  0  0  0  0  0  0  0
    4.5554   10.8534   -4.3362 H   0  0  0  0  0  0  0  0  0  0  0  0
    4.1435   10.3036   -5.9816 H   0  0  0  0  0  0  0  0  0  0  0  0
    3.5070    8.5964   -4.2048 H   0  0  0  0  0  0  0  0  0  0  0  0
    2.1256    9.1617   -5.1712 H   0  0  0  0  0  0  0  0  0  0  0  0
    2.9936    7.4600   -0.1103 H   0  0  0  0  0  0  0  0  0  0  0  0
    4.4799    2.6231   -1.5158 H   0  0  0  0  0  0  0  0  0  0  0  0
  1  2  1  0
  1 24  1  0
  1 25  1  0
  1 26  1  0
  2  3  1  0
  2 27  1  0
  2 28  1  0
  3  4  1  0
  3 23  1  0
  4  5  2  0
  4 29  1  0
  5  6  1  0
  5 22  1  0
  6  7  1  0
  6 30  1  0
  6 31  1  0
  7  8  1  0
  7 32  1  0
  8  9  2  0
  8 21  1  0
  9 10  1  0
  9 33  1  0
 10 11  2  0
 10 34  1  0
 11 12  1  0
 11 35  1  0
 12 13  1  0
 12 21  2  0
 13 14  1  0
 13 36  1  0
 13 37  1  0
 14 15  1  0
 15 16  1  0
 15 20  1  0
 15 38  1  1
 16 17  1  0
 16 39  1  0
 16 40  1  0
 17 18  1  0
 17 41  1  0
 17 42  1  0
 18 19  1  0
 19 20  1  0
 19 43  1  0
 19 44  1  0
 20 45  1  0
 20 46  1  0
 21 47  1  0
 22 23  2  0
 22 48  1  0
M  END

