
     RDKit          3D

 39 40  0  0  0  0  0  0  0  0999 V2000
    2.8248    0.8530    0.5442 C   0  0  0  0  0  0  0  0  0  0  0  0
    2.2215   -0.4205    0.5758 O   0  0  0  0  0  0  0  0  0  0  0  0
    2.9848   -1.5309    0.3427 C   0  0  0  0  0  0  0  0  0  0  0  0
    4.3700   -1.4954    0.1367 C   0  0  0  0  0  0  0  0  0  0  0  0
    5.0738   -2.6833   -0.0832 C   0  0  0  0  0  0  0  0  0  0  0  0
    4.4178   -3.9181   -0.0969 C   0  0  0  0  0  0  0  0  0  0  0  0
    5.1773   -5.1997   -0.3861 C   0  0  0  0  0  0  0  0  0  0  0  0
    6.4698   -5.2785    0.2795 N   0  0  0  0  0  0  0  0  0  0  0  0
    6.3586   -5.4072    1.7205 C   0  0  0  0  0  0  0  0  0  0  0  0
    7.3376   -6.2864   -0.2954 C   0  0  0  0  0  0  0  0  0  0  0  0
    3.0316   -3.9293    0.1200 C   0  0  0  0  0  0  0  0  0  0  0  0
    2.2933   -2.7624    0.3331 C   0  0  0  0  0  0  0  0  0  0  0  0
    0.7967   -2.7958    0.5468 C   0  0  0  0  0  0  0  0  0  0  0  0
    0.4205   -2.4394    1.9141 N   0  0  0  0  0  0  0  0  0  0  0  0
   -0.9932   -2.4508    2.1537 C   0  0  1  0  0  0  0  0  0  0  0  0
   -1.5974   -1.4765    3.1174 C   0  0  0  0  0  0  0  0  0  0  0  0
   -1.9226   -1.3617    1.6422 C   0  0  0  0  0  0  0  0  0  0  0  0
    2.0251    1.5844    0.7235 H   0  0  0  0  0  0  0  0  0  0  0  0
    3.2879    1.0628   -0.4366 H   0  0  0  0  0  0  0  0  0  0  0  0
    3.5941    0.9651    1.3296 H   0  0  0  0  0  0  0  0  0  0  0  0
    4.9115   -0.5490    0.1471 H   0  0  0  0  0  0  0  0  0  0  0  0
    6.1558   -2.6574   -0.2325 H   0  0  0  0  0  0  0  0  0  0  0  0
    5.3657   -5.2627   -1.4730 H   0  0  0  0  0  0  0  0  0  0  0  0
    4.5267   -6.0722   -0.1409 H   0  0  0  0  0  0  0  0  0  0  0  0
    5.7442   -4.5919    2.1302 H   0  0  0  0  0  0  0  0  0  0  0  0
    7.3568   -5.3463    2.1827 H   0  0  0  0  0  0  0  0  0  0  0  0
    5.8967   -6.3721    2.0361 H   0  0  0  0  0  0  0  0  0  0  0  0
    7.4709   -6.1060   -1.3741 H   0  0  0  0  0  0  0  0  0  0  0  0
    6.9530   -7.3265   -0.1721 H   0  0  0  0  0  0  0  0  0  0  0  0
    8.3311   -6.2443    0.1795 H   0  0  0  0  0  0  0  0  0  0  0  0
    2.5005   -4.8865    0.1229 H   0  0  0  0  0  0  0  0  0  0  0  0
    0.4313   -3.8168    0.3465 H   0  0  0  0  0  0  0  0  0  0  0  0
    0.3116   -2.1369   -0.2068 H   0  0  0  0  0  0  0  0  0  0  0  0
    0.8137   -1.5272    2.1385 H   0  0  0  0  0  0  0  0  0  0  0  0
   -1.4123   -3.4657    2.1636 H   0  0  0  0  0  0  0  0  0  0  0  0
   -0.9363   -0.7205    3.5548 H   0  0  0  0  0  0  0  0  0  0  0  0
   -2.3730   -1.8302    3.8027 H   0  0  0  0  0  0  0  0  0  0  0  0
   -1.4654   -0.5346    1.0897 H   0  0  0  0  0  0  0  0  0  0  0  0
   -2.9288   -1.6297    1.3048 H   0  0  0  0  0  0  0  0  0  0  0  0
  1  2  1  0
  1 18  1  0
  1 19  1  0
  1 20  1  0
  2  3  1  0
  3  4  2  0
  3 12  1  0
  4  5  1  0
  4 21  1  0
  5  6  2  0
  5 22  1  0
  6  7  1  0
  6 11  1  0
  7  8  1  0
  7 23  1  0
  7 24  1  0
  8  9  1  0
  8 10  1  0
  9 25  1  0
  9 26  1  0
  9 27  1  0
 10 28  1  0
 10 29  1  0
 10 30  1  0
 11 12  2  0
 11 31  1  0
 12 13  1  0
 13 14  1  0
 13 32  1  0
 13 33  1  0
 14 15  1  0
 14 34  1  0
 15 16  1  0
 15 17  1  0
 15 35  1  1
 16 17  1  0
 16 36  1  0
 16 37  1  0
 17 38  1  0
 17 39  1  0
M  END

