
     RDKit          3D

 39 41  0  0  0  0  0  0  0  0999 V2000
    1.4448    0.0143    1.9874 C   0  0  0  0  0  0  0  0  0  0  0  0
    2.7725    0.0015    1.2695 C   0  0  0  0  0  0  0  0  0  0  0  0
    3.2643   -1.1535    0.6447 C   0  0  0  0  0  0  0  0  0  0  0  0
    4.4916   -1.1754   -0.0192 C   0  0  0  0  0  0  0  0  0  0  0  0
    5.2817   -0.0126   -0.0761 C   0  0  0  0  0  0  0  0  0  0  0  0
    6.5304    0.0117   -0.7539 N   0  0  0  0  0  0  0  0  0  0  0  0
    7.2688    1.2630   -0.9424 C   0  0  0  0  0  0  0  0  0  0  0  0
    8.4154    0.8998   -1.9119 C   0  0  2  0  0  0  0  0  0  0  0  0
    8.1029    1.1831   -3.3865 C   0  0  0  0  0  0  0  0  0  0  0  0
    8.8835    1.7858   -4.0956 O   0  0  0  0  0  0  0  0  0  0  0  0
    6.9001    0.6796   -3.8411 N   0  0  0  0  0  0  0  0  0  0  0  0
    6.3585    0.8820   -5.1176 C   0  0  0  0  0  0  0  0  0  0  0  0
    5.0622    1.0979   -5.1959 N   0  0  0  0  0  0  0  0  0  0  0  0
    4.7783    1.1792   -6.5360 O   0  0  0  0  0  0  0  0  0  0  0  0
    5.9114    1.0184   -7.2369 C   0  0  0  0  0  0  0  0  0  0  0  0
    6.9816    0.8125   -6.4130 C   0  0  0  0  0  0  0  0  0  0  0  0
    8.4007    0.5305   -6.7943 C   0  0  0  0  0  0  0  0  0  0  0  0
    8.6352   -0.5971   -1.6271 C   0  0  0  0  0  0  0  0  0  0  0  0
    7.3000   -1.1026   -1.0884 C   0  0  0  0  0  0  0  0  0  0  0  0
    6.9827   -2.2652   -0.9680 O   0  0  0  0  0  0  0  0  0  0  0  0
    4.8016    1.1539    0.5490 C   0  0  0  0  0  0  0  0  0  0  0  0
    3.5705    1.1528    1.2047 C   0  0  0  0  0  0  0  0  0  0  0  0
    0.9250   -0.9503    1.8914 H   0  0  0  0  0  0  0  0  0  0  0  0
    0.7783    0.7968    1.5878 H   0  0  0  0  0  0  0  0  0  0  0  0
    1.5718    0.2197    3.0641 H   0  0  0  0  0  0  0  0  0  0  0  0
    2.6706   -2.0717    0.6717 H   0  0  0  0  0  0  0  0  0  0  0  0
    4.8476   -2.0907   -0.4847 H   0  0  0  0  0  0  0  0  0  0  0  0
    7.6734    1.6316    0.0179 H   0  0  0  0  0  0  0  0  0  0  0  0
    6.6100    2.0492   -1.3426 H   0  0  0  0  0  0  0  0  0  0  0  0
    9.3104    1.4986   -1.7047 H   0  0  0  0  0  0  0  0  0  0  0  0
    6.2256    0.3542   -3.1525 H   0  0  0  0  0  0  0  0  0  0  0  0
    5.8157    1.0590   -8.3208 H   0  0  0  0  0  0  0  0  0  0  0  0
    8.4981    0.4512   -7.8871 H   0  0  0  0  0  0  0  0  0  0  0  0
    8.7461   -0.4199   -6.3549 H   0  0  0  0  0  0  0  0  0  0  0  0
    9.0728    1.3162   -6.4229 H   0  0  0  0  0  0  0  0  0  0  0  0
    9.3932   -0.7469   -0.8394 H   0  0  0  0  0  0  0  0  0  0  0  0
    8.9479   -1.1950   -2.4945 H   0  0  0  0  0  0  0  0  0  0  0  0
    5.3832    2.0758    0.5363 H   0  0  0  0  0  0  0  0  0  0  0  0
    3.2263    2.0768    1.6787 H   0  0  0  0  0  0  0  0  0  0  0  0
  1  2  1  0
  1 23  1  0
  1 24  1  0
  1 25  1  0
  2  3  2  0
  2 22  1  0
  3  4  1  0
  3 26  1  0
  4  5  2  0
  4 27  1  0
  5  6  1  0
  5 21  1  0
  6  7  1  0
  6 19  1  0
  7  8  1  0
  7 28  1  0
  7 29  1  0
  8  9  1  0
  8 18  1  0
  8 30  1  1
  9 10  2  0
  9 11  1  0
 11 12  1  0
 11 31  1  0
 12 13  2  0
 12 16  1  0
 13 14  1  0
 14 15  1  0
 15 16  2  0
 15 32  1  0
 16 17  1  0
 17 33  1  0
 17 34  1  0
 17 35  1  0
 18 19  1  0
 18 36  1  0
 18 37  1  0
 19 20  2  0
 21 22  2  0
 21 38  1  0
 22 39  1  0
M  END

