
     RDKit          3D

 48 50  0  0  0  0  0  0  0  0999 V2000
    0.5582   -1.3198    2.1679 C   0  0  0  0  0  0  0  0  0  0  0  0
    2.0530   -1.5127    2.3204 C   0  0  0  0  0  0  0  0  0  0  0  0
    2.7019   -0.4097    1.6666 O   0  0  0  0  0  0  0  0  0  0  0  0
    4.0840   -0.3596    1.7198 C   0  0  2  0  0  0  0  0  0  0  0  0
    4.6489   -1.4156    0.9211 N   0  0  0  0  0  0  0  0  0  0  0  0
    5.9548   -1.7823    0.9961 C   0  0  0  0  0  0  0  0  0  0  0  0
    6.7639   -1.2218    1.7167 O   0  0  0  0  0  0  0  0  0  0  0  0
    6.4167   -2.9409    0.1024 C   0  0  0  0  0  0  0  0  0  0  0  0
    5.3973   -3.7473   -0.6331 C   0  0  0  0  0  0  0  0  0  0  0  0
    4.1447   -3.4869   -0.8676 N   0  0  0  0  0  0  0  0  0  0  0  0
    3.6798   -4.5542   -1.6197 C   0  0  0  0  0  0  0  0  0  0  0  0
    4.7046   -5.4264   -1.8077 C   0  0  0  0  0  0  0  0  0  0  0  0
    5.8036   -4.9150   -1.1783 O   0  0  0  0  0  0  0  0  0  0  0  0
    4.6607   -0.1547    3.1583 C   0  0  0  0  0  0  0  0  0  0  0  0
    4.6529   -0.7974    4.1905 O   0  0  0  0  0  0  0  0  0  0  0  0
    5.0567    1.1235    2.8736 N   0  0  0  0  0  0  0  0  0  0  0  0
    5.4981    2.2593    3.5806 C   0  0  0  0  0  0  0  0  0  0  0  0
    6.2762    2.0490    4.8814 C   0  0  0  0  0  0  0  0  0  0  0  0
    7.0368    2.8900    5.2958 O   0  0  0  0  0  0  0  0  0  0  0  0
    6.0871    0.9210    5.5495 O   0  0  0  0  0  0  0  0  0  0  0  0
    5.2718    3.4902    3.0413 C   0  0  0  0  0  0  0  0  0  0  0  0
    5.7742    4.7723    3.6826 C   0  0  0  0  0  0  0  0  0  0  0  0
    5.0217    5.1405    4.8573 O   0  0  0  0  0  0  0  0  0  0  0  0
    3.8675    5.8103    4.6909 C   0  0  0  0  0  0  0  0  0  0  0  0
    3.2486    6.1546    6.0227 C   0  0  0  0  0  0  0  0  0  0  0  0
    3.4010    6.0947    3.6119 O   0  0  0  0  0  0  0  0  0  0  0  0
    4.5121    3.7298    1.7496 C   0  0  0  0  0  0  0  0  0  0  0  0
    3.3847    2.4071    1.1729 S   0  0  0  0  0  0  0  0  0  0  0  0
    4.6088    1.1009    1.4796 C   0  0  2  0  0  0  0  0  0  0  0  0
    5.4521    1.1616    0.7758 H   0  0  0  0  0  0  0  0  0  0  0  0
    0.0189   -2.1452    2.6580 H   0  0  0  0  0  0  0  0  0  0  0  0
    0.2727   -1.2985    1.1049 H   0  0  0  0  0  0  0  0  0  0  0  0
    0.2404   -0.3720    2.6282 H   0  0  0  0  0  0  0  0  0  0  0  0
    2.3787   -2.4628    1.8600 H   0  0  0  0  0  0  0  0  0  0  0  0
    2.3488   -1.5392    3.3820 H   0  0  0  0  0  0  0  0  0  0  0  0
    4.0372   -1.8990    0.2535 H   0  0  0  0  0  0  0  0  0  0  0  0
    7.0205   -3.6041    0.7412 H   0  0  0  0  0  0  0  0  0  0  0  0
    7.1332   -2.5091   -0.6193 H   0  0  0  0  0  0  0  0  0  0  0  0
    2.6508   -4.6162   -1.9671 H   0  0  0  0  0  0  0  0  0  0  0  0
    4.8217   -6.3792   -2.3148 H   0  0  0  0  0  0  0  0  0  0  0  0
    5.4886    0.2457    5.1327 H   0  0  0  0  0  0  0  0  0  0  0  0
    5.7093    5.5926    2.9534 H   0  0  0  0  0  0  0  0  0  0  0  0
    6.7984    4.6508    4.0413 H   0  0  0  0  0  0  0  0  0  0  0  0
    3.9531    6.7531    6.6201 H   0  0  0  0  0  0  0  0  0  0  0  0
    3.0492    5.2318    6.5887 H   0  0  0  0  0  0  0  0  0  0  0  0
    2.3167    6.7099    5.8641 H   0  0  0  0  0  0  0  0  0  0  0  0
    5.2295    3.9882    0.9487 H   0  0  0  0  0  0  0  0  0  0  0  0
    3.8708    4.6119    1.8963 H   0  0  0  0  0  0  0  0  0  0  0  0
  1  2  1  0
  1 31  1  0
  1 32  1  0
  1 33  1  0
  2  3  1  0
  2 34  1  0
  2 35  1  0
  4  3  1  1
  4  5  1  0
  4 14  1  0
  4 29  1  0
  5  6  1  0
  5 36  1  0
  6  7  2  0
  6  8  1  0
  8  9  1  0
  8 37  1  0
  8 38  1  0
  9 10  2  0
  9 13  1  0
 10 11  1  0
 11 12  2  0
 11 39  1  0
 12 13  1  0
 12 40  1  0
 14 15  2  0
 14 16  1  0
 16 17  1  0
 16 29  1  0
 17 18  1  0
 17 21  2  0
 18 19  2  0
 18 20  1  0
 20 41  1  0
 21 22  1  0
 21 27  1  0
 22 23  1  0
 22 42  1  0
 22 43  1  0
 23 24  1  0
 24 25  1  0
 24 26  2  0
 25 44  1  0
 25 45  1  0
 25 46  1  0
 27 28  1  0
 27 47  1  0
 27 48  1  0
 28 29  1  0
 29 30  1  6
M  END

