
     RDKit          3D

 48 53  0  0  0  0  0  0  0  0999 V2000
    4.5041    0.2492    0.5493 C   0  0  0  0  0  0  0  0  0  0  0  0
    3.8110   -0.4847   -0.3257 C   0  0  0  0  0  0  0  0  0  0  0  0
    3.8464   -1.9901   -0.4552 C   0  0  2  0  0  0  0  0  0  0  0  0
    2.9000   -2.3737   -1.5328 N   0  0  0  0  0  0  0  0  0  0  0  0
    2.8003   -3.5854   -1.7807 N   0  0  0  0  0  0  0  0  0  0  0  0
    3.6397   -4.5026   -0.9694 C   0  0  2  0  0  0  0  0  0  0  0  0
    3.3628   -5.9134   -1.4358 C   0  0  0  0  0  0  0  0  0  0  0  0
    3.9131   -7.0286   -0.9479 C   0  0  0  0  0  0  0  0  0  0  0  0
    3.3056   -4.2668    0.5417 C   0  0  2  0  0  0  0  0  0  0  0  0
    1.8794   -4.6124    1.0483 C   0  0  1  0  0  0  0  0  0  0  0  0
    1.9427   -4.5763    2.5961 C   0  0  0  0  0  0  0  0  0  0  0  0
    2.0685   -3.0479    2.9087 C   0  0  0  0  0  0  0  0  0  0  0  0
    2.0614   -2.4014    1.5006 C   0  0  2  0  0  0  0  0  0  0  0  0
    1.0661   -3.3294    0.7707 C   0  0  0  0  0  0  0  0  0  0  0  0
    3.4312   -2.7411    0.8538 C   0  0  2  0  0  0  0  0  0  0  0  0
    5.1364   -4.0741   -1.1363 C   0  0  1  0  0  0  0  0  0  0  0  0
    5.7921   -4.2007   -2.5378 C   0  0  2  0  0  0  0  0  0  0  0  0
    5.5270   -5.1254   -3.0682 H   0  0  0  0  0  0  0  0  0  0  0  0
    7.3155   -4.0107   -2.3283 C   0  0  0  0  0  0  0  0  0  0  0  0
    7.4410   -2.4822   -2.0157 C   0  0  0  0  0  0  0  0  0  0  0  0
    5.9736   -1.9897   -2.0856 C   0  0  1  0  0  0  0  0  0  0  0  0
    5.8736   -0.9022   -2.2046 H   0  0  0  0  0  0  0  0  0  0  0  0
    5.4367   -2.8696   -3.2353 C   0  0  0  0  0  0  0  0  0  0  0  0
    5.2618   -2.5486   -0.8242 C   0  0  1  0  0  0  0  0  0  0  0  0
    5.8915   -2.3668    0.0600 H   0  0  0  0  0  0  0  0  0  0  0  0
    4.4152    1.3387    0.5673 H   0  0  0  0  0  0  0  0  0  0  0  0
    5.1855   -0.1967    1.2814 H   0  0  0  0  0  0  0  0  0  0  0  0
    3.1395    0.0049   -1.0400 H   0  0  0  0  0  0  0  0  0  0  0  0
    2.6358   -5.9739   -2.2534 H   0  0  0  0  0  0  0  0  0  0  0  0
    4.6429   -7.0159   -0.1317 H   0  0  0  0  0  0  0  0  0  0  0  0
    3.6509   -8.0104   -1.3515 H   0  0  0  0  0  0  0  0  0  0  0  0
    4.0451   -4.8565    1.1046 H   0  0  0  0  0  0  0  0  0  0  0  0
    1.4805   -5.5509    0.6402 H   0  0  0  0  0  0  0  0  0  0  0  0
    2.7843   -5.1651    2.9936 H   0  0  0  0  0  0  0  0  0  0  0  0
    1.0218   -4.9975    3.0283 H   0  0  0  0  0  0  0  0  0  0  0  0
    2.9789   -2.8010    3.4773 H   0  0  0  0  0  0  0  0  0  0  0  0
    1.2117   -2.6898    3.5002 H   0  0  0  0  0  0  0  0  0  0  0  0
    1.8281   -1.3280    1.5040 H   0  0  0  0  0  0  0  0  0  0  0  0
    0.9105   -3.0999   -0.2882 H   0  0  0  0  0  0  0  0  0  0  0  0
    0.0816   -3.3497    1.2660 H   0  0  0  0  0  0  0  0  0  0  0  0
    4.2356   -2.5420    1.5783 H   0  0  0  0  0  0  0  0  0  0  0  0
    5.7011   -4.6825   -0.4135 H   0  0  0  0  0  0  0  0  0  0  0  0
    7.8655   -4.2771   -3.2442 H   0  0  0  0  0  0  0  0  0  0  0  0
    7.7086   -4.6465   -1.5194 H   0  0  0  0  0  0  0  0  0  0  0  0
    8.0550   -1.9693   -2.7722 H   0  0  0  0  0  0  0  0  0  0  0  0
    7.9025   -2.2823   -1.0359 H   0  0  0  0  0  0  0  0  0  0  0  0
    6.0089   -2.7261   -4.1666 H   0  0  0  0  0  0  0  0  0  0  0  0
    4.3745   -2.7358   -3.4638 H   0  0  0  0  0  0  0  0  0  0  0  0
  1  2  2  0
  1 26  1  0
  1 27  1  0
  3  2  1  1
  2 28  1  0
  3  4  1  0
  3 15  1  0
  3 24  1  0
  4  5  2  0
  5  6  1  0
  6  7  1  6
  6  9  1  0
  6 16  1  0
  7  8  2  0
  7 29  1  0
  8 30  1  0
  8 31  1  0
  9 10  1  0
  9 15  1  0
  9 32  1  1
 10 11  1  0
 10 14  1  0
 10 33  1  1
 11 12  1  0
 11 34  1  0
 11 35  1  0
 12 13  1  0
 12 36  1  0
 12 37  1  0
 13 14  1  0
 13 15  1  0
 13 38  1  1
 14 39  1  0
 14 40  1  0
 15 41  1  1
 16 17  1  0
 16 24  1  0
 16 42  1  1
 17 18  1  6
 17 19  1  0
 17 23  1  0
 19 20  1  0
 19 43  1  0
 19 44  1  0
 20 21  1  0
 20 45  1  0
 20 46  1  0
 21 22  1  6
 21 23  1  0
 21 24  1  0
 23 47  1  0
 23 48  1  0
 24 25  1  1
M  END

