
     RDKit          3D

 79 80  0  0  0  0  0  0  0  0999 V2000
    5.9607    5.0694    8.8421 C   0  0  0  0  0  0  0  0  0  0  0  0
    5.1354    3.8023    8.6897 C   0  0  0  0  0  0  0  0  0  0  0  0
    5.9381    2.6926    8.2478 O   0  0  0  0  0  0  0  0  0  0  0  0
    6.1237    2.5459    6.9214 C   0  0  0  0  0  0  0  0  0  0  0  0
    5.6548    3.2884    6.0914 O   0  0  0  0  0  0  0  0  0  0  0  0
    6.9923    1.3442    6.6216 C   0  0  0  0  0  0  0  0  0  0  0  0
    7.1154    1.0639    5.1209 C   0  0  0  0  0  0  0  0  0  0  0  0
    8.0147   -0.0354    4.8196 N   0  0  0  0  0  0  0  0  0  0  0  0
    7.6485   -1.3270    5.0087 C   0  0  0  0  0  0  0  0  0  0  0  0
    6.5536   -1.6604    5.4436 O   0  0  0  0  0  0  0  0  0  0  0  0
    8.7082   -2.4007    4.6589 C   0  0  1  0  0  0  0  0  0  0  0  0
    8.9738   -2.6121    3.1710 C   0  0  0  0  0  0  0  0  0  0  0  0
    8.4535   -1.7885    2.1652 C   0  0  0  0  0  0  0  0  0  0  0  0
    8.7082   -2.0331    0.8129 C   0  0  0  0  0  0  0  0  0  0  0  0
    9.5100   -3.1166    0.4486 C   0  0  0  0  0  0  0  0  0  0  0  0
   10.0346   -3.9597    1.4290 C   0  0  0  0  0  0  0  0  0  0  0  0
    9.7598   -3.7253    2.7858 C   0  0  0  0  0  0  0  0  0  0  0  0
   10.2301   -4.5455    3.7548 O   0  0  0  0  0  0  0  0  0  0  0  0
    9.9626   -2.2579    5.4586 N   0  0  0  0  0  0  0  0  0  0  0  0
   10.9500   -1.4166    5.0432 C   0  0  0  0  0  0  0  0  0  0  0  0
   10.7392   -0.4632    4.2912 O   0  0  0  0  0  0  0  0  0  0  0  0
   12.4085   -1.7313    5.4146 C   0  0  1  0  0  0  0  0  0  0  0  0
   12.9837   -2.7083    4.3332 C   0  0  0  0  0  0  0  0  0  0  0  0
   13.3077   -4.1038    4.8929 C   0  0  0  0  0  0  0  0  0  0  0  0
   13.5494   -5.1179    3.7873 C   0  0  0  0  0  0  0  0  0  0  0  0
   14.8348   -5.4731    3.5632 N   0  0  0  0  0  0  0  0  0  0  0  0
   12.6299   -5.5827    3.1105 O   0  0  0  0  0  0  0  0  0  0  0  0
   13.1152   -0.4715    5.4805 N   0  0  0  0  0  0  0  0  0  0  0  0
   14.3728   -0.4017    5.9933 C   0  0  0  0  0  0  0  0  0  0  0  0
   14.9559   -1.3537    6.4877 O   0  0  0  0  0  0  0  0  0  0  0  0
   14.8561    0.8521    5.8781 O   0  0  0  0  0  0  0  0  0  0  0  0
   16.1844    1.2230    6.3694 C   0  0  1  0  0  0  0  0  0  0  0  0
   17.2624    0.4278    5.6244 C   0  0  0  0  0  0  0  0  0  0  0  0
   16.2729    2.7104    6.0218 C   0  0  0  0  0  0  0  0  0  0  0  0
   16.2603    1.0144    7.8857 C   0  0  0  0  0  0  0  0  0  0  0  0
   10.1053   -3.1767    6.5654 C   0  0  1  0  0  0  0  0  0  0  0  0
   10.5099   -2.6784    7.9323 C   0  0  0  0  0  0  0  0  0  0  0  0
    9.0945   -3.1270    7.6891 C   0  0  2  0  0  0  0  0  0  0  0  0
    8.5536   -4.4075    8.2843 C   0  0  0  0  0  0  0  0  0  0  0  0
    5.3366    5.8768    9.2580 H   0  0  0  0  0  0  0  0  0  0  0  0
    6.3454    5.4039    7.8672 H   0  0  0  0  0  0  0  0  0  0  0  0
    6.8109    4.9066    9.5229 H   0  0  0  0  0  0  0  0  0  0  0  0
    4.3118    3.9542    7.9763 H   0  0  0  0  0  0  0  0  0  0  0  0
    4.7190    3.4794    9.6551 H   0  0  0  0  0  0  0  0  0  0  0  0
    6.5697    0.4683    7.1385 H   0  0  0  0  0  0  0  0  0  0  0  0
    7.9838    1.5216    7.0737 H   0  0  0  0  0  0  0  0  0  0  0  0
    7.4745    1.9619    4.5985 H   0  0  0  0  0  0  0  0  0  0  0  0
    6.1169    0.8326    4.7196 H   0  0  0  0  0  0  0  0  0  0  0  0
    8.9696    0.1365    4.4943 H   0  0  0  0  0  0  0  0  0  0  0  0
    8.2565   -3.3260    5.0364 H   0  0  0  0  0  0  0  0  0  0  0  0
    7.8446   -0.9279    2.4438 H   0  0  0  0  0  0  0  0  0  0  0  0
    8.2881   -1.3723    0.0514 H   0  0  0  0  0  0  0  0  0  0  0  0
    9.7268   -3.3140   -0.6047 H   0  0  0  0  0  0  0  0  0  0  0  0
   10.6581   -4.8158    1.1593 H   0  0  0  0  0  0  0  0  0  0  0  0
   11.0098   -5.0637    3.4333 H   0  0  0  0  0  0  0  0  0  0  0  0
   12.4842   -2.2153    6.3954 H   0  0  0  0  0  0  0  0  0  0  0  0
   13.9024   -2.2586    3.9290 H   0  0  0  0  0  0  0  0  0  0  0  0
   12.2848   -2.7944    3.4887 H   0  0  0  0  0  0  0  0  0  0  0  0
   12.4518   -4.4807    5.4703 H   0  0  0  0  0  0  0  0  0  0  0  0
   14.1670   -4.0273    5.5768 H   0  0  0  0  0  0  0  0  0  0  0  0
   15.5977   -5.0980    4.1109 H   0  0  0  0  0  0  0  0  0  0  0  0
   15.0371   -6.1296    2.8171 H   0  0  0  0  0  0  0  0  0  0  0  0
   12.7231    0.3066    4.9582 H   0  0  0  0  0  0  0  0  0  0  0  0
   17.1549    0.5642    4.5367 H   0  0  0  0  0  0  0  0  0  0  0  0
   17.1927   -0.6422    5.8573 H   0  0  0  0  0  0  0  0  0  0  0  0
   18.2607    0.7902    5.9159 H   0  0  0  0  0  0  0  0  0  0  0  0
   16.1736    2.8610    4.9362 H   0  0  0  0  0  0  0  0  0  0  0  0
   17.2413    3.1214    6.3450 H   0  0  0  0  0  0  0  0  0  0  0  0
   15.4698    3.2726    6.5218 H   0  0  0  0  0  0  0  0  0  0  0  0
   16.1724   -0.0491    8.1416 H   0  0  0  0  0  0  0  0  0  0  0  0
   15.4523    1.5687    8.3886 H   0  0  0  0  0  0  0  0  0  0  0  0
   17.2217    1.3933    8.2664 H   0  0  0  0  0  0  0  0  0  0  0  0
   10.4286   -4.1809    6.2697 H   0  0  0  0  0  0  0  0  0  0  0  0
   10.6935   -1.6071    8.0500 H   0  0  0  0  0  0  0  0  0  0  0  0
   11.1728   -3.3166    8.5249 H   0  0  0  0  0  0  0  0  0  0  0  0
    8.3584   -2.3207    7.6071 H   0  0  0  0  0  0  0  0  0  0  0  0
    9.3218   -5.1975    8.3058 H   0  0  0  0  0  0  0  0  0  0  0  0
    7.6970   -4.7837    7.7020 H   0  0  0  0  0  0  0  0  0  0  0  0
    8.2111   -4.2474    9.3198 H   0  0  0  0  0  0  0  0  0  0  0  0
  1  2  1  0
  1 40  1  0
  1 41  1  0
  1 42  1  0
  2  3  1  0
  2 43  1  0
  2 44  1  0
  3  4  1  0
  4  5  2  0
  4  6  1  0
  6  7  1  0
  6 45  1  0
  6 46  1  0
  7  8  1  0
  7 47  1  0
  7 48  1  0
  8  9  1  0
  8 49  1  0
  9 10  2  0
  9 11  1  0
 11 12  1  0
 11 19  1  0
 11 50  1  1
 12 13  2  0
 12 17  1  0
 13 14  1  0
 13 51  1  0
 14 15  2  0
 14 52  1  0
 15 16  1  0
 15 53  1  0
 16 17  2  0
 16 54  1  0
 17 18  1  0
 18 55  1  0
 19 20  1  0
 19 36  1  0
 20 21  2  0
 20 22  1  0
 22 23  1  0
 22 28  1  0
 22 56  1  1
 23 24  1  0
 23 57  1  0
 23 58  1  0
 24 25  1  0
 24 59  1  0
 24 60  1  0
 25 26  1  0
 25 27  2  0
 26 61  1  0
 26 62  1  0
 28 29  1  0
 28 63  1  0
 29 30  2  0
 29 31  1  0
 32 31  1  6
 32 33  1  0
 32 34  1  0
 32 35  1  0
 33 64  1  0
 33 65  1  0
 33 66  1  0
 34 67  1  0
 34 68  1  0
 34 69  1  0
 35 70  1  0
 35 71  1  0
 35 72  1  0
 36 37  1  0
 36 38  1  0
 36 73  1  6
 37 38  1  0
 37 74  1  0
 37 75  1  0
 38 39  1  0
 38 76  1  6
 39 77  1  0
 39 78  1  0
 39 79  1  0
M  END

