
     RDKit          3D

 26 27  0  0  0  0  0  0  0  0999 V2000
    1.2997    0.5190    0.4971 N   0  0  0  0  0  0  0  0  0  0  0  0
    2.5840    0.0730   -0.0375 C   0  0  1  0  0  0  0  0  0  0  0  0
    3.0308   -1.3177    0.4340 C   0  0  0  0  0  0  0  0  0  0  0  0
    4.0775   -1.4524    1.3544 C   0  0  0  0  0  0  0  0  0  0  0  0
    4.4563   -2.7078    1.8398 C   0  0  0  0  0  0  0  0  0  0  0  0
    3.7772   -3.8353    1.3964 C   0  0  0  0  0  0  0  0  0  0  0  0
    4.1367   -5.0367    1.8584 F   0  0  0  0  0  0  0  0  0  0  0  0
    2.7257   -3.7369    0.4733 C   0  0  0  0  0  0  0  0  0  0  0  0
    2.0130   -4.9847    0.0054 C   0  0  1  0  0  0  0  0  0  0  0  0
    2.8551   -5.8390   -0.5989 F   0  0  0  0  0  0  0  0  0  0  0  0
    1.4461   -5.6425    1.0310 F   0  0  0  0  0  0  0  0  0  0  0  0
    1.0381   -4.6947   -0.8716 F   0  0  0  0  0  0  0  0  0  0  0  0
    2.3633   -2.4747    0.0001 C   0  0  0  0  0  0  0  0  0  0  0  0
    2.5119    0.1516   -1.5393 C   0  0  0  0  0  0  0  0  0  0  0  0
    1.5316   -0.3227   -2.2883 N   0  0  0  0  0  0  0  0  0  0  0  0
    1.9352   -0.0332   -3.5565 C   0  0  0  0  0  0  0  0  0  0  0  0
    3.0992    0.5878   -3.6382 N   0  0  0  0  0  0  0  0  0  0  0  0
    3.4543    0.6979   -2.3418 N   0  0  0  0  0  0  0  0  0  0  0  0
    4.3229    1.1544   -2.0861 H   0  0  0  0  0  0  0  0  0  0  0  0
    1.2112    0.2556    1.4778 H   0  0  0  0  0  0  0  0  0  0  0  0
    0.5419    0.0645   -0.0143 H   0  0  0  0  0  0  0  0  0  0  0  0
    3.3627    0.7838    0.2939 H   0  0  0  0  0  0  0  0  0  0  0  0
    4.6108   -0.5638    1.7048 H   0  0  0  0  0  0  0  0  0  0  0  0
    5.2700   -2.8275    2.5574 H   0  0  0  0  0  0  0  0  0  0  0  0
    1.5576   -2.3905   -0.7315 H   0  0  0  0  0  0  0  0  0  0  0  0
    1.3551   -0.2855   -4.4436 H   0  0  0  0  0  0  0  0  0  0  0  0
  1  2  1  0
  1 20  1  0
  1 21  1  0
  2  3  1  0
  2 14  1  0
  2 22  1  1
  3  4  2  0
  3 13  1  0
  4  5  1  0
  4 23  1  0
  5  6  2  0
  5 24  1  0
  6  7  1  0
  6  8  1  0
  8  9  1  0
  8 13  2  0
  9 10  1  6
  9 11  1  0
  9 12  1  0
 13 25  1  0
 14 15  2  0
 14 18  1  0
 15 16  1  0
 16 17  2  0
 16 26  1  0
 17 18  1  0
 18 19  1  0
M  END

