
     RDKit          3D

 40 42  0  0  0  0  0  0  0  0999 V2000
    3.3240   -0.0137   -1.1260 C   0  0  0  0  0  0  0  0  0  0  0  0
    2.2076    0.2113   -0.0937 C   0  0  0  0  0  0  0  0  0  0  0  0
    2.6908    0.3079    1.3270 C   0  0  0  0  0  0  0  0  0  0  0  0
    2.7779    1.4325    2.1240 C   0  0  0  0  0  0  0  0  0  0  0  0
    3.3104    1.1740    3.4126 C   0  0  0  0  0  0  0  0  0  0  0  0
    3.6362   -0.1537    3.6103 C   0  0  0  0  0  0  0  0  0  0  0  0
    4.2046   -0.7138    4.8554 C   0  0  0  0  0  0  0  0  0  0  0  0
    4.4295   -0.0014    5.8156 O   0  0  0  0  0  0  0  0  0  0  0  0
    4.4930   -2.2071    4.8834 C   0  0  0  0  0  0  0  0  0  0  0  0
    5.1880   -2.6688    6.5067 S   0  0  0  0  0  0  0  0  0  0  0  0
    5.3999   -4.3909    6.2057 C   0  0  0  0  0  0  0  0  0  0  0  0
    5.0926   -5.0081    5.0691 N   0  0  0  0  0  0  0  0  0  0  0  0
    5.4359   -6.2886    5.3434 N   0  0  0  0  0  0  0  0  0  0  0  0
    5.3052   -7.0048    4.6401 H   0  0  0  0  0  0  0  0  0  0  0  0
    5.9261   -6.3981    6.6050 C   0  0  0  0  0  0  0  0  0  0  0  0
    6.3927   -7.6396    7.2318 C   0  0  0  0  0  0  0  0  0  0  0  0
    6.3864   -8.8742    6.5631 C   0  0  0  0  0  0  0  0  0  0  0  0
    6.8394  -10.0305    7.2005 C   0  0  0  0  0  0  0  0  0  0  0  0
    7.3126   -9.9954    8.5204 C   0  0  0  0  0  0  0  0  0  0  0  0
    7.8076  -11.2400    9.2142 C   0  0  0  0  0  0  0  0  0  0  0  0
    7.3156   -8.7545    9.1832 C   0  0  0  0  0  0  0  0  0  0  0  0
    6.8660   -7.5967    8.5563 C   0  0  0  0  0  0  0  0  0  0  0  0
    5.9116   -5.1983    7.1719 N   0  0  0  0  0  0  0  0  0  0  0  0
    3.2754   -1.0912    2.1788 S   0  0  0  0  0  0  0  0  0  0  0  0
    2.9066   -0.0641   -2.1442 H   0  0  0  0  0  0  0  0  0  0  0  0
    3.8623   -0.9553   -0.9342 H   0  0  0  0  0  0  0  0  0  0  0  0
    4.0607    0.8042   -1.0972 H   0  0  0  0  0  0  0  0  0  0  0  0
    1.4635   -0.5998   -0.1775 H   0  0  0  0  0  0  0  0  0  0  0  0
    1.6702    1.1453   -0.3257 H   0  0  0  0  0  0  0  0  0  0  0  0
    2.4600    2.4193    1.7818 H   0  0  0  0  0  0  0  0  0  0  0  0
    3.4609    1.9184    4.1952 H   0  0  0  0  0  0  0  0  0  0  0  0
    5.1960   -2.4785    4.0789 H   0  0  0  0  0  0  0  0  0  0  0  0
    3.5710   -2.7793    4.6890 H   0  0  0  0  0  0  0  0  0  0  0  0
    6.0276   -8.9511    5.5331 H   0  0  0  0  0  0  0  0  0  0  0  0
    6.8244  -10.9804    6.6591 H   0  0  0  0  0  0  0  0  0  0  0  0
    7.7007  -12.1304    8.5774 H   0  0  0  0  0  0  0  0  0  0  0  0
    7.2527  -11.4236   10.1492 H   0  0  0  0  0  0  0  0  0  0  0  0
    8.8724  -11.1471    9.4874 H   0  0  0  0  0  0  0  0  0  0  0  0
    7.6786   -8.6974   10.2136 H   0  0  0  0  0  0  0  0  0  0  0  0
    6.8704   -6.6368    9.0754 H   0  0  0  0  0  0  0  0  0  0  0  0
  1  2  1  0
  1 25  1  0
  1 26  1  0
  1 27  1  0
  2  3  1  0
  2 28  1  0
  2 29  1  0
  3  4  2  0
  3 24  1  0
  4  5  1  0
  4 30  1  0
  5  6  2  0
  5 31  1  0
  6  7  1  0
  6 24  1  0
  7  8  2  0
  7  9  1  0
  9 10  1  0
  9 32  1  0
  9 33  1  0
 10 11  1  0
 11 12  2  0
 11 23  1  0
 12 13  1  0
 13 14  1  0
 13 15  1  0
 15 16  1  0
 15 23  2  0
 16 17  2  0
 16 22  1  0
 17 18  1  0
 17 34  1  0
 18 19  2  0
 18 35  1  0
 19 20  1  0
 19 21  1  0
 20 36  1  0
 20 37  1  0
 20 38  1  0
 21 22  2  0
 21 39  1  0
 22 40  1  0
M  END

