
     RDKit          3D

 90 91  0  0  0  0  0  0  0  0999 V2000
   -4.0303    0.6364   -9.2035 C   0  0  0  0  0  0  0  0  0  0  0  0
   -2.9527   -0.1411   -9.9655 C   0  0  0  0  0  0  0  0  0  0  0  0
   -2.3116    0.6724  -11.1048 C   0  0  1  0  0  0  0  0  0  0  0  0
   -2.3943    1.7411  -10.8493 H   0  0  0  0  0  0  0  0  0  0  0  0
   -0.9067    0.3694  -11.2816 O   0  0  0  0  0  0  0  0  0  0  0  0
    0.0066    0.5360  -10.2884 C   0  0  0  0  0  0  0  0  0  0  0  0
   -0.2064    1.1404   -9.2684 O   0  0  0  0  0  0  0  0  0  0  0  0
    1.2040   -0.2919  -10.6643 C   0  0  0  0  0  0  0  0  0  0  0  0
    1.7288   -0.1085  -12.0677 C   0  0  0  0  0  0  0  0  0  0  0  0
    1.4966   -1.2700   -9.7832 C   0  0  0  0  0  0  0  0  0  0  0  0
    2.2797   -2.5525  -10.0241 C   0  0  2  0  0  0  0  0  0  0  0  0
    2.2139   -3.1532   -9.1025 H   0  0  0  0  0  0  0  0  0  0  0  0
    3.7741   -2.2687  -10.2742 C   0  0  0  0  0  0  0  0  0  0  0  0
    1.5952   -3.3627  -11.1875 C   0  0  1  0  0  0  0  0  0  0  0  0
    1.3298   -2.6120  -11.9424 H   0  0  0  0  0  0  0  0  0  0  0  0
    2.5462   -4.1571  -11.9207 O   0  0  0  0  0  0  0  0  0  0  0  0
    2.9525   -5.4844  -11.7993 C   0  0  2  0  0  0  0  0  0  0  0  0
    3.8723   -5.5187  -12.4282 H   0  0  0  0  0  0  0  0  0  0  0  0
    1.9905   -6.3112  -12.4141 O   0  0  0  0  0  0  0  0  0  0  0  0
    2.4026   -7.6611  -12.5415 C   0  0  2  0  0  0  0  0  0  0  0  0
    3.3993   -7.6851  -13.0365 H   0  0  0  0  0  0  0  0  0  0  0  0
    1.3995   -8.3737  -13.4361 C   0  0  0  0  0  0  0  0  0  0  0  0
    2.5241   -8.2802  -11.1548 C   0  0  0  0  0  0  0  0  0  0  0  0
    3.5275   -7.5248  -10.2656 C   0  0  2  0  0  0  0  0  0  0  0  0
    4.5510   -7.7668  -10.6573 H   0  0  0  0  0  0  0  0  0  0  0  0
    3.4047   -7.9623   -8.8673 N   0  0  0  0  0  0  0  0  0  0  0  0
    3.5323   -9.4012   -8.6985 C   0  0  0  0  0  0  0  0  0  0  0  0
    4.2637   -7.2740   -7.9118 C   0  0  0  0  0  0  0  0  0  0  0  0
    3.3854   -5.9796  -10.3896 C   0  0  1  0  0  0  0  0  0  0  0  0
    2.6344   -5.6468   -9.6670 H   0  0  0  0  0  0  0  0  0  0  0  0
    4.6064   -5.3395  -10.0411 O   0  0  0  0  0  0  0  0  0  0  0  0
    0.2236   -4.0711  -10.8649 C   0  0  2  0  0  0  0  0  0  0  0  0
   -0.7148   -3.1636  -10.0628 C   0  0  0  0  0  0  0  0  0  0  0  0
    0.5918   -5.1908  -10.0519 O   0  0  0  0  0  0  0  0  0  0  0  0
   -0.3828   -6.0676   -9.5485 C   0  0  0  0  0  0  0  0  0  0  0  0
   -0.4223   -4.5022  -12.2366 C   0  0  0  0  0  0  0  0  0  0  0  0
   -1.9335   -4.2925  -12.5928 C   0  0  1  0  0  0  0  0  0  0  0  0
   -1.9622   -4.5729  -13.6610 H   0  0  0  0  0  0  0  0  0  0  0  0
   -2.8948   -5.2535  -11.8812 C   0  0  0  0  0  0  0  0  0  0  0  0
   -2.5087   -2.8569  -12.5724 C   0  0  0  0  0  0  0  0  0  0  0  0
   -3.4348   -2.5951  -11.8229 O   0  0  0  0  0  0  0  0  0  0  0  0
   -2.0132   -1.8356  -13.5642 C   0  0  0  0  0  0  0  0  0  0  0  0
   -1.3140   -2.3593  -14.8084 C   0  0  0  0  0  0  0  0  0  0  0  0
   -2.2067   -0.4960  -13.4749 C   0  0  0  0  0  0  0  0  0  0  0  0
   -2.8818    0.5532  -12.5592 C   0  0  1  0  0  0  0  0  0  0  0  0
   -4.4042    0.4080  -12.6102 C   0  0  0  0  0  0  0  0  0  0  0  0
   -2.6162    1.8183  -13.1874 O   0  0  0  0  0  0  0  0  0  0  0  0
   -4.4328    0.0269   -8.3791 H   0  0  0  0  0  0  0  0  0  0  0  0
   -4.8792    0.9197   -9.8437 H   0  0  0  0  0  0  0  0  0  0  0  0
   -3.6149    1.5586   -8.7649 H   0  0  0  0  0  0  0  0  0  0  0  0
   -3.3524   -1.0858  -10.3496 H   0  0  0  0  0  0  0  0  0  0  0  0
   -2.1583   -0.3934   -9.2498 H   0  0  0  0  0  0  0  0  0  0  0  0
    2.5944   -0.7445  -12.2810 H   0  0  0  0  0  0  0  0  0  0  0  0
    2.0434    0.9391  -12.2159 H   0  0  0  0  0  0  0  0  0  0  0  0
    0.9473   -0.3150  -12.8157 H   0  0  0  0  0  0  0  0  0  0  0  0
    1.0051   -1.1850   -8.8096 H   0  0  0  0  0  0  0  0  0  0  0  0
    3.9493   -1.7766  -11.2413 H   0  0  0  0  0  0  0  0  0  0  0  0
    4.3511   -3.1989  -10.2527 H   0  0  0  0  0  0  0  0  0  0  0  0
    4.1545   -1.6009   -9.4851 H   0  0  0  0  0  0  0  0  0  0  0  0
    1.3187   -7.8592  -14.4051 H   0  0  0  0  0  0  0  0  0  0  0  0
    0.4027   -8.3868  -12.9671 H   0  0  0  0  0  0  0  0  0  0  0  0
    1.7091   -9.4146  -13.6170 H   0  0  0  0  0  0  0  0  0  0  0  0
    2.8261   -9.3331  -11.2581 H   0  0  0  0  0  0  0  0  0  0  0  0
    1.5317   -8.2640  -10.6750 H   0  0  0  0  0  0  0  0  0  0  0  0
    2.7432   -9.9488   -9.2314 H   0  0  0  0  0  0  0  0  0  0  0  0
    3.4331   -9.6502   -7.6312 H   0  0  0  0  0  0  0  0  0  0  0  0
    4.5169   -9.7988   -9.0416 H   0  0  0  0  0  0  0  0  0  0  0  0
    4.1021   -6.1914   -7.9258 H   0  0  0  0  0  0  0  0  0  0  0  0
    5.3490   -7.4470   -8.0955 H   0  0  0  0  0  0  0  0  0  0  0  0
    4.0331   -7.6433   -6.9003 H   0  0  0  0  0  0  0  0  0  0  0  0
    5.2964   -5.6395  -10.6497 H   0  0  0  0  0  0  0  0  0  0  0  0
   -0.8750   -2.2034  -10.5613 H   0  0  0  0  0  0  0  0  0  0  0  0
   -0.3089   -2.9752   -9.0607 H   0  0  0  0  0  0  0  0  0  0  0  0
   -1.6985   -3.6315   -9.9394 H   0  0  0  0  0  0  0  0  0  0  0  0
    0.1578   -6.8167   -8.9501 H   0  0  0  0  0  0  0  0  0  0  0  0
   -0.9328   -6.5948  -10.3482 H   0  0  0  0  0  0  0  0  0  0  0  0
   -1.1176   -5.5674   -8.8917 H   0  0  0  0  0  0  0  0  0  0  0  0
   -0.2185   -5.5726  -12.3596 H   0  0  0  0  0  0  0  0  0  0  0  0
    0.1785   -4.0395  -13.0303 H   0  0  0  0  0  0  0  0  0  0  0  0
   -2.5599   -6.2931  -12.0191 H   0  0  0  0  0  0  0  0  0  0  0  0
   -3.9105   -5.1636  -12.2936 H   0  0  0  0  0  0  0  0  0  0  0  0
   -2.9741   -5.0565  -10.8038 H   0  0  0  0  0  0  0  0  0  0  0  0
   -0.3791   -2.8920  -14.5766 H   0  0  0  0  0  0  0  0  0  0  0  0
   -1.9540   -3.0656  -15.3644 H   0  0  0  0  0  0  0  0  0  0  0  0
   -1.0646   -1.5347  -15.4905 H   0  0  0  0  0  0  0  0  0  0  0  0
   -1.8195    0.0506  -14.3424 H   0  0  0  0  0  0  0  0  0  0  0  0
   -4.7272    0.4582  -13.6604 H   0  0  0  0  0  0  0  0  0  0  0  0
   -4.8777    1.2451  -12.0767 H   0  0  0  0  0  0  0  0  0  0  0  0
   -4.7244   -0.5496  -12.1842 H   0  0  0  0  0  0  0  0  0  0  0  0
   -1.6671    1.9876  -13.1003 H   0  0  0  0  0  0  0  0  0  0  0  0
  1  2  1  0
  1 48  1  0
  1 49  1  0
  1 50  1  0
  2  3  1  0
  2 51  1  0
  2 52  1  0
  3  4  1  1
  3  5  1  0
  3 45  1  0
  5  6  1  0
  6  7  2  0
  6  8  1  0
  8  9  1  0
  8 10  2  0
  9 53  1  0
  9 54  1  0
  9 55  1  0
 10 11  1  0
 10 56  1  0
 11 12  1  1
 11 13  1  0
 11 14  1  0
 13 57  1  0
 13 58  1  0
 13 59  1  0
 14 15  1  6
 14 16  1  0
 14 32  1  0
 16 17  1  0
 17 18  1  6
 17 19  1  0
 17 29  1  0
 19 20  1  0
 20 21  1  6
 20 22  1  0
 20 23  1  0
 22 60  1  0
 22 61  1  0
 22 62  1  0
 23 24  1  0
 23 63  1  0
 23 64  1  0
 24 25  1  6
 24 26  1  0
 24 29  1  0
 26 27  1  0
 26 28  1  0
 27 65  1  0
 27 66  1  0
 27 67  1  0
 28 68  1  0
 28 69  1  0
 28 70  1  0
 29 30  1  1
 29 31  1  0
 31 71  1  0
 32 33  1  0
 32 34  1  1
 32 36  1  0
 33 72  1  0
 33 73  1  0
 33 74  1  0
 34 35  1  0
 35 75  1  0
 35 76  1  0
 35 77  1  0
 36 37  1  0
 36 78  1  0
 36 79  1  0
 37 38  1  6
 37 39  1  0
 37 40  1  0
 39 80  1  0
 39 81  1  0
 39 82  1  0
 40 41  2  0
 40 42  1  0
 42 43  1  0
 42 44  2  0
 43 83  1  0
 43 84  1  0
 43 85  1  0
 44 45  1  0
 44 86  1  0
 45 46  1  0
 45 47  1  6
 46 87  1  0
 46 88  1  0
 46 89  1  0
 47 90  1  0
M  END

