
     RDKit          3D

 34 35  0  0  0  0  0  0  0  0999 V2000
    1.1132    0.0339    0.4152 C   0  0  0  0  0  0  0  0  0  0  0  0
    2.3069    0.0534    0.2092 C   0  0  0  0  0  0  0  0  0  0  0  0
    3.7670    0.0483   -0.0254 C   0  0  1  0  0  0  0  0  0  0  0  0
    4.3771   -1.1671    0.7208 C   0  0  0  0  0  0  0  0  0  0  0  0
    4.0267   -0.0859   -1.5416 C   0  0  0  0  0  0  0  0  0  0  0  0
    4.2752    1.3493    0.4634 N   0  0  0  0  0  0  0  0  0  0  0  0
    5.7049    1.6381    0.3022 C   0  0  0  0  0  0  0  0  0  0  0  0
    6.1279    2.8305    1.0994 C   0  0  0  0  0  0  0  0  0  0  0  0
    6.9109    2.9194    2.2466 C   0  0  0  0  0  0  0  0  0  0  0  0
    7.5851    1.8155    3.0016 C   0  0  0  0  0  0  0  0  0  0  0  0
    7.0388    4.2239    2.6738 N   0  0  0  0  0  0  0  0  0  0  0  0
    6.3460    4.9197    1.8114 C   0  0  0  0  0  0  0  0  0  0  0  0
    5.9594    6.6142    1.6092 S   0  0  0  0  0  0  0  0  0  0  0  0
    5.0134    6.2031    0.1838 C   0  0  0  0  0  0  0  0  0  0  0  0
    5.0017    4.8750   -0.1080 C   0  0  0  0  0  0  0  0  0  0  0  0
    4.3023    4.2051   -1.2460 C   0  0  0  0  0  0  0  0  0  0  0  0
    5.7604    4.1532    0.8230 N   0  0  0  0  0  0  0  0  0  0  0  0
    0.0546    0.0253    0.5942 H   0  0  0  0  0  0  0  0  0  0  0  0
    3.9299   -2.1082    0.3666 H   0  0  0  0  0  0  0  0  0  0  0  0
    4.1916   -1.0889    1.8033 H   0  0  0  0  0  0  0  0  0  0  0  0
    5.4638   -1.2263    0.5544 H   0  0  0  0  0  0  0  0  0  0  0  0
    3.5459   -0.9960   -1.9283 H   0  0  0  0  0  0  0  0  0  0  0  0
    5.1045   -0.1592   -1.7521 H   0  0  0  0  0  0  0  0  0  0  0  0
    3.6180    0.7806   -2.0812 H   0  0  0  0  0  0  0  0  0  0  0  0
    4.0154    1.4640    1.4424 H   0  0  0  0  0  0  0  0  0  0  0  0
    5.9146    1.7998   -0.7684 H   0  0  0  0  0  0  0  0  0  0  0  0
    6.3607    0.8023    0.6141 H   0  0  0  0  0  0  0  0  0  0  0  0
    7.3772    0.8265    2.5692 H   0  0  0  0  0  0  0  0  0  0  0  0
    7.2535    1.8086    4.0527 H   0  0  0  0  0  0  0  0  0  0  0  0
    8.6776    1.9635    3.0134 H   0  0  0  0  0  0  0  0  0  0  0  0
    4.5053    6.9841   -0.3777 H   0  0  0  0  0  0  0  0  0  0  0  0
    3.6390    4.9188   -1.7534 H   0  0  0  0  0  0  0  0  0  0  0  0
    3.7156    3.3469   -0.8815 H   0  0  0  0  0  0  0  0  0  0  0  0
    5.0224    3.8236   -1.9900 H   0  0  0  0  0  0  0  0  0  0  0  0
  1  2  3  0
  1 18  1  0
  3  2  1  6
  3  4  1  0
  3  5  1  0
  3  6  1  0
  4 19  1  0
  4 20  1  0
  4 21  1  0
  5 22  1  0
  5 23  1  0
  5 24  1  0
  6  7  1  0
  6 25  1  0
  7  8  1  0
  7 26  1  0
  7 27  1  0
  8  9  2  0
  8 17  1  0
  9 10  1  0
  9 11  1  0
 10 28  1  0
 10 29  1  0
 10 30  1  0
 11 12  2  0
 12 13  1  0
 12 17  1  0
 13 14  1  0
 14 15  2  0
 14 31  1  0
 15 16  1  0
 15 17  1  0
 16 32  1  0
 16 33  1  0
 16 34  1  0
M  END

