
     RDKit          3D

 67 75  0  0  0  0  0  0  0  0999 V2000
    0.8320    0.0808    0.0922 F   0  0  0  0  0  0  0  0  0  0  0  0
    2.1570    0.0265    0.0931 C   0  0  0  0  0  0  0  0  0  0  0  0
    2.8548    1.2254   -0.0702 C   0  0  0  0  0  0  0  0  0  0  0  0
    2.1653    2.3467   -0.2416 F   0  0  0  0  0  0  0  0  0  0  0  0
    4.2563    1.2667   -0.0401 C   0  0  0  0  0  0  0  0  0  0  0  0
    4.9525    2.4749   -0.1891 N   0  0  0  0  0  0  0  0  0  0  0  0
    5.8843    2.7675   -1.1987 C   0  0  0  0  0  0  0  0  0  0  0  0
    6.3098    1.9786   -2.2713 C   0  0  0  0  0  0  0  0  0  0  0  0
    7.2428    2.5296   -3.1515 C   0  0  0  0  0  0  0  0  0  0  0  0
    7.7370    3.8344   -2.9721 C   0  0  0  0  0  0  0  0  0  0  0  0
    7.3006    4.6189   -1.9049 C   0  0  0  0  0  0  0  0  0  0  0  0
    6.3643    4.0883   -1.0065 C   0  0  0  0  0  0  0  0  0  0  0  0
    5.6975    4.6149    0.1712 C   0  0  0  0  0  0  0  0  0  0  0  0
    5.7667    5.8360    0.8562 C   0  0  0  0  0  0  0  0  0  0  0  0
    4.9832    6.0210    1.9950 C   0  0  0  0  0  0  0  0  0  0  0  0
    4.1368    4.9966    2.4566 C   0  0  0  0  0  0  0  0  0  0  0  0
    4.0503    3.7715    1.7926 C   0  0  0  0  0  0  0  0  0  0  0  0
    4.8323    3.5966    0.6473 C   0  0  0  0  0  0  0  0  0  0  0  0
    4.9274    0.0433    0.1294 C   0  0  0  0  0  0  0  0  0  0  0  0
    6.2575    0.0471    0.1492 F   0  0  0  0  0  0  0  0  0  0  0  0
    4.2551   -1.1763    0.2665 C   0  0  0  0  0  0  0  0  0  0  0  0
    5.0150   -2.3598    0.3803 N   0  0  0  0  0  0  0  0  0  0  0  0
    5.1034   -3.3632   -0.5924 C   0  0  0  0  0  0  0  0  0  0  0  0
    4.5024   -3.4304   -1.8536 C   0  0  0  0  0  0  0  0  0  0  0  0
    4.7664   -4.5556   -2.6374 C   0  0  0  0  0  0  0  0  0  0  0  0
    5.6086   -5.5854   -2.1794 C   0  0  0  0  0  0  0  0  0  0  0  0
    6.2063   -5.5097   -0.9214 C   0  0  0  0  0  0  0  0  0  0  0  0
    5.9563   -4.3919   -0.1127 C   0  0  0  0  0  0  0  0  0  0  0  0
    6.3993   -3.9877    1.2098 C   0  0  0  0  0  0  0  0  0  0  0  0
    7.2307   -4.5727    2.1761 C   0  0  0  0  0  0  0  0  0  0  0  0
    7.4485   -3.9029    3.3802 C   0  0  0  0  0  0  0  0  0  0  0  0
    6.8426   -2.6568    3.6280 C   0  0  0  0  0  0  0  0  0  0  0  0
    6.0111   -2.0530    2.6832 C   0  0  0  0  0  0  0  0  0  0  0  0
    5.8006   -2.7285    1.4774 C   0  0  0  0  0  0  0  0  0  0  0  0
    2.8354   -1.1906    0.2675 C   0  0  0  0  0  0  0  0  0  0  0  0
    2.0666   -2.4212    0.4624 C   0  0  0  0  0  0  0  0  0  0  0  0
    0.9165   -2.7462   -0.0510 N   0  0  0  0  0  0  0  0  0  0  0  0
    0.5988   -3.9865    0.4428 N   0  0  0  0  0  0  0  0  0  0  0  0
    1.5745   -4.3459    1.2298 C   0  0  0  0  0  0  0  0  0  0  0  0
    1.7172   -5.5766    1.9998 C   0  0  0  0  0  0  0  0  0  0  0  0
    0.6808   -6.5282    1.9641 C   0  0  0  0  0  0  0  0  0  0  0  0
    0.7978   -7.7096    2.6936 C   0  0  0  0  0  0  0  0  0  0  0  0
    1.9430   -7.9529    3.4618 C   0  0  0  0  0  0  0  0  0  0  0  0
    2.9743   -7.0091    3.4974 C   0  0  0  0  0  0  0  0  0  0  0  0
    2.8674   -5.8227    2.7702 C   0  0  0  0  0  0  0  0  0  0  0  0
    2.5403   -3.3923    1.2880 O   0  0  0  0  0  0  0  0  0  0  0  0
    5.9328    0.9660   -2.4231 H   0  0  0  0  0  0  0  0  0  0  0  0
    7.5939    1.9321   -3.9964 H   0  0  0  0  0  0  0  0  0  0  0  0
    8.4671    4.2357   -3.6788 H   0  0  0  0  0  0  0  0  0  0  0  0
    7.6797    5.6351   -1.7719 H   0  0  0  0  0  0  0  0  0  0  0  0
    6.4287    6.6306    0.5034 H   0  0  0  0  0  0  0  0  0  0  0  0
    5.0271    6.9685    2.5370 H   0  0  0  0  0  0  0  0  0  0  0  0
    3.5329    5.1597    3.3527 H   0  0  0  0  0  0  0  0  0  0  0  0
    3.3905    2.9845    2.1613 H   0  0  0  0  0  0  0  0  0  0  0  0
    3.8478   -2.6360   -2.2171 H   0  0  0  0  0  0  0  0  0  0  0  0
    4.3075   -4.6347   -3.6259 H   0  0  0  0  0  0  0  0  0  0  0  0
    5.7944   -6.4523   -2.8176 H   0  0  0  0  0  0  0  0  0  0  0  0
    6.8621   -6.3105   -0.5707 H   0  0  0  0  0  0  0  0  0  0  0  0
    7.7020   -5.5405    1.9870 H   0  0  0  0  0  0  0  0  0  0  0  0
    8.0961   -4.3470    4.1397 H   0  0  0  0  0  0  0  0  0  0  0  0
    7.0261   -2.1488    4.5781 H   0  0  0  0  0  0  0  0  0  0  0  0
    5.5443   -1.0867    2.8833 H   0  0  0  0  0  0  0  0  0  0  0  0
   -0.2049   -6.3227    1.3603 H   0  0  0  0  0  0  0  0  0  0  0  0
   -0.0087   -8.4463    2.6643 H   0  0  0  0  0  0  0  0  0  0  0  0
    2.0309   -8.8806    4.0329 H   0  0  0  0  0  0  0  0  0  0  0  0
    3.8702   -7.1972    4.0940 H   0  0  0  0  0  0  0  0  0  0  0  0
    3.6745   -5.0884    2.7938 H   0  0  0  0  0  0  0  0  0  0  0  0
  1  2  1  0
  2  3  2  0
  2 35  1  0
  3  4  1  0
  3  5  1  0
  5  6  1  0
  5 19  2  0
  6  7  1  0
  6 18  1  0
  7  8  2  0
  7 12  1  0
  8  9  1  0
  8 47  1  0
  9 10  2  0
  9 48  1  0
 10 11  1  0
 10 49  1  0
 11 12  2  0
 11 50  1  0
 12 13  1  0
 13 14  1  0
 13 18  2  0
 14 15  2  0
 14 51  1  0
 15 16  1  0
 15 52  1  0
 16 17  2  0
 16 53  1  0
 17 18  1  0
 17 54  1  0
 19 20  1  0
 19 21  1  0
 21 22  1  0
 21 35  2  0
 22 23  1  0
 22 34  1  0
 23 24  2  0
 23 28  1  0
 24 25  1  0
 24 55  1  0
 25 26  2  0
 25 56  1  0
 26 27  1  0
 26 57  1  0
 27 28  2  0
 27 58  1  0
 28 29  1  0
 29 30  1  0
 29 34  2  0
 30 31  2  0
 30 59  1  0
 31 32  1  0
 31 60  1  0
 32 33  2  0
 32 61  1  0
 33 34  1  0
 33 62  1  0
 35 36  1  0
 36 37  2  0
 36 46  1  0
 37 38  1  0
 38 39  2  0
 39 40  1  0
 39 46  1  0
 40 41  2  0
 40 45  1  0
 41 42  1  0
 41 63  1  0
 42 43  2  0
 42 64  1  0
 43 44  1  0
 43 65  1  0
 44 45  2  0
 44 66  1  0
 45 67  1  0
M  END

