
     RDKit          3D

 90 93  0  0  0  0  0  0  0  0999 V2000
    5.5844    0.6146   -1.9966 C   0  0  0  0  0  0  0  0  0  0  0  0
    5.4659    1.0099   -0.5077 C   0  0  1  0  0  0  0  0  0  0  0  0
    4.2258    0.3020    0.0750 C   0  0  0  0  0  0  0  0  0  0  0  0
    6.7169    0.4658    0.2136 C   0  0  0  0  0  0  0  0  0  0  0  0
    5.4378    2.5839   -0.4130 C   0  0  1  0  0  0  0  0  0  0  0  0
    4.1964    3.2829   -1.0236 C   0  0  0  0  0  0  0  0  0  0  0  0
    2.9834    3.4289   -0.0810 C   0  0  0  0  0  0  0  0  0  0  0  0
    3.3594    4.0102    1.2622 C   0  0  0  0  0  0  0  0  0  0  0  0
    2.6806    5.0503    1.7815 C   0  0  0  0  0  0  0  0  0  0  0  0
    2.9506    5.7215    3.4017 S   0  0  0  0  0  0  0  0  0  0  0  0
    2.5205    7.4102    3.1518 C   0  0  0  0  0  0  0  0  0  0  0  0
    2.1730    8.2325    4.1640 C   0  0  0  0  0  0  0  0  0  0  0  0
    1.8835    9.6662    4.0713 C   0  0  0  0  0  0  0  0  0  0  0  0
    1.4214   10.3495    5.2144 C   0  0  0  0  0  0  0  0  0  0  0  0
    1.1166   11.7080    5.1803 C   0  0  0  0  0  0  0  0  0  0  0  0
    1.2580   12.4601    3.9985 C   0  0  0  0  0  0  0  0  0  0  0  0
    0.9340   13.9063    3.9561 C   0  0  0  0  0  0  0  0  0  0  0  0
    1.1357   14.7388    5.0772 C   0  0  0  0  0  0  0  0  0  0  0  0
    0.8296   16.0947    5.0435 C   0  0  0  0  0  0  0  0  0  0  0  0
    0.3066   16.7007    3.8812 C   0  0  0  0  0  0  0  0  0  0  0  0
   -0.0247   18.1258    3.7800 C   0  0  0  0  0  0  0  0  0  0  0  0
    0.2276   19.0756    4.7056 C   0  0  0  0  0  0  0  0  0  0  0  0
   -0.1829   20.7834    4.6550 S   0  0  0  0  0  0  0  0  0  0  0  0
   -1.3743   20.8790    3.3481 C   0  0  0  0  0  0  0  0  0  0  0  0
   -1.4391   21.8701    2.4382 C   0  0  0  0  0  0  0  0  0  0  0  0
   -0.4278   22.9797    2.2975 C   0  0  0  0  0  0  0  0  0  0  0  0
    0.0480   23.1605    0.8389 C   0  0  0  0  0  0  0  0  0  0  0  0
   -1.0659   23.2398   -0.2351 C   0  0  2  0  0  0  0  0  0  0  0  0
   -1.6680   24.6730   -0.5032 C   0  0  1  0  0  0  0  0  0  0  0  0
   -0.5697   25.5443   -1.1529 C   0  0  0  0  0  0  0  0  0  0  0  0
   -2.8328   24.5733   -1.5101 C   0  0  0  0  0  0  0  0  0  0  0  0
   -2.1756   25.4088    0.7537 C   0  0  0  0  0  0  0  0  0  0  0  0
   -2.0624   22.0786    0.0046 C   0  0  0  0  0  0  0  0  0  0  0  0
   -2.5787   21.9377    1.4483 C   0  0  0  0  0  0  0  0  0  0  0  0
    0.0994   15.8663    2.7638 C   0  0  0  0  0  0  0  0  0  0  0  0
    0.4061   14.5082    2.7980 C   0  0  0  0  0  0  0  0  0  0  0  0
    1.7264   11.7783    2.8552 C   0  0  0  0  0  0  0  0  0  0  0  0
    2.0349   10.4231    2.8897 C   0  0  0  0  0  0  0  0  0  0  0  0
    4.5304    3.3328    1.9284 C   0  0  0  0  0  0  0  0  0  0  0  0
    5.7306    3.2217    0.9675 C   0  0  0  0  0  0  0  0  0  0  0  0
    5.6387   -0.4810   -2.1032 H   0  0  0  0  0  0  0  0  0  0  0  0
    6.4941    1.0394   -2.4522 H   0  0  0  0  0  0  0  0  0  0  0  0
    4.7217    0.9563   -2.5892 H   0  0  0  0  0  0  0  0  0  0  0  0
    4.3509   -0.7913    0.0041 H   0  0  0  0  0  0  0  0  0  0  0  0
    3.3073    0.5558   -0.4755 H   0  0  0  0  0  0  0  0  0  0  0  0
    4.0653    0.5413    1.1367 H   0  0  0  0  0  0  0  0  0  0  0  0
    6.8458   -0.6070   -0.0031 H   0  0  0  0  0  0  0  0  0  0  0  0
    6.6477    0.5688    1.3074 H   0  0  0  0  0  0  0  0  0  0  0  0
    7.6325    0.9836   -0.1176 H   0  0  0  0  0  0  0  0  0  0  0  0
    6.2903    2.8830   -1.0485 H   0  0  0  0  0  0  0  0  0  0  0  0
    3.8785    2.7822   -1.9515 H   0  0  0  0  0  0  0  0  0  0  0  0
    4.5059    4.2995   -1.3230 H   0  0  0  0  0  0  0  0  0  0  0  0
    2.5193    2.4415    0.0858 H   0  0  0  0  0  0  0  0  0  0  0  0
    2.2127    4.0509   -0.5645 H   0  0  0  0  0  0  0  0  0  0  0  0
    1.8441    5.4960    1.2326 H   0  0  0  0  0  0  0  0  0  0  0  0
    2.5989    7.7642    2.1194 H   0  0  0  0  0  0  0  0  0  0  0  0
    2.0894    7.8039    5.1695 H   0  0  0  0  0  0  0  0  0  0  0  0
    1.2875    9.7943    6.1471 H   0  0  0  0  0  0  0  0  0  0  0  0
    0.7353   12.1886    6.0840 H   0  0  0  0  0  0  0  0  0  0  0  0
    1.5620   14.3166    5.9901 H   0  0  0  0  0  0  0  0  0  0  0  0
    1.0019   16.6934    5.9409 H   0  0  0  0  0  0  0  0  0  0  0  0
   -0.5099   18.4249    2.8456 H   0  0  0  0  0  0  0  0  0  0  0  0
    0.7516   18.8366    5.6364 H   0  0  0  0  0  0  0  0  0  0  0  0
   -2.1482   20.1034    3.3797 H   0  0  0  0  0  0  0  0  0  0  0  0
    0.4413   22.7864    2.9446 H   0  0  0  0  0  0  0  0  0  0  0  0
   -0.8848   23.9143    2.6653 H   0  0  0  0  0  0  0  0  0  0  0  0
    0.6819   22.2912    0.5918 H   0  0  0  0  0  0  0  0  0  0  0  0
    0.7121   24.0370    0.7831 H   0  0  0  0  0  0  0  0  0  0  0  0
   -0.5744   22.9960   -1.1936 H   0  0  0  0  0  0  0  0  0  0  0  0
   -0.2174   25.1034   -2.1000 H   0  0  0  0  0  0  0  0  0  0  0  0
    0.3049   25.6703   -0.4962 H   0  0  0  0  0  0  0  0  0  0  0  0
   -0.9564   26.5516   -1.3774 H   0  0  0  0  0  0  0  0  0  0  0  0
   -2.5455   23.9982   -2.4062 H   0  0  0  0  0  0  0  0  0  0  0  0
   -3.1349   25.5790   -1.8448 H   0  0  0  0  0  0  0  0  0  0  0  0
   -3.7239   24.0964   -1.0738 H   0  0  0  0  0  0  0  0  0  0  0  0
   -1.3643   25.6159    1.4678 H   0  0  0  0  0  0  0  0  0  0  0  0
   -2.9610   24.8480    1.2817 H   0  0  0  0  0  0  0  0  0  0  0  0
   -2.6085   26.3819    0.4682 H   0  0  0  0  0  0  0  0  0  0  0  0
   -1.5329   21.1425   -0.2464 H   0  0  0  0  0  0  0  0  0  0  0  0
   -2.9125   22.1348   -0.6906 H   0  0  0  0  0  0  0  0  0  0  0  0
   -3.2152   21.0423    1.5342 H   0  0  0  0  0  0  0  0  0  0  0  0
   -3.2226   22.7992    1.7024 H   0  0  0  0  0  0  0  0  0  0  0  0
   -0.3177   16.2976    1.8493 H   0  0  0  0  0  0  0  0  0  0  0  0
    0.2059   13.8969    1.9151 H   0  0  0  0  0  0  0  0  0  0  0  0
    1.8831   12.3321    1.9267 H   0  0  0  0  0  0  0  0  0  0  0  0
    2.4180    9.9487    1.9833 H   0  0  0  0  0  0  0  0  0  0  0  0
    4.2214    2.3289    2.2714 H   0  0  0  0  0  0  0  0  0  0  0  0
    4.8326    3.8872    2.8305 H   0  0  0  0  0  0  0  0  0  0  0  0
    6.5615    2.7088    1.4730 H   0  0  0  0  0  0  0  0  0  0  0  0
    6.0882    4.2490    0.7772 H   0  0  0  0  0  0  0  0  0  0  0  0
  2  1  1  6
  1 41  1  0
  1 42  1  0
  1 43  1  0
  2  3  1  0
  2  4  1  0
  2  5  1  0
  3 44  1  0
  3 45  1  0
  3 46  1  0
  4 47  1  0
  4 48  1  0
  4 49  1  0
  5  6  1  0
  5 40  1  0
  5 50  1  6
  6  7  1  0
  6 51  1  0
  6 52  1  0
  7  8  1  0
  7 53  1  0
  7 54  1  0
  8  9  2  0
  8 39  1  0
  9 10  1  0
  9 55  1  0
 10 11  1  0
 11 12  2  0
 11 56  1  0
 12 13  1  0
 12 57  1  0
 13 14  2  0
 13 38  1  0
 14 15  1  0
 14 58  1  0
 15 16  2  0
 15 59  1  0
 16 17  1  0
 16 37  1  0
 17 18  2  0
 17 36  1  0
 18 19  1  0
 18 60  1  0
 19 20  2  0
 19 61  1  0
 20 21  1  0
 20 35  1  0
 21 22  2  0
 21 62  1  0
 22 23  1  0
 22 63  1  0
 23 24  1  0
 24 25  2  0
 24 64  1  0
 25 26  1  0
 25 34  1  0
 26 27  1  0
 26 65  1  0
 26 66  1  0
 27 28  1  0
 27 67  1  0
 27 68  1  0
 28 29  1  0
 28 33  1  0
 28 69  1  6
 29 30  1  6
 29 31  1  0
 29 32  1  0
 30 70  1  0
 30 71  1  0
 30 72  1  0
 31 73  1  0
 31 74  1  0
 31 75  1  0
 32 76  1  0
 32 77  1  0
 32 78  1  0
 33 34  1  0
 33 79  1  0
 33 80  1  0
 34 81  1  0
 34 82  1  0
 35 36  2  0
 35 83  1  0
 36 84  1  0
 37 38  2  0
 37 85  1  0
 38 86  1  0
 39 40  1  0
 39 87  1  0
 39 88  1  0
 40 89  1  0
 40 90  1  0
M  END

