
     RDKit          3D

 56 59  0  0  0  0  0  0  0  0999 V2000
    2.7167    0.4321    0.7801 C   0  0  0  0  0  0  0  0  0  0  0  0
    2.3763    1.0157   -0.5988 C   0  0  1  0  0  0  0  0  0  0  0  0
    3.6145    1.5329   -1.3563 C   0  0  0  0  0  0  0  0  0  0  0  0
    4.4930    0.4053   -1.9026 C   0  0  0  0  0  0  0  0  0  0  0  0
    3.7150   -0.5282   -2.7229 N   0  0  0  0  0  0  0  0  0  0  0  0
    4.2528   -1.0613   -3.8721 C   0  0  0  0  0  0  0  0  0  0  0  0
    3.6526   -2.1188   -4.6092 C   0  0  0  0  0  0  0  0  0  0  0  0
    4.2724   -2.5295   -5.7683 C   0  0  0  0  0  0  0  0  0  0  0  0
    5.4727   -1.9010   -6.1694 C   0  0  0  0  0  0  0  0  0  0  0  0
    6.2192   -2.2598   -7.4019 C   0  0  0  0  0  0  0  0  0  0  0  0
    7.3282   -1.4885   -7.8035 C   0  0  0  0  0  0  0  0  0  0  0  0
    8.0403   -1.7817   -8.9622 C   0  0  0  0  0  0  0  0  0  0  0  0
    7.6763   -2.8868   -9.7501 C   0  0  0  0  0  0  0  0  0  0  0  0
    8.3586   -3.1955  -10.9545 N   0  0  0  0  0  0  0  0  0  0  0  0
   10.0221   -3.4509  -11.0620 S   0  0  1  0  0  0  0  0  0  0  0  0
   10.2607   -3.8392  -12.4460 O   0  0  0  0  0  0  0  0  0  0  0  0
   10.6837   -2.2961  -10.4585 O   0  0  0  0  0  0  0  0  0  0  0  0
   10.4086   -4.8729   -9.9812 C   0  0  0  0  0  0  0  0  0  0  0  0
   11.0806   -4.5452   -8.8001 C   0  0  0  0  0  0  0  0  0  0  0  0
   11.4400   -5.5385   -7.8855 C   0  0  0  0  0  0  0  0  0  0  0  0
   11.1242   -6.8684   -8.1520 C   0  0  0  0  0  0  0  0  0  0  0  0
   10.4514   -7.2009   -9.3306 C   0  0  0  0  0  0  0  0  0  0  0  0
   10.0816   -6.2203  -10.2594 C   0  0  0  0  0  0  0  0  0  0  0  0
    9.3894   -6.6965  -11.5279 C   0  0  1  0  0  0  0  0  0  0  0  0
    8.2874   -5.9606  -11.8140 F   0  0  0  0  0  0  0  0  0  0  0  0
   10.1893   -6.6630  -12.5921 F   0  0  0  0  0  0  0  0  0  0  0  0
    8.9603   -7.9647  -11.3960 F   0  0  0  0  0  0  0  0  0  0  0  0
    6.5851   -3.6754   -9.3550 C   0  0  0  0  0  0  0  0  0  0  0  0
    5.8616   -3.3561   -8.2069 C   0  0  0  0  0  0  0  0  0  0  0  0
    5.9886   -0.9243   -5.4121 N   0  0  0  0  0  0  0  0  0  0  0  0
    5.4114   -0.5200   -4.3067 N   0  0  0  0  0  0  0  0  0  0  0  0
    2.5422   -1.0873   -2.0631 C   0  0  0  0  0  0  0  0  0  0  0  0
    1.6334    0.0167   -1.5057 C   0  0  0  0  0  0  0  0  0  0  0  0
    3.2125    1.1857    1.4131 H   0  0  0  0  0  0  0  0  0  0  0  0
    3.3909   -0.4372    0.7204 H   0  0  0  0  0  0  0  0  0  0  0  0
    1.8047    0.1040    1.3051 H   0  0  0  0  0  0  0  0  0  0  0  0
    1.7020    1.8733   -0.4288 H   0  0  0  0  0  0  0  0  0  0  0  0
    4.2258    2.1776   -0.7024 H   0  0  0  0  0  0  0  0  0  0  0  0
    3.2845    2.1588   -2.2031 H   0  0  0  0  0  0  0  0  0  0  0  0
    4.9682   -0.1521   -1.0699 H   0  0  0  0  0  0  0  0  0  0  0  0
    5.3028    0.8008   -2.5242 H   0  0  0  0  0  0  0  0  0  0  0  0
    2.7323   -2.6034   -4.2863 H   0  0  0  0  0  0  0  0  0  0  0  0
    3.8284   -3.3316   -6.3595 H   0  0  0  0  0  0  0  0  0  0  0  0
    7.6093   -0.6339   -7.1874 H   0  0  0  0  0  0  0  0  0  0  0  0
    8.8792   -1.1590   -9.2724 H   0  0  0  0  0  0  0  0  0  0  0  0
    7.8829   -3.8486  -11.5725 H   0  0  0  0  0  0  0  0  0  0  0  0
   11.3252   -3.4991   -8.6156 H   0  0  0  0  0  0  0  0  0  0  0  0
   11.9663   -5.2644   -6.9684 H   0  0  0  0  0  0  0  0  0  0  0  0
   11.3989   -7.6561   -7.4468 H   0  0  0  0  0  0  0  0  0  0  0  0
   10.2056   -8.2424   -9.5371 H   0  0  0  0  0  0  0  0  0  0  0  0
    6.3049   -4.5468   -9.9528 H   0  0  0  0  0  0  0  0  0  0  0  0
    5.0186   -3.9949   -7.9369 H   0  0  0  0  0  0  0  0  0  0  0  0
    2.8552   -1.7753   -1.2505 H   0  0  0  0  0  0  0  0  0  0  0  0
    1.9621   -1.6881   -2.7732 H   0  0  0  0  0  0  0  0  0  0  0  0
    0.7950   -0.4522   -0.9630 H   0  0  0  0  0  0  0  0  0  0  0  0
    1.1975    0.5639   -2.3592 H   0  0  0  0  0  0  0  0  0  0  0  0
  1  2  1  0
  1 34  1  0
  1 35  1  0
  1 36  1  0
  2  3  1  0
  2 33  1  0
  2 37  1  1
  3  4  1  0
  3 38  1  0
  3 39  1  0
  4  5  1  0
  4 40  1  0
  4 41  1  0
  5  6  1  0
  5 32  1  0
  6  7  2  0
  6 31  1  0
  7  8  1  0
  7 42  1  0
  8  9  2  0
  8 43  1  0
  9 10  1  0
  9 30  1  0
 10 11  2  0
 10 29  1  0
 11 12  1  0
 11 44  1  0
 12 13  2  0
 12 45  1  0
 13 14  1  0
 13 28  1  0
 15 14  1  6
 14 46  1  0
 15 16  2  0
 15 17  2  0
 15 18  1  0
 18 19  2  0
 18 23  1  0
 19 20  1  0
 19 47  1  0
 20 21  2  0
 20 48  1  0
 21 22  1  0
 21 49  1  0
 22 23  2  0
 22 50  1  0
 23 24  1  0
 24 25  1  6
 24 26  1  0
 24 27  1  0
 28 29  2  0
 28 51  1  0
 29 52  1  0
 30 31  2  0
 32 33  1  0
 32 53  1  0
 32 54  1  0
 33 55  1  0
 33 56  1  0
M  END

