
     RDKit          3D

 32 34  0  0  0  0  0  0  0  0999 V2000
    0.8574    0.4687   -0.0208 Cl  0  0  0  0  0  0  0  0  0  0  0  0
    2.6632    0.2091    0.0263 C   0  0  1  0  0  0  0  0  0  0  0  0
    3.3664    1.3939   -0.5888 C   0  0  0  0  0  0  0  0  0  0  0  0
    2.8695    2.6012   -1.0025 C   0  0  0  0  0  0  0  0  0  0  0  0
    3.8720    3.4686   -1.5429 C   0  0  0  0  0  0  0  0  0  0  0  0
    3.4715    5.1964   -2.1877 Br  0  0  0  0  0  0  0  0  0  0  0  0
    5.1261    2.9095   -1.5382 C   0  0  0  0  0  0  0  0  0  0  0  0
    6.7384    3.6522   -2.1380 Br  0  0  0  0  0  0  0  0  0  0  0  0
    5.0949    1.3029   -0.8661 S   0  0  0  0  0  0  0  0  0  0  0  0
    3.1417   -0.1447    1.4511 C   0  0  2  0  0  0  0  0  0  0  0  0
    2.5224   -1.4422    1.9852 C   0  0  0  0  0  0  0  0  0  0  0  0
    3.2153   -1.8739    3.2798 C   0  0  0  0  0  0  0  0  0  0  0  0
    3.3661   -0.7499    4.2880 C   0  0  0  0  0  0  0  0  0  0  0  0
    3.6367   -1.0497    5.6338 C   0  0  0  0  0  0  0  0  0  0  0  0
    3.8162   -0.0426    6.5807 C   0  0  0  0  0  0  0  0  0  0  0  0
    3.7268    1.2971    6.1872 C   0  0  0  0  0  0  0  0  0  0  0  0
    3.4578    1.6061    4.8549 C   0  0  0  0  0  0  0  0  0  0  0  0
    3.2733    0.5990    3.8921 C   0  0  0  0  0  0  0  0  0  0  0  0
    2.9455    0.9910    2.4624 C   0  0  0  0  0  0  0  0  0  0  0  0
    2.8169   -0.6731   -0.6138 H   0  0  0  0  0  0  0  0  0  0  0  0
    1.8165    2.8685   -0.9349 H   0  0  0  0  0  0  0  0  0  0  0  0
    4.2300   -0.3209    1.3393 H   0  0  0  0  0  0  0  0  0  0  0  0
    2.5984   -2.2448    1.2321 H   0  0  0  0  0  0  0  0  0  0  0  0
    1.4467   -1.2788    2.1638 H   0  0  0  0  0  0  0  0  0  0  0  0
    4.2203   -2.2698    3.0385 H   0  0  0  0  0  0  0  0  0  0  0  0
    2.6693   -2.7140    3.7398 H   0  0  0  0  0  0  0  0  0  0  0  0
    3.7065   -2.0984    5.9391 H   0  0  0  0  0  0  0  0  0  0  0  0
    4.0245   -0.2999    7.6224 H   0  0  0  0  0  0  0  0  0  0  0  0
    3.8667    2.0980    6.9177 H   0  0  0  0  0  0  0  0  0  0  0  0
    3.3872    2.6535    4.5459 H   0  0  0  0  0  0  0  0  0  0  0  0
    3.5493    1.8663    2.1740 H   0  0  0  0  0  0  0  0  0  0  0  0
    1.8923    1.3213    2.4137 H   0  0  0  0  0  0  0  0  0  0  0  0
  1  2  1  0
  2  3  1  0
  2 10  1  0
  2 20  1  6
  3  4  2  0
  3  9  1  0
  4  5  1  0
  4 21  1  0
  5  6  1  0
  5  7  2  0
  7  8  1  0
  7  9  1  0
 10 11  1  0
 10 19  1  0
 10 22  1  6
 11 12  1  0
 11 23  1  0
 11 24  1  0
 12 13  1  0
 12 25  1  0
 12 26  1  0
 13 14  2  0
 13 18  1  0
 14 15  1  0
 14 27  1  0
 15 16  2  0
 15 28  1  0
 16 17  1  0
 16 29  1  0
 17 18  2  0
 17 30  1  0
 18 19  1  0
 19 31  1  0
 19 32  1  0
M  END

