
     RDKit          3D

 40 42  0  0  0  0  0  0  0  0999 V2000
    0.4226   -0.3942   -0.2610 C   0  0  0  0  0  0  0  0  0  0  0  0
    1.8935   -0.0469   -0.3886 C   0  0  0  0  0  0  0  0  0  0  0  0
    2.6395   -1.2531   -0.3412 O   0  0  0  0  0  0  0  0  0  0  0  0
    3.9965   -1.2109   -0.4015 C   0  0  0  0  0  0  0  0  0  0  0  0
    4.7458   -0.0365   -0.5502 C   0  0  0  0  0  0  0  0  0  0  0  0
    6.1505   -0.0650   -0.5774 C   0  0  0  0  0  0  0  0  0  0  0  0
    6.9238    1.2224   -0.7885 C   0  0  0  0  0  0  0  0  0  0  0  0
    8.1194    1.2743    0.0380 N   0  0  0  0  0  0  0  0  0  0  0  0
    9.1778    2.1399   -0.1380 C   0  0  0  0  0  0  0  0  0  0  0  0
   10.0325    2.4695    0.9163 C   0  0  0  0  0  0  0  0  0  0  0  0
   11.1708    3.3066    0.7616 C   0  0  0  0  0  0  0  0  0  0  0  0
   11.5222    3.8773   -0.4446 C   0  0  0  0  0  0  0  0  0  0  0  0
   10.6751    3.5753   -1.5395 C   0  0  0  0  0  0  0  0  0  0  0  0
   10.7505    3.9635   -2.8305 N   0  0  0  0  0  0  0  0  0  0  0  0
    9.7087    3.3676   -3.3780 N   0  0  0  0  0  0  0  0  0  0  0  0
    9.5055    3.4795   -4.3668 H   0  0  0  0  0  0  0  0  0  0  0  0
    8.9374    2.6228   -2.6137 N   0  0  0  0  0  0  0  0  0  0  0  0
    9.5250    2.7270   -1.4021 C   0  0  0  0  0  0  0  0  0  0  0  0
    6.8060   -1.2930   -0.4424 C   0  0  0  0  0  0  0  0  0  0  0  0
    6.0651   -2.4704   -0.2981 C   0  0  0  0  0  0  0  0  0  0  0  0
    4.6706   -2.4521   -0.2789 C   0  0  0  0  0  0  0  0  0  0  0  0
    3.9933   -3.6198   -0.0704 O   0  0  0  0  0  0  0  0  0  0  0  0
    3.1853   -4.1030   -1.1322 C   0  0  0  0  0  0  0  0  0  0  0  0
   -0.1864    0.5230   -0.2756 H   0  0  0  0  0  0  0  0  0  0  0  0
    0.2301   -0.9261    0.6831 H   0  0  0  0  0  0  0  0  0  0  0  0
    0.0978   -1.0387   -1.0922 H   0  0  0  0  0  0  0  0  0  0  0  0
    2.2097    0.6221    0.4338 H   0  0  0  0  0  0  0  0  0  0  0  0
    2.0899    0.4842   -1.3394 H   0  0  0  0  0  0  0  0  0  0  0  0
    4.2391    0.9257   -0.6362 H   0  0  0  0  0  0  0  0  0  0  0  0
    6.2531    2.0847   -0.5941 H   0  0  0  0  0  0  0  0  0  0  0  0
    7.2319    1.3094   -1.8406 H   0  0  0  0  0  0  0  0  0  0  0  0
    7.9650    1.0034    1.0039 H   0  0  0  0  0  0  0  0  0  0  0  0
    9.8175    2.0586    1.9070 H   0  0  0  0  0  0  0  0  0  0  0  0
   11.7819    3.5018    1.6470 H   0  0  0  0  0  0  0  0  0  0  0  0
   12.3940    4.5207   -0.5632 H   0  0  0  0  0  0  0  0  0  0  0  0
    7.8972   -1.3284   -0.4537 H   0  0  0  0  0  0  0  0  0  0  0  0
    6.5586   -3.4387   -0.1882 H   0  0  0  0  0  0  0  0  0  0  0  0
    2.7732   -5.0670   -0.8013 H   0  0  0  0  0  0  0  0  0  0  0  0
    3.7848   -4.2680   -2.0467 H   0  0  0  0  0  0  0  0  0  0  0  0
    2.3559   -3.4163   -1.3637 H   0  0  0  0  0  0  0  0  0  0  0  0
  1  2  1  0
  1 24  1  0
  1 25  1  0
  1 26  1  0
  2  3  1  0
  2 27  1  0
  2 28  1  0
  3  4  1  0
  4  5  2  0
  4 21  1  0
  5  6  1  0
  5 29  1  0
  6  7  1  0
  6 19  2  0
  7  8  1  0
  7 30  1  0
  7 31  1  0
  8  9  1  0
  8 32  1  0
  9 10  2  0
  9 18  1  0
 10 11  1  0
 10 33  1  0
 11 12  2  0
 11 34  1  0
 12 13  1  0
 12 35  1  0
 13 14  2  0
 13 18  1  0
 14 15  1  0
 15 16  1  0
 15 17  1  0
 17 18  2  0
 19 20  1  0
 19 36  1  0
 20 21  2  0
 20 37  1  0
 21 22  1  0
 22 23  1  0
 23 38  1  0
 23 39  1  0
 23 40  1  0
M  END

