
     RDKit          3D

 82 89  0  0  0  0  0  0  0  0999 V2000
    1.2415    0.9384   -0.4976 C   0  0  0  0  0  0  0  0  0  0  0  0
    2.4051    0.7696   -0.4242 N   0  0  0  0  0  0  0  0  0  0  0  0
    3.7714    0.5726   -0.3387 C   0  0  0  0  0  0  0  0  0  0  0  0
    4.6464    1.6641   -0.2562 C   0  0  0  0  0  0  0  0  0  0  0  0
    6.0125    1.4399   -0.1700 C   0  0  0  0  0  0  0  0  0  0  0  0
    6.5499    0.1314   -0.1632 C   0  0  0  0  0  0  0  0  0  0  0  0
    5.6704   -0.9759   -0.2473 C   0  0  0  0  0  0  0  0  0  0  0  0
    4.2973   -0.7254   -0.3327 C   0  0  0  0  0  0  0  0  0  0  0  0
    6.1622   -2.4309   -0.2360 C   0  0  2  0  0  0  0  0  0  0  0  0
    5.6734   -3.1412   -1.5257 C   0  0  0  0  0  0  0  0  0  0  0  0
    5.5724   -3.1505    1.0063 C   0  0  0  0  0  0  0  0  0  0  0  0
    7.6952   -2.4966   -0.1731 C   0  0  0  0  0  0  0  0  0  0  0  0
    8.3269   -3.7470   -0.1815 C   0  0  0  0  0  0  0  0  0  0  0  0
    9.7184   -3.9194   -0.1071 C   0  0  0  0  0  0  0  0  0  0  0  0
   10.3387   -5.2673   -0.1192 C   0  0  0  0  0  0  0  0  0  0  0  0
   11.4989   -5.5510    0.6215 C   0  0  0  0  0  0  0  0  0  0  0  0
   12.0712   -6.8166    0.6032 C   0  0  0  0  0  0  0  0  0  0  0  0
   11.5110   -7.8630   -0.1587 C   0  0  0  0  0  0  0  0  0  0  0  0
   10.3470   -7.6097   -0.9160 C   0  0  0  0  0  0  0  0  0  0  0  0
    9.7979   -6.3215   -0.8728 C   0  0  0  0  0  0  0  0  0  0  0  0
    9.6814   -8.6800   -1.7929 C   0  0  2  0  0  0  0  0  0  0  0  0
    9.7098   -8.2126   -3.2725 C   0  0  0  0  0  0  0  0  0  0  0  0
    8.2105   -8.8691   -1.3376 C   0  0  0  0  0  0  0  0  0  0  0  0
   10.4174  -10.0238   -1.6816 C   0  0  0  0  0  0  0  0  0  0  0  0
    9.9349  -11.1238   -2.3945 C   0  0  0  0  0  0  0  0  0  0  0  0
   10.5517  -12.3859   -2.3557 C   0  0  0  0  0  0  0  0  0  0  0  0
   10.0152  -13.4820   -3.1068 C   0  0  0  0  0  0  0  0  0  0  0  0
    9.5796  -14.3707   -3.7162 N   0  0  0  0  0  0  0  0  0  0  0  0
   11.7034  -12.5439   -1.5650 C   0  0  0  0  0  0  0  0  0  0  0  0
   12.2038  -11.4690   -0.8485 C   0  0  0  0  0  0  0  0  0  0  0  0
   11.5803  -10.1984   -0.8894 C   0  0  0  0  0  0  0  0  0  0  0  0
   12.1125   -9.1376   -0.1561 N   0  0  0  0  0  0  0  0  0  0  0  0
   13.2979   -9.3483    0.6289 C   0  0  0  0  0  0  0  0  0  0  0  0
   14.5609   -9.1353    0.0623 C   0  0  0  0  0  0  0  0  0  0  0  0
   15.7127   -9.3412    0.8266 C   0  0  0  0  0  0  0  0  0  0  0  0
   15.6068   -9.7589    2.1572 C   0  0  0  0  0  0  0  0  0  0  0  0
   14.3455   -9.9705    2.7232 C   0  0  0  0  0  0  0  0  0  0  0  0
   13.1916   -9.7658    1.9617 C   0  0  0  0  0  0  0  0  0  0  0  0
   10.4952   -2.7516   -0.0174 C   0  0  0  0  0  0  0  0  0  0  0  0
    9.9041   -1.4947   -0.0069 C   0  0  0  0  0  0  0  0  0  0  0  0
    8.5037   -1.3421   -0.0846 C   0  0  0  0  0  0  0  0  0  0  0  0
    7.9329   -0.0558   -0.0734 N   0  0  0  0  0  0  0  0  0  0  0  0
    8.7930    1.0909    0.0232 C   0  0  0  0  0  0  0  0  0  0  0  0
    9.2946    1.6924   -1.1382 C   0  0  0  0  0  0  0  0  0  0  0  0
   10.1306    2.8083   -1.0419 C   0  0  0  0  0  0  0  0  0  0  0  0
   10.4679    3.3263    0.2127 C   0  0  0  0  0  0  0  0  0  0  0  0
    9.9677    2.7256    1.3724 C   0  0  0  0  0  0  0  0  0  0  0  0
    9.1316    1.6094    1.2795 C   0  0  0  0  0  0  0  0  0  0  0  0
    4.2505    2.6810   -0.2600 H   0  0  0  0  0  0  0  0  0  0  0  0
    6.6812    2.2964   -0.1062 H   0  0  0  0  0  0  0  0  0  0  0  0
    3.5952   -1.5574   -0.3957 H   0  0  0  0  0  0  0  0  0  0  0  0
    4.5754   -3.1295   -1.5977 H   0  0  0  0  0  0  0  0  0  0  0  0
    5.9914   -4.1942   -1.5430 H   0  0  0  0  0  0  0  0  0  0  0  0
    6.0788   -2.6480   -2.4221 H   0  0  0  0  0  0  0  0  0  0  0  0
    4.4719   -3.1366    0.9895 H   0  0  0  0  0  0  0  0  0  0  0  0
    5.9046   -2.6628    1.9352 H   0  0  0  0  0  0  0  0  0  0  0  0
    5.8911   -4.2032    1.0429 H   0  0  0  0  0  0  0  0  0  0  0  0
    7.7013   -4.6404   -0.2207 H   0  0  0  0  0  0  0  0  0  0  0  0
   11.9520   -4.7778    1.2458 H   0  0  0  0  0  0  0  0  0  0  0  0
   12.9637   -7.0007    1.1992 H   0  0  0  0  0  0  0  0  0  0  0  0
    8.9146   -6.1169   -1.4800 H   0  0  0  0  0  0  0  0  0  0  0  0
    9.1768   -7.2580   -3.3972 H   0  0  0  0  0  0  0  0  0  0  0  0
    9.2286   -8.9505   -3.9324 H   0  0  0  0  0  0  0  0  0  0  0  0
   10.7450   -8.0711   -3.6183 H   0  0  0  0  0  0  0  0  0  0  0  0
    7.6450   -7.9292   -1.4232 H   0  0  0  0  0  0  0  0  0  0  0  0
    8.1645   -9.2001   -0.2890 H   0  0  0  0  0  0  0  0  0  0  0  0
    7.6939   -9.6198   -1.9544 H   0  0  0  0  0  0  0  0  0  0  0  0
    9.0430  -11.0101   -3.0122 H   0  0  0  0  0  0  0  0  0  0  0  0
   12.2040  -13.5126   -1.5152 H   0  0  0  0  0  0  0  0  0  0  0  0
   13.0966  -11.6098   -0.2420 H   0  0  0  0  0  0  0  0  0  0  0  0
   14.6312   -8.8089   -0.9777 H   0  0  0  0  0  0  0  0  0  0  0  0
   16.6963   -9.1747    0.3805 H   0  0  0  0  0  0  0  0  0  0  0  0
   16.5082   -9.9198    2.7536 H   0  0  0  0  0  0  0  0  0  0  0  0
   14.2583  -10.2970    3.7625 H   0  0  0  0  0  0  0  0  0  0  0  0
   12.2014   -9.9276    2.3932 H   0  0  0  0  0  0  0  0  0  0  0  0
   11.5846   -2.8206    0.0191 H   0  0  0  0  0  0  0  0  0  0  0  0
   10.5402   -0.6129    0.0522 H   0  0  0  0  0  0  0  0  0  0  0  0
    9.0247    1.2790   -2.1125 H   0  0  0  0  0  0  0  0  0  0  0  0
   10.5193    3.2746   -1.9506 H   0  0  0  0  0  0  0  0  0  0  0  0
   11.1213    4.1991    0.2867 H   0  0  0  0  0  0  0  0  0  0  0  0
   10.2288    3.1272    2.3546 H   0  0  0  0  0  0  0  0  0  0  0  0
    8.7351    1.1319    2.1782 H   0  0  0  0  0  0  0  0  0  0  0  0
  1  2  3  0
  2  3  1  0
  3  4  2  0
  3  8  1  0
  4  5  1  0
  4 49  1  0
  5  6  2  0
  5 50  1  0
  6  7  1  0
  6 42  1  0
  7  8  2  0
  7  9  1  0
  8 51  1  0
  9 10  1  6
  9 11  1  0
  9 12  1  0
 10 52  1  0
 10 53  1  0
 10 54  1  0
 11 55  1  0
 11 56  1  0
 11 57  1  0
 12 13  1  0
 12 41  2  0
 13 14  1  0
 13 58  1  0
 14 15  2  0
 14 39  1  0
 15 16  1  0
 15 20  1  0
 16 17  2  0
 16 59  1  0
 17 18  1  0
 17 60  1  0
 18 19  1  0
 18 32  2  0
 19 20  2  0
 19 21  1  0
 20 61  1  0
 21 22  1  6
 21 23  1  0
 21 24  1  0
 22 62  1  0
 22 63  1  0
 22 64  1  0
 23 65  1  0
 23 66  1  0
 23 67  1  0
 24 25  2  0
 24 31  1  0
 25 26  1  0
 25 68  1  0
 26 27  1  0
 26 29  2  0
 27 28  3  0
 29 30  1  0
 29 69  1  0
 30 31  2  0
 30 70  1  0
 31 32  1  0
 32 33  1  0
 33 34  2  0
 33 38  1  0
 34 35  1  0
 34 71  1  0
 35 36  2  0
 35 72  1  0
 36 37  1  0
 36 73  1  0
 37 38  2  0
 37 74  1  0
 38 75  1  0
 39 40  2  0
 39 76  1  0
 40 41  1  0
 40 77  1  0
 41 42  1  0
 42 43  1  0
 43 44  2  0
 43 48  1  0
 44 45  1  0
 44 78  1  0
 45 46  2  0
 45 79  1  0
 46 47  1  0
 46 80  1  0
 47 48  2  0
 47 81  1  0
 48 82  1  0
M  CHG  4   1  -1   2   1  13  -1  32   1
M  END

