
     RDKit          3D

 30 31  0  0  0  0  0  0  0  0999 V2000
    1.4706    0.9515   -0.2789 N   0  0  0  0  0  0  0  0  0  0  0  0
    2.5163    0.5398   -0.5593 C   0  0  0  0  0  0  0  0  0  0  0  0
    3.8474    0.0401   -0.9298 C   0  0  1  0  0  0  0  0  0  0  0  0
    3.6683   -1.3585   -1.5614 C   0  0  0  0  0  0  0  0  0  0  0  0
    3.5817   -2.3611   -0.8966 O   0  0  0  0  0  0  0  0  0  0  0  0
    3.5285   -1.3472   -2.9319 N   0  0  0  0  0  0  0  0  0  0  0  0
    3.7988   -0.3018   -3.8032 C   0  0  0  0  0  0  0  0  0  0  0  0
    3.6048   -0.4826   -5.4415 S   0  0  0  0  0  0  0  0  0  0  0  0
    4.2143    0.8538   -3.2263 N   0  0  0  0  0  0  0  0  0  0  0  0
    4.5838    1.0759   -1.8315 C   0  0  2  0  0  0  0  0  0  0  0  0
    6.0912    1.1666   -1.6067 C   0  0  0  0  0  0  0  0  0  0  0  0
    6.6471    2.3800   -1.1916 C   0  0  0  0  0  0  0  0  0  0  0  0
    8.0232    2.5021   -0.9824 C   0  0  0  0  0  0  0  0  0  0  0  0
    8.6970    4.0664   -0.4513 S   0  0  1  0  0  0  0  0  0  0  0  0
    7.6014    4.9140    0.0152 O   0  0  0  0  0  0  0  0  0  0  0  0
    9.8888    3.8069    0.3354 O   0  0  0  0  0  0  0  0  0  0  0  0
    9.2305    4.7156   -1.8625 O   0  0  0  0  0  0  0  0  0  0  0  0
    8.8781    1.4138   -1.1717 C   0  0  0  0  0  0  0  0  0  0  0  0
    8.3403    0.2000   -1.5904 C   0  0  0  0  0  0  0  0  0  0  0  0
    6.9610    0.0721   -1.8104 C   0  0  0  0  0  0  0  0  0  0  0  0
    6.4006   -1.0903   -2.2071 O   0  0  0  0  0  0  0  0  0  0  0  0
    4.4155   -0.1185   -0.0015 H   0  0  0  0  0  0  0  0  0  0  0  0
    3.2986   -2.2330   -3.3760 H   0  0  0  0  0  0  0  0  0  0  0  0
    4.4168    1.5931   -3.8909 H   0  0  0  0  0  0  0  0  0  0  0  0
    4.1880    2.0642   -1.5550 H   0  0  0  0  0  0  0  0  0  0  0  0
    6.0046    3.2448   -1.0083 H   0  0  0  0  0  0  0  0  0  0  0  0
    8.5760    5.3748   -2.1508 H   0  0  0  0  0  0  0  0  0  0  0  0
    9.9479    1.5161   -0.9814 H   0  0  0  0  0  0  0  0  0  0  0  0
    8.9919   -0.6654   -1.7425 H   0  0  0  0  0  0  0  0  0  0  0  0
    7.0615   -1.7922   -2.2860 H   0  0  0  0  0  0  0  0  0  0  0  0
  1  2  3  0
  2  3  1  0
  3  4  1  0
  3 10  1  0
  3 22  1  1
  4  5  2  0
  4  6  1  0
  6  7  1  0
  6 23  1  0
  7  8  2  0
  7  9  1  0
  9 10  1  0
  9 24  1  0
 10 11  1  0
 10 25  1  1
 11 12  2  0
 11 20  1  0
 12 13  1  0
 12 26  1  0
 13 14  1  0
 13 18  2  0
 14 15  2  0
 14 16  2  0
 14 17  1  6
 17 27  1  0
 18 19  1  0
 18 28  1  0
 19 20  2  0
 19 29  1  0
 20 21  1  0
 21 30  1  0
M  END

