
     RDKit          3D

 40 41  0  0  0  0  0  0  0  0999 V2000
    5.0920    0.4325    0.9254 N   0  0  0  0  0  0  0  0  0  0  0  0
    5.1858   -0.0836   -0.3430 C   0  0  0  0  0  0  0  0  0  0  0  0
    5.9930   -1.0378   -0.6729 N   0  0  0  0  0  0  0  0  0  0  0  0
    6.6601   -1.5230    0.4767 O   0  0  0  0  0  0  0  0  0  0  0  0
    4.3408    0.5393   -1.4033 C   0  0  0  0  0  0  0  0  0  0  0  0
    4.3121    1.9428   -1.4744 C   0  0  0  0  0  0  0  0  0  0  0  0
    3.5469    2.6033   -2.4368 C   0  0  0  0  0  0  0  0  0  0  0  0
    2.7874    1.8557   -3.3376 C   0  0  0  0  0  0  0  0  0  0  0  0
    2.7978    0.4606   -3.2584 C   0  0  0  0  0  0  0  0  0  0  0  0
    3.5627   -0.2269   -2.3049 C   0  0  0  0  0  0  0  0  0  0  0  0
    3.5063   -1.7571   -2.2806 C   0  0  0  0  0  0  0  0  0  0  0  0
    3.1965   -2.4013   -1.0119 N   0  0  0  0  0  0  0  0  0  0  0  0
    2.0199   -1.9447   -0.2793 C   0  0  1  0  0  0  0  0  0  0  0  0
    0.7156   -2.4223   -0.9487 C   0  0  0  0  0  0  0  0  0  0  0  0
    0.5552   -3.9467   -0.8912 C   0  0  0  0  0  0  0  0  0  0  0  0
    0.6356   -4.4579    0.5540 C   0  0  0  0  0  0  0  0  0  0  0  0
    1.9263   -3.9922    1.2443 C   0  0  0  0  0  0  0  0  0  0  0  0
    2.0989   -2.4676    1.1757 C   0  0  2  0  0  0  0  0  0  0  0  0
    1.1776   -1.7833    2.0124 O   0  0  0  0  0  0  0  0  0  0  0  0
    5.5912   -0.0728    1.6489 H   0  0  0  0  0  0  0  0  0  0  0  0
    4.2306    0.8912    1.1928 H   0  0  0  0  0  0  0  0  0  0  0  0
    7.2454   -2.1974    0.1120 H   0  0  0  0  0  0  0  0  0  0  0  0
    4.9184    2.5185   -0.7710 H   0  0  0  0  0  0  0  0  0  0  0  0
    3.5479    3.6952   -2.4820 H   0  0  0  0  0  0  0  0  0  0  0  0
    2.1796    2.3552   -4.0965 H   0  0  0  0  0  0  0  0  0  0  0  0
    2.1863   -0.1196   -3.9559 H   0  0  0  0  0  0  0  0  0  0  0  0
    4.4807   -2.1497   -2.6074 H   0  0  0  0  0  0  0  0  0  0  0  0
    2.7731   -2.0728   -3.0418 H   0  0  0  0  0  0  0  0  0  0  0  0
    4.0215   -2.3767   -0.4179 H   0  0  0  0  0  0  0  0  0  0  0  0
    1.9789   -0.8381   -0.2011 H   0  0  0  0  0  0  0  0  0  0  0  0
    0.6711   -2.0624   -1.9896 H   0  0  0  0  0  0  0  0  0  0  0  0
   -0.1340   -1.9349   -0.4351 H   0  0  0  0  0  0  0  0  0  0  0  0
    1.3601   -4.4115   -1.4842 H   0  0  0  0  0  0  0  0  0  0  0  0
   -0.4005   -4.2476   -1.3526 H   0  0  0  0  0  0  0  0  0  0  0  0
    0.5693   -5.5582    0.5823 H   0  0  0  0  0  0  0  0  0  0  0  0
   -0.2443   -4.0958    1.1215 H   0  0  0  0  0  0  0  0  0  0  0  0
    2.7902   -4.4630    0.7474 H   0  0  0  0  0  0  0  0  0  0  0  0
    1.9428   -4.3042    2.3017 H   0  0  0  0  0  0  0  0  0  0  0  0
    3.0912   -2.1954    1.5770 H   0  0  0  0  0  0  0  0  0  0  0  0
    0.2840   -2.0635    1.7769 H   0  0  0  0  0  0  0  0  0  0  0  0
  1  2  1  0
  1 20  1  0
  1 21  1  0
  2  3  2  0
  2  5  1  0
  3  4  1  0
  4 22  1  0
  5  6  2  0
  5 10  1  0
  6  7  1  0
  6 23  1  0
  7  8  2  0
  7 24  1  0
  8  9  1  0
  8 25  1  0
  9 10  2  0
  9 26  1  0
 10 11  1  0
 11 12  1  0
 11 27  1  0
 11 28  1  0
 12 13  1  0
 12 29  1  0
 13 14  1  0
 13 18  1  0
 13 30  1  1
 14 15  1  0
 14 31  1  0
 14 32  1  0
 15 16  1  0
 15 33  1  0
 15 34  1  0
 16 17  1  0
 16 35  1  0
 16 36  1  0
 17 18  1  0
 17 37  1  0
 17 38  1  0
 18 19  1  0
 18 39  1  1
 19 40  1  0
M  END

