
     RDKit          3D

 44 46  0  0  0  0  0  0  0  0999 V2000
    2.9495    0.6349    1.0858 C   0  0  0  0  0  0  0  0  0  0  0  0
    2.2843   -0.0581   -0.0100 N   0  0  0  0  0  0  0  0  0  0  0  0
    2.7558   -1.4130   -0.2072 C   0  0  0  0  0  0  0  0  0  0  0  0
    2.3743   -2.4254    0.8987 C   0  0  0  0  0  0  0  0  0  0  0  0
    1.6731   -2.1019    1.8515 O   0  0  0  0  0  0  0  0  0  0  0  0
    2.8304   -3.7007    0.7546 N   0  0  0  0  0  0  0  0  0  0  0  0
    3.6701   -4.2376   -0.3151 C   0  0  0  0  0  0  0  0  0  0  0  0
    3.3630   -5.7347   -0.2613 C   0  0  0  0  0  0  0  0  0  0  0  0
    3.1588   -6.0179    1.2344 C   0  0  1  0  0  0  0  0  0  0  0  0
    2.4605   -7.3382    1.6675 C   0  0  0  0  0  0  0  0  0  0  0  0
    3.5274   -7.5248    2.7752 C   0  0  0  0  0  0  0  0  0  0  0  0
    4.4054   -6.4637    2.0666 C   0  0  0  0  0  0  0  0  0  0  0  0
    2.4979   -4.7202    1.7546 C   0  0  0  0  0  0  0  0  0  0  0  0
    0.8345    0.1266   -0.0793 C   0  0  1  0  0  0  0  0  0  0  0  0
    0.4202    1.6187   -0.0619 C   0  0  0  0  0  0  0  0  0  0  0  0
   -1.0723    1.6747   -0.3548 C   0  0  0  0  0  0  0  0  0  0  0  0
   -1.3076    0.4692   -1.7238 S   0  0  2  0  0  0  0  0  0  0  0  0
   -1.1499    1.1728   -3.0056 O   0  0  0  0  0  0  0  0  0  0  0  0
   -2.4780   -0.3787   -1.4642 O   0  0  0  0  0  0  0  0  0  0  0  0
    0.2517   -0.4607   -1.3767 C   0  0  0  0  0  0  0  0  0  0  0  0
    4.0294    0.4251    1.0378 H   0  0  0  0  0  0  0  0  0  0  0  0
    2.5914    0.3323    2.0884 H   0  0  0  0  0  0  0  0  0  0  0  0
    2.8374    1.7246    0.9868 H   0  0  0  0  0  0  0  0  0  0  0  0
    3.8555   -1.3918   -0.3021 H   0  0  0  0  0  0  0  0  0  0  0  0
    2.3918   -1.8030   -1.1726 H   0  0  0  0  0  0  0  0  0  0  0  0
    4.7410   -4.0481   -0.1092 H   0  0  0  0  0  0  0  0  0  0  0  0
    3.4353   -3.7834   -1.2886 H   0  0  0  0  0  0  0  0  0  0  0  0
    4.1526   -6.3550   -0.7121 H   0  0  0  0  0  0  0  0  0  0  0  0
    2.4248   -5.9375   -0.8056 H   0  0  0  0  0  0  0  0  0  0  0  0
    2.5318   -8.1095    0.8844 H   0  0  0  0  0  0  0  0  0  0  0  0
    1.4073   -7.2630    1.9809 H   0  0  0  0  0  0  0  0  0  0  0  0
    3.9575   -8.5305    2.8915 H   0  0  0  0  0  0  0  0  0  0  0  0
    3.1727   -7.1886    3.7615 H   0  0  0  0  0  0  0  0  0  0  0  0
    5.1802   -6.9205    1.4305 H   0  0  0  0  0  0  0  0  0  0  0  0
    4.8848   -5.6990    2.6978 H   0  0  0  0  0  0  0  0  0  0  0  0
    2.8768   -4.4258    2.7480 H   0  0  0  0  0  0  0  0  0  0  0  0
    1.4026   -4.8050    1.8508 H   0  0  0  0  0  0  0  0  0  0  0  0
    0.3303   -0.3657    0.7761 H   0  0  0  0  0  0  0  0  0  0  0  0
    0.9851    2.1628   -0.8371 H   0  0  0  0  0  0  0  0  0  0  0  0
    0.6403    2.0874    0.9076 H   0  0  0  0  0  0  0  0  0  0  0  0
   -1.4412    2.6427   -0.7169 H   0  0  0  0  0  0  0  0  0  0  0  0
   -1.6909    1.3134    0.4786 H   0  0  0  0  0  0  0  0  0  0  0  0
    0.9022   -0.2648   -2.2400 H   0  0  0  0  0  0  0  0  0  0  0  0
   -0.0273   -1.5201   -1.3232 H   0  0  0  0  0  0  0  0  0  0  0  0
  1  2  1  0
  1 21  1  0
  1 22  1  0
  1 23  1  0
  2  3  1  0
  2 14  1  0
  3  4  1  0
  3 24  1  0
  3 25  1  0
  4  5  2  0
  4  6  1  0
  6  7  1  0
  6 13  1  0
  7  8  1  0
  7 26  1  0
  7 27  1  0
  9  8  1  6
  8 28  1  0
  8 29  1  0
  9 10  1  0
  9 12  1  0
  9 13  1  0
 10 11  1  0
 10 30  1  0
 10 31  1  0
 11 12  1  0
 11 32  1  0
 11 33  1  0
 12 34  1  0
 12 35  1  0
 13 36  1  0
 13 37  1  0
 14 15  1  0
 14 20  1  0
 14 38  1  1
 15 16  1  0
 15 39  1  0
 15 40  1  0
 17 16  1  1
 16 41  1  0
 16 42  1  0
 17 18  2  0
 17 19  2  0
 17 20  1  0
 20 43  1  0
 20 44  1  0
M  END

