
     RDKit          3D

 57 59  0  0  0  0  0  0  0  0999 V2000
    1.8819   -0.7865    3.0082 C   0  0  0  0  0  0  0  0  0  0  0  0
    2.5484   -2.1176    3.1602 C   0  0  0  0  0  0  0  0  0  0  0  0
    2.9358   -2.5322    4.3431 N   0  0  0  0  0  0  0  0  0  0  0  0
    3.5433   -3.7601    4.1431 O   0  0  0  0  0  0  0  0  0  0  0  0
    3.5167   -4.0745    2.8353 C   0  0  0  0  0  0  0  0  0  0  0  0
    4.1613   -5.3619    2.4513 C   0  0  0  0  0  0  0  0  0  0  0  0
    2.8876   -3.0759    2.1366 C   0  0  0  0  0  0  0  0  0  0  0  0
    2.6236   -2.9672    0.6590 C   0  0  0  0  0  0  0  0  0  0  0  0
    1.1315   -2.8232    0.3104 C   0  0  0  0  0  0  0  0  0  0  0  0
    0.6730   -1.7151    0.0746 O   0  0  0  0  0  0  0  0  0  0  0  0
    0.3437   -3.9501    0.2915 N   0  0  0  0  0  0  0  0  0  0  0  0
   -1.0908   -3.8129    0.0332 C   0  0  0  0  0  0  0  0  0  0  0  0
   -1.5508   -4.8148   -1.0226 C   0  0  0  0  0  0  0  0  0  0  0  0
   -1.1526   -6.1663   -0.6433 N   0  0  0  0  0  0  0  0  0  0  0  0
   -2.0183   -7.2139   -0.9417 C   0  0  0  0  0  0  0  0  0  0  0  0
   -3.0974   -7.0261   -1.4838 O   0  0  0  0  0  0  0  0  0  0  0  0
   -1.5717   -8.4772   -0.5836 N   0  0  0  0  0  0  0  0  0  0  0  0
   -2.4814   -9.6180   -0.7014 C   0  0  1  0  0  0  0  0  0  0  0  0
   -2.7482   -9.9984   -2.1592 C   0  0  0  0  0  0  0  0  0  0  0  0
   -1.8557  -10.7945    0.0422 C   0  0  0  0  0  0  0  0  0  0  0  0
   -1.5643  -10.3888    1.3697 O   0  0  0  0  0  0  0  0  0  0  0  0
   -1.0027  -11.2725    2.2443 C   0  0  0  0  0  0  0  0  0  0  0  0
   -0.6564  -12.5925    1.9211 C   0  0  0  0  0  0  0  0  0  0  0  0
   -0.0805  -13.4210    2.8927 C   0  0  0  0  0  0  0  0  0  0  0  0
    0.1432  -12.9278    4.1722 C   0  0  0  0  0  0  0  0  0  0  0  0
    0.6959  -13.7237    5.1018 F   0  0  0  0  0  0  0  0  0  0  0  0
   -0.1982  -11.6173    4.5101 C   0  0  0  0  0  0  0  0  0  0  0  0
   -0.7711  -10.7932    3.5453 C   0  0  0  0  0  0  0  0  0  0  0  0
    0.2769   -6.3035   -0.4148 C   0  0  0  0  0  0  0  0  0  0  0  0
    0.7513   -5.3010    0.6445 C   0  0  0  0  0  0  0  0  0  0  0  0
    1.7650   -0.3174    3.9945 H   0  0  0  0  0  0  0  0  0  0  0  0
    0.8999   -0.8774    2.5220 H   0  0  0  0  0  0  0  0  0  0  0  0
    2.4852   -0.1214    2.3690 H   0  0  0  0  0  0  0  0  0  0  0  0
    3.5773   -6.2268    2.8083 H   0  0  0  0  0  0  0  0  0  0  0  0
    5.1639   -5.4377    2.9005 H   0  0  0  0  0  0  0  0  0  0  0  0
    4.2680   -5.4396    1.3606 H   0  0  0  0  0  0  0  0  0  0  0  0
    3.0837   -3.8139    0.1282 H   0  0  0  0  0  0  0  0  0  0  0  0
    3.0807   -2.0496    0.2599 H   0  0  0  0  0  0  0  0  0  0  0  0
   -1.2730   -2.7818   -0.2918 H   0  0  0  0  0  0  0  0  0  0  0  0
   -1.6487   -3.9866    0.9729 H   0  0  0  0  0  0  0  0  0  0  0  0
   -1.1093   -4.5465   -2.0032 H   0  0  0  0  0  0  0  0  0  0  0  0
   -2.6416   -4.7979   -1.1339 H   0  0  0  0  0  0  0  0  0  0  0  0
   -1.0126   -8.5162    0.2633 H   0  0  0  0  0  0  0  0  0  0  0  0
   -3.4464   -9.3751   -0.2184 H   0  0  0  0  0  0  0  0  0  0  0  0
   -1.8075  -10.2468   -2.6770 H   0  0  0  0  0  0  0  0  0  0  0  0
   -3.2260   -9.1592   -2.6795 H   0  0  0  0  0  0  0  0  0  0  0  0
   -3.4209  -10.8695   -2.2140 H   0  0  0  0  0  0  0  0  0  0  0  0
   -0.9277  -11.1145   -0.4693 H   0  0  0  0  0  0  0  0  0  0  0  0
   -2.5599  -11.6453    0.0419 H   0  0  0  0  0  0  0  0  0  0  0  0
   -0.8274  -12.9918    0.9216 H   0  0  0  0  0  0  0  0  0  0  0  0
    0.1954  -14.4514    2.6598 H   0  0  0  0  0  0  0  0  0  0  0  0
   -0.0140  -11.2595    5.5251 H   0  0  0  0  0  0  0  0  0  0  0  0
   -1.0547   -9.7658    3.7823 H   0  0  0  0  0  0  0  0  0  0  0  0
    0.8322   -6.1157   -1.3573 H   0  0  0  0  0  0  0  0  0  0  0  0
    0.5277   -7.3219   -0.0943 H   0  0  0  0  0  0  0  0  0  0  0  0
    1.8400   -5.3618    0.7402 H   0  0  0  0  0  0  0  0  0  0  0  0
    0.3149   -5.5782    1.6237 H   0  0  0  0  0  0  0  0  0  0  0  0
  1  2  1  0
  1 31  1  0
  1 32  1  0
  1 33  1  0
  2  3  2  0
  2  7  1  0
  3  4  1  0
  4  5  1  0
  5  6  1  0
  5  7  2  0
  6 34  1  0
  6 35  1  0
  6 36  1  0
  7  8  1  0
  8  9  1  0
  8 37  1  0
  8 38  1  0
  9 10  2  0
  9 11  1  0
 11 12  1  0
 11 30  1  0
 12 13  1  0
 12 39  1  0
 12 40  1  0
 13 14  1  0
 13 41  1  0
 13 42  1  0
 14 15  1  0
 14 29  1  0
 15 16  2  0
 15 17  1  0
 17 18  1  0
 17 43  1  0
 18 19  1  0
 18 20  1  0
 18 44  1  1
 19 45  1  0
 19 46  1  0
 19 47  1  0
 20 21  1  0
 20 48  1  0
 20 49  1  0
 21 22  1  0
 22 23  2  0
 22 28  1  0
 23 24  1  0
 23 50  1  0
 24 25  2  0
 24 51  1  0
 25 26  1  0
 25 27  1  0
 27 28  2  0
 27 52  1  0
 28 53  1  0
 29 30  1  0
 29 54  1  0
 29 55  1  0
 30 56  1  0
 30 57  1  0
M  END

