
     RDKit          3D

 57 60  0  0  0  0  0  0  0  0999 V2000
   12.6926    7.4148   -4.6650 C   0  0  0  0  0  0  0  0  0  0  0  0
   12.3190    6.0557   -4.1252 C   0  0  0  0  0  0  0  0  0  0  0  0
   12.4156    4.8975   -4.9083 C   0  0  0  0  0  0  0  0  0  0  0  0
   12.0664    3.6342   -4.4230 C   0  0  0  0  0  0  0  0  0  0  0  0
   11.5986    3.5028   -3.1053 C   0  0  0  0  0  0  0  0  0  0  0  0
   11.2159    2.2754   -2.5287 N   0  0  0  0  0  0  0  0  0  0  0  0
   11.2503    1.0139   -3.0731 C   0  0  0  0  0  0  0  0  0  0  0  0
   11.6839    0.7662   -4.1883 O   0  0  0  0  0  0  0  0  0  0  0  0
   10.7268   -0.0844   -2.1784 C   0  0  0  0  0  0  0  0  0  0  0  0
    9.8820    0.1233   -1.0789 C   0  0  0  0  0  0  0  0  0  0  0  0
    9.4555   -0.9731   -0.3253 C   0  0  0  0  0  0  0  0  0  0  0  0
    9.8475   -2.2715   -0.6469 C   0  0  0  0  0  0  0  0  0  0  0  0
   10.6829   -2.4937   -1.7630 C   0  0  0  0  0  0  0  0  0  0  0  0
   11.0915   -3.7918   -2.1433 N   0  0  0  0  0  0  0  0  0  0  0  0
   11.8033   -4.0251   -3.4012 C   0  0  0  0  0  0  0  0  0  0  0  0
   11.7904   -5.5599   -3.5688 C   0  0  1  0  0  0  0  0  0  0  0  0
   10.8754   -5.8486   -4.1041 H   0  0  0  0  0  0  0  0  0  0  0  0
   12.9277   -6.1445   -4.4116 C   0  0  0  0  0  0  0  0  0  0  0  0
   12.6991   -6.8476   -5.3824 O   0  0  0  0  0  0  0  0  0  0  0  0
   14.1974   -5.8303   -4.0110 N   0  0  0  0  0  0  0  0  0  0  0  0
   15.3793   -6.3707   -4.6770 C   0  0  0  0  0  0  0  0  0  0  0  0
   15.9429   -7.6159   -4.0186 C   0  0  0  0  0  0  0  0  0  0  0  0
   15.2613   -8.8420   -4.1227 C   0  0  0  0  0  0  0  0  0  0  0  0
   15.7566   -9.9912   -3.5062 C   0  0  0  0  0  0  0  0  0  0  0  0
   16.9464   -9.9107   -2.7826 C   0  0  0  0  0  0  0  0  0  0  0  0
   17.4271  -11.0136   -2.1907 F   0  0  0  0  0  0  0  0  0  0  0  0
   17.6481   -8.7147   -2.6636 C   0  0  0  0  0  0  0  0  0  0  0  0
   17.1368   -7.5712   -3.2855 C   0  0  0  0  0  0  0  0  0  0  0  0
   11.7001   -6.0673   -2.1218 C   0  0  0  0  0  0  0  0  0  0  0  0
   10.9996   -4.9430   -1.3656 C   0  0  0  0  0  0  0  0  0  0  0  0
   10.4866   -5.0409   -0.2720 O   0  0  0  0  0  0  0  0  0  0  0  0
   11.1081   -1.3889   -2.5185 C   0  0  0  0  0  0  0  0  0  0  0  0
   11.4964    4.6569   -2.3059 C   0  0  0  0  0  0  0  0  0  0  0  0
   11.8512    5.9053   -2.8088 C   0  0  0  0  0  0  0  0  0  0  0  0
   13.1149    7.3438   -5.6783 H   0  0  0  0  0  0  0  0  0  0  0  0
   13.4386    7.9134   -4.0238 H   0  0  0  0  0  0  0  0  0  0  0  0
   11.8159    8.0832   -4.7157 H   0  0  0  0  0  0  0  0  0  0  0  0
   12.7782    4.9774   -5.9373 H   0  0  0  0  0  0  0  0  0  0  0  0
   12.1558    2.7494   -5.0482 H   0  0  0  0  0  0  0  0  0  0  0  0
   10.9306    2.3340   -1.5594 H   0  0  0  0  0  0  0  0  0  0  0  0
    9.5201    1.1209   -0.8184 H   0  0  0  0  0  0  0  0  0  0  0  0
    8.7915   -0.8175    0.5287 H   0  0  0  0  0  0  0  0  0  0  0  0
    9.5190   -3.1164   -0.0476 H   0  0  0  0  0  0  0  0  0  0  0  0
   12.8297   -3.6174   -3.3526 H   0  0  0  0  0  0  0  0  0  0  0  0
   11.2967   -3.5219   -4.2378 H   0  0  0  0  0  0  0  0  0  0  0  0
   14.3338   -5.3483   -3.1304 H   0  0  0  0  0  0  0  0  0  0  0  0
   16.1490   -5.5840   -4.7151 H   0  0  0  0  0  0  0  0  0  0  0  0
   15.0720   -6.5938   -5.7082 H   0  0  0  0  0  0  0  0  0  0  0  0
   14.3334   -8.8887   -4.6984 H   0  0  0  0  0  0  0  0  0  0  0  0
   15.2404  -10.9504   -3.5819 H   0  0  0  0  0  0  0  0  0  0  0  0
   18.5785   -8.6919   -2.0930 H   0  0  0  0  0  0  0  0  0  0  0  0
   17.6860   -6.6288   -3.2001 H   0  0  0  0  0  0  0  0  0  0  0  0
   12.6917   -6.2173   -1.6584 H   0  0  0  0  0  0  0  0  0  0  0  0
   11.1484   -7.0100   -2.0061 H   0  0  0  0  0  0  0  0  0  0  0  0
   11.7454   -1.4967   -3.3946 H   0  0  0  0  0  0  0  0  0  0  0  0
   11.1336    4.5722   -1.2765 H   0  0  0  0  0  0  0  0  0  0  0  0
   11.7615    6.7832   -2.1620 H   0  0  0  0  0  0  0  0  0  0  0  0
  1  2  1  0
  1 35  1  0
  1 36  1  0
  1 37  1  0
  2  3  2  0
  2 34  1  0
  3  4  1  0
  3 38  1  0
  4  5  2  0
  4 39  1  0
  5  6  1  0
  5 33  1  0
  6  7  1  0
  6 40  1  0
  7  8  2  0
  7  9  1  0
  9 10  2  0
  9 32  1  0
 10 11  1  0
 10 41  1  0
 11 12  2  0
 11 42  1  0
 12 13  1  0
 12 43  1  0
 13 14  1  0
 13 32  2  0
 14 15  1  0
 14 30  1  0
 15 16  1  0
 15 44  1  0
 15 45  1  0
 16 17  1  6
 16 18  1  0
 16 29  1  0
 18 19  2  0
 18 20  1  0
 20 21  1  0
 20 46  1  0
 21 22  1  0
 21 47  1  0
 21 48  1  0
 22 23  2  0
 22 28  1  0
 23 24  1  0
 23 49  1  0
 24 25  2  0
 24 50  1  0
 25 26  1  0
 25 27  1  0
 27 28  2  0
 27 51  1  0
 28 52  1  0
 29 30  1  0
 29 53  1  0
 29 54  1  0
 30 31  2  0
 32 55  1  0
 33 34  2  0
 33 56  1  0
 34 57  1  0
M  END

