
     RDKit          3D

 53 52  0  0  0  0  0  0  0  0999 V2000
    2.9645   -1.0657   -1.9713 C   0  0  0  0  0  0  0  0  0  0  0  0
    1.4703   -1.1962   -1.6351 C   0  0  0  0  0  0  0  0  0  0  0  0
    1.0286   -0.3311   -0.4696 C   0  0  0  0  0  0  0  0  0  0  0  0
    0.6917   -0.8090    0.7596 C   0  0  0  0  0  0  0  0  0  0  0  0
    0.6658   -2.2631    1.1864 C   0  0  1  0  0  0  0  0  0  0  0  0
    2.0541   -2.7917    1.6001 C   0  0  0  0  0  0  0  0  0  0  0  0
   -0.3879   -2.5324    2.3056 C   0  0  1  0  0  0  0  0  0  0  0  0
    0.0336   -2.0788    3.7096 C   0  0  0  0  0  0  0  0  0  0  0  0
   -1.7556   -2.0983    1.9170 N   0  0  0  0  0  0  0  0  0  0  0  0
   -2.5584   -3.0251    1.1066 C   0  0  0  0  0  0  0  0  0  0  0  0
   -2.8215   -2.5527   -0.3287 C   0  0  0  0  0  0  0  0  0  0  0  0
   -1.6479   -2.2971   -1.0638 O   0  0  0  0  0  0  0  0  0  0  0  0
   -2.2845   -0.9038    2.3406 C   0  0  0  0  0  0  0  0  0  0  0  0
   -1.6681   -0.0113    2.8950 O   0  0  0  0  0  0  0  0  0  0  0  0
   -3.6119   -0.8437    2.0627 O   0  0  0  0  0  0  0  0  0  0  0  0
   -4.4295    0.3159    2.4235 C   0  0  1  0  0  0  0  0  0  0  0  0
   -3.9241    1.5735    1.7075 C   0  0  0  0  0  0  0  0  0  0  0  0
   -5.8181   -0.0726    1.9093 C   0  0  0  0  0  0  0  0  0  0  0  0
   -4.4501    0.4907    3.9462 C   0  0  0  0  0  0  0  0  0  0  0  0
    0.9828    1.0211   -0.7824 N   0  0  0  0  0  0  0  0  0  0  0  0
    0.7791    2.0446    0.2128 C   0  0  0  0  0  0  0  0  0  0  0  0
    3.2307   -1.7062   -2.8272 H   0  0  0  0  0  0  0  0  0  0  0  0
    3.5925   -1.3614   -1.1163 H   0  0  0  0  0  0  0  0  0  0  0  0
    3.2429   -0.0326   -2.2387 H   0  0  0  0  0  0  0  0  0  0  0  0
    1.2322   -2.2479   -1.4286 H   0  0  0  0  0  0  0  0  0  0  0  0
    0.8706   -0.9190   -2.5204 H   0  0  0  0  0  0  0  0  0  0  0  0
    0.4202   -0.0875    1.5325 H   0  0  0  0  0  0  0  0  0  0  0  0
    0.3365   -2.8747    0.3304 H   0  0  0  0  0  0  0  0  0  0  0  0
    2.5134   -2.1651    2.3800 H   0  0  0  0  0  0  0  0  0  0  0  0
    2.7355   -2.7892    0.7361 H   0  0  0  0  0  0  0  0  0  0  0  0
    2.0009   -3.8280    1.9785 H   0  0  0  0  0  0  0  0  0  0  0  0
   -0.4730   -3.6306    2.3687 H   0  0  0  0  0  0  0  0  0  0  0  0
    0.3195   -1.0221    3.7552 H   0  0  0  0  0  0  0  0  0  0  0  0
    0.8815   -2.6936    4.0452 H   0  0  0  0  0  0  0  0  0  0  0  0
   -0.7888   -2.2321    4.4246 H   0  0  0  0  0  0  0  0  0  0  0  0
   -3.5248   -3.2216    1.5990 H   0  0  0  0  0  0  0  0  0  0  0  0
   -2.0054   -3.9749    1.0676 H   0  0  0  0  0  0  0  0  0  0  0  0
   -3.4877   -1.6710   -0.3065 H   0  0  0  0  0  0  0  0  0  0  0  0
   -3.3658   -3.3550   -0.8559 H   0  0  0  0  0  0  0  0  0  0  0  0
   -1.1764   -1.5628   -0.6350 H   0  0  0  0  0  0  0  0  0  0  0  0
   -3.8677    1.4006    0.6212 H   0  0  0  0  0  0  0  0  0  0  0  0
   -2.9312    1.8633    2.0726 H   0  0  0  0  0  0  0  0  0  0  0  0
   -4.6242    2.4055    1.8831 H   0  0  0  0  0  0  0  0  0  0  0  0
   -5.8023   -0.2252    0.8193 H   0  0  0  0  0  0  0  0  0  0  0  0
   -6.5451    0.7215    2.1379 H   0  0  0  0  0  0  0  0  0  0  0  0
   -6.1601   -1.0049    2.3837 H   0  0  0  0  0  0  0  0  0  0  0  0
   -3.4531    0.7467    4.3258 H   0  0  0  0  0  0  0  0  0  0  0  0
   -4.7884   -0.4377    4.4329 H   0  0  0  0  0  0  0  0  0  0  0  0
   -5.1524    1.2940    4.2192 H   0  0  0  0  0  0  0  0  0  0  0  0
    1.5085    1.2983   -1.6009 H   0  0  0  0  0  0  0  0  0  0  0  0
   -0.1999    1.9237    0.7067 H   0  0  0  0  0  0  0  0  0  0  0  0
    0.7925    3.0318   -0.2717 H   0  0  0  0  0  0  0  0  0  0  0  0
    1.5477    2.0367    1.0129 H   0  0  0  0  0  0  0  0  0  0  0  0
  1  2  1  0
  1 22  1  0
  1 23  1  0
  1 24  1  0
  2  3  1  0
  2 25  1  0
  2 26  1  0
  3  4  2  0
  3 20  1  0
  4  5  1  0
  4 27  1  0
  5  6  1  0
  5  7  1  0
  5 28  1  6
  6 29  1  0
  6 30  1  0
  6 31  1  0
  7  8  1  0
  7  9  1  0
  7 32  1  1
  8 33  1  0
  8 34  1  0
  8 35  1  0
  9 10  1  0
  9 13  1  0
 10 11  1  0
 10 36  1  0
 10 37  1  0
 11 12  1  0
 11 38  1  0
 11 39  1  0
 12 40  1  0
 13 14  2  0
 13 15  1  0
 16 15  1  1
 16 17  1  0
 16 18  1  0
 16 19  1  0
 17 41  1  0
 17 42  1  0
 17 43  1  0
 18 44  1  0
 18 45  1  0
 18 46  1  0
 19 47  1  0
 19 48  1  0
 19 49  1  0
 20 21  1  0
 20 50  1  0
 21 51  1  0
 21 52  1  0
 21 53  1  0
M  END

