
     RDKit          3D

 29 29  0  0  0  0  0  0  0  0999 V2000
    1.1977    2.5151    0.6724 C   0  0  0  0  0  0  0  0  0  0  0  0
    2.5711    2.1446    0.9250 N   0  0  0  0  0  0  0  0  0  0  0  0
    3.0177    0.8617    0.8727 C   0  0  0  0  0  0  0  0  0  0  0  0
    2.3230   -0.1079    0.6183 O   0  0  0  0  0  0  0  0  0  0  0  0
    4.5242    0.7096    1.1232 C   0  0  0  0  0  0  0  0  0  0  0  0
    5.1193    1.8297    1.8414 N   0  0  0  0  0  0  0  0  0  0  0  0
    6.5884    1.8875    1.8280 C   0  0  1  0  0  0  0  0  0  0  0  0
    7.1143    2.3510    0.4594 C   0  0  0  0  0  0  0  0  0  0  0  0
    7.0820    2.8160    2.9261 C   0  0  0  0  0  0  0  0  0  0  0  0
    8.2070    2.4929    3.6958 C   0  0  0  0  0  0  0  0  0  0  0  0
    8.6514    3.3912    4.6709 C   0  0  0  0  0  0  0  0  0  0  0  0
    8.0580    4.5600    4.9233 N   0  0  0  0  0  0  0  0  0  0  0  0
    6.9839    4.8698    4.1926 C   0  0  0  0  0  0  0  0  0  0  0  0
    6.4611    4.0450    3.1923 C   0  0  0  0  0  0  0  0  0  0  0  0
    1.1043    3.1568   -0.2211 H   0  0  0  0  0  0  0  0  0  0  0  0
    0.7575    3.0517    1.5302 H   0  0  0  0  0  0  0  0  0  0  0  0
    0.6274    1.5921    0.5013 H   0  0  0  0  0  0  0  0  0  0  0  0
    3.2748    2.8465    1.1357 H   0  0  0  0  0  0  0  0  0  0  0  0
    4.9910    0.6243    0.1283 H   0  0  0  0  0  0  0  0  0  0  0  0
    4.6647   -0.2740    1.6127 H   0  0  0  0  0  0  0  0  0  0  0  0
    4.8022    1.8059    2.8107 H   0  0  0  0  0  0  0  0  0  0  0  0
    7.0226    0.8852    2.0311 H   0  0  0  0  0  0  0  0  0  0  0  0
    6.7363    3.3577    0.2235 H   0  0  0  0  0  0  0  0  0  0  0  0
    6.8037    1.6674   -0.3456 H   0  0  0  0  0  0  0  0  0  0  0  0
    8.2142    2.3831    0.4617 H   0  0  0  0  0  0  0  0  0  0  0  0
    8.7341    1.5469    3.5434 H   0  0  0  0  0  0  0  0  0  0  0  0
    9.5302    3.1462    5.2797 H   0  0  0  0  0  0  0  0  0  0  0  0
    6.5059    5.8326    4.4108 H   0  0  0  0  0  0  0  0  0  0  0  0
    5.5790    4.3553    2.6287 H   0  0  0  0  0  0  0  0  0  0  0  0
  1  2  1  0
  1 15  1  0
  1 16  1  0
  1 17  1  0
  2  3  1  0
  2 18  1  0
  3  4  2  0
  3  5  1  0
  5  6  1  0
  5 19  1  0
  5 20  1  0
  6  7  1  0
  6 21  1  0
  7  8  1  0
  7  9  1  0
  7 22  1  1
  8 23  1  0
  8 24  1  0
  8 25  1  0
  9 10  2  0
  9 14  1  0
 10 11  1  0
 10 26  1  0
 11 12  2  0
 11 27  1  0
 12 13  1  0
 13 14  2  0
 13 28  1  0
 14 29  1  0
M  END

