
     RDKit          3D

 62 69  0  0  0  0  0  0  0  0999 V2000
    1.3131   -0.3494    3.4282 C   0  0  0  0  0  0  0  0  0  0  0  0
    1.9397   -0.7600    2.2487 C   0  0  0  0  0  0  0  0  0  0  0  0
    1.9242    0.0902    1.1447 C   0  0  0  0  0  0  0  0  0  0  0  0
    1.2768    1.3329    1.2584 C   0  0  0  0  0  0  0  0  0  0  0  0
    1.2364    2.2749    0.1005 C   0  0  0  0  0  0  0  0  0  0  0  0
    0.6037    3.5223    0.2236 C   0  0  0  0  0  0  0  0  0  0  0  0
    0.5762    4.3995   -0.8705 C   0  0  0  0  0  0  0  0  0  0  0  0
   -0.0358    5.7555   -0.7858 C   0  0  0  0  0  0  0  0  0  0  0  0
    0.7591    6.8619   -1.1308 C   0  0  0  0  0  0  0  0  0  0  0  0
    0.2768    8.1632   -1.0454 C   0  0  0  0  0  0  0  0  0  0  0  0
   -1.0356    8.4150   -0.6111 C   0  0  0  0  0  0  0  0  0  0  0  0
   -1.5623    9.7462   -0.5115 C   0  0  0  0  0  0  0  0  0  0  0  0
   -2.8362    9.9799   -0.0851 C   0  0  0  0  0  0  0  0  0  0  0  0
   -3.7164    8.9013    0.2852 C   0  0  0  0  0  0  0  0  0  0  0  0
   -5.0503    9.1159    0.7296 C   0  0  0  0  0  0  0  0  0  0  0  0
   -5.6240   10.4761    0.9327 C   0  0  0  0  0  0  0  0  0  0  0  0
   -6.8397   10.8416    0.3281 C   0  0  0  0  0  0  0  0  0  0  0  0
   -7.3695   12.1098    0.5792 C   0  0  0  0  0  0  0  0  0  0  0  0
   -6.7872   13.0085    1.3701 N   0  0  0  0  0  0  0  0  0  0  0  0
   -5.6290   12.6754    1.9602 C   0  0  0  0  0  0  0  0  0  0  0  0
   -4.9972   13.6941    2.8507 C   0  0  0  0  0  0  0  0  0  0  0  0
   -5.6131   14.9409    3.0576 C   0  0  0  0  0  0  0  0  0  0  0  0
   -4.9907   15.8641    3.8955 C   0  0  0  0  0  0  0  0  0  0  0  0
   -3.7790   15.5201    4.5005 C   0  0  0  0  0  0  0  0  0  0  0  0
   -3.2456   14.2548    4.2322 C   0  0  0  0  0  0  0  0  0  0  0  0
   -3.8333   13.3670    3.4324 N   0  0  0  0  0  0  0  0  0  0  0  0
   -5.0190   11.4254    1.7695 C   0  0  0  0  0  0  0  0  0  0  0  0
   -5.8713    8.0063    0.9939 C   0  0  0  0  0  0  0  0  0  0  0  0
   -5.4033    6.7036    0.8646 C   0  0  0  0  0  0  0  0  0  0  0  0
   -4.0821    6.4528    0.4571 C   0  0  0  0  0  0  0  0  0  0  0  0
   -3.5691    5.1199    0.3157 C   0  0  0  0  0  0  0  0  0  0  0  0
   -2.2841    4.8876   -0.0770 C   0  0  0  0  0  0  0  0  0  0  0  0
   -1.3791    5.9692   -0.3706 C   0  0  0  0  0  0  0  0  0  0  0  0
   -1.8793    7.3118   -0.2721 C   0  0  0  0  0  0  0  0  0  0  0  0
   -3.2253    7.5576    0.1588 C   0  0  0  0  0  0  0  0  0  0  0  0
    1.2067    3.9674   -2.0507 C   0  0  0  0  0  0  0  0  0  0  0  0
    1.8100    2.7076   -2.0768 C   0  0  0  0  0  0  0  0  0  0  0  0
    1.8284    1.8774   -1.0362 N   0  0  0  0  0  0  0  0  0  0  0  0
    0.6752    1.7241    2.3922 N   0  0  0  0  0  0  0  0  0  0  0  0
    0.6953    0.9057    3.4425 C   0  0  0  0  0  0  0  0  0  0  0  0
    1.3007   -0.9824    4.3184 H   0  0  0  0  0  0  0  0  0  0  0  0
    2.4356   -1.7327    2.1904 H   0  0  0  0  0  0  0  0  0  0  0  0
    2.3951   -0.1727    0.1976 H   0  0  0  0  0  0  0  0  0  0  0  0
    0.1610    3.7867    1.1836 H   0  0  0  0  0  0  0  0  0  0  0  0
    1.7906    6.6908   -1.4476 H   0  0  0  0  0  0  0  0  0  0  0  0
    0.9236    9.0044   -1.3077 H   0  0  0  0  0  0  0  0  0  0  0  0
   -0.9170   10.5824   -0.7935 H   0  0  0  0  0  0  0  0  0  0  0  0
   -3.2054   11.0041   -0.0350 H   0  0  0  0  0  0  0  0  0  0  0  0
   -7.3590   10.1524   -0.3413 H   0  0  0  0  0  0  0  0  0  0  0  0
   -8.3135   12.4104    0.1089 H   0  0  0  0  0  0  0  0  0  0  0  0
   -6.5586   15.1498    2.5572 H   0  0  0  0  0  0  0  0  0  0  0  0
   -5.4458   16.8418    4.0756 H   0  0  0  0  0  0  0  0  0  0  0  0
   -3.2560   16.2115    5.1650 H   0  0  0  0  0  0  0  0  0  0  0  0
   -2.2964   13.9483    4.6881 H   0  0  0  0  0  0  0  0  0  0  0  0
   -4.0889   11.2165    2.2976 H   0  0  0  0  0  0  0  0  0  0  0  0
   -6.8946    8.1781    1.3360 H   0  0  0  0  0  0  0  0  0  0  0  0
   -6.0618    5.8610    1.0910 H   0  0  0  0  0  0  0  0  0  0  0  0
   -4.2380    4.2811    0.5256 H   0  0  0  0  0  0  0  0  0  0  0  0
   -1.9338    3.8613   -0.1856 H   0  0  0  0  0  0  0  0  0  0  0  0
    1.2145    4.5986   -2.9419 H   0  0  0  0  0  0  0  0  0  0  0  0
    2.2996    2.3550   -2.9927 H   0  0  0  0  0  0  0  0  0  0  0  0
    0.1929    1.2631    4.3496 H   0  0  0  0  0  0  0  0  0  0  0  0
  1  2  2  0
  1 40  1  0
  1 41  1  0
  2  3  1  0
  2 42  1  0
  3  4  2  0
  3 43  1  0
  4  5  1  0
  4 39  1  0
  5  6  2  0
  5 38  1  0
  6  7  1  0
  6 44  1  0
  7  8  1  0
  7 36  2  0
  8  9  2  0
  8 33  1  0
  9 10  1  0
  9 45  1  0
 10 11  2  0
 10 46  1  0
 11 12  1  0
 11 34  1  0
 12 13  2  0
 12 47  1  0
 13 14  1  0
 13 48  1  0
 14 15  2  0
 14 35  1  0
 15 16  1  0
 15 28  1  0
 16 17  2  0
 16 27  1  0
 17 18  1  0
 17 49  1  0
 18 19  2  0
 18 50  1  0
 19 20  1  0
 20 21  1  0
 20 27  2  0
 21 22  2  0
 21 26  1  0
 22 23  1  0
 22 51  1  0
 23 24  2  0
 23 52  1  0
 24 25  1  0
 24 53  1  0
 25 26  2  0
 25 54  1  0
 27 55  1  0
 28 29  2  0
 28 56  1  0
 29 30  1  0
 29 57  1  0
 30 31  2  0
 30 35  1  0
 31 32  1  0
 31 58  1  0
 32 33  2  0
 32 59  1  0
 33 34  1  0
 34 35  2  0
 36 37  1  0
 36 60  1  0
 37 38  2  0
 37 61  1  0
 39 40  2  0
 40 62  1  0
M  END

