
     RDKit          3D

 53 55  0  0  0  0  0  0  0  0999 V2000
   -1.7628   -0.9047    4.5512 C   0  0  0  0  0  0  0  0  0  0  0  0
   -0.5458   -0.2803    4.2198 O   0  0  0  0  0  0  0  0  0  0  0  0
    0.2820   -0.8658    3.3145 C   0  0  0  0  0  0  0  0  0  0  0  0
    1.4791   -0.1825    3.0372 C   0  0  0  0  0  0  0  0  0  0  0  0
    2.3750   -0.7232    2.1206 C   0  0  0  0  0  0  0  0  0  0  0  0
    2.1199   -1.9325    1.4631 C   0  0  0  0  0  0  0  0  0  0  0  0
    0.9246   -2.6116    1.7419 C   0  0  0  0  0  0  0  0  0  0  0  0
    0.5797   -3.8309    1.1354 N   0  0  0  0  0  0  0  0  0  0  0  0
    1.2566   -4.5659    0.2038 C   0  0  0  0  0  0  0  0  0  0  0  0
    2.3341   -4.2847   -0.2916 O   0  0  0  0  0  0  0  0  0  0  0  0
    0.5528   -5.9036   -0.1480 C   0  0  1  0  0  0  0  0  0  0  0  0
    0.7947   -6.0573   -1.2173 H   0  0  0  0  0  0  0  0  0  0  0  0
    1.2644   -7.0088    0.6428 C   0  0  0  0  0  0  0  0  0  0  0  0
   -0.8953   -5.8142    0.0943 N   0  0  0  0  0  0  0  0  0  0  0  0
   -1.6040   -5.0492   -0.9471 C   0  0  0  0  0  0  0  0  0  0  0  0
   -1.9248   -5.8998   -2.1889 C   0  0  0  0  0  0  0  0  0  0  0  0
   -2.6580   -7.1251   -1.8764 N   0  0  0  0  0  0  0  0  0  0  0  0
   -4.0927   -6.9701   -1.6723 C   0  0  0  0  0  0  0  0  0  0  0  0
   -4.8738   -8.2386   -1.9747 C   0  0  0  0  0  0  0  0  0  0  0  0
   -4.4425   -9.1726   -2.9278 C   0  0  0  0  0  0  0  0  0  0  0  0
   -5.1929  -10.3155   -3.2166 C   0  0  0  0  0  0  0  0  0  0  0  0
   -6.4008  -10.5469   -2.5504 C   0  0  0  0  0  0  0  0  0  0  0  0
   -6.8547   -9.6332   -1.5962 C   0  0  0  0  0  0  0  0  0  0  0  0
   -6.0872   -8.5024   -1.3288 C   0  0  0  0  0  0  0  0  0  0  0  0
   -6.5381   -7.6242   -0.4092 F   0  0  0  0  0  0  0  0  0  0  0  0
   -1.9700   -7.8879   -0.8315 C   0  0  0  0  0  0  0  0  0  0  0  0
   -1.6458   -7.0375    0.4091 C   0  0  0  0  0  0  0  0  0  0  0  0
    0.0056   -2.0759    2.6688 C   0  0  0  0  0  0  0  0  0  0  0  0
   -2.2563   -0.2597    5.2909 H   0  0  0  0  0  0  0  0  0  0  0  0
   -1.6072   -1.9038    4.9984 H   0  0  0  0  0  0  0  0  0  0  0  0
   -2.4264   -1.0105    3.6731 H   0  0  0  0  0  0  0  0  0  0  0  0
    1.6751    0.7597    3.5517 H   0  0  0  0  0  0  0  0  0  0  0  0
    3.3056   -0.1911    1.9057 H   0  0  0  0  0  0  0  0  0  0  0  0
    2.8211   -2.3530    0.7467 H   0  0  0  0  0  0  0  0  0  0  0  0
   -0.3162   -4.2563    1.3782 H   0  0  0  0  0  0  0  0  0  0  0  0
    2.3468   -6.9077    0.4812 H   0  0  0  0  0  0  0  0  0  0  0  0
    0.9668   -8.0145    0.3116 H   0  0  0  0  0  0  0  0  0  0  0  0
    1.0687   -6.9201    1.7233 H   0  0  0  0  0  0  0  0  0  0  0  0
   -1.0028   -4.1699   -1.2274 H   0  0  0  0  0  0  0  0  0  0  0  0
   -2.5438   -4.6637   -0.5118 H   0  0  0  0  0  0  0  0  0  0  0  0
   -0.9812   -6.1844   -2.6889 H   0  0  0  0  0  0  0  0  0  0  0  0
   -2.4994   -5.3063   -2.9185 H   0  0  0  0  0  0  0  0  0  0  0  0
   -4.4423   -6.1787   -2.3590 H   0  0  0  0  0  0  0  0  0  0  0  0
   -4.3713   -6.6215   -0.6579 H   0  0  0  0  0  0  0  0  0  0  0  0
   -3.4929   -8.9809   -3.4319 H   0  0  0  0  0  0  0  0  0  0  0  0
   -4.8340  -11.0277   -3.9635 H   0  0  0  0  0  0  0  0  0  0  0  0
   -6.9925  -11.4388   -2.7706 H   0  0  0  0  0  0  0  0  0  0  0  0
   -7.7913   -9.7784   -1.0542 H   0  0  0  0  0  0  0  0  0  0  0  0
   -1.0326   -8.2909   -1.2570 H   0  0  0  0  0  0  0  0  0  0  0  0
   -2.5878   -8.7559   -0.5509 H   0  0  0  0  0  0  0  0  0  0  0  0
   -1.1058   -7.6330    1.1574 H   0  0  0  0  0  0  0  0  0  0  0  0
   -2.5891   -6.7246    0.8915 H   0  0  0  0  0  0  0  0  0  0  0  0
   -0.9173   -2.6210    2.8712 H   0  0  0  0  0  0  0  0  0  0  0  0
  1  2  1  0
  1 29  1  0
  1 30  1  0
  1 31  1  0
  2  3  1  0
  3  4  2  0
  3 28  1  0
  4  5  1  0
  4 32  1  0
  5  6  2  0
  5 33  1  0
  6  7  1  0
  6 34  1  0
  7  8  1  0
  7 28  2  0
  8  9  1  0
  8 35  1  0
  9 10  2  0
  9 11  1  0
 11 12  1  6
 11 13  1  0
 11 14  1  0
 13 36  1  0
 13 37  1  0
 13 38  1  0
 14 15  1  0
 14 27  1  0
 15 16  1  0
 15 39  1  0
 15 40  1  0
 16 17  1  0
 16 41  1  0
 16 42  1  0
 17 18  1  0
 17 26  1  0
 18 19  1  0
 18 43  1  0
 18 44  1  0
 19 20  2  0
 19 24  1  0
 20 21  1  0
 20 45  1  0
 21 22  2  0
 21 46  1  0
 22 23  1  0
 22 47  1  0
 23 24  2  0
 23 48  1  0
 24 25  1  0
 26 27  1  0
 26 49  1  0
 26 50  1  0
 27 51  1  0
 27 52  1  0
 28 53  1  0
M  END

