
     RDKit          3D

 44 46  0  0  0  0  0  0  0  0999 V2000
    0.9357    0.5219    3.1167 C   0  0  0  0  0  0  0  0  0  0  0  0
    2.3444    1.0468    3.3954 C   0  0  0  0  0  0  0  0  0  0  0  0
    2.8968    1.8362    2.3091 N   0  0  0  0  0  0  0  0  0  0  0  0
    2.6391    3.1636    2.2373 N   0  0  0  0  0  0  0  0  0  0  0  0
    3.2110    3.6250    1.1355 C   0  0  0  0  0  0  0  0  0  0  0  0
    3.1161    5.0702    0.7296 C   0  0  0  0  0  0  0  0  0  0  0  0
    1.9740    5.2686   -0.2717 C   0  0  0  0  0  0  0  0  0  0  0  0
    2.1822    5.2941   -1.4648 O   0  0  0  0  0  0  0  0  0  0  0  0
    0.5357    5.3929    0.2701 C   0  0  1  0  0  0  0  0  0  0  0  0
   -0.3478    4.3075   -0.3913 C   0  0  0  0  0  0  0  0  0  0  0  0
   -1.8305    4.3507    0.0022 C   0  0  0  0  0  0  0  0  0  0  0  0
   -2.1069    3.9871    1.4713 C   0  0  0  0  0  0  0  0  0  0  0  0
   -1.9282    5.1116    2.5082 C   0  0  0  0  0  0  0  0  0  0  0  0
   -0.7200    6.0560    2.2951 C   0  0  0  0  0  0  0  0  0  0  0  0
    0.4883    5.4920    1.7186 N   0  0  0  0  0  0  0  0  0  0  0  0
    3.8538    2.5566    0.4244 C   0  0  0  0  0  0  0  0  0  0  0  0
    4.5808    2.4430   -0.7776 C   0  0  0  0  0  0  0  0  0  0  0  0
    5.0687    1.1939   -1.1354 C   0  0  0  0  0  0  0  0  0  0  0  0
    4.8432    0.0592   -0.3164 C   0  0  0  0  0  0  0  0  0  0  0  0
    4.1241    0.1417    0.8690 C   0  0  0  0  0  0  0  0  0  0  0  0
    3.6281    1.4095    1.2301 C   0  0  0  0  0  0  0  0  0  0  0  0
    0.5636   -0.0505    3.9812 H   0  0  0  0  0  0  0  0  0  0  0  0
    0.9217   -0.1391    2.2360 H   0  0  0  0  0  0  0  0  0  0  0  0
    0.2407    1.3552    2.9315 H   0  0  0  0  0  0  0  0  0  0  0  0
    3.0390    0.2143    3.5905 H   0  0  0  0  0  0  0  0  0  0  0  0
    2.3495    1.6898    4.2880 H   0  0  0  0  0  0  0  0  0  0  0  0
    4.0434    5.3801    0.2279 H   0  0  0  0  0  0  0  0  0  0  0  0
    2.9349    5.6877    1.6182 H   0  0  0  0  0  0  0  0  0  0  0  0
    0.1903    6.3683   -0.1239 H   0  0  0  0  0  0  0  0  0  0  0  0
    0.0586    3.3125   -0.1320 H   0  0  0  0  0  0  0  0  0  0  0  0
   -0.2386    4.4114   -1.4825 H   0  0  0  0  0  0  0  0  0  0  0  0
   -2.3659    3.6326   -0.6421 H   0  0  0  0  0  0  0  0  0  0  0  0
   -2.2605    5.3413   -0.2361 H   0  0  0  0  0  0  0  0  0  0  0  0
   -1.4543    3.1359    1.7374 H   0  0  0  0  0  0  0  0  0  0  0  0
   -3.1366    3.6025    1.5659 H   0  0  0  0  0  0  0  0  0  0  0  0
   -1.8589    4.6457    3.5072 H   0  0  0  0  0  0  0  0  0  0  0  0
   -2.8391    5.7363    2.5390 H   0  0  0  0  0  0  0  0  0  0  0  0
   -0.4721    6.5202    3.2670 H   0  0  0  0  0  0  0  0  0  0  0  0
   -1.0232    6.8911    1.6408 H   0  0  0  0  0  0  0  0  0  0  0  0
    0.8016    4.6402    2.1849 H   0  0  0  0  0  0  0  0  0  0  0  0
    4.7351    3.3154   -1.4164 H   0  0  0  0  0  0  0  0  0  0  0  0
    5.6314    1.0757   -2.0643 H   0  0  0  0  0  0  0  0  0  0  0  0
    5.2421   -0.9089   -0.6304 H   0  0  0  0  0  0  0  0  0  0  0  0
    3.9510   -0.7426    1.4855 H   0  0  0  0  0  0  0  0  0  0  0  0
  1  2  1  0
  1 22  1  0
  1 23  1  0
  1 24  1  0
  2  3  1  0
  2 25  1  0
  2 26  1  0
  3  4  1  0
  3 21  1  0
  4  5  2  0
  5  6  1  0
  5 16  1  0
  6  7  1  0
  6 27  1  0
  6 28  1  0
  7  8  2  0
  7  9  1  0
  9 10  1  0
  9 15  1  0
  9 29  1  6
 10 11  1  0
 10 30  1  0
 10 31  1  0
 11 12  1  0
 11 32  1  0
 11 33  1  0
 12 13  1  0
 12 34  1  0
 12 35  1  0
 13 14  1  0
 13 36  1  0
 13 37  1  0
 14 15  1  0
 14 38  1  0
 14 39  1  0
 15 40  1  0
 16 17  1  0
 16 21  2  0
 17 18  2  0
 17 41  1  0
 18 19  1  0
 18 42  1  0
 19 20  2  0
 19 43  1  0
 20 21  1  0
 20 44  1  0
M  END

