
     RDKit          3D

 35 36  0  0  0  0  0  0  0  0999 V2000
    2.0842   -2.7071   -1.1063 C   0  0  0  0  0  0  0  0  0  0  0  0
    2.8405   -1.6044   -1.6128 O   0  0  0  0  0  0  0  0  0  0  0  0
    3.8972   -1.9155   -2.3744 C   0  0  0  0  0  0  0  0  0  0  0  0
    4.2311   -3.0460   -2.6425 O   0  0  0  0  0  0  0  0  0  0  0  0
    4.6579   -0.7234   -2.8844 C   0  0  1  0  0  0  0  0  0  0  0  0
    4.2023    0.5889   -2.6498 O   0  0  0  0  0  0  0  0  0  0  0  0
    5.4211    0.2078   -2.0012 C   0  0  1  0  0  0  0  0  0  0  0  0
    5.3307    0.1197   -0.4893 C   0  0  0  0  0  0  0  0  0  0  0  0
    6.6945    0.8043   -2.5562 C   0  0  0  0  0  0  0  0  0  0  0  0
    6.7674    2.1828   -2.8559 C   0  0  0  0  0  0  0  0  0  0  0  0
    5.5918    3.1136   -2.6601 C   0  0  0  0  0  0  0  0  0  0  0  0
    7.9705    2.7023   -3.3573 C   0  0  0  0  0  0  0  0  0  0  0  0
    9.0998    1.9044   -3.5649 C   0  0  0  0  0  0  0  0  0  0  0  0
   10.3795    2.4792   -4.1224 C   0  0  0  0  0  0  0  0  0  0  0  0
    9.0067    0.5443   -3.2439 C   0  0  0  0  0  0  0  0  0  0  0  0
    7.8299   -0.0218   -2.7381 C   0  0  0  0  0  0  0  0  0  0  0  0
    7.8177   -1.4919   -2.3797 C   0  0  0  0  0  0  0  0  0  0  0  0
    1.2612   -2.2711   -0.5273 H   0  0  0  0  0  0  0  0  0  0  0  0
    2.7079   -3.3479   -0.4649 H   0  0  0  0  0  0  0  0  0  0  0  0
    1.6905   -3.3190   -1.9315 H   0  0  0  0  0  0  0  0  0  0  0  0
    5.0723   -0.9151   -3.8828 H   0  0  0  0  0  0  0  0  0  0  0  0
    4.3631   -0.2921   -0.1750 H   0  0  0  0  0  0  0  0  0  0  0  0
    5.4376    1.1275   -0.0584 H   0  0  0  0  0  0  0  0  0  0  0  0
    6.1424   -0.5017   -0.0820 H   0  0  0  0  0  0  0  0  0  0  0  0
    4.7760    2.8805   -3.3602 H   0  0  0  0  0  0  0  0  0  0  0  0
    5.8959    4.1598   -2.8100 H   0  0  0  0  0  0  0  0  0  0  0  0
    5.1600    3.0292   -1.6504 H   0  0  0  0  0  0  0  0  0  0  0  0
    8.0218    3.7700   -3.5915 H   0  0  0  0  0  0  0  0  0  0  0  0
   10.3289    3.5749   -4.2065 H   0  0  0  0  0  0  0  0  0  0  0  0
   10.5931    2.0766   -5.1274 H   0  0  0  0  0  0  0  0  0  0  0  0
   11.2443    2.2274   -3.4867 H   0  0  0  0  0  0  0  0  0  0  0  0
    9.8792   -0.1005   -3.3895 H   0  0  0  0  0  0  0  0  0  0  0  0
    8.7304   -1.9883   -2.7397 H   0  0  0  0  0  0  0  0  0  0  0  0
    6.9541   -2.0304   -2.7982 H   0  0  0  0  0  0  0  0  0  0  0  0
    7.7770   -1.6416   -1.2870 H   0  0  0  0  0  0  0  0  0  0  0  0
  1  2  1  0
  1 18  1  0
  1 19  1  0
  1 20  1  0
  2  3  1  0
  3  4  2  0
  3  5  1  0
  5  6  1  0
  5  7  1  0
  5 21  1  6
  6  7  1  0
  7  8  1  1
  7  9  1  0
  8 22  1  0
  8 23  1  0
  8 24  1  0
  9 10  2  0
  9 16  1  0
 10 11  1  0
 10 12  1  0
 11 25  1  0
 11 26  1  0
 11 27  1  0
 12 13  2  0
 12 28  1  0
 13 14  1  0
 13 15  1  0
 14 29  1  0
 14 30  1  0
 14 31  1  0
 15 16  2  0
 15 32  1  0
 16 17  1  0
 17 33  1  0
 17 34  1  0
 17 35  1  0
M  END

