
     RDKit          3D

 38 39  0  0  0  0  0  0  0  0999 V2000
    2.3253   -2.7773   -0.3850 O   0  0  0  0  0  0  0  0  0  0  0  0
    2.0130   -1.6859   -0.8178 C   0  0  0  0  0  0  0  0  0  0  0  0
    0.5410   -1.2551   -0.9433 C   0  0  0  0  0  0  0  0  0  0  0  0
   -0.3255   -2.3727   -0.9160 O   0  0  0  0  0  0  0  0  0  0  0  0
   -0.3146   -3.1492   -2.0280 C   0  0  0  0  0  0  0  0  0  0  0  0
    0.3071   -2.8621   -3.0213 O   0  0  0  0  0  0  0  0  0  0  0  0
   -1.1766   -4.3416   -1.8473 C   0  0  0  0  0  0  0  0  0  0  0  0
   -1.8299   -4.6727   -0.6102 C   0  0  0  0  0  0  0  0  0  0  0  0
   -2.5656   -5.8189   -0.6917 C   0  0  0  0  0  0  0  0  0  0  0  0
   -3.4922   -6.5639    0.5565 Cl  0  0  0  0  0  0  0  0  0  0  0  0
   -2.4913   -6.5422   -2.2812 S   0  0  0  0  0  0  0  0  0  0  0  0
   -1.4456   -5.2685   -2.8387 C   0  0  0  0  0  0  0  0  0  0  0  0
   -0.9023   -5.3023   -4.4653 Cl  0  0  0  0  0  0  0  0  0  0  0  0
    2.9029   -0.7151   -1.1731 N   0  0  0  0  0  0  0  0  0  0  0  0
    4.3407   -0.9290   -1.1465 C   0  0  0  0  0  0  0  0  0  0  0  0
    4.9395   -1.2158   -2.5280 C   0  0  0  0  0  0  0  0  0  0  0  0
    6.4582   -1.4563   -2.4738 C   0  0  0  0  0  0  0  0  0  0  0  0
    7.0699   -1.7324   -3.8302 C   0  0  0  0  0  0  0  0  0  0  0  0
    7.6253   -0.6960   -4.5973 C   0  0  0  0  0  0  0  0  0  0  0  0
    8.1576   -0.9440   -5.8660 C   0  0  0  0  0  0  0  0  0  0  0  0
    8.1433   -2.2390   -6.3918 C   0  0  0  0  0  0  0  0  0  0  0  0
    7.5945   -3.2817   -5.6387 C   0  0  0  0  0  0  0  0  0  0  0  0
    7.0640   -3.0287   -4.3711 C   0  0  0  0  0  0  0  0  0  0  0  0
    0.3870   -0.6663   -1.8618 H   0  0  0  0  0  0  0  0  0  0  0  0
    0.2692   -0.6445   -0.0693 H   0  0  0  0  0  0  0  0  0  0  0  0
   -1.7344   -4.0718    0.2919 H   0  0  0  0  0  0  0  0  0  0  0  0
    2.5533    0.1117   -1.6443 H   0  0  0  0  0  0  0  0  0  0  0  0
    4.5152   -1.7823   -0.4752 H   0  0  0  0  0  0  0  0  0  0  0  0
    4.8290   -0.0469   -0.6955 H   0  0  0  0  0  0  0  0  0  0  0  0
    4.7273   -0.3724   -3.2097 H   0  0  0  0  0  0  0  0  0  0  0  0
    4.4364   -2.0970   -2.9594 H   0  0  0  0  0  0  0  0  0  0  0  0
    6.6604   -2.3053   -1.7980 H   0  0  0  0  0  0  0  0  0  0  0  0
    6.9493   -0.5768   -2.0223 H   0  0  0  0  0  0  0  0  0  0  0  0
    7.6462    0.3203   -4.1919 H   0  0  0  0  0  0  0  0  0  0  0  0
    8.5889   -0.1225   -6.4443 H   0  0  0  0  0  0  0  0  0  0  0  0
    8.5613   -2.4359   -7.3823 H   0  0  0  0  0  0  0  0  0  0  0  0
    7.5825   -4.2989   -6.0390 H   0  0  0  0  0  0  0  0  0  0  0  0
    6.6405   -3.8522   -3.7882 H   0  0  0  0  0  0  0  0  0  0  0  0
  1  2  2  0
  2  3  1  0
  2 14  1  0
  3  4  1  0
  3 24  1  0
  3 25  1  0
  4  5  1  0
  5  6  2  0
  5  7  1  0
  7  8  1  0
  7 12  2  0
  8  9  2  0
  8 26  1  0
  9 10  1  0
  9 11  1  0
 11 12  1  0
 12 13  1  0
 14 15  1  0
 14 27  1  0
 15 16  1  0
 15 28  1  0
 15 29  1  0
 16 17  1  0
 16 30  1  0
 16 31  1  0
 17 18  1  0
 17 32  1  0
 17 33  1  0
 18 19  2  0
 18 23  1  0
 19 20  1  0
 19 34  1  0
 20 21  2  0
 20 35  1  0
 21 22  1  0
 21 36  1  0
 22 23  2  0
 22 37  1  0
 23 38  1  0
M  END

