
     RDKit          3D

 53 55  0  0  0  0  0  0  0  0999 V2000
    0.9461    0.3171   -0.2429 C   0  0  0  0  0  0  0  0  0  0  0  0
    2.4399    0.1551   -0.0301 C   0  0  0  0  0  0  0  0  0  0  0  0
    3.0992    1.3030   -0.5239 O   0  0  0  0  0  0  0  0  0  0  0  0
    4.4972    1.2940   -0.3748 C   0  0  1  0  0  0  0  0  0  0  0  0
    5.2503    0.5080   -1.4844 C   0  0  0  0  0  0  0  0  0  0  0  0
    5.4897    1.8447   -2.2210 C   0  0  2  0  0  0  0  0  0  0  0  0
    6.7089    2.0612   -2.8807 O   0  0  0  0  0  0  0  0  0  0  0  0
    5.1237    2.6226   -0.9007 C   0  0  1  0  0  0  0  0  0  0  0  0
    4.1716    3.8140   -1.0417 C   0  0  0  0  0  0  0  0  0  0  0  0
    4.8915    5.0644   -1.5642 C   0  0  0  0  0  0  0  0  0  0  0  0
    6.0227    5.4137   -0.7104 N   0  0  0  0  0  0  0  0  0  0  0  0
    6.2209    6.5621    0.0343 C   0  0  0  0  0  0  0  0  0  0  0  0
    7.2005    6.6537    0.7729 O   0  0  0  0  0  0  0  0  0  0  0  0
    5.2186    7.6708   -0.1001 C   0  0  1  0  0  0  0  0  0  0  0  0
    4.7438    8.5285    1.0877 C   0  0  1  0  0  0  0  0  0  0  0  0
    3.2491    8.8144    1.1660 C   0  0  0  0  0  0  0  0  0  0  0  0
    5.3392    8.3211    2.4731 C   0  0  0  0  0  0  0  0  0  0  0  0
    5.5846    9.1629   -0.0040 C   0  0  1  0  0  0  0  0  0  0  0  0
    7.0112    9.6019    0.2944 C   0  0  0  0  0  0  0  0  0  0  0  0
    4.9315   10.0820   -1.0298 C   0  0  0  0  0  0  0  0  0  0  0  0
    7.0019    4.3338   -0.6057 C   0  0  0  0  0  0  0  0  0  0  0  0
    6.3533    3.0457   -0.0781 C   0  0  0  0  0  0  0  0  0  0  0  0
    0.4032   -0.5601    0.1423 H   0  0  0  0  0  0  0  0  0  0  0  0
    0.7165    0.4255   -1.3143 H   0  0  0  0  0  0  0  0  0  0  0  0
    0.5762    1.2135    0.2785 H   0  0  0  0  0  0  0  0  0  0  0  0
    2.8055   -0.7573   -0.5442 H   0  0  0  0  0  0  0  0  0  0  0  0
    2.6686    0.0238    1.0485 H   0  0  0  0  0  0  0  0  0  0  0  0
    4.7680    1.0300    0.6672 H   0  0  0  0  0  0  0  0  0  0  0  0
    4.6830   -0.2690   -2.0179 H   0  0  0  0  0  0  0  0  0  0  0  0
    6.1908    0.0658   -1.1161 H   0  0  0  0  0  0  0  0  0  0  0  0
    4.7068    2.0192   -2.9755 H   0  0  0  0  0  0  0  0  0  0  0  0
    7.4292    1.7618   -2.3105 H   0  0  0  0  0  0  0  0  0  0  0  0
    3.7255    4.0418   -0.0581 H   0  0  0  0  0  0  0  0  0  0  0  0
    3.3380    3.5527   -1.7111 H   0  0  0  0  0  0  0  0  0  0  0  0
    4.1840    5.8963   -1.6350 H   0  0  0  0  0  0  0  0  0  0  0  0
    5.2658    4.8761   -2.5884 H   0  0  0  0  0  0  0  0  0  0  0  0
    4.4253    7.4918   -0.8246 H   0  0  0  0  0  0  0  0  0  0  0  0
    2.7346    8.0036    1.7087 H   0  0  0  0  0  0  0  0  0  0  0  0
    2.7689    8.9077    0.1825 H   0  0  0  0  0  0  0  0  0  0  0  0
    3.0611    9.7501    1.7202 H   0  0  0  0  0  0  0  0  0  0  0  0
    4.7457    7.5773    3.0312 H   0  0  0  0  0  0  0  0  0  0  0  0
    5.3036    9.2648    3.0439 H   0  0  0  0  0  0  0  0  0  0  0  0
    6.3714    7.9587    2.4412 H   0  0  0  0  0  0  0  0  0  0  0  0
    7.5575    8.8831    0.9120 H   0  0  0  0  0  0  0  0  0  0  0  0
    7.0036   10.5847    0.7966 H   0  0  0  0  0  0  0  0  0  0  0  0
    7.5738    9.7184   -0.6471 H   0  0  0  0  0  0  0  0  0  0  0  0
    3.9219    9.7640   -1.3236 H   0  0  0  0  0  0  0  0  0  0  0  0
    5.5437   10.1233   -1.9461 H   0  0  0  0  0  0  0  0  0  0  0  0
    4.8576   11.1111   -0.6379 H   0  0  0  0  0  0  0  0  0  0  0  0
    7.8007    4.6748    0.0623 H   0  0  0  0  0  0  0  0  0  0  0  0
    7.4277    4.1469   -1.6062 H   0  0  0  0  0  0  0  0  0  0  0  0
    6.0383    3.2061    0.9680 H   0  0  0  0  0  0  0  0  0  0  0  0
    7.1116    2.2424   -0.0480 H   0  0  0  0  0  0  0  0  0  0  0  0
  1  2  1  0
  1 23  1  0
  1 24  1  0
  1 25  1  0
  2  3  1  0
  2 26  1  0
  2 27  1  0
  3  4  1  0
  4  5  1  0
  4  8  1  0
  4 28  1  1
  5  6  1  0
  5 29  1  0
  5 30  1  0
  6  7  1  0
  6  8  1  0
  6 31  1  6
  7 32  1  0
  8  9  1  6
  8 22  1  0
  9 10  1  0
  9 33  1  0
  9 34  1  0
 10 11  1  0
 10 35  1  0
 10 36  1  0
 11 12  1  0
 11 21  1  0
 12 13  2  0
 12 14  1  0
 14 15  1  0
 14 18  1  0
 14 37  1  6
 15 16  1  1
 15 17  1  0
 15 18  1  0
 16 38  1  0
 16 39  1  0
 16 40  1  0
 17 41  1  0
 17 42  1  0
 17 43  1  0
 18 19  1  1
 18 20  1  0
 19 44  1  0
 19 45  1  0
 19 46  1  0
 20 47  1  0
 20 48  1  0
 20 49  1  0
 21 22  1  0
 21 50  1  0
 21 51  1  0
 22 52  1  0
 22 53  1  0
M  END

