
     RDKit          3D

 53 54  0  0  0  0  0  0  0  0999 V2000
    2.1665    3.0627   -0.1068 C   0  0  0  0  0  0  0  0  0  0  0  0
    2.5920    4.4891    0.2393 C   0  0  0  0  0  0  0  0  0  0  0  0
    4.1128    4.7157    0.2330 C   0  0  1  0  0  0  0  0  0  0  0  0
    4.4773    6.1907    0.4459 C   0  0  0  0  0  0  0  0  0  0  0  0
    4.7622    3.8683    1.2292 N   0  0  0  0  0  0  0  0  0  0  0  0
    5.9264    3.2080    0.9959 C   0  0  0  0  0  0  0  0  0  0  0  0
    6.4996    3.1789   -0.0858 O   0  0  0  0  0  0  0  0  0  0  0  0
    6.5014    2.4807    2.2279 C   0  0  0  0  0  0  0  0  0  0  0  0
    7.3259    3.3541    3.0776 N   0  0  0  0  0  0  0  0  0  0  0  0
    6.6573    4.1898    3.9438 C   0  0  0  0  0  0  0  0  0  0  0  0
    7.4620    5.1538    4.7957 C   0  0  0  0  0  0  0  0  0  0  0  0
    5.4307    4.1645    4.0202 O   0  0  0  0  0  0  0  0  0  0  0  0
    8.7512    3.2783    2.9491 C   0  0  0  0  0  0  0  0  0  0  0  0
    9.5604    2.9213    4.0322 C   0  0  0  0  0  0  0  0  0  0  0  0
   10.9488    2.8458    3.9027 C   0  0  0  0  0  0  0  0  0  0  0  0
   11.5830    3.0794    2.6625 C   0  0  0  0  0  0  0  0  0  0  0  0
   12.9690    2.9615    2.4930 N   0  0  0  0  0  0  0  0  0  0  0  0
   13.7730    2.4022    3.5722 C   0  0  0  0  0  0  0  0  0  0  0  0
   15.1016    1.8422    3.0512 C   0  0  0  0  0  0  0  0  0  0  0  0
   15.8770    2.8789    2.2354 C   0  0  0  0  0  0  0  0  0  0  0  0
   14.9844    3.4421    1.1267 C   0  0  0  0  0  0  0  0  0  0  0  0
   13.6720    3.9752    1.7026 C   0  0  0  0  0  0  0  0  0  0  0  0
   10.7452    3.4007    1.5670 C   0  0  0  0  0  0  0  0  0  0  0  0
    9.3661    3.5054    1.7058 C   0  0  0  0  0  0  0  0  0  0  0  0
    1.0704    2.9563   -0.0829 H   0  0  0  0  0  0  0  0  0  0  0  0
    2.5913    2.3365    0.6037 H   0  0  0  0  0  0  0  0  0  0  0  0
    2.5097    2.7778   -1.1151 H   0  0  0  0  0  0  0  0  0  0  0  0
    2.1936    4.7721    1.2319 H   0  0  0  0  0  0  0  0  0  0  0  0
    2.1407    5.1970   -0.4773 H   0  0  0  0  0  0  0  0  0  0  0  0
    4.5212    4.3903   -0.7365 H   0  0  0  0  0  0  0  0  0  0  0  0
    4.1304    6.5453    1.4311 H   0  0  0  0  0  0  0  0  0  0  0  0
    4.0143    6.8263   -0.3261 H   0  0  0  0  0  0  0  0  0  0  0  0
    5.5677    6.3319    0.3951 H   0  0  0  0  0  0  0  0  0  0  0  0
    4.4973    3.9691    2.2105 H   0  0  0  0  0  0  0  0  0  0  0  0
    7.1326    1.6649    1.8580 H   0  0  0  0  0  0  0  0  0  0  0  0
    5.6881    2.0690    2.8435 H   0  0  0  0  0  0  0  0  0  0  0  0
    7.7918    4.6639    5.7252 H   0  0  0  0  0  0  0  0  0  0  0  0
    6.7934    5.9799    5.0701 H   0  0  0  0  0  0  0  0  0  0  0  0
    8.3545    5.5371    4.2835 H   0  0  0  0  0  0  0  0  0  0  0  0
    9.1039    2.7028    5.0000 H   0  0  0  0  0  0  0  0  0  0  0  0
   11.5355    2.5993    4.7870 H   0  0  0  0  0  0  0  0  0  0  0  0
   13.2077    1.5896    4.0494 H   0  0  0  0  0  0  0  0  0  0  0  0
   13.9742    3.1629    4.3608 H   0  0  0  0  0  0  0  0  0  0  0  0
   14.8877    0.9630    2.4187 H   0  0  0  0  0  0  0  0  0  0  0  0
   15.6990    1.4862    3.9069 H   0  0  0  0  0  0  0  0  0  0  0  0
   16.7945    2.4358    1.8142 H   0  0  0  0  0  0  0  0  0  0  0  0
   16.2010    3.7030    2.8980 H   0  0  0  0  0  0  0  0  0  0  0  0
   14.7576    2.6492    0.3927 H   0  0  0  0  0  0  0  0  0  0  0  0
   15.4957    4.2532    0.5819 H   0  0  0  0  0  0  0  0  0  0  0  0
   13.0220    4.3241    0.8916 H   0  0  0  0  0  0  0  0  0  0  0  0
   13.8878    4.8641    2.3379 H   0  0  0  0  0  0  0  0  0  0  0  0
   11.1784    3.5453    0.5763 H   0  0  0  0  0  0  0  0  0  0  0  0
    8.7468    3.7253    0.8333 H   0  0  0  0  0  0  0  0  0  0  0  0
  1  2  1  0
  1 25  1  0
  1 26  1  0
  1 27  1  0
  2  3  1  0
  2 28  1  0
  2 29  1  0
  3  4  1  0
  3  5  1  0
  3 30  1  6
  4 31  1  0
  4 32  1  0
  4 33  1  0
  5  6  1  0
  5 34  1  0
  6  7  2  0
  6  8  1  0
  8  9  1  0
  8 35  1  0
  8 36  1  0
  9 10  1  0
  9 13  1  0
 10 11  1  0
 10 12  2  0
 11 37  1  0
 11 38  1  0
 11 39  1  0
 13 14  2  0
 13 24  1  0
 14 15  1  0
 14 40  1  0
 15 16  2  0
 15 41  1  0
 16 17  1  0
 16 23  1  0
 17 18  1  0
 17 22  1  0
 18 19  1  0
 18 42  1  0
 18 43  1  0
 19 20  1  0
 19 44  1  0
 19 45  1  0
 20 21  1  0
 20 46  1  0
 20 47  1  0
 21 22  1  0
 21 48  1  0
 21 49  1  0
 22 50  1  0
 22 51  1  0
 23 24  2  0
 23 52  1  0
 24 53  1  0
M  END

