
     RDKit          3D

 63 71  0  0  0  0  0  0  0  0999 V2000
    1.3031    0.0618    0.2414 O   0  0  0  0  0  0  0  0  0  0  0  0
    2.4839    0.0641   -0.0775 C   0  0  0  0  0  0  0  0  0  0  0  0
    3.2100    1.3513   -0.2762 C   0  0  0  0  0  0  0  0  0  0  0  0
    2.4781    2.5348   -0.0567 C   0  0  0  0  0  0  0  0  0  0  0  0
    3.0543    3.7903   -0.2264 C   0  0  0  0  0  0  0  0  0  0  0  0
    2.3007    4.9716   -0.0208 N   0  0  0  0  0  0  0  0  0  0  0  0
    1.0919    5.2946   -0.6518 C   0  0  0  0  0  0  0  0  0  0  0  0
    0.3611    4.5734   -1.6042 C   0  0  0  0  0  0  0  0  0  0  0  0
   -0.8146    5.1452   -2.0926 C   0  0  0  0  0  0  0  0  0  0  0  0
   -1.2567    6.4060   -1.6506 C   0  0  0  0  0  0  0  0  0  0  0  0
   -0.5205    7.1252   -0.7104 C   0  0  0  0  0  0  0  0  0  0  0  0
    0.6653    6.5736   -0.2040 C   0  0  0  0  0  0  0  0  0  0  0  0
    1.6589    7.0397    0.7440 C   0  0  0  0  0  0  0  0  0  0  0  0
    1.7830    8.1989    1.5231 C   0  0  0  0  0  0  0  0  0  0  0  0
    2.8784    8.3315    2.3757 C   0  0  0  0  0  0  0  0  0  0  0  0
    3.8443    7.3119    2.4624 C   0  0  0  0  0  0  0  0  0  0  0  0
    3.7444    6.1482    1.6982 C   0  0  0  0  0  0  0  0  0  0  0  0
    2.6506    6.0258    0.8316 C   0  0  0  0  0  0  0  0  0  0  0  0
    4.4076    3.8720   -0.6189 C   0  0  0  0  0  0  0  0  0  0  0  0
    5.1518    2.7195   -0.8183 C   0  0  0  0  0  0  0  0  0  0  0  0
    4.5648    1.4482   -0.6536 C   0  0  0  0  0  0  0  0  0  0  0  0
    5.6135    0.0701   -0.9480 S   0  0  0  0  0  0  0  0  0  0  0  0
    4.5702   -1.3120   -0.6531 C   0  0  0  0  0  0  0  0  0  0  0  0
    5.1621   -2.5811   -0.8174 C   0  0  0  0  0  0  0  0  0  0  0  0
    4.4224   -3.7364   -0.6176 C   0  0  0  0  0  0  0  0  0  0  0  0
    3.0688   -3.6599   -0.2252 C   0  0  0  0  0  0  0  0  0  0  0  0
    2.3200   -4.8442   -0.0191 N   0  0  0  0  0  0  0  0  0  0  0  0
    2.6739   -5.8964    0.8341 C   0  0  0  0  0  0  0  0  0  0  0  0
    3.7687   -6.0144    1.7000 C   0  0  0  0  0  0  0  0  0  0  0  0
    3.8729   -7.1772    2.4653 C   0  0  0  0  0  0  0  0  0  0  0  0
    2.9103   -8.2000    2.3800 C   0  0  0  0  0  0  0  0  0  0  0  0
    1.8139   -8.0718    1.5282 C   0  0  0  0  0  0  0  0  0  0  0  0
    1.6855   -6.9136    0.7481 C   0  0  0  0  0  0  0  0  0  0  0  0
    0.6896   -6.4516   -0.1996 C   0  0  0  0  0  0  0  0  0  0  0  0
   -0.4947   -7.0076   -0.7047 C   0  0  0  0  0  0  0  0  0  0  0  0
   -1.2339   -6.2918   -1.6451 C   0  0  0  0  0  0  0  0  0  0  0  0
   -0.7963   -5.0299   -2.0885 C   0  0  0  0  0  0  0  0  0  0  0  0
    0.3779   -4.4538   -1.6014 C   0  0  0  0  0  0  0  0  0  0  0  0
    1.1117   -5.1716   -0.6488 C   0  0  0  0  0  0  0  0  0  0  0  0
    2.4877   -2.4067   -0.0559 C   0  0  0  0  0  0  0  0  0  0  0  0
    3.2150   -1.2203   -0.2758 C   0  0  0  0  0  0  0  0  0  0  0  0
    1.4387    2.4284    0.2565 H   0  0  0  0  0  0  0  0  0  0  0  0
    0.6938    3.5967   -1.9581 H   0  0  0  0  0  0  0  0  0  0  0  0
   -1.4026    4.5985   -2.8342 H   0  0  0  0  0  0  0  0  0  0  0  0
   -2.1833    6.8235   -2.0515 H   0  0  0  0  0  0  0  0  0  0  0  0
   -0.8605    8.1076   -0.3734 H   0  0  0  0  0  0  0  0  0  0  0  0
    1.0272    8.9862    1.4656 H   0  0  0  0  0  0  0  0  0  0  0  0
    2.9862    9.2302    2.9875 H   0  0  0  0  0  0  0  0  0  0  0  0
    4.6898    7.4286    3.1452 H   0  0  0  0  0  0  0  0  0  0  0  0
    4.4932    5.3594    1.7853 H   0  0  0  0  0  0  0  0  0  0  0  0
    4.8655    4.8506   -0.7742 H   0  0  0  0  0  0  0  0  0  0  0  0
    6.1991    2.7959   -1.1213 H   0  0  0  0  0  0  0  0  0  0  0  0
    6.2097   -2.6536   -1.1204 H   0  0  0  0  0  0  0  0  0  0  0  0
    4.8841   -4.7132   -0.7727 H   0  0  0  0  0  0  0  0  0  0  0  0
    4.5149   -5.2231    1.7860 H   0  0  0  0  0  0  0  0  0  0  0  0
    4.7192   -7.2904    3.1476 H   0  0  0  0  0  0  0  0  0  0  0  0
    3.0215   -9.0978    2.9926 H   0  0  0  0  0  0  0  0  0  0  0  0
    1.0606   -8.8615    1.4718 H   0  0  0  0  0  0  0  0  0  0  0  0
   -0.8312   -7.9909   -0.3665 H   0  0  0  0  0  0  0  0  0  0  0  0
   -2.1594   -6.7128   -2.0449 H   0  0  0  0  0  0  0  0  0  0  0  0
   -1.3865   -4.4859   -2.8302 H   0  0  0  0  0  0  0  0  0  0  0  0
    0.7071   -3.4763   -1.9565 H   0  0  0  0  0  0  0  0  0  0  0  0
    1.4480   -2.3041    0.2573 H   0  0  0  0  0  0  0  0  0  0  0  0
  1  2  2  0
  2  3  1  0
  2 41  1  0
  3  4  2  0
  3 21  1  0
  4  5  1  0
  4 42  1  0
  5  6  1  0
  5 19  2  0
  6  7  1  0
  6 18  1  0
  7  8  2  0
  7 12  1  0
  8  9  1  0
  8 43  1  0
  9 10  2  0
  9 44  1  0
 10 11  1  0
 10 45  1  0
 11 12  2  0
 11 46  1  0
 12 13  1  0
 13 14  1  0
 13 18  2  0
 14 15  2  0
 14 47  1  0
 15 16  1  0
 15 48  1  0
 16 17  2  0
 16 49  1  0
 17 18  1  0
 17 50  1  0
 19 20  1  0
 19 51  1  0
 20 21  2  0
 20 52  1  0
 21 22  1  0
 22 23  1  0
 23 24  1  0
 23 41  2  0
 24 25  2  0
 24 53  1  0
 25 26  1  0
 25 54  1  0
 26 27  1  0
 26 40  2  0
 27 28  1  0
 27 39  1  0
 28 29  2  0
 28 33  1  0
 29 30  1  0
 29 55  1  0
 30 31  2  0
 30 56  1  0
 31 32  1  0
 31 57  1  0
 32 33  2  0
 32 58  1  0
 33 34  1  0
 34 35  1  0
 34 39  2  0
 35 36  2  0
 35 59  1  0
 36 37  1  0
 36 60  1  0
 37 38  2  0
 37 61  1  0
 38 39  1  0
 38 62  1  0
 40 41  1  0
 40 63  1  0
M  END

