
     RDKit          3D

 51 53  0  0  0  0  0  0  0  0999 V2000
    1.3607   -1.1098    2.0194 C   0  0  0  0  0  0  0  0  0  0  0  0
    2.7385   -1.6240    1.6479 C   0  0  0  0  0  0  0  0  0  0  0  0
    3.1936   -0.8901    0.5231 O   0  0  0  0  0  0  0  0  0  0  0  0
    4.4114   -1.1601   -0.0126 C   0  0  0  0  0  0  0  0  0  0  0  0
    5.2962   -2.1389    0.4693 C   0  0  0  0  0  0  0  0  0  0  0  0
    6.5297   -2.3317   -0.1610 C   0  0  0  0  0  0  0  0  0  0  0  0
    6.9128   -1.5724   -1.2726 C   0  0  0  0  0  0  0  0  0  0  0  0
    8.2788   -1.7542   -1.9113 C   0  0  0  0  0  0  0  0  0  0  0  0
    8.6721   -3.1502   -2.0631 N   0  0  0  0  0  0  0  0  0  0  0  0
    7.8647   -3.8628   -3.0455 C   0  0  0  0  0  0  0  0  0  0  0  0
   10.1213   -3.3734   -2.1242 C   0  0  1  0  0  0  0  0  0  0  0  0
   10.5494   -2.7808   -1.2959 H   0  0  0  0  0  0  0  0  0  0  0  0
   10.5009   -4.8378   -1.9028 C   0  0  0  0  0  0  0  0  0  0  0  0
   10.7298   -2.8744   -3.4588 C   0  0  0  0  0  0  0  0  0  0  0  0
   10.6204   -3.5228   -4.4872 O   0  0  0  0  0  0  0  0  0  0  0  0
   11.3311   -1.6393   -3.3860 N   0  0  0  0  0  0  0  0  0  0  0  0
   11.9325   -0.8703   -4.4072 C   0  0  0  0  0  0  0  0  0  0  0  0
   11.9824   -1.2914   -5.7492 C   0  0  0  0  0  0  0  0  0  0  0  0
   12.5918   -0.4921   -6.7272 C   0  0  0  0  0  0  0  0  0  0  0  0
   13.1469    0.7248   -6.3524 C   0  0  0  0  0  0  0  0  0  0  0  0
   13.8062    1.7265   -7.0572 N   0  0  0  0  0  0  0  0  0  0  0  0
   14.0109    1.7400   -8.0472 H   0  0  0  0  0  0  0  0  0  0  0  0
   14.1812    2.7749   -6.2188 C   0  0  0  0  0  0  0  0  0  0  0  0
   14.7666    3.7934   -6.5115 O   0  0  0  0  0  0  0  0  0  0  0  0
   13.7262    2.3840   -4.9550 N   0  0  0  0  0  0  0  0  0  0  0  0
   13.8649    2.9675   -4.1409 H   0  0  0  0  0  0  0  0  0  0  0  0
   13.0968    1.1487   -5.0039 C   0  0  0  0  0  0  0  0  0  0  0  0
   12.4970    0.3671   -4.0257 C   0  0  0  0  0  0  0  0  0  0  0  0
    6.0134   -0.6042   -1.7473 C   0  0  0  0  0  0  0  0  0  0  0  0
    4.7831   -0.3938   -1.1302 C   0  0  0  0  0  0  0  0  0  0  0  0
    0.9721   -1.6562    2.8927 H   0  0  0  0  0  0  0  0  0  0  0  0
    0.6577   -1.2432    1.1830 H   0  0  0  0  0  0  0  0  0  0  0  0
    1.4000   -0.0380    2.2673 H   0  0  0  0  0  0  0  0  0  0  0  0
    2.7016   -2.7036    1.4069 H   0  0  0  0  0  0  0  0  0  0  0  0
    3.4432   -1.4999    2.4924 H   0  0  0  0  0  0  0  0  0  0  0  0
    5.0363   -2.7552    1.3302 H   0  0  0  0  0  0  0  0  0  0  0  0
    7.2102   -3.1026    0.2093 H   0  0  0  0  0  0  0  0  0  0  0  0
    9.0325   -1.2691   -1.2632 H   0  0  0  0  0  0  0  0  0  0  0  0
    8.2989   -1.1952   -2.8734 H   0  0  0  0  0  0  0  0  0  0  0  0
    6.8026   -3.7522   -2.7812 H   0  0  0  0  0  0  0  0  0  0  0  0
    8.1012   -4.9354   -3.0341 H   0  0  0  0  0  0  0  0  0  0  0  0
    8.0057   -3.4967   -4.0826 H   0  0  0  0  0  0  0  0  0  0  0  0
    9.9736   -5.2332   -1.0221 H   0  0  0  0  0  0  0  0  0  0  0  0
   11.5858   -4.9276   -1.7370 H   0  0  0  0  0  0  0  0  0  0  0  0
   10.2535   -5.4473   -2.7828 H   0  0  0  0  0  0  0  0  0  0  0  0
   11.3578   -1.2202   -2.4645 H   0  0  0  0  0  0  0  0  0  0  0  0
   11.5405   -2.2485   -6.0136 H   0  0  0  0  0  0  0  0  0  0  0  0
   12.6235   -0.8315   -7.7647 H   0  0  0  0  0  0  0  0  0  0  0  0
   12.4621    0.7012   -2.9854 H   0  0  0  0  0  0  0  0  0  0  0  0
    6.2807   -0.0027   -2.6215 H   0  0  0  0  0  0  0  0  0  0  0  0
    4.0823    0.3572   -1.5005 H   0  0  0  0  0  0  0  0  0  0  0  0
  1  2  1  0
  1 31  1  0
  1 32  1  0
  1 33  1  0
  2  3  1  0
  2 34  1  0
  2 35  1  0
  3  4  1  0
  4  5  2  0
  4 30  1  0
  5  6  1  0
  5 36  1  0
  6  7  2  0
  6 37  1  0
  7  8  1  0
  7 29  1  0
  8  9  1  0
  8 38  1  0
  8 39  1  0
  9 10  1  0
  9 11  1  0
 10 40  1  0
 10 41  1  0
 10 42  1  0
 11 12  1  1
 11 13  1  0
 11 14  1  0
 13 43  1  0
 13 44  1  0
 13 45  1  0
 14 15  2  0
 14 16  1  0
 16 17  1  0
 16 46  1  0
 17 18  2  0
 17 28  1  0
 18 19  1  0
 18 47  1  0
 19 20  2  0
 19 48  1  0
 20 21  1  0
 20 27  1  0
 21 22  1  0
 21 23  1  0
 23 24  2  0
 23 25  1  0
 25 26  1  0
 25 27  1  0
 27 28  2  0
 28 49  1  0
 29 30  2  0
 29 50  1  0
 30 51  1  0
M  END

