
     RDKit          3D

 35 35  0  0  0  0  0  0  0  0999 V2000
    2.6204   -1.2209   -1.0875 C   0  0  0  0  0  0  0  0  0  0  0  0
    2.5917   -0.0847   -0.0686 C   0  0  2  0  0  0  0  0  0  0  0  0
    1.5503    0.1373    0.2243 H   0  0  0  0  0  0  0  0  0  0  0  0
    3.2009    1.1010   -0.5930 O   0  0  0  0  0  0  0  0  0  0  0  0
    2.5307    1.9614   -1.3830 C   0  0  0  0  0  0  0  0  0  0  0  0
    1.1779    1.8302   -1.7545 C   0  0  0  0  0  0  0  0  0  0  0  0
    0.5823    2.7956   -2.5644 C   0  0  0  0  0  0  0  0  0  0  0  0
    1.3314    3.8855   -3.0071 C   0  0  0  0  0  0  0  0  0  0  0  0
    0.6977    4.8972   -3.8611 N   0  0  0  0  0  0  0  0  0  0  0  0
   -0.4786    4.7387   -4.1542 O   0  0  0  0  0  0  0  0  0  0  0  0
    1.3843    5.8398   -4.2286 O   0  0  0  0  0  0  0  0  0  0  0  0
    2.6783    4.0294   -2.6534 C   0  0  0  0  0  0  0  0  0  0  0  0
    3.2713    3.0705   -1.8463 C   0  0  0  0  0  0  0  0  0  0  0  0
    3.2908   -0.5059    1.2436 C   0  0  0  0  0  0  0  0  0  0  0  0
    2.8838   -1.5373    1.7684 O   0  0  0  0  0  0  0  0  0  0  0  0
    4.3511    0.3323    1.7784 C   0  0  0  0  0  0  0  0  0  0  0  0
    4.9345   -0.0426    2.9605 C   0  0  0  0  0  0  0  0  0  0  0  0
    5.9395    0.5743    3.6153 N   0  0  0  0  0  0  0  0  0  0  0  0
    6.5205    1.7936    3.0834 C   0  0  0  0  0  0  0  0  0  0  0  0
    6.3842    0.1175    4.9198 C   0  0  0  0  0  0  0  0  0  0  0  0
    3.6567   -1.4164   -1.4041 H   0  0  0  0  0  0  0  0  0  0  0  0
    2.0225   -0.9823   -1.9796 H   0  0  0  0  0  0  0  0  0  0  0  0
    2.2194   -2.1279   -0.6153 H   0  0  0  0  0  0  0  0  0  0  0  0
    0.5834    0.9804   -1.4215 H   0  0  0  0  0  0  0  0  0  0  0  0
   -0.4626    2.7145   -2.8632 H   0  0  0  0  0  0  0  0  0  0  0  0
    3.2348    4.8920   -3.0191 H   0  0  0  0  0  0  0  0  0  0  0  0
    4.3197    3.1510   -1.5536 H   0  0  0  0  0  0  0  0  0  0  0  0
    4.6444    1.2261    1.2328 H   0  0  0  0  0  0  0  0  0  0  0  0
    4.5484   -0.9521    3.4337 H   0  0  0  0  0  0  0  0  0  0  0  0
    6.8388    1.6492    2.0379 H   0  0  0  0  0  0  0  0  0  0  0  0
    7.4006    2.0734    3.6777 H   0  0  0  0  0  0  0  0  0  0  0  0
    5.8008    2.6322    3.1063 H   0  0  0  0  0  0  0  0  0  0  0  0
    5.8841   -0.8276    5.1702 H   0  0  0  0  0  0  0  0  0  0  0  0
    6.1478    0.8520    5.7113 H   0  0  0  0  0  0  0  0  0  0  0  0
    7.4743   -0.0548    4.9295 H   0  0  0  0  0  0  0  0  0  0  0  0
  1  2  1  0
  1 21  1  0
  1 22  1  0
  1 23  1  0
  2  3  1  1
  2  4  1  0
  2 14  1  0
  4  5  1  0
  5  6  2  0
  5 13  1  0
  6  7  1  0
  6 24  1  0
  7  8  2  0
  7 25  1  0
  8  9  1  0
  8 12  1  0
  9 10  2  0
  9 11  1  0
 12 13  2  0
 12 26  1  0
 13 27  1  0
 14 15  2  0
 14 16  1  0
 16 17  2  0
 16 28  1  0
 17 18  1  0
 17 29  1  0
 18 19  1  0
 18 20  1  0
 19 30  1  0
 19 31  1  0
 19 32  1  0
 20 33  1  0
 20 34  1  0
 20 35  1  0
M  CHG  2   9   1  11  -1
M  END

