
     RDKit          3D

 54 54  0  0  0  0  0  0  0  0999 V2000
    0.4530   -0.6797   -0.8762 C   0  0  0  0  0  0  0  0  0  0  0  0
    1.9190   -0.3211   -0.6584 C   0  0  0  0  0  0  0  0  0  0  0  0
    2.7719   -1.4856   -0.8672 N   0  0  0  0  0  0  0  0  0  0  0  0
    4.2134   -1.2673   -0.7908 C   0  0  1  0  0  0  0  0  0  0  0  0
    4.7565   -1.4401    0.6520 C   0  0  0  0  0  0  0  0  0  0  0  0
    4.3283   -0.3837    1.6478 C   0  0  0  0  0  0  0  0  0  0  0  0
    3.3946   -0.6616    2.6532 C   0  0  0  0  0  0  0  0  0  0  0  0
    2.9978    0.3155    3.5733 C   0  0  0  0  0  0  0  0  0  0  0  0
    3.5183    1.6180    3.5315 C   0  0  0  0  0  0  0  0  0  0  0  0
    3.1091    2.7221    4.5261 C   0  0  1  0  0  0  0  0  0  0  0  0
    2.0660    2.2295    5.5455 C   0  0  0  0  0  0  0  0  0  0  0  0
    4.3561    3.2011    5.3052 C   0  0  0  0  0  0  0  0  0  0  0  0
    2.5001    3.9135    3.7511 C   0  0  0  0  0  0  0  0  0  0  0  0
    4.4629    1.8898    2.5229 C   0  0  0  0  0  0  0  0  0  0  0  0
    4.8602    0.9161    1.6077 C   0  0  0  0  0  0  0  0  0  0  0  0
    4.9317   -2.2161   -1.8184 C   0  0  1  0  0  0  0  0  0  0  0  0
    6.4195   -1.8580   -1.9623 C   0  0  0  0  0  0  0  0  0  0  0  0
    4.7489   -3.7015   -1.4317 C   0  0  0  0  0  0  0  0  0  0  0  0
    5.2304   -4.7117   -2.4750 C   0  0  0  0  0  0  0  0  0  0  0  0
    4.2591   -2.1010   -3.0886 O   0  0  0  0  0  0  0  0  0  0  0  0
    4.3905   -0.9134   -3.8327 C   0  0  0  0  0  0  0  0  0  0  0  0
   -0.1978    0.1922   -0.7047 H   0  0  0  0  0  0  0  0  0  0  0  0
    0.1456   -1.4860   -0.1919 H   0  0  0  0  0  0  0  0  0  0  0  0
    0.2751   -1.0304   -1.9078 H   0  0  0  0  0  0  0  0  0  0  0  0
    2.0529    0.0516    0.3677 H   0  0  0  0  0  0  0  0  0  0  0  0
    2.1956    0.5288   -1.3263 H   0  0  0  0  0  0  0  0  0  0  0  0
    2.5736   -1.8648   -1.7933 H   0  0  0  0  0  0  0  0  0  0  0  0
    4.4666   -0.2295   -1.1047 H   0  0  0  0  0  0  0  0  0  0  0  0
    5.8579   -1.4420    0.6134 H   0  0  0  0  0  0  0  0  0  0  0  0
    4.4409   -2.4263    1.0212 H   0  0  0  0  0  0  0  0  0  0  0  0
    2.9605   -1.6634    2.7169 H   0  0  0  0  0  0  0  0  0  0  0  0
    2.2663    0.0390    4.3333 H   0  0  0  0  0  0  0  0  0  0  0  0
    2.4491    1.3969    6.1562 H   0  0  0  0  0  0  0  0  0  0  0  0
    1.1383    1.8952    5.0552 H   0  0  0  0  0  0  0  0  0  0  0  0
    1.8002    3.0481    6.2329 H   0  0  0  0  0  0  0  0  0  0  0  0
    4.8091    2.3725    5.8726 H   0  0  0  0  0  0  0  0  0  0  0  0
    4.0836    3.9951    6.0202 H   0  0  0  0  0  0  0  0  0  0  0  0
    5.1282    3.6078    4.6343 H   0  0  0  0  0  0  0  0  0  0  0  0
    1.6036    3.6030    3.1911 H   0  0  0  0  0  0  0  0  0  0  0  0
    3.2128    4.3420    3.0299 H   0  0  0  0  0  0  0  0  0  0  0  0
    2.2060    4.7171    4.4466 H   0  0  0  0  0  0  0  0  0  0  0  0
    4.9080    2.8852    2.4489 H   0  0  0  0  0  0  0  0  0  0  0  0
    5.6041    1.1726    0.8469 H   0  0  0  0  0  0  0  0  0  0  0  0
    6.9932   -2.1839   -1.0833 H   0  0  0  0  0  0  0  0  0  0  0  0
    6.5756   -0.7744   -2.0778 H   0  0  0  0  0  0  0  0  0  0  0  0
    6.8476   -2.3598   -2.8426 H   0  0  0  0  0  0  0  0  0  0  0  0
    3.6794   -3.8646   -1.2264 H   0  0  0  0  0  0  0  0  0  0  0  0
    5.2734   -3.8769   -0.4791 H   0  0  0  0  0  0  0  0  0  0  0  0
    4.7324   -4.5432   -3.4405 H   0  0  0  0  0  0  0  0  0  0  0  0
    5.0046   -5.7387   -2.1465 H   0  0  0  0  0  0  0  0  0  0  0  0
    6.3183   -4.6551   -2.6412 H   0  0  0  0  0  0  0  0  0  0  0  0
    3.7493   -1.0242   -4.7201 H   0  0  0  0  0  0  0  0  0  0  0  0
    5.4253   -0.7403   -4.1807 H   0  0  0  0  0  0  0  0  0  0  0  0
    4.0578   -0.0149   -3.2800 H   0  0  0  0  0  0  0  0  0  0  0  0
  1  2  1  0
  1 22  1  0
  1 23  1  0
  1 24  1  0
  2  3  1  0
  2 25  1  0
  2 26  1  0
  3  4  1  0
  3 27  1  0
  4  5  1  0
  4 16  1  0
  4 28  1  6
  5  6  1  0
  5 29  1  0
  5 30  1  0
  6  7  2  0
  6 15  1  0
  7  8  1  0
  7 31  1  0
  8  9  2  0
  8 32  1  0
  9 10  1  0
  9 14  1  0
 10 11  1  1
 10 12  1  0
 10 13  1  0
 11 33  1  0
 11 34  1  0
 11 35  1  0
 12 36  1  0
 12 37  1  0
 12 38  1  0
 13 39  1  0
 13 40  1  0
 13 41  1  0
 14 15  2  0
 14 42  1  0
 15 43  1  0
 16 17  1  0
 16 18  1  0
 16 20  1  6
 17 44  1  0
 17 45  1  0
 17 46  1  0
 18 19  1  0
 18 47  1  0
 18 48  1  0
 19 49  1  0
 19 50  1  0
 19 51  1  0
 20 21  1  0
 21 52  1  0
 21 53  1  0
 21 54  1  0
M  END

