
     RDKit          3D

 64 67  0  0  0  0  0  0  0  0999 V2000
   11.4470   -9.5744   -4.5318 C   0  0  0  0  0  0  0  0  0  0  0  0
   10.0164   -9.5693   -4.2556 N   0  0  0  0  0  0  0  0  0  0  0  0
    9.4701   -8.2987   -3.7895 C   0  0  0  0  0  0  0  0  0  0  0  0
    9.0402  -10.5185   -5.2486 S   0  0  1  0  0  0  0  0  0  0  0  0
    9.8177  -11.7175   -5.5611 O   0  0  0  0  0  0  0  0  0  0  0  0
    7.7440  -10.6322   -4.5543 O   0  0  0  0  0  0  0  0  0  0  0  0
    8.7785   -9.6016   -6.7737 C   0  0  0  0  0  0  0  0  0  0  0  0
    9.7522   -9.7699   -7.7678 C   0  0  0  0  0  0  0  0  0  0  0  0
    9.7326   -8.9995   -8.9280 C   0  0  0  0  0  0  0  0  0  0  0  0
    8.7208   -8.0436   -9.0798 C   0  0  0  0  0  0  0  0  0  0  0  0
    7.7300   -7.8831   -8.1169 C   0  0  0  0  0  0  0  0  0  0  0  0
    7.7054   -8.6710   -6.9372 C   0  0  0  0  0  0  0  0  0  0  0  0
    6.7019   -8.5639   -6.0141 N   0  0  0  0  0  0  0  0  0  0  0  0
    5.7210   -7.4958   -5.9507 C   0  0  1  0  0  0  0  0  0  0  0  0
    4.4611   -7.7705   -6.7877 C   0  0  0  0  0  0  0  0  0  0  0  0
    3.5647   -8.7522   -6.0441 C   0  0  0  0  0  0  0  0  0  0  0  0
    3.1028   -8.1265   -4.7352 C   0  0  0  0  0  0  0  0  0  0  0  0
    4.2067   -7.5657   -3.9465 N   0  0  0  0  0  0  0  0  0  0  0  0
    3.9830   -7.3274   -2.5110 C   0  0  2  0  0  0  0  0  0  0  0  0
    4.8207   -6.6933   -2.1925 H   0  0  0  0  0  0  0  0  0  0  0  0
    4.0301   -8.6228   -1.6849 C   0  0  0  0  0  0  0  0  0  0  0  0
    3.7955   -8.3157   -0.2013 C   0  0  0  0  0  0  0  0  0  0  0  0
    2.5245   -7.4856    0.0044 C   0  0  0  0  0  0  0  0  0  0  0  0
    2.5557   -6.2761   -0.8161 N   0  0  0  0  0  0  0  0  0  0  0  0
    2.2521   -5.0090   -0.3748 C   0  0  0  0  0  0  0  0  0  0  0  0
    1.9912   -4.0717   -1.3170 N   0  0  0  0  0  0  0  0  0  0  0  0
    1.6937   -2.8412   -0.9260 C   0  0  0  0  0  0  0  0  0  0  0  0
    1.6010   -2.3809    0.3167 N   0  0  0  0  0  0  0  0  0  0  0  0
    1.8734   -3.2735    1.2849 C   0  0  0  0  0  0  0  0  0  0  0  0
    1.8395   -2.8538    2.5770 N   0  0  0  0  0  0  0  0  0  0  0  0
    2.2125   -4.5993    0.9710 C   0  0  0  0  0  0  0  0  0  0  0  0
    2.5108   -5.4164    2.0222 F   0  0  0  0  0  0  0  0  0  0  0  0
    2.6833   -6.5454   -2.2450 C   0  0  0  0  0  0  0  0  0  0  0  0
    5.4419   -7.2454   -4.4496 C   0  0  0  0  0  0  0  0  0  0  0  0
    6.3465   -6.8066   -3.7515 O   0  0  0  0  0  0  0  0  0  0  0  0
   11.9767   -9.2743   -3.6137 H   0  0  0  0  0  0  0  0  0  0  0  0
   11.7316   -8.8703   -5.3394 H   0  0  0  0  0  0  0  0  0  0  0  0
   11.7675  -10.5877   -4.8009 H   0  0  0  0  0  0  0  0  0  0  0  0
    9.9867   -8.0196   -2.8575 H   0  0  0  0  0  0  0  0  0  0  0  0
    8.4003   -8.3850   -3.5703 H   0  0  0  0  0  0  0  0  0  0  0  0
    9.6114   -7.4806   -4.5221 H   0  0  0  0  0  0  0  0  0  0  0  0
   10.5238  -10.5260   -7.6124 H   0  0  0  0  0  0  0  0  0  0  0  0
   10.4921   -9.1409   -9.6990 H   0  0  0  0  0  0  0  0  0  0  0  0
    8.6914   -7.4183   -9.9763 H   0  0  0  0  0  0  0  0  0  0  0  0
    6.9403   -7.1507   -8.2866 H   0  0  0  0  0  0  0  0  0  0  0  0
    6.7395   -9.2427   -5.2544 H   0  0  0  0  0  0  0  0  0  0  0  0
    6.1997   -6.5624   -6.2896 H   0  0  0  0  0  0  0  0  0  0  0  0
    4.7514   -8.1564   -7.7765 H   0  0  0  0  0  0  0  0  0  0  0  0
    3.9186   -6.8226   -6.9560 H   0  0  0  0  0  0  0  0  0  0  0  0
    4.1213   -9.6845   -5.8471 H   0  0  0  0  0  0  0  0  0  0  0  0
    2.6795   -9.0258   -6.6397 H   0  0  0  0  0  0  0  0  0  0  0  0
    2.5857   -8.8790   -4.1188 H   0  0  0  0  0  0  0  0  0  0  0  0
    2.3623   -7.3340   -4.9527 H   0  0  0  0  0  0  0  0  0  0  0  0
    5.0011   -9.1211   -1.8331 H   0  0  0  0  0  0  0  0  0  0  0  0
    3.2509   -9.3230   -2.0385 H   0  0  0  0  0  0  0  0  0  0  0  0
    4.6537   -7.7524    0.2032 H   0  0  0  0  0  0  0  0  0  0  0  0
    3.7202   -9.2505    0.3783 H   0  0  0  0  0  0  0  0  0  0  0  0
    2.3987   -7.2259    1.0572 H   0  0  0  0  0  0  0  0  0  0  0  0
    1.6415   -8.0894   -0.2924 H   0  0  0  0  0  0  0  0  0  0  0  0
    1.4927   -2.1177   -1.7267 H   0  0  0  0  0  0  0  0  0  0  0  0
    1.5174   -1.9135    2.7601 H   0  0  0  0  0  0  0  0  0  0  0  0
    1.9394   -3.5126    3.3346 H   0  0  0  0  0  0  0  0  0  0  0  0
    2.6783   -5.5899   -2.7804 H   0  0  0  0  0  0  0  0  0  0  0  0
    1.8009   -7.1250   -2.5812 H   0  0  0  0  0  0  0  0  0  0  0  0
  1  2  1  0
  1 36  1  0
  1 37  1  0
  1 38  1  0
  2  3  1  0
  4  2  1  1
  3 39  1  0
  3 40  1  0
  3 41  1  0
  4  5  2  0
  4  6  2  0
  4  7  1  0
  7  8  2  0
  7 12  1  0
  8  9  1  0
  8 42  1  0
  9 10  2  0
  9 43  1  0
 10 11  1  0
 10 44  1  0
 11 12  2  0
 11 45  1  0
 12 13  1  0
 13 14  1  0
 13 46  1  0
 14 15  1  0
 14 34  1  0
 14 47  1  6
 15 16  1  0
 15 48  1  0
 15 49  1  0
 16 17  1  0
 16 50  1  0
 16 51  1  0
 17 18  1  0
 17 52  1  0
 17 53  1  0
 18 19  1  0
 18 34  1  0
 19 20  1  1
 19 21  1  0
 19 33  1  0
 21 22  1  0
 21 54  1  0
 21 55  1  0
 22 23  1  0
 22 56  1  0
 22 57  1  0
 23 24  1  0
 23 58  1  0
 23 59  1  0
 24 25  1  0
 24 33  1  0
 25 26  2  0
 25 31  1  0
 26 27  1  0
 27 28  2  0
 27 60  1  0
 28 29  1  0
 29 30  1  0
 29 31  2  0
 30 61  1  0
 30 62  1  0
 31 32  1  0
 33 63  1  0
 33 64  1  0
 34 35  2  0
M  END

