
     RDKit          3D

 71 75  0  0  0  0  0  0  0  0999 V2000
   10.4683    2.0648    0.5811 C   0  0  0  0  0  0  0  0  0  0  0  0
    9.8265    1.3720    1.6869 N   0  0  0  0  0  0  0  0  0  0  0  0
   10.6499    0.4295    2.4261 C   0  0  0  0  0  0  0  0  0  0  0  0
    8.5396    1.6855    1.9999 C   0  0  0  0  0  0  0  0  0  0  0  0
    7.8411    2.4636    1.3672 O   0  0  0  0  0  0  0  0  0  0  0  0
    7.9681    1.1710    3.3384 C   0  0  0  0  0  0  0  0  0  0  0  0
    8.5117    1.5859    4.3601 O   0  0  0  0  0  0  0  0  0  0  0  0
    6.7439    0.5406    3.3569 N   0  0  0  0  0  0  0  0  0  0  0  0
    6.0699    0.6068    4.6582 C   0  0  0  0  0  0  0  0  0  0  0  0
    6.3947   -0.6176    2.4931 C   0  0  1  0  0  0  0  0  0  0  0  0
    4.8398   -0.7302    2.4261 C   0  0  0  0  0  0  0  0  0  0  0  0
    4.3359   -1.4505    1.1667 C   0  0  0  0  0  0  0  0  0  0  0  0
    5.3552   -2.4947    0.7096 C   0  0  1  0  0  0  0  0  0  0  0  0
    6.6218   -1.7740    0.2132 C   0  0  0  0  0  0  0  0  0  0  0  0
    6.9412   -0.5112    1.0472 C   0  0  0  0  0  0  0  0  0  0  0  0
    5.6577   -3.5291    1.8024 C   0  0  0  0  0  0  0  0  0  0  0  0
    6.6619   -3.1472    2.8217 N   0  0  0  0  0  0  0  0  0  0  0  0
    7.0488   -1.8745    3.1461 C   0  0  0  0  0  0  0  0  0  0  0  0
    8.0005   -1.6319    3.9953 N   0  0  0  0  0  0  0  0  0  0  0  0
    8.6393   -2.6377    4.6681 C   0  0  0  0  0  0  0  0  0  0  0  0
    9.6295   -2.1888    5.6375 C   0  0  0  0  0  0  0  0  0  0  0  0
   10.4493   -2.9329    6.3671 N   0  0  0  0  0  0  0  0  0  0  0  0
   11.1485   -2.0592    7.1394 C   0  0  0  0  0  0  0  0  0  0  0  0
   10.7566   -0.7485    6.8845 C   0  0  0  0  0  0  0  0  0  0  0  0
   11.2153    0.5583    7.4660 C   0  0  0  0  0  0  0  0  0  0  0  0
   12.1222    1.3810    6.5598 C   0  0  0  0  0  0  0  0  0  0  0  0
   11.5939    2.3562    5.6997 C   0  0  0  0  0  0  0  0  0  0  0  0
   12.4277    3.1078    4.8658 C   0  0  0  0  0  0  0  0  0  0  0  0
   13.8003    2.8751    4.8948 C   0  0  0  0  0  0  0  0  0  0  0  0
   14.6057    3.5956    4.0990 F   0  0  0  0  0  0  0  0  0  0  0  0
   14.3566    1.9109    5.7329 C   0  0  0  0  0  0  0  0  0  0  0  0
   13.5102    1.1703    6.5604 C   0  0  0  0  0  0  0  0  0  0  0  0
    9.7913   -0.8528    5.9202 N   0  0  0  0  0  0  0  0  0  0  0  0
    9.2692   -0.0873    5.4859 H   0  0  0  0  0  0  0  0  0  0  0  0
    8.2873   -3.9444    4.4369 C   0  0  0  0  0  0  0  0  0  0  0  0
    8.8297   -4.9949    5.1418 O   0  0  0  0  0  0  0  0  0  0  0  0
   10.0801   -5.3957    4.8320 C   0  0  0  0  0  0  0  0  0  0  0  0
   10.7280   -5.0432    3.8958 O   0  0  0  0  0  0  0  0  0  0  0  0
   10.5410   -6.4675    5.8450 C   0  0  1  0  0  0  0  0  0  0  0  0
   10.1996   -6.1619    7.0950 F   0  0  0  0  0  0  0  0  0  0  0  0
    9.9752   -7.6433    5.5294 F   0  0  0  0  0  0  0  0  0  0  0  0
   11.8627   -6.6076    5.7822 F   0  0  0  0  0  0  0  0  0  0  0  0
    7.2748   -4.2861    3.4591 C   0  0  0  0  0  0  0  0  0  0  0  0
    6.9279   -5.4151    3.1685 O   0  0  0  0  0  0  0  0  0  0  0  0
   10.8181    1.3448   -0.1786 H   0  0  0  0  0  0  0  0  0  0  0  0
   11.3419    2.6369    0.9393 H   0  0  0  0  0  0  0  0  0  0  0  0
    9.7452    2.7523    0.1271 H   0  0  0  0  0  0  0  0  0  0  0  0
   11.1634   -0.2432    1.7192 H   0  0  0  0  0  0  0  0  0  0  0  0
   10.0374   -0.1865    3.0932 H   0  0  0  0  0  0  0  0  0  0  0  0
   11.4134    0.9487    3.0292 H   0  0  0  0  0  0  0  0  0  0  0  0
    6.3421    1.5505    5.1424 H   0  0  0  0  0  0  0  0  0  0  0  0
    6.3705   -0.2157    5.3279 H   0  0  0  0  0  0  0  0  0  0  0  0
    4.9826    0.5837    4.5236 H   0  0  0  0  0  0  0  0  0  0  0  0
    4.4385    0.2928    2.4532 H   0  0  0  0  0  0  0  0  0  0  0  0
    4.4662   -1.2430    3.3253 H   0  0  0  0  0  0  0  0  0  0  0  0
    4.1733   -0.7283    0.3502 H   0  0  0  0  0  0  0  0  0  0  0  0
    3.3582   -1.9163    1.3682 H   0  0  0  0  0  0  0  0  0  0  0  0
    4.9253   -3.0757   -0.1221 H   0  0  0  0  0  0  0  0  0  0  0  0
    6.4851   -1.4714   -0.8362 H   0  0  0  0  0  0  0  0  0  0  0  0
    7.4766   -2.4696    0.2207 H   0  0  0  0  0  0  0  0  0  0  0  0
    6.5086    0.3914    0.5943 H   0  0  0  0  0  0  0  0  0  0  0  0
    8.0272   -0.3689    1.0557 H   0  0  0  0  0  0  0  0  0  0  0  0
    6.0553   -4.4484    1.3532 H   0  0  0  0  0  0  0  0  0  0  0  0
    4.7329   -3.8345    2.3216 H   0  0  0  0  0  0  0  0  0  0  0  0
   11.9020   -2.3949    7.8515 H   0  0  0  0  0  0  0  0  0  0  0  0
   11.7441    0.3344    8.4046 H   0  0  0  0  0  0  0  0  0  0  0  0
   10.3341    1.1625    7.7397 H   0  0  0  0  0  0  0  0  0  0  0  0
   10.5153    2.5268    5.6572 H   0  0  0  0  0  0  0  0  0  0  0  0
   12.0254    3.8732    4.1990 H   0  0  0  0  0  0  0  0  0  0  0  0
   15.4374    1.7563    5.7313 H   0  0  0  0  0  0  0  0  0  0  0  0
   13.9424    0.4140    7.2217 H   0  0  0  0  0  0  0  0  0  0  0  0
  1  2  1  0
  1 45  1  0
  1 46  1  0
  1 47  1  0
  2  3  1  0
  2  4  1  0
  3 48  1  0
  3 49  1  0
  3 50  1  0
  4  5  2  0
  4  6  1  0
  6  7  2  0
  6  8  1  0
  8  9  1  0
 10  8  1  1
  9 51  1  0
  9 52  1  0
  9 53  1  0
 10 11  1  0
 10 15  1  0
 10 18  1  0
 11 12  1  0
 11 54  1  0
 11 55  1  0
 12 13  1  0
 12 56  1  0
 12 57  1  0
 13 14  1  0
 13 16  1  0
 13 58  1  6
 14 15  1  0
 14 59  1  0
 14 60  1  0
 15 61  1  0
 15 62  1  0
 16 17  1  0
 16 63  1  0
 16 64  1  0
 17 18  1  0
 17 43  1  0
 18 19  2  0
 19 20  1  0
 20 21  1  0
 20 35  2  0
 21 22  2  0
 21 33  1  0
 22 23  1  0
 23 24  2  0
 23 65  1  0
 24 25  1  0
 24 33  1  0
 25 26  1  0
 25 66  1  0
 25 67  1  0
 26 27  2  0
 26 32  1  0
 27 28  1  0
 27 68  1  0
 28 29  2  0
 28 69  1  0
 29 30  1  0
 29 31  1  0
 31 32  2  0
 31 70  1  0
 32 71  1  0
 33 34  1  0
 35 36  1  0
 35 43  1  0
 36 37  1  0
 37 38  2  0
 37 39  1  0
 39 40  1  1
 39 41  1  0
 39 42  1  0
 43 44  2  0
M  END

