
     RDKit          3D

 47 48  0  0  0  0  0  0  0  0999 V2000
    2.0347    1.0520   -1.5224 C   0  0  0  0  0  0  0  0  0  0  0  0
    2.8601    0.1428   -0.1921 S   0  0  1  0  0  0  0  0  0  0  0  0
    4.0083    0.9633    0.2259 O   0  0  0  0  0  0  0  0  0  0  0  0
    1.8196   -0.2217    0.7877 O   0  0  0  0  0  0  0  0  0  0  0  0
    3.5435   -1.3707   -1.0009 C   0  0  1  0  0  0  0  0  0  0  0  0
    4.6463   -1.9726   -0.1150 C   0  0  0  0  0  0  0  0  0  0  0  0
    4.0963   -2.7544    1.0840 C   0  0  0  0  0  0  0  0  0  0  0  0
    3.0979   -3.8267    0.6332 C   0  0  0  0  0  0  0  0  0  0  0  0
    1.9595   -3.2057   -0.1869 C   0  0  0  0  0  0  0  0  0  0  0  0
    2.4538   -2.4002   -1.4023 C   0  0  2  0  0  0  0  0  0  0  0  0
    3.0179   -3.2953   -2.4147 N   0  0  0  0  0  0  0  0  0  0  0  0
    3.0011   -2.8095   -3.7849 C   0  0  0  0  0  0  0  0  0  0  0  0
    3.5820   -3.8388   -4.7489 C   0  0  1  0  0  0  0  0  0  0  0  0
    3.6486   -3.3837   -6.2159 C   0  0  0  0  0  0  0  0  0  0  0  0
    4.6264   -4.3713   -6.8665 C   0  0  0  0  0  0  0  0  0  0  0  0
    5.5303   -4.7391   -5.7543 N   0  0  0  0  0  0  0  0  0  0  0  0
    6.3626   -6.1976   -5.8310 S   0  0  1  0  0  0  0  0  0  0  0  0
    8.0712   -5.6991   -6.0905 C   0  0  0  0  0  0  0  0  0  0  0  0
    6.3023   -6.8452   -4.5168 O   0  0  0  0  0  0  0  0  0  0  0  0
    5.9283   -6.8957   -7.0446 O   0  0  0  0  0  0  0  0  0  0  0  0
    5.0390   -4.2324   -4.4599 C   0  0  0  0  0  0  0  0  0  0  0  0
    1.6451    1.9528   -1.0286 H   0  0  0  0  0  0  0  0  0  0  0  0
    1.2090    0.4589   -1.9356 H   0  0  0  0  0  0  0  0  0  0  0  0
    2.7690    1.3262   -2.2907 H   0  0  0  0  0  0  0  0  0  0  0  0
    4.0057   -0.9452   -1.9059 H   0  0  0  0  0  0  0  0  0  0  0  0
    5.3267   -1.1708    0.2078 H   0  0  0  0  0  0  0  0  0  0  0  0
    5.2222   -2.6528   -0.7639 H   0  0  0  0  0  0  0  0  0  0  0  0
    3.6017   -2.0591    1.7827 H   0  0  0  0  0  0  0  0  0  0  0  0
    4.9339   -3.2145    1.6335 H   0  0  0  0  0  0  0  0  0  0  0  0
    2.6763   -4.3496    1.5074 H   0  0  0  0  0  0  0  0  0  0  0  0
    3.6245   -4.5902    0.0340 H   0  0  0  0  0  0  0  0  0  0  0  0
    1.3794   -2.5252    0.4526 H   0  0  0  0  0  0  0  0  0  0  0  0
    1.2619   -3.9838   -0.5451 H   0  0  0  0  0  0  0  0  0  0  0  0
    1.5806   -1.8530   -1.8208 H   0  0  0  0  0  0  0  0  0  0  0  0
    2.5489   -4.1986   -2.3648 H   0  0  0  0  0  0  0  0  0  0  0  0
    3.6095   -1.8887   -3.8477 H   0  0  0  0  0  0  0  0  0  0  0  0
    1.9794   -2.5225   -4.1268 H   0  0  0  0  0  0  0  0  0  0  0  0
    2.9652   -4.7566   -4.7009 H   0  0  0  0  0  0  0  0  0  0  0  0
    4.0503   -2.3566   -6.2659 H   0  0  0  0  0  0  0  0  0  0  0  0
    2.6693   -3.3819   -6.7183 H   0  0  0  0  0  0  0  0  0  0  0  0
    5.1815   -3.9208   -7.7054 H   0  0  0  0  0  0  0  0  0  0  0  0
    4.1085   -5.2622   -7.2545 H   0  0  0  0  0  0  0  0  0  0  0  0
    8.3965   -5.0940   -5.2346 H   0  0  0  0  0  0  0  0  0  0  0  0
    8.1350   -5.1336   -7.0288 H   0  0  0  0  0  0  0  0  0  0  0  0
    8.6604   -6.6243   -6.1555 H   0  0  0  0  0  0  0  0  0  0  0  0
    5.6198   -3.3456   -4.1419 H   0  0  0  0  0  0  0  0  0  0  0  0
    5.1390   -4.9971   -3.6805 H   0  0  0  0  0  0  0  0  0  0  0  0
  2  1  1  6
  1 22  1  0
  1 23  1  0
  1 24  1  0
  2  3  2  0
  2  4  2  0
  2  5  1  0
  5  6  1  0
  5 10  1  0
  5 25  1  6
  6  7  1  0
  6 26  1  0
  6 27  1  0
  7  8  1  0
  7 28  1  0
  7 29  1  0
  8  9  1  0
  8 30  1  0
  8 31  1  0
  9 10  1  0
  9 32  1  0
  9 33  1  0
 10 11  1  0
 10 34  1  6
 11 12  1  0
 11 35  1  0
 12 13  1  0
 12 36  1  0
 12 37  1  0
 13 14  1  0
 13 21  1  0
 13 38  1  6
 14 15  1  0
 14 39  1  0
 14 40  1  0
 15 16  1  0
 15 41  1  0
 15 42  1  0
 16 17  1  0
 16 21  1  0
 17 18  1  6
 17 19  2  0
 17 20  2  0
 18 43  1  0
 18 44  1  0
 18 45  1  0
 21 46  1  0
 21 47  1  0
M  END

