
     RDKit          3D

 45 46  0  0  0  0  0  0  0  0999 V2000
    1.8566    0.5534   -1.3615 C   0  0  0  0  0  0  0  0  0  0  0  0
    1.8422   -0.5875   -0.3583 C   0  0  0  0  0  0  0  0  0  0  0  0
    2.6925   -1.6731   -0.7778 O   0  0  0  0  0  0  0  0  0  0  0  0
    4.0013   -1.6031   -0.4619 C   0  0  0  0  0  0  0  0  0  0  0  0
    4.4795   -0.6959    0.1772 O   0  0  0  0  0  0  0  0  0  0  0  0
    4.7951   -2.7699   -1.0506 C   0  0  1  0  0  0  0  0  0  0  0  0
    6.1848   -2.8797   -0.4015 C   0  0  0  0  0  0  0  0  0  0  0  0
    6.1084   -3.4570    1.0184 C   0  0  0  0  0  0  0  0  0  0  0  0
    5.3511   -4.7900    1.0624 C   0  0  0  0  0  0  0  0  0  0  0  0
    3.9540   -4.6807    0.4358 C   0  0  2  0  0  0  0  0  0  0  0  0
    3.2725   -5.9627    0.5244 N   0  0  0  0  0  0  0  0  0  0  0  0
    1.9058   -6.0692    0.2688 C   0  0  0  0  0  0  0  0  0  0  0  0
    0.9215   -5.0422    0.2550 C   0  0  0  0  0  0  0  0  0  0  0  0
   -0.2990   -5.5379    0.0358 N   0  0  0  0  0  0  0  0  0  0  0  0
   -0.1378   -6.8514   -0.0955 N   0  0  0  0  0  0  0  0  0  0  0  0
   -1.2927   -7.7180   -0.3509 C   0  0  1  0  0  0  0  0  0  0  0  0
   -2.2768   -7.6629    0.8212 C   0  0  0  0  0  0  0  0  0  0  0  0
   -1.9491   -7.3610   -1.6877 C   0  0  0  0  0  0  0  0  0  0  0  0
    1.1723   -7.2306    0.0341 C   0  0  0  0  0  0  0  0  0  0  0  0
    4.0506   -4.1190   -0.9980 C   0  0  0  0  0  0  0  0  0  0  0  0
    1.1397    1.3315   -1.0536 H   0  0  0  0  0  0  0  0  0  0  0  0
    1.5704    0.2000   -2.3643 H   0  0  0  0  0  0  0  0  0  0  0  0
    2.8547    1.0129   -1.4172 H   0  0  0  0  0  0  0  0  0  0  0  0
    0.8409   -1.0340   -0.2753 H   0  0  0  0  0  0  0  0  0  0  0  0
    2.1683   -0.2436    0.6343 H   0  0  0  0  0  0  0  0  0  0  0  0
    4.9168   -2.4940   -2.1150 H   0  0  0  0  0  0  0  0  0  0  0  0
    6.6672   -1.8915   -0.3840 H   0  0  0  0  0  0  0  0  0  0  0  0
    6.8072   -3.5369   -1.0338 H   0  0  0  0  0  0  0  0  0  0  0  0
    5.6059   -2.7264    1.6752 H   0  0  0  0  0  0  0  0  0  0  0  0
    7.1247   -3.5878    1.4254 H   0  0  0  0  0  0  0  0  0  0  0  0
    5.2559   -5.1565    2.0972 H   0  0  0  0  0  0  0  0  0  0  0  0
    5.9245   -5.5584    0.5074 H   0  0  0  0  0  0  0  0  0  0  0  0
    3.3704   -3.9673    1.0465 H   0  0  0  0  0  0  0  0  0  0  0  0
    3.8205   -6.7361    0.1606 H   0  0  0  0  0  0  0  0  0  0  0  0
    1.0602   -3.9701    0.3832 H   0  0  0  0  0  0  0  0  0  0  0  0
   -0.8756   -8.7360   -0.4189 H   0  0  0  0  0  0  0  0  0  0  0  0
   -2.6643   -6.6405    0.9426 H   0  0  0  0  0  0  0  0  0  0  0  0
   -1.7854   -7.9577    1.7611 H   0  0  0  0  0  0  0  0  0  0  0  0
   -3.1248   -8.3431    0.6443 H   0  0  0  0  0  0  0  0  0  0  0  0
   -2.3237   -6.3270   -1.6615 H   0  0  0  0  0  0  0  0  0  0  0  0
   -2.7933   -8.0372   -1.8949 H   0  0  0  0  0  0  0  0  0  0  0  0
   -1.2271   -7.4438   -2.5147 H   0  0  0  0  0  0  0  0  0  0  0  0
    1.4798   -8.2716   -0.0385 H   0  0  0  0  0  0  0  0  0  0  0  0
    3.0487   -4.0214   -1.4377 H   0  0  0  0  0  0  0  0  0  0  0  0
    4.6071   -4.8464   -1.6162 H   0  0  0  0  0  0  0  0  0  0  0  0
  1  2  1  0
  1 21  1  0
  1 22  1  0
  1 23  1  0
  2  3  1  0
  2 24  1  0
  2 25  1  0
  3  4  1  0
  4  5  2  0
  4  6  1  0
  6  7  1  0
  6 20  1  0
  6 26  1  6
  7  8  1  0
  7 27  1  0
  7 28  1  0
  8  9  1  0
  8 29  1  0
  8 30  1  0
  9 10  1  0
  9 31  1  0
  9 32  1  0
 10 11  1  0
 10 20  1  0
 10 33  1  1
 11 12  1  0
 11 34  1  0
 12 13  1  0
 12 19  2  0
 13 14  2  0
 13 35  1  0
 14 15  1  0
 15 16  1  0
 15 19  1  0
 16 17  1  0
 16 18  1  0
 16 36  1  6
 17 37  1  0
 17 38  1  0
 17 39  1  0
 18 40  1  0
 18 41  1  0
 18 42  1  0
 19 43  1  0
 20 44  1  0
 20 45  1  0
M  END

