
     RDKit          3D

 44 47  0  0  0  0  0  0  0  0999 V2000
    0.3211    2.1168   -0.5859 C   0  0  0  0  0  0  0  0  0  0  0  0
    1.5166    1.4854   -0.9535 O   0  0  0  0  0  0  0  0  0  0  0  0
    2.6329    1.8910   -0.2010 C   0  0  0  0  0  0  0  0  0  0  0  0
    3.8921    1.3312   -0.8383 C   0  0  1  0  0  0  0  0  0  0  0  0
    3.7934   -0.1650   -1.2897 C   0  0  0  0  0  0  0  0  0  0  0  0
    5.2754   -0.5906   -1.5047 C   0  0  0  0  0  0  0  0  0  0  0  0
    6.0734    0.7060   -1.1627 C   0  0  1  0  0  0  0  0  0  0  0  0
    7.1439    0.5512   -0.9643 H   0  0  0  0  0  0  0  0  0  0  0  0
    5.7440    1.6745   -2.2702 C   0  0  0  0  0  0  0  0  0  0  0  0
    6.4013    2.2079   -3.3537 C   0  0  0  0  0  0  0  0  0  0  0  0
    5.6494    3.1139   -4.1448 C   0  0  0  0  0  0  0  0  0  0  0  0
    6.2640    3.7795   -5.3316 C   0  0  0  0  0  0  0  0  0  0  0  0
    7.4148    4.5668   -5.1739 C   0  0  0  0  0  0  0  0  0  0  0  0
    7.9426    4.6820   -3.9429 F   0  0  0  0  0  0  0  0  0  0  0  0
    8.0320    5.2421   -6.2214 C   0  0  0  0  0  0  0  0  0  0  0  0
    7.4856    5.1270   -7.5005 C   0  0  0  0  0  0  0  0  0  0  0  0
    6.3490    4.3461   -7.7148 C   0  0  0  0  0  0  0  0  0  0  0  0
    5.7491    3.6810   -6.6398 C   0  0  0  0  0  0  0  0  0  0  0  0
    4.3588    2.6809   -6.9705 Cl  0  0  0  0  0  0  0  0  0  0  0  0
    4.3885    3.4546   -3.8728 N   0  0  0  0  0  0  0  0  0  0  0  0
    3.7473    2.9216   -2.8285 N   0  0  0  0  0  0  0  0  0  0  0  0
    4.3996    2.0629   -2.0699 C   0  0  0  0  0  0  0  0  0  0  0  0
    5.2272    1.3130    0.0193 C   0  0  1  0  0  0  0  0  0  0  0  0
    5.7059    2.7052    0.4647 C   0  0  0  0  0  0  0  0  0  0  0  0
    5.1859    0.4171    1.2667 C   0  0  0  0  0  0  0  0  0  0  0  0
   -0.4794    1.7198   -1.2272 H   0  0  0  0  0  0  0  0  0  0  0  0
    0.3738    3.2148   -0.7278 H   0  0  0  0  0  0  0  0  0  0  0  0
    0.0532    1.9204    0.4735 H   0  0  0  0  0  0  0  0  0  0  0  0
    2.5419    1.5263    0.8453 H   0  0  0  0  0  0  0  0  0  0  0  0
    2.6937    2.9968   -0.1597 H   0  0  0  0  0  0  0  0  0  0  0  0
    3.1775   -0.2530   -2.1934 H   0  0  0  0  0  0  0  0  0  0  0  0
    3.3002   -0.7649   -0.5108 H   0  0  0  0  0  0  0  0  0  0  0  0
    5.4769   -0.9241   -2.5329 H   0  0  0  0  0  0  0  0  0  0  0  0
    5.5693   -1.4127   -0.8358 H   0  0  0  0  0  0  0  0  0  0  0  0
    7.4407    1.9777   -3.5984 H   0  0  0  0  0  0  0  0  0  0  0  0
    8.9184    5.8449   -6.0176 H   0  0  0  0  0  0  0  0  0  0  0  0
    7.9513    5.6478   -8.3404 H   0  0  0  0  0  0  0  0  0  0  0  0
    5.9196    4.2397   -8.7115 H   0  0  0  0  0  0  0  0  0  0  0  0
    5.7656    3.4305   -0.3588 H   0  0  0  0  0  0  0  0  0  0  0  0
    6.7066    2.6364    0.9218 H   0  0  0  0  0  0  0  0  0  0  0  0
    5.0286    3.1225    1.2271 H   0  0  0  0  0  0  0  0  0  0  0  0
    4.8067   -0.5957    1.0804 H   0  0  0  0  0  0  0  0  0  0  0  0
    4.5524    0.8676    2.0470 H   0  0  0  0  0  0  0  0  0  0  0  0
    6.1990    0.3200    1.6903 H   0  0  0  0  0  0  0  0  0  0  0  0
  1  2  1  0
  1 26  1  0
  1 27  1  0
  1 28  1  0
  2  3  1  0
  4  3  1  1
  3 29  1  0
  3 30  1  0
  4  5  1  0
  4 22  1  0
  4 23  1  0
  5  6  1  0
  5 31  1  0
  5 32  1  0
  6  7  1  0
  6 33  1  0
  6 34  1  0
  7  8  1  1
  7  9  1  0
  7 23  1  0
  9 10  1  0
  9 22  2  0
 10 11  2  0
 10 35  1  0
 11 12  1  0
 11 20  1  0
 12 13  2  0
 12 18  1  0
 13 14  1  0
 13 15  1  0
 15 16  2  0
 15 36  1  0
 16 17  1  0
 16 37  1  0
 17 18  2  0
 17 38  1  0
 18 19  1  0
 20 21  2  0
 21 22  1  0
 23 24  1  1
 23 25  1  0
 24 39  1  0
 24 40  1  0
 24 41  1  0
 25 42  1  0
 25 43  1  0
 25 44  1  0
M  END

