
     RDKit          3D

 48 51  0  0  0  0  0  0  0  0999 V2000
    4.4082    0.0809    0.8332 C   0  0  0  0  0  0  0  0  0  0  0  0
    4.1686   -0.9238   -0.3134 C   0  0  2  0  0  0  0  0  0  0  0  0
    4.7067   -0.3775   -1.6457 C   0  0  0  0  0  0  0  0  0  0  0  0
    3.8471    0.7632   -2.1590 C   0  0  0  0  0  0  0  0  0  0  0  0
    4.2366    1.6888   -2.8392 O   0  0  0  0  0  0  0  0  0  0  0  0
    2.5104    0.6343   -1.8096 N   0  0  0  0  0  0  0  0  0  0  0  0
    1.9374   -0.4577   -1.2204 N   0  0  0  0  0  0  0  0  0  0  0  0
    2.6913   -1.2220   -0.5204 C   0  0  0  0  0  0  0  0  0  0  0  0
    2.0755   -2.5152    0.0082 C   0  0  1  0  0  0  0  0  0  0  0  0
    0.6032   -2.6741   -0.3834 C   0  0  0  0  0  0  0  0  0  0  0  0
    2.8816   -3.5499   -0.5983 O   0  0  0  0  0  0  0  0  0  0  0  0
    2.7054   -4.8070   -0.1051 C   0  0  0  0  0  0  0  0  0  0  0  0
    2.8300   -5.8969   -0.9668 C   0  0  0  0  0  0  0  0  0  0  0  0
    2.6635   -7.1956   -0.4809 C   0  0  0  0  0  0  0  0  0  0  0  0
    2.3457   -7.3911    0.8646 C   0  0  0  0  0  0  0  0  0  0  0  0
    2.2218   -6.2987    1.7286 C   0  0  0  0  0  0  0  0  0  0  0  0
    2.4288   -4.9900    1.2653 C   0  0  0  0  0  0  0  0  0  0  0  0
    2.3820   -3.8365    2.0940 N   0  0  0  0  0  0  0  0  0  0  0  0
    2.5035   -3.9479    3.5644 C   0  0  1  0  0  0  0  0  0  0  0  0
    3.7195   -3.1983    4.1679 C   0  0  0  0  0  0  0  0  0  0  0  0
    3.2719   -2.8878    5.6027 C   0  0  0  0  0  0  0  0  0  0  0  0
    1.7966   -2.4907    5.4308 C   0  0  0  0  0  0  0  0  0  0  0  0
    1.2551   -3.4775    4.3770 C   0  0  0  0  0  0  0  0  0  0  0  0
    2.1879   -2.5882    1.5469 C   0  0  0  0  0  0  0  0  0  0  0  0
    2.0590   -1.5815    2.2248 O   0  0  0  0  0  0  0  0  0  0  0  0
    5.4888    0.2653    0.9453 H   0  0  0  0  0  0  0  0  0  0  0  0
    4.0062   -0.2913    1.7833 H   0  0  0  0  0  0  0  0  0  0  0  0
    3.9207    1.0467    0.6270 H   0  0  0  0  0  0  0  0  0  0  0  0
    4.6856   -1.8658   -0.0790 H   0  0  0  0  0  0  0  0  0  0  0  0
    4.6911   -1.1670   -2.4189 H   0  0  0  0  0  0  0  0  0  0  0  0
    5.7415   -0.0165   -1.5656 H   0  0  0  0  0  0  0  0  0  0  0  0
    1.8576    1.2617   -2.2706 H   0  0  0  0  0  0  0  0  0  0  0  0
    0.5026   -2.6378   -1.4757 H   0  0  0  0  0  0  0  0  0  0  0  0
    0.0134   -1.8546    0.0467 H   0  0  0  0  0  0  0  0  0  0  0  0
    0.2098   -3.6329   -0.0145 H   0  0  0  0  0  0  0  0  0  0  0  0
    3.0559   -5.6984   -2.0163 H   0  0  0  0  0  0  0  0  0  0  0  0
    2.7642   -8.0480   -1.1566 H   0  0  0  0  0  0  0  0  0  0  0  0
    2.1869   -8.3993    1.2535 H   0  0  0  0  0  0  0  0  0  0  0  0
    1.9579   -6.4799    2.7702 H   0  0  0  0  0  0  0  0  0  0  0  0
    2.6594   -5.0121    3.7600 H   0  0  0  0  0  0  0  0  0  0  0  0
    3.8943   -2.2593    3.6271 H   0  0  0  0  0  0  0  0  0  0  0  0
    4.6390   -3.8017    4.1116 H   0  0  0  0  0  0  0  0  0  0  0  0
    3.8814   -2.1044    6.0797 H   0  0  0  0  0  0  0  0  0  0  0  0
    3.3534   -3.7914    6.2340 H   0  0  0  0  0  0  0  0  0  0  0  0
    1.7399   -1.4663    5.0316 H   0  0  0  0  0  0  0  0  0  0  0  0
    1.2285   -2.5166    6.3736 H   0  0  0  0  0  0  0  0  0  0  0  0
    0.4967   -3.0168    3.7307 H   0  0  0  0  0  0  0  0  0  0  0  0
    0.7845   -4.3500    4.8592 H   0  0  0  0  0  0  0  0  0  0  0  0
  1  2  1  0
  1 26  1  0
  1 27  1  0
  1 28  1  0
  2  3  1  0
  2  8  1  0
  2 29  1  1
  3  4  1  0
  3 30  1  0
  3 31  1  0
  4  5  2  0
  4  6  1  0
  6  7  1  0
  6 32  1  0
  7  8  2  0
  8  9  1  0
  9 10  1  1
  9 11  1  0
  9 24  1  0
 10 33  1  0
 10 34  1  0
 10 35  1  0
 11 12  1  0
 12 13  2  0
 12 17  1  0
 13 14  1  0
 13 36  1  0
 14 15  2  0
 14 37  1  0
 15 16  1  0
 15 38  1  0
 16 17  2  0
 16 39  1  0
 17 18  1  0
 18 19  1  0
 18 24  1  0
 19 20  1  0
 19 23  1  0
 19 40  1  6
 20 21  1  0
 20 41  1  0
 20 42  1  0
 21 22  1  0
 21 43  1  0
 21 44  1  0
 22 23  1  0
 22 45  1  0
 22 46  1  0
 23 47  1  0
 23 48  1  0
 24 25  2  0
M  END

