
     RDKit          3D

 74 82  0  0  0  0  0  0  0  0999 V2000
    2.5055   -1.1798   -1.2567 C   0  0  0  0  0  0  0  0  0  0  0  0
    3.4518   -0.4390    0.1071 S   0  0  0  0  0  0  0  0  0  0  0  0
    3.9033   -1.8641    1.0551 C   0  0  0  0  0  0  0  0  0  0  0  0
    4.6287   -1.5767    2.1376 N   0  0  0  0  0  0  0  0  0  0  0  0
    5.0099   -2.5975    2.9157 C   0  0  0  0  0  0  0  0  0  0  0  0
    5.8103   -2.2602    4.1240 C   0  0  0  0  0  0  0  0  0  0  0  0
    6.1953   -0.9249    4.3462 C   0  0  0  0  0  0  0  0  0  0  0  0
    6.9521   -0.5691    5.4587 C   0  0  0  0  0  0  0  0  0  0  0  0
    7.3346   -1.5412    6.3976 C   0  0  0  0  0  0  0  0  0  0  0  0
    8.0967   -1.1828    7.5359 N   0  0  0  0  0  0  0  0  0  0  0  0
    7.7653   -0.1864    8.4635 C   0  0  0  0  0  0  0  0  0  0  0  0
    6.6372    0.6422    8.5200 C   0  0  0  0  0  0  0  0  0  0  0  0
    6.5426    1.5435    9.5814 C   0  0  0  0  0  0  0  0  0  0  0  0
    7.5406    1.6206   10.5707 C   0  0  0  0  0  0  0  0  0  0  0  0
    8.6543    0.7837   10.5191 C   0  0  0  0  0  0  0  0  0  0  0  0
    8.7735   -0.1315    9.4633 C   0  0  0  0  0  0  0  0  0  0  0  0
    9.7592   -1.1383    9.1208 C   0  0  0  0  0  0  0  0  0  0  0  0
   10.9695   -1.5424    9.7025 C   0  0  0  0  0  0  0  0  0  0  0  0
   11.7127   -2.5526    9.0936 C   0  0  0  0  0  0  0  0  0  0  0  0
   11.2604   -3.1545    7.9046 C   0  0  0  0  0  0  0  0  0  0  0  0
   10.0594   -2.7712    7.3055 C   0  0  0  0  0  0  0  0  0  0  0  0
    9.3078   -1.7668    7.9290 C   0  0  0  0  0  0  0  0  0  0  0  0
    6.9473   -2.8750    6.1920 C   0  0  0  0  0  0  0  0  0  0  0  0
    6.2035   -3.2263    5.0675 C   0  0  0  0  0  0  0  0  0  0  0  0
    4.6551   -3.9161    2.5770 C   0  0  0  0  0  0  0  0  0  0  0  0
    3.8992   -4.1198    1.4140 C   0  0  0  0  0  0  0  0  0  0  0  0
    3.4725   -5.4712    0.9609 C   0  0  0  0  0  0  0  0  0  0  0  0
    3.9910   -6.6529    1.5212 C   0  0  0  0  0  0  0  0  0  0  0  0
    3.5772   -7.9057    1.0744 C   0  0  0  0  0  0  0  0  0  0  0  0
    2.6144   -8.0138    0.0580 C   0  0  0  0  0  0  0  0  0  0  0  0
    2.1850   -9.2860   -0.3911 N   0  0  0  0  0  0  0  0  0  0  0  0
    1.6814  -10.3133    0.4172 C   0  0  0  0  0  0  0  0  0  0  0  0
    1.4461  -10.3299    1.7980 C   0  0  0  0  0  0  0  0  0  0  0  0
    0.9061  -11.4906    2.3540 C   0  0  0  0  0  0  0  0  0  0  0  0
    0.5993  -12.6111    1.5597 C   0  0  0  0  0  0  0  0  0  0  0  0
    0.8206  -12.5851    0.1835 C   0  0  0  0  0  0  0  0  0  0  0  0
    1.3620  -11.4308   -0.4003 C   0  0  0  0  0  0  0  0  0  0  0  0
    1.6910  -11.0610   -1.7634 C   0  0  0  0  0  0  0  0  0  0  0  0
    1.6184  -11.7345   -2.9912 C   0  0  0  0  0  0  0  0  0  0  0  0
    2.0484  -11.0866   -4.1483 C   0  0  0  0  0  0  0  0  0  0  0  0
    2.5581   -9.7762   -4.0860 C   0  0  0  0  0  0  0  0  0  0  0  0
    2.6408   -9.0837   -2.8771 C   0  0  0  0  0  0  0  0  0  0  0  0
    2.1933   -9.7325   -1.7191 C   0  0  0  0  0  0  0  0  0  0  0  0
    2.0880   -6.8409   -0.5072 C   0  0  0  0  0  0  0  0  0  0  0  0
    2.5208   -5.5927   -0.0681 C   0  0  0  0  0  0  0  0  0  0  0  0
    3.5194   -3.0742    0.6574 N   0  0  0  0  0  0  0  0  0  0  0  0
    2.2211   -0.3428   -1.9102 H   0  0  0  0  0  0  0  0  0  0  0  0
    1.6026   -1.6817   -0.8836 H   0  0  0  0  0  0  0  0  0  0  0  0
    3.1198   -1.8978   -1.8160 H   0  0  0  0  0  0  0  0  0  0  0  0
    5.8963   -0.1742    3.6140 H   0  0  0  0  0  0  0  0  0  0  0  0
    7.2645    0.4671    5.6003 H   0  0  0  0  0  0  0  0  0  0  0  0
    5.8515    0.5859    7.7654 H   0  0  0  0  0  0  0  0  0  0  0  0
    5.6714    2.2007    9.6439 H   0  0  0  0  0  0  0  0  0  0  0  0
    7.4365    2.3388   11.3873 H   0  0  0  0  0  0  0  0  0  0  0  0
    9.4236    0.8359   11.2937 H   0  0  0  0  0  0  0  0  0  0  0  0
   11.3270   -1.0669   10.6193 H   0  0  0  0  0  0  0  0  0  0  0  0
   12.6568   -2.8770    9.5374 H   0  0  0  0  0  0  0  0  0  0  0  0
   11.8622   -3.9369    7.4352 H   0  0  0  0  0  0  0  0  0  0  0  0
    9.7261   -3.2375    6.3774 H   0  0  0  0  0  0  0  0  0  0  0  0
    7.2192   -3.6339    6.9277 H   0  0  0  0  0  0  0  0  0  0  0  0
    5.9140   -4.2713    4.9472 H   0  0  0  0  0  0  0  0  0  0  0  0
    4.9494   -4.7537    3.2036 H   0  0  0  0  0  0  0  0  0  0  0  0
    4.7552   -6.6079    2.2988 H   0  0  0  0  0  0  0  0  0  0  0  0
    4.0138   -8.8109    1.5000 H   0  0  0  0  0  0  0  0  0  0  0  0
    1.6688   -9.4641    2.4232 H   0  0  0  0  0  0  0  0  0  0  0  0
    0.7153  -11.5255    3.4297 H   0  0  0  0  0  0  0  0  0  0  0  0
    0.1789  -13.5048    2.0268 H   0  0  0  0  0  0  0  0  0  0  0  0
    0.5712  -13.4513   -0.4345 H   0  0  0  0  0  0  0  0  0  0  0  0
    1.2335  -12.7563   -3.0384 H   0  0  0  0  0  0  0  0  0  0  0  0
    1.9959  -11.5999   -5.1113 H   0  0  0  0  0  0  0  0  0  0  0  0
    2.9005   -9.2883   -5.0022 H   0  0  0  0  0  0  0  0  0  0  0  0
    3.0479   -8.0723   -2.8412 H   0  0  0  0  0  0  0  0  0  0  0  0
    1.3258   -6.9148   -1.2850 H   0  0  0  0  0  0  0  0  0  0  0  0
    2.1128   -4.6819   -0.5064 H   0  0  0  0  0  0  0  0  0  0  0  0
  1  2  1  0
  1 47  1  0
  1 48  1  0
  1 49  1  0
  2  3  1  0
  3  4  2  0
  3 46  1  0
  4  5  1  0
  5  6  1  0
  5 25  2  0
  6  7  2  0
  6 24  1  0
  7  8  1  0
  7 50  1  0
  8  9  2  0
  8 51  1  0
  9 10  1  0
  9 23  1  0
 10 11  1  0
 10 22  1  0
 11 12  2  0
 11 16  1  0
 12 13  1  0
 12 52  1  0
 13 14  2  0
 13 53  1  0
 14 15  1  0
 14 54  1  0
 15 16  2  0
 15 55  1  0
 16 17  1  0
 17 18  1  0
 17 22  2  0
 18 19  2  0
 18 56  1  0
 19 20  1  0
 19 57  1  0
 20 21  2  0
 20 58  1  0
 21 22  1  0
 21 59  1  0
 23 24  2  0
 23 60  1  0
 24 61  1  0
 25 26  1  0
 25 62  1  0
 26 27  1  0
 26 46  2  0
 27 28  2  0
 27 45  1  0
 28 29  1  0
 28 63  1  0
 29 30  2  0
 29 64  1  0
 30 31  1  0
 30 44  1  0
 31 32  1  0
 31 43  1  0
 32 33  2  0
 32 37  1  0
 33 34  1  0
 33 65  1  0
 34 35  2  0
 34 66  1  0
 35 36  1  0
 35 67  1  0
 36 37  2  0
 36 68  1  0
 37 38  1  0
 38 39  1  0
 38 43  2  0
 39 40  2  0
 39 69  1  0
 40 41  1  0
 40 70  1  0
 41 42  2  0
 41 71  1  0
 42 43  1  0
 42 72  1  0
 44 45  2  0
 44 73  1  0
 45 74  1  0
M  END

