
     RDKit          3D

 70 75  0  0  0  0  0  0  0  0999 V2000
    1.1446    0.2808   -0.4420 C   0  0  0  0  0  0  0  0  0  0  0  0
    2.4760    0.7021    0.2056 C   0  0  1  0  0  0  0  0  0  0  0  0
    3.5746    0.6663   -0.8824 C   0  0  0  0  0  0  0  0  0  0  0  0
    2.3214    2.1481    0.7315 C   0  0  0  0  0  0  0  0  0  0  0  0
    2.8772   -0.2253    1.3686 C   0  0  0  0  0  0  0  0  0  0  0  0
    2.1053   -1.3250    1.7752 C   0  0  0  0  0  0  0  0  0  0  0  0
    2.5000   -2.1468    2.8346 C   0  0  0  0  0  0  0  0  0  0  0  0
    3.6882   -1.9088    3.5436 C   0  0  0  0  0  0  0  0  0  0  0  0
    4.1087   -2.7820    4.6718 C   0  0  0  0  0  0  0  0  0  0  0  0
    3.8793   -4.1686    4.6325 C   0  0  0  0  0  0  0  0  0  0  0  0
    4.2676   -5.0139    5.6844 C   0  0  0  0  0  0  0  0  0  0  0  0
    4.0466   -6.4376    5.6546 C   0  0  0  0  0  0  0  0  0  0  0  0
    4.4356   -7.2391    6.6882 C   0  0  0  0  0  0  0  0  0  0  0  0
    5.0870   -6.6977    7.8540 C   0  0  0  0  0  0  0  0  0  0  0  0
    5.4951   -7.5012    8.9308 C   0  0  0  0  0  0  0  0  0  0  0  0
    6.1230   -6.9580   10.0655 C   0  0  0  0  0  0  0  0  0  0  0  0
    6.5466   -7.8315   11.1923 C   0  0  0  0  0  0  0  0  0  0  0  0
    7.0584   -9.1198   10.9695 C   0  0  0  0  0  0  0  0  0  0  0  0
    7.4580   -9.9395   12.0286 C   0  0  0  0  0  0  0  0  0  0  0  0
    7.3656   -9.5159   13.3636 C   0  0  0  0  0  0  0  0  0  0  0  0
    7.7951  -10.3907   14.5569 C   0  0  1  0  0  0  0  0  0  0  0  0
    8.3320  -11.7622   14.1096 C   0  0  0  0  0  0  0  0  0  0  0  0
    8.9116   -9.6693   15.3473 C   0  0  0  0  0  0  0  0  0  0  0  0
    6.5803  -10.6267   15.4844 C   0  0  0  0  0  0  0  0  0  0  0  0
    6.8507   -8.2240   13.5821 C   0  0  0  0  0  0  0  0  0  0  0  0
    6.4525   -7.4024   12.5296 C   0  0  0  0  0  0  0  0  0  0  0  0
    6.3421   -5.5699   10.1099 C   0  0  0  0  0  0  0  0  0  0  0  0
    5.9539   -4.7246    9.0579 C   0  0  0  0  0  0  0  0  0  0  0  0
    6.1796   -3.3016    9.0854 C   0  0  0  0  0  0  0  0  0  0  0  0
    5.7959   -2.5008    8.0493 C   0  0  0  0  0  0  0  0  0  0  0  0
    5.1503   -3.0431    6.8806 C   0  0  0  0  0  0  0  0  0  0  0  0
    4.7448   -2.2400    5.8024 C   0  0  0  0  0  0  0  0  0  0  0  0
    4.9127   -4.4512    6.8286 C   0  0  0  0  0  0  0  0  0  0  0  0
    5.3165   -5.2884    7.9100 C   0  0  0  0  0  0  0  0  0  0  0  0
    4.4649   -0.8065    3.1398 C   0  0  0  0  0  0  0  0  0  0  0  0
    4.0681    0.0088    2.0820 C   0  0  0  0  0  0  0  0  0  0  0  0
    0.8970    0.9679   -1.2665 H   0  0  0  0  0  0  0  0  0  0  0  0
    0.3099    0.3123    0.2757 H   0  0  0  0  0  0  0  0  0  0  0  0
    1.1957   -0.7354   -0.8635 H   0  0  0  0  0  0  0  0  0  0  0  0
    3.3062    1.3278   -1.7227 H   0  0  0  0  0  0  0  0  0  0  0  0
    3.7042   -0.3531   -1.2793 H   0  0  0  0  0  0  0  0  0  0  0  0
    4.5489    1.0003   -0.4943 H   0  0  0  0  0  0  0  0  0  0  0  0
    2.0382    2.8284   -0.0888 H   0  0  0  0  0  0  0  0  0  0  0  0
    3.2564    2.5278    1.1708 H   0  0  0  0  0  0  0  0  0  0  0  0
    1.5403    2.2051    1.5062 H   0  0  0  0  0  0  0  0  0  0  0  0
    1.1671   -1.5557    1.2699 H   0  0  0  0  0  0  0  0  0  0  0  0
    1.8525   -2.9760    3.1295 H   0  0  0  0  0  0  0  0  0  0  0  0
    3.4096   -4.6120    3.7512 H   0  0  0  0  0  0  0  0  0  0  0  0
    3.5548   -6.8683    4.7781 H   0  0  0  0  0  0  0  0  0  0  0  0
    4.2577   -8.3172    6.6466 H   0  0  0  0  0  0  0  0  0  0  0  0
    5.2927   -8.5741    8.8893 H   0  0  0  0  0  0  0  0  0  0  0  0
    7.1732   -9.4853    9.9462 H   0  0  0  0  0  0  0  0  0  0  0  0
    7.8565  -10.9260   11.7905 H   0  0  0  0  0  0  0  0  0  0  0  0
    9.2198  -11.6660   13.4651 H   0  0  0  0  0  0  0  0  0  0  0  0
    7.5727  -12.3425   13.5622 H   0  0  0  0  0  0  0  0  0  0  0  0
    8.6266  -12.3531   14.9912 H   0  0  0  0  0  0  0  0  0  0  0  0
    9.7940   -9.4922   14.7119 H   0  0  0  0  0  0  0  0  0  0  0  0
    9.2292  -10.2791   16.2092 H   0  0  0  0  0  0  0  0  0  0  0  0
    8.5773   -8.6948   15.7344 H   0  0  0  0  0  0  0  0  0  0  0  0
    5.7688  -11.1440   14.9483 H   0  0  0  0  0  0  0  0  0  0  0  0
    6.1730   -9.6825   15.8769 H   0  0  0  0  0  0  0  0  0  0  0  0
    6.8697  -11.2491   16.3473 H   0  0  0  0  0  0  0  0  0  0  0  0
    6.7470   -7.8448   14.6016 H   0  0  0  0  0  0  0  0  0  0  0  0
    6.0364   -6.4170   12.7524 H   0  0  0  0  0  0  0  0  0  0  0  0
    6.8513   -5.1321   10.9719 H   0  0  0  0  0  0  0  0  0  0  0  0
    6.6692   -2.8705    9.9630 H   0  0  0  0  0  0  0  0  0  0  0  0
    5.9752   -1.4229    8.0901 H   0  0  0  0  0  0  0  0  0  0  0  0
    4.9090   -1.1614    5.8629 H   0  0  0  0  0  0  0  0  0  0  0  0
    5.4103   -0.5979    3.6463 H   0  0  0  0  0  0  0  0  0  0  0  0
    4.7135    0.8453    1.8036 H   0  0  0  0  0  0  0  0  0  0  0  0
  2  1  1  6
  1 37  1  0
  1 38  1  0
  1 39  1  0
  2  3  1  0
  2  4  1  0
  2  5  1  0
  3 40  1  0
  3 41  1  0
  3 42  1  0
  4 43  1  0
  4 44  1  0
  4 45  1  0
  5  6  2  0
  5 36  1  0
  6  7  1  0
  6 46  1  0
  7  8  2  0
  7 47  1  0
  8  9  1  0
  8 35  1  0
  9 10  2  0
  9 32  1  0
 10 11  1  0
 10 48  1  0
 11 12  2  0
 11 33  1  0
 12 13  1  0
 12 49  1  0
 13 14  2  0
 13 50  1  0
 14 15  1  0
 14 34  1  0
 15 16  2  0
 15 51  1  0
 16 17  1  0
 16 27  1  0
 17 18  2  0
 17 26  1  0
 18 19  1  0
 18 52  1  0
 19 20  2  0
 19 53  1  0
 20 21  1  0
 20 25  1  0
 21 22  1  6
 21 23  1  0
 21 24  1  0
 22 54  1  0
 22 55  1  0
 22 56  1  0
 23 57  1  0
 23 58  1  0
 23 59  1  0
 24 60  1  0
 24 61  1  0
 24 62  1  0
 25 26  2  0
 25 63  1  0
 26 64  1  0
 27 28  2  0
 27 65  1  0
 28 29  1  0
 28 34  1  0
 29 30  2  0
 29 66  1  0
 30 31  1  0
 30 67  1  0
 31 32  2  0
 31 33  1  0
 32 68  1  0
 33 34  2  0
 35 36  2  0
 35 69  1  0
 36 70  1  0
M  END

