
     RDKit          3D

 49 50  0  0  0  0  0  0  0  0999 V2000
    9.5765   -4.0250   -2.5984 C   0  0  0  0  0  0  0  0  0  0  0  0
    8.6552   -2.9748   -2.2062 N   0  0  0  0  0  0  0  0  0  0  0  0
    7.3240   -3.0550   -2.4827 C   0  0  0  0  0  0  0  0  0  0  0  0
    6.8367   -4.0473   -3.0146 O   0  0  0  0  0  0  0  0  0  0  0  0
    6.5060   -1.8320   -2.1561 C   0  0  0  0  0  0  0  0  0  0  0  0
    7.0045   -0.5986   -2.5850 C   0  0  0  0  0  0  0  0  0  0  0  0
    6.2066    0.5427   -2.5706 C   0  0  0  0  0  0  0  0  0  0  0  0
    6.7593    1.8144   -3.0314 N   0  0  0  0  0  0  0  0  0  0  0  0
    7.9378    1.8373   -3.3642 O   0  0  0  0  0  0  0  0  0  0  0  0
    6.0139    2.7843   -3.0518 O   0  0  0  0  0  0  0  0  0  0  0  0
    4.8743    0.4679   -2.1529 C   0  0  0  0  0  0  0  0  0  0  0  0
    4.3690   -0.7407   -1.7061 C   0  0  0  0  0  0  0  0  0  0  0  0
    5.1690   -1.9172   -1.6404 C   0  0  0  0  0  0  0  0  0  0  0  0
    4.6593   -3.0637   -1.0754 N   0  0  0  0  0  0  0  0  0  0  0  0
    5.5001   -4.0694   -0.4446 C   0  0  0  0  0  0  0  0  0  0  0  0
    3.2165   -3.3243   -1.0714 C   0  0  0  0  0  0  0  0  0  0  0  0
    2.6123   -3.5428   -2.4652 C   0  0  0  0  0  0  0  0  0  0  0  0
    3.2604   -4.7017   -3.2245 C   0  0  0  0  0  0  0  0  0  0  0  0
    2.6279   -4.9472   -4.4784 O   0  0  0  0  0  0  0  0  0  0  0  0
    3.0042   -4.1659   -5.5484 C   0  0  0  0  0  0  0  0  0  0  0  0
    2.1223   -3.1702   -5.9882 C   0  0  0  0  0  0  0  0  0  0  0  0
    2.4331   -2.3905   -7.1041 C   0  0  0  0  0  0  0  0  0  0  0  0
    3.6326   -2.6110   -7.7855 C   0  0  0  0  0  0  0  0  0  0  0  0
    4.5000   -3.6172   -7.3525 C   0  0  0  0  0  0  0  0  0  0  0  0
    4.2115   -4.4173   -6.2358 C   0  0  0  0  0  0  0  0  0  0  0  0
    5.1464   -5.5188   -5.8030 C   0  0  0  0  0  0  0  0  0  0  0  0
   10.5842   -3.7692   -2.2448 H   0  0  0  0  0  0  0  0  0  0  0  0
    9.6031   -4.1457   -3.6936 H   0  0  0  0  0  0  0  0  0  0  0  0
    9.2800   -4.9941   -2.1667 H   0  0  0  0  0  0  0  0  0  0  0  0
    9.0065   -2.1640   -1.7131 H   0  0  0  0  0  0  0  0  0  0  0  0
    8.0084   -0.5152   -3.0010 H   0  0  0  0  0  0  0  0  0  0  0  0
    4.2594    1.3677   -2.1694 H   0  0  0  0  0  0  0  0  0  0  0  0
    3.3388   -0.7700   -1.3556 H   0  0  0  0  0  0  0  0  0  0  0  0
    6.4696   -3.6329   -0.1678 H   0  0  0  0  0  0  0  0  0  0  0  0
    5.6938   -4.9409   -1.0906 H   0  0  0  0  0  0  0  0  0  0  0  0
    5.0152   -4.4079    0.4855 H   0  0  0  0  0  0  0  0  0  0  0  0
    2.6716   -2.5185   -0.5490 H   0  0  0  0  0  0  0  0  0  0  0  0
    3.0626   -4.2275   -0.4625 H   0  0  0  0  0  0  0  0  0  0  0  0
    2.7021   -2.6212   -3.0633 H   0  0  0  0  0  0  0  0  0  0  0  0
    1.5327   -3.7408   -2.3502 H   0  0  0  0  0  0  0  0  0  0  0  0
    3.1514   -5.6366   -2.6493 H   0  0  0  0  0  0  0  0  0  0  0  0
    4.3377   -4.5104   -3.3556 H   0  0  0  0  0  0  0  0  0  0  0  0
    1.1854   -3.0317   -5.4442 H   0  0  0  0  0  0  0  0  0  0  0  0
    1.7388   -1.6161   -7.4400 H   0  0  0  0  0  0  0  0  0  0  0  0
    3.8887   -2.0091   -8.6611 H   0  0  0  0  0  0  0  0  0  0  0  0
    5.4279   -3.8015   -7.9023 H   0  0  0  0  0  0  0  0  0  0  0  0
    5.7671   -5.8558   -6.6469 H   0  0  0  0  0  0  0  0  0  0  0  0
    4.5821   -6.3822   -5.4188 H   0  0  0  0  0  0  0  0  0  0  0  0
    5.8267   -5.1843   -5.0015 H   0  0  0  0  0  0  0  0  0  0  0  0
  1  2  1  0
  1 27  1  0
  1 28  1  0
  1 29  1  0
  2  3  1  0
  2 30  1  0
  3  4  2  0
  3  5  1  0
  5  6  2  0
  5 13  1  0
  6  7  1  0
  6 31  1  0
  7  8  1  0
  7 11  2  0
  8  9  2  0
  8 10  1  0
 11 12  1  0
 11 32  1  0
 12 13  2  0
 12 33  1  0
 13 14  1  0
 14 15  1  0
 14 16  1  0
 15 34  1  0
 15 35  1  0
 15 36  1  0
 16 17  1  0
 16 37  1  0
 16 38  1  0
 17 18  1  0
 17 39  1  0
 17 40  1  0
 18 19  1  0
 18 41  1  0
 18 42  1  0
 19 20  1  0
 20 21  2  0
 20 25  1  0
 21 22  1  0
 21 43  1  0
 22 23  2  0
 22 44  1  0
 23 24  1  0
 23 45  1  0
 24 25  2  0
 24 46  1  0
 25 26  1  0
 26 47  1  0
 26 48  1  0
 26 49  1  0
M  CHG  2   8   1  10  -1
M  END

