
     RDKit          3D

 57 58  0  0  0  0  0  0  0  0999 V2000
   -0.5958   -7.2448    3.5578 C   0  0  0  0  0  0  0  0  0  0  0  0
    0.3470   -6.2485    4.1875 C   0  0  0  0  0  0  0  0  0  0  0  0
    0.7322   -6.3990    5.5248 C   0  0  0  0  0  0  0  0  0  0  0  0
    1.6157   -5.4998    6.1245 C   0  0  0  0  0  0  0  0  0  0  0  0
    2.1140   -5.7449    7.9531 Br  0  0  0  0  0  0  0  0  0  0  0  0
    2.1351   -4.4309    5.3969 C   0  0  0  0  0  0  0  0  0  0  0  0
    1.7625   -4.2608    4.0627 C   0  0  0  0  0  0  0  0  0  0  0  0
    0.8688   -5.1557    3.4476 C   0  0  0  0  0  0  0  0  0  0  0  0
    0.4642   -5.0127    2.1061 N   0  0  0  0  0  0  0  0  0  0  0  0
    0.8694   -4.0787    1.1858 C   0  0  0  0  0  0  0  0  0  0  0  0
    1.6992   -3.2068    1.3721 O   0  0  0  0  0  0  0  0  0  0  0  0
    0.1735   -4.2276   -0.1840 C   0  0  0  0  0  0  0  0  0  0  0  0
   -1.2488   -3.9281   -0.1758 N   0  0  0  0  0  0  0  0  0  0  0  0
   -2.1769   -4.8471    0.1988 C   0  0  0  0  0  0  0  0  0  0  0  0
   -1.8484   -5.9575    0.6290 O   0  0  0  0  0  0  0  0  0  0  0  0
   -3.6127   -4.4470    0.0604 C   0  0  0  0  0  0  0  0  0  0  0  0
   -3.9049   -3.1522   -0.4618 C   0  0  0  0  0  0  0  0  0  0  0  0
   -4.0839   -2.0853   -0.8928 N   0  0  0  0  0  0  0  0  0  0  0  0
   -4.5702   -5.3566    0.4330 C   0  0  0  0  0  0  0  0  0  0  0  0
   -5.9946   -5.2630    0.4084 C   0  0  0  0  0  0  0  0  0  0  0  0
   -6.8423   -4.1835   -0.0263 C   0  0  0  0  0  0  0  0  0  0  0  0
   -8.1457   -4.5742    0.1399 C   0  0  0  0  0  0  0  0  0  0  0  0
   -9.3983   -3.8374   -0.2107 C   0  0  0  0  0  0  0  0  0  0  0  0
   -8.1413   -5.8689    0.6776 N   0  0  0  0  0  0  0  0  0  0  0  0
   -9.3302   -6.6425    1.0232 C   0  0  0  0  0  0  0  0  0  0  0  0
   -9.6899   -6.6773    2.5248 C   0  0  1  0  0  0  0  0  0  0  0  0
   -9.9520   -5.2864    3.1110 C   0  0  0  0  0  0  0  0  0  0  0  0
  -10.8881   -7.6115    2.7346 C   0  0  0  0  0  0  0  0  0  0  0  0
   -6.8516   -6.2995    0.8353 C   0  0  0  0  0  0  0  0  0  0  0  0
   -6.5137   -7.6640    1.3415 C   0  0  0  0  0  0  0  0  0  0  0  0
   -0.9121   -8.0001    4.2906 H   0  0  0  0  0  0  0  0  0  0  0  0
   -0.1223   -7.7765    2.7141 H   0  0  0  0  0  0  0  0  0  0  0  0
   -1.5019   -6.7657    3.1517 H   0  0  0  0  0  0  0  0  0  0  0  0
    0.3358   -7.2358    6.1032 H   0  0  0  0  0  0  0  0  0  0  0  0
    2.8285   -3.7283    5.8621 H   0  0  0  0  0  0  0  0  0  0  0  0
    2.1628   -3.4341    3.4809 H   0  0  0  0  0  0  0  0  0  0  0  0
   -0.2590   -5.6511    1.7656 H   0  0  0  0  0  0  0  0  0  0  0  0
    0.3122   -5.2560   -0.5555 H   0  0  0  0  0  0  0  0  0  0  0  0
    0.6800   -3.5302   -0.8621 H   0  0  0  0  0  0  0  0  0  0  0  0
   -1.5524   -3.0032   -0.4616 H   0  0  0  0  0  0  0  0  0  0  0  0
   -4.1375   -6.2916    0.8010 H   0  0  0  0  0  0  0  0  0  0  0  0
   -6.5230   -3.2266   -0.4293 H   0  0  0  0  0  0  0  0  0  0  0  0
   -9.1316   -2.8563   -0.6271 H   0  0  0  0  0  0  0  0  0  0  0  0
  -10.0517   -3.6635    0.6593 H   0  0  0  0  0  0  0  0  0  0  0  0
   -9.9961   -4.3668   -0.9731 H   0  0  0  0  0  0  0  0  0  0  0  0
   -9.1869   -7.6735    0.6631 H   0  0  0  0  0  0  0  0  0  0  0  0
  -10.1761   -6.2304    0.4533 H   0  0  0  0  0  0  0  0  0  0  0  0
   -8.8273   -7.1107    3.0607 H   0  0  0  0  0  0  0  0  0  0  0  0
  -10.8412   -4.8213    2.6523 H   0  0  0  0  0  0  0  0  0  0  0  0
   -9.0965   -4.6097    2.9628 H   0  0  0  0  0  0  0  0  0  0  0  0
  -10.1388   -5.3530    4.1944 H   0  0  0  0  0  0  0  0  0  0  0  0
  -11.7829   -7.2344    2.2101 H   0  0  0  0  0  0  0  0  0  0  0  0
  -11.1412   -7.6920    3.8031 H   0  0  0  0  0  0  0  0  0  0  0  0
  -10.6854   -8.6287    2.3616 H   0  0  0  0  0  0  0  0  0  0  0  0
   -6.9963   -8.4532    0.7399 H   0  0  0  0  0  0  0  0  0  0  0  0
   -6.8264   -7.8158    2.3879 H   0  0  0  0  0  0  0  0  0  0  0  0
   -5.4312   -7.8360    1.2952 H   0  0  0  0  0  0  0  0  0  0  0  0
  1  2  1  0
  1 31  1  0
  1 32  1  0
  1 33  1  0
  2  3  2  0
  2  8  1  0
  3  4  1  0
  3 34  1  0
  4  5  1  0
  4  6  2  0
  6  7  1  0
  6 35  1  0
  7  8  2  0
  7 36  1  0
  8  9  1  0
  9 10  1  0
  9 37  1  0
 10 11  2  0
 10 12  1  0
 12 13  1  0
 12 38  1  0
 12 39  1  0
 13 14  1  0
 13 40  1  0
 14 15  2  0
 14 16  1  0
 16 17  1  0
 16 19  2  0
 17 18  3  0
 19 20  1  0
 19 41  1  0
 20 21  1  0
 20 29  2  0
 21 22  2  0
 21 42  1  0
 22 23  1  0
 22 24  1  0
 23 43  1  0
 23 44  1  0
 23 45  1  0
 24 25  1  0
 24 29  1  0
 25 26  1  0
 25 46  1  0
 25 47  1  0
 26 27  1  0
 26 28  1  0
 26 48  1  1
 27 49  1  0
 27 50  1  0
 27 51  1  0
 28 52  1  0
 28 53  1  0
 28 54  1  0
 29 30  1  0
 30 55  1  0
 30 56  1  0
 30 57  1  0
M  END

