
     RDKit          3D

 35 35  0  0  0  0  0  0  0  0999 V2000
    4.1644   -0.9906    4.5684 C   0  0  0  0  0  0  0  0  0  0  0  0
    4.2992   -0.9489    3.0392 C   0  0  1  0  0  0  0  0  0  0  0  0
    3.6561   -2.0475    2.3224 N   0  0  0  0  0  0  0  0  0  0  0  0
    3.7872    0.3576    2.4725 C   0  0  0  0  0  0  0  0  0  0  0  0
    3.8852    1.5226    3.0363 N   0  0  0  0  0  0  0  0  0  0  0  0
    3.3484    2.5261    2.2612 C   0  0  0  0  0  0  0  0  0  0  0  0
    3.2547    3.9950    2.6015 C   0  0  0  0  0  0  0  0  0  0  0  0
    2.6969    4.7223    1.7872 O   0  0  0  0  0  0  0  0  0  0  0  0
    3.7681    4.5086    3.7742 N   0  0  0  0  0  0  0  0  0  0  0  0
    4.5002    3.7405    4.7605 C   0  0  0  0  0  0  0  0  0  0  0  0
    3.6525    3.2912    5.9460 C   0  0  1  0  0  0  0  0  0  0  0  0
    2.5460    2.6413    5.5656 F   0  0  0  0  0  0  0  0  0  0  0  0
    4.3703    2.4653    6.7315 F   0  0  0  0  0  0  0  0  0  0  0  0
    3.2578    4.3279    6.7161 F   0  0  0  0  0  0  0  0  0  0  0  0
    3.5987    5.9637    4.0603 C   0  0  1  0  0  0  0  0  0  0  0  0
    4.3902    6.8401    3.0816 C   0  0  0  0  0  0  0  0  0  0  0  0
    2.1288    6.3803    4.1870 C   0  0  0  0  0  0  0  0  0  0  0  0
    2.8262    2.0928    1.0614 C   0  0  0  0  0  0  0  0  0  0  0  0
    3.0078    0.3907    0.8984 S   0  0  0  0  0  0  0  0  0  0  0  0
    4.6036   -1.9221    4.9594 H   0  0  0  0  0  0  0  0  0  0  0  0
    3.1029   -0.9534    4.8634 H   0  0  0  0  0  0  0  0  0  0  0  0
    4.6683   -0.1372    5.0445 H   0  0  0  0  0  0  0  0  0  0  0  0
    5.3752   -0.9977    2.7861 H   0  0  0  0  0  0  0  0  0  0  0  0
    2.7117   -2.2039    2.6792 H   0  0  0  0  0  0  0  0  0  0  0  0
    4.1701   -2.9172    2.4536 H   0  0  0  0  0  0  0  0  0  0  0  0
    5.3316    4.3385    5.1654 H   0  0  0  0  0  0  0  0  0  0  0  0
    4.9074    2.8284    4.3160 H   0  0  0  0  0  0  0  0  0  0  0  0
    4.0489    6.0920    5.0555 H   0  0  0  0  0  0  0  0  0  0  0  0
    3.9746    6.7712    2.0680 H   0  0  0  0  0  0  0  0  0  0  0  0
    5.4489    6.5359    3.0491 H   0  0  0  0  0  0  0  0  0  0  0  0
    4.3513    7.8914    3.4091 H   0  0  0  0  0  0  0  0  0  0  0  0
    1.6088    6.2991    3.2240 H   0  0  0  0  0  0  0  0  0  0  0  0
    2.0727    7.4251    4.5322 H   0  0  0  0  0  0  0  0  0  0  0  0
    1.6099    5.7517    4.9265 H   0  0  0  0  0  0  0  0  0  0  0  0
    2.3471    2.7160    0.3101 H   0  0  0  0  0  0  0  0  0  0  0  0
  1  2  1  0
  1 20  1  0
  1 21  1  0
  1 22  1  0
  2  3  1  0
  2  4  1  0
  2 23  1  1
  3 24  1  0
  3 25  1  0
  4  5  2  0
  4 19  1  0
  5  6  1  0
  6  7  1  0
  6 18  2  0
  7  8  2  0
  7  9  1  0
  9 10  1  0
  9 15  1  0
 10 11  1  0
 10 26  1  0
 10 27  1  0
 11 12  1  6
 11 13  1  0
 11 14  1  0
 15 16  1  0
 15 17  1  0
 15 28  1  1
 16 29  1  0
 16 30  1  0
 16 31  1  0
 17 32  1  0
 17 33  1  0
 17 34  1  0
 18 19  1  0
 18 35  1  0
M  END

