
     RDKit          3D

 53 56  0  0  0  0  0  0  0  0999 V2000
    2.7992    3.9483    2.1141 C   0  0  0  0  0  0  0  0  0  0  0  0
    3.8749    3.0926    2.4500 O   0  0  0  0  0  0  0  0  0  0  0  0
    3.6566    1.7583    2.5339 C   0  0  0  0  0  0  0  0  0  0  0  0
    2.4447    1.1297    2.1987 C   0  0  0  0  0  0  0  0  0  0  0  0
    2.3410   -0.2621    2.3285 C   0  0  0  0  0  0  0  0  0  0  0  0
    3.4094   -1.0263    2.7948 C   0  0  0  0  0  0  0  0  0  0  0  0
    4.6197   -0.4015    3.1403 C   0  0  0  0  0  0  0  0  0  0  0  0
    5.7667   -1.1807    3.7660 C   0  0  1  0  0  0  0  0  0  0  0  0
    5.7644   -1.1086    5.3295 C   0  0  1  0  0  0  0  0  0  0  0  0
    4.4210   -1.0339    5.8685 N   0  0  0  0  0  0  0  0  0  0  0  0
    4.2529   -0.7558    7.2778 C   0  0  0  0  0  0  0  0  0  0  0  0
    2.8869   -0.1585    7.5814 C   0  0  0  0  0  0  0  0  0  0  0  0
    2.2309   -0.4185    8.7911 C   0  0  0  0  0  0  0  0  0  0  0  0
    1.0065    0.1921    9.0878 C   0  0  0  0  0  0  0  0  0  0  0  0
    0.4205    1.0676    8.1760 C   0  0  0  0  0  0  0  0  0  0  0  0
    1.0509    1.3205    6.9464 C   0  0  0  0  0  0  0  0  0  0  0  0
    0.3838    2.2882    6.0075 C   0  0  0  0  0  0  0  0  0  0  0  0
   -0.4892    3.0417    6.3535 O   0  0  0  0  0  0  0  0  0  0  0  0
    0.8059    2.2888    4.7222 O   0  0  0  0  0  0  0  0  0  0  0  0
    2.2798    0.7096    6.6623 C   0  0  0  0  0  0  0  0  0  0  0  0
    6.5753   -2.3703    5.6944 C   0  0  0  0  0  0  0  0  0  0  0  0
    6.0961   -3.3980    4.6641 C   0  0  0  0  0  0  0  0  0  0  0  0
    5.7790   -2.6186    3.4518 N   0  0  0  0  0  0  0  0  0  0  0  0
    6.5215   -2.9815    2.2806 C   0  0  1  0  0  0  0  0  0  0  0  0
    6.1185   -4.2096    1.5053 C   0  0  0  0  0  0  0  0  0  0  0  0
    5.9030   -2.8404    0.9129 C   0  0  0  0  0  0  0  0  0  0  0  0
    4.7356    0.9817    2.9927 C   0  0  0  0  0  0  0  0  0  0  0  0
    3.1904    4.9730    2.1672 H   0  0  0  0  0  0  0  0  0  0  0  0
    1.9619    3.8408    2.8248 H   0  0  0  0  0  0  0  0  0  0  0  0
    2.4319    3.7614    1.0889 H   0  0  0  0  0  0  0  0  0  0  0  0
    1.5947    1.7037    1.8304 H   0  0  0  0  0  0  0  0  0  0  0  0
    1.4010   -0.7503    2.0560 H   0  0  0  0  0  0  0  0  0  0  0  0
    3.3248   -2.1094    2.8963 H   0  0  0  0  0  0  0  0  0  0  0  0
    6.7143   -0.7116    3.4294 H   0  0  0  0  0  0  0  0  0  0  0  0
    6.2878   -0.1944    5.6548 H   0  0  0  0  0  0  0  0  0  0  0  0
    3.8156   -1.7857    5.5467 H   0  0  0  0  0  0  0  0  0  0  0  0
    5.0264   -0.0174    7.5618 H   0  0  0  0  0  0  0  0  0  0  0  0
    4.4194   -1.6272    7.9480 H   0  0  0  0  0  0  0  0  0  0  0  0
    2.6838   -1.1050    9.5130 H   0  0  0  0  0  0  0  0  0  0  0  0
    0.5094   -0.0198   10.0378 H   0  0  0  0  0  0  0  0  0  0  0  0
   -0.5273    1.5650    8.3891 H   0  0  0  0  0  0  0  0  0  0  0  0
    1.4172    1.5593    4.5313 H   0  0  0  0  0  0  0  0  0  0  0  0
    2.8144    0.8945    5.7270 H   0  0  0  0  0  0  0  0  0  0  0  0
    6.4280   -2.6879    6.7384 H   0  0  0  0  0  0  0  0  0  0  0  0
    7.6505   -2.1677    5.5560 H   0  0  0  0  0  0  0  0  0  0  0  0
    5.2013   -3.9368    5.0315 H   0  0  0  0  0  0  0  0  0  0  0  0
    6.8569   -4.1644    4.4477 H   0  0  0  0  0  0  0  0  0  0  0  0
    7.6087   -2.7825    2.3276 H   0  0  0  0  0  0  0  0  0  0  0  0
    5.2361   -4.7493    1.8595 H   0  0  0  0  0  0  0  0  0  0  0  0
    6.9082   -4.8451    1.0947 H   0  0  0  0  0  0  0  0  0  0  0  0
    4.8804   -2.4627    0.8584 H   0  0  0  0  0  0  0  0  0  0  0  0
    6.5516   -2.5173    0.0939 H   0  0  0  0  0  0  0  0  0  0  0  0
    5.6639    1.5006    3.2455 H   0  0  0  0  0  0  0  0  0  0  0  0
  1  2  1  0
  1 28  1  0
  1 29  1  0
  1 30  1  0
  2  3  1  0
  3  4  2  0
  3 27  1  0
  4  5  1  0
  4 31  1  0
  5  6  2  0
  5 32  1  0
  6  7  1  0
  6 33  1  0
  7  8  1  0
  7 27  2  0
  8  9  1  0
  8 23  1  0
  8 34  1  6
  9 10  1  0
  9 21  1  0
  9 35  1  6
 10 11  1  0
 10 36  1  0
 11 12  1  0
 11 37  1  0
 11 38  1  0
 12 13  2  0
 12 20  1  0
 13 14  1  0
 13 39  1  0
 14 15  2  0
 14 40  1  0
 15 16  1  0
 15 41  1  0
 16 17  1  0
 16 20  2  0
 17 18  2  0
 17 19  1  0
 19 42  1  0
 20 43  1  0
 21 22  1  0
 21 44  1  0
 21 45  1  0
 22 23  1  0
 22 46  1  0
 22 47  1  0
 23 24  1  0
 24 25  1  0
 24 26  1  0
 24 48  1  6
 25 26  1  0
 25 49  1  0
 25 50  1  0
 26 51  1  0
 26 52  1  0
 27 53  1  0
M  END

