
     RDKit          3D

 58 62  0  0  0  0  0  0  0  0999 V2000
    1.4338   -0.3510   -0.9026 C   0  0  0  0  0  0  0  0  0  0  0  0
    2.7754   -0.3048   -0.3347 N   0  0  0  0  0  0  0  0  0  0  0  0
    3.4206    0.8859   -0.2326 C   0  0  0  0  0  0  0  0  0  0  0  0
    4.6764    1.0313    0.2861 C   0  0  0  0  0  0  0  0  0  0  0  0
    5.2803    2.7158    0.4476 S   0  0  1  0  0  0  0  0  0  0  0  0
    4.2759    3.5668   -0.2245 O   0  0  0  0  0  0  0  0  0  0  0  0
    5.6341    2.9515    1.8499 O   0  0  0  0  0  0  0  0  0  0  0  0
    6.7870    2.7918   -0.5365 C   0  0  0  0  0  0  0  0  0  0  0  0
    6.7095    3.2783   -1.8448 C   0  0  0  0  0  0  0  0  0  0  0  0
    7.8823    3.3798   -2.5971 C   0  0  0  0  0  0  0  0  0  0  0  0
    9.1078    3.0032   -2.0366 C   0  0  0  0  0  0  0  0  0  0  0  0
    9.1679    2.5273   -0.7222 C   0  0  0  0  0  0  0  0  0  0  0  0
    8.0039    2.4207    0.0431 C   0  0  0  0  0  0  0  0  0  0  0  0
    5.4390   -0.1080    0.7921 C   0  0  0  0  0  0  0  0  0  0  0  0
    6.5725   -0.0438    1.2570 O   0  0  0  0  0  0  0  0  0  0  0  0
    4.7024   -1.3889    0.6690 C   0  0  0  0  0  0  0  0  0  0  0  0
    5.3176   -2.5710    1.1113 C   0  0  0  0  0  0  0  0  0  0  0  0
    4.6792   -3.7860    1.0086 C   0  0  0  0  0  0  0  0  0  0  0  0
    5.3437   -4.8954    1.3908 F   0  0  0  0  0  0  0  0  0  0  0  0
    3.3621   -3.9119    0.4839 C   0  0  0  0  0  0  0  0  0  0  0  0
    2.6995   -5.1281    0.3979 N   0  0  0  0  0  0  0  0  0  0  0  0
    2.9760   -6.2693    1.2634 C   0  0  0  0  0  0  0  0  0  0  0  0
    1.6649   -6.9421    1.6726 C   0  0  0  0  0  0  0  0  0  0  0  0
    0.8616   -7.3101    0.5083 N   0  0  0  0  0  0  0  0  0  0  0  0
   -0.1414   -8.2899    0.6758 C   0  0  0  0  0  0  0  0  0  0  0  0
   -1.4663   -8.0967    0.2362 C   0  0  0  0  0  0  0  0  0  0  0  0
   -2.4299   -9.1011    0.3747 C   0  0  0  0  0  0  0  0  0  0  0  0
   -2.0828  -10.3051    0.9744 C   0  0  0  0  0  0  0  0  0  0  0  0
   -3.0069  -11.2698    1.1162 F   0  0  0  0  0  0  0  0  0  0  0  0
   -0.7835  -10.5274    1.4289 C   0  0  0  0  0  0  0  0  0  0  0  0
    0.1762   -9.5305    1.2720 C   0  0  0  0  0  0  0  0  0  0  0  0
    0.5862   -6.1703   -0.3480 C   0  0  0  0  0  0  0  0  0  0  0  0
    1.8935   -5.4915   -0.7595 C   0  0  0  0  0  0  0  0  0  0  0  0
    2.7531   -2.7207    0.0431 C   0  0  0  0  0  0  0  0  0  0  0  0
    3.4021   -1.4758    0.1160 C   0  0  0  0  0  0  0  0  0  0  0  0
    1.1377    0.6622   -1.1988 H   0  0  0  0  0  0  0  0  0  0  0  0
    0.7048   -0.7271   -0.1673 H   0  0  0  0  0  0  0  0  0  0  0  0
    1.4041   -0.9993   -1.7926 H   0  0  0  0  0  0  0  0  0  0  0  0
    2.8857    1.7697   -0.5883 H   0  0  0  0  0  0  0  0  0  0  0  0
    5.7433    3.5855   -2.2485 H   0  0  0  0  0  0  0  0  0  0  0  0
    7.8403    3.7621   -3.6201 H   0  0  0  0  0  0  0  0  0  0  0  0
   10.0239    3.0858   -2.6275 H   0  0  0  0  0  0  0  0  0  0  0  0
   10.1280    2.2390   -0.2873 H   0  0  0  0  0  0  0  0  0  0  0  0
    8.0214    2.0444    1.0657 H   0  0  0  0  0  0  0  0  0  0  0  0
    6.3306   -2.5113    1.5133 H   0  0  0  0  0  0  0  0  0  0  0  0
    3.4993   -5.9356    2.1655 H   0  0  0  0  0  0  0  0  0  0  0  0
    3.6225   -7.0081    0.7506 H   0  0  0  0  0  0  0  0  0  0  0  0
    1.0981   -6.2516    2.3350 H   0  0  0  0  0  0  0  0  0  0  0  0
    1.9003   -7.8379    2.2615 H   0  0  0  0  0  0  0  0  0  0  0  0
   -1.7685   -7.1508   -0.2130 H   0  0  0  0  0  0  0  0  0  0  0  0
   -3.4553   -8.9488    0.0314 H   0  0  0  0  0  0  0  0  0  0  0  0
   -0.5317  -11.4869    1.8852 H   0  0  0  0  0  0  0  0  0  0  0  0
    1.1993   -9.7292    1.5961 H   0  0  0  0  0  0  0  0  0  0  0  0
   -0.0733   -5.4236    0.1493 H   0  0  0  0  0  0  0  0  0  0  0  0
    0.0724   -6.5165   -1.2572 H   0  0  0  0  0  0  0  0  0  0  0  0
    1.6748   -4.6039   -1.3657 H   0  0  0  0  0  0  0  0  0  0  0  0
    2.4645   -6.1954   -1.3992 H   0  0  0  0  0  0  0  0  0  0  0  0
    1.7336   -2.7797   -0.3301 H   0  0  0  0  0  0  0  0  0  0  0  0
  1  2  1  0
  1 36  1  0
  1 37  1  0
  1 38  1  0
  2  3  1  0
  2 35  1  0
  3  4  2  0
  3 39  1  0
  5  4  1  1
  4 14  1  0
  5  6  2  0
  5  7  2  0
  5  8  1  0
  8  9  2  0
  8 13  1  0
  9 10  1  0
  9 40  1  0
 10 11  2  0
 10 41  1  0
 11 12  1  0
 11 42  1  0
 12 13  2  0
 12 43  1  0
 13 44  1  0
 14 15  2  0
 14 16  1  0
 16 17  1  0
 16 35  2  0
 17 18  2  0
 17 45  1  0
 18 19  1  0
 18 20  1  0
 20 21  1  0
 20 34  2  0
 21 22  1  0
 21 33  1  0
 22 23  1  0
 22 46  1  0
 22 47  1  0
 23 24  1  0
 23 48  1  0
 23 49  1  0
 24 25  1  0
 24 32  1  0
 25 26  2  0
 25 31  1  0
 26 27  1  0
 26 50  1  0
 27 28  2  0
 27 51  1  0
 28 29  1  0
 28 30  1  0
 30 31  2  0
 30 52  1  0
 31 53  1  0
 32 33  1  0
 32 54  1  0
 32 55  1  0
 33 56  1  0
 33 57  1  0
 34 35  1  0
 34 58  1  0
M  END

