
     RDKit          3D

 34 35  0  0  0  0  0  0  0  0999 V2000
    4.0516    3.9898    2.8136 N   0  0  0  0  0  0  0  0  0  0  0  0
    4.5872    3.1014    2.3423 N   0  0  0  0  0  0  0  0  0  0  0  0
    5.1126    2.1901    1.7152 N   0  0  0  0  0  0  0  0  0  0  0  0
    5.9191    1.2099    2.4611 C   0  0  0  0  0  0  0  0  0  0  0  0
    6.4853    0.1812    1.4912 C   0  0  0  0  0  0  0  0  0  0  0  0
    7.3279   -0.8894    2.1858 C   0  0  0  0  0  0  0  0  0  0  0  0
    7.9711   -1.8752    1.1941 C   0  0  1  0  0  0  0  0  0  0  0  0
    8.7836   -1.1943    0.2417 O   0  0  0  0  0  0  0  0  0  0  0  0
    8.7311   -3.0026    1.8771 C   0  0  0  0  0  0  0  0  0  0  0  0
    8.4012   -4.3426    1.6214 C   0  0  0  0  0  0  0  0  0  0  0  0
    9.1024   -5.3941    2.2240 C   0  0  0  0  0  0  0  0  0  0  0  0
   10.1527   -5.1045    3.0949 C   0  0  0  0  0  0  0  0  0  0  0  0
   10.4975   -3.7677    3.3582 C   0  0  0  0  0  0  0  0  0  0  0  0
    9.7934   -2.7246    2.7580 C   0  0  0  0  0  0  0  0  0  0  0  0
   11.6732   -3.7068    4.3111 C   0  0  0  0  0  0  0  0  0  0  0  0
   11.7030   -5.1276    4.9243 C   0  0  0  0  0  0  0  0  0  0  0  0
   11.0695   -6.0437    3.8495 C   0  0  0  0  0  0  0  0  0  0  0  0
    5.2948    0.7139    3.2292 H   0  0  0  0  0  0  0  0  0  0  0  0
    6.7404    1.7244    2.9963 H   0  0  0  0  0  0  0  0  0  0  0  0
    7.0991    0.6920    0.7334 H   0  0  0  0  0  0  0  0  0  0  0  0
    5.6485   -0.2890    0.9465 H   0  0  0  0  0  0  0  0  0  0  0  0
    6.7129   -1.4615    2.9030 H   0  0  0  0  0  0  0  0  0  0  0  0
    8.1247   -0.4071    2.7820 H   0  0  0  0  0  0  0  0  0  0  0  0
    7.1602   -2.3253    0.5973 H   0  0  0  0  0  0  0  0  0  0  0  0
    9.6410   -1.0184    0.6519 H   0  0  0  0  0  0  0  0  0  0  0  0
    7.5777   -4.5665    0.9374 H   0  0  0  0  0  0  0  0  0  0  0  0
    8.8226   -6.4297    2.0107 H   0  0  0  0  0  0  0  0  0  0  0  0
   10.0672   -1.6887    2.9854 H   0  0  0  0  0  0  0  0  0  0  0  0
   11.5804   -2.9117    5.0683 H   0  0  0  0  0  0  0  0  0  0  0  0
   12.6034   -3.4997    3.7490 H   0  0  0  0  0  0  0  0  0  0  0  0
   11.0738   -5.1439    5.8298 H   0  0  0  0  0  0  0  0  0  0  0  0
   12.7127   -5.4471    5.2229 H   0  0  0  0  0  0  0  0  0  0  0  0
   10.5457   -6.9133    4.2776 H   0  0  0  0  0  0  0  0  0  0  0  0
   11.8420   -6.4460    3.1672 H   0  0  0  0  0  0  0  0  0  0  0  0
  1  2  1  0
  2  3  3  0
  3  4  1  0
  4  5  1  0
  4 18  1  0
  4 19  1  0
  5  6  1  0
  5 20  1  0
  5 21  1  0
  6  7  1  0
  6 22  1  0
  6 23  1  0
  7  8  1  0
  7  9  1  0
  7 24  1  6
  8 25  1  0
  9 10  2  0
  9 14  1  0
 10 11  1  0
 10 26  1  0
 11 12  2  0
 11 27  1  0
 12 13  1  0
 12 17  1  0
 13 14  2  0
 13 15  1  0
 14 28  1  0
 15 16  1  0
 15 29  1  0
 15 30  1  0
 16 17  1  0
 16 31  1  0
 16 32  1  0
 17 33  1  0
 17 34  1  0
M  CHG  3   1  -2   2   1   3   1
M  END

