
     RDKit          3D

 74 76  0  0  0  0  0  0  0  0999 V2000
    8.2963   -7.0796    0.3065 C   0  0  0  0  0  0  0  0  0  0  0  0
    8.3612   -5.6245   -0.1099 C   0  0  0  0  0  0  0  0  0  0  0  0
    7.2396   -4.8799   -0.1753 C   0  0  0  0  0  0  0  0  0  0  0  0
    6.9347   -3.4137   -0.3990 C   0  0  2  0  0  0  0  0  0  0  0  0
    6.1338   -3.4051   -1.1635 H   0  0  0  0  0  0  0  0  0  0  0  0
    8.0578   -2.5210   -0.9325 C   0  0  0  0  0  0  0  0  0  0  0  0
    6.2511   -2.8494    0.8890 C   0  0  0  0  0  0  0  0  0  0  0  0
    7.1831   -2.7753    2.1231 C   0  0  1  0  0  0  0  0  0  0  0  0
    7.9874   -3.5021    1.9302 H   0  0  0  0  0  0  0  0  0  0  0  0
    7.8205   -1.3860    2.2912 C   0  0  0  0  0  0  0  0  0  0  0  0
    6.5849   -3.2038    3.5004 C   0  0  1  0  0  0  0  0  0  0  0  0
    6.2574   -2.3024    4.0402 H   0  0  0  0  0  0  0  0  0  0  0  0
    5.3872   -4.1753    3.5041 C   0  0  0  0  0  0  0  0  0  0  0  0
    4.9993   -4.6251    4.8689 C   0  0  0  0  0  0  0  0  0  0  0  0
    5.0686   -5.8038    5.5526 C   0  0  0  0  0  0  0  0  0  0  0  0
    4.5561   -5.6285    6.8291 N   0  0  0  0  0  0  0  0  0  0  0  0
    4.2100   -4.3848    6.8685 C   0  0  0  0  0  0  0  0  0  0  0  0
    4.4444   -3.7044    5.7210 O   0  0  0  0  0  0  0  0  0  0  0  0
    7.6956   -3.6555    4.3192 O   0  0  0  0  0  0  0  0  0  0  0  0
    8.3178   -4.8199    4.0231 C   0  0  0  0  0  0  0  0  0  0  0  0
    7.8130   -5.6964    3.3534 O   0  0  0  0  0  0  0  0  0  0  0  0
    9.7232   -4.8387    4.5384 C   0  0  0  0  0  0  0  0  0  0  0  0
   10.1419   -3.7971    5.5421 C   0  0  0  0  0  0  0  0  0  0  0  0
   10.5317   -5.7354    3.9375 C   0  0  0  0  0  0  0  0  0  0  0  0
   12.0175   -5.9141    4.0731 C   0  0  1  0  0  0  0  0  0  0  0  0
   12.4573   -5.0332    4.5667 H   0  0  0  0  0  0  0  0  0  0  0  0
   12.3118   -7.1387    4.9656 C   0  0  0  0  0  0  0  0  0  0  0  0
   12.6894   -6.1115    2.6905 C   0  0  0  0  0  0  0  0  0  0  0  0
   12.7264   -4.9250    1.6704 C   0  0  2  0  0  0  0  0  0  0  0  0
   13.7835   -4.7996    1.3869 H   0  0  0  0  0  0  0  0  0  0  0  0
   12.2744   -3.5623    2.2162 C   0  0  0  0  0  0  0  0  0  0  0  0
   12.0290   -5.2213    0.3297 C   0  0  1  0  0  0  0  0  0  0  0  0
   12.1134   -4.3319   -0.3122 H   0  0  0  0  0  0  0  0  0  0  0  0
   12.5857   -6.4222   -0.4693 C   0  0  0  0  0  0  0  0  0  0  0  0
   14.0136   -6.3010   -0.8731 C   0  0  0  0  0  0  0  0  0  0  0  0
   14.6579   -5.9140   -2.0133 C   0  0  0  0  0  0  0  0  0  0  0  0
   16.0280   -5.9953   -1.8241 N   0  0  0  0  0  0  0  0  0  0  0  0
   16.1603   -6.4162   -0.6103 C   0  0  0  0  0  0  0  0  0  0  0  0
   14.9891   -6.6257    0.0372 O   0  0  0  0  0  0  0  0  0  0  0  0
   10.6207   -5.4587    0.5655 O   0  0  0  0  0  0  0  0  0  0  0  0
    9.7506   -5.1526   -0.4322 C   0  0  0  0  0  0  0  0  0  0  0  0
   10.1029   -4.6429   -1.4701 O   0  0  0  0  0  0  0  0  0  0  0  0
    8.6838   -7.2036    1.3292 H   0  0  0  0  0  0  0  0  0  0  0  0
    8.8898   -7.7236   -0.3636 H   0  0  0  0  0  0  0  0  0  0  0  0
    7.2571   -7.4383    0.2969 H   0  0  0  0  0  0  0  0  0  0  0  0
    6.3264   -5.4408    0.0659 H   0  0  0  0  0  0  0  0  0  0  0  0
    8.4400   -2.8956   -1.8905 H   0  0  0  0  0  0  0  0  0  0  0  0
    8.9168   -2.4658   -0.2481 H   0  0  0  0  0  0  0  0  0  0  0  0
    7.6813   -1.4957   -1.0784 H   0  0  0  0  0  0  0  0  0  0  0  0
    5.3788   -3.4865    1.0934 H   0  0  0  0  0  0  0  0  0  0  0  0
    5.8438   -1.8499    0.6569 H   0  0  0  0  0  0  0  0  0  0  0  0
    8.3805   -1.0785    1.3976 H   0  0  0  0  0  0  0  0  0  0  0  0
    8.5146   -1.3733    3.1459 H   0  0  0  0  0  0  0  0  0  0  0  0
    7.0453   -0.6229    2.4765 H   0  0  0  0  0  0  0  0  0  0  0  0
    5.5988   -5.0604    2.8953 H   0  0  0  0  0  0  0  0  0  0  0  0
    4.5333   -3.6403    3.0560 H   0  0  0  0  0  0  0  0  0  0  0  0
    5.4613   -6.7572    5.2051 H   0  0  0  0  0  0  0  0  0  0  0  0
    3.7602   -3.8275    7.6890 H   0  0  0  0  0  0  0  0  0  0  0  0
    9.4672   -3.8006    6.4127 H   0  0  0  0  0  0  0  0  0  0  0  0
   10.0907   -2.7822    5.1148 H   0  0  0  0  0  0  0  0  0  0  0  0
   11.1648   -3.9685    5.9039 H   0  0  0  0  0  0  0  0  0  0  0  0
   10.0466   -6.4168    3.2314 H   0  0  0  0  0  0  0  0  0  0  0  0
   11.8765   -7.0127    5.9686 H   0  0  0  0  0  0  0  0  0  0  0  0
   13.3978   -7.2904    5.0773 H   0  0  0  0  0  0  0  0  0  0  0  0
   11.8863   -8.0579    4.5299 H   0  0  0  0  0  0  0  0  0  0  0  0
   12.2065   -6.9861    2.2239 H   0  0  0  0  0  0  0  0  0  0  0  0
   13.7280   -6.4261    2.8795 H   0  0  0  0  0  0  0  0  0  0  0  0
   11.2047   -3.5537    2.4655 H   0  0  0  0  0  0  0  0  0  0  0  0
   12.4550   -2.7753    1.4666 H   0  0  0  0  0  0  0  0  0  0  0  0
   12.8352   -3.2846    3.1214 H   0  0  0  0  0  0  0  0  0  0  0  0
   11.9876   -6.5078   -1.3878 H   0  0  0  0  0  0  0  0  0  0  0  0
   12.4408   -7.3510    0.1051 H   0  0  0  0  0  0  0  0  0  0  0  0
   14.2198   -5.5888   -2.9555 H   0  0  0  0  0  0  0  0  0  0  0  0
   17.0744   -6.6229   -0.0555 H   0  0  0  0  0  0  0  0  0  0  0  0
  1  2  1  0
  1 43  1  0
  1 44  1  0
  1 45  1  0
  2  3  2  0
  2 41  1  0
  3  4  1  0
  3 46  1  0
  4  5  1  6
  4  6  1  0
  4  7  1  0
  6 47  1  0
  6 48  1  0
  6 49  1  0
  7  8  1  0
  7 50  1  0
  7 51  1  0
  8  9  1  6
  8 10  1  0
  8 11  1  0
 10 52  1  0
 10 53  1  0
 10 54  1  0
 11 12  1  1
 11 13  1  0
 11 19  1  0
 13 14  1  0
 13 55  1  0
 13 56  1  0
 14 15  2  0
 14 18  1  0
 15 16  1  0
 15 57  1  0
 16 17  2  0
 17 18  1  0
 17 58  1  0
 19 20  1  0
 20 21  2  0
 20 22  1  0
 22 23  1  0
 22 24  2  0
 23 59  1  0
 23 60  1  0
 23 61  1  0
 24 25  1  0
 24 62  1  0
 25 26  1  1
 25 27  1  0
 25 28  1  0
 27 63  1  0
 27 64  1  0
 27 65  1  0
 28 29  1  0
 28 66  1  0
 28 67  1  0
 29 30  1  6
 29 31  1  0
 29 32  1  0
 31 68  1  0
 31 69  1  0
 31 70  1  0
 32 33  1  6
 32 34  1  0
 32 40  1  0
 34 35  1  0
 34 71  1  0
 34 72  1  0
 35 36  2  0
 35 39  1  0
 36 37  1  0
 36 73  1  0
 37 38  2  0
 38 39  1  0
 38 74  1  0
 40 41  1  0
 41 42  2  0
M  END

