
     RDKit          3D

 62 64  0  0  0  0  0  0  0  0999 V2000
    2.7890   -0.9123    1.0248 C   0  0  0  0  0  0  0  0  0  0  0  0
    4.2111   -0.4273    0.7988 C   0  0  0  0  0  0  0  0  0  0  0  0
    4.4546   -0.0519   -0.5760 O   0  0  0  0  0  0  0  0  0  0  0  0
    4.7409   -1.0289   -1.4588 C   0  0  0  0  0  0  0  0  0  0  0  0
    4.7264   -2.2036   -1.1341 O   0  0  0  0  0  0  0  0  0  0  0  0
    5.0702   -0.5997   -2.8402 C   0  0  0  0  0  0  0  0  0  0  0  0
    5.3673    0.6592   -3.3028 C   0  0  0  0  0  0  0  0  0  0  0  0
    5.2929    1.9309   -2.4670 C   0  0  0  0  0  0  0  0  0  0  0  0
    4.2085    2.8327   -2.8736 N   0  0  0  0  0  0  0  0  0  0  0  0
    2.8349    2.3520   -2.7026 C   0  0  0  0  0  0  0  0  0  0  0  0
    2.2822    2.5347   -1.2805 C   0  0  0  0  0  0  0  0  0  0  0  0
    2.4422    3.9821   -0.7973 C   0  0  0  0  0  0  0  0  0  0  0  0
    3.8827    4.4894   -0.9763 C   0  0  1  0  0  0  0  0  0  0  0  0
    3.9135    5.5857   -0.8441 H   0  0  0  0  0  0  0  0  0  0  0  0
    4.8304    3.9477    0.0865 C   0  0  0  0  0  0  0  0  0  0  0  0
    4.5382    3.1676    0.9638 O   0  0  0  0  0  0  0  0  0  0  0  0
    6.0604    4.4845   -0.0482 O   0  0  0  0  0  0  0  0  0  0  0  0
    7.0679    4.1280    0.9182 C   0  0  0  0  0  0  0  0  0  0  0  0
    7.8757    2.9215    0.4714 C   0  0  0  0  0  0  0  0  0  0  0  0
    4.3621    4.2098   -2.4300 C   0  0  0  0  0  0  0  0  0  0  0  0
    5.8284    0.8242   -4.6102 N   0  0  0  0  0  0  0  0  0  0  0  0
    6.0602    2.1476   -5.1960 C   0  0  0  0  0  0  0  0  0  0  0  0
    6.3489   -0.2554   -5.3632 C   0  0  0  0  0  0  0  0  0  0  0  0
    6.9539   -0.0750   -6.4051 O   0  0  0  0  0  0  0  0  0  0  0  0
    6.1497   -1.4853   -4.8132 N   0  0  0  0  0  0  0  0  0  0  0  0
    5.1386   -1.7731   -3.8157 C   0  0  2  0  0  0  0  0  0  0  0  0
    5.4704   -2.6466   -3.2392 H   0  0  0  0  0  0  0  0  0  0  0  0
    3.7636   -2.1175   -4.4140 C   0  0  0  0  0  0  0  0  0  0  0  0
    3.3814   -1.6894   -5.6949 C   0  0  0  0  0  0  0  0  0  0  0  0
    2.1137   -2.0015   -6.1986 C   0  0  0  0  0  0  0  0  0  0  0  0
    1.2080   -2.7471   -5.4420 C   0  0  0  0  0  0  0  0  0  0  0  0
    1.6052   -3.1742   -4.1762 C   0  0  0  0  0  0  0  0  0  0  0  0
    0.7518   -3.9035   -3.4394 F   0  0  0  0  0  0  0  0  0  0  0  0
    2.8594   -2.8771   -3.6531 C   0  0  0  0  0  0  0  0  0  0  0  0
    2.6375   -1.1126    2.0978 H   0  0  0  0  0  0  0  0  0  0  0  0
    2.5957   -1.8424    0.4720 H   0  0  0  0  0  0  0  0  0  0  0  0
    2.0560   -0.1517    0.7154 H   0  0  0  0  0  0  0  0  0  0  0  0
    4.9385   -1.2012    1.0849 H   0  0  0  0  0  0  0  0  0  0  0  0
    4.4114    0.4963    1.3594 H   0  0  0  0  0  0  0  0  0  0  0  0
    6.2356    2.4803   -2.6159 H   0  0  0  0  0  0  0  0  0  0  0  0
    5.2501    1.6433   -1.4105 H   0  0  0  0  0  0  0  0  0  0  0  0
    2.7850    1.2954   -3.0050 H   0  0  0  0  0  0  0  0  0  0  0  0
    2.2004    2.9136   -3.4146 H   0  0  0  0  0  0  0  0  0  0  0  0
    2.8102    1.8588   -0.5940 H   0  0  0  0  0  0  0  0  0  0  0  0
    1.2178    2.2447   -1.2625 H   0  0  0  0  0  0  0  0  0  0  0  0
    2.1350    4.0737    0.2555 H   0  0  0  0  0  0  0  0  0  0  0  0
    1.7789    4.6420   -1.3847 H   0  0  0  0  0  0  0  0  0  0  0  0
    6.5802    3.9400    1.8856 H   0  0  0  0  0  0  0  0  0  0  0  0
    7.7039    5.0214    1.0037 H   0  0  0  0  0  0  0  0  0  0  0  0
    7.2439    2.0231    0.4070 H   0  0  0  0  0  0  0  0  0  0  0  0
    8.6790    2.7205    1.1983 H   0  0  0  0  0  0  0  0  0  0  0  0
    8.3412    3.0975   -0.5109 H   0  0  0  0  0  0  0  0  0  0  0  0
    5.4100    4.5227   -2.5492 H   0  0  0  0  0  0  0  0  0  0  0  0
    3.7531    4.8514   -3.0927 H   0  0  0  0  0  0  0  0  0  0  0  0
    5.2417    2.8147   -4.9073 H   0  0  0  0  0  0  0  0  0  0  0  0
    6.1063    2.0298   -6.2834 H   0  0  0  0  0  0  0  0  0  0  0  0
    7.0234    2.5745   -4.8674 H   0  0  0  0  0  0  0  0  0  0  0  0
    6.4872   -2.2454   -5.3935 H   0  0  0  0  0  0  0  0  0  0  0  0
    4.0745   -1.1235   -6.3190 H   0  0  0  0  0  0  0  0  0  0  0  0
    1.8304   -1.6627   -7.1983 H   0  0  0  0  0  0  0  0  0  0  0  0
    0.2152   -3.0076   -5.8136 H   0  0  0  0  0  0  0  0  0  0  0  0
    3.1274   -3.2373   -2.6586 H   0  0  0  0  0  0  0  0  0  0  0  0
  1  2  1  0
  1 35  1  0
  1 36  1  0
  1 37  1  0
  2  3  1  0
  2 38  1  0
  2 39  1  0
  3  4  1  0
  4  5  2  0
  4  6  1  0
  6  7  2  0
  6 26  1  0
  7  8  1  0
  7 21  1  0
  8  9  1  0
  8 40  1  0
  8 41  1  0
  9 10  1  0
  9 20  1  0
 10 11  1  0
 10 42  1  0
 10 43  1  0
 11 12  1  0
 11 44  1  0
 11 45  1  0
 12 13  1  0
 12 46  1  0
 12 47  1  0
 13 14  1  6
 13 15  1  0
 13 20  1  0
 15 16  2  0
 15 17  1  0
 17 18  1  0
 18 19  1  0
 18 48  1  0
 18 49  1  0
 19 50  1  0
 19 51  1  0
 19 52  1  0
 20 53  1  0
 20 54  1  0
 21 22  1  0
 21 23  1  0
 22 55  1  0
 22 56  1  0
 22 57  1  0
 23 24  2  0
 23 25  1  0
 25 26  1  0
 25 58  1  0
 26 27  1  1
 26 28  1  0
 28 29  2  0
 28 34  1  0
 29 30  1  0
 29 59  1  0
 30 31  2  0
 30 60  1  0
 31 32  1  0
 31 61  1  0
 32 33  1  0
 32 34  2  0
 34 62  1  0
M  END

