
     RDKit          3D

 41 42  0  0  0  0  0  0  0  0999 V2000
    1.8220    1.7123    0.2705 C   0  0  0  0  0  0  0  0  0  0  0  0
    3.1371    1.7559   -0.4839 C   0  0  0  0  0  0  0  0  0  0  0  0
    3.4939    0.4277   -0.8303 O   0  0  0  0  0  0  0  0  0  0  0  0
    4.6594    0.1881   -1.4871 C   0  0  0  0  0  0  0  0  0  0  0  0
    5.5506    1.1838   -1.9037 C   0  0  0  0  0  0  0  0  0  0  0  0
    6.7545    0.8619   -2.5613 C   0  0  0  0  0  0  0  0  0  0  0  0
    7.7270    1.9077   -2.9979 C   0  0  1  0  0  0  0  0  0  0  0  0
    7.3541    3.3309   -3.2806 C   0  0  0  0  0  0  0  0  0  0  0  0
    8.1632    3.0313   -2.0443 C   0  0  2  0  0  0  0  0  0  0  0  0
    9.6178    3.4061   -2.0753 C   0  0  0  0  0  0  0  0  0  0  0  0
   10.2076    3.5759   -3.1293 O   0  0  0  0  0  0  0  0  0  0  0  0
   10.2397    3.6154   -0.8542 N   0  0  0  0  0  0  0  0  0  0  0  0
    9.8840    3.0415    0.4285 C   0  0  0  0  0  0  0  0  0  0  0  0
   11.6211    3.7962   -0.9221 O   0  0  0  0  0  0  0  0  0  0  0  0
   11.9634    5.1492   -1.1898 C   0  0  0  0  0  0  0  0  0  0  0  0
    7.0464   -0.4865   -2.7968 C   0  0  0  0  0  0  0  0  0  0  0  0
    6.1552   -1.4866   -2.3946 C   0  0  0  0  0  0  0  0  0  0  0  0
    4.9645   -1.1736   -1.7424 C   0  0  0  0  0  0  0  0  0  0  0  0
    4.1525   -2.1831   -1.3087 O   0  0  0  0  0  0  0  0  0  0  0  0
    2.8861   -2.3121   -1.9357 C   0  0  0  0  0  0  0  0  0  0  0  0
    1.5228    2.7283    0.5713 H   0  0  0  0  0  0  0  0  0  0  0  0
    1.9144    1.0928    1.1755 H   0  0  0  0  0  0  0  0  0  0  0  0
    1.0236    1.2880   -0.3575 H   0  0  0  0  0  0  0  0  0  0  0  0
    3.9310    2.2070    0.1413 H   0  0  0  0  0  0  0  0  0  0  0  0
    3.0447    2.3754   -1.3964 H   0  0  0  0  0  0  0  0  0  0  0  0
    5.3075    2.2290   -1.7129 H   0  0  0  0  0  0  0  0  0  0  0  0
    8.5483    1.5253   -3.6107 H   0  0  0  0  0  0  0  0  0  0  0  0
    6.3141    3.6380   -3.1419 H   0  0  0  0  0  0  0  0  0  0  0  0
    7.8929    3.8289   -4.0902 H   0  0  0  0  0  0  0  0  0  0  0  0
    7.6348    3.0672   -1.0911 H   0  0  0  0  0  0  0  0  0  0  0  0
    8.8040    2.8690    0.4892 H   0  0  0  0  0  0  0  0  0  0  0  0
   10.1718    3.7360    1.2325 H   0  0  0  0  0  0  0  0  0  0  0  0
   10.4064    2.0821    0.5914 H   0  0  0  0  0  0  0  0  0  0  0  0
   13.0607    5.1894   -1.1320 H   0  0  0  0  0  0  0  0  0  0  0  0
   11.5320    5.8323   -0.4360 H   0  0  0  0  0  0  0  0  0  0  0  0
   11.6391    5.4472   -2.1991 H   0  0  0  0  0  0  0  0  0  0  0  0
    7.9752   -0.7599   -3.3033 H   0  0  0  0  0  0  0  0  0  0  0  0
    6.3738   -2.5420   -2.5717 H   0  0  0  0  0  0  0  0  0  0  0  0
    2.4052   -3.1981   -1.4971 H   0  0  0  0  0  0  0  0  0  0  0  0
    2.9939   -2.4685   -3.0251 H   0  0  0  0  0  0  0  0  0  0  0  0
    2.2482   -1.4314   -1.7593 H   0  0  0  0  0  0  0  0  0  0  0  0
  1  2  1  0
  1 21  1  0
  1 22  1  0
  1 23  1  0
  2  3  1  0
  2 24  1  0
  2 25  1  0
  3  4  1  0
  4  5  2  0
  4 18  1  0
  5  6  1  0
  5 26  1  0
  6  7  1  0
  6 16  2  0
  7  8  1  0
  7  9  1  0
  7 27  1  6
  8  9  1  0
  8 28  1  0
  8 29  1  0
  9 10  1  0
  9 30  1  1
 10 11  2  0
 10 12  1  0
 12 13  1  0
 12 14  1  0
 13 31  1  0
 13 32  1  0
 13 33  1  0
 14 15  1  0
 15 34  1  0
 15 35  1  0
 15 36  1  0
 16 17  1  0
 16 37  1  0
 17 18  2  0
 17 38  1  0
 18 19  1  0
 19 20  1  0
 20 39  1  0
 20 40  1  0
 20 41  1  0
M  END

