
     RDKit          3D

 14 14  0  0  0  0  0  0  0  0999 V2000
    1.0652    0.3085    0.2054 O   0  0  0  0  0  0  0  0  0  0  0  0
    2.3443    0.2105   -0.3557 N   0  0  0  0  0  0  0  0  0  0  0  0
    3.0926    1.3692   -0.0935 C   0  0  0  0  0  0  0  0  0  0  0  0
    4.4261    1.2870    0.0293 C   0  0  0  0  0  0  0  0  0  0  0  0
    5.4156    2.7032    0.2760 Cl  0  0  0  0  0  0  0  0  0  0  0  0
    5.1629   -0.0191   -0.0518 C   0  0  0  0  0  0  0  0  0  0  0  0
    4.2517   -1.1784   -0.2286 N   0  0  0  0  0  0  0  0  0  0  0  0
    4.3221   -1.8032   -1.8992 Cl  0  0  0  0  0  0  0  0  0  0  0  0
    2.9454   -1.0020    0.1531 N   0  0  0  0  0  0  0  0  0  0  0  0
    0.4977   -0.1344   -0.4443 H   0  0  0  0  0  0  0  0  0  0  0  0
    2.5327    2.3046   -0.0800 H   0  0  0  0  0  0  0  0  0  0  0  0
    5.7432   -0.1847    0.8752 H   0  0  0  0  0  0  0  0  0  0  0  0
    5.8883   -0.0084   -0.8783 H   0  0  0  0  0  0  0  0  0  0  0  0
    2.9120   -0.9884    1.1807 H   0  0  0  0  0  0  0  0  0  0  0  0
  1  2  1  0
  1 10  1  0
  2  3  1  0
  2  9  1  0
  3  4  2  0
  3 11  1  0
  4  5  1  0
  4  6  1  0
  6  7  1  0
  6 12  1  0
  6 13  1  0
  7  8  1  0
  7  9  1  0
  9 14  1  0
M  END

