
     RDKit          3D

110116  0  0  0  0  0  0  0  0999 V2000
    9.9671    4.3971    0.7386 C   0  0  0  0  0  0  0  0  0  0  0  0
   10.2297    3.2963   -0.2899 C   0  0  0  0  0  0  0  0  0  0  0  0
    8.9623    2.5565   -0.7304 C   0  0  0  0  0  0  0  0  0  0  0  0
    9.2381    1.4346   -1.7356 C   0  0  0  0  0  0  0  0  0  0  0  0
    8.0597    0.5071   -2.0670 C   0  0  0  0  0  0  0  0  0  0  0  0
    6.9151    1.0585   -2.9486 C   0  0  0  0  0  0  0  0  0  0  0  0
    7.3275    1.7651   -4.1807 N   0  0  0  0  0  0  0  0  0  0  0  0
    8.0136    1.0496   -5.1573 C   0  0  0  0  0  0  0  0  0  0  0  0
    8.1291   -0.3623   -5.0838 C   0  0  0  0  0  0  0  0  0  0  0  0
    8.9413   -1.0654   -5.9603 C   0  0  0  0  0  0  0  0  0  0  0  0
    9.6903   -0.3881   -6.9343 C   0  0  0  0  0  0  0  0  0  0  0  0
    9.5096    0.9767   -7.0819 C   0  0  0  0  0  0  0  0  0  0  0  0
    8.6198    1.7124   -6.2644 C   0  0  0  0  0  0  0  0  0  0  0  0
    8.3089    3.1210   -6.5310 C   0  0  0  0  0  0  0  0  0  0  0  0
    8.3352    3.6438   -7.8221 C   0  0  0  0  0  0  0  0  0  0  0  0
    8.1745    5.0333   -8.1133 C   0  0  0  0  0  0  0  0  0  0  0  0
    8.0735    6.1486   -8.4371 N   0  0  0  0  0  0  0  0  0  0  0  0
    8.3944    2.8412   -9.0885 C   0  0  0  0  0  0  0  0  0  0  0  0
    7.5061    1.7720   -9.3019 C   0  0  0  0  0  0  0  0  0  0  0  0
    7.5120    1.0710  -10.5076 C   0  0  0  0  0  0  0  0  0  0  0  0
    6.5900   -0.1116  -10.6912 C   0  0  1  0  0  0  0  0  0  0  0  0
    5.4655    0.0133   -9.9670 F   0  0  0  0  0  0  0  0  0  0  0  0
    6.2327   -0.2701  -11.9763 F   0  0  0  0  0  0  0  0  0  0  0  0
    7.1836   -1.2569  -10.3034 F   0  0  0  0  0  0  0  0  0  0  0  0
    8.3909    1.4289  -11.5360 C   0  0  0  0  0  0  0  0  0  0  0  0
    9.2617    2.5015  -11.3397 C   0  0  0  0  0  0  0  0  0  0  0  0
   10.2508    2.8789  -12.4180 C   0  0  1  0  0  0  0  0  0  0  0  0
    9.8287    2.5051  -13.6366 F   0  0  0  0  0  0  0  0  0  0  0  0
   10.4714    4.2030  -12.4491 F   0  0  0  0  0  0  0  0  0  0  0  0
   11.4436    2.2865  -12.2134 F   0  0  0  0  0  0  0  0  0  0  0  0
    9.2587    3.2072  -10.1317 C   0  0  0  0  0  0  0  0  0  0  0  0
    7.8672    3.8723   -5.3432 C   0  0  0  0  0  0  0  0  0  0  0  0
    7.9130    5.2709   -5.2724 C   0  0  0  0  0  0  0  0  0  0  0  0
    7.2607    6.0245   -4.2892 C   0  0  0  0  0  0  0  0  0  0  0  0
    6.5279    5.3231   -3.2849 C   0  0  0  0  0  0  0  0  0  0  0  0
    6.5630    3.9214   -3.3047 C   0  0  0  0  0  0  0  0  0  0  0  0
    7.2595    3.1627   -4.2601 C   0  0  0  0  0  0  0  0  0  0  0  0
    5.8309    6.1178   -2.2587 C   0  0  0  0  0  0  0  0  0  0  0  0
    5.5250    5.6871   -0.9684 C   0  0  0  0  0  0  0  0  0  0  0  0
    5.5390    4.3132   -0.5809 C   0  0  0  0  0  0  0  0  0  0  0  0
    5.4840    3.2113   -0.2041 N   0  0  0  0  0  0  0  0  0  0  0  0
    5.2237    6.5877    0.1886 C   0  0  0  0  0  0  0  0  0  0  0  0
    4.2275    6.2599    1.1246 C   0  0  0  0  0  0  0  0  0  0  0  0
    3.9990    7.0706    2.2396 C   0  0  0  0  0  0  0  0  0  0  0  0
    2.9529    6.6698    3.2540 C   0  0  1  0  0  0  0  0  0  0  0  0
    1.9379    5.9997    2.6827 F   0  0  0  0  0  0  0  0  0  0  0  0
    3.4702    5.8697    4.2033 F   0  0  0  0  0  0  0  0  0  0  0  0
    2.4333    7.7398    3.8797 F   0  0  0  0  0  0  0  0  0  0  0  0
    4.7614    8.2225    2.4504 C   0  0  0  0  0  0  0  0  0  0  0  0
    5.7677    8.5436    1.5353 C   0  0  0  0  0  0  0  0  0  0  0  0
    6.6026    9.7890    1.7185 C   0  0  1  0  0  0  0  0  0  0  0  0
    6.4783   10.3046    2.9509 F   0  0  0  0  0  0  0  0  0  0  0  0
    7.9113    9.5401    1.5143 F   0  0  0  0  0  0  0  0  0  0  0  0
    6.2499   10.7498    0.8448 F   0  0  0  0  0  0  0  0  0  0  0  0
    6.0025    7.7338    0.4229 C   0  0  0  0  0  0  0  0  0  0  0  0
    5.4753    7.4691   -2.7140 C   0  0  0  0  0  0  0  0  0  0  0  0
    4.3221    8.1245   -2.2235 C   0  0  0  0  0  0  0  0  0  0  0  0
    3.9866    9.4107   -2.6109 C   0  0  0  0  0  0  0  0  0  0  0  0
    4.8147   10.0810   -3.5232 C   0  0  0  0  0  0  0  0  0  0  0  0
    5.9199    9.4479   -4.0728 C   0  0  0  0  0  0  0  0  0  0  0  0
    6.2586    8.1209   -3.7115 C   0  0  0  0  0  0  0  0  0  0  0  0
    7.2966    7.4227   -4.3231 N   0  0  0  0  0  0  0  0  0  0  0  0
    8.2729    8.0794   -5.2105 C   0  0  0  0  0  0  0  0  0  0  0  0
    9.7471    7.9283   -4.7753 C   0  0  0  0  0  0  0  0  0  0  0  0
   10.3100    9.0962   -3.9483 C   0  0  0  0  0  0  0  0  0  0  0  0
    9.6850    9.3400   -2.5657 C   0  0  0  0  0  0  0  0  0  0  0  0
    9.8401    8.2062   -1.5402 C   0  0  0  0  0  0  0  0  0  0  0  0
   11.2879    7.8578   -1.1848 C   0  0  0  0  0  0  0  0  0  0  0  0
   10.9005    4.8959    1.0452 H   0  0  0  0  0  0  0  0  0  0  0  0
    9.4935    3.9905    1.6477 H   0  0  0  0  0  0  0  0  0  0  0  0
    9.2918    5.1706    0.3366 H   0  0  0  0  0  0  0  0  0  0  0  0
   10.9478    2.5671    0.1282 H   0  0  0  0  0  0  0  0  0  0  0  0
   10.7278    3.7292   -1.1770 H   0  0  0  0  0  0  0  0  0  0  0  0
    8.2503    3.2827   -1.1548 H   0  0  0  0  0  0  0  0  0  0  0  0
    8.4575    2.1357    0.1580 H   0  0  0  0  0  0  0  0  0  0  0  0
   10.0422    0.7964   -1.3278 H   0  0  0  0  0  0  0  0  0  0  0  0
    9.6531    1.8592   -2.6679 H   0  0  0  0  0  0  0  0  0  0  0  0
    7.5805    0.1735   -1.1299 H   0  0  0  0  0  0  0  0  0  0  0  0
    8.4724   -0.4008   -2.5293 H   0  0  0  0  0  0  0  0  0  0  0  0
    6.2974    1.7278   -2.3480 H   0  0  0  0  0  0  0  0  0  0  0  0
    6.2472    0.2301   -3.2323 H   0  0  0  0  0  0  0  0  0  0  0  0
    7.5818   -0.9169   -4.3267 H   0  0  0  0  0  0  0  0  0  0  0  0
    9.0108   -2.1519   -5.8670 H   0  0  0  0  0  0  0  0  0  0  0  0
   10.3879   -0.9265   -7.5785 H   0  0  0  0  0  0  0  0  0  0  0  0
   10.0710    1.5072   -7.8491 H   0  0  0  0  0  0  0  0  0  0  0  0
    6.7973    1.4933   -8.5216 H   0  0  0  0  0  0  0  0  0  0  0  0
    8.3808    0.8914  -12.4844 H   0  0  0  0  0  0  0  0  0  0  0  0
    9.9313    4.0575  -10.0049 H   0  0  0  0  0  0  0  0  0  0  0  0
    8.4496    5.7963   -6.0495 H   0  0  0  0  0  0  0  0  0  0  0  0
    5.9961    3.4062   -2.5440 H   0  0  0  0  0  0  0  0  0  0  0  0
    3.6209    5.3643    0.9794 H   0  0  0  0  0  0  0  0  0  0  0  0
    4.5800    8.8563    3.3180 H   0  0  0  0  0  0  0  0  0  0  0  0
    6.8063    7.9883   -0.2687 H   0  0  0  0  0  0  0  0  0  0  0  0
    3.6725    7.5886   -1.5327 H   0  0  0  0  0  0  0  0  0  0  0  0
    3.0858    9.8880   -2.2205 H   0  0  0  0  0  0  0  0  0  0  0  0
    4.5742   11.0989   -3.8398 H   0  0  0  0  0  0  0  0  0  0  0  0
    6.4963    9.9829   -4.8238 H   0  0  0  0  0  0  0  0  0  0  0  0
    8.0336    9.1445   -5.2559 H   0  0  0  0  0  0  0  0  0  0  0  0
    8.1308    7.7037   -6.2358 H   0  0  0  0  0  0  0  0  0  0  0  0
   10.3519    7.8426   -5.6935 H   0  0  0  0  0  0  0  0  0  0  0  0
    9.8841    6.9733   -4.2428 H   0  0  0  0  0  0  0  0  0  0  0  0
   10.2106   10.0222   -4.5435 H   0  0  0  0  0  0  0  0  0  0  0  0
   11.3968    8.9417   -3.8353 H   0  0  0  0  0  0  0  0  0  0  0  0
    8.6121    9.5744   -2.6791 H   0  0  0  0  0  0  0  0  0  0  0  0
   10.1392   10.2557   -2.1459 H   0  0  0  0  0  0  0  0  0  0  0  0
    9.3218    7.2994   -1.9004 H   0  0  0  0  0  0  0  0  0  0  0  0
    9.3114    8.5072   -0.6196 H   0  0  0  0  0  0  0  0  0  0  0  0
   11.8456    7.4610   -2.0486 H   0  0  0  0  0  0  0  0  0  0  0  0
   11.3274    7.0936   -0.3930 H   0  0  0  0  0  0  0  0  0  0  0  0
   11.8330    8.7443   -0.8189 H   0  0  0  0  0  0  0  0  0  0  0  0
  1  2  1  0
  1 69  1  0
  1 70  1  0
  1 71  1  0
  2  3  1  0
  2 72  1  0
  2 73  1  0
  3  4  1  0
  3 74  1  0
  3 75  1  0
  4  5  1  0
  4 76  1  0
  4 77  1  0
  5  6  1  0
  5 78  1  0
  5 79  1  0
  6  7  1  0
  6 80  1  0
  6 81  1  0
  7  8  1  0
  7 37  1  0
  8  9  1  0
  8 13  2  0
  9 10  2  0
  9 82  1  0
 10 11  1  0
 10 83  1  0
 11 12  2  0
 11 84  1  0
 12 13  1  0
 12 85  1  0
 13 14  1  0
 14 15  2  0
 14 32  1  0
 15 16  1  0
 15 18  1  0
 16 17  3  0
 18 19  2  0
 18 31  1  0
 19 20  1  0
 19 86  1  0
 20 21  1  0
 20 25  2  0
 21 22  1  1
 21 23  1  0
 21 24  1  0
 25 26  1  0
 25 87  1  0
 26 27  1  0
 26 31  2  0
 27 28  1  6
 27 29  1  0
 27 30  1  0
 31 88  1  0
 32 33  1  0
 32 37  2  0
 33 34  2  0
 33 89  1  0
 34 35  1  0
 34 62  1  0
 35 36  2  0
 35 38  1  0
 36 37  1  0
 36 90  1  0
 38 39  2  0
 38 56  1  0
 39 40  1  0
 39 42  1  0
 40 41  3  0
 42 43  2  0
 42 55  1  0
 43 44  1  0
 43 91  1  0
 44 45  1  0
 44 49  2  0
 45 46  1  6
 45 47  1  0
 45 48  1  0
 49 50  1  0
 49 92  1  0
 50 51  1  0
 50 55  2  0
 51 52  1  1
 51 53  1  0
 51 54  1  0
 55 93  1  0
 56 57  1  0
 56 61  2  0
 57 58  2  0
 57 94  1  0
 58 59  1  0
 58 95  1  0
 59 60  2  0
 59 96  1  0
 60 61  1  0
 60 97  1  0
 61 62  1  0
 62 63  1  0
 63 64  1  0
 63 98  1  0
 63 99  1  0
 64 65  1  0
 64100  1  0
 64101  1  0
 65 66  1  0
 65102  1  0
 65103  1  0
 66 67  1  0
 66104  1  0
 66105  1  0
 67 68  1  0
 67106  1  0
 67107  1  0
 68108  1  0
 68109  1  0
 68110  1  0
M  END

