
     RDKit          3D

 44 45  0  0  0  0  0  0  0  0999 V2000
    4.9540    0.1947   -0.6402 O   0  0  0  0  0  0  0  0  0  0  0  0
    4.3239    1.2169   -0.7552 C   0  0  0  0  0  0  0  0  0  0  0  0
    3.1528    1.3589   -0.0995 O   0  0  0  0  0  0  0  0  0  0  0  0
    4.8064    2.4106   -1.5643 C   0  0  0  0  0  0  0  0  0  0  0  0
    5.7959    3.3048   -0.7832 C   0  0  0  0  0  0  0  0  0  0  0  0
    6.9640    2.5406   -0.1315 C   0  0  0  0  0  0  0  0  0  0  0  0
    7.6140    1.5799   -1.0000 N   0  0  0  0  0  0  0  0  0  0  0  0
    8.5110    2.0003   -1.9585 C   0  0  0  0  0  0  0  0  0  0  0  0
    8.8932    3.1596   -2.0482 O   0  0  0  0  0  0  0  0  0  0  0  0
    8.9403    1.0035   -2.8150 N   0  0  0  0  0  0  0  0  0  0  0  0
    9.9939    1.2575   -3.7801 C   0  0  0  0  0  0  0  0  0  0  0  0
   11.4137    1.0994   -3.2265 C   0  0  1  0  0  0  0  0  0  0  0  0
   11.7567   -0.2903   -2.6721 C   0  0  0  0  0  0  0  0  0  0  0  0
   13.2866   -0.2742   -2.6873 C   0  0  0  0  0  0  0  0  0  0  0  0
   13.6642    0.5948   -3.7509 O   0  0  0  0  0  0  0  0  0  0  0  0
   12.5337    1.2817   -4.2815 C   0  0  2  0  0  0  0  0  0  0  0  0
   12.8819    2.7186   -4.6118 C   0  0  0  0  0  0  0  0  0  0  0  0
   12.2132    3.3900   -5.6458 C   0  0  0  0  0  0  0  0  0  0  0  0
   12.4932    4.7305   -5.9262 C   0  0  0  0  0  0  0  0  0  0  0  0
   13.4583    5.4144   -5.1820 C   0  0  0  0  0  0  0  0  0  0  0  0
   14.1414    4.7476   -4.1597 C   0  0  0  0  0  0  0  0  0  0  0  0
   13.8562    3.4098   -3.8771 C   0  0  0  0  0  0  0  0  0  0  0  0
    2.7595    2.2213   -0.2940 H   0  0  0  0  0  0  0  0  0  0  0  0
    3.9581    3.0176   -1.9232 H   0  0  0  0  0  0  0  0  0  0  0  0
    5.3117    2.0036   -2.4521 H   0  0  0  0  0  0  0  0  0  0  0  0
    5.2613    3.8667    0.0029 H   0  0  0  0  0  0  0  0  0  0  0  0
    6.2043    4.0460   -1.4874 H   0  0  0  0  0  0  0  0  0  0  0  0
    6.6148    1.9978    0.7608 H   0  0  0  0  0  0  0  0  0  0  0  0
    7.7165    3.2713    0.1984 H   0  0  0  0  0  0  0  0  0  0  0  0
    7.1192    0.6998   -1.1203 H   0  0  0  0  0  0  0  0  0  0  0  0
    8.7717    0.0409   -2.5467 H   0  0  0  0  0  0  0  0  0  0  0  0
    9.8582    2.2862   -4.1426 H   0  0  0  0  0  0  0  0  0  0  0  0
    9.8511    0.5756   -4.6373 H   0  0  0  0  0  0  0  0  0  0  0  0
   11.5570    1.8559   -2.4361 H   0  0  0  0  0  0  0  0  0  0  0  0
   11.3719   -1.0730   -3.3504 H   0  0  0  0  0  0  0  0  0  0  0  0
   11.3427   -0.4758   -1.6694 H   0  0  0  0  0  0  0  0  0  0  0  0
   13.7271   -1.2713   -2.8574 H   0  0  0  0  0  0  0  0  0  0  0  0
   13.6916    0.1129   -1.7326 H   0  0  0  0  0  0  0  0  0  0  0  0
   12.2129    0.7810   -5.2199 H   0  0  0  0  0  0  0  0  0  0  0  0
   11.4700    2.8565   -6.2460 H   0  0  0  0  0  0  0  0  0  0  0  0
   11.9612    5.2392   -6.7344 H   0  0  0  0  0  0  0  0  0  0  0  0
   13.6831    6.4611   -5.4027 H   0  0  0  0  0  0  0  0  0  0  0  0
   14.9059    5.2728   -3.5807 H   0  0  0  0  0  0  0  0  0  0  0  0
   14.4008    2.8795   -3.0937 H   0  0  0  0  0  0  0  0  0  0  0  0
  1  2  2  0
  2  3  1  0
  2  4  1  0
  3 23  1  0
  4  5  1  0
  4 24  1  0
  4 25  1  0
  5  6  1  0
  5 26  1  0
  5 27  1  0
  6  7  1  0
  6 28  1  0
  6 29  1  0
  7  8  1  0
  7 30  1  0
  8  9  2  0
  8 10  1  0
 10 11  1  0
 10 31  1  0
 11 12  1  0
 11 32  1  0
 11 33  1  0
 12 13  1  0
 12 16  1  0
 12 34  1  1
 13 14  1  0
 13 35  1  0
 13 36  1  0
 14 15  1  0
 14 37  1  0
 14 38  1  0
 15 16  1  0
 16 17  1  0
 16 39  1  6
 17 18  2  0
 17 22  1  0
 18 19  1  0
 18 40  1  0
 19 20  2  0
 19 41  1  0
 20 21  1  0
 20 42  1  0
 21 22  2  0
 21 43  1  0
 22 44  1  0
M  END

