
     RDKit          3D

 47 50  0  0  0  0  0  0  0  0999 V2000
    6.5207    0.5353    0.4916 C   0  0  0  0  0  0  0  0  0  0  0  0
    5.8525   -0.8322    0.2714 C   0  0  2  0  0  0  0  0  0  0  0  0
    6.0401   -1.1722   -0.7575 H   0  0  0  0  0  0  0  0  0  0  0  0
    4.3304   -0.6814    0.3614 C   0  0  0  0  0  0  0  0  0  0  0  0
    3.6875   -0.1646   -0.5313 O   0  0  0  0  0  0  0  0  0  0  0  0
    3.7755   -1.1073    1.5346 N   0  0  0  0  0  0  0  0  0  0  0  0
    4.4195   -1.7082    2.5867 N   0  0  0  0  0  0  0  0  0  0  0  0
    5.6333   -2.0743    2.3788 C   0  0  0  0  0  0  0  0  0  0  0  0
    6.3952   -2.7712    3.4723 C   0  0  0  0  0  0  0  0  0  0  0  0
    7.0851   -3.8986    2.9550 O   0  0  0  0  0  0  0  0  0  0  0  0
    7.8680   -3.6167    1.8704 C   0  0  0  0  0  0  0  0  0  0  0  0
    9.0043   -4.3762    1.6402 C   0  0  0  0  0  0  0  0  0  0  0  0
    9.8338   -4.1536    0.5302 C   0  0  0  0  0  0  0  0  0  0  0  0
   11.1075   -4.9613    0.4615 C   0  0  1  0  0  0  0  0  0  0  0  0
   11.4352   -5.4661    1.6656 F   0  0  0  0  0  0  0  0  0  0  0  0
   11.0237   -6.0234   -0.3744 F   0  0  0  0  0  0  0  0  0  0  0  0
   12.1637   -4.2308    0.0506 F   0  0  0  0  0  0  0  0  0  0  0  0
    9.4914   -3.1441   -0.4111 C   0  0  0  0  0  0  0  0  0  0  0  0
   10.2440   -2.8727   -1.5590 N   0  0  0  0  0  0  0  0  0  0  0  0
   10.6314   -3.9208   -2.4877 C   0  0  0  0  0  0  0  0  0  0  0  0
   10.5806   -1.5091   -1.9572 C   0  0  1  0  0  0  0  0  0  0  0  0
    9.7150   -0.9564   -3.0980 C   0  0  0  0  0  0  0  0  0  0  0  0
   10.7762   -0.4755   -0.8089 C   0  0  0  0  0  0  0  0  0  0  0  0
   11.9991   -0.0059   -1.4779 N   0  0  0  0  0  0  0  0  0  0  0  0
   12.1033   -1.2656   -2.2308 C   0  0  0  0  0  0  0  0  0  0  0  0
    8.3388   -2.3711   -0.1459 C   0  0  0  0  0  0  0  0  0  0  0  0
    7.5218   -2.5811    0.9709 C   0  0  0  0  0  0  0  0  0  0  0  0
    6.3291   -1.8689    1.1968 N   0  0  0  0  0  0  0  0  0  0  0  0
    7.6121    0.4665    0.3754 H   0  0  0  0  0  0  0  0  0  0  0  0
    6.3045    0.9155    1.5025 H   0  0  0  0  0  0  0  0  0  0  0  0
    6.1322    1.2562   -0.2420 H   0  0  0  0  0  0  0  0  0  0  0  0
    2.7833   -0.9396    1.6722 H   0  0  0  0  0  0  0  0  0  0  0  0
    5.6935   -3.1250    4.2358 H   0  0  0  0  0  0  0  0  0  0  0  0
    7.1177   -2.0715    3.9387 H   0  0  0  0  0  0  0  0  0  0  0  0
    9.2563   -5.1422    2.3732 H   0  0  0  0  0  0  0  0  0  0  0  0
   10.1363   -4.8621   -2.2248 H   0  0  0  0  0  0  0  0  0  0  0  0
   11.7206   -4.1049   -2.4991 H   0  0  0  0  0  0  0  0  0  0  0  0
   10.3212   -3.6634   -3.5160 H   0  0  0  0  0  0  0  0  0  0  0  0
    8.6540   -0.8918   -2.8089 H   0  0  0  0  0  0  0  0  0  0  0  0
    9.7796   -1.5916   -3.9954 H   0  0  0  0  0  0  0  0  0  0  0  0
   10.0595    0.0516   -3.3728 H   0  0  0  0  0  0  0  0  0  0  0  0
   10.9429   -0.9784    0.1610 H   0  0  0  0  0  0  0  0  0  0  0  0
    9.9895    0.2896   -0.6819 H   0  0  0  0  0  0  0  0  0  0  0  0
   12.7834    0.2201   -0.8691 H   0  0  0  0  0  0  0  0  0  0  0  0
   12.7170   -2.0450   -1.7433 H   0  0  0  0  0  0  0  0  0  0  0  0
   12.4175   -1.1600   -3.2842 H   0  0  0  0  0  0  0  0  0  0  0  0
    8.0670   -1.6116   -0.8733 H   0  0  0  0  0  0  0  0  0  0  0  0
  1  2  1  0
  1 29  1  0
  1 30  1  0
  1 31  1  0
  2  3  1  6
  2  4  1  0
  2 28  1  0
  4  5  2  0
  4  6  1  0
  6  7  1  0
  6 32  1  0
  7  8  2  0
  8  9  1  0
  8 28  1  0
  9 10  1  0
  9 33  1  0
  9 34  1  0
 10 11  1  0
 11 12  2  0
 11 27  1  0
 12 13  1  0
 12 35  1  0
 13 14  1  0
 13 18  2  0
 14 15  1  1
 14 16  1  0
 14 17  1  0
 18 19  1  0
 18 26  1  0
 19 20  1  0
 21 19  1  1
 20 36  1  0
 20 37  1  0
 20 38  1  0
 21 22  1  0
 21 23  1  0
 21 25  1  0
 22 39  1  0
 22 40  1  0
 22 41  1  0
 23 24  1  0
 23 42  1  0
 23 43  1  0
 24 25  1  0
 24 44  1  0
 25 45  1  0
 25 46  1  0
 26 27  2  0
 26 47  1  0
 27 28  1  0
M  END

