
     RDKit          3D

 46 47  0  0  0  0  0  0  0  0999 V2000
    2.0394    7.4123   -6.5947 C   0  0  0  0  0  0  0  0  0  0  0  0
    1.9108    5.9276   -6.2627 C   0  0  0  0  0  0  0  0  0  0  0  0
    1.8455    5.6695   -4.8318 N   0  0  0  0  0  0  0  0  0  0  0  0
    2.8182    5.1658   -4.0256 C   0  0  0  0  0  0  0  0  0  0  0  0
    2.3279    5.1680   -2.7211 C   0  0  0  0  0  0  0  0  0  0  0  0
    3.0660    4.5953   -1.5193 C   0  0  1  0  0  0  0  0  0  0  0  0
    4.5301    4.7473   -1.6099 N   0  0  0  0  0  0  0  0  0  0  0  0
    5.1118    5.9719   -1.9891 N   0  0  0  0  0  0  0  0  0  0  0  0
    2.4233    4.9175   -0.0873 C   0  0  1  0  0  0  0  0  0  0  0  0
    1.3658    3.8168    0.1521 C   0  0  0  0  0  0  0  0  0  0  0  0
    3.5156    4.7363    0.9925 C   0  0  0  0  0  0  0  0  0  0  0  0
    1.7853    6.2466   -0.0358 N   0  0  0  0  0  0  0  0  0  0  0  0
    0.5259    6.5191    0.6399 C   0  0  0  0  0  0  0  0  0  0  0  0
    0.6905    7.1470    2.0360 C   0  0  0  0  0  0  0  0  0  0  0  0
    1.5403    8.4210    1.9479 C   0  0  0  0  0  0  0  0  0  0  0  0
    2.8562    8.1501    1.2071 C   0  0  0  0  0  0  0  0  0  0  0  0
    2.5926    7.4500   -0.1403 C   0  0  0  0  0  0  0  0  0  0  0  0
    1.0220    5.7122   -2.8743 C   0  0  0  0  0  0  0  0  0  0  0  0
    0.7473    6.0064   -4.1431 N   0  0  0  0  0  0  0  0  0  0  0  0
    2.0468    7.5608   -7.6861 H   0  0  0  0  0  0  0  0  0  0  0  0
    2.9703    7.8329   -6.1827 H   0  0  0  0  0  0  0  0  0  0  0  0
    1.1907    7.9697   -6.1718 H   0  0  0  0  0  0  0  0  0  0  0  0
    2.7653    5.3575   -6.6586 H   0  0  0  0  0  0  0  0  0  0  0  0
    0.9970    5.5115   -6.7152 H   0  0  0  0  0  0  0  0  0  0  0  0
    3.7768    4.8436   -4.4293 H   0  0  0  0  0  0  0  0  0  0  0  0
    2.9636    3.4996   -1.5909 H   0  0  0  0  0  0  0  0  0  0  0  0
    4.9085    4.0192   -2.2094 H   0  0  0  0  0  0  0  0  0  0  0  0
    5.3294    6.5252   -1.1623 H   0  0  0  0  0  0  0  0  0  0  0  0
    4.4971    6.5250   -2.5933 H   0  0  0  0  0  0  0  0  0  0  0  0
    1.8486    2.8311    0.0877 H   0  0  0  0  0  0  0  0  0  0  0  0
    0.5584    3.8442   -0.5951 H   0  0  0  0  0  0  0  0  0  0  0  0
    0.9168    3.8867    1.1533 H   0  0  0  0  0  0  0  0  0  0  0  0
    3.9985    3.7509    0.9102 H   0  0  0  0  0  0  0  0  0  0  0  0
    3.0665    4.8235    1.9945 H   0  0  0  0  0  0  0  0  0  0  0  0
    4.3146    5.4841    0.9031 H   0  0  0  0  0  0  0  0  0  0  0  0
   -0.0938    5.6173    0.6970 H   0  0  0  0  0  0  0  0  0  0  0  0
   -0.0484    7.2386    0.0166 H   0  0  0  0  0  0  0  0  0  0  0  0
    1.1715    6.4186    2.7133 H   0  0  0  0  0  0  0  0  0  0  0  0
   -0.3023    7.3735    2.4630 H   0  0  0  0  0  0  0  0  0  0  0  0
    1.7335    8.8377    2.9508 H   0  0  0  0  0  0  0  0  0  0  0  0
    0.9689    9.1913    1.3962 H   0  0  0  0  0  0  0  0  0  0  0  0
    3.5078    7.5158    1.8320 H   0  0  0  0  0  0  0  0  0  0  0  0
    3.4018    9.0944    1.0330 H   0  0  0  0  0  0  0  0  0  0  0  0
    3.5365    7.2132   -0.6425 H   0  0  0  0  0  0  0  0  0  0  0  0
    2.0680    8.1691   -0.8046 H   0  0  0  0  0  0  0  0  0  0  0  0
    0.2752    5.8963   -2.1074 H   0  0  0  0  0  0  0  0  0  0  0  0
  1  2  1  0
  1 20  1  0
  1 21  1  0
  1 22  1  0
  2  3  1  0
  2 23  1  0
  2 24  1  0
  3  4  1  0
  3 19  1  0
  4  5  2  0
  4 25  1  0
  5  6  1  0
  5 18  1  0
  6  7  1  0
  6  9  1  0
  6 26  1  6
  7  8  1  0
  7 27  1  0
  8 28  1  0
  8 29  1  0
  9 10  1  1
  9 11  1  0
  9 12  1  0
 10 30  1  0
 10 31  1  0
 10 32  1  0
 11 33  1  0
 11 34  1  0
 11 35  1  0
 12 13  1  0
 12 17  1  0
 13 14  1  0
 13 36  1  0
 13 37  1  0
 14 15  1  0
 14 38  1  0
 14 39  1  0
 15 16  1  0
 15 40  1  0
 15 41  1  0
 16 17  1  0
 16 42  1  0
 16 43  1  0
 17 44  1  0
 17 45  1  0
 18 19  2  0
 18 46  1  0
M  END

