
     RDKit          3D

 39 39  0  0  0  0  0  0  0  0999 V2000
    1.0254   -0.2110    1.9322 C   0  0  0  0  0  0  0  0  0  0  0  0
    2.4292   -0.3955    1.7446 O   0  0  0  0  0  0  0  0  0  0  0  0
    3.1705    0.7212    1.6208 C   0  0  0  0  0  0  0  0  0  0  0  0
    2.7033    1.8345    1.6468 O   0  0  0  0  0  0  0  0  0  0  0  0
    4.6616    0.4055    1.4649 C   0  0  1  0  0  0  0  0  0  0  0  0
    5.4306    1.5574    1.0270 N   0  0  0  0  0  0  0  0  0  0  0  0
    5.2161   -0.1664    2.7876 C   0  0  0  0  0  0  0  0  0  0  0  0
    6.6708   -0.6543    2.6679 C   0  0  0  0  0  0  0  0  0  0  0  0
    7.2598   -1.1265    3.9809 C   0  0  0  0  0  0  0  0  0  0  0  0
    7.9467   -0.2087    4.7950 C   0  0  0  0  0  0  0  0  0  0  0  0
    8.4956   -0.5402    6.0342 C   0  0  0  0  0  0  0  0  0  0  0  0
    9.2304    0.4589    6.8881 C   0  0  0  0  0  0  0  0  0  0  0  0
    8.3462   -1.8720    6.4763 C   0  0  0  0  0  0  0  0  0  0  0  0
    8.8986   -2.1560    7.6904 O   0  0  0  0  0  0  0  0  0  0  0  0
    8.7998   -3.4606    8.2085 C   0  0  0  0  0  0  0  0  0  0  0  0
    7.6716   -2.8064    5.6833 C   0  0  0  0  0  0  0  0  0  0  0  0
    7.1223   -2.4519    4.4384 C   0  0  0  0  0  0  0  0  0  0  0  0
    6.4156   -3.5062    3.6165 C   0  0  0  0  0  0  0  0  0  0  0  0
    0.5917   -1.2153    2.0157 H   0  0  0  0  0  0  0  0  0  0  0  0
    0.5839    0.3252    1.0784 H   0  0  0  0  0  0  0  0  0  0  0  0
    0.8250    0.3681    2.8465 H   0  0  0  0  0  0  0  0  0  0  0  0
    4.7403   -0.3866    0.6993 H   0  0  0  0  0  0  0  0  0  0  0  0
    5.1845    2.3585    1.6123 H   0  0  0  0  0  0  0  0  0  0  0  0
    5.1528    1.8250    0.0827 H   0  0  0  0  0  0  0  0  0  0  0  0
    4.5603   -0.9850    3.1226 H   0  0  0  0  0  0  0  0  0  0  0  0
    5.1565    0.6184    3.5630 H   0  0  0  0  0  0  0  0  0  0  0  0
    7.2695    0.1761    2.2656 H   0  0  0  0  0  0  0  0  0  0  0  0
    6.7136   -1.4566    1.9122 H   0  0  0  0  0  0  0  0  0  0  0  0
    8.0625    0.8199    4.4379 H   0  0  0  0  0  0  0  0  0  0  0  0
    9.2596    1.4470    6.4059 H   0  0  0  0  0  0  0  0  0  0  0  0
   10.2668    0.1354    7.0812 H   0  0  0  0  0  0  0  0  0  0  0  0
    8.7540    0.5680    7.8766 H   0  0  0  0  0  0  0  0  0  0  0  0
    9.3075   -3.4519    9.1830 H   0  0  0  0  0  0  0  0  0  0  0  0
    9.2944   -4.2036    7.5561 H   0  0  0  0  0  0  0  0  0  0  0  0
    7.7485   -3.7683    8.3573 H   0  0  0  0  0  0  0  0  0  0  0  0
    7.5623   -3.8368    6.0237 H   0  0  0  0  0  0  0  0  0  0  0  0
    6.3852   -4.4698    4.1462 H   0  0  0  0  0  0  0  0  0  0  0  0
    6.9209   -3.6757    2.6503 H   0  0  0  0  0  0  0  0  0  0  0  0
    5.3759   -3.2233    3.3839 H   0  0  0  0  0  0  0  0  0  0  0  0
  1  2  1  0
  1 19  1  0
  1 20  1  0
  1 21  1  0
  2  3  1  0
  3  4  2  0
  3  5  1  0
  5  6  1  0
  5  7  1  0
  5 22  1  6
  6 23  1  0
  6 24  1  0
  7  8  1  0
  7 25  1  0
  7 26  1  0
  8  9  1  0
  8 27  1  0
  8 28  1  0
  9 10  2  0
  9 17  1  0
 10 11  1  0
 10 29  1  0
 11 12  1  0
 11 13  2  0
 12 30  1  0
 12 31  1  0
 12 32  1  0
 13 14  1  0
 13 16  1  0
 14 15  1  0
 15 33  1  0
 15 34  1  0
 15 35  1  0
 16 17  2  0
 16 36  1  0
 17 18  1  0
 18 37  1  0
 18 38  1  0
 18 39  1  0
M  END

