
     RDKit          3D

 44 45  0  0  0  0  0  0  0  0999 V2000
    2.1132    9.3451    0.4973 C   0  0  0  0  0  0  0  0  0  0  0  0
    1.8617    9.8307    1.8033 O   0  0  0  0  0  0  0  0  0  0  0  0
    0.9917    9.1979    2.6262 C   0  0  0  0  0  0  0  0  0  0  0  0
    0.8045    9.7539    3.9017 C   0  0  0  0  0  0  0  0  0  0  0  0
   -0.0716    9.1866    4.8397 C   0  0  0  0  0  0  0  0  0  0  0  0
   -0.8049    8.0361    4.5526 C   0  0  0  0  0  0  0  0  0  0  0  0
   -0.6367    7.4576    3.2842 C   0  0  0  0  0  0  0  0  0  0  0  0
   -1.1911    6.3030    2.6126 C   0  0  0  0  0  0  0  0  0  0  0  0
   -0.6318    6.2638    1.3711 C   0  0  0  0  0  0  0  0  0  0  0  0
   -0.7517    5.3109    0.2120 C   0  0  0  0  0  0  0  0  0  0  0  0
   -1.7293    4.2540    0.3461 N   0  0  0  0  0  0  0  0  0  0  0  0
   -3.1383    4.6188    0.2900 C   0  0  0  0  0  0  0  0  0  0  0  0
   -4.0477    3.4914   -0.2871 C   0  0  1  0  0  0  0  0  0  0  0  0
   -3.6763    3.2273   -1.7617 C   0  0  0  0  0  0  0  0  0  0  0  0
   -3.7950    2.2135    0.5325 C   0  0  0  0  0  0  0  0  0  0  0  0
   -5.4588    3.9257   -0.1014 N   0  0  0  0  0  0  0  0  0  0  0  0
   -5.8491    5.1495   -0.7811 C   0  0  0  0  0  0  0  0  0  0  0  0
   -6.4780    2.9067   -0.2801 C   0  0  0  0  0  0  0  0  0  0  0  0
    0.2434    7.3028    1.1891 O   0  0  0  0  0  0  0  0  0  0  0  0
    0.2481    8.0376    2.3489 C   0  0  0  0  0  0  0  0  0  0  0  0
    2.8455   10.0332    0.0532 H   0  0  0  0  0  0  0  0  0  0  0  0
    1.2008    9.3384   -0.1211 H   0  0  0  0  0  0  0  0  0  0  0  0
    2.5352    8.3269    0.5118 H   0  0  0  0  0  0  0  0  0  0  0  0
    1.3726   10.6555    4.1393 H   0  0  0  0  0  0  0  0  0  0  0  0
   -0.1752    9.6658    5.8165 H   0  0  0  0  0  0  0  0  0  0  0  0
   -1.4857    7.5994    5.2858 H   0  0  0  0  0  0  0  0  0  0  0  0
   -1.9199    5.6022    3.0119 H   0  0  0  0  0  0  0  0  0  0  0  0
    0.2444    4.8631    0.0332 H   0  0  0  0  0  0  0  0  0  0  0  0
   -0.9729    5.8940   -0.7001 H   0  0  0  0  0  0  0  0  0  0  0  0
   -1.5185    3.6668    1.1490 H   0  0  0  0  0  0  0  0  0  0  0  0
   -3.2089    5.5054   -0.3577 H   0  0  0  0  0  0  0  0  0  0  0  0
   -3.5690    4.9120    1.2679 H   0  0  0  0  0  0  0  0  0  0  0  0
   -2.6094    2.9717   -1.8379 H   0  0  0  0  0  0  0  0  0  0  0  0
   -3.8507    4.1157   -2.3891 H   0  0  0  0  0  0  0  0  0  0  0  0
   -4.2614    2.3947   -2.1835 H   0  0  0  0  0  0  0  0  0  0  0  0
   -2.7243    1.9656    0.5107 H   0  0  0  0  0  0  0  0  0  0  0  0
   -4.3267    1.3438    0.1210 H   0  0  0  0  0  0  0  0  0  0  0  0
   -4.1122    2.3494    1.5793 H   0  0  0  0  0  0  0  0  0  0  0  0
   -5.1559    5.9742   -0.5673 H   0  0  0  0  0  0  0  0  0  0  0  0
   -6.8395    5.4646   -0.4145 H   0  0  0  0  0  0  0  0  0  0  0  0
   -5.9296    5.0537   -1.8877 H   0  0  0  0  0  0  0  0  0  0  0  0
   -6.3148    2.0463    0.3823 H   0  0  0  0  0  0  0  0  0  0  0  0
   -6.5653    2.5225   -1.3226 H   0  0  0  0  0  0  0  0  0  0  0  0
   -7.4589    3.3332   -0.0150 H   0  0  0  0  0  0  0  0  0  0  0  0
  1  2  1  0
  1 21  1  0
  1 22  1  0
  1 23  1  0
  2  3  1  0
  3  4  2  0
  3 20  1  0
  4  5  1  0
  4 24  1  0
  5  6  2  0
  5 25  1  0
  6  7  1  0
  6 26  1  0
  7  8  1  0
  7 20  2  0
  8  9  2  0
  8 27  1  0
  9 10  1  0
  9 19  1  0
 10 11  1  0
 10 28  1  0
 10 29  1  0
 11 12  1  0
 11 30  1  0
 12 13  1  0
 12 31  1  0
 12 32  1  0
 13 14  1  0
 13 15  1  0
 13 16  1  6
 14 33  1  0
 14 34  1  0
 14 35  1  0
 15 36  1  0
 15 37  1  0
 15 38  1  0
 16 17  1  0
 16 18  1  0
 17 39  1  0
 17 40  1  0
 17 41  1  0
 18 42  1  0
 18 43  1  0
 18 44  1  0
 19 20  1  0
M  END

