
     RDKit          3D

 81 81  0  0  0  0  0  0  0  0999 V2000
    2.0490    1.0499   -3.9566 C   0  0  0  0  0  0  0  0  0  0  0  0
    1.3890   -0.0342   -3.1061 C   0  0  0  0  0  0  0  0  0  0  0  0
    1.8574   -0.0419   -1.7121 N   0  0  0  0  0  0  0  0  0  0  0  0
    1.6630    1.1777   -0.9355 C   0  0  0  0  0  0  0  0  0  0  0  0
    0.1910    1.6485   -0.8121 C   0  0  1  0  0  0  0  0  0  0  0  0
   -0.6733    0.5620   -0.5879 O   0  0  0  0  0  0  0  0  0  0  0  0
    0.0371    2.7473    0.2711 C   0  0  1  0  0  0  0  0  0  0  0  0
    0.7512    4.0620   -0.1020 C   0  0  0  0  0  0  0  0  0  0  0  0
    0.6034    5.1661    0.9249 C   0  0  0  0  0  0  0  0  0  0  0  0
    1.2255    5.0661    2.1809 C   0  0  0  0  0  0  0  0  0  0  0  0
    1.0763    6.0727    3.1370 C   0  0  0  0  0  0  0  0  0  0  0  0
    0.3006    7.2027    2.8549 C   0  0  0  0  0  0  0  0  0  0  0  0
   -0.3198    7.3182    1.6091 C   0  0  0  0  0  0  0  0  0  0  0  0
   -0.1671    6.3072    0.6536 C   0  0  0  0  0  0  0  0  0  0  0  0
   -1.3705    3.0096    0.5671 N   0  0  0  0  0  0  0  0  0  0  0  0
   -2.0662    2.2539    1.4554 C   0  0  0  0  0  0  0  0  0  0  0  0
   -1.5988    1.2652    1.9992 O   0  0  0  0  0  0  0  0  0  0  0  0
   -3.4859    2.7720    1.7902 C   0  0  1  0  0  0  0  0  0  0  0  0
   -4.4065    2.9712    0.5630 C   0  0  0  0  0  0  0  0  0  0  0  0
   -5.3151    4.0971    0.7233 N   0  0  0  0  0  0  0  0  0  0  0  0
   -6.3083    3.9282    1.7808 C   0  0  0  0  0  0  0  0  0  0  0  0
   -5.7352    4.7756   -0.4447 C   0  0  0  0  0  0  0  0  0  0  0  0
   -6.2777    6.0751   -0.3381 C   0  0  0  0  0  0  0  0  0  0  0  0
   -6.6761    6.7797   -1.4704 C   0  0  0  0  0  0  0  0  0  0  0  0
   -6.5175    6.2028   -2.7277 C   0  0  0  0  0  0  0  0  0  0  0  0
   -6.8840    6.8997   -3.8219 F   0  0  0  0  0  0  0  0  0  0  0  0
   -5.9953    4.9196   -2.8890 C   0  0  0  0  0  0  0  0  0  0  0  0
   -5.7087    4.2740   -4.6004 P   0  0  0  0  0  0  0  0  0  0  0  0
   -5.6173    4.2150   -1.7323 C   0  0  0  0  0  0  0  0  0  0  0  0
   -4.0347    1.9757    2.8406 O   0  0  0  0  0  0  0  0  0  0  0  0
   -4.3170    0.6734    2.6274 C   0  0  0  0  0  0  0  0  0  0  0  0
   -4.3348    0.1063    1.5730 O   0  0  0  0  0  0  0  0  0  0  0  0
    1.5521   -1.5046   -0.8608 S   0  0  0  0  0  0  0  0  0  0  0  0
    3.1793   -2.2518   -0.7903 C   0  0  0  0  0  0  0  0  0  0  0  0
    4.3446   -1.6426   -1.2681 C   0  0  0  0  0  0  0  0  0  0  0  0
    5.5751   -2.2981   -1.1652 C   0  0  0  0  0  0  0  0  0  0  0  0
    5.6708   -3.5660   -0.5797 C   0  0  0  0  0  0  0  0  0  0  0  0
    6.9894   -4.2996   -0.4965 C   0  0  0  0  0  0  0  0  0  0  0  0
    8.0657   -3.4128   -0.6656 O   0  0  0  0  0  0  0  0  0  0  0  0
    9.3190   -4.0377   -0.6607 C   0  0  0  0  0  0  0  0  0  0  0  0
    4.4983   -4.1663   -0.0955 C   0  0  0  0  0  0  0  0  0  0  0  0
    3.2650   -3.5252   -0.2016 C   0  0  0  0  0  0  0  0  0  0  0  0
    1.7408    0.9342   -5.0078 H   0  0  0  0  0  0  0  0  0  0  0  0
    3.1473    0.9760   -3.9109 H   0  0  0  0  0  0  0  0  0  0  0  0
    1.7626    2.0677   -3.6467 H   0  0  0  0  0  0  0  0  0  0  0  0
    1.6386   -1.0197   -3.5257 H   0  0  0  0  0  0  0  0  0  0  0  0
    0.2861    0.0582   -3.1617 H   0  0  0  0  0  0  0  0  0  0  0  0
    2.2689    1.9819   -1.3878 H   0  0  0  0  0  0  0  0  0  0  0  0
    2.0761    0.9947    0.0693 H   0  0  0  0  0  0  0  0  0  0  0  0
   -0.1252    2.0820   -1.7797 H   0  0  0  0  0  0  0  0  0  0  0  0
   -0.7376    0.3852    0.3668 H   0  0  0  0  0  0  0  0  0  0  0  0
    0.4758    2.3503    1.2033 H   0  0  0  0  0  0  0  0  0  0  0  0
    0.3734    4.4115   -1.0785 H   0  0  0  0  0  0  0  0  0  0  0  0
    1.8194    3.8391   -0.2474 H   0  0  0  0  0  0  0  0  0  0  0  0
    1.8383    4.1901    2.4132 H   0  0  0  0  0  0  0  0  0  0  0  0
    1.5708    5.9766    4.1070 H   0  0  0  0  0  0  0  0  0  0  0  0
    0.1856    7.9913    3.6028 H   0  0  0  0  0  0  0  0  0  0  0  0
   -0.9220    8.1998    1.3748 H   0  0  0  0  0  0  0  0  0  0  0  0
   -0.6457    6.4154   -0.3249 H   0  0  0  0  0  0  0  0  0  0  0  0
   -1.7799    3.8691    0.2196 H   0  0  0  0  0  0  0  0  0  0  0  0
   -3.3497    3.7624    2.2531 H   0  0  0  0  0  0  0  0  0  0  0  0
   -4.9172    2.0168    0.3431 H   0  0  0  0  0  0  0  0  0  0  0  0
   -3.7623    3.1785   -0.3012 H   0  0  0  0  0  0  0  0  0  0  0  0
   -5.8182    3.7202    2.7421 H   0  0  0  0  0  0  0  0  0  0  0  0
   -7.0054    3.0905    1.5671 H   0  0  0  0  0  0  0  0  0  0  0  0
   -6.9052    4.8408    1.8988 H   0  0  0  0  0  0  0  0  0  0  0  0
   -6.3649    6.5461    0.6425 H   0  0  0  0  0  0  0  0  0  0  0  0
   -7.0911    7.7871   -1.3956 H   0  0  0  0  0  0  0  0  0  0  0  0
   -7.0654    4.3023   -5.0472 H   0  0  0  0  0  0  0  0  0  0  0  0
   -5.7500    2.8902   -4.2496 H   0  0  0  0  0  0  0  0  0  0  0  0
   -5.2458    3.1961   -1.8476 H   0  0  0  0  0  0  0  0  0  0  0  0
   -4.5723    0.2132    3.6052 H   0  0  0  0  0  0  0  0  0  0  0  0
    4.2761   -0.6518   -1.7207 H   0  0  0  0  0  0  0  0  0  0  0  0
    6.4833   -1.8191   -1.5346 H   0  0  0  0  0  0  0  0  0  0  0  0
    7.0258   -5.0945   -1.2756 H   0  0  0  0  0  0  0  0  0  0  0  0
    7.0648   -4.8257    0.4798 H   0  0  0  0  0  0  0  0  0  0  0  0
   10.0842   -3.2606   -0.8032 H   0  0  0  0  0  0  0  0  0  0  0  0
    9.4166   -4.7833   -1.4769 H   0  0  0  0  0  0  0  0  0  0  0  0
    9.5212   -4.5588    0.2978 H   0  0  0  0  0  0  0  0  0  0  0  0
    4.5464   -5.1542    0.3739 H   0  0  0  0  0  0  0  0  0  0  0  0
    2.3637   -4.0144    0.1798 H   0  0  0  0  0  0  0  0  0  0  0  0
  1  2  1  0
  1 43  1  0
  1 44  1  0
  1 45  1  0
  2  3  1  0
  2 46  1  0
  2 47  1  0
  3  4  1  0
  3 33  1  0
  4  5  1  0
  4 48  1  0
  4 49  1  0
  5  6  1  0
  5  7  1  0
  5 50  1  6
  6 51  1  0
  7  8  1  0
  7 15  1  0
  7 52  1  1
  8  9  1  0
  8 53  1  0
  8 54  1  0
  9 10  2  0
  9 14  1  0
 10 11  1  0
 10 55  1  0
 11 12  2  0
 11 56  1  0
 12 13  1  0
 12 57  1  0
 13 14  2  0
 13 58  1  0
 14 59  1  0
 15 16  1  0
 15 60  1  0
 16 17  2  0
 16 18  1  0
 18 19  1  0
 18 30  1  0
 18 61  1  1
 19 20  1  0
 19 62  1  0
 19 63  1  0
 20 21  1  0
 20 22  1  0
 21 64  1  0
 21 65  1  0
 21 66  1  0
 22 23  1  0
 22 29  2  0
 23 24  1  0
 23 67  1  0
 24 25  2  0
 24 68  1  0
 25 26  1  0
 25 27  1  0
 27 28  2  0
 27 29  1  0
 29 71  1  0
 30 31  1  0
 31 32  2  0
 31 72  1  0
 33 34  1  0
 34 35  2  0
 34 42  1  0
 35 36  1  0
 35 73  1  0
 36 37  2  0
 36 74  1  0
 37 38  1  0
 37 41  1  0
 38 39  1  0
 38 75  1  0
 38 76  1  0
 39 40  1  0
 40 77  1  0
 40 78  1  0
 40 79  1  0
 41 42  2  0
 41 80  1  0
 42 81  1  0
M  CHG  4  23  -1  28  -1  69   1  70   1
M  END

