
     RDKit          3D

 23 23  0  0  0  0  0  0  0  0999 V2000
    2.7997    1.8999    1.6344 O   0  0  0  0  0  0  0  0  0  0  0  0
    2.2888    1.5179    0.6122 C   0  0  0  0  0  0  0  0  0  0  0  0
    0.9364    1.5180    0.4645 O   0  0  0  0  0  0  0  0  0  0  0  0
    2.9844    1.0307   -0.4736 N   0  0  0  0  0  0  0  0  0  0  0  0
    4.4404    1.0801   -0.4905 C   0  0  0  0  0  0  0  0  0  0  0  0
    5.0184    2.4131   -0.9799 C   0  0  0  0  0  0  0  0  0  0  0  0
    6.5414    2.4495   -0.9501 C   0  0  1  0  0  0  0  0  0  0  0  0
    7.2682    3.7794   -1.2912 C   0  0  0  0  0  0  0  0  0  0  0  0
    8.2811    3.4812   -0.1562 C   0  0  0  0  0  0  0  0  0  0  0  0
    7.2765    2.4522    0.4219 C   0  0  0  0  0  0  0  0  0  0  0  0
    0.6690    1.0116   -0.3148 H   0  0  0  0  0  0  0  0  0  0  0  0
    2.5211    1.0235   -1.3761 H   0  0  0  0  0  0  0  0  0  0  0  0
    4.8070    0.2491   -1.1171 H   0  0  0  0  0  0  0  0  0  0  0  0
    4.7742    0.8863    0.5389 H   0  0  0  0  0  0  0  0  0  0  0  0
    4.6174    3.2214   -0.3440 H   0  0  0  0  0  0  0  0  0  0  0  0
    4.6653    2.6121   -2.0097 H   0  0  0  0  0  0  0  0  0  0  0  0
    6.9428    1.6368   -1.5828 H   0  0  0  0  0  0  0  0  0  0  0  0
    6.6351    4.6507   -1.0553 H   0  0  0  0  0  0  0  0  0  0  0  0
    7.6588    3.9018   -2.3140 H   0  0  0  0  0  0  0  0  0  0  0  0
    8.5807    4.3192    0.4917 H   0  0  0  0  0  0  0  0  0  0  0  0
    9.1939    2.9961   -0.5370 H   0  0  0  0  0  0  0  0  0  0  0  0
    6.6450    2.8920    1.2114 H   0  0  0  0  0  0  0  0  0  0  0  0
    7.6775    1.4961    0.7934 H   0  0  0  0  0  0  0  0  0  0  0  0
  1  2  2  0
  2  3  1  0
  2  4  1  0
  3 11  1  0
  4  5  1  0
  4 12  1  0
  5  6  1  0
  5 13  1  0
  5 14  1  0
  6  7  1  0
  6 15  1  0
  6 16  1  0
  7  8  1  0
  7 10  1  0
  7 17  1  6
  8  9  1  0
  8 18  1  0
  8 19  1  0
  9 10  1  0
  9 20  1  0
  9 21  1  0
 10 22  1  0
 10 23  1  0
M  END

