
     RDKit          3D

 41 42  0  0  0  0  0  0  0  0999 V2000
    5.3286    2.5905   -5.6574 C   0  0  0  0  0  0  0  0  0  0  0  0
    5.8582    1.8808   -4.4360 C   0  0  0  0  0  0  0  0  0  0  0  0
    6.8579    2.4650   -3.6492 C   0  0  0  0  0  0  0  0  0  0  0  0
    7.3621    1.8265   -2.5119 C   0  0  0  0  0  0  0  0  0  0  0  0
    6.8706    0.5744   -2.1292 C   0  0  0  0  0  0  0  0  0  0  0  0
    7.3986   -0.1443   -0.9001 C   0  0  0  0  0  0  0  0  0  0  0  0
    7.9674   -1.5226   -1.2462 C   0  0  0  0  0  0  0  0  0  0  0  0
    7.2961   -2.5385   -1.1723 O   0  0  0  0  0  0  0  0  0  0  0  0
    9.2669   -1.5169   -1.6768 N   0  0  0  0  0  0  0  0  0  0  0  0
    9.9464   -2.7098   -2.1447 C   0  0  0  0  0  0  0  0  0  0  0  0
   11.3081   -2.9191   -1.5115 C   0  0  0  0  0  0  0  0  0  0  0  0
   12.4054   -3.3196   -2.2843 C   0  0  0  0  0  0  0  0  0  0  0  0
   13.6522   -3.5503   -1.6933 C   0  0  0  0  0  0  0  0  0  0  0  0
   13.8557   -3.3837   -0.3176 C   0  0  0  0  0  0  0  0  0  0  0  0
   15.1822   -3.6158    0.3558 C   0  0  0  0  0  0  0  0  0  0  0  0
   12.7416   -2.9763    0.4292 C   0  0  0  0  0  0  0  0  0  0  0  0
   12.8966   -2.8019    1.7554 F   0  0  0  0  0  0  0  0  0  0  0  0
   11.4920   -2.7454   -0.1311 C   0  0  0  0  0  0  0  0  0  0  0  0
    5.8691   -0.0151   -2.9177 C   0  0  0  0  0  0  0  0  0  0  0  0
    5.3551    0.6115   -4.0586 C   0  0  0  0  0  0  0  0  0  0  0  0
    4.2770   -0.0609   -4.8727 C   0  0  0  0  0  0  0  0  0  0  0  0
    5.8265    3.5599   -5.8048 H   0  0  0  0  0  0  0  0  0  0  0  0
    4.2438    2.7784   -5.5818 H   0  0  0  0  0  0  0  0  0  0  0  0
    5.4779    1.9934   -6.5734 H   0  0  0  0  0  0  0  0  0  0  0  0
    7.2519    3.4460   -3.9309 H   0  0  0  0  0  0  0  0  0  0  0  0
    8.1385    2.3158   -1.9161 H   0  0  0  0  0  0  0  0  0  0  0  0
    6.5857   -0.3248   -0.1808 H   0  0  0  0  0  0  0  0  0  0  0  0
    8.1608    0.4753   -0.4017 H   0  0  0  0  0  0  0  0  0  0  0  0
    9.7430   -0.6273   -1.7719 H   0  0  0  0  0  0  0  0  0  0  0  0
   10.0549   -2.6931   -3.2441 H   0  0  0  0  0  0  0  0  0  0  0  0
    9.2712   -3.5470   -1.9049 H   0  0  0  0  0  0  0  0  0  0  0  0
   12.2868   -3.4538   -3.3629 H   0  0  0  0  0  0  0  0  0  0  0  0
   14.4948   -3.8624   -2.3166 H   0  0  0  0  0  0  0  0  0  0  0  0
   15.9455   -3.9256   -0.3722 H   0  0  0  0  0  0  0  0  0  0  0  0
   15.1071   -4.3975    1.1295 H   0  0  0  0  0  0  0  0  0  0  0  0
   15.5396   -2.7046    0.8633 H   0  0  0  0  0  0  0  0  0  0  0  0
   10.6709   -2.4302    0.5157 H   0  0  0  0  0  0  0  0  0  0  0  0
    5.4860   -0.9984   -2.6298 H   0  0  0  0  0  0  0  0  0  0  0  0
    4.0033   -1.0364   -4.4459 H   0  0  0  0  0  0  0  0  0  0  0  0
    4.5984   -0.2274   -5.9152 H   0  0  0  0  0  0  0  0  0  0  0  0
    3.3620    0.5540   -4.9230 H   0  0  0  0  0  0  0  0  0  0  0  0
  1  2  1  0
  1 22  1  0
  1 23  1  0
  1 24  1  0
  2  3  2  0
  2 20  1  0
  3  4  1  0
  3 25  1  0
  4  5  2  0
  4 26  1  0
  5  6  1  0
  5 19  1  0
  6  7  1  0
  6 27  1  0
  6 28  1  0
  7  8  2  0
  7  9  1  0
  9 10  1  0
  9 29  1  0
 10 11  1  0
 10 30  1  0
 10 31  1  0
 11 12  2  0
 11 18  1  0
 12 13  1  0
 12 32  1  0
 13 14  2  0
 13 33  1  0
 14 15  1  0
 14 16  1  0
 15 34  1  0
 15 35  1  0
 15 36  1  0
 16 17  1  0
 16 18  2  0
 18 37  1  0
 19 20  2  0
 19 38  1  0
 20 21  1  0
 21 39  1  0
 21 40  1  0
 21 41  1  0
M  END

