
     RDKit          3D

 48 50  0  0  0  0  0  0  0  0999 V2000
    5.0736    2.0135   -5.4208 C   0  0  0  0  0  0  0  0  0  0  0  0
    5.3779    2.2336   -3.9737 C   0  0  0  0  0  0  0  0  0  0  0  0
    5.5788    1.2181   -3.1342 N   0  0  0  0  0  0  0  0  0  0  0  0
    5.8084    1.7649   -1.9267 N   0  0  0  0  0  0  0  0  0  0  0  0
    6.1230    0.9030   -0.7994 C   0  0  0  0  0  0  0  0  0  0  0  0
    7.5677    0.4062   -0.8188 C   0  0  0  0  0  0  0  0  0  0  0  0
    8.5613    1.5135   -0.4556 C   0  0  0  0  0  0  0  0  0  0  0  0
    8.2427    2.4646    0.2367 O   0  0  0  0  0  0  0  0  0  0  0  0
    9.8281    1.3256   -0.9459 N   0  0  0  0  0  0  0  0  0  0  0  0
   10.9225    2.1870   -0.7059 C   0  0  0  0  0  0  0  0  0  0  0  0
   11.0295    3.5781   -0.9962 C   0  0  0  0  0  0  0  0  0  0  0  0
    9.9984    4.4882   -1.5808 C   0  0  0  0  0  0  0  0  0  0  0  0
   12.2299    4.0221   -0.6375 N   0  0  0  0  0  0  0  0  0  0  0  0
   12.8904    2.9602   -0.1284 N   0  0  0  0  0  0  0  0  0  0  0  0
   14.2779    3.1133    0.2730 C   0  0  0  0  0  0  0  0  0  0  0  0
   15.2834    2.7441   -0.8061 C   0  0  0  0  0  0  0  0  0  0  0  0
   15.1672    3.2768   -2.1005 C   0  0  0  0  0  0  0  0  0  0  0  0
   16.1095    2.9549   -3.0795 C   0  0  0  0  0  0  0  0  0  0  0  0
   17.1813    2.1037   -2.7894 C   0  0  0  0  0  0  0  0  0  0  0  0
   17.2833    1.5854   -1.5022 C   0  0  0  0  0  0  0  0  0  0  0  0
   18.3015    0.7640   -1.2037 F   0  0  0  0  0  0  0  0  0  0  0  0
   16.3523    1.8890   -0.5095 C   0  0  0  0  0  0  0  0  0  0  0  0
   12.1422    1.8199   -0.1445 C   0  0  0  0  0  0  0  0  0  0  0  0
   12.6151    0.4988    0.3655 C   0  0  0  0  0  0  0  0  0  0  0  0
    5.7740    3.1233   -1.9564 C   0  0  0  0  0  0  0  0  0  0  0  0
    5.4928    3.4628   -3.2689 C   0  0  0  0  0  0  0  0  0  0  0  0
    5.2963    5.2000   -3.9728 Br  0  0  0  0  0  0  0  0  0  0  0  0
    5.0756    0.9371   -5.6403 H   0  0  0  0  0  0  0  0  0  0  0  0
    5.8168    2.5087   -6.0668 H   0  0  0  0  0  0  0  0  0  0  0  0
    4.0874    2.4260   -5.6902 H   0  0  0  0  0  0  0  0  0  0  0  0
    5.4284    0.0519   -0.8337 H   0  0  0  0  0  0  0  0  0  0  0  0
    5.9476    1.4734    0.1223 H   0  0  0  0  0  0  0  0  0  0  0  0
    7.7954   -0.0387   -1.8005 H   0  0  0  0  0  0  0  0  0  0  0  0
    7.6772   -0.3951   -0.0662 H   0  0  0  0  0  0  0  0  0  0  0  0
    9.9804    0.5208   -1.5441 H   0  0  0  0  0  0  0  0  0  0  0  0
    9.5669    4.0663   -2.5030 H   0  0  0  0  0  0  0  0  0  0  0  0
   10.4476    5.4634   -1.8132 H   0  0  0  0  0  0  0  0  0  0  0  0
    9.1669    4.6302   -0.8729 H   0  0  0  0  0  0  0  0  0  0  0  0
   14.4585    2.5140    1.1777 H   0  0  0  0  0  0  0  0  0  0  0  0
   14.3899    4.1723    0.5501 H   0  0  0  0  0  0  0  0  0  0  0  0
   14.3334    3.9437   -2.3304 H   0  0  0  0  0  0  0  0  0  0  0  0
   16.0136    3.3739   -4.0843 H   0  0  0  0  0  0  0  0  0  0  0  0
   17.9305    1.8387   -3.5377 H   0  0  0  0  0  0  0  0  0  0  0  0
   16.4792    1.4528    0.4843 H   0  0  0  0  0  0  0  0  0  0  0  0
   13.4607    0.1007   -0.2201 H   0  0  0  0  0  0  0  0  0  0  0  0
   11.7943   -0.2309    0.3186 H   0  0  0  0  0  0  0  0  0  0  0  0
   12.9415    0.5597    1.4172 H   0  0  0  0  0  0  0  0  0  0  0  0
    5.9649    3.7279   -1.0737 H   0  0  0  0  0  0  0  0  0  0  0  0
  1  2  1  0
  1 28  1  0
  1 29  1  0
  1 30  1  0
  2  3  2  0
  2 26  1  0
  3  4  1  0
  4  5  1  0
  4 25  1  0
  5  6  1  0
  5 31  1  0
  5 32  1  0
  6  7  1  0
  6 33  1  0
  6 34  1  0
  7  8  2  0
  7  9  1  0
  9 10  1  0
  9 35  1  0
 10 11  1  0
 10 23  2  0
 11 12  1  0
 11 13  2  0
 12 36  1  0
 12 37  1  0
 12 38  1  0
 13 14  1  0
 14 15  1  0
 14 23  1  0
 15 16  1  0
 15 39  1  0
 15 40  1  0
 16 17  2  0
 16 22  1  0
 17 18  1  0
 17 41  1  0
 18 19  2  0
 18 42  1  0
 19 20  1  0
 19 43  1  0
 20 21  1  0
 20 22  2  0
 22 44  1  0
 23 24  1  0
 24 45  1  0
 24 46  1  0
 24 47  1  0
 25 26  2  0
 25 48  1  0
 26 27  1  0
M  END

