
     RDKit          3D

 40 42  0  0  0  0  0  0  0  0999 V2000
    0.9202    0.2247   -0.7861 O   0  0  0  0  0  0  0  0  0  0  0  0
    2.0895    0.1245   -0.4971 C   0  0  0  0  0  0  0  0  0  0  0  0
    2.8493   -1.1777   -0.4098 C   0  0  0  0  0  0  0  0  0  0  0  0
    2.9520   -1.7161    1.0296 C   0  0  1  0  0  0  0  0  0  0  0  0
    1.6151   -2.0260    1.7245 C   0  0  0  0  0  0  0  0  0  0  0  0
    2.0206   -2.8783    2.9423 C   0  0  0  0  0  0  0  0  0  0  0  0
    3.3176   -3.6284    2.5163 C   0  0  0  0  0  0  0  0  0  0  0  0
    3.6950   -3.0615    1.1267 C   0  0  0  0  0  0  0  0  0  0  0  0
    2.8252    1.3022   -0.1829 N   0  0  0  0  0  0  0  0  0  0  0  0
    2.3060    2.5772   -0.1628 C   0  0  0  0  0  0  0  0  0  0  0  0
    3.3372    3.4091    0.1860 C   0  0  0  0  0  0  0  0  0  0  0  0
    4.4734    2.5474    0.3642 C   0  0  0  0  0  0  0  0  0  0  0  0
    5.8195    2.9608    0.7384 C   0  0  0  0  0  0  0  0  0  0  0  0
    6.8706    2.1248    0.8881 C   0  0  0  0  0  0  0  0  0  0  0  0
    8.1980    2.5587    1.2667 C   0  0  0  0  0  0  0  0  0  0  0  0
    9.3158    1.8192    1.4419 C   0  0  0  0  0  0  0  0  0  0  0  0
   10.4326    2.7201    1.9053 C   0  0  0  0  0  0  0  0  0  0  0  0
    9.7969    4.1131    1.6869 C   0  0  0  0  0  0  0  0  0  0  0  0
    8.3857    3.8945    1.5036 O   0  0  0  0  0  0  0  0  0  0  0  0
    4.1398    1.2794    0.1355 N   0  0  0  0  0  0  0  0  0  0  0  0
    3.8607   -1.0425   -0.8185 H   0  0  0  0  0  0  0  0  0  0  0  0
    2.2959   -1.8943   -1.0358 H   0  0  0  0  0  0  0  0  0  0  0  0
    3.5008   -0.9708    1.6324 H   0  0  0  0  0  0  0  0  0  0  0  0
    0.9775   -2.6097    1.0365 H   0  0  0  0  0  0  0  0  0  0  0  0
    1.0437   -1.1259    1.9999 H   0  0  0  0  0  0  0  0  0  0  0  0
    1.2177   -3.5630    3.2561 H   0  0  0  0  0  0  0  0  0  0  0  0
    2.2283   -2.2233    3.8040 H   0  0  0  0  0  0  0  0  0  0  0  0
    3.1713   -4.7189    2.4768 H   0  0  0  0  0  0  0  0  0  0  0  0
    4.1242   -3.4498    3.2446 H   0  0  0  0  0  0  0  0  0  0  0  0
    3.3273   -3.7300    0.3282 H   0  0  0  0  0  0  0  0  0  0  0  0
    4.7820   -2.9574    0.9821 H   0  0  0  0  0  0  0  0  0  0  0  0
    1.2597    2.7472   -0.4001 H   0  0  0  0  0  0  0  0  0  0  0  0
    3.3070    4.4901    0.3015 H   0  0  0  0  0  0  0  0  0  0  0  0
    5.9695    4.0302    0.9057 H   0  0  0  0  0  0  0  0  0  0  0  0
    6.7395    1.0523    0.7233 H   0  0  0  0  0  0  0  0  0  0  0  0
    9.3766    0.7383    1.3273 H   0  0  0  0  0  0  0  0  0  0  0  0
   11.3661    2.6000    1.3302 H   0  0  0  0  0  0  0  0  0  0  0  0
   10.6898    2.5363    2.9662 H   0  0  0  0  0  0  0  0  0  0  0  0
   10.1909    4.5977    0.7759 H   0  0  0  0  0  0  0  0  0  0  0  0
    9.9309    4.8037    2.5324 H   0  0  0  0  0  0  0  0  0  0  0  0
  1  2  2  0
  2  3  1  0
  2  9  1  0
  3  4  1  0
  3 21  1  0
  3 22  1  0
  4  5  1  0
  4  8  1  0
  4 23  1  1
  5  6  1  0
  5 24  1  0
  5 25  1  0
  6  7  1  0
  6 26  1  0
  6 27  1  0
  7  8  1  0
  7 28  1  0
  7 29  1  0
  8 30  1  0
  8 31  1  0
  9 10  1  0
  9 20  1  0
 10 11  2  0
 10 32  1  0
 11 12  1  0
 11 33  1  0
 12 13  1  0
 12 20  2  0
 13 14  2  0
 13 34  1  0
 14 15  1  0
 14 35  1  0
 15 16  2  0
 15 19  1  0
 16 17  1  0
 16 36  1  0
 17 18  1  0
 17 37  1  0
 17 38  1  0
 18 19  1  0
 18 39  1  0
 18 40  1  0
M  END

