
     RDKit          3D

 49 50  0  0  0  0  0  0  0  0999 V2000
    1.8497    0.0286   -4.0385 C   0  0  0  0  0  0  0  0  0  0  0  0
    1.8460   -0.7792   -2.7419 C   0  0  0  0  0  0  0  0  0  0  0  0
    2.8831   -0.3445   -1.7983 N   0  0  0  0  0  0  0  0  0  0  0  0
    2.6128    0.8289   -0.9543 C   0  0  0  0  0  0  0  0  0  0  0  0
    1.6632    0.5806    0.2189 C   0  0  0  0  0  0  0  0  0  0  0  0
    3.8908   -1.5364   -1.1626 S   0  0  1  0  0  0  0  0  0  0  0  0
    4.6647   -0.8871   -0.0996 O   0  0  0  0  0  0  0  0  0  0  0  0
    3.1313   -2.7640   -0.8901 O   0  0  0  0  0  0  0  0  0  0  0  0
    5.0072   -1.9049   -2.5273 C   0  0  0  0  0  0  0  0  0  0  0  0
    5.8875   -0.9183   -2.9845 C   0  0  0  0  0  0  0  0  0  0  0  0
    6.7674   -1.2499   -4.0140 C   0  0  0  0  0  0  0  0  0  0  0  0
    6.7855   -2.5317   -4.5743 C   0  0  0  0  0  0  0  0  0  0  0  0
    5.9030   -3.5163   -4.0948 C   0  0  0  0  0  0  0  0  0  0  0  0
    5.8610   -4.8299   -4.5910 N   0  0  0  0  0  0  0  0  0  0  0  0
    6.5876   -5.3779   -5.6152 C   0  0  0  0  0  0  0  0  0  0  0  0
    7.4466   -4.8049   -6.2605 O   0  0  0  0  0  0  0  0  0  0  0  0
    6.2573   -6.8553   -5.8973 C   0  0  0  0  0  0  0  0  0  0  0  0
    4.9427   -7.0606   -6.4394 O   0  0  0  0  0  0  0  0  0  0  0  0
    3.9146   -7.1921   -5.5768 C   0  0  0  0  0  0  0  0  0  0  0  0
    4.0359   -7.0182   -4.3753 O   0  0  0  0  0  0  0  0  0  0  0  0
    2.6579   -7.5538   -6.2300 C   0  0  0  0  0  0  0  0  0  0  0  0
    1.2599   -7.7162   -5.1977 S   0  0  0  0  0  0  0  0  0  0  0  0
    0.2719   -8.1138   -6.5422 C   0  0  0  0  0  0  0  0  0  0  0  0
    0.9749   -8.1218   -7.7251 C   0  0  0  0  0  0  0  0  0  0  0  0
    2.3558   -7.8015   -7.5685 C   0  0  0  0  0  0  0  0  0  0  0  0
    3.3179   -7.7483   -8.7231 C   0  0  0  0  0  0  0  0  0  0  0  0
    5.0073   -3.1912   -3.0576 C   0  0  0  0  0  0  0  0  0  0  0  0
    1.0570   -0.3319   -4.7139 H   0  0  0  0  0  0  0  0  0  0  0  0
    2.8166   -0.0645   -4.5564 H   0  0  0  0  0  0  0  0  0  0  0  0
    1.6651    1.0990   -3.8542 H   0  0  0  0  0  0  0  0  0  0  0  0
    2.0086   -1.8441   -2.9618 H   0  0  0  0  0  0  0  0  0  0  0  0
    0.8533   -0.7291   -2.2581 H   0  0  0  0  0  0  0  0  0  0  0  0
    2.2065    1.6037   -1.6253 H   0  0  0  0  0  0  0  0  0  0  0  0
    3.5747    1.2059   -0.5809 H   0  0  0  0  0  0  0  0  0  0  0  0
    0.6867    0.1932   -0.1131 H   0  0  0  0  0  0  0  0  0  0  0  0
    1.4814    1.5202    0.7657 H   0  0  0  0  0  0  0  0  0  0  0  0
    2.1021   -0.1430    0.9219 H   0  0  0  0  0  0  0  0  0  0  0  0
    5.8831    0.0779   -2.5400 H   0  0  0  0  0  0  0  0  0  0  0  0
    7.4652   -0.4983   -4.3916 H   0  0  0  0  0  0  0  0  0  0  0  0
    7.4763   -2.7840   -5.3753 H   0  0  0  0  0  0  0  0  0  0  0  0
    5.1902   -5.4631   -4.1498 H   0  0  0  0  0  0  0  0  0  0  0  0
    6.3762   -7.4597   -4.9843 H   0  0  0  0  0  0  0  0  0  0  0  0
    6.9542   -7.1896   -6.6730 H   0  0  0  0  0  0  0  0  0  0  0  0
   -0.7873   -8.3259   -6.3989 H   0  0  0  0  0  0  0  0  0  0  0  0
    0.5222   -8.3514   -8.6912 H   0  0  0  0  0  0  0  0  0  0  0  0
    2.8022   -7.9845   -9.6647 H   0  0  0  0  0  0  0  0  0  0  0  0
    4.1446   -8.4626   -8.5897 H   0  0  0  0  0  0  0  0  0  0  0  0
    3.7797   -6.7538   -8.8163 H   0  0  0  0  0  0  0  0  0  0  0  0
    4.3141   -3.9340   -2.6564 H   0  0  0  0  0  0  0  0  0  0  0  0
  1  2  1  0
  1 28  1  0
  1 29  1  0
  1 30  1  0
  2  3  1  0
  2 31  1  0
  2 32  1  0
  3  4  1  0
  6  3  1  6
  4  5  1  0
  4 33  1  0
  4 34  1  0
  5 35  1  0
  5 36  1  0
  5 37  1  0
  6  7  2  0
  6  8  2  0
  6  9  1  0
  9 10  2  0
  9 27  1  0
 10 11  1  0
 10 38  1  0
 11 12  2  0
 11 39  1  0
 12 13  1  0
 12 40  1  0
 13 14  1  0
 13 27  2  0
 14 15  1  0
 14 41  1  0
 15 16  2  0
 15 17  1  0
 17 18  1  0
 17 42  1  0
 17 43  1  0
 18 19  1  0
 19 20  2  0
 19 21  1  0
 21 22  1  0
 21 25  2  0
 22 23  1  0
 23 24  2  0
 23 44  1  0
 24 25  1  0
 24 45  1  0
 25 26  1  0
 26 46  1  0
 26 47  1  0
 26 48  1  0
 27 49  1  0
M  END

