
     RDKit          3D

 39 39  0  0  0  0  0  0  0  0999 V2000
    2.3419   -0.2284   -1.3439 C   0  0  0  0  0  0  0  0  0  0  0  0
    2.7745    0.1249    0.0909 C   0  0  1  0  0  0  0  0  0  0  0  0
    3.5567    1.4469    0.1147 C   0  0  0  0  0  0  0  0  0  0  0  0
    1.5378    0.2396    0.9965 C   0  0  0  0  0  0  0  0  0  0  0  0
    3.6065   -0.9541    0.7216 N   0  0  0  0  0  0  0  0  0  0  0  0
    4.8426   -1.7129   -0.1369 S   0  0  1  0  0  0  0  0  0  0  0  0
    4.3238   -2.7641   -1.0210 O   0  0  0  0  0  0  0  0  0  0  0  0
    5.7027   -0.6578   -0.6719 O   0  0  0  0  0  0  0  0  0  0  0  0
    5.6050   -2.5517    1.0937 N   0  0  0  0  0  0  0  0  0  0  0  0
    6.8228   -2.0666    1.7693 C   0  0  1  0  0  0  0  0  0  0  0  0
    8.0513   -2.0168    0.8226 C   0  0  0  0  0  0  0  0  0  0  0  0
    9.0650   -1.2499    0.9561 N   0  0  0  0  0  0  0  0  0  0  0  0
    8.0837   -3.0173   -0.1357 N   0  0  0  0  0  0  0  0  0  0  0  0
    6.5896   -0.7245    2.5120 C   0  0  0  0  0  0  0  0  0  0  0  0
    7.3448   -0.8216    3.8685 C   0  0  0  0  0  0  0  0  0  0  0  0
    7.9762   -2.2328    3.9141 C   0  0  0  0  0  0  0  0  0  0  0  0
    7.1400   -3.0548    2.9288 C   0  0  0  0  0  0  0  0  0  0  0  0
    1.6693    0.5500   -1.7372 H   0  0  0  0  0  0  0  0  0  0  0  0
    1.8118   -1.1927   -1.3754 H   0  0  0  0  0  0  0  0  0  0  0  0
    3.2086   -0.2977   -2.0172 H   0  0  0  0  0  0  0  0  0  0  0  0
    2.9294    2.2587   -0.2858 H   0  0  0  0  0  0  0  0  0  0  0  0
    4.4701    1.3771   -0.4896 H   0  0  0  0  0  0  0  0  0  0  0  0
    3.8441    1.7056    1.1453 H   0  0  0  0  0  0  0  0  0  0  0  0
    0.8862    1.0530    0.6438 H   0  0  0  0  0  0  0  0  0  0  0  0
    1.8298    0.4578    2.0354 H   0  0  0  0  0  0  0  0  0  0  0  0
    0.9454   -0.6910    0.9863 H   0  0  0  0  0  0  0  0  0  0  0  0
    3.0308   -1.6953    1.1239 H   0  0  0  0  0  0  0  0  0  0  0  0
    5.5960   -3.5436    0.8637 H   0  0  0  0  0  0  0  0  0  0  0  0
    8.9492   -0.5988    1.7319 H   0  0  0  0  0  0  0  0  0  0  0  0
    7.2193   -3.2047   -0.6322 H   0  0  0  0  0  0  0  0  0  0  0  0
    8.8763   -2.9154   -0.7643 H   0  0  0  0  0  0  0  0  0  0  0  0
    5.5099   -0.6101    2.6749 H   0  0  0  0  0  0  0  0  0  0  0  0
    6.9057    0.1282    1.8960 H   0  0  0  0  0  0  0  0  0  0  0  0
    6.6376   -0.6886    4.7022 H   0  0  0  0  0  0  0  0  0  0  0  0
    8.1046   -0.0324    3.9813 H   0  0  0  0  0  0  0  0  0  0  0  0
    7.9766   -2.6696    4.9246 H   0  0  0  0  0  0  0  0  0  0  0  0
    9.0229   -2.2017    3.5755 H   0  0  0  0  0  0  0  0  0  0  0  0
    6.1800   -3.3466    3.3873 H   0  0  0  0  0  0  0  0  0  0  0  0
    7.6414   -3.9668    2.5703 H   0  0  0  0  0  0  0  0  0  0  0  0
  1  2  1  0
  1 18  1  0
  1 19  1  0
  1 20  1  0
  2  3  1  0
  2  4  1  0
  2  5  1  1
  3 21  1  0
  3 22  1  0
  3 23  1  0
  4 24  1  0
  4 25  1  0
  4 26  1  0
  6  5  1  1
  5 27  1  0
  6  7  2  0
  6  8  2  0
  6  9  1  0
  9 10  1  0
  9 28  1  0
 10 11  1  6
 10 14  1  0
 10 17  1  0
 11 12  2  0
 11 13  1  0
 12 29  1  0
 13 30  1  0
 13 31  1  0
 14 15  1  0
 14 32  1  0
 14 33  1  0
 15 16  1  0
 15 34  1  0
 15 35  1  0
 16 17  1  0
 16 36  1  0
 16 37  1  0
 17 38  1  0
 17 39  1  0
M  END

