
     RDKit          3D

 70 73  0  0  0  0  0  0  0  0999 V2000
    4.1445   -0.1834    4.2446 C   0  0  0  0  0  0  0  0  0  0  0  0
    4.7926    0.0969    2.9834 N   0  0  0  0  0  0  0  0  0  0  0  0
    5.2884    1.2775    2.5337 C   0  0  0  0  0  0  0  0  0  0  0  0
    5.8190    1.0530    1.2751 C   0  0  0  0  0  0  0  0  0  0  0  0
    5.5851   -0.3318    1.0576 C   0  0  0  0  0  0  0  0  0  0  0  0
    5.9145   -1.1331   -0.0631 N   0  0  0  0  0  0  0  0  0  0  0  0
    6.5774   -0.5950   -1.1670 C   0  0  0  0  0  0  0  0  0  0  0  0
    6.9550    0.5530   -1.2403 O   0  0  0  0  0  0  0  0  0  0  0  0
    6.6956   -1.5246   -2.1242 O   0  0  0  0  0  0  0  0  0  0  0  0
    7.5435   -1.3163   -3.3062 C   0  0  1  0  0  0  0  0  0  0  0  0
    8.9775   -1.0027   -2.8678 C   0  0  0  0  0  0  0  0  0  0  0  0
    7.4764   -2.6724   -4.0108 C   0  0  0  0  0  0  0  0  0  0  0  0
    6.9449   -0.2143   -4.1856 C   0  0  0  0  0  0  0  0  0  0  0  0
    5.6507   -2.5343    0.0067 C   0  0  0  0  0  0  0  0  0  0  0  0
    4.3725   -3.0421    0.0007 C   0  0  0  0  0  0  0  0  0  0  0  0
    4.1033   -4.4412    0.1252 C   0  0  0  0  0  0  0  0  0  0  0  0
    2.6658   -4.9145    0.1551 C   0  0  1  0  0  0  0  0  0  0  0  0
    2.1517   -4.4351   -0.6989 H   0  0  0  0  0  0  0  0  0  0  0  0
    2.4021   -6.4239    0.0573 C   0  0  0  0  0  0  0  0  0  0  0  0
    0.9117   -6.5226    0.4027 C   0  0  0  0  0  0  0  0  0  0  0  0
    0.6906   -5.4910    1.5406 C   0  0  1  0  0  0  0  0  0  0  0  0
   -0.2579   -4.9477    1.3806 H   0  0  0  0  0  0  0  0  0  0  0  0
    0.6633   -6.1902    2.8441 N   0  0  0  0  0  0  0  0  0  0  0  0
    0.3352   -5.1412    4.1876 S   0  0  0  0  0  0  0  0  0  0  0  0
   -1.1390   -4.8218    4.2348 O   0  0  0  0  0  0  0  0  0  0  0  0
    0.6216   -6.4158    5.5727 C   0  0  1  0  0  0  0  0  0  0  0  0
    2.0783   -6.8733    5.5213 C   0  0  0  0  0  0  0  0  0  0  0  0
    0.3219   -5.6149    6.8471 C   0  0  0  0  0  0  0  0  0  0  0  0
   -0.3796   -7.5575    5.4051 C   0  0  0  0  0  0  0  0  0  0  0  0
    1.9016   -4.5218    1.4484 C   0  0  0  0  0  0  0  0  0  0  0  0
    5.1675   -5.3048    0.2348 C   0  0  0  0  0  0  0  0  0  0  0  0
    6.4365   -4.7961    0.2319 N   0  0  0  0  0  0  0  0  0  0  0  0
    7.5778   -5.5102    0.3338 N   0  0  0  0  0  0  0  0  0  0  0  0
    8.5073   -4.5574    0.2924 C   0  0  0  0  0  0  0  0  0  0  0  0
    8.0607   -3.2896    0.1707 N   0  0  0  0  0  0  0  0  0  0  0  0
    6.7374   -3.4447    0.1361 C   0  0  0  0  0  0  0  0  0  0  0  0
    4.9651   -0.8954    2.0930 N   0  0  0  0  0  0  0  0  0  0  0  0
    4.1013    0.7392    4.8387 H   0  0  0  0  0  0  0  0  0  0  0  0
    4.7073   -0.9466    4.8042 H   0  0  0  0  0  0  0  0  0  0  0  0
    3.1206   -0.5537    4.0795 H   0  0  0  0  0  0  0  0  0  0  0  0
    5.2348    2.1857    3.1312 H   0  0  0  0  0  0  0  0  0  0  0  0
    6.3082    1.7537    0.6113 H   0  0  0  0  0  0  0  0  0  0  0  0
    9.3206   -1.7549   -2.1415 H   0  0  0  0  0  0  0  0  0  0  0  0
    9.0444   -0.0113   -2.4018 H   0  0  0  0  0  0  0  0  0  0  0  0
    9.6443   -1.0263   -3.7439 H   0  0  0  0  0  0  0  0  0  0  0  0
    7.8898   -3.4637   -3.3679 H   0  0  0  0  0  0  0  0  0  0  0  0
    8.0557   -2.6426   -4.9461 H   0  0  0  0  0  0  0  0  0  0  0  0
    6.4345   -2.9309   -4.2537 H   0  0  0  0  0  0  0  0  0  0  0  0
    6.9577    0.7529   -3.6677 H   0  0  0  0  0  0  0  0  0  0  0  0
    5.9055   -0.4595   -4.4553 H   0  0  0  0  0  0  0  0  0  0  0  0
    7.5273   -0.1263   -5.1163 H   0  0  0  0  0  0  0  0  0  0  0  0
    3.5379   -2.3449   -0.0884 H   0  0  0  0  0  0  0  0  0  0  0  0
    2.9914   -6.9630    0.8181 H   0  0  0  0  0  0  0  0  0  0  0  0
    2.6532   -6.8484   -0.9273 H   0  0  0  0  0  0  0  0  0  0  0  0
    0.5966   -7.5371    0.6920 H   0  0  0  0  0  0  0  0  0  0  0  0
    0.3067   -6.2322   -0.4716 H   0  0  0  0  0  0  0  0  0  0  0  0
   -0.0729   -6.9023    2.8319 H   0  0  0  0  0  0  0  0  0  0  0  0
    2.7712   -6.0179    5.5807 H   0  0  0  0  0  0  0  0  0  0  0  0
    2.2952   -7.4260    4.5967 H   0  0  0  0  0  0  0  0  0  0  0  0
    2.2903   -7.5315    6.3810 H   0  0  0  0  0  0  0  0  0  0  0  0
    1.0184   -4.7686    6.9652 H   0  0  0  0  0  0  0  0  0  0  0  0
    0.4311   -6.2666    7.7293 H   0  0  0  0  0  0  0  0  0  0  0  0
   -0.7039   -5.2187    6.8289 H   0  0  0  0  0  0  0  0  0  0  0  0
   -0.1146   -8.2207    4.5665 H   0  0  0  0  0  0  0  0  0  0  0  0
   -1.3917   -7.1548    5.2424 H   0  0  0  0  0  0  0  0  0  0  0  0
   -0.3976   -8.1775    6.3167 H   0  0  0  0  0  0  0  0  0  0  0  0
    2.5591   -4.6816    2.3161 H   0  0  0  0  0  0  0  0  0  0  0  0
    1.6028   -3.4635    1.4579 H   0  0  0  0  0  0  0  0  0  0  0  0
    5.1013   -6.3874    0.3270 H   0  0  0  0  0  0  0  0  0  0  0  0
    9.5661   -4.8107    0.3546 H   0  0  0  0  0  0  0  0  0  0  0  0
  1  2  1  0
  1 38  1  0
  1 39  1  0
  1 40  1  0
  2  3  1  0
  2 37  1  0
  3  4  2  0
  3 41  1  0
  4  5  1  0
  4 42  1  0
  5  6  1  0
  5 37  2  0
  6  7  1  0
  6 14  1  0
  7  8  2  0
  7  9  1  0
 10  9  1  1
 10 11  1  0
 10 12  1  0
 10 13  1  0
 11 43  1  0
 11 44  1  0
 11 45  1  0
 12 46  1  0
 12 47  1  0
 12 48  1  0
 13 49  1  0
 13 50  1  0
 13 51  1  0
 14 15  2  0
 14 36  1  0
 15 16  1  0
 15 52  1  0
 16 17  1  0
 16 31  2  0
 17 18  1  6
 17 19  1  0
 17 30  1  0
 19 20  1  0
 19 53  1  0
 19 54  1  0
 20 21  1  0
 20 55  1  0
 20 56  1  0
 21 22  1  6
 21 23  1  0
 21 30  1  0
 23 24  1  0
 23 57  1  0
 24 25  1  6
 24 26  1  0
 26 27  1  1
 26 28  1  0
 26 29  1  0
 27 58  1  0
 27 59  1  0
 27 60  1  0
 28 61  1  0
 28 62  1  0
 28 63  1  0
 29 64  1  0
 29 65  1  0
 29 66  1  0
 30 67  1  0
 30 68  1  0
 31 32  1  0
 31 69  1  0
 32 33  1  0
 32 36  1  0
 33 34  2  0
 34 35  1  0
 34 70  1  0
 35 36  2  0
M  CHG  2  24   1  25  -1
M  END

