
     RDKit          3D

 44 45  0  0  0  0  0  0  0  0999 V2000
    2.8174   -0.1442    2.9185 C   0  0  0  0  0  0  0  0  0  0  0  0
    3.7398   -0.0735    1.7486 C   0  0  0  0  0  0  0  0  0  0  0  0
    4.9398    0.4212    1.8178 N   0  0  0  0  0  0  0  0  0  0  0  0
    5.4520    0.3044    0.5556 N   0  0  0  0  0  0  0  0  0  0  0  0
    6.7845    0.7522    0.2353 C   0  0  0  0  0  0  0  0  0  0  0  0
    4.5711   -0.2721   -0.3304 C   0  0  0  0  0  0  0  0  0  0  0  0
    4.7450   -0.5073   -1.5180 O   0  0  0  0  0  0  0  0  0  0  0  0
    3.4402   -0.5160    0.4654 N   0  0  0  0  0  0  0  0  0  0  0  0
    2.1721   -1.1489    0.0586 C   0  0  1  0  0  0  0  0  0  0  0  0
    1.4129   -0.3904   -1.0556 C   0  0  0  0  0  0  0  0  0  0  0  0
    1.7989   -0.7936   -2.4886 C   0  0  0  0  0  0  0  0  0  0  0  0
    1.7676   -2.2452   -2.6375 N   0  0  0  0  0  0  0  0  0  0  0  0
    0.9823   -2.9651   -3.5067 C   0  0  0  0  0  0  0  0  0  0  0  0
    1.0290   -4.1881   -3.5490 O   0  0  0  0  0  0  0  0  0  0  0  0
    0.0626   -2.1766   -4.4458 C   0  0  0  0  0  0  0  0  0  0  0  0
   -0.8593   -3.0622   -5.2991 C   0  0  1  0  0  0  0  0  0  0  0  0
   -1.9529   -3.7281   -4.4545 C   0  0  0  0  0  0  0  0  0  0  0  0
   -1.4656   -2.2515   -6.4514 C   0  0  0  0  0  0  0  0  0  0  0  0
    2.6728   -2.9502   -1.7304 C   0  0  0  0  0  0  0  0  0  0  0  0
    2.2998   -2.6543   -0.2726 C   0  0  0  0  0  0  0  0  0  0  0  0
    3.3379    0.2813    3.7861 H   0  0  0  0  0  0  0  0  0  0  0  0
    2.5309   -1.1815    3.1573 H   0  0  0  0  0  0  0  0  0  0  0  0
    1.8917    0.4306    2.7509 H   0  0  0  0  0  0  0  0  0  0  0  0
    6.8883    1.8332    0.4196 H   0  0  0  0  0  0  0  0  0  0  0  0
    6.9542    0.5433   -0.8292 H   0  0  0  0  0  0  0  0  0  0  0  0
    7.5325    0.2149    0.8395 H   0  0  0  0  0  0  0  0  0  0  0  0
    1.5535   -1.0735    0.9623 H   0  0  0  0  0  0  0  0  0  0  0  0
    1.5403    0.6956   -0.9188 H   0  0  0  0  0  0  0  0  0  0  0  0
    0.3403   -0.6089   -0.9145 H   0  0  0  0  0  0  0  0  0  0  0  0
    2.8139   -0.4331   -2.7137 H   0  0  0  0  0  0  0  0  0  0  0  0
    1.1060   -0.3231   -3.1949 H   0  0  0  0  0  0  0  0  0  0  0  0
    0.7021   -1.5614   -5.1043 H   0  0  0  0  0  0  0  0  0  0  0  0
   -0.5474   -1.4596   -3.8678 H   0  0  0  0  0  0  0  0  0  0  0  0
   -0.2321   -3.8637   -5.7235 H   0  0  0  0  0  0  0  0  0  0  0  0
   -2.6133   -2.9716   -3.9936 H   0  0  0  0  0  0  0  0  0  0  0  0
   -1.5118   -4.3419   -3.6566 H   0  0  0  0  0  0  0  0  0  0  0  0
   -2.5857   -4.3834   -5.0751 H   0  0  0  0  0  0  0  0  0  0  0  0
   -2.0871   -1.4203   -6.0739 H   0  0  0  0  0  0  0  0  0  0  0  0
   -2.1106   -2.8831   -7.0835 H   0  0  0  0  0  0  0  0  0  0  0  0
   -0.6864   -1.8161   -7.0988 H   0  0  0  0  0  0  0  0  0  0  0  0
    3.7058   -2.6287   -1.9344 H   0  0  0  0  0  0  0  0  0  0  0  0
    2.5804   -4.0221   -1.9412 H   0  0  0  0  0  0  0  0  0  0  0  0
    3.0255   -3.1222    0.4121 H   0  0  0  0  0  0  0  0  0  0  0  0
    1.3199   -3.1181   -0.0669 H   0  0  0  0  0  0  0  0  0  0  0  0
  1  2  1  0
  1 21  1  0
  1 22  1  0
  1 23  1  0
  2  3  2  0
  2  8  1  0
  3  4  1  0
  4  5  1  0
  4  6  1  0
  5 24  1  0
  5 25  1  0
  5 26  1  0
  6  7  2  0
  6  8  1  0
  8  9  1  0
  9 10  1  0
  9 20  1  0
  9 27  1  1
 10 11  1  0
 10 28  1  0
 10 29  1  0
 11 12  1  0
 11 30  1  0
 11 31  1  0
 12 13  1  0
 12 19  1  0
 13 14  2  0
 13 15  1  0
 15 16  1  0
 15 32  1  0
 15 33  1  0
 16 17  1  0
 16 18  1  0
 16 34  1  6
 17 35  1  0
 17 36  1  0
 17 37  1  0
 18 38  1  0
 18 39  1  0
 18 40  1  0
 19 20  1  0
 19 41  1  0
 19 42  1  0
 20 43  1  0
 20 44  1  0
M  END

