
     RDKit          3D

 39 40  0  0  0  0  0  0  0  0999 V2000
    1.6014   -1.6582    0.9719 N   0  0  0  0  0  0  0  0  0  0  0  0
    2.9865   -1.6038    0.9915 C   0  0  0  0  0  0  0  0  0  0  0  0
    3.6368   -1.9149    1.9709 O   0  0  0  0  0  0  0  0  0  0  0  0
    3.5291   -1.2039   -0.2225 N   0  0  0  0  0  0  0  0  0  0  0  0
    4.8822   -1.0304   -0.5594 C   0  0  0  0  0  0  0  0  0  0  0  0
    5.9398   -1.1780    0.3595 C   0  0  0  0  0  0  0  0  0  0  0  0
    7.2534   -0.9719   -0.0590 C   0  0  0  0  0  0  0  0  0  0  0  0
    7.5647   -0.6233   -1.3836 C   0  0  0  0  0  0  0  0  0  0  0  0
    9.0052   -0.4290   -1.8141 C   0  0  0  0  0  0  0  0  0  0  0  0
    9.7742   -1.6670   -1.8690 N   0  0  0  0  0  0  0  0  0  0  0  0
   10.6257   -2.0427   -0.8786 C   0  0  0  0  0  0  0  0  0  0  0  0
   10.8596   -1.3732    0.1134 O   0  0  0  0  0  0  0  0  0  0  0  0
   11.2721   -3.4273   -1.0336 C   0  0  0  0  0  0  0  0  0  0  0  0
   11.6315   -3.8803   -2.7732 S   0  0  0  0  0  0  0  0  0  0  0  0
   11.7083   -5.6604   -2.7280 C   0  0  0  0  0  0  0  0  0  0  0  0
   11.4928   -6.3390   -3.9408 C   0  0  0  0  0  0  0  0  0  0  0  0
   11.5826   -7.7285   -4.0065 C   0  0  0  0  0  0  0  0  0  0  0  0
   11.8769   -8.4576   -2.8496 C   0  0  0  0  0  0  0  0  0  0  0  0
   11.9763  -10.2014   -2.9236 Cl  0  0  0  0  0  0  0  0  0  0  0  0
   12.0910   -7.7998   -1.6367 C   0  0  0  0  0  0  0  0  0  0  0  0
   12.0164   -6.4055   -1.5790 C   0  0  0  0  0  0  0  0  0  0  0  0
    6.5055   -0.4798   -2.2881 C   0  0  0  0  0  0  0  0  0  0  0  0
    5.1843   -0.6772   -1.8865 C   0  0  0  0  0  0  0  0  0  0  0  0
    1.1896   -1.8073    1.8861 H   0  0  0  0  0  0  0  0  0  0  0  0
    1.0778   -1.0424    0.3601 H   0  0  0  0  0  0  0  0  0  0  0  0
    2.8841   -1.1035   -0.9969 H   0  0  0  0  0  0  0  0  0  0  0  0
    5.7153   -1.4537    1.3872 H   0  0  0  0  0  0  0  0  0  0  0  0
    8.0650   -1.0821    0.6658 H   0  0  0  0  0  0  0  0  0  0  0  0
    9.5317    0.2238   -1.1031 H   0  0  0  0  0  0  0  0  0  0  0  0
    9.0396    0.0520   -2.8049 H   0  0  0  0  0  0  0  0  0  0  0  0
    9.5903   -2.3287   -2.6171 H   0  0  0  0  0  0  0  0  0  0  0  0
   10.5779   -4.1728   -0.6123 H   0  0  0  0  0  0  0  0  0  0  0  0
   12.1843   -3.4155   -0.4226 H   0  0  0  0  0  0  0  0  0  0  0  0
   11.2443   -5.7736   -4.8425 H   0  0  0  0  0  0  0  0  0  0  0  0
   11.4129   -8.2506   -4.9497 H   0  0  0  0  0  0  0  0  0  0  0  0
   12.3261   -8.3761   -0.7402 H   0  0  0  0  0  0  0  0  0  0  0  0
   12.2128   -5.9099   -0.6273 H   0  0  0  0  0  0  0  0  0  0  0  0
    6.7100   -0.2040   -3.3272 H   0  0  0  0  0  0  0  0  0  0  0  0
    4.3746   -0.5544   -2.6128 H   0  0  0  0  0  0  0  0  0  0  0  0
  1  2  1  0
  1 24  1  0
  1 25  1  0
  2  3  2  0
  2  4  1  0
  4  5  1  0
  4 26  1  0
  5  6  2  0
  5 23  1  0
  6  7  1  0
  6 27  1  0
  7  8  2  0
  7 28  1  0
  8  9  1  0
  8 22  1  0
  9 10  1  0
  9 29  1  0
  9 30  1  0
 10 11  1  0
 10 31  1  0
 11 12  2  0
 11 13  1  0
 13 14  1  0
 13 32  1  0
 13 33  1  0
 14 15  1  0
 15 16  2  0
 15 21  1  0
 16 17  1  0
 16 34  1  0
 17 18  2  0
 17 35  1  0
 18 19  1  0
 18 20  1  0
 20 21  2  0
 20 36  1  0
 21 37  1  0
 22 23  2  0
 22 38  1  0
 23 39  1  0
M  END

