
     RDKit          3D

 55 60  0  0  0  0  0  0  0  0999 V2000
    0.5024    0.9308    0.7520 O   0  0  0  0  0  0  0  0  0  0  0  0
    1.2934   -0.1654    1.1465 C   0  0  0  0  0  0  0  0  0  0  0  0
    2.4785    0.3200    1.9452 C   0  0  0  0  0  0  0  0  0  0  0  0
    2.6890    1.6661    2.2102 C   0  0  0  0  0  0  0  0  0  0  0  0
    3.8074    2.0907    2.9609 C   0  0  0  0  0  0  0  0  0  0  0  0
    4.1005    3.4283    3.2775 N   0  0  0  0  0  0  0  0  0  0  0  0
    3.2835    4.2798    2.8416 N   0  0  0  0  0  0  0  0  0  0  0  0
    3.5406    5.6261    3.1368 C   0  0  0  0  0  0  0  0  0  0  0  0
    2.5971    6.5396    2.6211 C   0  0  0  0  0  0  0  0  0  0  0  0
    2.7002    7.9082    2.8200 C   0  0  0  0  0  0  0  0  0  0  0  0
    3.7807    8.4357    3.5639 C   0  0  0  0  0  0  0  0  0  0  0  0
    3.9105    9.8361    3.7831 C   0  0  0  0  0  0  0  0  0  0  0  0
    4.0249   11.0378    3.9729 C   0  0  0  0  0  0  0  0  0  0  0  0
    4.1860   12.4314    4.2114 C   0  0  0  0  0  0  0  0  0  0  0  0
    5.2871   12.8794    4.9749 C   0  0  0  0  0  0  0  0  0  0  0  0
    5.4855   14.2280    5.2336 C   0  0  0  0  0  0  0  0  0  0  0  0
    4.5925   15.2003    4.7419 C   0  0  0  0  0  0  0  0  0  0  0  0
    4.7734   16.6029    4.9942 C   0  0  0  0  0  0  0  0  0  0  0  0
    3.8969   17.5301    4.5087 C   0  0  0  0  0  0  0  0  0  0  0  0
    2.7563   17.1396    3.7245 C   0  0  0  0  0  0  0  0  0  0  0  0
    1.8399   18.0774    3.2137 C   0  0  0  0  0  0  0  0  0  0  0  0
    0.7425   17.6652    2.4557 C   0  0  0  0  0  0  0  0  0  0  0  0
    0.5340   16.3111    2.1901 C   0  0  0  0  0  0  0  0  0  0  0  0
    1.4235   15.3363    2.6797 C   0  0  0  0  0  0  0  0  0  0  0  0
    1.2431   13.9330    2.4277 C   0  0  0  0  0  0  0  0  0  0  0  0
    2.1181   13.0036    2.9121 C   0  0  0  0  0  0  0  0  0  0  0  0
    3.2594   13.3862    3.6960 C   0  0  0  0  0  0  0  0  0  0  0  0
    3.4682   14.7752    3.9652 C   0  0  0  0  0  0  0  0  0  0  0  0
    2.5506   15.7485    3.4572 C   0  0  0  0  0  0  0  0  0  0  0  0
    4.7360    7.5384    4.0893 C   0  0  0  0  0  0  0  0  0  0  0  0
    4.6180    6.1714    3.8805 C   0  0  0  0  0  0  0  0  0  0  0  0
    5.5590    5.3898    4.4083 F   0  0  0  0  0  0  0  0  0  0  0  0
    4.7166    1.1368    3.4442 C   0  0  0  0  0  0  0  0  0  0  0  0
    4.5172   -0.2175    3.1854 C   0  0  0  0  0  0  0  0  0  0  0  0
    3.4051   -0.6276    2.4402 C   0  0  0  0  0  0  0  0  0  0  0  0
    3.1548   -1.9319    2.1541 O   0  0  0  0  0  0  0  0  0  0  0  0
   -0.2460    0.5974    0.2440 H   0  0  0  0  0  0  0  0  0  0  0  0
    1.6669   -0.7435    0.2755 H   0  0  0  0  0  0  0  0  0  0  0  0
    0.7225   -0.8890    1.7651 H   0  0  0  0  0  0  0  0  0  0  0  0
    1.9834    2.4054    1.8351 H   0  0  0  0  0  0  0  0  0  0  0  0
    1.7705    6.1124    2.0501 H   0  0  0  0  0  0  0  0  0  0  0  0
    1.9512    8.5848    2.4058 H   0  0  0  0  0  0  0  0  0  0  0  0
    5.9890   12.1390    5.3636 H   0  0  0  0  0  0  0  0  0  0  0  0
    6.3461   14.5469    5.8274 H   0  0  0  0  0  0  0  0  0  0  0  0
    5.6358   16.9158    5.5888 H   0  0  0  0  0  0  0  0  0  0  0  0
    4.0499   18.5937    4.7104 H   0  0  0  0  0  0  0  0  0  0  0  0
    1.9974   19.1398    3.4181 H   0  0  0  0  0  0  0  0  0  0  0  0
    0.0416   18.4085    2.0675 H   0  0  0  0  0  0  0  0  0  0  0  0
   -0.3272   15.9943    1.5958 H   0  0  0  0  0  0  0  0  0  0  0  0
    0.3813   13.6177    1.8332 H   0  0  0  0  0  0  0  0  0  0  0  0
    1.9632   11.9426    2.7093 H   0  0  0  0  0  0  0  0  0  0  0  0
    5.5852    7.9027    4.6693 H   0  0  0  0  0  0  0  0  0  0  0  0
    5.5743    1.4859    4.0222 H   0  0  0  0  0  0  0  0  0  0  0  0
    5.2235   -0.9651    3.5603 H   0  0  0  0  0  0  0  0  0  0  0  0
    3.8457   -2.4896    2.5359 H   0  0  0  0  0  0  0  0  0  0  0  0
  1  2  1  0
  1 37  1  0
  2  3  1  0
  2 38  1  0
  2 39  1  0
  3  4  2  0
  3 35  1  0
  4  5  1  0
  4 40  1  0
  5  6  1  0
  5 33  2  0
  6  7  2  0
  7  8  1  0
  8  9  2  0
  8 31  1  0
  9 10  1  0
  9 41  1  0
 10 11  2  0
 10 42  1  0
 11 12  1  0
 11 30  1  0
 12 13  3  0
 13 14  1  0
 14 15  2  0
 14 27  1  0
 15 16  1  0
 15 43  1  0
 16 17  2  0
 16 44  1  0
 17 18  1  0
 17 28  1  0
 18 19  2  0
 18 45  1  0
 19 20  1  0
 19 46  1  0
 20 21  2  0
 20 29  1  0
 21 22  1  0
 21 47  1  0
 22 23  2  0
 22 48  1  0
 23 24  1  0
 23 49  1  0
 24 25  2  0
 24 29  1  0
 25 26  1  0
 25 50  1  0
 26 27  2  0
 26 51  1  0
 27 28  1  0
 28 29  2  0
 30 31  2  0
 30 52  1  0
 31 32  1  0
 33 34  1  0
 33 53  1  0
 34 35  2  0
 34 54  1  0
 35 36  1  0
 36 55  1  0
M  END

