
     RDKit          3D

 58 59  0  0  0  0  0  0  0  0999 V2000
    3.7486   -1.9164   -0.2042 C   0  0  0  0  0  0  0  0  0  0  0  0
    3.3982   -0.4473   -0.0512 C   0  0  0  0  0  0  0  0  0  0  0  0
    3.7940    0.0556    1.2469 O   0  0  0  0  0  0  0  0  0  0  0  0
    5.0459    0.4891    1.3845 C   0  0  0  0  0  0  0  0  0  0  0  0
    5.8768    0.5169    0.5172 O   0  0  0  0  0  0  0  0  0  0  0  0
    5.3091    1.0291    2.8357 C   0  0  1  0  0  0  0  0  0  0  0  0
    4.7547    2.4002    2.8614 C   0  0  0  0  0  0  0  0  0  0  0  0
    4.3108    3.4698    2.8810 N   0  0  0  0  0  0  0  0  0  0  0  0
    4.5902    0.1655    3.9137 C   0  0  0  0  0  0  0  0  0  0  0  0
    4.7937    0.6606    5.3463 C   0  0  0  0  0  0  0  0  0  0  0  0
    4.1111   -0.2481    6.3728 C   0  0  0  0  0  0  0  0  0  0  0  0
    4.2984    0.2554    7.8084 C   0  0  0  0  0  0  0  0  0  0  0  0
    3.6772   -0.6012    8.8053 N   0  0  0  0  0  0  0  0  0  0  0  0
    2.3334   -0.4952    9.1973 C   0  0  0  0  0  0  0  0  0  0  0  0
    1.5430    0.3142    8.7705 O   0  0  0  0  0  0  0  0  0  0  0  0
    2.1268   -1.5675   10.2216 C   0  0  0  0  0  0  0  0  0  0  0  0
    0.9911   -1.9142   10.9436 C   0  0  0  0  0  0  0  0  0  0  0  0
    1.1012   -2.9802   11.8498 C   0  0  0  0  0  0  0  0  0  0  0  0
    2.3137   -3.6652   12.0173 C   0  0  0  0  0  0  0  0  0  0  0  0
    3.4553   -3.3063   11.2841 C   0  0  0  0  0  0  0  0  0  0  0  0
    3.3356   -2.2503   10.3886 C   0  0  0  0  0  0  0  0  0  0  0  0
    4.3508   -1.6344    9.4767 C   0  0  0  0  0  0  0  0  0  0  0  0
    5.5136   -1.9273    9.3225 O   0  0  0  0  0  0  0  0  0  0  0  0
    6.7442    1.1339    3.0581 N   0  0  0  0  0  0  0  0  0  0  0  0
    7.5580    0.0297    2.9104 C   0  0  0  0  0  0  0  0  0  0  0  0
    7.1487   -1.1118    2.8531 O   0  0  0  0  0  0  0  0  0  0  0  0
    8.8384    0.4260    2.8727 O   0  0  0  0  0  0  0  0  0  0  0  0
    9.9479   -0.5281    2.7306 C   0  0  1  0  0  0  0  0  0  0  0  0
    9.8194   -1.2790    1.4018 C   0  0  0  0  0  0  0  0  0  0  0  0
   11.1765    0.3828    2.7251 C   0  0  0  0  0  0  0  0  0  0  0  0
    9.9768   -1.4760    3.9333 C   0  0  0  0  0  0  0  0  0  0  0  0
    3.3851   -2.2843   -1.1770 H   0  0  0  0  0  0  0  0  0  0  0  0
    3.2803   -2.5193    0.5890 H   0  0  0  0  0  0  0  0  0  0  0  0
    4.8376   -2.0656   -0.1654 H   0  0  0  0  0  0  0  0  0  0  0  0
    2.3124   -0.2818   -0.0887 H   0  0  0  0  0  0  0  0  0  0  0  0
    3.8849    0.1630   -0.8256 H   0  0  0  0  0  0  0  0  0  0  0  0
    4.9742   -0.8580    3.8040 H   0  0  0  0  0  0  0  0  0  0  0  0
    3.5202    0.1475    3.6633 H   0  0  0  0  0  0  0  0  0  0  0  0
    4.4002    1.6879    5.4461 H   0  0  0  0  0  0  0  0  0  0  0  0
    5.8730    0.7199    5.5657 H   0  0  0  0  0  0  0  0  0  0  0  0
    4.5191   -1.2706    6.2955 H   0  0  0  0  0  0  0  0  0  0  0  0
    3.0310   -0.3147    6.1569 H   0  0  0  0  0  0  0  0  0  0  0  0
    3.8604    1.2595    7.9176 H   0  0  0  0  0  0  0  0  0  0  0  0
    5.3692    0.3120    8.0556 H   0  0  0  0  0  0  0  0  0  0  0  0
    0.0529   -1.3725   10.8054 H   0  0  0  0  0  0  0  0  0  0  0  0
    0.2297   -3.2830   12.4356 H   0  0  0  0  0  0  0  0  0  0  0  0
    2.3679   -4.4911   12.7310 H   0  0  0  0  0  0  0  0  0  0  0  0
    4.4051   -3.8314   11.4068 H   0  0  0  0  0  0  0  0  0  0  0  0
    7.1849    2.0290    2.8782 H   0  0  0  0  0  0  0  0  0  0  0  0
    9.7411   -0.5672    0.5655 H   0  0  0  0  0  0  0  0  0  0  0  0
    8.9333   -1.9261    1.3960 H   0  0  0  0  0  0  0  0  0  0  0  0
   10.7138   -1.9011    1.2415 H   0  0  0  0  0  0  0  0  0  0  0  0
   11.1294    1.0921    1.8851 H   0  0  0  0  0  0  0  0  0  0  0  0
   12.0935   -0.2171    2.6245 H   0  0  0  0  0  0  0  0  0  0  0  0
   11.2368    0.9586    3.6610 H   0  0  0  0  0  0  0  0  0  0  0  0
    9.0867   -2.1175    3.9541 H   0  0  0  0  0  0  0  0  0  0  0  0
   10.0250   -0.9037    4.8730 H   0  0  0  0  0  0  0  0  0  0  0  0
   10.8713   -2.1158    3.8782 H   0  0  0  0  0  0  0  0  0  0  0  0
  1  2  1  0
  1 32  1  0
  1 33  1  0
  1 34  1  0
  2  3  1  0
  2 35  1  0
  2 36  1  0
  3  4  1  0
  4  5  2  0
  4  6  1  0
  6  7  1  6
  6  9  1  0
  6 24  1  0
  7  8  3  0
  9 10  1  0
  9 37  1  0
  9 38  1  0
 10 11  1  0
 10 39  1  0
 10 40  1  0
 11 12  1  0
 11 41  1  0
 11 42  1  0
 12 13  1  0
 12 43  1  0
 12 44  1  0
 13 14  1  0
 13 22  1  0
 14 15  2  0
 14 16  1  0
 16 17  2  0
 16 21  1  0
 17 18  1  0
 17 45  1  0
 18 19  2  0
 18 46  1  0
 19 20  1  0
 19 47  1  0
 20 21  2  0
 20 48  1  0
 21 22  1  0
 22 23  2  0
 24 25  1  0
 24 49  1  0
 25 26  2  0
 25 27  1  0
 28 27  1  1
 28 29  1  0
 28 30  1  0
 28 31  1  0
 29 50  1  0
 29 51  1  0
 29 52  1  0
 30 53  1  0
 30 54  1  0
 30 55  1  0
 31 56  1  0
 31 57  1  0
 31 58  1  0
M  END

