
     RDKit          3D

 35 36  0  0  0  0  0  0  0  0999 V2000
    0.9670   -0.1359   -0.1679 C   0  0  0  0  0  0  0  0  0  0  0  0
    2.4744   -0.0929   -0.0866 C   0  0  0  0  0  0  0  0  0  0  0  0
    3.1415    0.9817    0.5124 C   0  0  0  0  0  0  0  0  0  0  0  0
    4.5407    1.0317    0.6060 C   0  0  0  0  0  0  0  0  0  0  0  0
    5.2403    2.2086    1.2398 C   0  0  0  0  0  0  0  0  0  0  0  0
    5.2765   -0.0428    0.0790 C   0  0  0  0  0  0  0  0  0  0  0  0
    6.6595   -0.0007    0.1091 O   0  0  0  0  0  0  0  0  0  0  0  0
    7.2775   -0.5309    1.2722 C   0  0  0  0  0  0  0  0  0  0  0  0
    8.7623   -0.4104    1.1171 C   0  0  0  0  0  0  0  0  0  0  0  0
    9.4742    0.1180   -0.0067 C   0  0  0  0  0  0  0  0  0  0  0  0
   10.8042    0.0249    0.2997 C   0  0  0  0  0  0  0  0  0  0  0  0
   10.9733   -0.5204    1.5262 O   0  0  0  0  0  0  0  0  0  0  0  0
    9.7253   -0.7860    2.0251 C   0  0  0  0  0  0  0  0  0  0  0  0
    9.6065   -1.3880    3.3598 C   0  0  0  0  0  0  0  0  0  0  0  0
    8.5370   -1.6474    3.8564 O   0  0  0  0  0  0  0  0  0  0  0  0
   10.7678   -1.6330    3.9990 O   0  0  0  0  0  0  0  0  0  0  0  0
    4.6451   -1.1338   -0.5491 C   0  0  0  0  0  0  0  0  0  0  0  0
    5.4660   -2.2508   -1.1442 C   0  0  0  0  0  0  0  0  0  0  0  0
    3.2475   -1.1367   -0.6177 C   0  0  0  0  0  0  0  0  0  0  0  0
    0.5157    0.8055    0.1788 H   0  0  0  0  0  0  0  0  0  0  0  0
    0.5557   -0.9506    0.4526 H   0  0  0  0  0  0  0  0  0  0  0  0
    0.6236   -0.3152   -1.2001 H   0  0  0  0  0  0  0  0  0  0  0  0
    2.5590    1.8161    0.9151 H   0  0  0  0  0  0  0  0  0  0  0  0
    4.5879    3.0941    1.2557 H   0  0  0  0  0  0  0  0  0  0  0  0
    6.1635    2.4603    0.6970 H   0  0  0  0  0  0  0  0  0  0  0  0
    5.5286    1.9980    2.2847 H   0  0  0  0  0  0  0  0  0  0  0  0
    6.9986   -1.5893    1.4273 H   0  0  0  0  0  0  0  0  0  0  0  0
    6.9498    0.0030    2.1824 H   0  0  0  0  0  0  0  0  0  0  0  0
    9.0309    0.5130   -0.9166 H   0  0  0  0  0  0  0  0  0  0  0  0
   11.7113    0.2957   -0.2351 H   0  0  0  0  0  0  0  0  0  0  0  0
   11.5134   -1.3575    3.4420 H   0  0  0  0  0  0  0  0  0  0  0  0
    6.2854   -1.8555   -1.7640 H   0  0  0  0  0  0  0  0  0  0  0  0
    4.8432   -2.9111   -1.7650 H   0  0  0  0  0  0  0  0  0  0  0  0
    5.9333   -2.8758   -0.3638 H   0  0  0  0  0  0  0  0  0  0  0  0
    2.7474   -1.9780   -1.1082 H   0  0  0  0  0  0  0  0  0  0  0  0
  1  2  1  0
  1 20  1  0
  1 21  1  0
  1 22  1  0
  2  3  2  0
  2 19  1  0
  3  4  1  0
  3 23  1  0
  4  5  1  0
  4  6  2  0
  5 24  1  0
  5 25  1  0
  5 26  1  0
  6  7  1  0
  6 17  1  0
  7  8  1  0
  8  9  1  0
  8 27  1  0
  8 28  1  0
  9 10  1  0
  9 13  2  0
 10 11  2  0
 10 29  1  0
 11 12  1  0
 11 30  1  0
 12 13  1  0
 13 14  1  0
 14 15  2  0
 14 16  1  0
 16 31  1  0
 17 18  1  0
 17 19  2  0
 18 32  1  0
 18 33  1  0
 18 34  1  0
 19 35  1  0
M  END

