
     RDKit          3D

 31 33  0  0  0  0  0  0  0  0999 V2000
    1.1391    0.0523    0.3082 C   0  0  0  0  0  0  0  0  0  0  0  0
    2.5194    0.0238   -0.1509 N   0  0  0  0  0  0  0  0  0  0  0  0
    3.2132    1.2677   -0.1089 C   0  0  0  0  0  0  0  0  0  0  0  0
    3.0173    2.1621    0.9577 C   0  0  0  0  0  0  0  0  0  0  0  0
    3.6579    3.4029    0.9762 C   0  0  0  0  0  0  0  0  0  0  0  0
    4.5084    3.7658   -0.0702 C   0  0  0  0  0  0  0  0  0  0  0  0
    4.7002    2.8814   -1.1349 C   0  0  0  0  0  0  0  0  0  0  0  0
    4.0527    1.6403   -1.1787 C   0  0  0  0  0  0  0  0  0  0  0  0
    4.2399    0.6814   -2.3202 C   0  0  0  0  0  0  0  0  0  0  0  0
    5.0283   -0.5623   -1.8955 C   0  0  0  0  0  0  0  0  0  0  0  0
    4.3554   -1.5083   -0.9120 C   0  0  0  0  0  0  0  0  0  0  0  0
    4.9326   -2.7844   -0.8026 C   0  0  0  0  0  0  0  0  0  0  0  0
    4.4230   -3.7849    0.0225 C   0  0  0  0  0  0  0  0  0  0  0  0
    3.2842   -3.5069    0.7772 C   0  0  0  0  0  0  0  0  0  0  0  0
    2.6939   -2.2475    0.7026 C   0  0  0  0  0  0  0  0  0  0  0  0
    3.2038   -1.2215   -0.1269 C   0  0  0  0  0  0  0  0  0  0  0  0
    0.6742    0.9913   -0.0234 H   0  0  0  0  0  0  0  0  0  0  0  0
    1.0175   -0.0142    1.4076 H   0  0  0  0  0  0  0  0  0  0  0  0
    0.5815   -0.7839   -0.1396 H   0  0  0  0  0  0  0  0  0  0  0  0
    2.3674    1.8811    1.7883 H   0  0  0  0  0  0  0  0  0  0  0  0
    3.4960    4.0823    1.8172 H   0  0  0  0  0  0  0  0  0  0  0  0
    5.0149    4.7340   -0.0620 H   0  0  0  0  0  0  0  0  0  0  0  0
    5.3521    3.1657   -1.9663 H   0  0  0  0  0  0  0  0  0  0  0  0
    4.7768    1.1808   -3.1415 H   0  0  0  0  0  0  0  0  0  0  0  0
    3.2548    0.3749   -2.7121 H   0  0  0  0  0  0  0  0  0  0  0  0
    5.9942   -0.2303   -1.4727 H   0  0  0  0  0  0  0  0  0  0  0  0
    5.2847   -1.1478   -2.7947 H   0  0  0  0  0  0  0  0  0  0  0  0
    5.8153   -2.9981   -1.4135 H   0  0  0  0  0  0  0  0  0  0  0  0
    4.9034   -4.7650    0.0669 H   0  0  0  0  0  0  0  0  0  0  0  0
    2.8525   -4.2646    1.4366 H   0  0  0  0  0  0  0  0  0  0  0  0
    1.8220   -2.0510    1.3247 H   0  0  0  0  0  0  0  0  0  0  0  0
  1  2  1  0
  1 17  1  0
  1 18  1  0
  1 19  1  0
  2  3  1  0
  2 16  1  0
  3  4  2  0
  3  8  1  0
  4  5  1  0
  4 20  1  0
  5  6  2  0
  5 21  1  0
  6  7  1  0
  6 22  1  0
  7  8  2  0
  7 23  1  0
  8  9  1  0
  9 10  1  0
  9 24  1  0
  9 25  1  0
 10 11  1  0
 10 26  1  0
 10 27  1  0
 11 12  2  0
 11 16  1  0
 12 13  1  0
 12 28  1  0
 13 14  2  0
 13 29  1  0
 14 15  1  0
 14 30  1  0
 15 16  2  0
 15 31  1  0
M  END

