
     RDKit          3D

 57 59  0  0  0  0  0  0  0  0999 V2000
    1.4269   -1.0238    0.7574 C   0  0  0  0  0  0  0  0  0  0  0  0
    2.6106   -2.3635    0.8424 S   0  0  1  0  0  0  0  0  0  0  0  0
    3.3970   -2.2479    2.0677 O   0  0  0  0  0  0  0  0  0  0  0  0
    1.9298   -3.5998    0.4858 O   0  0  0  0  0  0  0  0  0  0  0  0
    3.5600   -1.9172   -0.4393 O   0  0  0  0  0  0  0  0  0  0  0  0
    4.9929   -1.8315   -0.2882 C   0  0  1  0  0  0  0  0  0  0  0  0
    5.2347   -1.4709    0.7220 H   0  0  0  0  0  0  0  0  0  0  0  0
    5.6598   -3.1854   -0.5505 C   0  0  1  0  0  0  0  0  0  0  0  0
    6.7367   -3.0565   -0.3736 H   0  0  0  0  0  0  0  0  0  0  0  0
    5.1435   -4.1809    0.3267 O   0  0  0  0  0  0  0  0  0  0  0  0
    5.8608   -4.4720    1.4484 C   0  0  0  0  0  0  0  0  0  0  0  0
    6.9081   -3.9300    1.7110 O   0  0  0  0  0  0  0  0  0  0  0  0
    5.2200   -5.5328    2.2730 C   0  0  0  0  0  0  0  0  0  0  0  0
    5.9608   -6.0649    3.3413 C   0  0  0  0  0  0  0  0  0  0  0  0
    5.4121   -7.0649    4.1432 C   0  0  0  0  0  0  0  0  0  0  0  0
    4.1174   -7.5317    3.8881 C   0  0  0  0  0  0  0  0  0  0  0  0
    3.3731   -6.9949    2.8324 C   0  0  0  0  0  0  0  0  0  0  0  0
    3.9189   -5.9982    2.0210 C   0  0  0  0  0  0  0  0  0  0  0  0
    5.4216   -3.6305   -1.9950 C   0  0  0  0  0  0  0  0  0  0  0  0
    5.9080   -2.6422   -2.8826 O   0  0  0  0  0  0  0  0  0  0  0  0
    5.2572   -1.3919   -2.7539 C   0  0  2  0  0  0  0  0  0  0  0  0
    4.1632   -1.5428   -2.9085 H   0  0  0  0  0  0  0  0  0  0  0  0
    5.7701   -0.5008   -3.6630 O   0  0  0  0  0  0  0  0  0  0  0  0
    5.5471   -0.8244   -5.0292 C   0  0  0  0  0  0  0  0  0  0  0  0
    6.0488    0.2842   -5.9236 C   0  0  0  0  0  0  0  0  0  0  0  0
    5.5521    0.3889   -7.2319 C   0  0  0  0  0  0  0  0  0  0  0  0
    6.0300    1.3743   -8.0989 C   0  0  0  0  0  0  0  0  0  0  0  0
    7.0070    2.2748   -7.6628 C   0  0  0  0  0  0  0  0  0  0  0  0
    7.4992    2.1790   -6.3582 C   0  0  0  0  0  0  0  0  0  0  0  0
    7.0280    1.1889   -5.4897 C   0  0  0  0  0  0  0  0  0  0  0  0
    5.4518   -0.8152   -1.3437 C   0  0  2  0  0  0  0  0  0  0  0  0
    4.8800    0.1192   -1.2441 H   0  0  0  0  0  0  0  0  0  0  0  0
    6.8394   -0.5676   -1.0897 O   0  0  0  0  0  0  0  0  0  0  0  0
    7.4265    0.9835   -1.1408 S   0  0  1  0  0  0  0  0  0  0  0  0
    8.3737    0.9232    0.3761 C   0  0  0  0  0  0  0  0  0  0  0  0
    8.3566    1.1002   -2.2527 O   0  0  0  0  0  0  0  0  0  0  0  0
    6.3006    1.9022   -0.9909 O   0  0  0  0  0  0  0  0  0  0  0  0
    0.6764   -1.2251    1.5337 H   0  0  0  0  0  0  0  0  0  0  0  0
    0.9670   -1.0356   -0.2385 H   0  0  0  0  0  0  0  0  0  0  0  0
    1.9486   -0.0788    0.9516 H   0  0  0  0  0  0  0  0  0  0  0  0
    6.9661   -5.6808    3.5241 H   0  0  0  0  0  0  0  0  0  0  0  0
    5.9924   -7.4811    4.9704 H   0  0  0  0  0  0  0  0  0  0  0  0
    3.6856   -8.3140    4.5180 H   0  0  0  0  0  0  0  0  0  0  0  0
    2.3581   -7.3518    2.6412 H   0  0  0  0  0  0  0  0  0  0  0  0
    3.3324   -5.5601    1.2132 H   0  0  0  0  0  0  0  0  0  0  0  0
    4.3430   -3.8233   -2.1508 H   0  0  0  0  0  0  0  0  0  0  0  0
    5.9745   -4.5571   -2.2029 H   0  0  0  0  0  0  0  0  0  0  0  0
    4.4644   -0.9908   -5.2003 H   0  0  0  0  0  0  0  0  0  0  0  0
    6.0605   -1.7736   -5.2665 H   0  0  0  0  0  0  0  0  0  0  0  0
    4.7806   -0.3066   -7.5775 H   0  0  0  0  0  0  0  0  0  0  0  0
    5.6327    1.4433   -9.1150 H   0  0  0  0  0  0  0  0  0  0  0  0
    7.3795    3.0506   -8.3369 H   0  0  0  0  0  0  0  0  0  0  0  0
    8.2599    2.8815   -6.0074 H   0  0  0  0  0  0  0  0  0  0  0  0
    7.4149    1.1220   -4.4719 H   0  0  0  0  0  0  0  0  0  0  0  0
    9.0899    0.0959    0.2974 H   0  0  0  0  0  0  0  0  0  0  0  0
    7.6862    0.7813    1.2186 H   0  0  0  0  0  0  0  0  0  0  0  0
    8.8977    1.8854    0.4511 H   0  0  0  0  0  0  0  0  0  0  0  0
  1  2  1  0
  1 38  1  0
  1 39  1  0
  1 40  1  0
  2  3  2  0
  2  4  2  0
  2  5  1  6
  5  6  1  0
  6  7  1  1
  6  8  1  0
  6 31  1  0
  8  9  1  6
  8 10  1  0
  8 19  1  0
 10 11  1  0
 11 12  2  0
 11 13  1  0
 13 14  2  0
 13 18  1  0
 14 15  1  0
 14 41  1  0
 15 16  2  0
 15 42  1  0
 16 17  1  0
 16 43  1  0
 17 18  2  0
 17 44  1  0
 18 45  1  0
 19 20  1  0
 19 46  1  0
 19 47  1  0
 20 21  1  0
 21 22  1  6
 21 23  1  0
 21 31  1  0
 23 24  1  0
 24 25  1  0
 24 48  1  0
 24 49  1  0
 25 26  2  0
 25 30  1  0
 26 27  1  0
 26 50  1  0
 27 28  2  0
 27 51  1  0
 28 29  1  0
 28 52  1  0
 29 30  2  0
 29 53  1  0
 30 54  1  0
 31 32  1  6
 31 33  1  0
 34 33  1  6
 34 35  1  0
 34 36  2  0
 34 37  2  0
 35 55  1  0
 35 56  1  0
 35 57  1  0
M  END

