
     RDKit          3D

 83 89  0  0  0  0  0  0  0  0999 V2000
    0.7772    0.9087   -1.8693 C   0  0  0  0  0  0  0  0  0  0  0  0
    2.2966    1.0691   -1.9523 C   0  0  0  0  0  0  0  0  0  0  0  0
    3.0481   -0.1476   -1.4046 C   0  0  0  0  0  0  0  0  0  0  0  0
    4.6018   -0.0821   -1.4440 C   0  0  2  0  0  0  0  0  0  0  0  0
    5.1581   -1.4056   -0.8452 C   0  0  0  0  0  0  0  0  0  0  0  0
    6.6820   -1.5466   -0.7915 C   0  0  0  0  0  0  0  0  0  0  0  0
    7.1288   -2.8792   -0.1868 C   0  0  0  0  0  0  0  0  0  0  0  0
    5.1392    1.1472   -0.7079 C   0  0  0  0  0  0  0  0  0  0  0  0
    4.9888    1.4891    0.6294 C   0  0  0  0  0  0  0  0  0  0  0  0
    5.5678    2.6812    1.1227 C   0  0  0  0  0  0  0  0  0  0  0  0
    5.4216    3.0572    2.5217 C   0  0  0  0  0  0  0  0  0  0  0  0
    5.8639    4.1293    3.2679 C   0  0  0  0  0  0  0  0  0  0  0  0
    5.3928    3.9300    4.5958 C   0  0  0  0  0  0  0  0  0  0  0  0
    4.6862    2.7459    4.5937 C   0  0  0  0  0  0  0  0  0  0  0  0
    3.9705    2.0059    5.6251 C   0  0  0  0  0  0  0  0  0  0  0  0
    3.9083    2.4879    6.9519 C   0  0  0  0  0  0  0  0  0  0  0  0
    3.2293    1.7899    7.9392 C   0  0  0  0  0  0  0  0  0  0  0  0
    2.5819    0.5763    7.6393 C   0  0  0  0  0  0  0  0  0  0  0  0
    1.9447   -0.0327    8.6703 O   0  0  0  0  0  0  0  0  0  0  0  0
    1.2753   -1.2524    8.4449 C   0  0  0  0  0  0  0  0  0  0  0  0
    2.6329    0.0825    6.3271 C   0  0  0  0  0  0  0  0  0  0  0  0
    3.3198    0.7936    5.3398 C   0  0  0  0  0  0  0  0  0  0  0  0
    4.7076    2.2226    3.3345 O   0  0  0  0  0  0  0  0  0  0  0  0
    6.2938    3.5054    0.2330 C   0  0  0  0  0  0  0  0  0  0  0  0
    6.4456    3.1641   -1.1087 C   0  0  0  0  0  0  0  0  0  0  0  0
    5.8673    1.9804   -1.5860 C   0  0  0  0  0  0  0  0  0  0  0  0
    5.8591    1.3743   -2.9182 C   0  0  0  0  0  0  0  0  0  0  0  0
    6.4269    1.7899   -4.1300 C   0  0  0  0  0  0  0  0  0  0  0  0
    6.2604    1.0032   -5.2672 C   0  0  0  0  0  0  0  0  0  0  0  0
    5.5301   -0.2062   -5.2229 C   0  0  0  0  0  0  0  0  0  0  0  0
    5.3693   -1.0138   -6.4237 C   0  0  0  0  0  0  0  0  0  0  0  0
    5.8015   -0.8753   -7.7260 C   0  0  0  0  0  0  0  0  0  0  0  0
    5.3190   -2.0057   -8.4431 C   0  0  0  0  0  0  0  0  0  0  0  0
    4.6164   -2.7781   -7.5423 C   0  0  0  0  0  0  0  0  0  0  0  0
    3.8941   -4.0387   -7.6547 C   0  0  0  0  0  0  0  0  0  0  0  0
    3.8246   -4.7272   -8.8866 C   0  0  0  0  0  0  0  0  0  0  0  0
    3.1393   -5.9272   -9.0018 C   0  0  0  0  0  0  0  0  0  0  0  0
    2.4929   -6.4907   -7.8854 C   0  0  0  0  0  0  0  0  0  0  0  0
    1.8494   -7.6659   -8.0965 O   0  0  0  0  0  0  0  0  0  0  0  0
    1.1802   -8.2893   -7.0241 C   0  0  0  0  0  0  0  0  0  0  0  0
    2.5514   -5.8211   -6.6539 C   0  0  0  0  0  0  0  0  0  0  0  0
    3.2443   -4.6124   -6.5487 C   0  0  0  0  0  0  0  0  0  0  0  0
    4.6508   -2.1714   -6.3214 O   0  0  0  0  0  0  0  0  0  0  0  0
    4.9615   -0.6150   -3.9943 C   0  0  0  0  0  0  0  0  0  0  0  0
    5.1261    0.1682   -2.8597 C   0  0  0  0  0  0  0  0  0  0  0  0
    0.2571    1.7942   -2.2681 H   0  0  0  0  0  0  0  0  0  0  0  0
    0.4422    0.7690   -0.8274 H   0  0  0  0  0  0  0  0  0  0  0  0
    0.4315    0.0338   -2.4458 H   0  0  0  0  0  0  0  0  0  0  0  0
    2.6011    1.9717   -1.3961 H   0  0  0  0  0  0  0  0  0  0  0  0
    2.5904    1.2427   -3.0012 H   0  0  0  0  0  0  0  0  0  0  0  0
    2.7321   -1.0491   -1.9604 H   0  0  0  0  0  0  0  0  0  0  0  0
    2.7423   -0.3209   -0.3568 H   0  0  0  0  0  0  0  0  0  0  0  0
    4.7368   -2.2451   -1.4277 H   0  0  0  0  0  0  0  0  0  0  0  0
    4.7479   -1.5152    0.1751 H   0  0  0  0  0  0  0  0  0  0  0  0
    7.1089   -0.7160   -0.2044 H   0  0  0  0  0  0  0  0  0  0  0  0
    7.0978   -1.4475   -1.8084 H   0  0  0  0  0  0  0  0  0  0  0  0
    6.7608   -2.9973    0.8466 H   0  0  0  0  0  0  0  0  0  0  0  0
    8.2272   -2.9595   -0.1581 H   0  0  0  0  0  0  0  0  0  0  0  0
    6.7492   -3.7350   -0.7707 H   0  0  0  0  0  0  0  0  0  0  0  0
    4.4272    0.8495    1.3126 H   0  0  0  0  0  0  0  0  0  0  0  0
    6.4586    4.9649    2.9074 H   0  0  0  0  0  0  0  0  0  0  0  0
    5.5566    4.5832    5.4494 H   0  0  0  0  0  0  0  0  0  0  0  0
    4.4016    3.4267    7.2130 H   0  0  0  0  0  0  0  0  0  0  0  0
    3.1815    2.1625    8.9644 H   0  0  0  0  0  0  0  0  0  0  0  0
    0.8411   -1.5542    9.4075 H   0  0  0  0  0  0  0  0  0  0  0  0
    1.9658   -2.0437    8.1007 H   0  0  0  0  0  0  0  0  0  0  0  0
    0.4622   -1.1451    7.7041 H   0  0  0  0  0  0  0  0  0  0  0  0
    2.1424   -0.8538    6.0601 H   0  0  0  0  0  0  0  0  0  0  0  0
    3.3512    0.3977    4.3236 H   0  0  0  0  0  0  0  0  0  0  0  0
    6.7456    4.4285    0.6022 H   0  0  0  0  0  0  0  0  0  0  0  0
    7.0119    3.8193   -1.7756 H   0  0  0  0  0  0  0  0  0  0  0  0
    6.9965    2.7207   -4.1915 H   0  0  0  0  0  0  0  0  0  0  0  0
    6.7037    1.3297   -6.2103 H   0  0  0  0  0  0  0  0  0  0  0  0
    6.3969   -0.0578   -8.1248 H   0  0  0  0  0  0  0  0  0  0  0  0
    5.4726   -2.2217   -9.4976 H   0  0  0  0  0  0  0  0  0  0  0  0
    4.3176   -4.3136   -9.7691 H   0  0  0  0  0  0  0  0  0  0  0  0
    3.0861   -6.4591   -9.9538 H   0  0  0  0  0  0  0  0  0  0  0  0
    0.7394   -9.2125   -7.4238 H   0  0  0  0  0  0  0  0  0  0  0  0
    0.3718   -7.6544   -6.6179 H   0  0  0  0  0  0  0  0  0  0  0  0
    1.8721   -8.5502   -6.2027 H   0  0  0  0  0  0  0  0  0  0  0  0
    2.0623   -6.2291   -5.7691 H   0  0  0  0  0  0  0  0  0  0  0  0
    3.2814   -4.1025   -5.5849 H   0  0  0  0  0  0  0  0  0  0  0  0
    4.3969   -1.5481   -3.9553 H   0  0  0  0  0  0  0  0  0  0  0  0
  1  2  1  0
  1 46  1  0
  1 47  1  0
  1 48  1  0
  2  3  1  0
  2 49  1  0
  2 50  1  0
  4  3  1  6
  3 51  1  0
  3 52  1  0
  4  5  1  0
  4  8  1  0
  4 45  1  0
  5  6  1  0
  5 53  1  0
  5 54  1  0
  6  7  1  0
  6 55  1  0
  6 56  1  0
  7 57  1  0
  7 58  1  0
  7 59  1  0
  8  9  2  0
  8 26  1  0
  9 10  1  0
  9 60  1  0
 10 11  1  0
 10 24  2  0
 11 12  2  0
 11 23  1  0
 12 13  1  0
 12 61  1  0
 13 14  2  0
 13 62  1  0
 14 15  1  0
 14 23  1  0
 15 16  2  0
 15 22  1  0
 16 17  1  0
 16 63  1  0
 17 18  2  0
 17 64  1  0
 18 19  1  0
 18 21  1  0
 19 20  1  0
 20 65  1  0
 20 66  1  0
 20 67  1  0
 21 22  2  0
 21 68  1  0
 22 69  1  0
 24 25  1  0
 24 70  1  0
 25 26  2  0
 25 71  1  0
 26 27  1  0
 27 28  2  0
 27 45  1  0
 28 29  1  0
 28 72  1  0
 29 30  2  0
 29 73  1  0
 30 31  1  0
 30 44  1  0
 31 32  2  0
 31 43  1  0
 32 33  1  0
 32 74  1  0
 33 34  2  0
 33 75  1  0
 34 35  1  0
 34 43  1  0
 35 36  2  0
 35 42  1  0
 36 37  1  0
 36 76  1  0
 37 38  2  0
 37 77  1  0
 38 39  1  0
 38 41  1  0
 39 40  1  0
 40 78  1  0
 40 79  1  0
 40 80  1  0
 41 42  2  0
 41 81  1  0
 42 82  1  0
 44 45  2  0
 44 83  1  0
M  END

