
     RDKit          3D

 60 63  0  0  0  0  0  0  0  0999 V2000
    2.2749   -0.7860    0.2430 O   0  0  0  0  0  0  0  0  0  0  0  0
    1.9989    0.1135   -0.5445 C   0  0  0  0  0  0  0  0  0  0  0  0
    0.8904    0.1305   -1.3106 N   0  0  0  0  0  0  0  0  0  0  0  0
   -0.1056   -0.9235   -1.2581 C   0  0  0  0  0  0  0  0  0  0  0  0
   -1.0681   -0.7875   -0.0709 C   0  0  0  0  0  0  0  0  0  0  0  0
   -2.0268   -1.9737    0.0792 C   0  0  0  0  0  0  0  0  0  0  0  0
   -1.3542   -3.2696    0.1081 N   0  0  0  0  0  0  0  0  0  0  0  0
   -0.4161   -3.5048    1.2096 C   0  0  0  0  0  0  0  0  0  0  0  0
   -1.1237   -3.9129    2.5043 C   0  0  0  0  0  0  0  0  0  0  0  0
   -1.9508   -5.0452    2.2923 O   0  0  0  0  0  0  0  0  0  0  0  0
   -2.9135   -4.8245    1.2782 C   0  0  0  0  0  0  0  0  0  0  0  0
   -2.2396   -4.4230   -0.0393 C   0  0  0  0  0  0  0  0  0  0  0  0
    2.8484    1.3944   -0.8127 C   0  0  0  0  0  0  0  0  0  0  0  0
    2.3757    2.2289   -1.5838 O   0  0  0  0  0  0  0  0  0  0  0  0
    4.0509    1.5572   -0.2020 N   0  0  0  0  0  0  0  0  0  0  0  0
    4.7361    0.6342    0.7107 C   0  0  0  0  0  0  0  0  0  0  0  0
    6.1401    0.3192    0.1666 C   0  0  0  0  0  0  0  0  0  0  0  0
    6.9453    1.4987   -0.1246 N   0  0  0  0  0  0  0  0  0  0  0  0
    7.5993    2.1215    1.0190 C   0  0  0  0  0  0  0  0  0  0  0  0
    8.8005    2.9740    0.6375 C   0  0  0  0  0  0  0  0  0  0  0  0
    9.6737    2.5603   -0.3772 C   0  0  0  0  0  0  0  0  0  0  0  0
   10.8243    3.2976   -0.7165 C   0  0  0  0  0  0  0  0  0  0  0  0
   11.0621    4.4583   -0.0016 C   0  0  0  0  0  0  0  0  0  0  0  0
   10.1981    4.8810    1.0104 C   0  0  0  0  0  0  0  0  0  0  0  0
    9.0631    4.1665    1.3500 C   0  0  0  0  0  0  0  0  0  0  0  0
   10.6762    6.0407    1.5584 O   0  0  0  0  0  0  0  0  0  0  0  0
   11.7828    6.4326    0.7508 C   0  0  0  0  0  0  0  0  0  0  0  0
   12.1015    5.3430   -0.1089 O   0  0  0  0  0  0  0  0  0  0  0  0
    6.2196    2.4133   -1.0025 C   0  0  0  0  0  0  0  0  0  0  0  0
    4.8187    2.7756   -0.4831 C   0  0  0  0  0  0  0  0  0  0  0  0
    0.7708    0.9676   -1.8765 H   0  0  0  0  0  0  0  0  0  0  0  0
    0.4129   -1.8902   -1.1891 H   0  0  0  0  0  0  0  0  0  0  0  0
   -0.6623   -0.9192   -2.2089 H   0  0  0  0  0  0  0  0  0  0  0  0
   -1.6688    0.1322   -0.1763 H   0  0  0  0  0  0  0  0  0  0  0  0
   -0.4715   -0.6576    0.8461 H   0  0  0  0  0  0  0  0  0  0  0  0
   -2.7098   -1.9919   -0.7888 H   0  0  0  0  0  0  0  0  0  0  0  0
   -2.6730   -1.7796    0.9645 H   0  0  0  0  0  0  0  0  0  0  0  0
    0.2270   -2.6252    1.3624 H   0  0  0  0  0  0  0  0  0  0  0  0
    0.2515   -4.3330    0.9104 H   0  0  0  0  0  0  0  0  0  0  0  0
   -1.7269   -3.0695    2.9033 H   0  0  0  0  0  0  0  0  0  0  0  0
   -0.3924   -4.1936    3.2787 H   0  0  0  0  0  0  0  0  0  0  0  0
   -3.6339   -4.0413    1.5979 H   0  0  0  0  0  0  0  0  0  0  0  0
   -3.4756   -5.7649    1.1606 H   0  0  0  0  0  0  0  0  0  0  0  0
   -2.9981   -4.2123   -0.8116 H   0  0  0  0  0  0  0  0  0  0  0  0
   -1.6370   -5.2801   -0.3925 H   0  0  0  0  0  0  0  0  0  0  0  0
    4.1391   -0.2742    0.8263 H   0  0  0  0  0  0  0  0  0  0  0  0
    4.8144    1.1217    1.7009 H   0  0  0  0  0  0  0  0  0  0  0  0
    6.0227   -0.2610   -0.7671 H   0  0  0  0  0  0  0  0  0  0  0  0
    6.6762   -0.3225    0.8839 H   0  0  0  0  0  0  0  0  0  0  0  0
    7.9425    1.3034    1.6773 H   0  0  0  0  0  0  0  0  0  0  0  0
    6.9183    2.7384    1.6455 H   0  0  0  0  0  0  0  0  0  0  0  0
    9.4371    1.6437   -0.9209 H   0  0  0  0  0  0  0  0  0  0  0  0
   11.5025    2.9720   -1.5070 H   0  0  0  0  0  0  0  0  0  0  0  0
    8.3984    4.5167    2.1426 H   0  0  0  0  0  0  0  0  0  0  0  0
   12.6479    6.6660    1.3932 H   0  0  0  0  0  0  0  0  0  0  0  0
   11.5064    7.3187    0.1445 H   0  0  0  0  0  0  0  0  0  0  0  0
    6.1117    1.9359   -1.9929 H   0  0  0  0  0  0  0  0  0  0  0  0
    6.8133    3.3289   -1.1466 H   0  0  0  0  0  0  0  0  0  0  0  0
    4.2621    3.3688   -1.2180 H   0  0  0  0  0  0  0  0  0  0  0  0
    4.8930    3.3665    0.4485 H   0  0  0  0  0  0  0  0  0  0  0  0
  1  2  2  0
  2  3  1  0
  2 13  1  0
  3  4  1  0
  3 31  1  0
  4  5  1  0
  4 32  1  0
  4 33  1  0
  5  6  1  0
  5 34  1  0
  5 35  1  0
  6  7  1  0
  6 36  1  0
  6 37  1  0
  7  8  1  0
  7 12  1  0
  8  9  1  0
  8 38  1  0
  8 39  1  0
  9 10  1  0
  9 40  1  0
  9 41  1  0
 10 11  1  0
 11 12  1  0
 11 42  1  0
 11 43  1  0
 12 44  1  0
 12 45  1  0
 13 14  2  0
 13 15  1  0
 15 16  1  0
 15 30  1  0
 16 17  1  0
 16 46  1  0
 16 47  1  0
 17 18  1  0
 17 48  1  0
 17 49  1  0
 18 19  1  0
 18 29  1  0
 19 20  1  0
 19 50  1  0
 19 51  1  0
 20 21  2  0
 20 25  1  0
 21 22  1  0
 21 52  1  0
 22 23  2  0
 22 53  1  0
 23 24  1  0
 23 28  1  0
 24 25  2  0
 24 26  1  0
 25 54  1  0
 26 27  1  0
 27 28  1  0
 27 55  1  0
 27 56  1  0
 29 30  1  0
 29 57  1  0
 29 58  1  0
 30 59  1  0
 30 60  1  0
M  END

