
     RDKit          3D

 43 43  0  0  0  0  0  0  0  0999 V2000
    0.9713    0.8651    0.0223 C   0  0  0  0  0  0  0  0  0  0  0  0
    2.4857    0.6271    0.0890 C   0  0  1  0  0  0  0  0  0  0  0  0
    3.2130    1.9002    0.5427 C   0  0  0  0  0  0  0  0  0  0  0  0
    2.8036   -0.5930    0.9763 C   0  0  0  0  0  0  0  0  0  0  0  0
    4.2711   -1.0346    0.9818 C   0  0  0  0  0  0  0  0  0  0  0  0
    4.5644   -2.3118    1.8094 C   0  0  1  0  0  0  0  0  0  0  0  0
    4.0480   -3.5427    1.0595 C   0  0  0  0  0  0  0  0  0  0  0  0
    6.0039   -2.3867    2.1042 N   0  0  0  0  0  0  0  0  0  0  0  0
    6.5193   -1.4329    3.0780 C   0  0  0  0  0  0  0  0  0  0  0  0
    6.5565   -2.0006    4.5004 C   0  0  0  0  0  0  0  0  0  0  0  0
    7.3408   -3.2287    4.5012 N   0  0  0  0  0  0  0  0  0  0  0  0
    6.8547   -4.2832    3.5939 C   0  0  2  0  0  0  0  0  0  0  0  0
    5.5161   -4.8953    4.0622 C   0  0  0  0  0  0  0  0  0  0  0  0
    7.9226   -5.3833    3.5483 C   0  0  0  0  0  0  0  0  0  0  0  0
    6.7405   -3.6386    2.1807 C   0  0  0  0  0  0  0  0  0  0  0  0
    0.7245    1.7064   -0.6457 H   0  0  0  0  0  0  0  0  0  0  0  0
    0.5650    1.1040    1.0206 H   0  0  0  0  0  0  0  0  0  0  0  0
    0.4377   -0.0254   -0.3482 H   0  0  0  0  0  0  0  0  0  0  0  0
    2.8328    0.3891   -0.9350 H   0  0  0  0  0  0  0  0  0  0  0  0
    2.9285    2.1690    1.5754 H   0  0  0  0  0  0  0  0  0  0  0  0
    2.9549    2.7545   -0.1041 H   0  0  0  0  0  0  0  0  0  0  0  0
    4.3078    1.7882    0.5158 H   0  0  0  0  0  0  0  0  0  0  0  0
    2.1648   -1.4292    0.6426 H   0  0  0  0  0  0  0  0  0  0  0  0
    2.4847   -0.3707    2.0132 H   0  0  0  0  0  0  0  0  0  0  0  0
    4.8896   -0.2129    1.3716 H   0  0  0  0  0  0  0  0  0  0  0  0
    4.6235   -1.2075   -0.0512 H   0  0  0  0  0  0  0  0  0  0  0  0
    3.9742   -2.2334    2.7517 H   0  0  0  0  0  0  0  0  0  0  0  0
    4.6129   -3.6997    0.1260 H   0  0  0  0  0  0  0  0  0  0  0  0
    2.9922   -3.3981    0.7886 H   0  0  0  0  0  0  0  0  0  0  0  0
    4.1034   -4.4618    1.6583 H   0  0  0  0  0  0  0  0  0  0  0  0
    5.9208   -0.5107    3.0600 H   0  0  0  0  0  0  0  0  0  0  0  0
    7.5535   -1.1569    2.7963 H   0  0  0  0  0  0  0  0  0  0  0  0
    5.5141   -2.1309    4.8693 H   0  0  0  0  0  0  0  0  0  0  0  0
    7.0404   -1.2728    5.1740 H   0  0  0  0  0  0  0  0  0  0  0  0
    7.4399   -3.5982    5.4459 H   0  0  0  0  0  0  0  0  0  0  0  0
    5.6267   -5.3195    5.0748 H   0  0  0  0  0  0  0  0  0  0  0  0
    5.1899   -5.7118    3.3975 H   0  0  0  0  0  0  0  0  0  0  0  0
    4.7067   -4.1516    4.1001 H   0  0  0  0  0  0  0  0  0  0  0  0
    8.0499   -5.8470    4.5413 H   0  0  0  0  0  0  0  0  0  0  0  0
    8.8937   -4.9633    3.2461 H   0  0  0  0  0  0  0  0  0  0  0  0
    7.6452   -6.1828    2.8420 H   0  0  0  0  0  0  0  0  0  0  0  0
    6.3320   -4.3730    1.4748 H   0  0  0  0  0  0  0  0  0  0  0  0
    7.7770   -3.4305    1.8539 H   0  0  0  0  0  0  0  0  0  0  0  0
  1  2  1  0
  1 16  1  0
  1 17  1  0
  1 18  1  0
  2  3  1  0
  2  4  1  0
  2 19  1  6
  3 20  1  0
  3 21  1  0
  3 22  1  0
  4  5  1  0
  4 23  1  0
  4 24  1  0
  5  6  1  0
  5 25  1  0
  5 26  1  0
  6  7  1  0
  6  8  1  0
  6 27  1  1
  7 28  1  0
  7 29  1  0
  7 30  1  0
  8  9  1  0
  8 15  1  0
  9 10  1  0
  9 31  1  0
  9 32  1  0
 10 11  1  0
 10 33  1  0
 10 34  1  0
 11 12  1  0
 11 35  1  0
 12 13  1  1
 12 14  1  0
 12 15  1  0
 13 36  1  0
 13 37  1  0
 13 38  1  0
 14 39  1  0
 14 40  1  0
 14 41  1  0
 15 42  1  0
 15 43  1  0
M  END

