
     RDKit          3D

 34 35  0  0  0  0  0  0  0  0999 V2000
    1.3332    0.9056    1.1224 C   0  0  0  0  0  0  0  0  0  0  0  0
    2.6951    0.4744    1.0082 O   0  0  0  0  0  0  0  0  0  0  0  0
    2.8946   -0.7792    0.6036 C   0  0  0  0  0  0  0  0  0  0  0  0
    1.9871   -1.5324    0.3144 O   0  0  0  0  0  0  0  0  0  0  0  0
    4.3634   -1.2200    0.5868 C   0  0  1  0  0  0  0  0  0  0  0  0
    5.4131   -0.0868    0.5166 C   0  0  0  0  0  0  0  0  0  0  0  0
    6.5426   -0.5627    1.4404 C   0  0  0  0  0  0  0  0  0  0  0  0
    5.7813   -1.2963    2.5459 C   0  0  0  0  0  0  0  0  0  0  0  0
    4.6827   -1.9530    1.8269 N   0  0  0  0  0  0  0  0  0  0  0  0
    4.4953   -3.3308    1.9993 C   0  0  0  0  0  0  0  0  0  0  0  0
    5.1599   -3.9647    2.8043 O   0  0  0  0  0  0  0  0  0  0  0  0
    3.5139   -3.8739    1.1957 N   0  0  0  0  0  0  0  0  0  0  0  0
    3.1402   -5.2269    1.0904 C   0  0  0  0  0  0  0  0  0  0  0  0
    3.8120   -6.2844    1.7309 C   0  0  0  0  0  0  0  0  0  0  0  0
    3.3690   -7.5968    1.5448 C   0  0  0  0  0  0  0  0  0  0  0  0
    2.2674   -7.8857    0.7353 C   0  0  0  0  0  0  0  0  0  0  0  0
    1.5990   -6.8333    0.1013 C   0  0  0  0  0  0  0  0  0  0  0  0
    2.0286   -5.5187    0.2746 C   0  0  0  0  0  0  0  0  0  0  0  0
    1.3729    1.9473    1.4619 H   0  0  0  0  0  0  0  0  0  0  0  0
    0.7926    0.2827    1.8500 H   0  0  0  0  0  0  0  0  0  0  0  0
    0.8234    0.8353    0.1506 H   0  0  0  0  0  0  0  0  0  0  0  0
    4.4498   -1.9010   -0.2773 H   0  0  0  0  0  0  0  0  0  0  0  0
    4.9766    0.8454    0.9002 H   0  0  0  0  0  0  0  0  0  0  0  0
    5.7363    0.0969   -0.5187 H   0  0  0  0  0  0  0  0  0  0  0  0
    7.1606    0.2661    1.8170 H   0  0  0  0  0  0  0  0  0  0  0  0
    7.2069   -1.2681    0.9140 H   0  0  0  0  0  0  0  0  0  0  0  0
    5.3845   -0.5847    3.2933 H   0  0  0  0  0  0  0  0  0  0  0  0
    6.3656   -2.0585    3.0751 H   0  0  0  0  0  0  0  0  0  0  0  0
    2.8814   -3.2248    0.7277 H   0  0  0  0  0  0  0  0  0  0  0  0
    4.6622   -6.0640    2.3715 H   0  0  0  0  0  0  0  0  0  0  0  0
    3.9009   -8.4079    2.0499 H   0  0  0  0  0  0  0  0  0  0  0  0
    1.9319   -8.9167    0.6007 H   0  0  0  0  0  0  0  0  0  0  0  0
    0.7334   -7.0345   -0.5356 H   0  0  0  0  0  0  0  0  0  0  0  0
    1.5017   -4.7003   -0.2248 H   0  0  0  0  0  0  0  0  0  0  0  0
  1  2  1  0
  1 19  1  0
  1 20  1  0
  1 21  1  0
  2  3  1  0
  3  4  2  0
  3  5  1  0
  5  6  1  0
  5  9  1  0
  5 22  1  6
  6  7  1  0
  6 23  1  0
  6 24  1  0
  7  8  1  0
  7 25  1  0
  7 26  1  0
  8  9  1  0
  8 27  1  0
  8 28  1  0
  9 10  1  0
 10 11  2  0
 10 12  1  0
 12 13  1  0
 12 29  1  0
 13 14  2  0
 13 18  1  0
 14 15  1  0
 14 30  1  0
 15 16  2  0
 15 31  1  0
 16 17  1  0
 16 32  1  0
 17 18  2  0
 17 33  1  0
 18 34  1  0
M  END

