
     RDKit          3D

 37 39  0  0  0  0  0  0  0  0999 V2000
    1.5589   -1.1500    0.7250 O   0  0  0  0  0  0  0  0  0  0  0  0
    2.5984   -0.5874    0.4119 C   0  0  0  0  0  0  0  0  0  0  0  0
    3.0092    0.6029    0.9228 N   0  0  0  0  0  0  0  0  0  0  0  0
    2.2166    1.2926    1.9299 C   0  0  1  0  0  0  0  0  0  0  0  0
    2.5961    0.8863    3.3734 C   0  0  0  0  0  0  0  0  0  0  0  0
    4.0098    1.3067    3.7981 C   0  0  0  0  0  0  0  0  0  0  0  0
    4.2204    2.8230    3.7631 C   0  0  0  0  0  0  0  0  0  0  0  0
    3.9308    3.4869    2.0981 S   0  0  2  0  0  0  0  0  0  0  0  0
    4.8782    2.8113    1.1854 O   0  0  0  0  0  0  0  0  0  0  0  0
    3.8639    4.9502    2.1562 O   0  0  0  0  0  0  0  0  0  0  0  0
    2.2823    2.8151    1.7282 C   0  0  0  0  0  0  0  0  0  0  0  0
    3.5161   -1.1964   -0.6057 C   0  0  0  0  0  0  0  0  0  0  0  0
    3.2823   -2.4006   -1.3245 C   0  0  0  0  0  0  0  0  0  0  0  0
    4.3985   -2.5263   -2.1116 C   0  0  0  0  0  0  0  0  0  0  0  0
    4.8382   -3.5143   -3.0962 C   0  0  0  0  0  0  0  0  0  0  0  0
    4.0446   -4.6311   -3.4069 C   0  0  0  0  0  0  0  0  0  0  0  0
    4.5106   -5.5445   -4.3537 C   0  0  0  0  0  0  0  0  0  0  0  0
    5.6787   -5.4209   -4.9902 N   0  0  0  0  0  0  0  0  0  0  0  0
    6.4319   -4.3588   -4.6941 C   0  0  0  0  0  0  0  0  0  0  0  0
    6.0666   -3.3824   -3.7647 C   0  0  0  0  0  0  0  0  0  0  0  0
    5.2221   -1.4768   -1.8707 O   0  0  0  0  0  0  0  0  0  0  0  0
    4.6680   -0.6515   -0.9323 N   0  0  0  0  0  0  0  0  0  0  0  0
    3.8991    1.0093    0.6277 H   0  0  0  0  0  0  0  0  0  0  0  0
    1.1749    0.9775    1.7637 H   0  0  0  0  0  0  0  0  0  0  0  0
    2.4874   -0.2057    3.4554 H   0  0  0  0  0  0  0  0  0  0  0  0
    1.8537    1.3277    4.0625 H   0  0  0  0  0  0  0  0  0  0  0  0
    4.7580    0.8295    3.1449 H   0  0  0  0  0  0  0  0  0  0  0  0
    4.2140    0.9505    4.8210 H   0  0  0  0  0  0  0  0  0  0  0  0
    5.2546    3.1217    3.9932 H   0  0  0  0  0  0  0  0  0  0  0  0
    3.5384    3.3717    4.4314 H   0  0  0  0  0  0  0  0  0  0  0  0
    2.0871    3.1122    0.6868 H   0  0  0  0  0  0  0  0  0  0  0  0
    1.5798    3.3436    2.3889 H   0  0  0  0  0  0  0  0  0  0  0  0
    2.4133   -3.0456   -1.2445 H   0  0  0  0  0  0  0  0  0  0  0  0
    3.0793   -4.7911   -2.9227 H   0  0  0  0  0  0  0  0  0  0  0  0
    3.9040   -6.4215   -4.6082 H   0  0  0  0  0  0  0  0  0  0  0  0
    7.3870   -4.2724   -5.2253 H   0  0  0  0  0  0  0  0  0  0  0  0
    6.7215   -2.5341   -3.5615 H   0  0  0  0  0  0  0  0  0  0  0  0
  1  2  2  0
  2  3  1  0
  2 12  1  0
  3  4  1  0
  3 23  1  0
  4  5  1  0
  4 11  1  0
  4 24  1  6
  5  6  1  0
  5 25  1  0
  5 26  1  0
  6  7  1  0
  6 27  1  0
  6 28  1  0
  8  7  1  1
  7 29  1  0
  7 30  1  0
  8  9  2  0
  8 10  2  0
  8 11  1  0
 11 31  1  0
 11 32  1  0
 12 13  1  0
 12 22  2  0
 13 14  2  0
 13 33  1  0
 14 15  1  0
 14 21  1  0
 15 16  2  0
 15 20  1  0
 16 17  1  0
 16 34  1  0
 17 18  2  0
 17 35  1  0
 18 19  1  0
 19 20  2  0
 19 36  1  0
 20 37  1  0
 21 22  1  0
M  END

