
     RDKit          3D

 76 80  0  0  0  0  0  0  0  0999 V2000
    8.5624   -0.6335   -1.0034 C   0  0  0  0  0  0  0  0  0  0  0  0
    7.4579   -0.6749   -0.0950 O   0  0  0  0  0  0  0  0  0  0  0  0
    6.2497   -0.8659   -0.6303 C   0  0  0  0  0  0  0  0  0  0  0  0
    6.0388   -0.9690   -1.8161 O   0  0  0  0  0  0  0  0  0  0  0  0
    5.1728   -0.9829    0.4441 C   0  0  1  0  0  0  0  0  0  0  0  0
    3.8943   -0.7009   -0.1704 N   0  0  0  0  0  0  0  0  0  0  0  0
    2.8460   -0.2238    0.5601 C   0  0  0  0  0  0  0  0  0  0  0  0
    2.9071    0.0206    1.7511 O   0  0  0  0  0  0  0  0  0  0  0  0
    1.7678   -0.0658   -0.2338 O   0  0  0  0  0  0  0  0  0  0  0  0
    0.4927    0.4375    0.2820 C   0  0  1  0  0  0  0  0  0  0  0  0
    0.6698    1.8605    0.8227 C   0  0  0  0  0  0  0  0  0  0  0  0
   -0.4003    0.4374   -0.9604 C   0  0  0  0  0  0  0  0  0  0  0  0
   -0.0571   -0.5189    1.3457 C   0  0  0  0  0  0  0  0  0  0  0  0
    5.2422   -2.3594    1.1161 C   0  0  0  0  0  0  0  0  0  0  0  0
    5.1718   -2.4426    2.5241 C   0  0  0  0  0  0  0  0  0  0  0  0
    5.1910   -3.6686    3.1968 C   0  0  0  0  0  0  0  0  0  0  0  0
    5.2803   -4.7996    2.3959 C   0  0  0  0  0  0  0  0  0  0  0  0
    5.3200   -6.1119    2.7578 O   0  0  0  0  0  0  0  0  0  0  0  0
    5.4064   -6.8094    1.5680 C   0  0  0  0  0  0  0  0  0  0  0  0
    5.4787   -8.2655    1.7019 C   0  0  0  0  0  0  0  0  0  0  0  0
    5.6206   -8.8225    2.9890 C   0  0  0  0  0  0  0  0  0  0  0  0
    5.7125  -10.1937    3.1855 C   0  0  0  0  0  0  0  0  0  0  0  0
    5.6666  -11.0445    2.0777 C   0  0  0  0  0  0  0  0  0  0  0  0
    5.7058  -12.3980    2.3468 O   0  0  0  0  0  0  0  0  0  0  0  0
    6.4229  -13.2822    1.5840 C   0  0  0  0  0  0  0  0  0  0  0  0
    7.1066  -12.9524    0.6503 O   0  0  0  0  0  0  0  0  0  0  0  0
    6.2538  -14.6815    2.0683 C   0  0  0  0  0  0  0  0  0  0  0  0
    6.9633  -15.6910    1.3965 C   0  0  0  0  0  0  0  0  0  0  0  0
    6.8436  -17.0193    1.8029 C   0  0  0  0  0  0  0  0  0  0  0  0
    6.0141  -17.3485    2.8812 C   0  0  0  0  0  0  0  0  0  0  0  0
    5.3047  -16.3467    3.5523 C   0  0  0  0  0  0  0  0  0  0  0  0
    5.4222  -15.0152    3.1501 C   0  0  0  0  0  0  0  0  0  0  0  0
    5.5171  -10.5391    0.7853 C   0  0  0  0  0  0  0  0  0  0  0  0
    5.4185   -9.1561    0.5999 C   0  0  0  0  0  0  0  0  0  0  0  0
    5.3123   -8.5946   -0.6451 O   0  0  0  0  0  0  0  0  0  0  0  0
    4.6703   -9.1701   -1.7117 C   0  0  0  0  0  0  0  0  0  0  0  0
    4.1287  -10.2453   -1.6693 O   0  0  0  0  0  0  0  0  0  0  0  0
    4.7396   -8.2927   -2.9119 C   0  0  0  0  0  0  0  0  0  0  0  0
    5.2531   -6.9859   -2.8569 C   0  0  0  0  0  0  0  0  0  0  0  0
    5.2888   -6.2118   -4.0189 C   0  0  0  0  0  0  0  0  0  0  0  0
    4.8194   -6.7330   -5.2294 C   0  0  0  0  0  0  0  0  0  0  0  0
    4.3036   -8.0335   -5.2826 C   0  0  0  0  0  0  0  0  0  0  0  0
    4.2601   -8.8116   -4.1267 C   0  0  0  0  0  0  0  0  0  0  0  0
    5.4247   -6.0506    0.5124 N   0  0  0  0  0  0  0  0  0  0  0  0
    5.3434   -4.7525    0.9931 C   0  0  0  0  0  0  0  0  0  0  0  0
    5.3224   -3.5188    0.3341 C   0  0  0  0  0  0  0  0  0  0  0  0
    9.4550   -0.4670   -0.3887 H   0  0  0  0  0  0  0  0  0  0  0  0
    8.4383    0.1835   -1.7295 H   0  0  0  0  0  0  0  0  0  0  0  0
    8.6484   -1.5829   -1.5528 H   0  0  0  0  0  0  0  0  0  0  0  0
    5.3671   -0.2229    1.2145 H   0  0  0  0  0  0  0  0  0  0  0  0
    3.7934   -0.8654   -1.1665 H   0  0  0  0  0  0  0  0  0  0  0  0
    1.1035    2.5128    0.0484 H   0  0  0  0  0  0  0  0  0  0  0  0
    1.3267    1.8688    1.7017 H   0  0  0  0  0  0  0  0  0  0  0  0
   -0.3100    2.2748    1.1078 H   0  0  0  0  0  0  0  0  0  0  0  0
    0.0210    1.0900   -1.7401 H   0  0  0  0  0  0  0  0  0  0  0  0
   -1.4076    0.8009   -0.7067 H   0  0  0  0  0  0  0  0  0  0  0  0
   -0.4890   -0.5790   -1.3731 H   0  0  0  0  0  0  0  0  0  0  0  0
    0.5920   -0.5396    2.2301 H   0  0  0  0  0  0  0  0  0  0  0  0
   -0.1353   -1.5394    0.9388 H   0  0  0  0  0  0  0  0  0  0  0  0
   -1.0643   -0.1953    1.6519 H   0  0  0  0  0  0  0  0  0  0  0  0
    5.0783   -1.5188    3.0985 H   0  0  0  0  0  0  0  0  0  0  0  0
    5.1330   -3.7309    4.2845 H   0  0  0  0  0  0  0  0  0  0  0  0
    5.6638   -8.1509    3.8459 H   0  0  0  0  0  0  0  0  0  0  0  0
    5.8226  -10.6182    4.1843 H   0  0  0  0  0  0  0  0  0  0  0  0
    7.6024  -15.4104    0.5572 H   0  0  0  0  0  0  0  0  0  0  0  0
    7.3970  -17.8020    1.2783 H   0  0  0  0  0  0  0  0  0  0  0  0
    5.9197  -18.3900    3.1992 H   0  0  0  0  0  0  0  0  0  0  0  0
    4.6563  -16.6050    4.3932 H   0  0  0  0  0  0  0  0  0  0  0  0
    4.8716  -14.2296    3.6682 H   0  0  0  0  0  0  0  0  0  0  0  0
    5.4717  -11.2043   -0.0690 H   0  0  0  0  0  0  0  0  0  0  0  0
    5.5933   -6.5864   -1.8994 H   0  0  0  0  0  0  0  0  0  0  0  0
    5.6830   -5.1931   -3.9799 H   0  0  0  0  0  0  0  0  0  0  0  0
    4.8525   -6.1223   -6.1356 H   0  0  0  0  0  0  0  0  0  0  0  0
    3.9348   -8.4391   -6.2279 H   0  0  0  0  0  0  0  0  0  0  0  0
    3.8598   -9.8271   -4.1424 H   0  0  0  0  0  0  0  0  0  0  0  0
    5.3646   -3.4716   -0.7561 H   0  0  0  0  0  0  0  0  0  0  0  0
  1  2  1  0
  1 47  1  0
  1 48  1  0
  1 49  1  0
  2  3  1  0
  3  4  2  0
  3  5  1  0
  5  6  1  0
  5 14  1  0
  5 50  1  1
  6  7  1  0
  6 51  1  0
  7  8  2  0
  7  9  1  0
 10  9  1  6
 10 11  1  0
 10 12  1  0
 10 13  1  0
 11 52  1  0
 11 53  1  0
 11 54  1  0
 12 55  1  0
 12 56  1  0
 12 57  1  0
 13 58  1  0
 13 59  1  0
 13 60  1  0
 14 15  2  0
 14 46  1  0
 15 16  1  0
 15 61  1  0
 16 17  2  0
 16 62  1  0
 17 18  1  0
 17 45  1  0
 18 19  1  0
 19 20  1  0
 19 44  2  0
 20 21  2  0
 20 34  1  0
 21 22  1  0
 21 63  1  0
 22 23  2  0
 22 64  1  0
 23 24  1  0
 23 33  1  0
 24 25  1  0
 25 26  2  0
 25 27  1  0
 27 28  2  0
 27 32  1  0
 28 29  1  0
 28 65  1  0
 29 30  2  0
 29 66  1  0
 30 31  1  0
 30 67  1  0
 31 32  2  0
 31 68  1  0
 32 69  1  0
 33 34  2  0
 33 70  1  0
 34 35  1  0
 35 36  1  0
 36 37  2  0
 36 38  1  0
 38 39  2  0
 38 43  1  0
 39 40  1  0
 39 71  1  0
 40 41  2  0
 40 72  1  0
 41 42  1  0
 41 73  1  0
 42 43  2  0
 42 74  1  0
 43 75  1  0
 44 45  1  0
 45 46  2  0
 46 76  1  0
M  END

