
     RDKit          3D

 33 33  0  0  0  0  0  0  0  0999 V2000
    1.0588    0.0053    0.0000 C   0  0  0  0  0  0  0  0  0  0  0  0
    2.5929    0.0328   -0.0353 C   0  0  1  0  0  0  0  0  0  0  0  0
    3.1231    1.1682    0.8521 C   0  0  0  0  0  0  0  0  0  0  0  0
    3.1932   -1.3486    0.3399 C   0  0  1  0  0  0  0  0  0  0  0  0
    2.7078   -2.4732   -0.4673 N   0  0  0  0  0  0  0  0  0  0  0  0
    4.7290   -1.3613    0.2726 C   0  0  0  0  0  0  0  0  0  0  0  0
    5.2396   -2.6713    0.6122 N   0  0  0  0  0  0  0  0  0  0  0  0
    6.3705   -2.8422    1.3423 C   0  0  0  0  0  0  0  0  0  0  0  0
    7.0442   -1.9019    1.7488 O   0  0  0  0  0  0  0  0  0  0  0  0
    6.7968   -4.2640    1.6565 C   0  0  0  0  0  0  0  0  0  0  0  0
    7.9569   -4.4064    2.4386 C   0  0  0  0  0  0  0  0  0  0  0  0
    8.4547   -5.6580    2.7949 C   0  0  0  0  0  0  0  0  0  0  0  0
    7.7947   -6.8160    2.3690 C   0  0  0  0  0  0  0  0  0  0  0  0
    6.6418   -6.7106    1.5900 C   0  0  0  0  0  0  0  0  0  0  0  0
    6.1644   -5.4473    1.2486 C   0  0  0  0  0  0  0  0  0  0  0  0
    5.0446   -5.4035    0.4925 F   0  0  0  0  0  0  0  0  0  0  0  0
    0.6398    0.9754   -0.3105 H   0  0  0  0  0  0  0  0  0  0  0  0
    0.6908   -0.2031    1.0199 H   0  0  0  0  0  0  0  0  0  0  0  0
    0.6428   -0.7617   -0.6711 H   0  0  0  0  0  0  0  0  0  0  0  0
    2.9026    0.2421   -1.0789 H   0  0  0  0  0  0  0  0  0  0  0  0
    2.9133    0.9670    1.9170 H   0  0  0  0  0  0  0  0  0  0  0  0
    2.6366    2.1228    0.5956 H   0  0  0  0  0  0  0  0  0  0  0  0
    4.2079    1.3162    0.7478 H   0  0  0  0  0  0  0  0  0  0  0  0
    2.9102   -1.5691    1.3862 H   0  0  0  0  0  0  0  0  0  0  0  0
    2.7581   -2.2528   -1.4639 H   0  0  0  0  0  0  0  0  0  0  0  0
    1.7370   -2.6985   -0.2610 H   0  0  0  0  0  0  0  0  0  0  0  0
    5.1797   -0.6367    0.9618 H   0  0  0  0  0  0  0  0  0  0  0  0
    5.0462   -1.0692   -0.7502 H   0  0  0  0  0  0  0  0  0  0  0  0
    4.6815   -3.4582    0.2947 H   0  0  0  0  0  0  0  0  0  0  0  0
    8.4480   -3.4832    2.7517 H   0  0  0  0  0  0  0  0  0  0  0  0
    9.3582   -5.7328    3.4043 H   0  0  0  0  0  0  0  0  0  0  0  0
    8.1751   -7.8037    2.6410 H   0  0  0  0  0  0  0  0  0  0  0  0
    6.0984   -7.5892    1.2370 H   0  0  0  0  0  0  0  0  0  0  0  0
  1  2  1  0
  1 17  1  0
  1 18  1  0
  1 19  1  0
  2  3  1  0
  2  4  1  0
  2 20  1  6
  3 21  1  0
  3 22  1  0
  3 23  1  0
  4  5  1  0
  4  6  1  0
  4 24  1  1
  5 25  1  0
  5 26  1  0
  6  7  1  0
  6 27  1  0
  6 28  1  0
  7  8  1  0
  7 29  1  0
  8  9  2  0
  8 10  1  0
 10 11  2  0
 10 15  1  0
 11 12  1  0
 11 30  1  0
 12 13  2  0
 12 31  1  0
 13 14  1  0
 13 32  1  0
 14 15  2  0
 14 33  1  0
 15 16  1  0
M  END

