
     RDKit          3D

 38 39  0  0  0  0  0  0  0  0999 V2000
    1.0889   -3.3318   -0.9983 C   0  0  0  0  0  0  0  0  0  0  0  0
    2.4866   -3.4677   -1.5919 C   0  0  0  0  0  0  0  0  0  0  0  0
    2.5114   -3.0086   -2.9767 N   0  0  0  0  0  0  0  0  0  0  0  0
    3.8036   -3.0856   -3.6315 C   0  0  1  0  0  0  0  0  0  0  0  0
    3.6320   -2.9620   -5.1566 C   0  0  0  0  0  0  0  0  0  0  0  0
    4.7743   -1.9819   -3.1467 C   0  0  0  0  0  0  0  0  0  0  0  0
    4.3114   -0.9509   -2.6911 O   0  0  0  0  0  0  0  0  0  0  0  0
    6.2576   -2.1568   -3.2805 C   0  0  0  0  0  0  0  0  0  0  0  0
    7.0864   -1.0765   -2.9270 C   0  0  0  0  0  0  0  0  0  0  0  0
    8.4699   -1.1753   -3.0215 C   0  0  0  0  0  0  0  0  0  0  0  0
    9.0863   -2.3606   -3.4735 C   0  0  0  0  0  0  0  0  0  0  0  0
   10.5653   -2.4676   -3.5742 C   0  0  0  0  0  0  0  0  0  0  0  0
   11.4025   -1.8435   -2.6293 C   0  0  0  0  0  0  0  0  0  0  0  0
   12.7918   -1.9451   -2.7221 C   0  0  0  0  0  0  0  0  0  0  0  0
   13.3772   -2.6705   -3.7642 C   0  0  0  0  0  0  0  0  0  0  0  0
   12.5601   -3.2944   -4.7117 C   0  0  0  0  0  0  0  0  0  0  0  0
   11.1708   -3.1953   -4.6168 C   0  0  0  0  0  0  0  0  0  0  0  0
    8.2532   -3.4398   -3.8245 C   0  0  0  0  0  0  0  0  0  0  0  0
    6.8656   -3.3417   -3.7301 C   0  0  0  0  0  0  0  0  0  0  0  0
    1.0553   -3.7257    0.0297 H   0  0  0  0  0  0  0  0  0  0  0  0
    0.3531   -3.8776   -1.6094 H   0  0  0  0  0  0  0  0  0  0  0  0
    0.7770   -2.2744   -0.9586 H   0  0  0  0  0  0  0  0  0  0  0  0
    2.7883   -4.5309   -1.5799 H   0  0  0  0  0  0  0  0  0  0  0  0
    3.2128   -2.9314   -0.9421 H   0  0  0  0  0  0  0  0  0  0  0  0
    2.2074   -2.0332   -3.0047 H   0  0  0  0  0  0  0  0  0  0  0  0
    4.2363   -4.0744   -3.4063 H   0  0  0  0  0  0  0  0  0  0  0  0
    3.1973   -1.9815   -5.4103 H   0  0  0  0  0  0  0  0  0  0  0  0
    2.9425   -3.7425   -5.5094 H   0  0  0  0  0  0  0  0  0  0  0  0
    4.5889   -3.0556   -5.6926 H   0  0  0  0  0  0  0  0  0  0  0  0
    6.6104   -0.1561   -2.5831 H   0  0  0  0  0  0  0  0  0  0  0  0
    9.0876   -0.3117   -2.7650 H   0  0  0  0  0  0  0  0  0  0  0  0
   10.9592   -1.2932   -1.7963 H   0  0  0  0  0  0  0  0  0  0  0  0
   13.4208   -1.4602   -1.9711 H   0  0  0  0  0  0  0  0  0  0  0  0
   14.4648   -2.7488   -3.8377 H   0  0  0  0  0  0  0  0  0  0  0  0
   13.0072   -3.8564   -5.5357 H   0  0  0  0  0  0  0  0  0  0  0  0
   10.5460   -3.6677   -5.3783 H   0  0  0  0  0  0  0  0  0  0  0  0
    8.6997   -4.3813   -4.1513 H   0  0  0  0  0  0  0  0  0  0  0  0
    6.2606   -4.2084   -4.0021 H   0  0  0  0  0  0  0  0  0  0  0  0
  1  2  1  0
  1 20  1  0
  1 21  1  0
  1 22  1  0
  2  3  1  0
  2 23  1  0
  2 24  1  0
  3  4  1  0
  3 25  1  0
  4  5  1  0
  4  6  1  0
  4 26  1  6
  5 27  1  0
  5 28  1  0
  5 29  1  0
  6  7  2  0
  6  8  1  0
  8  9  2  0
  8 19  1  0
  9 10  1  0
  9 30  1  0
 10 11  2  0
 10 31  1  0
 11 12  1  0
 11 18  1  0
 12 13  2  0
 12 17  1  0
 13 14  1  0
 13 32  1  0
 14 15  2  0
 14 33  1  0
 15 16  1  0
 15 34  1  0
 16 17  2  0
 16 35  1  0
 17 36  1  0
 18 19  2  0
 18 37  1  0
 19 38  1  0
M  END

