
     RDKit          3D

 52 53  0  0  0  0  0  0  0  0999 V2000
    0.9427    0.3538    0.4634 C   0  0  0  0  0  0  0  0  0  0  0  0
    2.4510    0.2374    0.4099 C   0  0  0  0  0  0  0  0  0  0  0  0
    3.2181    1.3339    0.8374 C   0  0  0  0  0  0  0  0  0  0  0  0
    4.6111    1.3559    0.8015 C   0  0  0  0  0  0  0  0  0  0  0  0
    5.2964    0.2403    0.2933 C   0  0  0  0  0  0  0  0  0  0  0  0
    6.7012    0.1617    0.1887 N   0  0  0  0  0  0  0  0  0  0  0  0
    7.6529    1.0678    0.5734 C   0  0  0  0  0  0  0  0  0  0  0  0
    7.3836    2.1568    1.0728 O   0  0  0  0  0  0  0  0  0  0  0  0
    9.0937    0.6285    0.3505 C   0  0  0  0  0  0  0  0  0  0  0  0
    9.9973    1.7734   -0.1886 C   0  0  1  0  0  0  0  0  0  0  0  0
   10.0377    2.8090    0.7754 O   0  0  0  0  0  0  0  0  0  0  0  0
   11.4470    1.2792   -0.3495 C   0  0  0  0  0  0  0  0  0  0  0  0
   11.6592    0.3190   -1.5270 C   0  0  0  0  0  0  0  0  0  0  0  0
   11.1441    0.9110   -2.8451 C   0  0  0  0  0  0  0  0  0  0  0  0
    9.6833    1.3627   -2.7236 C   0  0  0  0  0  0  0  0  0  0  0  0
    9.4943    2.3267   -1.5446 C   0  0  0  0  0  0  0  0  0  0  0  0
    4.5526   -0.8594   -0.1487 C   0  0  0  0  0  0  0  0  0  0  0  0
    3.1537   -0.8906   -0.0804 C   0  0  0  0  0  0  0  0  0  0  0  0
    2.5453   -2.1747   -0.6084 C   0  0  0  0  0  0  0  0  0  0  0  0
    3.1199   -2.8336   -1.4657 O   0  0  0  0  0  0  0  0  0  0  0  0
    1.3593   -2.5776   -0.0633 N   0  0  0  0  0  0  0  0  0  0  0  0
    0.7242   -3.8449   -0.4259 C   0  0  1  0  0  0  0  0  0  0  0  0
    1.2766   -5.0113    0.4035 C   0  0  0  0  0  0  0  0  0  0  0  0
   -0.7951   -3.7116   -0.3107 C   0  0  0  0  0  0  0  0  0  0  0  0
    0.6459    1.4108    0.5264 H   0  0  0  0  0  0  0  0  0  0  0  0
    0.5139   -0.1405    1.3550 H   0  0  0  0  0  0  0  0  0  0  0  0
    0.4559   -0.0850   -0.4190 H   0  0  0  0  0  0  0  0  0  0  0  0
    2.6983    2.2223    1.2073 H   0  0  0  0  0  0  0  0  0  0  0  0
    5.1691    2.2231    1.1456 H   0  0  0  0  0  0  0  0  0  0  0  0
    7.0477   -0.7001   -0.2164 H   0  0  0  0  0  0  0  0  0  0  0  0
    9.1387   -0.2607   -0.2960 H   0  0  0  0  0  0  0  0  0  0  0  0
    9.4973    0.3374    1.3355 H   0  0  0  0  0  0  0  0  0  0  0  0
    9.1137    2.9765    1.0384 H   0  0  0  0  0  0  0  0  0  0  0  0
   11.7789    0.8266    0.5997 H   0  0  0  0  0  0  0  0  0  0  0  0
   12.0631    2.1836   -0.4905 H   0  0  0  0  0  0  0  0  0  0  0  0
   11.1466   -0.6414   -1.3331 H   0  0  0  0  0  0  0  0  0  0  0  0
   12.7306    0.0717   -1.6115 H   0  0  0  0  0  0  0  0  0  0  0  0
   11.2566    0.1810   -3.6644 H   0  0  0  0  0  0  0  0  0  0  0  0
   11.7670    1.7830   -3.1166 H   0  0  0  0  0  0  0  0  0  0  0  0
    9.0314    0.4778   -2.6016 H   0  0  0  0  0  0  0  0  0  0  0  0
    9.3537    1.8485   -3.6574 H   0  0  0  0  0  0  0  0  0  0  0  0
    8.4408    2.6396   -1.4530 H   0  0  0  0  0  0  0  0  0  0  0  0
   10.0705    3.2495   -1.7270 H   0  0  0  0  0  0  0  0  0  0  0  0
    5.0504   -1.7325   -0.5780 H   0  0  0  0  0  0  0  0  0  0  0  0
    1.0104   -2.0950    0.7554 H   0  0  0  0  0  0  0  0  0  0  0  0
    0.9980   -4.0178   -1.4776 H   0  0  0  0  0  0  0  0  0  0  0  0
    1.0623   -4.8726    1.4769 H   0  0  0  0  0  0  0  0  0  0  0  0
    2.3657   -5.0918    0.2718 H   0  0  0  0  0  0  0  0  0  0  0  0
    0.8229   -5.9645    0.0875 H   0  0  0  0  0  0  0  0  0  0  0  0
   -1.1014   -3.5046    0.7299 H   0  0  0  0  0  0  0  0  0  0  0  0
   -1.2900   -4.6459   -0.6174 H   0  0  0  0  0  0  0  0  0  0  0  0
   -1.1733   -2.8975   -0.9482 H   0  0  0  0  0  0  0  0  0  0  0  0
  1  2  1  0
  1 25  1  0
  1 26  1  0
  1 27  1  0
  2  3  2  0
  2 18  1  0
  3  4  1  0
  3 28  1  0
  4  5  2  0
  4 29  1  0
  5  6  1  0
  5 17  1  0
  6  7  1  0
  6 30  1  0
  7  8  2  0
  7  9  1  0
  9 10  1  0
  9 31  1  0
  9 32  1  0
 10 11  1  1
 10 12  1  0
 10 16  1  0
 11 33  1  0
 12 13  1  0
 12 34  1  0
 12 35  1  0
 13 14  1  0
 13 36  1  0
 13 37  1  0
 14 15  1  0
 14 38  1  0
 14 39  1  0
 15 16  1  0
 15 40  1  0
 15 41  1  0
 16 42  1  0
 16 43  1  0
 17 18  2  0
 17 44  1  0
 18 19  1  0
 19 20  2  0
 19 21  1  0
 21 22  1  0
 21 45  1  0
 22 23  1  0
 22 24  1  0
 22 46  1  6
 23 47  1  0
 23 48  1  0
 23 49  1  0
 24 50  1  0
 24 51  1  0
 24 52  1  0
M  END

