
     RDKit          3D

 38 40  0  0  0  0  0  0  0  0999 V2000
    1.5593    1.0937   -0.6565 C   0  0  0  0  0  0  0  0  0  0  0  0
    2.5586    0.0307   -0.2202 C   0  0  0  0  0  0  0  0  0  0  0  0
    2.8056   -0.1529    0.9596 O   0  0  0  0  0  0  0  0  0  0  0  0
    3.1673   -0.7167   -1.2106 N   0  0  0  0  0  0  0  0  0  0  0  0
    4.1667   -1.7155   -0.8427 C   0  0  0  0  0  0  0  0  0  0  0  0
    3.8729   -3.0569   -1.5140 C   0  0  0  0  0  0  0  0  0  0  0  0
    3.7219   -2.8729   -2.9587 N   0  0  0  0  0  0  0  0  0  0  0  0
    4.3518   -3.7501   -3.8032 C   0  0  0  0  0  0  0  0  0  0  0  0
    4.9649   -4.7287   -3.4096 O   0  0  0  0  0  0  0  0  0  0  0  0
    4.3081   -3.4847   -5.2950 C   0  0  0  0  0  0  0  0  0  0  0  0
    4.2256   -4.4959   -6.1909 C   0  0  0  0  0  0  0  0  0  0  0  0
    4.2455   -4.2499   -7.6361 C   0  0  0  0  0  0  0  0  0  0  0  0
    4.1416   -5.1325   -8.4747 O   0  0  0  0  0  0  0  0  0  0  0  0
    4.4140   -2.8154   -7.9897 C   0  0  0  0  0  0  0  0  0  0  0  0
    4.4830   -2.3990   -9.3313 C   0  0  0  0  0  0  0  0  0  0  0  0
    4.6502   -1.0567   -9.6472 C   0  0  0  0  0  0  0  0  0  0  0  0
    4.7540   -0.1025   -8.6185 C   0  0  0  0  0  0  0  0  0  0  0  0
    4.6887   -0.4885   -7.2837 C   0  0  0  0  0  0  0  0  0  0  0  0
    4.5165   -1.8454   -6.9794 C   0  0  0  0  0  0  0  0  0  0  0  0
    4.4495   -2.1833   -5.6529 O   0  0  0  0  0  0  0  0  0  0  0  0
    2.6942   -1.8994   -3.3113 C   0  0  0  0  0  0  0  0  0  0  0  0
    2.9861   -0.5498   -2.6434 C   0  0  0  0  0  0  0  0  0  0  0  0
    1.1869    1.5815    0.2519 H   0  0  0  0  0  0  0  0  0  0  0  0
    0.7063    0.6593   -1.2018 H   0  0  0  0  0  0  0  0  0  0  0  0
    2.0242    1.8529   -1.3054 H   0  0  0  0  0  0  0  0  0  0  0  0
    4.1544   -1.8105    0.2501 H   0  0  0  0  0  0  0  0  0  0  0  0
    5.1712   -1.3666   -1.1496 H   0  0  0  0  0  0  0  0  0  0  0  0
    2.9431   -3.4881   -1.0983 H   0  0  0  0  0  0  0  0  0  0  0  0
    4.6840   -3.7751   -1.3444 H   0  0  0  0  0  0  0  0  0  0  0  0
    4.1487   -5.5213   -5.8299 H   0  0  0  0  0  0  0  0  0  0  0  0
    4.4018   -3.1709  -10.0996 H   0  0  0  0  0  0  0  0  0  0  0  0
    4.7038   -0.7394  -10.6910 H   0  0  0  0  0  0  0  0  0  0  0  0
    4.8889    0.9533   -8.8658 H   0  0  0  0  0  0  0  0  0  0  0  0
    4.7721    0.2352   -6.4708 H   0  0  0  0  0  0  0  0  0  0  0  0
    1.7144   -2.2698   -2.9534 H   0  0  0  0  0  0  0  0  0  0  0  0
    2.6331   -1.7730   -4.3962 H   0  0  0  0  0  0  0  0  0  0  0  0
    2.1601    0.1411   -2.8485 H   0  0  0  0  0  0  0  0  0  0  0  0
    3.9028   -0.1245   -3.0970 H   0  0  0  0  0  0  0  0  0  0  0  0
  1  2  1  0
  1 23  1  0
  1 24  1  0
  1 25  1  0
  2  3  2  0
  2  4  1  0
  4  5  1  0
  4 22  1  0
  5  6  1  0
  5 26  1  0
  5 27  1  0
  6  7  1  0
  6 28  1  0
  6 29  1  0
  7  8  1  0
  7 21  1  0
  8  9  2  0
  8 10  1  0
 10 11  2  0
 10 20  1  0
 11 12  1  0
 11 30  1  0
 12 13  2  0
 12 14  1  0
 14 15  2  0
 14 19  1  0
 15 16  1  0
 15 31  1  0
 16 17  2  0
 16 32  1  0
 17 18  1  0
 17 33  1  0
 18 19  2  0
 18 34  1  0
 19 20  1  0
 21 22  1  0
 21 35  1  0
 21 36  1  0
 22 37  1  0
 22 38  1  0
M  END

