
     RDKit          3D

 49 49  0  0  0  0  0  0  0  0999 V2000
    0.8783   -0.1328    1.4005 C   0  0  0  0  0  0  0  0  0  0  0  0
    2.1322    0.4735    1.2207 O   0  0  0  0  0  0  0  0  0  0  0  0
    3.2178   -0.4105    1.3156 C   0  0  0  0  0  0  0  0  0  0  0  0
    4.5275    0.3670    1.2215 C   0  0  0  0  0  0  0  0  0  0  0  0
    4.8142    1.2113    2.3711 N   0  0  0  0  0  0  0  0  0  0  0  0
    4.4102    2.5322    2.5652 C   0  0  0  0  0  0  0  0  0  0  0  0
    3.7292    3.3701    1.5129 C   0  0  1  0  0  0  0  0  0  0  0  0
    2.9331    4.5197    2.1473 C   0  0  0  0  0  0  0  0  0  0  0  0
    4.7329    3.9141    0.4751 C   0  0  0  0  0  0  0  0  0  0  0  0
    4.8289    2.8376    3.8427 C   0  0  0  0  0  0  0  0  0  0  0  0
    5.4589    1.7682    4.4288 N   0  0  0  0  0  0  0  0  0  0  0  0
    5.4377    0.8030    3.5371 C   0  0  0  0  0  0  0  0  0  0  0  0
    6.0761   -0.5410    3.7343 C   0  0  0  0  0  0  0  0  0  0  0  0
    7.5211   -0.6314    3.2075 C   0  0  0  0  0  0  0  0  0  0  0  0
    8.1849   -1.9835    3.4849 C   0  0  0  0  0  0  0  0  0  0  0  0
    9.6261   -2.0691    2.9715 C   0  0  0  0  0  0  0  0  0  0  0  0
   10.3787   -3.3717    3.3042 C   0  0  1  0  0  0  0  0  0  0  0  0
    9.7420   -4.6077    2.6541 C   0  0  0  0  0  0  0  0  0  0  0  0
   11.8576   -3.2557    2.9125 C   0  0  0  0  0  0  0  0  0  0  0  0
    0.1115    0.6497    1.3100 H   0  0  0  0  0  0  0  0  0  0  0  0
    0.7873   -0.6036    2.3997 H   0  0  0  0  0  0  0  0  0  0  0  0
    0.6814   -0.9112    0.6355 H   0  0  0  0  0  0  0  0  0  0  0  0
    3.1901   -1.1574    0.4927 H   0  0  0  0  0  0  0  0  0  0  0  0
    3.1824   -0.9760    2.2696 H   0  0  0  0  0  0  0  0  0  0  0  0
    4.5078    0.9869    0.3138 H   0  0  0  0  0  0  0  0  0  0  0  0
    5.3517   -0.3502    1.0971 H   0  0  0  0  0  0  0  0  0  0  0  0
    3.0075    2.7222    0.9894 H   0  0  0  0  0  0  0  0  0  0  0  0
    3.5955    5.2210    2.6808 H   0  0  0  0  0  0  0  0  0  0  0  0
    2.1905    4.1431    2.8670 H   0  0  0  0  0  0  0  0  0  0  0  0
    2.4006    5.0940    1.3725 H   0  0  0  0  0  0  0  0  0  0  0  0
    5.4594    4.5902    0.9546 H   0  0  0  0  0  0  0  0  0  0  0  0
    4.2126    4.4764   -0.3180 H   0  0  0  0  0  0  0  0  0  0  0  0
    5.3070    3.1076   -0.0086 H   0  0  0  0  0  0  0  0  0  0  0  0
    4.7041    3.7818    4.3711 H   0  0  0  0  0  0  0  0  0  0  0  0
    5.4661   -1.3441    3.2850 H   0  0  0  0  0  0  0  0  0  0  0  0
    6.0795   -0.7234    4.8198 H   0  0  0  0  0  0  0  0  0  0  0  0
    8.1091    0.1788    3.6716 H   0  0  0  0  0  0  0  0  0  0  0  0
    7.5384   -0.4297    2.1204 H   0  0  0  0  0  0  0  0  0  0  0  0
    7.5726   -2.7843    3.0330 H   0  0  0  0  0  0  0  0  0  0  0  0
    8.1729   -2.1745    4.5742 H   0  0  0  0  0  0  0  0  0  0  0  0
   10.1966   -1.2199    3.3893 H   0  0  0  0  0  0  0  0  0  0  0  0
    9.6341   -1.9221    1.8742 H   0  0  0  0  0  0  0  0  0  0  0  0
   10.3327   -3.5079    4.4020 H   0  0  0  0  0  0  0  0  0  0  0  0
    9.7375   -4.5150    1.5537 H   0  0  0  0  0  0  0  0  0  0  0  0
    8.7020   -4.7624    2.9807 H   0  0  0  0  0  0  0  0  0  0  0  0
   10.3042   -5.5216    2.9064 H   0  0  0  0  0  0  0  0  0  0  0  0
   11.9675   -3.1120    1.8235 H   0  0  0  0  0  0  0  0  0  0  0  0
   12.4190   -4.1643    3.1850 H   0  0  0  0  0  0  0  0  0  0  0  0
   12.3416   -2.3997    3.4104 H   0  0  0  0  0  0  0  0  0  0  0  0
  1  2  1  0
  1 20  1  0
  1 21  1  0
  1 22  1  0
  2  3  1  0
  3  4  1  0
  3 23  1  0
  3 24  1  0
  4  5  1  0
  4 25  1  0
  4 26  1  0
  5  6  1  0
  5 12  1  0
  6  7  1  0
  6 10  2  0
  7  8  1  0
  7  9  1  0
  7 27  1  6
  8 28  1  0
  8 29  1  0
  8 30  1  0
  9 31  1  0
  9 32  1  0
  9 33  1  0
 10 11  1  0
 10 34  1  0
 11 12  2  0
 12 13  1  0
 13 14  1  0
 13 35  1  0
 13 36  1  0
 14 15  1  0
 14 37  1  0
 14 38  1  0
 15 16  1  0
 15 39  1  0
 15 40  1  0
 16 17  1  0
 16 41  1  0
 16 42  1  0
 17 18  1  0
 17 19  1  0
 17 43  1  1
 18 44  1  0
 18 45  1  0
 18 46  1  0
 19 47  1  0
 19 48  1  0
 19 49  1  0
M  END

