
     RDKit          3D

 44 46  0  0  0  0  0  0  0  0999 V2000
    1.2756    0.2352    1.8747 O   0  0  0  0  0  0  0  0  0  0  0  0
    2.2320    0.2142    1.1159 C   0  0  0  0  0  0  0  0  0  0  0  0
    3.2866   -0.8889    1.1697 C   0  0  0  0  0  0  0  0  0  0  0  0
    3.5360   -1.3916    2.6019 C   0  0  0  0  0  0  0  0  0  0  0  0
    4.4227   -2.6011    2.6718 C   0  0  0  0  0  0  0  0  0  0  0  0
    5.7417   -2.6415    3.0645 C   0  0  0  0  0  0  0  0  0  0  0  0
    6.2301   -3.9315    2.9722 N   0  0  0  0  0  0  0  0  0  0  0  0
    7.1650   -4.2216    3.2228 H   0  0  0  0  0  0  0  0  0  0  0  0
    5.2311   -4.7631    2.5174 C   0  0  0  0  0  0  0  0  0  0  0  0
    5.2333   -6.1435    2.2712 C   0  0  0  0  0  0  0  0  0  0  0  0
    4.0507   -6.7205    1.8160 C   0  0  0  0  0  0  0  0  0  0  0  0
    2.8886   -5.9438    1.6131 C   0  0  0  0  0  0  0  0  0  0  0  0
    2.8888   -4.5739    1.8587 C   0  0  0  0  0  0  0  0  0  0  0  0
    4.0716   -3.9581    2.3146 C   0  0  0  0  0  0  0  0  0  0  0  0
    2.4216    1.1506    0.1360 N   0  0  0  0  0  0  0  0  0  0  0  0
    1.5107    2.2583   -0.0870 C   0  0  0  0  0  0  0  0  0  0  0  0
    2.1121    3.6175    0.2867 C   0  0  0  0  0  0  0  0  0  0  0  0
    1.1742    4.7925    0.0233 C   0  0  1  0  0  0  0  0  0  0  0  0
    0.8940    4.7791   -1.0490 H   0  0  0  0  0  0  0  0  0  0  0  0
   -0.1347    4.8123    0.8620 C   0  0  0  0  0  0  0  0  0  0  0  0
   -0.4740    6.3186    1.0119 C   0  0  0  0  0  0  0  0  0  0  0  0
    0.7300    7.0461    0.3463 C   0  0  0  0  0  0  0  0  0  0  0  0
    1.8289    6.0820    0.2707 N   0  0  0  0  0  0  0  0  0  0  0  0
    4.2309   -0.5590    0.7047 H   0  0  0  0  0  0  0  0  0  0  0  0
    2.9134   -1.7218    0.5476 H   0  0  0  0  0  0  0  0  0  0  0  0
    2.5540   -1.6025    3.0547 H   0  0  0  0  0  0  0  0  0  0  0  0
    3.9744   -0.5747    3.1990 H   0  0  0  0  0  0  0  0  0  0  0  0
    6.3799   -1.8317    3.4158 H   0  0  0  0  0  0  0  0  0  0  0  0
    6.1300   -6.7477    2.4323 H   0  0  0  0  0  0  0  0  0  0  0  0
    4.0205   -7.7945    1.6151 H   0  0  0  0  0  0  0  0  0  0  0  0
    1.9758   -6.4304    1.2605 H   0  0  0  0  0  0  0  0  0  0  0  0
    1.9802   -3.9856    1.7055 H   0  0  0  0  0  0  0  0  0  0  0  0
    3.2558    1.0886   -0.4350 H   0  0  0  0  0  0  0  0  0  0  0  0
    0.6215    2.0480    0.5237 H   0  0  0  0  0  0  0  0  0  0  0  0
    1.1926    2.2688   -1.1456 H   0  0  0  0  0  0  0  0  0  0  0  0
    3.0444    3.7839   -0.2812 H   0  0  0  0  0  0  0  0  0  0  0  0
    2.3895    3.5997    1.3568 H   0  0  0  0  0  0  0  0  0  0  0  0
    0.0503    4.3521    1.8473 H   0  0  0  0  0  0  0  0  0  0  0  0
   -0.9465    4.2384    0.3887 H   0  0  0  0  0  0  0  0  0  0  0  0
   -0.5668    6.5963    2.0737 H   0  0  0  0  0  0  0  0  0  0  0  0
   -1.4274    6.5852    0.5296 H   0  0  0  0  0  0  0  0  0  0  0  0
    1.0445    7.9555    0.8805 H   0  0  0  0  0  0  0  0  0  0  0  0
    0.4611    7.3530   -0.6799 H   0  0  0  0  0  0  0  0  0  0  0  0
    2.2945    6.0374    1.1800 H   0  0  0  0  0  0  0  0  0  0  0  0
  1  2  2  0
  2  3  1  0
  2 15  1  0
  3  4  1  0
  3 24  1  0
  3 25  1  0
  4  5  1  0
  4 26  1  0
  4 27  1  0
  5  6  2  0
  5 14  1  0
  6  7  1  0
  6 28  1  0
  7  8  1  0
  7  9  1  0
  9 10  1  0
  9 14  2  0
 10 11  2  0
 10 29  1  0
 11 12  1  0
 11 30  1  0
 12 13  2  0
 12 31  1  0
 13 14  1  0
 13 32  1  0
 15 16  1  0
 15 33  1  0
 16 17  1  0
 16 34  1  0
 16 35  1  0
 17 18  1  0
 17 36  1  0
 17 37  1  0
 18 19  1  6
 18 20  1  0
 18 23  1  0
 20 21  1  0
 20 38  1  0
 20 39  1  0
 21 22  1  0
 21 40  1  0
 21 41  1  0
 22 23  1  0
 22 42  1  0
 22 43  1  0
 23 44  1  0
M  END

