
     RDKit          3D

 31 32  0  0  0  0  0  0  0  0999 V2000
    1.6399    0.8550   -1.7311 C   0  0  0  0  0  0  0  0  0  0  0  0
    2.8071    0.5692   -0.9905 O   0  0  0  0  0  0  0  0  0  0  0  0
    3.1330    1.3617    0.0656 C   0  0  0  0  0  0  0  0  0  0  0  0
    2.3716    2.4505    0.5098 C   0  0  0  0  0  0  0  0  0  0  0  0
    2.8048    3.2203    1.5973 C   0  0  0  0  0  0  0  0  0  0  0  0
    3.9966    2.9132    2.2513 C   0  0  0  0  0  0  0  0  0  0  0  0
    4.7562    1.8199    1.8184 C   0  0  0  0  0  0  0  0  0  0  0  0
    4.3383    1.0436    0.7389 C   0  0  0  0  0  0  0  0  0  0  0  0
    5.1406    0.0194    0.3036 O   0  0  0  0  0  0  0  0  0  0  0  0
    4.6541   -1.3031    0.4569 C   0  0  0  0  0  0  0  0  0  0  0  0
    5.7317   -2.2168   -0.1218 C   0  0  0  0  0  0  0  0  0  0  0  0
    5.3551   -3.6189   -0.0434 N   0  0  0  0  0  0  0  0  0  0  0  0
    4.7906   -4.4083   -0.9805 C   0  0  0  0  0  0  0  0  0  0  0  0
    4.6024   -5.6216   -0.3315 C   0  0  0  0  0  0  0  0  0  0  0  0
    4.0318   -6.8710   -0.8524 C   0  0  0  0  0  0  0  0  0  0  0  0
    3.6212   -7.0070   -1.9836 O   0  0  0  0  0  0  0  0  0  0  0  0
    5.0577   -5.4905    0.9505 N   0  0  0  0  0  0  0  0  0  0  0  0
    5.5053   -4.2937    1.1245 N   0  0  0  0  0  0  0  0  0  0  0  0
    1.5885    0.1079   -2.5344 H   0  0  0  0  0  0  0  0  0  0  0  0
    1.6791    1.8628   -2.1812 H   0  0  0  0  0  0  0  0  0  0  0  0
    0.7291    0.7767   -1.1108 H   0  0  0  0  0  0  0  0  0  0  0  0
    1.4403    2.7117    0.0068 H   0  0  0  0  0  0  0  0  0  0  0  0
    2.1984    4.0680    1.9254 H   0  0  0  0  0  0  0  0  0  0  0  0
    4.3375    3.5150    3.0965 H   0  0  0  0  0  0  0  0  0  0  0  0
    5.6965    1.5511    2.3047 H   0  0  0  0  0  0  0  0  0  0  0  0
    3.7039   -1.4437   -0.0844 H   0  0  0  0  0  0  0  0  0  0  0  0
    4.4913   -1.5421    1.5235 H   0  0  0  0  0  0  0  0  0  0  0  0
    6.6726   -2.0867    0.4305 H   0  0  0  0  0  0  0  0  0  0  0  0
    5.9094   -1.9599   -1.1755 H   0  0  0  0  0  0  0  0  0  0  0  0
    4.5752   -4.0855   -1.9954 H   0  0  0  0  0  0  0  0  0  0  0  0
    4.0069   -7.6998   -0.1022 H   0  0  0  0  0  0  0  0  0  0  0  0
  1  2  1  0
  1 19  1  0
  1 20  1  0
  1 21  1  0
  2  3  1  0
  3  4  2  0
  3  8  1  0
  4  5  1  0
  4 22  1  0
  5  6  2  0
  5 23  1  0
  6  7  1  0
  6 24  1  0
  7  8  2  0
  7 25  1  0
  8  9  1  0
  9 10  1  0
 10 11  1  0
 10 26  1  0
 10 27  1  0
 11 12  1  0
 11 28  1  0
 11 29  1  0
 12 13  1  0
 12 18  1  0
 13 14  2  0
 13 30  1  0
 14 15  1  0
 14 17  1  0
 15 16  2  0
 15 31  1  0
 17 18  2  0
M  END

