
     RDKit          3D

 44 45  0  0  0  0  0  0  0  0999 V2000
    1.2646    1.3526   -2.0912 C   0  0  0  0  0  0  0  0  0  0  0  0
    2.3449    0.8463   -1.1785 C   0  0  0  0  0  0  0  0  0  0  0  0
    3.2554    1.8099   -0.8111 N   0  0  0  0  0  0  0  0  0  0  0  0
    4.2628    1.4805   -0.0571 C   0  0  0  0  0  0  0  0  0  0  0  0
    5.3161    2.5128    0.3575 C   0  0  1  0  0  0  0  0  0  0  0  0
    4.9600    3.8853   -0.2334 C   0  0  0  0  0  0  0  0  0  0  0  0
    5.3542    2.6123    1.9003 C   0  0  0  0  0  0  0  0  0  0  0  0
    6.6985    2.0676   -0.1747 C   0  0  0  0  0  0  0  0  0  0  0  0
    4.4209    0.2042    0.3911 N   0  0  0  0  0  0  0  0  0  0  0  0
    5.2173   -0.0500    0.9701 H   0  0  0  0  0  0  0  0  0  0  0  0
    3.5474   -0.8627    0.1044 C   0  0  0  0  0  0  0  0  0  0  0  0
    3.7769   -1.9739    0.5563 O   0  0  0  0  0  0  0  0  0  0  0  0
    2.4276   -0.4618   -0.7387 C   0  0  0  0  0  0  0  0  0  0  0  0
    1.5175   -1.5409   -1.2751 C   0  0  0  0  0  0  0  0  0  0  0  0
    1.4155   -1.7098   -2.4812 O   0  0  0  0  0  0  0  0  0  0  0  0
    0.8242   -2.3094   -0.3699 N   0  0  0  0  0  0  0  0  0  0  0  0
    0.8214   -2.1422    1.0758 C   0  0  0  0  0  0  0  0  0  0  0  0
   -0.6128   -2.2096    1.6004 C   0  0  0  0  0  0  0  0  0  0  0  0
   -1.2681   -3.3902    1.1600 O   0  0  0  0  0  0  0  0  0  0  0  0
   -1.3012   -3.5091   -0.2582 C   0  0  2  0  0  0  0  0  0  0  0  0
   -2.0493   -4.7996   -0.6133 C   0  0  0  0  0  0  0  0  0  0  0  0
   -2.1235   -5.2070   -1.7403 O   0  0  0  0  0  0  0  0  0  0  0  0
   -2.6114   -5.4148    0.4317 O   0  0  0  0  0  0  0  0  0  0  0  0
    0.1103   -3.4895   -0.8437 C   0  0  0  0  0  0  0  0  0  0  0  0
    1.7162    1.6202   -3.0608 H   0  0  0  0  0  0  0  0  0  0  0  0
    0.8440    2.2802   -1.6730 H   0  0  0  0  0  0  0  0  0  0  0  0
    0.4739    0.6191   -2.2798 H   0  0  0  0  0  0  0  0  0  0  0  0
    3.9777    4.2294    0.1190 H   0  0  0  0  0  0  0  0  0  0  0  0
    4.9171    3.8485   -1.3307 H   0  0  0  0  0  0  0  0  0  0  0  0
    5.7204    4.6236    0.0656 H   0  0  0  0  0  0  0  0  0  0  0  0
    4.3747    2.9135    2.3036 H   0  0  0  0  0  0  0  0  0  0  0  0
    6.0939    3.3679    2.2075 H   0  0  0  0  0  0  0  0  0  0  0  0
    5.6408    1.6620    2.3794 H   0  0  0  0  0  0  0  0  0  0  0  0
    6.6901    1.9734   -1.2716 H   0  0  0  0  0  0  0  0  0  0  0  0
    7.0231    1.1020    0.2456 H   0  0  0  0  0  0  0  0  0  0  0  0
    7.4608    2.8145    0.0965 H   0  0  0  0  0  0  0  0  0  0  0  0
    1.2518   -1.1684    1.3414 H   0  0  0  0  0  0  0  0  0  0  0  0
    1.4408   -2.9233    1.5499 H   0  0  0  0  0  0  0  0  0  0  0  0
   -1.1814   -1.3216    1.2597 H   0  0  0  0  0  0  0  0  0  0  0  0
   -0.6222   -2.2321    2.7001 H   0  0  0  0  0  0  0  0  0  0  0  0
   -1.8781   -2.6649   -0.6882 H   0  0  0  0  0  0  0  0  0  0  0  0
   -2.3786   -4.8997    1.2289 H   0  0  0  0  0  0  0  0  0  0  0  0
    0.0723   -3.4667   -1.9383 H   0  0  0  0  0  0  0  0  0  0  0  0
    0.6483   -4.4024   -0.5269 H   0  0  0  0  0  0  0  0  0  0  0  0
  1  2  1  0
  1 25  1  0
  1 26  1  0
  1 27  1  0
  2  3  1  0
  2 13  2  0
  3  4  2  0
  4  5  1  0
  4  9  1  0
  5  6  1  6
  5  7  1  0
  5  8  1  0
  6 28  1  0
  6 29  1  0
  6 30  1  0
  7 31  1  0
  7 32  1  0
  7 33  1  0
  8 34  1  0
  8 35  1  0
  8 36  1  0
  9 10  1  0
  9 11  1  0
 11 12  2  0
 11 13  1  0
 13 14  1  0
 14 15  2  0
 14 16  1  0
 16 17  1  0
 16 24  1  0
 17 18  1  0
 17 37  1  0
 17 38  1  0
 18 19  1  0
 18 39  1  0
 18 40  1  0
 19 20  1  0
 20 21  1  0
 20 24  1  0
 20 41  1  6
 21 22  2  0
 21 23  1  0
 23 42  1  0
 24 43  1  0
 24 44  1  0
M  END

