
     RDKit          3D

 65 68  0  0  0  0  0  0  0  0999 V2000
   -2.3450  -13.3142    2.9642 C   0  0  0  0  0  0  0  0  0  0  0  0
   -1.2940  -13.8363    3.7419 O   0  0  0  0  0  0  0  0  0  0  0  0
   -0.0200  -13.4254    3.4897 C   0  0  0  0  0  0  0  0  0  0  0  0
    0.9846  -13.9751    4.2985 C   0  0  0  0  0  0  0  0  0  0  0  0
    2.3138  -13.6086    4.1066 C   0  0  0  0  0  0  0  0  0  0  0  0
    2.6743  -12.6884    3.1084 C   0  0  0  0  0  0  0  0  0  0  0  0
    3.9674  -12.3061    2.8863 O   0  0  0  0  0  0  0  0  0  0  0  0
    4.9977  -12.8491    3.6768 C   0  0  0  0  0  0  0  0  0  0  0  0
    1.6719  -12.1241    2.2858 C   0  0  0  0  0  0  0  0  0  0  0  0
    1.9583  -11.1517    1.2120 C   0  0  0  0  0  0  0  0  0  0  0  0
    3.1744  -10.5409    0.8126 C   0  0  0  0  0  0  0  0  0  0  0  0
    2.8372   -9.7007   -0.2452 C   0  0  0  0  0  0  0  0  0  0  0  0
    3.6374   -8.6804   -0.9854 C   0  0  0  0  0  0  0  0  0  0  0  0
    3.1413   -7.5955   -1.2775 O   0  0  0  0  0  0  0  0  0  0  0  0
    4.9476   -8.9780   -1.2798 N   0  0  0  0  0  0  0  0  0  0  0  0
    5.5838  -10.2921   -1.2618 C   0  0  0  0  0  0  0  0  0  0  0  0
    6.1311  -10.6460   -2.6461 C   0  0  0  0  0  0  0  0  0  0  0  0
    6.9883   -9.5904   -3.1706 N   0  0  0  0  0  0  0  0  0  0  0  0
    8.1117   -9.9056   -3.9129 C   0  0  0  0  0  0  0  0  0  0  0  0
    8.7961   -8.9597   -4.7014 C   0  0  0  0  0  0  0  0  0  0  0  0
    9.9585   -9.4005   -5.3692 C   0  0  0  0  0  0  0  0  0  0  0  0
   10.7111   -8.5527   -6.1420 N   0  0  0  0  0  0  0  0  0  0  0  0
   10.3271   -7.1665   -6.2992 C   0  0  0  0  0  0  0  0  0  0  0  0
   11.8463   -9.0305   -6.9123 C   0  0  0  0  0  0  0  0  0  0  0  0
   10.3688  -10.6840   -5.2721 N   0  0  0  0  0  0  0  0  0  0  0  0
    9.6384  -11.5042   -4.5226 C   0  0  0  0  0  0  0  0  0  0  0  0
   10.0884  -12.9402   -4.4248 C   0  0  0  0  0  0  0  0  0  0  0  0
    8.5380  -11.1805   -3.8404 N   0  0  0  0  0  0  0  0  0  0  0  0
    6.3620   -8.2797   -3.1908 C   0  0  0  0  0  0  0  0  0  0  0  0
    5.8062   -7.9249   -1.8082 C   0  0  0  0  0  0  0  0  0  0  0  0
    1.4830   -9.8313   -0.4137 N   0  0  0  0  0  0  0  0  0  0  0  0
    0.6283   -9.2224   -1.4204 C   0  0  0  0  0  0  0  0  0  0  0  0
    0.9555  -10.7076    0.4366 N   0  0  0  0  0  0  0  0  0  0  0  0
    0.3330  -12.5092    2.4960 C   0  0  0  0  0  0  0  0  0  0  0  0
   -3.2704  -13.7748    3.3366 H   0  0  0  0  0  0  0  0  0  0  0  0
   -2.2295  -13.5607    1.8927 H   0  0  0  0  0  0  0  0  0  0  0  0
   -2.4276  -12.2163    3.0632 H   0  0  0  0  0  0  0  0  0  0  0  0
    0.7050  -14.6895    5.0751 H   0  0  0  0  0  0  0  0  0  0  0  0
    3.0756  -14.0506    4.7482 H   0  0  0  0  0  0  0  0  0  0  0  0
    5.9363  -12.4041    3.3184 H   0  0  0  0  0  0  0  0  0  0  0  0
    5.0636  -13.9476    3.5739 H   0  0  0  0  0  0  0  0  0  0  0  0
    4.8738  -12.6013    4.7468 H   0  0  0  0  0  0  0  0  0  0  0  0
    4.1477  -10.6738    1.2672 H   0  0  0  0  0  0  0  0  0  0  0  0
    4.8590  -11.0541   -0.9567 H   0  0  0  0  0  0  0  0  0  0  0  0
    6.4107  -10.2908   -0.5274 H   0  0  0  0  0  0  0  0  0  0  0  0
    5.2758  -10.8127   -3.3337 H   0  0  0  0  0  0  0  0  0  0  0  0
    6.7181  -11.5703   -2.6047 H   0  0  0  0  0  0  0  0  0  0  0  0
    8.4398   -7.9411   -4.8104 H   0  0  0  0  0  0  0  0  0  0  0  0
   10.2218   -6.6577   -5.3252 H   0  0  0  0  0  0  0  0  0  0  0  0
    9.3726   -7.0487   -6.8470 H   0  0  0  0  0  0  0  0  0  0  0  0
   11.1063   -6.6400   -6.8665 H   0  0  0  0  0  0  0  0  0  0  0  0
   12.0155  -10.0845   -6.6697 H   0  0  0  0  0  0  0  0  0  0  0  0
   12.7557   -8.4528   -6.6697 H   0  0  0  0  0  0  0  0  0  0  0  0
   11.6619   -8.9386   -7.9989 H   0  0  0  0  0  0  0  0  0  0  0  0
   10.9953  -13.1032   -5.0201 H   0  0  0  0  0  0  0  0  0  0  0  0
    9.2892  -13.6117   -4.7773 H   0  0  0  0  0  0  0  0  0  0  0  0
   10.2851  -13.2043   -3.3733 H   0  0  0  0  0  0  0  0  0  0  0  0
    5.5434   -8.2446   -3.9389 H   0  0  0  0  0  0  0  0  0  0  0  0
    7.0967   -7.5133   -3.4660 H   0  0  0  0  0  0  0  0  0  0  0  0
    5.2181   -7.0008   -1.8574 H   0  0  0  0  0  0  0  0  0  0  0  0
    6.6529   -7.7767   -1.1121 H   0  0  0  0  0  0  0  0  0  0  0  0
    1.0042   -8.2196   -1.6491 H   0  0  0  0  0  0  0  0  0  0  0  0
   -0.3861   -9.1709   -1.0063 H   0  0  0  0  0  0  0  0  0  0  0  0
    0.6077   -9.8334   -2.3382 H   0  0  0  0  0  0  0  0  0  0  0  0
   -0.4154  -12.0590    1.8469 H   0  0  0  0  0  0  0  0  0  0  0  0
  1  2  1  0
  1 35  1  0
  1 36  1  0
  1 37  1  0
  2  3  1  0
  3  4  2  0
  3 34  1  0
  4  5  1  0
  4 38  1  0
  5  6  2  0
  5 39  1  0
  6  7  1  0
  6  9  1  0
  7  8  1  0
  8 40  1  0
  8 41  1  0
  8 42  1  0
  9 10  1  0
  9 34  2  0
 10 11  1  0
 10 33  2  0
 11 12  2  0
 11 43  1  0
 12 13  1  0
 12 31  1  0
 13 14  2  0
 13 15  1  0
 15 16  1  0
 15 30  1  0
 16 17  1  0
 16 44  1  0
 16 45  1  0
 17 18  1  0
 17 46  1  0
 17 47  1  0
 18 19  1  0
 18 29  1  0
 19 20  2  0
 19 28  1  0
 20 21  1  0
 20 48  1  0
 21 22  1  0
 21 25  2  0
 22 23  1  0
 22 24  1  0
 23 49  1  0
 23 50  1  0
 23 51  1  0
 24 52  1  0
 24 53  1  0
 24 54  1  0
 25 26  1  0
 26 27  1  0
 26 28  2  0
 27 55  1  0
 27 56  1  0
 27 57  1  0
 29 30  1  0
 29 58  1  0
 29 59  1  0
 30 60  1  0
 30 61  1  0
 31 32  1  0
 31 33  1  0
 32 62  1  0
 32 63  1  0
 32 64  1  0
 34 65  1  0
M  END

