
     RDKit          3D

 45 47  0  0  0  0  0  0  0  0999 V2000
    1.7790    0.5443    0.8123 C   0  0  0  0  0  0  0  0  0  0  0  0
    2.6656    1.1900   -0.2628 C   0  0  1  0  0  0  0  0  0  0  0  0
    4.1413    0.7497   -0.1651 C   0  0  0  0  0  0  0  0  0  0  0  0
    4.3689   -0.6788   -0.6714 C   0  0  0  0  0  0  0  0  0  0  0  0
    3.8449   -0.8467   -2.0271 N   0  0  0  0  0  0  0  0  0  0  0  0
    4.6780   -1.3184   -3.0152 C   0  0  0  0  0  0  0  0  0  0  0  0
    5.8500   -1.5863   -2.7840 O   0  0  0  0  0  0  0  0  0  0  0  0
    4.0592   -1.4848   -4.4026 C   0  0  0  0  0  0  0  0  0  0  0  0
    4.9438   -1.9971   -5.5102 C   0  0  0  0  0  0  0  0  0  0  0  0
    6.2789   -2.3025   -5.4805 C   0  0  0  0  0  0  0  0  0  0  0  0
    6.8046   -2.8263   -7.0522 S   0  0  0  0  0  0  0  0  0  0  0  0
    5.1469   -2.6135   -7.6249 C   0  0  0  0  0  0  0  0  0  0  0  0
    4.8434   -2.9115   -8.9491 N   0  0  0  0  0  0  0  0  0  0  0  0
    3.8160   -2.3551   -9.7139 C   0  0  0  0  0  0  0  0  0  0  0  0
    3.0930   -1.4679   -9.3200 O   0  0  0  0  0  0  0  0  0  0  0  0
    3.6937   -2.9379  -11.0992 C   0  0  0  0  0  0  0  0  0  0  0  0
    4.1619   -4.2137  -11.4551 C   0  0  0  0  0  0  0  0  0  0  0  0
    3.9941   -4.6907  -12.7580 C   0  0  0  0  0  0  0  0  0  0  0  0
    3.3564   -3.8985  -13.7167 C   0  0  0  0  0  0  0  0  0  0  0  0
    2.8746   -2.6321  -13.3658 C   0  0  0  0  0  0  0  0  0  0  0  0
    3.0349   -2.1587  -12.0639 C   0  0  0  0  0  0  0  0  0  0  0  0
    4.3200   -2.1878   -6.7271 N   0  0  0  0  0  0  0  0  0  0  0  0
    2.4315   -0.5097   -2.1694 C   0  0  0  0  0  0  0  0  0  0  0  0
    2.1556    0.9244   -1.6943 C   0  0  0  0  0  0  0  0  0  0  0  0
    2.1460    0.7895    1.8221 H   0  0  0  0  0  0  0  0  0  0  0  0
    1.7471   -0.5544    0.7357 H   0  0  0  0  0  0  0  0  0  0  0  0
    0.7412    0.9078    0.7377 H   0  0  0  0  0  0  0  0  0  0  0  0
    2.6296    2.2808   -0.0962 H   0  0  0  0  0  0  0  0  0  0  0  0
    4.4975    0.8287    0.8761 H   0  0  0  0  0  0  0  0  0  0  0  0
    4.7638    1.4336   -0.7673 H   0  0  0  0  0  0  0  0  0  0  0  0
    3.8752   -1.4096   -0.0028 H   0  0  0  0  0  0  0  0  0  0  0  0
    5.4362   -0.9271   -0.6995 H   0  0  0  0  0  0  0  0  0  0  0  0
    3.6392   -0.5195   -4.7351 H   0  0  0  0  0  0  0  0  0  0  0  0
    3.1872   -2.1581   -4.3367 H   0  0  0  0  0  0  0  0  0  0  0  0
    6.9487   -2.2506   -4.6284 H   0  0  0  0  0  0  0  0  0  0  0  0
    5.5198   -3.4806   -9.4428 H   0  0  0  0  0  0  0  0  0  0  0  0
    4.6302   -4.8629  -10.7105 H   0  0  0  0  0  0  0  0  0  0  0  0
    4.3542   -5.6884  -13.0212 H   0  0  0  0  0  0  0  0  0  0  0  0
    3.2274   -4.2713  -14.7361 H   0  0  0  0  0  0  0  0  0  0  0  0
    2.3686   -2.0135  -14.1113 H   0  0  0  0  0  0  0  0  0  0  0  0
    2.6541   -1.1803  -11.7645 H   0  0  0  0  0  0  0  0  0  0  0  0
    1.8287   -1.2275   -1.5799 H   0  0  0  0  0  0  0  0  0  0  0  0
    2.1143   -0.6214   -3.2115 H   0  0  0  0  0  0  0  0  0  0  0  0
    1.0732    1.1269   -1.7625 H   0  0  0  0  0  0  0  0  0  0  0  0
    2.6560    1.6193   -2.3907 H   0  0  0  0  0  0  0  0  0  0  0  0
  1  2  1  0
  1 25  1  0
  1 26  1  0
  1 27  1  0
  2  3  1  0
  2 24  1  0
  2 28  1  1
  3  4  1  0
  3 29  1  0
  3 30  1  0
  4  5  1  0
  4 31  1  0
  4 32  1  0
  5  6  1  0
  5 23  1  0
  6  7  2  0
  6  8  1  0
  8  9  1  0
  8 33  1  0
  8 34  1  0
  9 10  2  0
  9 22  1  0
 10 11  1  0
 10 35  1  0
 11 12  1  0
 12 13  1  0
 12 22  2  0
 13 14  1  0
 13 36  1  0
 14 15  2  0
 14 16  1  0
 16 17  2  0
 16 21  1  0
 17 18  1  0
 17 37  1  0
 18 19  2  0
 18 38  1  0
 19 20  1  0
 19 39  1  0
 20 21  2  0
 20 40  1  0
 21 41  1  0
 23 24  1  0
 23 42  1  0
 23 43  1  0
 24 44  1  0
 24 45  1  0
M  END

