
     RDKit          3D

 39 40  0  0  0  0  0  0  0  0999 V2000
    2.0777    1.4447   -0.3934 C   0  0  0  0  0  0  0  0  0  0  0  0
    2.8168    0.1663   -0.0011 C   0  0  0  0  0  0  0  0  0  0  0  0
    2.9313   -0.8741   -1.1260 C   0  0  1  0  0  0  0  0  0  0  0  0
    3.8508   -2.0532   -0.7782 C   0  0  0  0  0  0  0  0  0  0  0  0
    3.3465   -2.9026    0.2971 N   0  0  0  0  0  0  0  0  0  0  0  0
    4.3756   -3.7891    0.8357 C   0  0  0  0  0  0  0  0  0  0  0  0
    5.3420   -3.1155    1.8290 C   0  0  1  0  0  0  0  0  0  0  0  0
    4.6031   -2.6077    3.0720 C   0  0  0  0  0  0  0  0  0  0  0  0
    6.4698   -4.0763    2.2018 C   0  0  1  0  0  0  0  0  0  0  0  0
    7.5264   -4.4858    1.1406 C   0  0  0  0  0  0  0  0  0  0  0  0
    8.5670   -4.3671    2.1760 N   0  0  0  0  0  0  0  0  0  0  0  0
    7.6782   -3.5502    3.0201 C   0  0  0  0  0  0  0  0  0  0  0  0
    2.1262   -3.6095   -0.0776 C   0  0  0  0  0  0  0  0  0  0  0  0
    0.9620   -2.6620   -0.3504 C   0  0  0  0  0  0  0  0  0  0  0  0
    1.2998   -1.5033   -1.7265 S   0  0  0  0  0  0  0  0  0  0  0  0
    2.0282    2.1493    0.4520 H   0  0  0  0  0  0  0  0  0  0  0  0
    1.0485    1.2213   -0.7137 H   0  0  0  0  0  0  0  0  0  0  0  0
    2.5823    1.9609   -1.2279 H   0  0  0  0  0  0  0  0  0  0  0  0
    2.3395   -0.2973    0.8771 H   0  0  0  0  0  0  0  0  0  0  0  0
    3.8444    0.4192    0.3206 H   0  0  0  0  0  0  0  0  0  0  0  0
    3.3533   -0.3843   -2.0201 H   0  0  0  0  0  0  0  0  0  0  0  0
    4.8237   -1.6414   -0.4651 H   0  0  0  0  0  0  0  0  0  0  0  0
    4.0340   -2.6466   -1.7029 H   0  0  0  0  0  0  0  0  0  0  0  0
    4.9589   -4.2679    0.0167 H   0  0  0  0  0  0  0  0  0  0  0  0
    3.8685   -4.6128    1.3663 H   0  0  0  0  0  0  0  0  0  0  0  0
    5.8067   -2.2465    1.3268 H   0  0  0  0  0  0  0  0  0  0  0  0
    4.1783   -3.4493    3.6465 H   0  0  0  0  0  0  0  0  0  0  0  0
    3.7741   -1.9446    2.7855 H   0  0  0  0  0  0  0  0  0  0  0  0
    5.2760   -2.0515    3.7441 H   0  0  0  0  0  0  0  0  0  0  0  0
    6.0491   -4.9749    2.6848 H   0  0  0  0  0  0  0  0  0  0  0  0
    7.5942   -3.7349    0.3256 H   0  0  0  0  0  0  0  0  0  0  0  0
    7.4367   -5.4852    0.6795 H   0  0  0  0  0  0  0  0  0  0  0  0
    9.4457   -3.9375    1.8912 H   0  0  0  0  0  0  0  0  0  0  0  0
    7.8018   -2.4537    2.8986 H   0  0  0  0  0  0  0  0  0  0  0  0
    7.7117   -3.7825    4.0990 H   0  0  0  0  0  0  0  0  0  0  0  0
    1.8446   -4.2720    0.7583 H   0  0  0  0  0  0  0  0  0  0  0  0
    2.2816   -4.2576   -0.9714 H   0  0  0  0  0  0  0  0  0  0  0  0
    0.7062   -2.1000    0.5617 H   0  0  0  0  0  0  0  0  0  0  0  0
    0.0716   -3.2323   -0.6561 H   0  0  0  0  0  0  0  0  0  0  0  0
  1  2  1  0
  1 16  1  0
  1 17  1  0
  1 18  1  0
  2  3  1  0
  2 19  1  0
  2 20  1  0
  3  4  1  0
  3 15  1  0
  3 21  1  6
  4  5  1  0
  4 22  1  0
  4 23  1  0
  5  6  1  0
  5 13  1  0
  6  7  1  0
  6 24  1  0
  6 25  1  0
  7  8  1  0
  7  9  1  0
  7 26  1  6
  8 27  1  0
  8 28  1  0
  8 29  1  0
  9 10  1  0
  9 12  1  0
  9 30  1  1
 10 11  1  0
 10 31  1  0
 10 32  1  0
 11 12  1  0
 11 33  1  0
 12 34  1  0
 12 35  1  0
 13 14  1  0
 13 36  1  0
 13 37  1  0
 14 15  1  0
 14 38  1  0
 14 39  1  0
M  END

