
     RDKit          3D

 47 49  0  0  0  0  0  0  0  0999 V2000
    2.6776   -0.6033   -1.1550 C   0  0  0  0  0  0  0  0  0  0  0  0
    2.5248   -0.0838    0.2720 C   0  0  2  0  0  0  0  0  0  0  0  0
    1.4524   -0.0256    0.5132 H   0  0  0  0  0  0  0  0  0  0  0  0
    3.1616    1.2850    0.5246 C   0  0  0  0  0  0  0  0  0  0  0  0
    4.6651    1.1778    0.5110 C   0  0  0  0  0  0  0  0  0  0  0  0
    5.4779    2.2322    0.0587 C   0  0  0  0  0  0  0  0  0  0  0  0
    4.9835    3.4277   -0.3638 O   0  0  0  0  0  0  0  0  0  0  0  0
    6.8598    2.0626    0.0261 C   0  0  0  0  0  0  0  0  0  0  0  0
    7.4583    0.8746    0.4628 C   0  0  0  0  0  0  0  0  0  0  0  0
    8.9516    0.8212    0.3930 C   0  0  0  0  0  0  0  0  0  0  0  0
    9.5829    1.4959   -0.4222 O   0  0  0  0  0  0  0  0  0  0  0  0
    9.5930   -0.0160    1.2731 N   0  0  0  0  0  0  0  0  0  0  0  0
   11.0545    0.0341    1.4585 C   0  0  1  0  0  0  0  0  0  0  0  0
   11.3598    1.0973    1.4554 H   0  0  0  0  0  0  0  0  0  0  0  0
   11.4358   -0.6170    2.7978 C   0  0  0  0  0  0  0  0  0  0  0  0
   10.7355   -0.0076    3.9932 C   0  0  0  0  0  0  0  0  0  0  0  0
    9.6467   -0.6565    4.5992 C   0  0  0  0  0  0  0  0  0  0  0  0
    8.9750   -0.0774    5.6826 C   0  0  0  0  0  0  0  0  0  0  0  0
    9.3874    1.1601    6.1803 C   0  0  0  0  0  0  0  0  0  0  0  0
   10.4750    1.8149    5.5906 C   0  0  0  0  0  0  0  0  0  0  0  0
   11.1401    1.2365    4.5080 C   0  0  0  0  0  0  0  0  0  0  0  0
   11.8088   -0.6526    0.2869 C   0  0  0  0  0  0  0  0  0  0  0  0
   12.5287   -1.6014    0.4599 O   0  0  0  0  0  0  0  0  0  0  0  0
   11.6301   -0.0984   -0.9082 O   0  0  0  0  0  0  0  0  0  0  0  0
    6.6512   -0.2033    0.9062 C   0  0  0  0  0  0  0  0  0  0  0  0
    7.1703   -1.3987    1.2581 O   0  0  0  0  0  0  0  0  0  0  0  0
    5.2470   -0.0291    0.9529 C   0  0  0  0  0  0  0  0  0  0  0  0
    4.3647   -1.1030    1.5214 C   0  0  0  0  0  0  0  0  0  0  0  0
    4.7409   -1.9797    2.2510 O   0  0  0  0  0  0  0  0  0  0  0  0
    3.0386   -1.0306    1.2202 O   0  0  0  0  0  0  0  0  0  0  0  0
    3.7331   -0.6561   -1.4624 H   0  0  0  0  0  0  0  0  0  0  0  0
    2.1447    0.0533   -1.8610 H   0  0  0  0  0  0  0  0  0  0  0  0
    2.2459   -1.6122   -1.2295 H   0  0  0  0  0  0  0  0  0  0  0  0
    2.8096    1.6696    1.4993 H   0  0  0  0  0  0  0  0  0  0  0  0
    2.8023    1.9877   -0.2466 H   0  0  0  0  0  0  0  0  0  0  0  0
    4.0321    3.4721   -0.2093 H   0  0  0  0  0  0  0  0  0  0  0  0
    7.4916    2.8726   -0.3404 H   0  0  0  0  0  0  0  0  0  0  0  0
    9.0779   -0.2421    2.1240 H   0  0  0  0  0  0  0  0  0  0  0  0
   12.5271   -0.5283    2.8979 H   0  0  0  0  0  0  0  0  0  0  0  0
   11.2289   -1.6957    2.7316 H   0  0  0  0  0  0  0  0  0  0  0  0
    9.3259   -1.6361    4.2311 H   0  0  0  0  0  0  0  0  0  0  0  0
    8.1313   -0.6013    6.1387 H   0  0  0  0  0  0  0  0  0  0  0  0
    8.8679    1.6128    7.0285 H   0  0  0  0  0  0  0  0  0  0  0  0
   10.8092    2.7800    5.9801 H   0  0  0  0  0  0  0  0  0  0  0  0
   11.9935    1.7542    4.0595 H   0  0  0  0  0  0  0  0  0  0  0  0
   10.9802    0.6480   -0.8530 H   0  0  0  0  0  0  0  0  0  0  0  0
    8.0935   -1.4546    0.9638 H   0  0  0  0  0  0  0  0  0  0  0  0
  1  2  1  0
  1 31  1  0
  1 32  1  0
  1 33  1  0
  2  3  1  1
  2  4  1  0
  2 30  1  0
  4  5  1  0
  4 34  1  0
  4 35  1  0
  5  6  1  0
  5 27  2  0
  6  7  1  0
  6  8  2  0
  7 36  1  0
  8  9  1  0
  8 37  1  0
  9 10  1  0
  9 25  2  0
 10 11  2  0
 10 12  1  0
 12 13  1  0
 12 38  1  0
 13 14  1  1
 13 15  1  0
 13 22  1  0
 15 16  1  0
 15 39  1  0
 15 40  1  0
 16 17  2  0
 16 21  1  0
 17 18  1  0
 17 41  1  0
 18 19  2  0
 18 42  1  0
 19 20  1  0
 19 43  1  0
 20 21  2  0
 20 44  1  0
 21 45  1  0
 22 23  2  0
 22 24  1  0
 24 46  1  0
 25 26  1  0
 25 27  1  0
 26 47  1  0
 27 28  1  0
 28 29  2  0
 28 30  1  0
M  END

