
     RDKit          3D

 56 60  0  0  0  0  0  0  0  0999 V2000
    1.4291    1.4496   -0.0722 O   0  0  0  0  0  0  0  0  0  0  0  0
    1.9501    0.4048   -0.3474 C   0  0  0  0  0  0  0  0  0  0  0  0
    1.5989   -0.7390    0.2663 O   0  0  0  0  0  0  0  0  0  0  0  0
    3.0501    0.2812   -1.4087 C   0  0  0  0  0  0  0  0  0  0  0  0
    4.4738    0.2608   -0.8441 C   0  0  2  0  0  0  0  0  0  0  0  0
    5.5176    0.1111   -1.9667 C   0  0  0  0  0  0  0  0  0  0  0  0
    5.4441    0.7177   -3.0054 O   0  0  0  0  0  0  0  0  0  0  0  0
    6.5044   -0.8246   -1.6755 N   0  0  0  0  0  0  0  0  0  0  0  0
    7.5864   -1.0332   -2.6028 C   0  0  0  0  0  0  0  0  0  0  0  0
    8.7510   -0.2645   -2.5044 C   0  0  0  0  0  0  0  0  0  0  0  0
    9.7972   -0.4710   -3.4072 C   0  0  0  0  0  0  0  0  0  0  0  0
    9.6696   -1.4313   -4.4052 C   0  0  0  0  0  0  0  0  0  0  0  0
   10.6546   -1.6400   -5.2757 F   0  0  0  0  0  0  0  0  0  0  0  0
    8.4961   -2.1889   -4.5091 C   0  0  0  0  0  0  0  0  0  0  0  0
    8.3924   -3.0971   -5.4769 F   0  0  0  0  0  0  0  0  0  0  0  0
    7.4532   -1.9957   -3.6111 C   0  0  0  0  0  0  0  0  0  0  0  0
    6.5765   -1.3570   -0.3343 C   0  0  2  0  0  0  0  0  0  0  0  0
    7.4575   -0.5212    0.6350 C   0  0  0  0  0  0  0  0  0  0  0  0
    7.5092    0.6869    0.6719 O   0  0  0  0  0  0  0  0  0  0  0  0
    8.1679   -1.4104    1.4120 N   0  0  0  0  0  0  0  0  0  0  0  0
    9.0386   -0.9743    2.5072 C   0  0  0  0  0  0  0  0  0  0  0  0
   10.4970   -0.8125    2.1217 C   0  0  0  0  0  0  0  0  0  0  0  0
   10.8991    0.2710    1.3224 C   0  0  0  0  0  0  0  0  0  0  0  0
   12.2351    0.4350    0.9569 C   0  0  0  0  0  0  0  0  0  0  0  0
   13.1877   -0.4909    1.3978 C   0  0  0  0  0  0  0  0  0  0  0  0
   14.8612   -0.2899    0.9446 Cl  0  0  0  0  0  0  0  0  0  0  0  0
   12.8130   -1.5687    2.2033 C   0  0  0  0  0  0  0  0  0  0  0  0
   11.4702   -1.7204    2.5595 C   0  0  0  0  0  0  0  0  0  0  0  0
    7.9509   -2.7277    0.9915 C   0  0  0  0  0  0  0  0  0  0  0  0
    8.5046   -3.9042    1.4977 C   0  0  0  0  0  0  0  0  0  0  0  0
    8.1294   -5.1155    0.9088 C   0  0  0  0  0  0  0  0  0  0  0  0
    7.2218   -5.1295   -0.1517 C   0  0  0  0  0  0  0  0  0  0  0  0
    6.8479   -6.4216   -0.7567 N   0  0  0  0  0  0  0  0  0  0  0  0
    7.3348   -7.4315   -0.2755 O   0  0  0  0  0  0  0  0  0  0  0  0
    6.0768   -6.3944   -1.7022 O   0  0  0  0  0  0  0  0  0  0  0  0
    6.6506   -3.9573   -0.6623 C   0  0  0  0  0  0  0  0  0  0  0  0
    7.0364   -2.7585   -0.0861 C   0  0  0  0  0  0  0  0  0  0  0  0
    4.7870   -1.1576    0.2612 S   0  0  2  0  0  0  0  0  0  0  0  0
    3.9994   -2.2967   -0.2595 O   0  0  0  0  0  0  0  0  0  0  0  0
    4.7716   -0.8364    1.6868 O   0  0  0  0  0  0  0  0  0  0  0  0
    2.1468   -1.4933   -0.0211 H   0  0  0  0  0  0  0  0  0  0  0  0
    2.9834    1.1591   -2.0651 H   0  0  0  0  0  0  0  0  0  0  0  0
    2.8933   -0.6186   -2.0229 H   0  0  0  0  0  0  0  0  0  0  0  0
    4.7042    1.1553   -0.2439 H   0  0  0  0  0  0  0  0  0  0  0  0
    8.8301    0.5039   -1.7346 H   0  0  0  0  0  0  0  0  0  0  0  0
   10.7182    0.1127   -3.3571 H   0  0  0  0  0  0  0  0  0  0  0  0
    6.5457   -2.5911   -3.7168 H   0  0  0  0  0  0  0  0  0  0  0  0
    8.9299   -1.6939    3.3315 H   0  0  0  0  0  0  0  0  0  0  0  0
    8.6275   -0.0131    2.8476 H   0  0  0  0  0  0  0  0  0  0  0  0
   10.1549    1.0007    0.9929 H   0  0  0  0  0  0  0  0  0  0  0  0
   12.5468    1.2806    0.3416 H   0  0  0  0  0  0  0  0  0  0  0  0
   13.5671   -2.2775    2.5488 H   0  0  0  0  0  0  0  0  0  0  0  0
   11.1870   -2.5588    3.2023 H   0  0  0  0  0  0  0  0  0  0  0  0
    9.2169   -3.8927    2.3218 H   0  0  0  0  0  0  0  0  0  0  0  0
    8.5346   -6.0638    1.2617 H   0  0  0  0  0  0  0  0  0  0  0  0
    5.9233   -4.0144   -1.4700 H   0  0  0  0  0  0  0  0  0  0  0  0
  1  2  2  0
  2  3  1  0
  2  4  1  0
  3 41  1  0
  4  5  1  0
  4 42  1  0
  4 43  1  0
  5  6  1  0
  5 38  1  0
  5 44  1  1
  6  7  2  0
  6  8  1  0
  8  9  1  0
  8 17  1  0
  9 10  2  0
  9 16  1  0
 10 11  1  0
 10 45  1  0
 11 12  2  0
 11 46  1  0
 12 13  1  0
 12 14  1  0
 14 15  1  0
 14 16  2  0
 16 47  1  0
 17 18  1  1
 17 37  1  0
 38 17  1  6
 18 19  2  0
 18 20  1  0
 20 21  1  0
 20 29  1  0
 21 22  1  0
 21 48  1  0
 21 49  1  0
 22 23  2  0
 22 28  1  0
 23 24  1  0
 23 50  1  0
 24 25  2  0
 24 51  1  0
 25 26  1  0
 25 27  1  0
 27 28  2  0
 27 52  1  0
 28 53  1  0
 29 30  1  0
 29 37  2  0
 30 31  2  0
 30 54  1  0
 31 32  1  0
 31 55  1  0
 32 33  1  0
 32 36  2  0
 33 34  2  0
 33 35  1  0
 36 37  1  0
 36 56  1  0
 38 39  2  0
 38 40  2  0
M  CHG  2  33   1  35  -1
M  END

