
     RDKit          3D

 42 42  0  0  0  0  0  0  0  0999 V2000
    0.7866    3.0905   -1.5729 C   0  0  0  0  0  0  0  0  0  0  0  0
    2.3015    2.8916   -1.5291 C   0  0  0  0  0  0  0  0  0  0  0  0
    2.7253    1.6849   -0.6684 C   0  0  0  0  0  0  0  0  0  0  0  0
    4.2122    1.4660   -0.5997 C   0  0  0  0  0  0  0  0  0  0  0  0
    5.1643    2.3583    0.5575 S   0  0  0  0  0  0  0  0  0  0  0  0
    6.6515    1.6415   -0.0069 C   0  0  0  0  0  0  0  0  0  0  0  0
    8.0101    1.9268    0.5353 C   0  0  0  0  0  0  0  0  0  0  0  0
    9.0022    1.4027    0.0451 O   0  0  0  0  0  0  0  0  0  0  0  0
    8.0743    2.7909    1.5910 N   0  0  0  0  0  0  0  0  0  0  0  0
    9.3216    3.1986    2.2006 C   0  0  0  0  0  0  0  0  0  0  0  0
    9.2941    4.6878    2.5777 C   0  0  1  0  0  0  0  0  0  0  0  0
    9.1871    5.5855    1.3425 C   0  0  0  0  0  0  0  0  0  0  0  0
    8.1685    4.8894    3.4969 N   0  0  0  0  0  0  0  0  0  0  0  0
    7.9886    6.2322    4.0252 C   0  0  0  0  0  0  0  0  0  0  0  0
    6.3963    0.7666   -1.0353 C   0  0  0  0  0  0  0  0  0  0  0  0
    5.0151    0.6594   -1.3881 C   0  0  0  0  0  0  0  0  0  0  0  0
    4.5172   -0.2679   -2.4728 C   0  0  0  0  0  0  0  0  0  0  0  0
    4.4250   -1.7359   -2.0287 C   0  0  0  0  0  0  0  0  0  0  0  0
    0.5136    3.9586   -2.1936 H   0  0  0  0  0  0  0  0  0  0  0  0
    0.3739    3.2596   -0.5642 H   0  0  0  0  0  0  0  0  0  0  0  0
    0.2764    2.2076   -1.9933 H   0  0  0  0  0  0  0  0  0  0  0  0
    2.7905    3.7992   -1.1353 H   0  0  0  0  0  0  0  0  0  0  0  0
    2.6952    2.7577   -2.5516 H   0  0  0  0  0  0  0  0  0  0  0  0
    2.2503    0.7718   -1.0644 H   0  0  0  0  0  0  0  0  0  0  0  0
    2.3222    1.8132    0.3513 H   0  0  0  0  0  0  0  0  0  0  0  0
    7.2384    3.2153    1.9818 H   0  0  0  0  0  0  0  0  0  0  0  0
   10.1334    2.9802    1.4927 H   0  0  0  0  0  0  0  0  0  0  0  0
    9.5273    2.6005    3.1119 H   0  0  0  0  0  0  0  0  0  0  0  0
   10.2674    4.9110    3.0731 H   0  0  0  0  0  0  0  0  0  0  0  0
    8.2353    5.4176    0.8156 H   0  0  0  0  0  0  0  0  0  0  0  0
   10.0097    5.3660    0.6448 H   0  0  0  0  0  0  0  0  0  0  0  0
    9.2528    6.6520    1.6047 H   0  0  0  0  0  0  0  0  0  0  0  0
    8.2725    4.2407    4.2773 H   0  0  0  0  0  0  0  0  0  0  0  0
    7.6346    6.9195    3.2414 H   0  0  0  0  0  0  0  0  0  0  0  0
    8.9089    6.6758    4.4658 H   0  0  0  0  0  0  0  0  0  0  0  0
    7.2154    6.2143    4.8088 H   0  0  0  0  0  0  0  0  0  0  0  0
    7.2067    0.2212   -1.5216 H   0  0  0  0  0  0  0  0  0  0  0  0
    5.1972   -0.1942   -3.3387 H   0  0  0  0  0  0  0  0  0  0  0  0
    3.5328    0.0685   -2.8354 H   0  0  0  0  0  0  0  0  0  0  0  0
    5.4036   -2.1113   -1.6893 H   0  0  0  0  0  0  0  0  0  0  0  0
    4.0848   -2.3796   -2.8561 H   0  0  0  0  0  0  0  0  0  0  0  0
    3.7186   -1.8550   -1.1915 H   0  0  0  0  0  0  0  0  0  0  0  0
  1  2  1  0
  1 19  1  0
  1 20  1  0
  1 21  1  0
  2  3  1  0
  2 22  1  0
  2 23  1  0
  3  4  1  0
  3 24  1  0
  3 25  1  0
  4  5  2  0
  4 16  1  0
  5  6  1  0
  6  7  2  0
  6 15  1  0
  7  8  1  0
  7  9  1  0
  9 10  1  0
  9 26  1  0
 10 11  1  0
 10 27  1  0
 10 28  1  0
 11 12  1  0
 11 13  1  0
 11 29  1  1
 12 30  1  0
 12 31  1  0
 12 32  1  0
 13 14  1  0
 13 33  1  0
 14 34  1  0
 14 35  1  0
 14 36  1  0
 15 16  2  0
 15 37  1  0
 16 17  1  0
 17 18  1  0
 17 38  1  0
 17 39  1  0
 18 40  1  0
 18 41  1  0
 18 42  1  0
M  CHG  2   5   1   8  -1
M  END

