
     RDKit          3D

 17 17  0  0  0  0  0  0  0  0999 V2000
    1.4924   -0.1822   -1.0801 C   0  0  0  0  0  0  0  0  0  0  0  0
    3.0499   -0.0235   -0.1604 S   0  0  0  0  0  0  0  0  0  0  0  0
    3.4542   -1.6873    0.2828 C   0  0  0  0  0  0  0  0  0  0  0  0
    4.6422   -1.8676    1.0221 C   0  0  0  0  0  0  0  0  0  0  0  0
    5.0467   -3.1353    1.4182 C   0  0  0  0  0  0  0  0  0  0  0  0
    4.2730   -4.2667    1.0864 C   0  0  0  0  0  0  0  0  0  0  0  0
    4.6871   -5.5782    1.4937 C   0  0  0  0  0  0  0  0  0  0  0  0
    5.0228   -6.6403    1.8239 N   0  0  0  0  0  0  0  0  0  0  0  0
    3.0889   -4.0886    0.3499 C   0  0  0  0  0  0  0  0  0  0  0  0
    2.6832   -2.8158   -0.0477 C   0  0  0  0  0  0  0  0  0  0  0  0
    1.2191    0.8428   -1.3672 H   0  0  0  0  0  0  0  0  0  0  0  0
    0.6904   -0.6005   -0.4543 H   0  0  0  0  0  0  0  0  0  0  0  0
    1.6167   -0.7842   -1.9922 H   0  0  0  0  0  0  0  0  0  0  0  0
    5.2513   -0.9995    1.2863 H   0  0  0  0  0  0  0  0  0  0  0  0
    5.9683   -3.2605    1.9899 H   0  0  0  0  0  0  0  0  0  0  0  0
    2.4820   -4.9576    0.0875 H   0  0  0  0  0  0  0  0  0  0  0  0
    1.7596   -2.7148   -0.6176 H   0  0  0  0  0  0  0  0  0  0  0  0
  1  2  1  0
  1 11  1  0
  1 12  1  0
  1 13  1  0
  2  3  1  0
  3  4  2  0
  3 10  1  0
  4  5  1  0
  4 14  1  0
  5  6  2  0
  5 15  1  0
  6  7  1  0
  6  9  1  0
  7  8  3  0
  9 10  2  0
  9 16  1  0
 10 17  1  0
M  END

