
     RDKit          3D

 26 26  0  0  0  0  0  0  0  0999 V2000
    0.9390   -0.6426   -2.8576 C   0  0  0  0  0  0  0  0  0  0  0  0
    2.4550   -0.4638   -2.9223 C   0  0  0  0  0  0  0  0  0  0  0  0
    3.0833   -0.1456   -1.5510 C   0  0  0  0  0  0  0  0  0  0  0  0
    4.5979   -0.0541   -1.6099 C   0  0  0  0  0  0  0  0  0  0  0  0
    5.2021   -1.2151   -1.6601 N   0  0  0  0  0  0  0  0  0  0  0  0
    6.5729   -1.3108   -1.6948 C   0  0  0  0  0  0  0  0  0  0  0  0
    7.2140   -2.3297   -1.8211 O   0  0  0  0  0  0  0  0  0  0  0  0
    7.2643   -0.0740   -1.5384 N   0  0  0  0  0  0  0  0  0  0  0  0
    8.2774   -0.1598   -1.5006 H   0  0  0  0  0  0  0  0  0  0  0  0
    6.6929    1.1451   -1.4884 C   0  0  0  0  0  0  0  0  0  0  0  0
    7.6198    2.3152   -1.3308 C   0  0  0  0  0  0  0  0  0  0  0  0
    5.3015    1.2125   -1.5807 C   0  0  0  0  0  0  0  0  0  0  0  0
    4.6563    2.5620   -1.5627 C   0  0  0  0  0  0  0  0  0  0  0  0
    5.1109    3.5128   -0.9760 O   0  0  0  0  0  0  0  0  0  0  0  0
    3.5186    2.7119   -2.2805 O   0  0  0  0  0  0  0  0  0  0  0  0
    0.5239   -0.8830   -3.8488 H   0  0  0  0  0  0  0  0  0  0  0  0
    0.4376    0.2704   -2.4961 H   0  0  0  0  0  0  0  0  0  0  0  0
    0.6688   -1.4632   -2.1733 H   0  0  0  0  0  0  0  0  0  0  0  0
    2.6994    0.3296   -3.6583 H   0  0  0  0  0  0  0  0  0  0  0  0
    2.9359   -1.3759   -3.3108 H   0  0  0  0  0  0  0  0  0  0  0  0
    2.8552   -0.9797   -0.8701 H   0  0  0  0  0  0  0  0  0  0  0  0
    2.6346    0.7629   -1.1243 H   0  0  0  0  0  0  0  0  0  0  0  0
    8.6656    2.0054   -1.4727 H   0  0  0  0  0  0  0  0  0  0  0  0
    7.4990    2.7555   -0.3304 H   0  0  0  0  0  0  0  0  0  0  0  0
    7.3760    3.1170   -2.0403 H   0  0  0  0  0  0  0  0  0  0  0  0
    3.3332    1.9262   -2.8145 H   0  0  0  0  0  0  0  0  0  0  0  0
  1  2  1  0
  1 16  1  0
  1 17  1  0
  1 18  1  0
  2  3  1  0
  2 19  1  0
  2 20  1  0
  3  4  1  0
  3 21  1  0
  3 22  1  0
  4  5  2  0
  4 12  1  0
  5  6  1  0
  6  7  2  0
  6  8  1  0
  8  9  1  0
  8 10  1  0
 10 11  1  0
 10 12  2  0
 11 23  1  0
 11 24  1  0
 11 25  1  0
 12 13  1  0
 13 14  2  0
 13 15  1  0
 15 26  1  0
M  END

