
     RDKit          3D

 77 78  0  0  0  0  0  0  0  0999 V2000
   10.3367   -2.7515  -14.6150 C   0  0  0  0  0  0  0  0  0  0  0  0
   11.7063   -2.3924  -14.0284 C   0  0  1  0  0  0  0  0  0  0  0  0
   11.8989   -2.9703  -12.6219 C   0  0  0  0  0  0  0  0  0  0  0  0
   12.8307   -2.8504  -14.9598 C   0  0  0  0  0  0  0  0  0  0  0  0
   11.8761   -0.9390  -14.0025 O   0  0  0  0  0  0  0  0  0  0  0  0
   11.0624   -0.1387  -13.2762 C   0  0  0  0  0  0  0  0  0  0  0  0
   10.1330   -0.5020  -12.5833 O   0  0  0  0  0  0  0  0  0  0  0  0
   11.4374    1.1650  -13.4438 N   0  0  0  0  0  0  0  0  0  0  0  0
   10.7838    2.2539  -12.7508 C   0  0  0  0  0  0  0  0  0  0  0  0
   11.4514    2.6049  -11.4215 C   0  0  0  0  0  0  0  0  0  0  0  0
   10.7805    3.7115  -10.8771 O   0  0  0  0  0  0  0  0  0  0  0  0
   11.2604    4.1277   -9.6227 C   0  0  0  0  0  0  0  0  0  0  0  0
   10.4265    5.3127   -9.1657 C   0  0  0  0  0  0  0  0  0  0  0  0
   10.9047    5.7199   -7.9082 O   0  0  0  0  0  0  0  0  0  0  0  0
   10.2175    6.8191   -7.3596 C   0  0  0  0  0  0  0  0  0  0  0  0
   10.8072    7.1655   -5.9999 C   0  0  0  0  0  0  0  0  0  0  0  0
   12.1910    7.4604   -5.9742 O   0  0  0  0  0  0  0  0  0  0  0  0
   12.7038    8.3087   -6.9715 C   0  0  0  0  0  0  0  0  0  0  0  0
   12.2368    9.7674   -6.8294 C   0  0  0  0  0  0  0  0  0  0  0  0
   12.6832   10.6086   -7.9258 N   0  0  0  0  0  0  0  0  0  0  0  0
   11.9978   10.6524   -9.1084 C   0  0  0  0  0  0  0  0  0  0  0  0
   10.9726   10.0090   -9.2952 O   0  0  0  0  0  0  0  0  0  0  0  0
   12.5698   11.5445  -10.1786 C   0  0  0  0  0  0  0  0  0  0  0  0
   12.2051   11.2859  -11.5089 C   0  0  0  0  0  0  0  0  0  0  0  0
   12.6960   12.0757  -12.5442 C   0  0  0  0  0  0  0  0  0  0  0  0
   13.5471   13.1645  -12.2849 C   0  0  0  0  0  0  0  0  0  0  0  0
   14.0895   13.9976  -13.4626 C   0  0  2  0  0  0  0  0  0  0  0  0
   14.6705   15.3568  -13.0199 C   0  0  0  0  0  0  0  0  0  0  0  0
   12.9641   14.2342  -14.3926 N   0  0  0  0  0  0  0  0  0  0  0  0
   13.0350   14.3602  -15.7370 C   0  0  0  0  0  0  0  0  0  0  0  0
   11.8176   14.9754  -16.6910 S   0  0  0  0  0  0  0  0  0  0  0  0
   14.2147   13.9048  -16.2987 N   0  0  0  0  0  0  0  0  0  0  0  0
   15.2066   13.2470  -15.5988 C   0  0  0  0  0  0  0  0  0  0  0  0
   16.2165   12.7199  -16.3598 N   0  0  0  0  0  0  0  0  0  0  0  0
   15.1488   13.1923  -14.2259 C   0  0  0  0  0  0  0  0  0  0  0  0
   16.1512   12.4803  -13.5235 C   0  0  0  0  0  0  0  0  0  0  0  0
   17.0002   11.8913  -12.9829 N   0  0  0  0  0  0  0  0  0  0  0  0
   13.8911   13.4345  -10.9542 C   0  0  0  0  0  0  0  0  0  0  0  0
   13.4099   12.6337   -9.9143 C   0  0  0  0  0  0  0  0  0  0  0  0
   10.2565   -3.8435  -14.7333 H   0  0  0  0  0  0  0  0  0  0  0  0
   10.2132   -2.2908  -15.6078 H   0  0  0  0  0  0  0  0  0  0  0  0
    9.5261   -2.4057  -13.9612 H   0  0  0  0  0  0  0  0  0  0  0  0
   11.8791   -4.0706  -12.6654 H   0  0  0  0  0  0  0  0  0  0  0  0
   11.1064   -2.6286  -11.9443 H   0  0  0  0  0  0  0  0  0  0  0  0
   12.8741   -2.6630  -12.2122 H   0  0  0  0  0  0  0  0  0  0  0  0
   12.8154   -3.9455  -15.0682 H   0  0  0  0  0  0  0  0  0  0  0  0
   13.8115   -2.5530  -14.5584 H   0  0  0  0  0  0  0  0  0  0  0  0
   12.7152   -2.3991  -15.9571 H   0  0  0  0  0  0  0  0  0  0  0  0
   12.2583    1.3413  -14.0099 H   0  0  0  0  0  0  0  0  0  0  0  0
    9.7402    1.9656  -12.5616 H   0  0  0  0  0  0  0  0  0  0  0  0
   10.7738    3.1483  -13.3945 H   0  0  0  0  0  0  0  0  0  0  0  0
   12.5273    2.8328  -11.5839 H   0  0  0  0  0  0  0  0  0  0  0  0
   11.4021    1.7303  -10.7411 H   0  0  0  0  0  0  0  0  0  0  0  0
   12.3279    4.4252   -9.6772 H   0  0  0  0  0  0  0  0  0  0  0  0
   11.1877    3.3144   -8.8724 H   0  0  0  0  0  0  0  0  0  0  0  0
    9.3595    5.0125   -9.1152 H   0  0  0  0  0  0  0  0  0  0  0  0
   10.4992    6.1301   -9.9113 H   0  0  0  0  0  0  0  0  0  0  0  0
    9.1429    6.5816   -7.2057 H   0  0  0  0  0  0  0  0  0  0  0  0
   10.2545    7.6868   -8.0481 H   0  0  0  0  0  0  0  0  0  0  0  0
   10.6864    6.3027   -5.3260 H   0  0  0  0  0  0  0  0  0  0  0  0
   10.2057    7.9980   -5.5795 H   0  0  0  0  0  0  0  0  0  0  0  0
   12.4566    7.9452   -7.9842 H   0  0  0  0  0  0  0  0  0  0  0  0
   13.8008    8.2627   -6.8694 H   0  0  0  0  0  0  0  0  0  0  0  0
   12.5994   10.1886   -5.8784 H   0  0  0  0  0  0  0  0  0  0  0  0
   11.1385    9.8076   -6.8169 H   0  0  0  0  0  0  0  0  0  0  0  0
   13.6151   11.0020   -7.8887 H   0  0  0  0  0  0  0  0  0  0  0  0
   11.5298   10.4519  -11.7086 H   0  0  0  0  0  0  0  0  0  0  0  0
   12.4133   11.8495  -13.5742 H   0  0  0  0  0  0  0  0  0  0  0  0
   13.9312   15.9467  -12.4547 H   0  0  0  0  0  0  0  0  0  0  0  0
   14.9679   15.9309  -13.9094 H   0  0  0  0  0  0  0  0  0  0  0  0
   15.5660   15.2217  -12.3961 H   0  0  0  0  0  0  0  0  0  0  0  0
   12.0980   14.5766  -13.9886 H   0  0  0  0  0  0  0  0  0  0  0  0
   14.2883   14.0346  -17.3015 H   0  0  0  0  0  0  0  0  0  0  0  0
   15.9707   12.3377  -17.2673 H   0  0  0  0  0  0  0  0  0  0  0  0
   16.9193   12.1855  -15.8586 H   0  0  0  0  0  0  0  0  0  0  0  0
   14.5389   14.2752  -10.7066 H   0  0  0  0  0  0  0  0  0  0  0  0
   13.6770   12.8926   -8.8868 H   0  0  0  0  0  0  0  0  0  0  0  0
  1  2  1  0
  1 40  1  0
  1 41  1  0
  1 42  1  0
  2  3  1  0
  2  4  1  0
  2  5  1  1
  3 43  1  0
  3 44  1  0
  3 45  1  0
  4 46  1  0
  4 47  1  0
  4 48  1  0
  5  6  1  0
  6  7  2  0
  6  8  1  0
  8  9  1  0
  8 49  1  0
  9 10  1  0
  9 50  1  0
  9 51  1  0
 10 11  1  0
 10 52  1  0
 10 53  1  0
 11 12  1  0
 12 13  1  0
 12 54  1  0
 12 55  1  0
 13 14  1  0
 13 56  1  0
 13 57  1  0
 14 15  1  0
 15 16  1  0
 15 58  1  0
 15 59  1  0
 16 17  1  0
 16 60  1  0
 16 61  1  0
 17 18  1  0
 18 19  1  0
 18 62  1  0
 18 63  1  0
 19 20  1  0
 19 64  1  0
 19 65  1  0
 20 21  1  0
 20 66  1  0
 21 22  2  0
 21 23  1  0
 23 24  2  0
 23 39  1  0
 24 25  1  0
 24 67  1  0
 25 26  2  0
 25 68  1  0
 26 27  1  0
 26 38  1  0
 27 28  1  1
 27 29  1  0
 27 35  1  0
 28 69  1  0
 28 70  1  0
 28 71  1  0
 29 30  1  0
 29 72  1  0
 30 31  2  0
 30 32  1  0
 32 33  1  0
 32 73  1  0
 33 34  1  0
 33 35  2  0
 34 74  1  0
 34 75  1  0
 35 36  1  0
 36 37  3  0
 38 39  2  0
 38 76  1  0
 39 77  1  0
M  END

