
     RDKit          3D

 35 37  0  0  0  0  0  0  0  0999 V2000
    0.9845   -1.0839   -0.5590 C   0  0  0  0  0  0  0  0  0  0  0  0
    2.3692   -0.5211   -0.6274 C   0  0  0  0  0  0  0  0  0  0  0  0
    2.7140    0.6166   -0.5213 O   0  0  0  0  0  0  0  0  0  0  0  0
    3.2854   -1.5468   -0.8720 O   0  0  0  0  0  0  0  0  0  0  0  0
    4.6079   -1.3180   -0.6731 C   0  0  0  0  0  0  0  0  0  0  0  0
    5.1605   -1.1086    0.6023 C   0  0  0  0  0  0  0  0  0  0  0  0
    4.3401   -1.1142    1.8751 C   0  0  0  0  0  0  0  0  0  0  0  0
    3.1443   -1.2727    1.9123 O   0  0  0  0  0  0  0  0  0  0  0  0
    5.0796   -0.9353    2.9684 O   0  0  0  0  0  0  0  0  0  0  0  0
    6.4793   -0.9395    0.7957 N   0  0  0  0  0  0  0  0  0  0  0  0
    7.3471   -0.9514   -0.2119 C   0  0  0  0  0  0  0  0  0  0  0  0
    8.7379   -0.7735    0.1237 C   0  0  0  0  0  0  0  0  0  0  0  0
    9.8514   -0.6324    0.4179 N   0  0  0  0  0  0  0  0  0  0  0  0
    6.8839   -1.1511   -1.5336 C   0  0  0  0  0  0  0  0  0  0  0  0
    5.4889   -1.3469   -1.7695 C   0  0  0  0  0  0  0  0  0  0  0  0
    5.3427   -1.5397   -3.1830 C   0  0  0  0  0  0  0  0  0  0  0  0
    3.7670   -1.8450   -4.1620 Br  0  0  0  0  0  0  0  0  0  0  0  0
    6.5992   -1.4541   -3.7327 C   0  0  0  0  0  0  0  0  0  0  0  0
    7.5384   -1.2163   -2.7435 N   0  0  0  0  0  0  0  0  0  0  0  0
    8.9443   -1.0533   -2.9947 C   0  0  0  0  0  0  0  0  0  0  0  0
    9.4962    0.2315   -3.0398 C   0  0  0  0  0  0  0  0  0  0  0  0
   10.8611    0.3833   -3.2915 C   0  0  0  0  0  0  0  0  0  0  0  0
   11.6647   -0.7405   -3.5063 C   0  0  0  0  0  0  0  0  0  0  0  0
   11.1047   -2.0210   -3.4691 C   0  0  0  0  0  0  0  0  0  0  0  0
    9.7416   -2.1825   -3.2109 C   0  0  0  0  0  0  0  0  0  0  0  0
    0.2520   -0.2697   -0.6086 H   0  0  0  0  0  0  0  0  0  0  0  0
    0.8938   -1.6105    0.4037 H   0  0  0  0  0  0  0  0  0  0  0  0
    0.8200   -1.8126   -1.3654 H   0  0  0  0  0  0  0  0  0  0  0  0
    6.0078   -0.8368    2.6624 H   0  0  0  0  0  0  0  0  0  0  0  0
    6.9058   -1.5341   -4.7729 H   0  0  0  0  0  0  0  0  0  0  0  0
    8.8580    1.1016   -2.8721 H   0  0  0  0  0  0  0  0  0  0  0  0
   11.2977    1.3841   -3.3186 H   0  0  0  0  0  0  0  0  0  0  0  0
   12.7327   -0.6179   -3.7008 H   0  0  0  0  0  0  0  0  0  0  0  0
   11.7321   -2.9001   -3.6333 H   0  0  0  0  0  0  0  0  0  0  0  0
    9.2936   -3.1775   -3.1669 H   0  0  0  0  0  0  0  0  0  0  0  0
  1  2  1  0
  1 26  1  0
  1 27  1  0
  1 28  1  0
  2  3  2  0
  2  4  1  0
  4  5  1  0
  5  6  2  0
  5 15  1  0
  6  7  1  0
  6 10  1  0
  7  8  2  0
  7  9  1  0
  9 29  1  0
 10 11  2  0
 11 12  1  0
 11 14  1  0
 12 13  3  0
 14 15  2  0
 14 19  1  0
 15 16  1  0
 16 17  1  0
 16 18  2  0
 18 19  1  0
 18 30  1  0
 19 20  1  0
 20 21  2  0
 20 25  1  0
 21 22  1  0
 21 31  1  0
 22 23  2  0
 22 32  1  0
 23 24  1  0
 23 33  1  0
 24 25  2  0
 24 34  1  0
 25 35  1  0
M  END

