
     RDKit          3D

 47 49  0  0  0  0  0  0  0  0999 V2000
    1.3947    0.1256   -0.0692 C   0  0  0  0  0  0  0  0  0  0  0  0
    2.9093   -0.0831    0.0605 C   0  0  1  0  0  0  0  0  0  0  0  0
    3.3200    0.2505    1.4230 N   0  0  0  0  0  0  0  0  0  0  0  0
    4.7444    0.2000    1.6985 C   0  0  0  0  0  0  0  0  0  0  0  0
    5.0939    0.7652    3.0616 C   0  0  0  0  0  0  0  0  0  0  0  0
    6.2037    0.2785    3.7721 C   0  0  0  0  0  0  0  0  0  0  0  0
    6.5617    0.8210    5.0041 C   0  0  0  0  0  0  0  0  0  0  0  0
    5.8016    1.8539    5.5743 C   0  0  0  0  0  0  0  0  0  0  0  0
    6.2402    2.3950    6.9056 C   0  0  0  0  0  0  0  0  0  0  0  0
    7.3337    2.2029    7.3691 O   0  0  0  0  0  0  0  0  0  0  0  0
    5.3290    3.1247    7.5916 O   0  0  0  0  0  0  0  0  0  0  0  0
    4.6952    2.3474    4.8641 C   0  0  0  0  0  0  0  0  0  0  0  0
    4.3459    1.8103    3.6245 C   0  0  0  0  0  0  0  0  0  0  0  0
    3.3221   -1.4745   -0.4283 C   0  0  0  0  0  0  0  0  0  0  0  0
    3.9122   -1.6552   -1.6869 C   0  0  0  0  0  0  0  0  0  0  0  0
    4.2679   -2.9144   -2.1698 C   0  0  0  0  0  0  0  0  0  0  0  0
    4.0403   -4.0620   -1.3836 C   0  0  0  0  0  0  0  0  0  0  0  0
    4.3963   -5.3565   -1.8252 N   0  0  0  0  0  0  0  0  0  0  0  0
    4.3121   -6.5185   -0.9363 C   0  0  0  0  0  0  0  0  0  0  0  0
    5.0563   -7.6272   -1.6964 C   0  0  0  0  0  0  0  0  0  0  0  0
    4.8691   -7.2379   -3.1625 C   0  0  0  0  0  0  0  0  0  0  0  0
    4.7177   -5.7195   -3.1316 C   0  0  0  0  0  0  0  0  0  0  0  0
    4.8330   -4.9763   -4.0829 O   0  0  0  0  0  0  0  0  0  0  0  0
    3.4486   -3.8922   -0.1158 C   0  0  0  0  0  0  0  0  0  0  0  0
    3.1007   -2.6217    0.3446 C   0  0  0  0  0  0  0  0  0  0  0  0
    1.1232    1.1481    0.2350 H   0  0  0  0  0  0  0  0  0  0  0  0
    0.8446   -0.5834    0.5725 H   0  0  0  0  0  0  0  0  0  0  0  0
    1.0619   -0.0413   -1.1044 H   0  0  0  0  0  0  0  0  0  0  0  0
    3.4069    0.6479   -0.6024 H   0  0  0  0  0  0  0  0  0  0  0  0
    2.8010   -0.3009    2.1064 H   0  0  0  0  0  0  0  0  0  0  0  0
    5.2527    0.8096    0.9267 H   0  0  0  0  0  0  0  0  0  0  0  0
    5.1860   -0.8145    1.6070 H   0  0  0  0  0  0  0  0  0  0  0  0
    6.7958   -0.5387    3.3500 H   0  0  0  0  0  0  0  0  0  0  0  0
    7.4301    0.4526    5.5535 H   0  0  0  0  0  0  0  0  0  0  0  0
    4.4664    3.0816    7.1566 H   0  0  0  0  0  0  0  0  0  0  0  0
    4.1055    3.1839    5.2531 H   0  0  0  0  0  0  0  0  0  0  0  0
    3.4859    2.1949    3.0733 H   0  0  0  0  0  0  0  0  0  0  0  0
    4.1062   -0.7818   -2.3176 H   0  0  0  0  0  0  0  0  0  0  0  0
    4.7155   -3.0233   -3.1540 H   0  0  0  0  0  0  0  0  0  0  0  0
    3.2558   -6.7889   -0.7479 H   0  0  0  0  0  0  0  0  0  0  0  0
    4.7736   -6.2959    0.0377 H   0  0  0  0  0  0  0  0  0  0  0  0
    4.6744   -8.6270   -1.4461 H   0  0  0  0  0  0  0  0  0  0  0  0
    6.1256   -7.6032   -1.4325 H   0  0  0  0  0  0  0  0  0  0  0  0
    3.9404   -7.6559   -3.5903 H   0  0  0  0  0  0  0  0  0  0  0  0
    5.6922   -7.5227   -3.8322 H   0  0  0  0  0  0  0  0  0  0  0  0
    3.2461   -4.7514    0.5234 H   0  0  0  0  0  0  0  0  0  0  0  0
    2.6453   -2.5350    1.3360 H   0  0  0  0  0  0  0  0  0  0  0  0
  1  2  1  0
  1 26  1  0
  1 27  1  0
  1 28  1  0
  2  3  1  0
  2 14  1  0
  2 29  1  6
  3  4  1  0
  3 30  1  0
  4  5  1  0
  4 31  1  0
  4 32  1  0
  5  6  2  0
  5 13  1  0
  6  7  1  0
  6 33  1  0
  7  8  2  0
  7 34  1  0
  8  9  1  0
  8 12  1  0
  9 10  2  0
  9 11  1  0
 11 35  1  0
 12 13  2  0
 12 36  1  0
 13 37  1  0
 14 15  2  0
 14 25  1  0
 15 16  1  0
 15 38  1  0
 16 17  2  0
 16 39  1  0
 17 18  1  0
 17 24  1  0
 18 19  1  0
 18 22  1  0
 19 20  1  0
 19 40  1  0
 19 41  1  0
 20 21  1  0
 20 42  1  0
 20 43  1  0
 21 22  1  0
 21 44  1  0
 21 45  1  0
 22 23  2  0
 24 25  2  0
 24 46  1  0
 25 47  1  0
M  END

