
     RDKit          3D

116131  0  0  0  0  0  0  0  0999 V2000
    1.0256   -6.1260    4.8266 C   0  0  0  0  0  0  0  0  0  0  0  0
   -0.1080   -6.0388    3.9800 C   0  0  0  0  0  0  0  0  0  0  0  0
   -0.1147   -5.1769    2.9033 C   0  0  0  0  0  0  0  0  0  0  0  0
    1.0146   -4.3585    2.6210 C   0  0  0  0  0  0  0  0  0  0  0  0
    1.0610   -3.4457    1.5204 C   0  0  0  0  0  0  0  0  0  0  0  0
   -0.0733   -3.3218    0.6530 N   0  0  0  0  0  0  0  0  0  0  0  0
   -1.2440   -2.6065    0.9241 C   0  0  0  0  0  0  0  0  0  0  0  0
   -1.4576   -1.8233    2.1627 C   0  0  0  0  0  0  0  0  0  0  0  0
   -0.5132   -0.8921    2.5652 C   0  0  0  0  0  0  0  0  0  0  0  0
   -0.6817   -0.1258    3.7382 C   0  0  0  0  0  0  0  0  0  0  0  0
   -1.7983   -0.2744    4.5408 C   0  0  0  0  0  0  0  0  0  0  0  0
   -1.9393    0.5652    5.7723 C   0  0  0  0  0  0  0  0  0  0  0  0
   -2.3665    1.8757    5.6584 C   0  0  0  0  0  0  0  0  0  0  0  0
   -2.5089    2.7030    6.7928 C   0  0  0  0  0  0  0  0  0  0  0  0
   -2.2250    2.2427    8.0689 C   0  0  0  0  0  0  0  0  0  0  0  0
   -2.3878    3.1427    9.2337 C   0  0  0  0  0  0  0  0  0  0  0  0
   -1.4641    3.3734   10.1415 N   0  0  0  0  0  0  0  0  0  0  0  0
   -2.0106    4.2641   11.0251 C   0  0  0  0  0  0  0  0  0  0  0  0
   -1.3737    4.8338   12.1810 C   0  0  0  0  0  0  0  0  0  0  0  0
   -0.0392    4.5182   12.5174 C   0  0  0  0  0  0  0  0  0  0  0  0
    0.5574    5.0876   13.6299 C   0  0  0  0  0  0  0  0  0  0  0  0
   -0.1743    5.9878   14.4276 C   0  0  0  0  0  0  0  0  0  0  0  0
   -1.4861    6.3042   14.1067 C   0  0  0  0  0  0  0  0  0  0  0  0
   -2.1312    5.7404   12.9783 C   0  0  0  0  0  0  0  0  0  0  0  0
   -3.5245    6.0477   12.6217 C   0  0  0  0  0  0  0  0  0  0  0  0
   -4.3106    6.9160   13.4155 C   0  0  0  0  0  0  0  0  0  0  0  0
   -5.6319    7.2041   13.1109 C   0  0  0  0  0  0  0  0  0  0  0  0
   -6.2315    6.6199   11.9835 C   0  0  0  0  0  0  0  0  0  0  0  0
   -5.4973    5.7665   11.1759 C   0  0  0  0  0  0  0  0  0  0  0  0
   -4.1422    5.4663   11.4600 C   0  0  0  0  0  0  0  0  0  0  0  0
   -3.3190    4.5855   10.6681 C   0  0  0  0  0  0  0  0  0  0  0  0
   -3.5571    3.8634    9.4966 N   0  0  0  0  0  0  0  0  0  0  0  0
   -4.7685    3.8165    8.7320 C   0  0  0  0  0  0  0  0  0  0  0  0
   -5.0580    4.8430    7.8533 C   0  0  0  0  0  0  0  0  0  0  0  0
   -6.2506    4.8255    7.0930 C   0  0  0  0  0  0  0  0  0  0  0  0
   -7.1352    3.7753    7.2175 C   0  0  0  0  0  0  0  0  0  0  0  0
   -6.8724    2.7021    8.1132 C   0  0  0  0  0  0  0  0  0  0  0  0
   -7.7757    1.6118    8.2609 C   0  0  0  0  0  0  0  0  0  0  0  0
   -7.5108    0.5875    9.1442 C   0  0  0  0  0  0  0  0  0  0  0  0
   -6.3274    0.6089    9.9243 C   0  0  0  0  0  0  0  0  0  0  0  0
   -5.4273    1.6470    9.8050 C   0  0  0  0  0  0  0  0  0  0  0  0
   -5.6680    2.7163    8.8975 C   0  0  0  0  0  0  0  0  0  0  0  0
   -1.7504    0.8917    8.2331 C   0  0  0  0  0  0  0  0  0  0  0  0
   -1.4170    0.3451    9.5062 C   0  0  0  0  0  0  0  0  0  0  0  0
   -0.9752   -0.9551    9.6339 C   0  0  0  0  0  0  0  0  0  0  0  0
   -0.8355   -1.7793    8.4927 C   0  0  0  0  0  0  0  0  0  0  0  0
   -1.1462   -1.2852    7.2442 C   0  0  0  0  0  0  0  0  0  0  0  0
   -1.6131    0.0502    7.0726 C   0  0  0  0  0  0  0  0  0  0  0  0
   -2.8134   -1.2136    4.1538 C   0  0  0  0  0  0  0  0  0  0  0  0
   -3.9940   -1.3900    4.9321 C   0  0  0  0  0  0  0  0  0  0  0  0
   -4.9668   -2.2932    4.5614 C   0  0  0  0  0  0  0  0  0  0  0  0
   -4.8047   -3.0639    3.3863 C   0  0  0  0  0  0  0  0  0  0  0  0
   -3.6791   -2.9149    2.6034 C   0  0  0  0  0  0  0  0  0  0  0  0
   -2.6501   -1.9936    2.9543 C   0  0  0  0  0  0  0  0  0  0  0  0
   -2.1138   -2.7147   -0.0569 N   0  0  0  0  0  0  0  0  0  0  0  0
   -1.5241   -3.5058   -1.0051 C   0  0  0  0  0  0  0  0  0  0  0  0
   -2.0801   -3.8928   -2.2729 C   0  0  0  0  0  0  0  0  0  0  0  0
   -3.3558   -3.4490   -2.6842 C   0  0  0  0  0  0  0  0  0  0  0  0
   -3.8672   -3.8266   -3.9145 C   0  0  0  0  0  0  0  0  0  0  0  0
   -3.1064   -4.6578   -4.7586 C   0  0  0  0  0  0  0  0  0  0  0  0
   -1.8523   -5.0999   -4.3643 C   0  0  0  0  0  0  0  0  0  0  0  0
   -1.2964   -4.7366   -3.1128 C   0  0  0  0  0  0  0  0  0  0  0  0
    0.0249   -5.2004   -2.6636 C   0  0  0  0  0  0  0  0  0  0  0  0
    0.8094   -6.0654   -3.4625 C   0  0  0  0  0  0  0  0  0  0  0  0
    2.0477   -6.5332   -3.0507 C   0  0  0  0  0  0  0  0  0  0  0  0
    2.5565   -6.1520   -1.7987 C   0  0  0  0  0  0  0  0  0  0  0  0
    1.8239   -5.3023   -0.9859 C   0  0  0  0  0  0  0  0  0  0  0  0
    0.5617   -4.8014   -1.3901 C   0  0  0  0  0  0  0  0  0  0  0  0
   -0.2567   -3.9173   -0.5968 C   0  0  0  0  0  0  0  0  0  0  0  0
    2.1908   -2.6888    1.2741 C   0  0  0  0  0  0  0  0  0  0  0  0
    3.3265   -2.7969    2.1101 C   0  0  0  0  0  0  0  0  0  0  0  0
    3.3132   -3.6568    3.1877 C   0  0  0  0  0  0  0  0  0  0  0  0
    2.1694   -4.4534    3.4715 C   0  0  0  0  0  0  0  0  0  0  0  0
    2.1377   -5.3516    4.5755 C   0  0  0  0  0  0  0  0  0  0  0  0
    1.0151   -6.8119    5.6773 H   0  0  0  0  0  0  0  0  0  0  0  0
   -0.9838   -6.6599    4.1829 H   0  0  0  0  0  0  0  0  0  0  0  0
   -0.9915   -5.1179    2.2572 H   0  0  0  0  0  0  0  0  0  0  0  0
    0.3779   -0.7292    1.9591 H   0  0  0  0  0  0  0  0  0  0  0  0
    0.0884    0.5967    4.0183 H   0  0  0  0  0  0  0  0  0  0  0  0
   -2.6030    2.2792    4.6711 H   0  0  0  0  0  0  0  0  0  0  0  0
   -2.8371    3.7326    6.6501 H   0  0  0  0  0  0  0  0  0  0  0  0
    0.5018    3.8212   11.8747 H   0  0  0  0  0  0  0  0  0  0  0  0
    1.5912    4.8425   13.8867 H   0  0  0  0  0  0  0  0  0  0  0  0
    0.2911    6.4429   15.3056 H   0  0  0  0  0  0  0  0  0  0  0  0
   -2.0196    7.0063   14.7478 H   0  0  0  0  0  0  0  0  0  0  0  0
   -3.8734    7.3746   14.3023 H   0  0  0  0  0  0  0  0  0  0  0  0
   -6.2036    7.8791   13.7525 H   0  0  0  0  0  0  0  0  0  0  0  0
   -7.2758    6.8321   11.7412 H   0  0  0  0  0  0  0  0  0  0  0  0
   -5.9781    5.3162   10.3105 H   0  0  0  0  0  0  0  0  0  0  0  0
   -4.3565    5.6746    7.7581 H   0  0  0  0  0  0  0  0  0  0  0  0
   -6.4612    5.6473    6.4049 H   0  0  0  0  0  0  0  0  0  0  0  0
   -8.0553    3.7543    6.6276 H   0  0  0  0  0  0  0  0  0  0  0  0
   -8.6884    1.6029    7.6591 H   0  0  0  0  0  0  0  0  0  0  0  0
   -8.2134   -0.2430    9.2483 H   0  0  0  0  0  0  0  0  0  0  0  0
   -6.1271   -0.2046   10.6257 H   0  0  0  0  0  0  0  0  0  0  0  0
   -4.5199    1.6547   10.4102 H   0  0  0  0  0  0  0  0  0  0  0  0
   -1.4902    0.9841   10.3849 H   0  0  0  0  0  0  0  0  0  0  0  0
   -0.7244   -1.3477   10.6228 H   0  0  0  0  0  0  0  0  0  0  0  0
   -0.4783   -2.8066    8.6005 H   0  0  0  0  0  0  0  0  0  0  0  0
   -1.0340   -1.9193    6.3634 H   0  0  0  0  0  0  0  0  0  0  0  0
   -4.1210   -0.7921    5.8359 H   0  0  0  0  0  0  0  0  0  0  0  0
   -5.8645   -2.4114    5.1734 H   0  0  0  0  0  0  0  0  0  0  0  0
   -5.5792   -3.7768    3.0918 H   0  0  0  0  0  0  0  0  0  0  0  0
   -3.5767   -3.4872    1.6827 H   0  0  0  0  0  0  0  0  0  0  0  0
   -3.9172   -2.8012   -2.0083 H   0  0  0  0  0  0  0  0  0  0  0  0
   -4.8544   -3.4800   -4.2307 H   0  0  0  0  0  0  0  0  0  0  0  0
   -3.5029   -4.9580   -5.7319 H   0  0  0  0  0  0  0  0  0  0  0  0
   -1.2931   -5.7414   -5.0458 H   0  0  0  0  0  0  0  0  0  0  0  0
    0.4338   -6.3852   -4.4344 H   0  0  0  0  0  0  0  0  0  0  0  0
    2.6200   -7.2015   -3.6988 H   0  0  0  0  0  0  0  0  0  0  0  0
    3.5265   -6.5247   -1.4602 H   0  0  0  0  0  0  0  0  0  0  0  0
    2.2284   -5.0218   -0.0161 H   0  0  0  0  0  0  0  0  0  0  0  0
    2.1989   -2.0093    0.4192 H   0  0  0  0  0  0  0  0  0  0  0  0
    4.2099   -2.1906    1.8974 H   0  0  0  0  0  0  0  0  0  0  0  0
    4.1861   -3.7392    3.8405 H   0  0  0  0  0  0  0  0  0  0  0  0
    3.0166   -5.4172    5.2224 H   0  0  0  0  0  0  0  0  0  0  0  0
  1  2  2  0
  1 74  1  0
  1 75  1  0
  2  3  1  0
  2 76  1  0
  3  4  2  0
  3 77  1  0
  4  5  1  0
  4 73  1  0
  5  6  1  0
  5 70  2  0
  6  7  1  0
  6 69  1  0
  7  8  1  0
  7 55  2  0
  8  9  2  0
  8 54  1  0
  9 10  1  0
  9 78  1  0
 10 11  2  0
 10 79  1  0
 11 12  1  0
 11 49  1  0
 12 13  2  0
 12 48  1  0
 13 14  1  0
 13 80  1  0
 14 15  2  0
 14 81  1  0
 15 16  1  0
 15 43  1  0
 16 17  2  0
 16 32  1  0
 17 18  1  0
 18 19  2  0
 18 31  1  0
 19 20  1  0
 19 24  1  0
 20 21  2  0
 20 82  1  0
 21 22  1  0
 21 83  1  0
 22 23  2  0
 22 84  1  0
 23 24  1  0
 23 85  1  0
 24 25  2  0
 25 26  1  0
 25 30  1  0
 26 27  2  0
 26 86  1  0
 27 28  1  0
 27 87  1  0
 28 29  2  0
 28 88  1  0
 29 30  1  0
 29 89  1  0
 30 31  2  0
 31 32  1  0
 32 33  1  0
 33 34  2  0
 33 42  1  0
 34 35  1  0
 34 90  1  0
 35 36  2  0
 35 91  1  0
 36 37  1  0
 36 92  1  0
 37 38  1  0
 37 42  2  0
 38 39  2  0
 38 93  1  0
 39 40  1  0
 39 94  1  0
 40 41  2  0
 40 95  1  0
 41 42  1  0
 41 96  1  0
 43 44  1  0
 43 48  2  0
 44 45  2  0
 44 97  1  0
 45 46  1  0
 45 98  1  0
 46 47  2  0
 46 99  1  0
 47 48  1  0
 47100  1  0
 49 50  1  0
 49 54  2  0
 50 51  2  0
 50101  1  0
 51 52  1  0
 51102  1  0
 52 53  2  0
 52103  1  0
 53 54  1  0
 53104  1  0
 55 56  1  0
 56 57  2  0
 56 69  1  0
 57 58  1  0
 57 62  1  0
 58 59  2  0
 58105  1  0
 59 60  1  0
 59106  1  0
 60 61  2  0
 60107  1  0
 61 62  1  0
 61108  1  0
 62 63  2  0
 63 64  1  0
 63 68  1  0
 64 65  2  0
 64109  1  0
 65 66  1  0
 65110  1  0
 66 67  2  0
 66111  1  0
 67 68  1  0
 67112  1  0
 68 69  2  0
 70 71  1  0
 70113  1  0
 71 72  2  0
 71114  1  0
 72 73  1  0
 72115  1  0
 73 74  2  0
 74116  1  0
M  END

