
     RDKit          3D

 56 58  0  0  0  0  0  0  0  0999 V2000
    3.3009    2.8856   -3.7553 C   0  0  0  0  0  0  0  0  0  0  0  0
    4.3990    2.5829   -2.7901 C   0  0  0  0  0  0  0  0  0  0  0  0
    5.4951    1.9046   -3.0612 N   0  0  0  0  0  0  0  0  0  0  0  0
    6.2027    1.8757   -1.8946 C   0  0  0  0  0  0  0  0  0  0  0  0
    7.7915    1.1029   -1.7458 S   0  0  1  0  0  0  0  0  0  0  0  0
    8.6611    1.6846   -2.7746 O   0  0  0  0  0  0  0  0  0  0  0  0
    8.1355    1.1632   -0.3222 O   0  0  0  0  0  0  0  0  0  0  0  0
    7.5479   -0.4929   -2.1536 N   0  0  0  0  0  0  0  0  0  0  0  0
    7.4330   -1.5295   -1.1241 C   0  0  0  0  0  0  0  0  0  0  0  0
    8.7236   -2.3201   -0.8824 C   0  0  0  0  0  0  0  0  0  0  0  0
    9.4204   -2.8256   -2.1565 C   0  0  0  0  0  0  0  0  0  0  0  0
    9.9639   -1.7362   -2.9686 N   0  0  0  0  0  0  0  0  0  0  0  0
   11.2081   -1.2561   -2.6097 C   0  0  0  0  0  0  0  0  0  0  0  0
   11.8349   -1.7717   -1.6943 O   0  0  0  0  0  0  0  0  0  0  0  0
   11.7684   -0.0601   -3.3776 C   0  0  0  0  0  0  0  0  0  0  0  0
   13.1758    0.3192   -2.9185 C   0  0  0  0  0  0  0  0  0  0  0  0
   13.7285    1.5445   -3.6677 C   0  0  0  0  0  0  0  0  0  0  0  0
   15.1182    1.9428   -3.2210 C   0  0  0  0  0  0  0  0  0  0  0  0
   16.2587    1.4302   -3.8598 C   0  0  0  0  0  0  0  0  0  0  0  0
   17.5433    1.7680   -3.4242 C   0  0  0  0  0  0  0  0  0  0  0  0
   17.7117    2.6288   -2.3358 C   0  0  0  0  0  0  0  0  0  0  0  0
   16.5857    3.1479   -1.6893 C   0  0  0  0  0  0  0  0  0  0  0  0
   15.3039    2.8068   -2.1292 C   0  0  0  0  0  0  0  0  0  0  0  0
    9.1268   -1.1618   -4.0093 C   0  0  0  0  0  0  0  0  0  0  0  0
    7.6753   -0.8996   -3.5480 C   0  0  0  0  0  0  0  0  0  0  0  0
    5.5404    2.5422   -0.8895 C   0  0  0  0  0  0  0  0  0  0  0  0
    4.3809    2.9967   -1.4739 N   0  0  0  0  0  0  0  0  0  0  0  0
    3.3377    3.7744   -0.8292 C   0  0  0  0  0  0  0  0  0  0  0  0
    3.5603    2.4435   -4.7253 H   0  0  0  0  0  0  0  0  0  0  0  0
    3.1619    3.9711   -3.8947 H   0  0  0  0  0  0  0  0  0  0  0  0
    2.3342    2.4666   -3.4280 H   0  0  0  0  0  0  0  0  0  0  0  0
    6.6209   -2.2105   -1.4401 H   0  0  0  0  0  0  0  0  0  0  0  0
    7.1099   -1.0513   -0.1895 H   0  0  0  0  0  0  0  0  0  0  0  0
    8.4862   -3.1812   -0.2325 H   0  0  0  0  0  0  0  0  0  0  0  0
    9.4430   -1.6935   -0.3331 H   0  0  0  0  0  0  0  0  0  0  0  0
    8.7320   -3.4208   -2.7812 H   0  0  0  0  0  0  0  0  0  0  0  0
   10.2570   -3.4751   -1.8674 H   0  0  0  0  0  0  0  0  0  0  0  0
   11.0774    0.7902   -3.2370 H   0  0  0  0  0  0  0  0  0  0  0  0
   11.7669   -0.2778   -4.4604 H   0  0  0  0  0  0  0  0  0  0  0  0
   13.8545   -0.5389   -3.0514 H   0  0  0  0  0  0  0  0  0  0  0  0
   13.1643    0.5162   -1.8351 H   0  0  0  0  0  0  0  0  0  0  0  0
   13.0390    2.3947   -3.5254 H   0  0  0  0  0  0  0  0  0  0  0  0
   13.7394    1.3345   -4.7517 H   0  0  0  0  0  0  0  0  0  0  0  0
   16.1372    0.7580   -4.7147 H   0  0  0  0  0  0  0  0  0  0  0  0
   18.4168    1.3589   -3.9393 H   0  0  0  0  0  0  0  0  0  0  0  0
   18.7152    2.8962   -1.9946 H   0  0  0  0  0  0  0  0  0  0  0  0
   16.7058    3.8246   -0.8389 H   0  0  0  0  0  0  0  0  0  0  0  0
   14.4288    3.2202   -1.6186 H   0  0  0  0  0  0  0  0  0  0  0  0
    9.0892   -1.8215   -4.8996 H   0  0  0  0  0  0  0  0  0  0  0  0
    9.5608   -0.2094   -4.3251 H   0  0  0  0  0  0  0  0  0  0  0  0
    7.0643   -1.8098   -3.6601 H   0  0  0  0  0  0  0  0  0  0  0  0
    7.2207   -0.1385   -4.1994 H   0  0  0  0  0  0  0  0  0  0  0  0
    5.8005    2.7212    0.1497 H   0  0  0  0  0  0  0  0  0  0  0  0
    3.6089    3.9414    0.2210 H   0  0  0  0  0  0  0  0  0  0  0  0
    2.3733    3.2437   -0.8607 H   0  0  0  0  0  0  0  0  0  0  0  0
    3.2165    4.7536   -1.3181 H   0  0  0  0  0  0  0  0  0  0  0  0
  1  2  1  0
  1 29  1  0
  1 30  1  0
  1 31  1  0
  2  3  2  0
  2 27  1  0
  3  4  1  0
  5  4  1  1
  4 26  2  0
  5  6  2  0
  5  7  2  0
  5  8  1  0
  8  9  1  0
  8 25  1  0
  9 10  1  0
  9 32  1  0
  9 33  1  0
 10 11  1  0
 10 34  1  0
 10 35  1  0
 11 12  1  0
 11 36  1  0
 11 37  1  0
 12 13  1  0
 12 24  1  0
 13 14  2  0
 13 15  1  0
 15 16  1  0
 15 38  1  0
 15 39  1  0
 16 17  1  0
 16 40  1  0
 16 41  1  0
 17 18  1  0
 17 42  1  0
 17 43  1  0
 18 19  2  0
 18 23  1  0
 19 20  1  0
 19 44  1  0
 20 21  2  0
 20 45  1  0
 21 22  1  0
 21 46  1  0
 22 23  2  0
 22 47  1  0
 23 48  1  0
 24 25  1  0
 24 49  1  0
 24 50  1  0
 25 51  1  0
 25 52  1  0
 26 27  1  0
 26 53  1  0
 27 28  1  0
 28 54  1  0
 28 55  1  0
 28 56  1  0
M  END

