
     RDKit          3D

 52 53  0  0  0  0  0  0  0  0999 V2000
    6.9414   -1.5779    2.7014 C   0  0  0  0  0  0  0  0  0  0  0  0
    7.5976   -1.7959    4.0664 C   0  0  0  0  0  0  0  0  0  0  0  0
    8.2932   -0.6218    4.5635 N   0  0  0  0  0  0  0  0  0  0  0  0
    9.6464   -0.5101    4.5379 C   0  0  0  0  0  0  0  0  0  0  0  0
   10.4054   -1.3911    4.1619 O   0  0  0  0  0  0  0  0  0  0  0  0
   10.2206    0.8191    5.0936 C   0  0  2  0  0  0  0  0  0  0  0  0
   11.2882    0.7477    4.8478 H   0  0  0  0  0  0  0  0  0  0  0  0
   10.0716    0.9062    6.6191 C   0  0  0  0  0  0  0  0  0  0  0  0
    9.7401    2.0237    4.4036 N   0  0  0  0  0  0  0  0  0  0  0  0
    8.5120    2.5759    4.5100 C   0  0  0  0  0  0  0  0  0  0  0  0
    7.5623    2.0718    5.1087 O   0  0  0  0  0  0  0  0  0  0  0  0
    8.3263    3.9129    3.7767 C   0  0  0  0  0  0  0  0  0  0  0  0
    9.1477    4.9729    4.2854 O   0  0  0  0  0  0  0  0  0  0  0  0
   10.3703    5.1381    3.7507 C   0  0  0  0  0  0  0  0  0  0  0  0
   10.9118    4.2831    3.0749 O   0  0  0  0  0  0  0  0  0  0  0  0
   11.0021    6.4213    4.1268 C   0  0  0  0  0  0  0  0  0  0  0  0
   10.3187    7.5948    4.3994 C   0  0  0  0  0  0  0  0  0  0  0  0
    8.9610    7.8986    4.2928 N   0  0  0  0  0  0  0  0  0  0  0  0
    8.1427    7.5595    3.2189 C   0  0  0  0  0  0  0  0  0  0  0  0
    8.5332    6.8835    2.2887 O   0  0  0  0  0  0  0  0  0  0  0  0
    6.7290    8.0604    3.2864 C   0  0  1  0  0  0  0  0  0  0  0  0
    5.9343    8.0473    4.5811 C   0  0  0  0  0  0  0  0  0  0  0  0
    6.3278    9.3544    3.9676 C   0  0  0  0  0  0  0  0  0  0  0  0
   11.4229    8.8727    4.8210 S   0  0  0  0  0  0  0  0  0  0  0  0
   12.8090    7.8218    4.6706 C   0  0  0  0  0  0  0  0  0  0  0  0
   14.1793    8.3510    4.9891 C   0  0  0  0  0  0  0  0  0  0  0  0
   12.4383    6.5615    4.2651 C   0  0  0  0  0  0  0  0  0  0  0  0
   13.4215    5.4472    4.0309 C   0  0  0  0  0  0  0  0  0  0  0  0
    6.4075   -2.4863    2.3774 H   0  0  0  0  0  0  0  0  0  0  0  0
    7.6976   -1.3350    1.9384 H   0  0  0  0  0  0  0  0  0  0  0  0
    6.2121   -0.7516    2.7346 H   0  0  0  0  0  0  0  0  0  0  0  0
    8.3401   -2.6045    4.0072 H   0  0  0  0  0  0  0  0  0  0  0  0
    6.8352   -2.0973    4.8062 H   0  0  0  0  0  0  0  0  0  0  0  0
    7.7576    0.1975    4.8622 H   0  0  0  0  0  0  0  0  0  0  0  0
   10.6152    1.7829    7.0054 H   0  0  0  0  0  0  0  0  0  0  0  0
   10.4968    0.0031    7.0826 H   0  0  0  0  0  0  0  0  0  0  0  0
    9.0178    0.9932    6.9159 H   0  0  0  0  0  0  0  0  0  0  0  0
   10.4010    2.5283    3.8113 H   0  0  0  0  0  0  0  0  0  0  0  0
    7.2907    4.2259    3.9478 H   0  0  0  0  0  0  0  0  0  0  0  0
    8.5106    3.7915    2.6982 H   0  0  0  0  0  0  0  0  0  0  0  0
    8.5947    8.5477    4.9793 H   0  0  0  0  0  0  0  0  0  0  0  0
    6.1956    7.7924    2.3718 H   0  0  0  0  0  0  0  0  0  0  0  0
    6.4473    7.7119    5.4874 H   0  0  0  0  0  0  0  0  0  0  0  0
    4.8892    7.7319    4.5217 H   0  0  0  0  0  0  0  0  0  0  0  0
    7.1053    9.9577    4.4474 H   0  0  0  0  0  0  0  0  0  0  0  0
    5.5596    9.9548    3.4731 H   0  0  0  0  0  0  0  0  0  0  0  0
   14.1487    9.4221    5.2369 H   0  0  0  0  0  0  0  0  0  0  0  0
   14.8636    8.2329    4.1332 H   0  0  0  0  0  0  0  0  0  0  0  0
   14.6293    7.8269    5.8490 H   0  0  0  0  0  0  0  0  0  0  0  0
   14.4460    5.7636    4.2706 H   0  0  0  0  0  0  0  0  0  0  0  0
   13.3919    5.1086    2.9847 H   0  0  0  0  0  0  0  0  0  0  0  0
   13.1859    4.5644    4.6465 H   0  0  0  0  0  0  0  0  0  0  0  0
  1  2  1  0
  1 29  1  0
  1 30  1  0
  1 31  1  0
  2  3  1  0
  2 32  1  0
  2 33  1  0
  3  4  1  0
  3 34  1  0
  4  5  2  0
  4  6  1  0
  6  7  1  1
  6  8  1  0
  6  9  1  0
  8 35  1  0
  8 36  1  0
  8 37  1  0
  9 10  1  0
  9 38  1  0
 10 11  2  0
 10 12  1  0
 12 13  1  0
 12 39  1  0
 12 40  1  0
 13 14  1  0
 14 15  2  0
 14 16  1  0
 16 17  2  0
 16 27  1  0
 17 18  1  0
 17 24  1  0
 18 19  1  0
 18 41  1  0
 19 20  2  0
 19 21  1  0
 21 22  1  0
 21 23  1  0
 21 42  1  6
 22 23  1  0
 22 43  1  0
 22 44  1  0
 23 45  1  0
 23 46  1  0
 24 25  1  0
 25 26  1  0
 25 27  2  0
 26 47  1  0
 26 48  1  0
 26 49  1  0
 27 28  1  0
 28 50  1  0
 28 51  1  0
 28 52  1  0
M  END

