
     RDKit          3D

 28 28  0  0  0  0  0  0  0  0999 V2000
    1.1268    0.3881   -0.0290 C   0  0  0  0  0  0  0  0  0  0  0  0
    2.3257    0.2125    0.0046 C   0  0  0  0  0  0  0  0  0  0  0  0
    3.7839    0.0308    0.0227 C   0  0  1  0  0  0  0  0  0  0  0  0
    4.3595    0.1086   -1.4023 C   0  0  0  0  0  0  0  0  0  0  0  0
    4.4326    1.0596    0.9999 C   0  0  1  0  0  0  0  0  0  0  0  0
    3.9302    0.8224    2.4392 C   0  0  0  0  0  0  0  0  0  0  0  0
    3.6564    2.0548    3.2708 C   0  0  0  0  0  0  0  0  0  0  0  0
    3.7915   -0.2993    2.8733 O   0  0  0  0  0  0  0  0  0  0  0  0
    5.9573    1.0195    1.0037 C   0  0  0  0  0  0  0  0  0  0  0  0
    6.6994    2.1084    0.5201 C   0  0  0  0  0  0  0  0  0  0  0  0
    8.0972    2.0763    0.5076 C   0  0  0  0  0  0  0  0  0  0  0  0
    8.7761    0.9508    0.9817 C   0  0  0  0  0  0  0  0  0  0  0  0
    8.0477   -0.1381    1.4720 C   0  0  0  0  0  0  0  0  0  0  0  0
    6.6513   -0.1039    1.4866 C   0  0  0  0  0  0  0  0  0  0  0  0
    0.0626    0.5269   -0.0540 H   0  0  0  0  0  0  0  0  0  0  0  0
    3.9848   -0.9714    0.4386 H   0  0  0  0  0  0  0  0  0  0  0  0
    4.2022    1.1083   -1.8379 H   0  0  0  0  0  0  0  0  0  0  0  0
    3.8618   -0.6244   -2.0545 H   0  0  0  0  0  0  0  0  0  0  0  0
    5.4383   -0.1029   -1.4016 H   0  0  0  0  0  0  0  0  0  0  0  0
    4.1238    2.0682    0.6830 H   0  0  0  0  0  0  0  0  0  0  0  0
    2.7762    2.5775    2.8587 H   0  0  0  0  0  0  0  0  0  0  0  0
    4.5044    2.7568    3.2170 H   0  0  0  0  0  0  0  0  0  0  0  0
    3.4600    1.7728    4.3135 H   0  0  0  0  0  0  0  0  0  0  0  0
    6.1756    2.9915    0.1428 H   0  0  0  0  0  0  0  0  0  0  0  0
    8.6562    2.9342    0.1248 H   0  0  0  0  0  0  0  0  0  0  0  0
    9.8687    0.9229    0.9727 H   0  0  0  0  0  0  0  0  0  0  0  0
    8.5705   -1.0198    1.8515 H   0  0  0  0  0  0  0  0  0  0  0  0
    6.0897   -0.9494    1.8905 H   0  0  0  0  0  0  0  0  0  0  0  0
  1  2  3  0
  1 15  1  0
  2  3  1  0
  3  4  1  0
  3  5  1  0
  3 16  1  1
  4 17  1  0
  4 18  1  0
  4 19  1  0
  5  6  1  0
  5  9  1  0
  5 20  1  6
  6  7  1  0
  6  8  2  0
  7 21  1  0
  7 22  1  0
  7 23  1  0
  9 10  2  0
  9 14  1  0
 10 11  1  0
 10 24  1  0
 11 12  2  0
 11 25  1  0
 12 13  1  0
 12 26  1  0
 13 14  2  0
 13 27  1  0
 14 28  1  0
M  END

