
     RDKit          3D

 52 53  0  0  0  0  0  0  0  0999 V2000
   11.5299    5.8948    0.8857 C   0  0  0  0  0  0  0  0  0  0  0  0
   10.5602    4.7134    0.8474 C   0  0  0  0  0  0  0  0  0  0  0  0
    9.1236    5.1473    0.6017 C   0  0  0  0  0  0  0  0  0  0  0  0
    8.2983    3.9896    0.5887 O   0  0  0  0  0  0  0  0  0  0  0  0
    6.9604    4.1092    0.3689 C   0  0  0  0  0  0  0  0  0  0  0  0
    6.2841    5.3118    0.1730 C   0  0  0  0  0  0  0  0  0  0  0  0
    4.9005    5.3172   -0.0538 C   0  0  0  0  0  0  0  0  0  0  0  0
    4.2027    4.1137   -0.0842 C   0  0  0  0  0  0  0  0  0  0  0  0
    2.7271    4.0912   -0.3864 C   0  0  1  0  0  0  0  0  0  0  0  0
    2.1404    5.2736   -0.1304 F   0  0  0  0  0  0  0  0  0  0  0  0
    2.4881    3.8088   -1.6840 F   0  0  0  0  0  0  0  0  0  0  0  0
    2.0827    3.1547    0.3347 F   0  0  0  0  0  0  0  0  0  0  0  0
    4.8743    2.8960    0.1163 C   0  0  0  0  0  0  0  0  0  0  0  0
    6.2531    2.8723    0.3421 C   0  0  0  0  0  0  0  0  0  0  0  0
    6.9784    1.7054    0.5817 N   0  0  0  0  0  0  0  0  0  0  0  0
    6.5015    0.3927    0.1791 C   0  0  1  0  0  0  0  0  0  0  0  0
    7.6775   -0.5244   -0.1753 C   0  0  0  0  0  0  0  0  0  0  0  0
    5.6265   -0.3067    1.2479 C   0  0  0  0  0  0  0  0  0  0  0  0
    4.9718   -1.2905    0.9561 O   0  0  0  0  0  0  0  0  0  0  0  0
    5.7152    0.2568    2.4934 N   0  0  0  0  0  0  0  0  0  0  0  0
    5.1002   -0.1317    3.6899 C   0  0  0  0  0  0  0  0  0  0  0  0
    4.2469   -1.2480    3.7851 C   0  0  0  0  0  0  0  0  0  0  0  0
    3.6736   -1.5757    5.0133 C   0  0  0  0  0  0  0  0  0  0  0  0
    3.9498   -0.8044    6.1444 C   0  0  0  0  0  0  0  0  0  0  0  0
    3.2164   -1.2377    7.7169 S   0  0  1  0  0  0  0  0  0  0  0  0
    4.3871   -2.2201    8.4495 N   0  0  0  0  0  0  0  0  0  0  0  0
    3.1454   -0.0209    8.5309 O   0  0  0  0  0  0  0  0  0  0  0  0
    2.0437   -2.0728    7.4447 O   0  0  0  0  0  0  0  0  0  0  0  0
    4.7830    0.3154    6.0613 C   0  0  0  0  0  0  0  0  0  0  0  0
    5.3547    0.6460    4.8379 C   0  0  0  0  0  0  0  0  0  0  0  0
   12.5605    5.5525    1.0641 H   0  0  0  0  0  0  0  0  0  0  0  0
   11.2731    6.6044    1.6896 H   0  0  0  0  0  0  0  0  0  0  0  0
   11.5266    6.4532   -0.0651 H   0  0  0  0  0  0  0  0  0  0  0  0
   10.5989    4.1546    1.7979 H   0  0  0  0  0  0  0  0  0  0  0  0
   10.8524    4.0040    0.0545 H   0  0  0  0  0  0  0  0  0  0  0  0
    9.0358    5.6807   -0.3637 H   0  0  0  0  0  0  0  0  0  0  0  0
    8.7844    5.8391    1.3956 H   0  0  0  0  0  0  0  0  0  0  0  0
    6.8246    6.2578    0.1943 H   0  0  0  0  0  0  0  0  0  0  0  0
    4.3761    6.2618   -0.2010 H   0  0  0  0  0  0  0  0  0  0  0  0
    4.3026    1.9678    0.1109 H   0  0  0  0  0  0  0  0  0  0  0  0
    7.9806    1.8506    0.5132 H   0  0  0  0  0  0  0  0  0  0  0  0
    5.8472    0.4712   -0.7081 H   0  0  0  0  0  0  0  0  0  0  0  0
    8.3665   -0.6264    0.6794 H   0  0  0  0  0  0  0  0  0  0  0  0
    8.2369   -0.1230   -1.0345 H   0  0  0  0  0  0  0  0  0  0  0  0
    7.3016   -1.5229   -0.4355 H   0  0  0  0  0  0  0  0  0  0  0  0
    6.3101    1.0831    2.5194 H   0  0  0  0  0  0  0  0  0  0  0  0
    4.0398   -1.8370    2.8945 H   0  0  0  0  0  0  0  0  0  0  0  0
    2.9955   -2.4272    5.0942 H   0  0  0  0  0  0  0  0  0  0  0  0
    4.6069   -1.8420    9.3713 H   0  0  0  0  0  0  0  0  0  0  0  0
    4.0480   -3.1805    8.5093 H   0  0  0  0  0  0  0  0  0  0  0  0
    4.9643    0.9261    6.9473 H   0  0  0  0  0  0  0  0  0  0  0  0
    6.0019    1.5244    4.7623 H   0  0  0  0  0  0  0  0  0  0  0  0
  1  2  1  0
  1 31  1  0
  1 32  1  0
  1 33  1  0
  2  3  1  0
  2 34  1  0
  2 35  1  0
  3  4  1  0
  3 36  1  0
  3 37  1  0
  4  5  1  0
  5  6  2  0
  5 14  1  0
  6  7  1  0
  6 38  1  0
  7  8  2  0
  7 39  1  0
  8  9  1  0
  8 13  1  0
  9 10  1  1
  9 11  1  0
  9 12  1  0
 13 14  2  0
 13 40  1  0
 14 15  1  0
 15 16  1  0
 15 41  1  0
 16 17  1  0
 16 18  1  0
 16 42  1  6
 17 43  1  0
 17 44  1  0
 17 45  1  0
 18 19  2  0
 18 20  1  0
 20 21  1  0
 20 46  1  0
 21 22  2  0
 21 30  1  0
 22 23  1  0
 22 47  1  0
 23 24  2  0
 23 48  1  0
 24 25  1  0
 24 29  1  0
 25 26  1  1
 25 27  2  0
 25 28  2  0
 26 49  1  0
 26 50  1  0
 29 30  2  0
 29 51  1  0
 30 52  1  0
M  END

