
     RDKit          3D

 58 60  0  0  0  0  0  0  0  0999 V2000
    0.9182   -0.5061    0.2958 C   0  0  0  0  0  0  0  0  0  0  0  0
    2.0432   -1.1253   -0.2815 O   0  0  0  0  0  0  0  0  0  0  0  0
    2.9214   -0.3445   -1.0885 C   0  0  1  0  0  0  0  0  0  0  0  0
    3.2226    1.0153   -0.4675 C   0  0  0  0  0  0  0  0  0  0  0  0
    4.1359   -1.2610   -1.3924 C   0  0  0  0  0  0  0  0  0  0  0  0
    3.4353   -1.7053   -2.6899 C   0  0  2  0  0  0  0  0  0  0  0  0
    4.1868   -2.0625   -3.8879 N   0  0  0  0  0  0  0  0  0  0  0  0
    5.4429   -1.4233   -4.2340 C   0  0  0  0  0  0  0  0  0  0  0  0
    3.6377   -3.0416   -4.7015 C   0  0  0  0  0  0  0  0  0  0  0  0
    2.6179   -3.6583   -4.4016 O   0  0  0  0  0  0  0  0  0  0  0  0
    4.3218   -3.3032   -5.8739 N   0  0  0  0  0  0  0  0  0  0  0  0
    3.7790   -4.2402   -6.8501 C   0  0  0  0  0  0  0  0  0  0  0  0
    2.8217   -3.6168   -7.8528 C   0  0  0  0  0  0  0  0  0  0  0  0
    3.1590   -3.4940   -9.2065 C   0  0  0  0  0  0  0  0  0  0  0  0
    2.2755   -2.8896  -10.1097 C   0  0  0  0  0  0  0  0  0  0  0  0
    1.0480   -2.4010   -9.6676 C   0  0  0  0  0  0  0  0  0  0  0  0
    0.6849   -2.5268   -8.3162 C   0  0  0  0  0  0  0  0  0  0  0  0
   -0.6576   -1.9697   -7.9063 C   0  0  0  0  0  0  0  0  0  0  0  0
   -1.3023   -1.2438   -8.6470 O   0  0  0  0  0  0  0  0  0  0  0  0
   -1.1077   -2.3217   -6.6586 N   0  0  0  0  0  0  0  0  0  0  0  0
   -2.4035   -1.9220   -6.1952 C   0  0  1  0  0  0  0  0  0  0  0  0
   -2.6156   -1.8040   -4.7105 C   0  0  0  0  0  0  0  0  0  0  0  0
   -2.5820   -0.5641   -5.5691 C   0  0  0  0  0  0  0  0  0  0  0  0
    1.5762   -3.1309   -7.4206 C   0  0  0  0  0  0  0  0  0  0  0  0
    2.5284   -0.4247   -2.6351 C   0  0  1  0  0  0  0  0  0  0  0  0
    1.0623   -0.6668   -2.9891 C   0  0  0  0  0  0  0  0  0  0  0  0
    3.0750    0.7444   -3.4600 C   0  0  0  0  0  0  0  0  0  0  0  0
    0.2991   -1.3100    0.7221 H   0  0  0  0  0  0  0  0  0  0  0  0
    0.3023    0.0488   -0.4345 H   0  0  0  0  0  0  0  0  0  0  0  0
    1.1880    0.1857    1.1154 H   0  0  0  0  0  0  0  0  0  0  0  0
    3.5631    0.8835    0.5726 H   0  0  0  0  0  0  0  0  0  0  0  0
    2.3423    1.6769   -0.4588 H   0  0  0  0  0  0  0  0  0  0  0  0
    4.0184    1.5356   -1.0170 H   0  0  0  0  0  0  0  0  0  0  0  0
    4.3335   -2.0370   -0.6392 H   0  0  0  0  0  0  0  0  0  0  0  0
    5.0493   -0.6688   -1.5478 H   0  0  0  0  0  0  0  0  0  0  0  0
    2.8007   -2.5709   -2.4727 H   0  0  0  0  0  0  0  0  0  0  0  0
    5.8218   -0.8568   -3.3761 H   0  0  0  0  0  0  0  0  0  0  0  0
    5.3539   -0.7136   -5.0788 H   0  0  0  0  0  0  0  0  0  0  0  0
    6.2099   -2.1736   -4.4898 H   0  0  0  0  0  0  0  0  0  0  0  0
    4.9664   -2.6083   -6.2279 H   0  0  0  0  0  0  0  0  0  0  0  0
    3.2631   -5.0228   -6.2769 H   0  0  0  0  0  0  0  0  0  0  0  0
    4.6199   -4.7122   -7.3825 H   0  0  0  0  0  0  0  0  0  0  0  0
    4.1224   -3.8738   -9.5607 H   0  0  0  0  0  0  0  0  0  0  0  0
    2.5526   -2.7983  -11.1632 H   0  0  0  0  0  0  0  0  0  0  0  0
    0.3458   -1.9141  -10.3465 H   0  0  0  0  0  0  0  0  0  0  0  0
   -0.6458   -3.0789   -6.1690 H   0  0  0  0  0  0  0  0  0  0  0  0
   -3.2405   -2.2905   -6.8012 H   0  0  0  0  0  0  0  0  0  0  0  0
   -1.7555   -1.9945   -4.0612 H   0  0  0  0  0  0  0  0  0  0  0  0
   -3.5721   -2.1411   -4.3019 H   0  0  0  0  0  0  0  0  0  0  0  0
   -1.6958    0.0725   -5.5089 H   0  0  0  0  0  0  0  0  0  0  0  0
   -3.5161   -0.0321   -5.7680 H   0  0  0  0  0  0  0  0  0  0  0  0
    1.3430   -3.2263   -6.3579 H   0  0  0  0  0  0  0  0  0  0  0  0
    0.6342   -1.4765   -2.3817 H   0  0  0  0  0  0  0  0  0  0  0  0
    0.9767   -0.9647   -4.0471 H   0  0  0  0  0  0  0  0  0  0  0  0
    0.4494    0.2402   -2.8515 H   0  0  0  0  0  0  0  0  0  0  0  0
    4.1336    0.9661   -3.2580 H   0  0  0  0  0  0  0  0  0  0  0  0
    2.5029    1.6657   -3.2640 H   0  0  0  0  0  0  0  0  0  0  0  0
    2.9827    0.5236   -4.5360 H   0  0  0  0  0  0  0  0  0  0  0  0
  1  2  1  0
  1 28  1  0
  1 29  1  0
  1 30  1  0
  3  2  1  1
  3  4  1  0
  3  5  1  0
  3 25  1  0
  4 31  1  0
  4 32  1  0
  4 33  1  0
  5  6  1  0
  5 34  1  0
  5 35  1  0
  6  7  1  0
  6 25  1  0
  6 36  1  1
  7  8  1  0
  7  9  1  0
  8 37  1  0
  8 38  1  0
  8 39  1  0
  9 10  2  0
  9 11  1  0
 11 12  1  0
 11 40  1  0
 12 13  1  0
 12 41  1  0
 12 42  1  0
 13 14  2  0
 13 24  1  0
 14 15  1  0
 14 43  1  0
 15 16  2  0
 15 44  1  0
 16 17  1  0
 16 45  1  0
 17 18  1  0
 17 24  2  0
 18 19  2  0
 18 20  1  0
 20 21  1  0
 20 46  1  0
 21 22  1  0
 21 23  1  0
 21 47  1  6
 22 23  1  0
 22 48  1  0
 22 49  1  0
 23 50  1  0
 23 51  1  0
 24 52  1  0
 25 26  1  1
 25 27  1  0
 26 53  1  0
 26 54  1  0
 26 55  1  0
 27 56  1  0
 27 57  1  0
 27 58  1  0
M  END

