
     RDKit          3D

 70 77  0  0  0  0  0  0  0  0999 V2000
    1.6476   -2.8711   -0.0721 C   0  0  0  0  0  0  0  0  0  0  0  0
    2.9300   -2.1252   -0.3438 C   0  0  0  0  0  0  0  0  0  0  0  0
    3.4022   -1.9418   -1.6533 C   0  0  0  0  0  0  0  0  0  0  0  0
    4.5847   -1.2448   -1.9093 C   0  0  0  0  0  0  0  0  0  0  0  0
    5.3059   -0.7338   -0.8275 C   0  0  0  0  0  0  0  0  0  0  0  0
    6.8133    0.1600   -1.1238 S   0  0  1  0  0  0  0  0  0  0  0  0
    6.7845    0.7734   -2.4520 O   0  0  0  0  0  0  0  0  0  0  0  0
    7.1643    0.9564    0.0482 O   0  0  0  0  0  0  0  0  0  0  0  0
    7.8514   -1.1331   -1.1981 O   0  0  0  0  0  0  0  0  0  0  0  0
    9.1769   -0.8279   -1.6787 C   0  0  0  0  0  0  0  0  0  0  0  0
    9.8594   -2.0564   -2.2612 C   0  0  2  0  0  0  0  0  0  0  0  0
    9.2678   -2.8245   -3.4272 C   0  0  2  0  0  0  0  0  0  0  0  0
    7.9062   -2.3692   -3.9134 C   0  0  0  0  0  0  0  0  0  0  0  0
    7.5316   -3.1038   -5.1108 O   0  0  0  0  0  0  0  0  0  0  0  0
    6.2739   -2.4568   -5.9508 S   0  0  1  0  0  0  0  0  0  0  0  0
    5.1194   -2.3810   -5.0515 O   0  0  0  0  0  0  0  0  0  0  0  0
    6.7475   -1.2600   -6.6401 O   0  0  0  0  0  0  0  0  0  0  0  0
    6.0385   -3.7754   -7.1212 C   0  0  0  0  0  0  0  0  0  0  0  0
    5.2226   -4.8563   -6.7813 C   0  0  0  0  0  0  0  0  0  0  0  0
    5.0470   -5.8848   -7.7084 C   0  0  0  0  0  0  0  0  0  0  0  0
    5.6693   -5.8449   -8.9671 C   0  0  0  0  0  0  0  0  0  0  0  0
    5.4742   -6.9528   -9.9712 C   0  0  0  0  0  0  0  0  0  0  0  0
    6.4767   -4.7362   -9.2801 C   0  0  0  0  0  0  0  0  0  0  0  0
    6.6658   -3.6992   -8.3684 C   0  0  0  0  0  0  0  0  0  0  0  0
    9.3819   -4.3196   -2.9127 C   0  0  1  0  0  0  0  0  0  0  0  0
    8.3630   -4.4858   -1.7718 C   0  0  0  0  0  0  0  0  0  0  0  0
    8.8754   -3.7909   -0.7336 C   0  0  0  0  0  0  0  0  0  0  0  0
   10.2100   -3.2172   -1.2508 C   0  0  2  0  0  0  0  0  0  0  0  0
   11.4549   -2.6815   -0.5311 C   0  0  0  0  0  0  0  0  0  0  0  0
   12.1726   -1.7045   -1.5569 C   0  0  0  0  0  0  0  0  0  0  0  0
   11.3015   -1.6922   -2.8215 C   0  0  2  0  0  0  0  0  0  0  0  0
   11.0909   -0.6416   -3.9336 C   0  0  0  0  0  0  0  0  0  0  0  0
   10.5532   -1.3260   -4.9673 C   0  0  0  0  0  0  0  0  0  0  0  0
   10.4515   -2.7821   -4.4790 C   0  0  2  0  0  0  0  0  0  0  0  0
   10.3318   -4.1227   -5.2136 C   0  0  0  0  0  0  0  0  0  0  0  0
    9.6275   -5.1173   -4.1988 C   0  0  0  0  0  0  0  0  0  0  0  0
   11.6058   -2.8045   -3.6432 O   0  0  0  0  0  0  0  0  0  0  0  0
   10.5685   -4.2806   -2.1233 O   0  0  0  0  0  0  0  0  0  0  0  0
    4.8636   -0.8931    0.4899 C   0  0  0  0  0  0  0  0  0  0  0  0
    3.6782   -1.5882    0.7202 C   0  0  0  0  0  0  0  0  0  0  0  0
    1.1977   -3.2558   -0.9985 H   0  0  0  0  0  0  0  0  0  0  0  0
    0.9064   -2.2183    0.4185 H   0  0  0  0  0  0  0  0  0  0  0  0
    1.8198   -3.7249    0.6039 H   0  0  0  0  0  0  0  0  0  0  0  0
    2.8393   -2.3480   -2.4974 H   0  0  0  0  0  0  0  0  0  0  0  0
    4.9288   -1.1105   -2.9363 H   0  0  0  0  0  0  0  0  0  0  0  0
    9.7638   -0.4210   -0.8380 H   0  0  0  0  0  0  0  0  0  0  0  0
    9.1001   -0.0453   -2.4483 H   0  0  0  0  0  0  0  0  0  0  0  0
    7.9195   -1.2942   -4.1494 H   0  0  0  0  0  0  0  0  0  0  0  0
    7.1452   -2.5465   -3.1431 H   0  0  0  0  0  0  0  0  0  0  0  0
    4.7280   -4.8816   -5.8088 H   0  0  0  0  0  0  0  0  0  0  0  0
    4.4096   -6.7345   -7.4502 H   0  0  0  0  0  0  0  0  0  0  0  0
    4.8667   -7.7720   -9.5607 H   0  0  0  0  0  0  0  0  0  0  0  0
    6.4415   -7.3729  -10.2917 H   0  0  0  0  0  0  0  0  0  0  0  0
    4.9701   -6.5794  -10.8783 H   0  0  0  0  0  0  0  0  0  0  0  0
    6.9632   -4.6831  -10.2581 H   0  0  0  0  0  0  0  0  0  0  0  0
    7.2810   -2.8320   -8.6141 H   0  0  0  0  0  0  0  0  0  0  0  0
    7.3741   -4.9417   -1.8339 H   0  0  0  0  0  0  0  0  0  0  0  0
    8.3862   -3.5614    0.2126 H   0  0  0  0  0  0  0  0  0  0  0  0
   12.1080   -3.5155   -0.2387 H   0  0  0  0  0  0  0  0  0  0  0  0
   11.1745   -2.1438    0.3875 H   0  0  0  0  0  0  0  0  0  0  0  0
   13.1848   -2.0511   -1.8078 H   0  0  0  0  0  0  0  0  0  0  0  0
   12.2665   -0.6931   -1.1325 H   0  0  0  0  0  0  0  0  0  0  0  0
   11.2224    0.4387   -3.8568 H   0  0  0  0  0  0  0  0  0  0  0  0
   10.1425   -0.9157   -5.8909 H   0  0  0  0  0  0  0  0  0  0  0  0
   11.3334   -4.4745   -5.4993 H   0  0  0  0  0  0  0  0  0  0  0  0
    9.7285   -4.0166   -6.1245 H   0  0  0  0  0  0  0  0  0  0  0  0
   10.2559   -5.9929   -3.9815 H   0  0  0  0  0  0  0  0  0  0  0  0
    8.6750   -5.4724   -4.6163 H   0  0  0  0  0  0  0  0  0  0  0  0
    5.4411   -0.4660    1.3115 H   0  0  0  0  0  0  0  0  0  0  0  0
    3.3232   -1.7144    1.7469 H   0  0  0  0  0  0  0  0  0  0  0  0
  1  2  1  0
  1 41  1  0
  1 42  1  0
  1 43  1  0
  2  3  2  0
  2 40  1  0
  3  4  1  0
  3 44  1  0
  4  5  2  0
  4 45  1  0
  5  6  1  0
  5 39  1  0
  6  7  2  0
  6  8  2  0
  6  9  1  6
  9 10  1  0
 11 10  1  1
 10 46  1  0
 10 47  1  0
 11 12  1  0
 11 28  1  0
 11 31  1  0
 12 13  1  6
 12 25  1  0
 12 34  1  0
 13 14  1  0
 13 48  1  0
 13 49  1  0
 15 14  1  1
 15 16  2  0
 15 17  2  0
 15 18  1  0
 18 19  2  0
 18 24  1  0
 19 20  1  0
 19 50  1  0
 20 21  2  0
 20 51  1  0
 21 22  1  0
 21 23  1  0
 22 52  1  0
 22 53  1  0
 22 54  1  0
 23 24  2  0
 23 55  1  0
 24 56  1  0
 25 26  1  1
 25 36  1  0
 25 38  1  0
 26 27  2  0
 26 57  1  0
 28 27  1  1
 27 58  1  0
 28 29  1  0
 28 38  1  0
 29 30  1  0
 29 59  1  0
 29 60  1  0
 30 31  1  0
 30 61  1  0
 30 62  1  0
 31 32  1  6
 31 37  1  0
 32 33  2  0
 32 63  1  0
 34 33  1  6
 33 64  1  0
 34 35  1  0
 34 37  1  0
 35 36  1  0
 35 65  1  0
 35 66  1  0
 36 67  1  0
 36 68  1  0
 39 40  2  0
 39 69  1  0
 40 70  1  0
M  END

