
     RDKit          3D

 35 35  0  0  0  0  0  0  0  0999 V2000
    0.9304    0.0078    0.2203 C   0  0  0  0  0  0  0  0  0  0  0  0
    2.4552    0.0384    0.0516 C   0  0  1  0  0  0  0  0  0  0  0  0
    2.8575    1.0167   -1.0610 C   0  0  0  0  0  0  0  0  0  0  0  0
    3.1386    0.3528    1.3948 C   0  0  0  0  0  0  0  0  0  0  0  0
    4.6637    0.2390    1.3989 C   0  0  0  0  0  0  0  0  0  0  0  0
    5.1978    0.5135    2.7253 N   0  0  0  0  0  0  0  0  0  0  0  0
    6.6392    0.3383    2.8969 C   0  0  1  0  0  0  0  0  0  0  0  0
    7.4302    1.3873    2.0952 C   0  0  0  0  0  0  0  0  0  0  0  0
    6.9961    0.4222    4.3747 C   0  0  0  0  0  0  0  0  0  0  0  0
    8.0031   -0.3898    4.9156 C   0  0  0  0  0  0  0  0  0  0  0  0
    8.3733   -0.2920    6.2601 C   0  0  0  0  0  0  0  0  0  0  0  0
    7.7226    0.6325    7.0815 C   0  0  0  0  0  0  0  0  0  0  0  0
    8.2690    0.7881    9.1335 I   0  0  0  0  0  0  0  0  0  0  0  0
    6.7124    1.4512    6.5689 C   0  0  0  0  0  0  0  0  0  0  0  0
    6.3578    1.3419    5.2212 C   0  0  0  0  0  0  0  0  0  0  0  0
    0.4272   -0.2588   -0.7232 H   0  0  0  0  0  0  0  0  0  0  0  0
    0.5484    0.9947    0.5336 H   0  0  0  0  0  0  0  0  0  0  0  0
    0.6223   -0.7250    0.9839 H   0  0  0  0  0  0  0  0  0  0  0  0
    2.7775   -0.9745   -0.2579 H   0  0  0  0  0  0  0  0  0  0  0  0
    2.5905    2.0528   -0.7893 H   0  0  0  0  0  0  0  0  0  0  0  0
    2.3393    0.7769   -2.0036 H   0  0  0  0  0  0  0  0  0  0  0  0
    3.9388    0.9940   -1.2681 H   0  0  0  0  0  0  0  0  0  0  0  0
    2.7358   -0.3367    2.1605 H   0  0  0  0  0  0  0  0  0  0  0  0
    2.8612    1.3697    1.7262 H   0  0  0  0  0  0  0  0  0  0  0  0
    5.0896    0.9659    0.6897 H   0  0  0  0  0  0  0  0  0  0  0  0
    4.9590   -0.7685    1.0205 H   0  0  0  0  0  0  0  0  0  0  0  0
    4.7145   -0.0715    3.4069 H   0  0  0  0  0  0  0  0  0  0  0  0
    6.9705   -0.6629    2.5359 H   0  0  0  0  0  0  0  0  0  0  0  0
    7.1312    2.4033    2.3970 H   0  0  0  0  0  0  0  0  0  0  0  0
    7.2612    1.2829    1.0123 H   0  0  0  0  0  0  0  0  0  0  0  0
    8.5095    1.2731    2.2760 H   0  0  0  0  0  0  0  0  0  0  0  0
    8.5103   -1.1199    4.2776 H   0  0  0  0  0  0  0  0  0  0  0  0
    9.1579   -0.9367    6.6600 H   0  0  0  0  0  0  0  0  0  0  0  0
    6.2019    2.1713    7.2111 H   0  0  0  0  0  0  0  0  0  0  0  0
    5.5645    1.9726    4.8142 H   0  0  0  0  0  0  0  0  0  0  0  0
  1  2  1  0
  1 16  1  0
  1 17  1  0
  1 18  1  0
  2  3  1  0
  2  4  1  0
  2 19  1  6
  3 20  1  0
  3 21  1  0
  3 22  1  0
  4  5  1  0
  4 23  1  0
  4 24  1  0
  5  6  1  0
  5 25  1  0
  5 26  1  0
  6  7  1  0
  6 27  1  0
  7  8  1  0
  7  9  1  0
  7 28  1  6
  8 29  1  0
  8 30  1  0
  8 31  1  0
  9 10  2  0
  9 15  1  0
 10 11  1  0
 10 32  1  0
 11 12  2  0
 11 33  1  0
 12 13  1  0
 12 14  1  0
 14 15  2  0
 14 34  1  0
 15 35  1  0
M  END

