
     RDKit          3D

 28 29  0  0  0  0  0  0  0  0999 V2000
    0.7285    0.1749    0.3648 C   0  0  0  0  0  0  0  0  0  0  0  0
    2.1230    0.0160    0.2657 O   0  0  0  0  0  0  0  0  0  0  0  0
    2.8881    1.1457    0.5905 C   0  0  1  0  0  0  0  0  0  0  0  0
    2.7751    1.5026    2.0917 C   0  0  0  0  0  0  0  0  0  0  0  0
    2.5202    0.6292    2.8949 O   0  0  0  0  0  0  0  0  0  0  0  0
    3.0381    2.9110    2.5577 C   0  0  0  0  0  0  0  0  0  0  0  0
    3.0845    4.0284    1.7058 C   0  0  0  0  0  0  0  0  0  0  0  0
    3.3103    5.3051    2.2295 C   0  0  0  0  0  0  0  0  0  0  0  0
    3.4971    5.4865    3.6009 C   0  0  0  0  0  0  0  0  0  0  0  0
    3.4445    4.3696    4.4367 C   0  0  0  0  0  0  0  0  0  0  0  0
    3.6204    4.5392    5.7540 F   0  0  0  0  0  0  0  0  0  0  0  0
    3.2134    3.0943    3.9406 C   0  0  0  0  0  0  0  0  0  0  0  0
    4.3381    0.8171    0.2795 C   0  0  1  0  0  0  0  0  0  0  0  0
    4.8001    0.7716   -1.1529 C   0  0  0  0  0  0  0  0  0  0  0  0
    5.3033    1.8553   -0.2365 C   0  0  0  0  0  0  0  0  0  0  0  0
    0.2681   -0.7473   -0.0183 H   0  0  0  0  0  0  0  0  0  0  0  0
    0.3676    1.0263   -0.2488 H   0  0  0  0  0  0  0  0  0  0  0  0
    0.3935    0.3243    1.4069 H   0  0  0  0  0  0  0  0  0  0  0  0
    2.5679    2.0087   -0.0284 H   0  0  0  0  0  0  0  0  0  0  0  0
    2.9295    3.9182    0.6327 H   0  0  0  0  0  0  0  0  0  0  0  0
    3.3392    6.1698    1.5623 H   0  0  0  0  0  0  0  0  0  0  0  0
    3.6784    6.4723    4.0338 H   0  0  0  0  0  0  0  0  0  0  0  0
    3.1637    2.2342    4.6098 H   0  0  0  0  0  0  0  0  0  0  0  0
    4.7423    0.0506    0.9489 H   0  0  0  0  0  0  0  0  0  0  0  0
    4.0749    1.0437   -1.9253 H   0  0  0  0  0  0  0  0  0  0  0  0
    5.4820   -0.0317   -1.4442 H   0  0  0  0  0  0  0  0  0  0  0  0
    4.9376    2.8736   -0.3950 H   0  0  0  0  0  0  0  0  0  0  0  0
    6.3367    1.8095    0.1174 H   0  0  0  0  0  0  0  0  0  0  0  0
  1  2  1  0
  1 16  1  0
  1 17  1  0
  1 18  1  0
  2  3  1  0
  3  4  1  0
  3 13  1  0
  3 19  1  6
  4  5  2  0
  4  6  1  0
  6  7  2  0
  6 12  1  0
  7  8  1  0
  7 20  1  0
  8  9  2  0
  8 21  1  0
  9 10  1  0
  9 22  1  0
 10 11  1  0
 10 12  2  0
 12 23  1  0
 13 14  1  0
 13 15  1  0
 13 24  1  1
 14 15  1  0
 14 25  1  0
 14 26  1  0
 15 27  1  0
 15 28  1  0
M  END

