
     RDKit          3D

 50 51  0  0  0  0  0  0  0  0999 V2000
    6.0653    0.7313   -3.0628 C   0  0  0  0  0  0  0  0  0  0  0  0
    5.7886   -0.5692   -2.3069 C   0  0  0  0  0  0  0  0  0  0  0  0
    4.9223   -0.3714   -1.0599 C   0  0  0  0  0  0  0  0  0  0  0  0
    4.5331   -1.6621   -0.3287 C   0  0  0  0  0  0  0  0  0  0  0  0
    5.6672   -2.4750    0.1221 N   0  0  0  0  0  0  0  0  0  0  0  0
    6.4672   -1.8793    1.2038 C   0  0  0  0  0  0  0  0  0  0  0  0
    5.8513   -2.0279    2.6026 C   0  0  0  0  0  0  0  0  0  0  0  0
    5.5808   -3.5061    2.9048 C   0  0  0  0  0  0  0  0  0  0  0  0
    4.7338   -4.1358    1.7932 C   0  0  0  0  0  0  0  0  0  0  0  0
    5.3342   -3.8812    0.3985 C   0  0  2  0  0  0  0  0  0  0  0  0
    6.5368   -4.8214    0.1158 C   0  0  0  0  0  0  0  0  0  0  0  0
    6.6790   -5.8793    0.7034 O   0  0  0  0  0  0  0  0  0  0  0  0
    7.3401   -4.3718   -0.8971 N   0  0  0  0  0  0  0  0  0  0  0  0
    8.4657   -5.0309   -1.4581 C   0  0  0  0  0  0  0  0  0  0  0  0
    8.3393   -6.3313   -2.0006 C   0  0  0  0  0  0  0  0  0  0  0  0
    7.0245   -7.0661   -2.0350 C   0  0  0  0  0  0  0  0  0  0  0  0
    9.4879   -6.9130   -2.5511 C   0  0  0  0  0  0  0  0  0  0  0  0
   10.7063   -6.2386   -2.5968 C   0  0  0  0  0  0  0  0  0  0  0  0
   10.8039   -4.9409   -2.0852 C   0  0  0  0  0  0  0  0  0  0  0  0
   11.9755   -4.2405   -2.1238 O   0  0  0  0  0  0  0  0  0  0  0  0
    9.6852   -4.3197   -1.5001 C   0  0  0  0  0  0  0  0  0  0  0  0
    9.8058   -2.9312   -0.9237 C   0  0  0  0  0  0  0  0  0  0  0  0
    6.6949    0.5573   -3.9500 H   0  0  0  0  0  0  0  0  0  0  0  0
    6.5876    1.4634   -2.4239 H   0  0  0  0  0  0  0  0  0  0  0  0
    5.1300    1.2045   -3.4064 H   0  0  0  0  0  0  0  0  0  0  0  0
    6.7448   -1.0364   -2.0163 H   0  0  0  0  0  0  0  0  0  0  0  0
    5.2937   -1.2925   -2.9807 H   0  0  0  0  0  0  0  0  0  0  0  0
    3.9818    0.1344   -1.3438 H   0  0  0  0  0  0  0  0  0  0  0  0
    5.4266    0.3266   -0.3677 H   0  0  0  0  0  0  0  0  0  0  0  0
    3.9472   -2.2878   -1.0229 H   0  0  0  0  0  0  0  0  0  0  0  0
    3.8425   -1.4009    0.5015 H   0  0  0  0  0  0  0  0  0  0  0  0
    6.6533   -0.8218    0.9650 H   0  0  0  0  0  0  0  0  0  0  0  0
    7.4559   -2.3712    1.2038 H   0  0  0  0  0  0  0  0  0  0  0  0
    4.9107   -1.4516    2.6666 H   0  0  0  0  0  0  0  0  0  0  0  0
    6.5352   -1.5899    3.3494 H   0  0  0  0  0  0  0  0  0  0  0  0
    5.0788   -3.6224    3.8796 H   0  0  0  0  0  0  0  0  0  0  0  0
    6.5395   -4.0488    2.9795 H   0  0  0  0  0  0  0  0  0  0  0  0
    3.7156   -3.7098    1.8180 H   0  0  0  0  0  0  0  0  0  0  0  0
    4.6411   -5.2211    1.9410 H   0  0  0  0  0  0  0  0  0  0  0  0
    4.5876   -4.1846   -0.3565 H   0  0  0  0  0  0  0  0  0  0  0  0
    7.1571   -3.3979   -1.1401 H   0  0  0  0  0  0  0  0  0  0  0  0
    6.2090   -6.4049   -2.3721 H   0  0  0  0  0  0  0  0  0  0  0  0
    6.7437   -7.4281   -1.0342 H   0  0  0  0  0  0  0  0  0  0  0  0
    7.0749   -7.9223   -2.7238 H   0  0  0  0  0  0  0  0  0  0  0  0
    9.4203   -7.9185   -2.9749 H   0  0  0  0  0  0  0  0  0  0  0  0
   11.5849   -6.7149   -3.0437 H   0  0  0  0  0  0  0  0  0  0  0  0
   12.6610   -4.7956   -2.5166 H   0  0  0  0  0  0  0  0  0  0  0  0
   10.8442   -2.5820   -0.9648 H   0  0  0  0  0  0  0  0  0  0  0  0
    9.4734   -2.9061    0.1264 H   0  0  0  0  0  0  0  0  0  0  0  0
    9.1893   -2.1983   -1.4745 H   0  0  0  0  0  0  0  0  0  0  0  0
  1  2  1  0
  1 23  1  0
  1 24  1  0
  1 25  1  0
  2  3  1  0
  2 26  1  0
  2 27  1  0
  3  4  1  0
  3 28  1  0
  3 29  1  0
  4  5  1  0
  4 30  1  0
  4 31  1  0
  5  6  1  0
  5 10  1  0
  6  7  1  0
  6 32  1  0
  6 33  1  0
  7  8  1  0
  7 34  1  0
  7 35  1  0
  8  9  1  0
  8 36  1  0
  8 37  1  0
  9 10  1  0
  9 38  1  0
  9 39  1  0
 10 11  1  0
 10 40  1  6
 11 12  2  0
 11 13  1  0
 13 14  1  0
 13 41  1  0
 14 15  2  0
 14 21  1  0
 15 16  1  0
 15 17  1  0
 16 42  1  0
 16 43  1  0
 16 44  1  0
 17 18  2  0
 17 45  1  0
 18 19  1  0
 18 46  1  0
 19 20  1  0
 19 21  2  0
 20 47  1  0
 21 22  1  0
 22 48  1  0
 22 49  1  0
 22 50  1  0
M  END

