
     RDKit          3D

 51 54  0  0  0  0  0  0  0  0999 V2000
    3.2287   -3.4572    5.8716 C   0  0  0  0  0  0  0  0  0  0  0  0
    2.1319   -4.3460    5.5798 N   0  0  0  0  0  0  0  0  0  0  0  0
    0.8362   -4.1355    6.2334 C   0  0  0  0  0  0  0  0  0  0  0  0
   -0.1073   -5.1332    5.5267 C   0  0  0  0  0  0  0  0  0  0  0  0
    0.5841   -5.3452    4.1973 C   0  0  0  0  0  0  0  0  0  0  0  0
    0.1378   -5.9127    3.0142 C   0  0  0  0  0  0  0  0  0  0  0  0
    1.0119   -6.0124    1.9161 C   0  0  0  0  0  0  0  0  0  0  0  0
    2.3171   -5.5368    2.0514 C   0  0  0  0  0  0  0  0  0  0  0  0
    3.4545   -5.6939    0.6666 S   0  0  1  0  0  0  0  0  0  0  0  0
    2.6601   -5.8347   -0.5549 O   0  0  0  0  0  0  0  0  0  0  0  0
    4.4879   -4.6705    0.8242 O   0  0  0  0  0  0  0  0  0  0  0  0
    4.2595   -7.1506    0.8654 N   0  0  0  0  0  0  0  0  0  0  0  0
    3.6150   -8.4297    0.6169 C   0  0  0  0  0  0  0  0  0  0  0  0
    4.5888   -9.4790    0.1130 C   0  0  0  0  0  0  0  0  0  0  0  0
    4.3873  -10.8350    0.4167 C   0  0  0  0  0  0  0  0  0  0  0  0
    5.3007  -11.7547   -0.0959 C   0  0  0  0  0  0  0  0  0  0  0  0
    6.3423  -11.4274   -0.8569 N   0  0  0  0  0  0  0  0  0  0  0  0
    6.5403  -10.1354   -1.1715 C   0  0  0  0  0  0  0  0  0  0  0  0
    7.6108   -9.8560   -2.0040 N   0  0  0  0  0  0  0  0  0  0  0  0
    8.6526  -10.8581   -2.2159 C   0  0  0  0  0  0  0  0  0  0  0  0
    9.2610  -10.7040   -3.6040 C   0  0  0  0  0  0  0  0  0  0  0  0
    9.7290   -9.3866   -3.8214 O   0  0  0  0  0  0  0  0  0  0  0  0
    8.6821   -8.4510   -3.6999 C   0  0  0  0  0  0  0  0  0  0  0  0
    8.0236   -8.4971   -2.3193 C   0  0  0  0  0  0  0  0  0  0  0  0
    5.6776   -9.1223   -0.6778 C   0  0  0  0  0  0  0  0  0  0  0  0
    2.7932   -4.9427    3.2316 C   0  0  0  0  0  0  0  0  0  0  0  0
    1.9111   -4.8648    4.3141 C   0  0  0  0  0  0  0  0  0  0  0  0
    3.3152   -3.3235    6.9607 H   0  0  0  0  0  0  0  0  0  0  0  0
    3.1108   -2.4546    5.4088 H   0  0  0  0  0  0  0  0  0  0  0  0
    4.1774   -3.8870    5.5159 H   0  0  0  0  0  0  0  0  0  0  0  0
    0.4889   -3.0915    6.0780 H   0  0  0  0  0  0  0  0  0  0  0  0
    0.9113   -4.3023    7.3197 H   0  0  0  0  0  0  0  0  0  0  0  0
   -1.1353   -4.7526    5.4362 H   0  0  0  0  0  0  0  0  0  0  0  0
   -0.1574   -6.0861    6.0841 H   0  0  0  0  0  0  0  0  0  0  0  0
   -0.8920   -6.2688    2.9231 H   0  0  0  0  0  0  0  0  0  0  0  0
    0.6777   -6.4221    0.9625 H   0  0  0  0  0  0  0  0  0  0  0  0
    4.9523   -7.1121    1.6102 H   0  0  0  0  0  0  0  0  0  0  0  0
    2.8529   -8.2519   -0.1595 H   0  0  0  0  0  0  0  0  0  0  0  0
    3.0850   -8.8159    1.5080 H   0  0  0  0  0  0  0  0  0  0  0  0
    3.5549  -11.1632    1.0432 H   0  0  0  0  0  0  0  0  0  0  0  0
    5.1875  -12.8225    0.1304 H   0  0  0  0  0  0  0  0  0  0  0  0
    8.2091  -11.8521   -2.0856 H   0  0  0  0  0  0  0  0  0  0  0  0
    9.4525  -10.7408   -1.4554 H   0  0  0  0  0  0  0  0  0  0  0  0
    8.5070  -10.9729   -4.3728 H   0  0  0  0  0  0  0  0  0  0  0  0
   10.1254  -11.3760   -3.7170 H   0  0  0  0  0  0  0  0  0  0  0  0
    7.9088   -8.6375   -4.4745 H   0  0  0  0  0  0  0  0  0  0  0  0
    9.1132   -7.4536   -3.8762 H   0  0  0  0  0  0  0  0  0  0  0  0
    7.1553   -7.8257   -2.3327 H   0  0  0  0  0  0  0  0  0  0  0  0
    8.7343   -8.1125   -1.5578 H   0  0  0  0  0  0  0  0  0  0  0  0
    5.8417   -8.0674   -0.8887 H   0  0  0  0  0  0  0  0  0  0  0  0
    3.8043   -4.5366    3.2657 H   0  0  0  0  0  0  0  0  0  0  0  0
  1  2  1  0
  1 28  1  0
  1 29  1  0
  1 30  1  0
  2  3  1  0
  2 27  1  0
  3  4  1  0
  3 31  1  0
  3 32  1  0
  4  5  1  0
  4 33  1  0
  4 34  1  0
  5  6  2  0
  5 27  1  0
  6  7  1  0
  6 35  1  0
  7  8  2  0
  7 36  1  0
  8  9  1  0
  8 26  1  0
  9 10  2  0
  9 11  2  0
  9 12  1  1
 12 13  1  0
 12 37  1  0
 13 14  1  0
 13 38  1  0
 13 39  1  0
 14 15  2  0
 14 25  1  0
 15 16  1  0
 15 40  1  0
 16 17  2  0
 16 41  1  0
 17 18  1  0
 18 19  1  0
 18 25  2  0
 19 20  1  0
 19 24  1  0
 20 21  1  0
 20 42  1  0
 20 43  1  0
 21 22  1  0
 21 44  1  0
 21 45  1  0
 22 23  1  0
 23 24  1  0
 23 46  1  0
 23 47  1  0
 24 48  1  0
 24 49  1  0
 25 50  1  0
 26 27  2  0
 26 51  1  0
M  END

