
     RDKit          3D

 32 33  0  0  0  0  0  0  0  0999 V2000
    1.0595    0.8318   -0.2081 C   0  0  0  0  0  0  0  0  0  0  0  0
    2.5239    0.5121   -0.3491 C   0  0  0  0  0  0  0  0  0  0  0  0
    3.0095   -0.7672   -0.6502 C   0  0  0  0  0  0  0  0  0  0  0  0
    4.3721   -1.0501   -0.7790 C   0  0  0  0  0  0  0  0  0  0  0  0
    5.3093   -0.0191   -0.6024 C   0  0  0  0  0  0  0  0  0  0  0  0
    6.7021   -0.2055   -0.7063 N   0  0  0  0  0  0  0  0  0  0  0  0
    7.3869   -1.3390   -1.0320 C   0  0  0  0  0  0  0  0  0  0  0  0
    6.8969   -2.4224   -1.2887 O   0  0  0  0  0  0  0  0  0  0  0  0
    8.9288   -1.2410   -1.0317 C   0  0  1  0  0  0  0  0  0  0  0  0
    9.5577    0.4909   -1.1077 Cl  0  0  0  0  0  0  0  0  0  0  0  0
    9.5473   -1.9699    0.1371 C   0  0  0  0  0  0  0  0  0  0  0  0
   10.5271   -2.9461   -0.0872 C   0  0  0  0  0  0  0  0  0  0  0  0
   11.1111   -3.6253    0.9859 C   0  0  0  0  0  0  0  0  0  0  0  0
   10.7214   -3.3318    2.2948 C   0  0  0  0  0  0  0  0  0  0  0  0
    9.7441   -2.3572    2.5270 C   0  0  0  0  0  0  0  0  0  0  0  0
    9.1606   -1.6807    1.4557 C   0  0  0  0  0  0  0  0  0  0  0  0
    4.8544    1.2765   -0.2991 C   0  0  0  0  0  0  0  0  0  0  0  0
    3.4916    1.5100   -0.1809 C   0  0  0  0  0  0  0  0  0  0  0  0
    3.0814    2.7584    0.1100 F   0  0  0  0  0  0  0  0  0  0  0  0
    0.4447   -0.0657   -0.3660 H   0  0  0  0  0  0  0  0  0  0  0  0
    0.7424    1.5971   -0.9359 H   0  0  0  0  0  0  0  0  0  0  0  0
    0.8293    1.2340    0.7924 H   0  0  0  0  0  0  0  0  0  0  0  0
    2.2909   -1.5795   -0.7909 H   0  0  0  0  0  0  0  0  0  0  0  0
    4.7168   -2.0533   -1.0163 H   0  0  0  0  0  0  0  0  0  0  0  0
    7.2759    0.6251   -0.5890 H   0  0  0  0  0  0  0  0  0  0  0  0
    9.2550   -1.6988   -1.9728 H   0  0  0  0  0  0  0  0  0  0  0  0
   10.8326   -3.1794   -1.1107 H   0  0  0  0  0  0  0  0  0  0  0  0
   11.8720   -4.3866    0.7968 H   0  0  0  0  0  0  0  0  0  0  0  0
   11.1768   -3.8621    3.1349 H   0  0  0  0  0  0  0  0  0  0  0  0
    9.4335   -2.1253    3.5488 H   0  0  0  0  0  0  0  0  0  0  0  0
    8.3995   -0.9195    1.6446 H   0  0  0  0  0  0  0  0  0  0  0  0
    5.5466    2.1089   -0.1529 H   0  0  0  0  0  0  0  0  0  0  0  0
  1  2  1  0
  1 20  1  0
  1 21  1  0
  1 22  1  0
  2  3  2  0
  2 18  1  0
  3  4  1  0
  3 23  1  0
  4  5  2  0
  4 24  1  0
  5  6  1  0
  5 17  1  0
  6  7  1  0
  6 25  1  0
  7  8  2  0
  7  9  1  0
  9 10  1  0
  9 11  1  0
  9 26  1  6
 11 12  2  0
 11 16  1  0
 12 13  1  0
 12 27  1  0
 13 14  2  0
 13 28  1  0
 14 15  1  0
 14 29  1  0
 15 16  2  0
 15 30  1  0
 16 31  1  0
 17 18  2  0
 17 32  1  0
 18 19  1  0
M  END

