
     RDKit          3D

 29 30  0  0  0  0  0  0  0  0999 V2000
    2.7043   -0.4297   -3.9414 C   0  0  0  0  0  0  0  0  0  0  0  0
    2.4453    0.5015   -2.7588 C   0  0  1  0  0  0  0  0  0  0  0  0
    1.0554    0.7003   -2.5518 O   0  0  0  0  0  0  0  0  0  0  0  0
    3.1185    0.0282   -1.4546 C   0  0  0  0  0  0  0  0  0  0  0  0
    4.6136    0.0280   -1.5038 C   0  0  0  0  0  0  0  0  0  0  0  0
    5.3474    1.1498   -1.7537 N   0  0  0  0  0  0  0  0  0  0  0  0
    6.5959    0.7192   -1.7193 C   0  0  0  0  0  0  0  0  0  0  0  0
    6.6187   -0.6231   -1.4689 N   0  0  0  0  0  0  0  0  0  0  0  0
    5.3434   -1.0614   -1.3171 N   0  0  0  0  0  0  0  0  0  0  0  0
    7.7076   -1.5929   -1.3435 C   0  0  0  0  0  0  0  0  0  0  0  0
    8.9324   -1.2714   -2.2035 C   0  0  0  0  0  0  0  0  0  0  0  0
    9.9122   -0.2514   -1.6031 C   0  0  0  0  0  0  0  0  0  0  0  0
    9.2534    0.9814   -0.9808 C   0  0  0  0  0  0  0  0  0  0  0  0
    7.9706    1.7827   -2.0258 S   0  0  0  0  0  0  0  0  0  0  0  0
    2.1979   -0.0479   -4.8410 H   0  0  0  0  0  0  0  0  0  0  0  0
    2.3174   -1.4433   -3.7325 H   0  0  0  0  0  0  0  0  0  0  0  0
    3.7797   -0.5232   -4.1583 H   0  0  0  0  0  0  0  0  0  0  0  0
    2.8464    1.5007   -2.9942 H   0  0  0  0  0  0  0  0  0  0  0  0
    0.6561   -0.1637   -2.3791 H   0  0  0  0  0  0  0  0  0  0  0  0
    2.7786   -0.9899   -1.2018 H   0  0  0  0  0  0  0  0  0  0  0  0
    2.7774    0.7041   -0.6535 H   0  0  0  0  0  0  0  0  0  0  0  0
    7.2639   -2.5486   -1.6529 H   0  0  0  0  0  0  0  0  0  0  0  0
    7.9851   -1.7013   -0.2794 H   0  0  0  0  0  0  0  0  0  0  0  0
    8.5862   -0.9246   -3.1906 H   0  0  0  0  0  0  0  0  0  0  0  0
    9.4740   -2.2140   -2.3835 H   0  0  0  0  0  0  0  0  0  0  0  0
   10.6170    0.0635   -2.3901 H   0  0  0  0  0  0  0  0  0  0  0  0
   10.5211   -0.7355   -0.8177 H   0  0  0  0  0  0  0  0  0  0  0  0
    9.9964    1.7724   -0.7980 H   0  0  0  0  0  0  0  0  0  0  0  0
    8.7900    0.7538   -0.0089 H   0  0  0  0  0  0  0  0  0  0  0  0
  1  2  1  0
  1 15  1  0
  1 16  1  0
  1 17  1  0
  2  3  1  0
  2  4  1  0
  2 18  1  6
  3 19  1  0
  4  5  1  0
  4 20  1  0
  4 21  1  0
  5  6  1  0
  5  9  2  0
  6  7  2  0
  7  8  1  0
  7 14  1  0
  8  9  1  0
  8 10  1  0
 10 11  1  0
 10 22  1  0
 10 23  1  0
 11 12  1  0
 11 24  1  0
 11 25  1  0
 12 13  1  0
 12 26  1  0
 12 27  1  0
 13 14  1  0
 13 28  1  0
 13 29  1  0
M  END

