
     RDKit          3D

 45 47  0  0  0  0  0  0  0  0999 V2000
    2.4710    0.3072    1.1538 C   0  0  0  0  0  0  0  0  0  0  0  0
    2.9679   -0.4579    0.0791 O   0  0  0  0  0  0  0  0  0  0  0  0
    3.3733    0.1776   -1.0419 C   0  0  0  0  0  0  0  0  0  0  0  0
    3.3509    1.5476   -1.2443 C   0  0  0  0  0  0  0  0  0  0  0  0
    3.8018    2.1178   -2.4648 C   0  0  0  0  0  0  0  0  0  0  0  0
    3.8067    3.5182   -2.7395 C   0  0  0  0  0  0  0  0  0  0  0  0
    4.2563    4.0146   -3.9419 C   0  0  0  0  0  0  0  0  0  0  0  0
    4.2736    5.3986   -4.2451 C   0  0  0  0  0  0  0  0  0  0  0  0
    4.2962    6.5871   -4.5243 C   0  0  0  0  0  0  0  0  0  0  0  0
    4.3355    7.9612   -4.8817 C   0  0  0  0  0  0  0  0  0  0  0  0
    3.8953    8.9642   -3.9880 C   0  0  0  0  0  0  0  0  0  0  0  0
    3.9423   10.3004   -4.3575 C   0  0  0  0  0  0  0  0  0  0  0  0
    4.4263   10.7018   -5.6259 C   0  0  0  0  0  0  0  0  0  0  0  0
    4.4327   12.1226   -5.9128 C   0  0  0  0  0  0  0  0  0  0  0  0
    4.8227   12.8319   -7.0123 C   0  0  0  0  0  0  0  0  0  0  0  0
    5.3523   12.2761   -8.2153 C   0  0  0  0  0  0  0  0  0  0  0  0
    5.7915   11.9158   -9.2320 N   0  0  0  0  0  0  0  0  0  0  0  0
    4.6826   14.3394   -6.9546 C   0  0  0  0  0  0  0  0  0  0  0  0
    4.2484   14.9122   -5.9903 O   0  0  0  0  0  0  0  0  0  0  0  0
    5.0724   15.0164   -8.0472 O   0  0  0  0  0  0  0  0  0  0  0  0
    4.8660    9.6918   -6.5163 C   0  0  0  0  0  0  0  0  0  0  0  0
    4.8217    8.3545   -6.1531 C   0  0  0  0  0  0  0  0  0  0  0  0
    4.7512    3.0909   -4.9893 C   0  0  0  0  0  0  0  0  0  0  0  0
    5.1665    3.3990   -6.0716 O   0  0  0  0  0  0  0  0  0  0  0  0
    4.7190    1.7429   -4.6577 O   0  0  0  0  0  0  0  0  0  0  0  0
    4.2752    1.2583   -3.4713 C   0  0  0  0  0  0  0  0  0  0  0  0
    4.3068   -0.1295   -3.2887 C   0  0  0  0  0  0  0  0  0  0  0  0
    3.8617   -0.6789   -2.0869 C   0  0  0  0  0  0  0  0  0  0  0  0
    3.8485   -1.9913   -1.8080 O   0  0  0  0  0  0  0  0  0  0  0  0
    4.3116   -2.9129   -2.7753 C   0  0  0  0  0  0  0  0  0  0  0  0
    2.2027   -0.4039    1.9460 H   0  0  0  0  0  0  0  0  0  0  0  0
    1.5711    0.8810    0.8664 H   0  0  0  0  0  0  0  0  0  0  0  0
    3.2311    1.0087    1.5433 H   0  0  0  0  0  0  0  0  0  0  0  0
    2.9847    2.2172   -0.4663 H   0  0  0  0  0  0  0  0  0  0  0  0
    3.4445    4.2127   -1.9770 H   0  0  0  0  0  0  0  0  0  0  0  0
    3.5182    8.6776   -3.0047 H   0  0  0  0  0  0  0  0  0  0  0  0
    3.5985   11.0649   -3.6561 H   0  0  0  0  0  0  0  0  0  0  0  0
    4.0582   12.7692   -5.1117 H   0  0  0  0  0  0  0  0  0  0  0  0
    5.3995   14.4217   -8.7418 H   0  0  0  0  0  0  0  0  0  0  0  0
    5.2471    9.9532   -7.5033 H   0  0  0  0  0  0  0  0  0  0  0  0
    5.1636    7.5856   -6.8484 H   0  0  0  0  0  0  0  0  0  0  0  0
    4.6832   -0.7469   -4.1022 H   0  0  0  0  0  0  0  0  0  0  0  0
    4.2068   -3.9095   -2.3276 H   0  0  0  0  0  0  0  0  0  0  0  0
    5.3724   -2.7384   -3.0264 H   0  0  0  0  0  0  0  0  0  0  0  0
    3.7103   -2.8664   -3.7001 H   0  0  0  0  0  0  0  0  0  0  0  0
  1  2  1  0
  1 31  1  0
  1 32  1  0
  1 33  1  0
  2  3  1  0
  3  4  2  0
  3 28  1  0
  4  5  1  0
  4 34  1  0
  5  6  1  0
  5 26  2  0
  6  7  2  0
  6 35  1  0
  7  8  1  0
  7 23  1  0
  8  9  3  0
  9 10  1  0
 10 11  2  0
 10 22  1  0
 11 12  1  0
 11 36  1  0
 12 13  2  0
 12 37  1  0
 13 14  1  0
 13 21  1  0
 14 15  2  0
 14 38  1  0
 15 16  1  0
 15 18  1  0
 16 17  3  0
 18 19  2  0
 18 20  1  0
 20 39  1  0
 21 22  2  0
 21 40  1  0
 22 41  1  0
 23 24  2  0
 23 25  1  0
 25 26  1  0
 26 27  1  0
 27 28  2  0
 27 42  1  0
 28 29  1  0
 29 30  1  0
 30 43  1  0
 30 44  1  0
 30 45  1  0
M  END

