
     RDKit          3D

 35 35  0  0  0  0  0  0  0  0999 V2000
    1.0346    0.0633    0.3391 C   0  0  0  0  0  0  0  0  0  0  0  0
    2.5251   -0.0208    0.0878 C   0  0  0  0  0  0  0  0  0  0  0  0
    3.2723    1.1683    0.1104 C   0  0  0  0  0  0  0  0  0  0  0  0
    4.6449    1.1953   -0.1351 C   0  0  0  0  0  0  0  0  0  0  0  0
    5.3448    0.0176   -0.4226 C   0  0  0  0  0  0  0  0  0  0  0  0
    6.8415    0.0350   -0.7058 C   0  0  1  0  0  0  0  0  0  0  0  0
    7.6341   -0.7915    0.3215 C   0  0  0  0  0  0  0  0  0  0  0  0
    7.1586   -0.4096   -2.1442 C   0  0  0  0  0  0  0  0  0  0  0  0
    4.6085   -1.1738   -0.4453 C   0  0  0  0  0  0  0  0  0  0  0  0
    3.2289   -1.2156   -0.1950 C   0  0  0  0  0  0  0  0  0  0  0  0
    2.5957   -2.6042   -0.2181 C   0  0  1  0  0  0  0  0  0  0  0  0
    1.2510   -2.5290   -0.4846 F   0  0  0  0  0  0  0  0  0  0  0  0
    3.1358   -3.3122   -1.2677 F   0  0  0  0  0  0  0  0  0  0  0  0
    2.8017   -3.4476    1.0365 C   0  0  0  0  0  0  0  0  0  0  0  0
    2.1646   -2.9048    2.3144 C   0  0  0  0  0  0  0  0  0  0  0  0
    2.4902   -3.7778    3.4385 N   0  0  0  0  0  0  0  0  0  0  0  0
    0.7589    1.0881    0.6277 H   0  0  0  0  0  0  0  0  0  0  0  0
    0.7015   -0.6138    1.1390 H   0  0  0  0  0  0  0  0  0  0  0  0
    0.4586   -0.2070   -0.5583 H   0  0  0  0  0  0  0  0  0  0  0  0
    2.7525    2.1064    0.3247 H   0  0  0  0  0  0  0  0  0  0  0  0
    5.1786    2.1499   -0.1054 H   0  0  0  0  0  0  0  0  0  0  0  0
    7.1688    1.0847   -0.6061 H   0  0  0  0  0  0  0  0  0  0  0  0
    7.3699   -1.8605    0.2678 H   0  0  0  0  0  0  0  0  0  0  0  0
    7.4366   -0.4500    1.3497 H   0  0  0  0  0  0  0  0  0  0  0  0
    8.7177   -0.7090    0.1366 H   0  0  0  0  0  0  0  0  0  0  0  0
    6.8665   -1.4590   -2.3140 H   0  0  0  0  0  0  0  0  0  0  0  0
    8.2387   -0.3279   -2.3492 H   0  0  0  0  0  0  0  0  0  0  0  0
    6.6234    0.2086   -2.8819 H   0  0  0  0  0  0  0  0  0  0  0  0
    5.1159   -2.1118   -0.6804 H   0  0  0  0  0  0  0  0  0  0  0  0
    3.8832   -3.5692    1.1994 H   0  0  0  0  0  0  0  0  0  0  0  0
    2.3922   -4.4459    0.8029 H   0  0  0  0  0  0  0  0  0  0  0  0
    1.0764   -2.7694    2.1420 H   0  0  0  0  0  0  0  0  0  0  0  0
    2.5764   -1.9042    2.5293 H   0  0  0  0  0  0  0  0  0  0  0  0
    2.0250   -4.6806    3.3304 H   0  0  0  0  0  0  0  0  0  0  0  0
    2.1360   -3.3816    4.3088 H   0  0  0  0  0  0  0  0  0  0  0  0
  1  2  1  0
  1 17  1  0
  1 18  1  0
  1 19  1  0
  2  3  2  0
  2 10  1  0
  3  4  1  0
  3 20  1  0
  4  5  2  0
  4 21  1  0
  5  6  1  0
  5  9  1  0
  6  7  1  0
  6  8  1  0
  6 22  1  6
  7 23  1  0
  7 24  1  0
  7 25  1  0
  8 26  1  0
  8 27  1  0
  8 28  1  0
  9 10  2  0
  9 29  1  0
 10 11  1  0
 11 12  1  6
 11 13  1  0
 11 14  1  0
 14 15  1  0
 14 30  1  0
 14 31  1  0
 15 16  1  0
 15 32  1  0
 15 33  1  0
 16 34  1  0
 16 35  1  0
M  END

