
     RDKit          3D

 40 43  0  0  0  0  0  0  0  0999 V2000
    3.5284   -0.0492   -1.2031 F   0  0  0  0  0  0  0  0  0  0  0  0
    2.5532   -0.4468   -0.3690 C   0  0  1  0  0  0  0  0  0  0  0  0
    1.5819    0.4849   -0.4115 F   0  0  0  0  0  0  0  0  0  0  0  0
    2.0258   -1.5767   -0.8779 F   0  0  0  0  0  0  0  0  0  0  0  0
    3.0566   -0.6566    1.0372 C   0  0  0  0  0  0  0  0  0  0  0  0
    4.4057   -0.4961    1.3602 C   0  0  0  0  0  0  0  0  0  0  0  0
    4.8316   -0.6962    2.6746 C   0  0  0  0  0  0  0  0  0  0  0  0
    3.9464   -1.0715    3.7032 C   0  0  0  0  0  0  0  0  0  0  0  0
    4.5509   -1.2775    5.1607 B   0  0  0  0  0  0  0  0  0  0  0  0
    4.9492   -0.0750    6.0358 C   0  0  0  0  0  0  0  0  0  0  0  0
    4.7281    1.2804    5.6813 C   0  0  0  0  0  0  0  0  0  0  0  0
    5.0927    2.3312    6.5088 C   0  0  0  0  0  0  0  0  0  0  0  0
    5.7037    2.0542    7.7479 C   0  0  0  0  0  0  0  0  0  0  0  0
    5.9398    0.7471    8.1416 C   0  0  0  0  0  0  0  0  0  0  0  0
    5.5667   -0.3226    7.2947 C   0  0  0  0  0  0  0  0  0  0  0  0
    5.8094   -1.6151    7.7050 N   0  0  0  0  0  0  0  0  0  0  0  0
    5.5174   -2.7591    6.9945 C   0  0  0  0  0  0  0  0  0  0  0  0
    5.8541   -4.0149    7.5510 C   0  0  0  0  0  0  0  0  0  0  0  0
    5.5783   -5.1771    6.8493 C   0  0  0  0  0  0  0  0  0  0  0  0
    4.9645   -5.1220    5.5823 C   0  0  0  0  0  0  0  0  0  0  0  0
    4.6330   -3.8901    5.0404 C   0  0  0  0  0  0  0  0  0  0  0  0
    4.8904   -2.6708    5.7185 C   0  0  0  0  0  0  0  0  0  0  0  0
    2.5878   -1.2276    3.3446 C   0  0  0  0  0  0  0  0  0  0  0  0
    1.5675   -1.6685    4.3706 C   0  0  1  0  0  0  0  0  0  0  0  0
    1.8284   -1.1632    5.5920 F   0  0  0  0  0  0  0  0  0  0  0  0
    0.3213   -1.2874    4.0406 F   0  0  0  0  0  0  0  0  0  0  0  0
    1.5413   -3.0107    4.5020 F   0  0  0  0  0  0  0  0  0  0  0  0
    2.1474   -1.0197    2.0345 C   0  0  0  0  0  0  0  0  0  0  0  0
    5.1197   -0.2082    0.5870 H   0  0  0  0  0  0  0  0  0  0  0  0
    5.8901   -0.5546    2.9088 H   0  0  0  0  0  0  0  0  0  0  0  0
    4.2506    1.4945    4.7216 H   0  0  0  0  0  0  0  0  0  0  0  0
    4.9077    3.3651    6.2090 H   0  0  0  0  0  0  0  0  0  0  0  0
    5.9949    2.8751    8.4086 H   0  0  0  0  0  0  0  0  0  0  0  0
    6.4133    0.5371    9.1053 H   0  0  0  0  0  0  0  0  0  0  0  0
    6.2512   -1.7357    8.6094 H   0  0  0  0  0  0  0  0  0  0  0  0
    6.3328   -4.0627    8.5336 H   0  0  0  0  0  0  0  0  0  0  0  0
    5.8421   -6.1438    7.2864 H   0  0  0  0  0  0  0  0  0  0  0  0
    4.7519   -6.0439    5.0366 H   0  0  0  0  0  0  0  0  0  0  0  0
    4.1511   -3.8488    4.0610 H   0  0  0  0  0  0  0  0  0  0  0  0
    1.0893   -1.1341    1.7942 H   0  0  0  0  0  0  0  0  0  0  0  0
  2  1  1  6
  2  3  1  0
  2  4  1  0
  2  5  1  0
  5  6  2  0
  5 28  1  0
  6  7  1  0
  6 29  1  0
  7  8  2  0
  7 30  1  0
  8  9  1  0
  8 23  1  0
  9 10  1  0
  9 22  1  0
 10 11  2  0
 10 15  1  0
 11 12  1  0
 11 31  1  0
 12 13  2  0
 12 32  1  0
 13 14  1  0
 13 33  1  0
 14 15  2  0
 14 34  1  0
 15 16  1  0
 16 17  1  0
 16 35  1  0
 17 18  2  0
 17 22  1  0
 18 19  1  0
 18 36  1  0
 19 20  2  0
 19 37  1  0
 20 21  1  0
 20 38  1  0
 21 22  2  0
 21 39  1  0
 23 24  1  0
 23 28  2  0
 24 25  1  1
 24 26  1  0
 24 27  1  0
 28 40  1  0
M  END

