
     RDKit          3D

 45 47  0  0  0  0  0  0  0  0999 V2000
    4.6499    2.2978    1.0677 O   0  0  0  0  0  0  0  0  0  0  0  0
    4.4647    1.1799    0.6140 C   0  0  0  0  0  0  0  0  0  0  0  0
    3.4278    0.3915    1.0371 N   0  0  0  0  0  0  0  0  0  0  0  0
    2.4875    0.8415    2.0441 C   0  0  0  0  0  0  0  0  0  0  0  0
    2.9919    0.5579    3.4706 C   0  0  0  0  0  0  0  0  0  0  0  0
    1.9903    0.8674    4.4893 N   0  0  0  0  0  0  0  0  0  0  0  0
    2.0682    2.0336    5.2483 C   0  0  0  0  0  0  0  0  0  0  0  0
    2.9205    2.8750    5.1644 O   0  0  0  0  0  0  0  0  0  0  0  0
    0.6853    2.0834    6.3953 S   0  0  0  0  0  0  0  0  0  0  0  0
    0.0543    0.5152    5.8197 C   0  0  0  0  0  0  0  0  0  0  0  0
   -1.0748    0.0026    6.3839 C   0  0  0  0  0  0  0  0  0  0  0  0
   -1.8849   -1.2025    6.2108 C   0  0  0  0  0  0  0  0  0  0  0  0
   -1.6395   -2.2522    5.2960 C   0  0  0  0  0  0  0  0  0  0  0  0
   -2.4974   -3.3500    5.2362 C   0  0  0  0  0  0  0  0  0  0  0  0
   -3.6136   -3.4363    6.0753 C   0  0  0  0  0  0  0  0  0  0  0  0
   -3.8725   -2.4075    6.9869 C   0  0  0  0  0  0  0  0  0  0  0  0
   -3.0197   -1.3088    7.0519 C   0  0  0  0  0  0  0  0  0  0  0  0
    0.9340   -0.0101    4.7380 C   0  0  0  0  0  0  0  0  0  0  0  0
    0.8118   -1.0498    4.1152 O   0  0  0  0  0  0  0  0  0  0  0  0
    5.3710    0.6187   -0.4924 C   0  0  1  0  0  0  0  0  0  0  0  0
    5.5584   -0.9120   -0.4971 C   0  0  0  0  0  0  0  0  0  0  0  0
    4.4700   -1.6541   -1.2352 C   0  0  0  0  0  0  0  0  0  0  0  0
    3.5808   -1.0551   -2.0424 C   0  0  0  0  0  0  0  0  0  0  0  0
    3.5754    0.4282   -2.3101 C   0  0  0  0  0  0  0  0  0  0  0  0
    4.8836    1.1041   -1.8771 C   0  0  0  0  0  0  0  0  0  0  0  0
    3.2809   -0.5105    0.5975 H   0  0  0  0  0  0  0  0  0  0  0  0
    1.5297    0.3250    1.8857 H   0  0  0  0  0  0  0  0  0  0  0  0
    2.3362    1.9249    1.9246 H   0  0  0  0  0  0  0  0  0  0  0  0
    3.8763    1.1730    3.6810 H   0  0  0  0  0  0  0  0  0  0  0  0
    3.2477   -0.5074    3.5670 H   0  0  0  0  0  0  0  0  0  0  0  0
   -1.4882    0.6493    7.1673 H   0  0  0  0  0  0  0  0  0  0  0  0
   -0.7736   -2.1926    4.6401 H   0  0  0  0  0  0  0  0  0  0  0  0
   -2.2896   -4.1512    4.5223 H   0  0  0  0  0  0  0  0  0  0  0  0
   -4.2790   -4.3016    6.0195 H   0  0  0  0  0  0  0  0  0  0  0  0
   -4.7407   -2.4624    7.6482 H   0  0  0  0  0  0  0  0  0  0  0  0
   -3.2286   -0.5088    7.7676 H   0  0  0  0  0  0  0  0  0  0  0  0
    6.3391    1.0990   -0.2881 H   0  0  0  0  0  0  0  0  0  0  0  0
    5.6438   -1.2938    0.5357 H   0  0  0  0  0  0  0  0  0  0  0  0
    6.5317   -1.1502   -0.9662 H   0  0  0  0  0  0  0  0  0  0  0  0
    4.4306   -2.7413   -1.1034 H   0  0  0  0  0  0  0  0  0  0  0  0
    2.8142   -1.6605   -2.5393 H   0  0  0  0  0  0  0  0  0  0  0  0
    2.7112    0.8887   -1.7938 H   0  0  0  0  0  0  0  0  0  0  0  0
    3.3958    0.6088   -3.3844 H   0  0  0  0  0  0  0  0  0  0  0  0
    4.7719    2.1992   -1.8641 H   0  0  0  0  0  0  0  0  0  0  0  0
    5.6712    0.8712   -2.6143 H   0  0  0  0  0  0  0  0  0  0  0  0
  1  2  2  0
  2  3  1  0
  2 20  1  0
  3  4  1  0
  3 26  1  0
  4  5  1  0
  4 27  1  0
  4 28  1  0
  5  6  1  0
  5 29  1  0
  5 30  1  0
  6  7  1  0
  6 18  1  0
  7  8  2  0
  7  9  1  0
  9 10  1  0
 10 11  2  0
 10 18  1  0
 11 12  1  0
 11 31  1  0
 12 13  2  0
 12 17  1  0
 13 14  1  0
 13 32  1  0
 14 15  2  0
 14 33  1  0
 15 16  1  0
 15 34  1  0
 16 17  2  0
 16 35  1  0
 17 36  1  0
 18 19  2  0
 20 21  1  0
 20 25  1  0
 20 37  1  1
 21 22  1  0
 21 38  1  0
 21 39  1  0
 22 23  2  0
 22 40  1  0
 23 24  1  0
 23 41  1  0
 24 25  1  0
 24 42  1  0
 24 43  1  0
 25 44  1  0
 25 45  1  0
M  END

