
     RDKit          3D

 32 32  0  0  0  0  0  0  0  0999 V2000
    5.3217    2.2784    3.0930 C   0  0  0  0  0  0  0  0  0  0  0  0
    4.9517    0.9847    2.6178 O   0  0  0  0  0  0  0  0  0  0  0  0
    5.0661    0.7918    1.2895 C   0  0  0  0  0  0  0  0  0  0  0  0
    5.3425    1.6702    0.5137 O   0  0  0  0  0  0  0  0  0  0  0  0
    4.6737   -0.6315    0.8802 C   0  0  1  0  0  0  0  0  0  0  0  0
    5.0611   -0.8897   -0.5793 C   0  0  0  0  0  0  0  0  0  0  0  0
    5.1163   -1.7121    1.8892 C   0  0  1  0  0  0  0  0  0  0  0  0
    4.4624   -3.0743    1.6814 C   0  0  0  0  0  0  0  0  0  0  0  0
    6.9992   -1.8749    1.7860 S   0  0  0  0  0  0  0  0  0  0  0  0
    7.5247   -0.4511    1.7701 O   0  0  0  0  0  0  0  0  0  0  0  0
    7.2926   -2.5033    3.4743 C   0  0  0  0  0  0  0  0  0  0  0  0
    7.2979   -3.8746    3.7466 C   0  0  0  0  0  0  0  0  0  0  0  0
    7.5844   -4.3220    5.0390 C   0  0  0  0  0  0  0  0  0  0  0  0
    7.8852   -3.3873    6.0356 C   0  0  0  0  0  0  0  0  0  0  0  0
    8.2518   -3.9428    7.6503 Cl  0  0  0  0  0  0  0  0  0  0  0  0
    7.9121   -2.0158    5.7556 C   0  0  0  0  0  0  0  0  0  0  0  0
    7.6210   -1.5747    4.4641 C   0  0  0  0  0  0  0  0  0  0  0  0
    5.1331    2.2744    4.1741 H   0  0  0  0  0  0  0  0  0  0  0  0
    4.7258    3.0631    2.6032 H   0  0  0  0  0  0  0  0  0  0  0  0
    6.3867    2.4671    2.8908 H   0  0  0  0  0  0  0  0  0  0  0  0
    3.5679   -0.6285    0.9529 H   0  0  0  0  0  0  0  0  0  0  0  0
    6.1529   -0.8434   -0.7083 H   0  0  0  0  0  0  0  0  0  0  0  0
    4.6305   -0.1117   -1.2235 H   0  0  0  0  0  0  0  0  0  0  0  0
    4.6988   -1.8686   -0.9262 H   0  0  0  0  0  0  0  0  0  0  0  0
    4.9201   -1.3398    2.9032 H   0  0  0  0  0  0  0  0  0  0  0  0
    4.7342   -3.5252    0.7144 H   0  0  0  0  0  0  0  0  0  0  0  0
    3.3653   -2.9711    1.7077 H   0  0  0  0  0  0  0  0  0  0  0  0
    4.7404   -3.7798    2.4786 H   0  0  0  0  0  0  0  0  0  0  0  0
    7.0920   -4.6010    2.9559 H   0  0  0  0  0  0  0  0  0  0  0  0
    7.5898   -5.3875    5.2741 H   0  0  0  0  0  0  0  0  0  0  0  0
    8.1675   -1.3071    6.5453 H   0  0  0  0  0  0  0  0  0  0  0  0
    7.6572   -0.5154    4.1974 H   0  0  0  0  0  0  0  0  0  0  0  0
  1  2  1  0
  1 18  1  0
  1 19  1  0
  1 20  1  0
  2  3  1  0
  3  4  2  0
  3  5  1  0
  5  6  1  0
  5  7  1  0
  5 21  1  6
  6 22  1  0
  6 23  1  0
  6 24  1  0
  7  8  1  0
  7  9  1  0
  7 25  1  1
  8 26  1  0
  8 27  1  0
  8 28  1  0
  9 10  1  1
  9 11  1  0
 11 12  2  0
 11 17  1  0
 12 13  1  0
 12 29  1  0
 13 14  2  0
 13 30  1  0
 14 15  1  0
 14 16  1  0
 16 17  2  0
 16 31  1  0
 17 32  1  0
M  CHG  2   9   1  10  -1
M  END

