
     RDKit          3D

 47 50  0  0  0  0  0  0  0  0999 V2000
   -1.9701    0.8937   -2.8462 C   0  0  0  0  0  0  0  0  0  0  0  0
   -2.4909    1.0463   -1.5566 C   0  0  0  0  0  0  0  0  0  0  0  0
   -1.6481    1.0076   -0.4453 C   0  0  0  0  0  0  0  0  0  0  0  0
   -0.2718    0.8238   -0.6316 C   0  0  0  0  0  0  0  0  0  0  0  0
    0.5807    0.7978    0.5085 N   0  0  0  0  0  0  0  0  0  0  0  0
    0.4180    1.6991    1.5126 N   0  0  0  0  0  0  0  0  0  0  0  0
    1.2984    1.4208    2.4017 N   0  0  0  0  0  0  0  0  0  0  0  0
    2.0465    0.3591    2.0348 N   0  0  0  0  0  0  0  0  0  0  0  0
    1.6005   -0.0352    0.8570 C   0  0  0  0  0  0  0  0  0  0  0  0
    2.1192   -1.2050    0.0810 C   0  0  0  0  0  0  0  0  0  0  0  0
    2.5650   -2.3449    1.0142 C   0  0  0  0  0  0  0  0  0  0  0  0
    1.4383   -2.9018    1.7481 N   0  0  0  0  0  0  0  0  0  0  0  0
    1.6079   -3.0955    3.1831 C   0  0  0  0  0  0  0  0  0  0  0  0
    2.3354   -4.3990    3.5179 C   0  0  0  0  0  0  0  0  0  0  0  0
    1.6619   -5.5436    2.9144 N   0  0  0  0  0  0  0  0  0  0  0  0
    2.2830   -6.8055    3.2965 C   0  0  0  0  0  0  0  0  0  0  0  0
    1.4912   -8.0088    2.7870 C   0  0  0  0  0  0  0  0  0  0  0  0
    1.3083   -7.9284    1.2695 C   0  0  0  0  0  0  0  0  0  0  0  0
    0.7007   -6.5767    0.8868 C   0  0  0  0  0  0  0  0  0  0  0  0
    1.4968   -5.3997    1.4634 C   0  0  1  0  0  0  0  0  0  0  0  0
    0.7971   -4.0623    1.1507 C   0  0  0  0  0  0  0  0  0  0  0  0
    0.2606    0.6896   -1.9197 C   0  0  0  0  0  0  0  0  0  0  0  0
   -0.5955    0.7156   -3.0238 C   0  0  0  0  0  0  0  0  0  0  0  0
   -2.6353    0.9196   -3.7125 H   0  0  0  0  0  0  0  0  0  0  0  0
   -3.5642    1.1917   -1.4124 H   0  0  0  0  0  0  0  0  0  0  0  0
   -2.0379    1.1242    0.5666 H   0  0  0  0  0  0  0  0  0  0  0  0
    2.9737   -0.8818   -0.5416 H   0  0  0  0  0  0  0  0  0  0  0  0
    1.3425   -1.5640   -0.6114 H   0  0  0  0  0  0  0  0  0  0  0  0
    3.2981   -1.9382    1.7256 H   0  0  0  0  0  0  0  0  0  0  0  0
    3.1019   -3.1001    0.4071 H   0  0  0  0  0  0  0  0  0  0  0  0
    0.6054   -3.1290    3.6464 H   0  0  0  0  0  0  0  0  0  0  0  0
    2.1354   -2.2283    3.6069 H   0  0  0  0  0  0  0  0  0  0  0  0
    2.3601   -4.5417    4.6118 H   0  0  0  0  0  0  0  0  0  0  0  0
    3.3989   -4.3303    3.1821 H   0  0  0  0  0  0  0  0  0  0  0  0
    2.3531   -6.8343    4.3968 H   0  0  0  0  0  0  0  0  0  0  0  0
    3.3316   -6.8691    2.9139 H   0  0  0  0  0  0  0  0  0  0  0  0
    0.5033   -8.0192    3.2795 H   0  0  0  0  0  0  0  0  0  0  0  0
    2.0081   -8.9398    3.0736 H   0  0  0  0  0  0  0  0  0  0  0  0
    0.6758   -8.7550    0.9047 H   0  0  0  0  0  0  0  0  0  0  0  0
    2.2909   -8.0429    0.7760 H   0  0  0  0  0  0  0  0  0  0  0  0
   -0.3331   -6.5175    1.2714 H   0  0  0  0  0  0  0  0  0  0  0  0
    0.6433   -6.4705   -0.2100 H   0  0  0  0  0  0  0  0  0  0  0  0
    2.5017   -5.3912    0.9697 H   0  0  0  0  0  0  0  0  0  0  0  0
   -0.2393   -4.1265    1.5298 H   0  0  0  0  0  0  0  0  0  0  0  0
    0.7319   -3.9319    0.0579 H   0  0  0  0  0  0  0  0  0  0  0  0
    1.3378    0.5873   -2.0595 H   0  0  0  0  0  0  0  0  0  0  0  0
   -0.1803    0.6105   -4.0290 H   0  0  0  0  0  0  0  0  0  0  0  0
  1  2  2  0
  1 23  1  0
  1 24  1  0
  2  3  1  0
  2 25  1  0
  3  4  2  0
  3 26  1  0
  4  5  1  0
  4 22  1  0
  5  6  1  0
  5  9  1  0
  6  7  2  0
  7  8  1  0
  8  9  2  0
  9 10  1  0
 10 11  1  0
 10 27  1  0
 10 28  1  0
 11 12  1  0
 11 29  1  0
 11 30  1  0
 12 13  1  0
 12 21  1  0
 13 14  1  0
 13 31  1  0
 13 32  1  0
 14 15  1  0
 14 33  1  0
 14 34  1  0
 15 16  1  0
 15 20  1  0
 16 17  1  0
 16 35  1  0
 16 36  1  0
 17 18  1  0
 17 37  1  0
 17 38  1  0
 18 19  1  0
 18 39  1  0
 18 40  1  0
 19 20  1  0
 19 41  1  0
 19 42  1  0
 20 21  1  0
 20 43  1  6
 21 44  1  0
 21 45  1  0
 22 23  2  0
 22 46  1  0
 23 47  1  0
M  END

