
     RDKit          3D

170175  0  0  0  0  0  0  0  0999 V2000
   26.0000   -2.7876   12.1896 C   0  0  0  0  0  0  0  0  0  0  0  0
   24.8715   -3.0601   11.1940 C   0  0  0  0  0  0  0  0  0  0  0  0
   25.3627   -3.3324    9.7687 C   0  0  0  0  0  0  0  0  0  0  0  0
   24.2392   -3.6066    8.7649 C   0  0  0  0  0  0  0  0  0  0  0  0
   24.7314   -3.8790    7.3403 C   0  0  0  0  0  0  0  0  0  0  0  0
   23.6083   -4.1538    6.3360 C   0  0  0  0  0  0  0  0  0  0  0  0
   24.1019   -4.4268    4.9121 C   0  0  0  0  0  0  0  0  0  0  0  0
   22.9801   -4.7026    3.9065 C   0  0  0  0  0  0  0  0  0  0  0  0
   23.4758   -4.9766    2.4835 C   0  0  0  0  0  0  0  0  0  0  0  0
   22.3558   -5.2542    1.4764 C   0  0  0  0  0  0  0  0  0  0  0  0
   22.8544   -5.5296    0.0547 C   0  0  0  0  0  0  0  0  0  0  0  0
   21.7367   -5.8096   -0.9543 C   0  0  0  0  0  0  0  0  0  0  0  0
   22.2389   -6.0868   -2.3744 C   0  0  0  0  0  0  0  0  0  0  0  0
   21.1240   -6.3702   -3.3856 C   0  0  0  0  0  0  0  0  0  0  0  0
   21.6307   -6.6497   -4.8036 C   0  0  0  0  0  0  0  0  0  0  0  0
   20.5191   -6.9376   -5.8171 C   0  0  0  0  0  0  0  0  0  0  0  0
   21.0317   -7.2200   -7.2324 C   0  0  0  0  0  0  0  0  0  0  0  0
   19.9232   -7.5137   -8.2478 C   0  0  0  0  0  0  0  0  0  0  0  0
   20.4492   -7.7984   -9.6573 C   0  0  0  0  0  0  0  0  0  0  0  0
   19.3238   -8.0967  -10.6518 C   0  0  0  0  0  0  0  0  0  0  0  0
   19.8171   -8.3801  -12.0103 N   0  0  0  0  0  0  0  0  0  0  0  0
   20.1209   -9.7083  -12.3158 C   0  0  0  0  0  0  0  0  0  0  0  0
   19.9792  -10.5964  -11.4950 O   0  0  0  0  0  0  0  0  0  0  0  0
   20.6228   -9.9686  -13.6931 C   0  0  0  0  0  0  0  0  0  0  0  0
   20.9246  -11.2653  -14.0537 C   0  0  0  0  0  0  0  0  0  0  0  0
   21.4121  -11.5965  -15.3521 C   0  0  0  0  0  0  0  0  0  0  0  0
   21.6893  -12.9643  -15.6088 C   0  0  0  0  0  0  0  0  0  0  0  0
   21.8980  -14.1602  -15.7350 C   0  0  0  0  0  0  0  0  0  0  0  0
   22.1818  -15.5295  -16.0065 C   0  0  0  0  0  0  0  0  0  0  0  0
   21.9791  -16.5318  -15.0330 C   0  0  0  0  0  0  0  0  0  0  0  0
   22.2658  -17.8639  -15.3275 C   0  0  0  0  0  0  0  0  0  0  0  0
   22.7565  -18.2166  -16.5899 C   0  0  0  0  0  0  0  0  0  0  0  0
   22.9612  -17.2301  -17.5622 C   0  0  0  0  0  0  0  0  0  0  0  0
   22.6780  -15.8955  -17.2787 C   0  0  0  0  0  0  0  0  0  0  0  0
   21.5855  -10.5542  -16.2897 C   0  0  0  0  0  0  0  0  0  0  0  0
   21.2752   -9.2186  -15.9239 C   0  0  0  0  0  0  0  0  0  0  0  0
   21.4406   -8.1549  -16.8517 C   0  0  0  0  0  0  0  0  0  0  0  0
   21.1406   -6.8579  -16.4905 C   0  0  0  0  0  0  0  0  0  0  0  0
   20.6589   -6.5255  -15.1903 C   0  0  0  0  0  0  0  0  0  0  0  0
   20.3866   -5.1569  -14.9324 C   0  0  0  0  0  0  0  0  0  0  0  0
   20.1811   -3.9607  -14.8041 C   0  0  0  0  0  0  0  0  0  0  0  0
   19.9039   -2.5911  -14.5276 C   0  0  0  0  0  0  0  0  0  0  0  0
   19.4335   -2.2246  -13.2458 C   0  0  0  0  0  0  0  0  0  0  0  0
   19.1573   -0.8898  -12.9568 C   0  0  0  0  0  0  0  0  0  0  0  0
   19.3435    0.0965  -13.9329 C   0  0  0  0  0  0  0  0  0  0  0  0
   19.8088   -0.2566  -15.2048 C   0  0  0  0  0  0  0  0  0  0  0  0
   20.0884   -1.5890  -15.5049 C   0  0  0  0  0  0  0  0  0  0  0  0
   20.4848   -7.5672  -14.2520 C   0  0  0  0  0  0  0  0  0  0  0  0
   20.7892   -8.9038  -14.6198 C   0  0  0  0  0  0  0  0  0  0  0  0
   19.9870   -7.2827  -12.8755 C   0  0  0  0  0  0  0  0  0  0  0  0
   19.7275   -6.1603  -12.4848 O   0  0  0  0  0  0  0  0  0  0  0  0
   21.9421   -8.4136  -18.2304 C   0  0  0  0  0  0  0  0  0  0  0  0
   22.0970   -7.5186  -19.0407 O   0  0  0  0  0  0  0  0  0  0  0  0
   22.2277   -9.7458  -18.5430 N   0  0  0  0  0  0  0  0  0  0  0  0
   22.7490  -10.0433  -19.8918 C   0  0  0  0  0  0  0  0  0  0  0  0
   21.7065  -10.6169  -20.8583 C   0  0  0  0  0  0  0  0  0  0  0  0
   20.5237   -9.6973  -21.1758 C   0  0  0  0  0  0  0  0  0  0  0  0
   19.5582  -10.2979  -22.2022 C   0  0  0  0  0  0  0  0  0  0  0  0
   18.3606   -9.4010  -22.5293 C   0  0  0  0  0  0  0  0  0  0  0  0
   17.4034  -10.0024  -23.5625 C   0  0  0  0  0  0  0  0  0  0  0  0
   16.2058   -9.1089  -23.8988 C   0  0  0  0  0  0  0  0  0  0  0  0
   15.2547   -9.7145  -24.9353 C   0  0  0  0  0  0  0  0  0  0  0  0
   14.0574   -8.8237  -25.2801 C   0  0  0  0  0  0  0  0  0  0  0  0
   13.1117   -9.4336  -26.3190 C   0  0  0  0  0  0  0  0  0  0  0  0
   11.9146   -8.5454  -26.6711 C   0  0  0  0  0  0  0  0  0  0  0  0
   10.9733   -9.1591  -27.7118 C   0  0  0  0  0  0  0  0  0  0  0  0
    9.7762   -8.2732  -28.0696 C   0  0  0  0  0  0  0  0  0  0  0  0
    8.8383   -8.8901  -29.1114 C   0  0  0  0  0  0  0  0  0  0  0  0
    7.6411   -8.0060  -29.4733 C   0  0  0  0  0  0  0  0  0  0  0  0
    6.7056   -8.6253  -30.5159 C   0  0  0  0  0  0  0  0  0  0  0  0
    5.5082   -7.7426  -30.8803 C   0  0  0  0  0  0  0  0  0  0  0  0
    4.5738   -8.3629  -31.9230 C   0  0  0  0  0  0  0  0  0  0  0  0
    3.3758   -7.4809  -32.2889 C   0  0  0  0  0  0  0  0  0  0  0  0
    2.4484   -8.1082  -33.3307 C   0  0  0  0  0  0  0  0  0  0  0  0
   22.0986  -10.8351  -17.6609 C   0  0  0  0  0  0  0  0  0  0  0  0
   22.4035  -11.9515  -18.0364 O   0  0  0  0  0  0  0  0  0  0  0  0
   25.6107   -2.5964   13.2025 H   0  0  0  0  0  0  0  0  0  0  0  0
   26.5949   -1.9080   11.8907 H   0  0  0  0  0  0  0  0  0  0  0  0
   26.6920   -3.6441   12.2557 H   0  0  0  0  0  0  0  0  0  0  0  0
   24.1765   -2.2006   11.1798 H   0  0  0  0  0  0  0  0  0  0  0  0
   24.2727   -3.9217   11.5418 H   0  0  0  0  0  0  0  0  0  0  0  0
   26.0584   -4.1925    9.7819 H   0  0  0  0  0  0  0  0  0  0  0  0
   25.9619   -2.4705    9.4196 H   0  0  0  0  0  0  0  0  0  0  0  0
   23.5439   -2.7464    8.7520 H   0  0  0  0  0  0  0  0  0  0  0  0
   23.6402   -4.4682    9.1145 H   0  0  0  0  0  0  0  0  0  0  0  0
   25.4269   -4.7390    7.3533 H   0  0  0  0  0  0  0  0  0  0  0  0
   25.3303   -3.0174    6.9906 H   0  0  0  0  0  0  0  0  0  0  0  0
   22.9128   -3.2938    6.3223 H   0  0  0  0  0  0  0  0  0  0  0  0
   23.0092   -5.0153    6.6856 H   0  0  0  0  0  0  0  0  0  0  0  0
   24.7978   -5.2864    4.9263 H   0  0  0  0  0  0  0  0  0  0  0  0
   24.7008   -3.5651    4.5625 H   0  0  0  0  0  0  0  0  0  0  0  0
   22.2844   -3.8429    3.8912 H   0  0  0  0  0  0  0  0  0  0  0  0
   22.3808   -5.5641    4.2560 H   0  0  0  0  0  0  0  0  0  0  0  0
   24.1722   -5.8358    2.4995 H   0  0  0  0  0  0  0  0  0  0  0  0
   24.0748   -4.1149    2.1340 H   0  0  0  0  0  0  0  0  0  0  0  0
   21.6596   -4.3948    1.4589 H   0  0  0  0  0  0  0  0  0  0  0  0
   21.7564   -6.1156    1.8259 H   0  0  0  0  0  0  0  0  0  0  0  0
   23.5516   -6.3881    0.0732 H   0  0  0  0  0  0  0  0  0  0  0  0
   23.4533   -4.6678   -0.2948 H   0  0  0  0  0  0  0  0  0  0  0  0
   21.0399   -4.9508   -0.9747 H   0  0  0  0  0  0  0  0  0  0  0  0
   21.1373   -6.6710   -0.6048 H   0  0  0  0  0  0  0  0  0  0  0  0
   22.9371   -6.9444   -2.3527 H   0  0  0  0  0  0  0  0  0  0  0  0
   22.8375   -5.2249   -2.7240 H   0  0  0  0  0  0  0  0  0  0  0  0
   20.4263   -5.5123   -3.4096 H   0  0  0  0  0  0  0  0  0  0  0  0
   20.5249   -7.2316   -3.0360 H   0  0  0  0  0  0  0  0  0  0  0  0
   22.3302   -7.5061   -4.7780 H   0  0  0  0  0  0  0  0  0  0  0  0
   22.2286   -5.7876   -5.1537 H   0  0  0  0  0  0  0  0  0  0  0  0
   19.8201   -6.0809   -5.8458 H   0  0  0  0  0  0  0  0  0  0  0  0
   19.9206   -7.7994   -5.4672 H   0  0  0  0  0  0  0  0  0  0  0  0
   21.7322   -8.0750   -7.2027 H   0  0  0  0  0  0  0  0  0  0  0  0
   21.6278   -6.3575   -7.5840 H   0  0  0  0  0  0  0  0  0  0  0  0
   19.2235   -6.6581   -8.2826 H   0  0  0  0  0  0  0  0  0  0  0  0
   19.3272   -8.3768   -7.8976 H   0  0  0  0  0  0  0  0  0  0  0  0
   21.1379   -8.6600   -9.6279 H   0  0  0  0  0  0  0  0  0  0  0  0
   21.0275   -6.9314  -10.0197 H   0  0  0  0  0  0  0  0  0  0  0  0
   18.6462   -7.2371  -10.7278 H   0  0  0  0  0  0  0  0  0  0  0  0
   18.7578   -8.9796  -10.3287 H   0  0  0  0  0  0  0  0  0  0  0  0
   20.7838  -12.0552  -13.3152 H   0  0  0  0  0  0  0  0  0  0  0  0
   21.5960  -16.2513  -14.0497 H   0  0  0  0  0  0  0  0  0  0  0  0
   22.1059  -18.6334  -14.5682 H   0  0  0  0  0  0  0  0  0  0  0  0
   22.9799  -19.2622  -16.8165 H   0  0  0  0  0  0  0  0  0  0  0  0
   23.3445  -17.5051  -18.5480 H   0  0  0  0  0  0  0  0  0  0  0  0
   22.8324  -15.1146  -18.0260 H   0  0  0  0  0  0  0  0  0  0  0  0
   21.2805   -6.0681  -17.2293 H   0  0  0  0  0  0  0  0  0  0  0  0
   19.2934   -3.0056  -12.4957 H   0  0  0  0  0  0  0  0  0  0  0  0
   18.7939   -0.6144  -11.9635 H   0  0  0  0  0  0  0  0  0  0  0  0
   19.1256    1.1423  -13.7020 H   0  0  0  0  0  0  0  0  0  0  0  0
   19.9543    0.5128  -15.9671 H   0  0  0  0  0  0  0  0  0  0  0  0
   20.4517   -1.8699  -16.4957 H   0  0  0  0  0  0  0  0  0  0  0  0
   23.5656  -10.7662  -19.7667 H   0  0  0  0  0  0  0  0  0  0  0  0
   23.1552   -9.1007  -20.2778 H   0  0  0  0  0  0  0  0  0  0  0  0
   21.3434  -11.5802  -20.4631 H   0  0  0  0  0  0  0  0  0  0  0  0
   22.2431  -10.8566  -21.7941 H   0  0  0  0  0  0  0  0  0  0  0  0
   20.8971   -8.7239  -21.5394 H   0  0  0  0  0  0  0  0  0  0  0  0
   19.9671   -9.4739  -20.2477 H   0  0  0  0  0  0  0  0  0  0  0  0
   19.1934  -11.2744  -21.8327 H   0  0  0  0  0  0  0  0  0  0  0  0
   20.1104  -10.5206  -23.1345 H   0  0  0  0  0  0  0  0  0  0  0  0
   18.7265   -8.4236  -22.8950 H   0  0  0  0  0  0  0  0  0  0  0  0
   17.8039   -9.1814  -21.5992 H   0  0  0  0  0  0  0  0  0  0  0  0
   17.0373  -10.9793  -23.1949 H   0  0  0  0  0  0  0  0  0  0  0  0
   17.9628  -10.2248  -24.4904 H   0  0  0  0  0  0  0  0  0  0  0  0
   16.5714   -8.1317  -24.2659 H   0  0  0  0  0  0  0  0  0  0  0  0
   15.6436   -8.8875  -22.9723 H   0  0  0  0  0  0  0  0  0  0  0  0
   14.8881  -10.6908  -24.5667 H   0  0  0  0  0  0  0  0  0  0  0  0
   15.8192   -9.9388  -25.8597 H   0  0  0  0  0  0  0  0  0  0  0  0
   14.4234   -7.8472  -25.6488 H   0  0  0  0  0  0  0  0  0  0  0  0
   13.4907   -8.6000  -24.3570 H   0  0  0  0  0  0  0  0  0  0  0  0
   12.7449  -10.4094  -25.9492 H   0  0  0  0  0  0  0  0  0  0  0  0
   13.6803   -9.6597  -27.2404 H   0  0  0  0  0  0  0  0  0  0  0  0
   12.2808   -7.5695  -27.0411 H   0  0  0  0  0  0  0  0  0  0  0  0
   11.3441   -8.3198  -25.7508 H   0  0  0  0  0  0  0  0  0  0  0  0
   10.6066  -10.1345  -27.3409 H   0  0  0  0  0  0  0  0  0  0  0  0
   11.5453   -9.3866  -28.6307 H   0  0  0  0  0  0  0  0  0  0  0  0
   10.1424   -7.2977  -28.4407 H   0  0  0  0  0  0  0  0  0  0  0  0
    9.2029   -8.0460  -27.1514 H   0  0  0  0  0  0  0  0  0  0  0  0
    8.4719   -9.8652  -28.7396 H   0  0  0  0  0  0  0  0  0  0  0  0
    9.4128   -9.1184  -30.0286 H   0  0  0  0  0  0  0  0  0  0  0  0
    8.0072   -7.0308  -29.8454 H   0  0  0  0  0  0  0  0  0  0  0  0
    7.0658   -7.7778  -28.5566 H   0  0  0  0  0  0  0  0  0  0  0  0
    6.3396   -9.6004  -30.1434 H   0  0  0  0  0  0  0  0  0  0  0  0
    7.2817   -8.8542  -31.4319 H   0  0  0  0  0  0  0  0  0  0  0  0
    5.8741   -6.7675  -31.2529 H   0  0  0  0  0  0  0  0  0  0  0  0
    4.9317   -7.5138  -29.9644 H   0  0  0  0  0  0  0  0  0  0  0  0
    4.2073   -9.3380  -31.5506 H   0  0  0  0  0  0  0  0  0  0  0  0
    5.1500   -8.5919  -32.8392 H   0  0  0  0  0  0  0  0  0  0  0  0
    3.7430   -6.5069  -32.6608 H   0  0  0  0  0  0  0  0  0  0  0  0
    2.8007   -7.2526  -31.3729 H   0  0  0  0  0  0  0  0  0  0  0  0
    2.9843   -8.3139  -34.2727 H   0  0  0  0  0  0  0  0  0  0  0  0
    1.5995   -7.4475  -33.5692 H   0  0  0  0  0  0  0  0  0  0  0  0
    2.0338   -9.0661  -32.9737 H   0  0  0  0  0  0  0  0  0  0  0  0
  1  2  1  0
  1 77  1  0
  1 78  1  0
  1 79  1  0
  2  3  1  0
  2 80  1  0
  2 81  1  0
  3  4  1  0
  3 82  1  0
  3 83  1  0
  4  5  1  0
  4 84  1  0
  4 85  1  0
  5  6  1  0
  5 86  1  0
  5 87  1  0
  6  7  1  0
  6 88  1  0
  6 89  1  0
  7  8  1  0
  7 90  1  0
  7 91  1  0
  8  9  1  0
  8 92  1  0
  8 93  1  0
  9 10  1  0
  9 94  1  0
  9 95  1  0
 10 11  1  0
 10 96  1  0
 10 97  1  0
 11 12  1  0
 11 98  1  0
 11 99  1  0
 12 13  1  0
 12100  1  0
 12101  1  0
 13 14  1  0
 13102  1  0
 13103  1  0
 14 15  1  0
 14104  1  0
 14105  1  0
 15 16  1  0
 15106  1  0
 15107  1  0
 16 17  1  0
 16108  1  0
 16109  1  0
 17 18  1  0
 17110  1  0
 17111  1  0
 18 19  1  0
 18112  1  0
 18113  1  0
 19 20  1  0
 19114  1  0
 19115  1  0
 20 21  1  0
 20116  1  0
 20117  1  0
 21 22  1  0
 21 50  1  0
 22 23  2  0
 22 24  1  0
 24 25  1  0
 24 49  2  0
 25 26  2  0
 25118  1  0
 26 27  1  0
 26 35  1  0
 27 28  3  0
 28 29  1  0
 29 30  2  0
 29 34  1  0
 30 31  1  0
 30119  1  0
 31 32  2  0
 31120  1  0
 32 33  1  0
 32121  1  0
 33 34  2  0
 33122  1  0
 34123  1  0
 35 36  2  0
 35 75  1  0
 36 37  1  0
 36 49  1  0
 37 38  2  0
 37 52  1  0
 38 39  1  0
 38124  1  0
 39 40  1  0
 39 48  2  0
 40 41  3  0
 41 42  1  0
 42 43  2  0
 42 47  1  0
 43 44  1  0
 43125  1  0
 44 45  2  0
 44126  1  0
 45 46  1  0
 45127  1  0
 46 47  2  0
 46128  1  0
 47129  1  0
 48 49  1  0
 48 50  1  0
 50 51  2  0
 52 53  2  0
 52 54  1  0
 54 55  1  0
 54 75  1  0
 55 56  1  0
 55130  1  0
 55131  1  0
 56 57  1  0
 56132  1  0
 56133  1  0
 57 58  1  0
 57134  1  0
 57135  1  0
 58 59  1  0
 58136  1  0
 58137  1  0
 59 60  1  0
 59138  1  0
 59139  1  0
 60 61  1  0
 60140  1  0
 60141  1  0
 61 62  1  0
 61142  1  0
 61143  1  0
 62 63  1  0
 62144  1  0
 62145  1  0
 63 64  1  0
 63146  1  0
 63147  1  0
 64 65  1  0
 64148  1  0
 64149  1  0
 65 66  1  0
 65150  1  0
 65151  1  0
 66 67  1  0
 66152  1  0
 66153  1  0
 67 68  1  0
 67154  1  0
 67155  1  0
 68 69  1  0
 68156  1  0
 68157  1  0
 69 70  1  0
 69158  1  0
 69159  1  0
 70 71  1  0
 70160  1  0
 70161  1  0
 71 72  1  0
 71162  1  0
 71163  1  0
 72 73  1  0
 72164  1  0
 72165  1  0
 73 74  1  0
 73166  1  0
 73167  1  0
 74168  1  0
 74169  1  0
 74170  1  0
 75 76  2  0
M  END

