
     RDKit          3D

 38 40  0  0  0  0  0  0  0  0999 V2000
    0.7981    0.3253   -0.1054 C   0  0  0  0  0  0  0  0  0  0  0  0
    2.2988    0.0909   -0.1800 C   0  0  1  0  0  0  0  0  0  0  0  0
    2.6892   -0.4609   -1.4586 O   0  0  0  0  0  0  0  0  0  0  0  0
    2.6974    0.3205   -2.5445 C   0  0  0  0  0  0  0  0  0  0  0  0
    2.3893    1.4875   -2.5813 O   0  0  0  0  0  0  0  0  0  0  0  0
    3.1503   -0.4167   -3.7435 C   0  0  0  0  0  0  0  0  0  0  0  0
    3.2749    0.0206   -5.0441 C   0  0  0  0  0  0  0  0  0  0  0  0
    3.7679   -1.0842   -5.7902 C   0  0  0  0  0  0  0  0  0  0  0  0
    3.9003   -2.0954   -4.8712 C   0  0  0  0  0  0  0  0  0  0  0  0
    4.3664   -3.4498   -5.0400 N   0  0  0  0  0  0  0  0  0  0  0  0
    4.6848   -3.7605   -6.1792 O   0  0  0  0  0  0  0  0  0  0  0  0
    4.4064   -4.1634   -4.0540 O   0  0  0  0  0  0  0  0  0  0  0  0
    3.5336   -1.7141   -3.6415 O   0  0  0  0  0  0  0  0  0  0  0  0
    3.0964    1.3520    0.2103 C   0  0  0  0  0  0  0  0  0  0  0  0
    2.5170    2.3018    0.7071 O   0  0  0  0  0  0  0  0  0  0  0  0
    4.4586    1.3927    0.0113 N   0  0  0  0  0  0  0  0  0  0  0  0
    5.1234    2.6911    0.2712 C   0  0  0  0  0  0  0  0  0  0  0  0
    6.5306    2.5352   -0.3297 C   0  0  0  0  0  0  0  0  0  0  0  0
    6.6934    1.0376   -0.4339 C   0  0  0  0  0  0  0  0  0  0  0  0
    7.8386    0.2888   -0.6820 C   0  0  0  0  0  0  0  0  0  0  0  0
    7.7475   -1.1079   -0.7532 C   0  0  0  0  0  0  0  0  0  0  0  0
    6.5105   -1.7305   -0.5715 C   0  0  0  0  0  0  0  0  0  0  0  0
    5.3491   -0.9885   -0.3179 C   0  0  0  0  0  0  0  0  0  0  0  0
    5.4443    0.4072   -0.2579 C   0  0  0  0  0  0  0  0  0  0  0  0
    0.2670   -0.5983   -0.3791 H   0  0  0  0  0  0  0  0  0  0  0  0
    0.4962    1.1422   -0.7732 H   0  0  0  0  0  0  0  0  0  0  0  0
    0.5220    0.6079    0.9192 H   0  0  0  0  0  0  0  0  0  0  0  0
    2.5784   -0.7103    0.5222 H   0  0  0  0  0  0  0  0  0  0  0  0
    3.0360    1.0206   -5.3976 H   0  0  0  0  0  0  0  0  0  0  0  0
    4.0013   -1.1501   -6.8489 H   0  0  0  0  0  0  0  0  0  0  0  0
    5.1549    2.8704    1.3594 H   0  0  0  0  0  0  0  0  0  0  0  0
    4.5287    3.4995   -0.1722 H   0  0  0  0  0  0  0  0  0  0  0  0
    7.3030    3.0096    0.2941 H   0  0  0  0  0  0  0  0  0  0  0  0
    6.5909    3.0006   -1.3296 H   0  0  0  0  0  0  0  0  0  0  0  0
    8.8018    0.7887   -0.8170 H   0  0  0  0  0  0  0  0  0  0  0  0
    8.6401   -1.7073   -0.9463 H   0  0  0  0  0  0  0  0  0  0  0  0
    6.4354   -2.8192   -0.6262 H   0  0  0  0  0  0  0  0  0  0  0  0
    4.4076   -1.5153   -0.1894 H   0  0  0  0  0  0  0  0  0  0  0  0
  1  2  1  0
  1 25  1  0
  1 26  1  0
  1 27  1  0
  2  3  1  0
  2 14  1  0
  2 28  1  1
  3  4  1  0
  4  5  2  0
  4  6  1  0
  6  7  2  0
  6 13  1  0
  7  8  1  0
  7 29  1  0
  8  9  2  0
  8 30  1  0
  9 10  1  0
  9 13  1  0
 10 11  2  0
 10 12  1  0
 14 15  2  0
 14 16  1  0
 16 17  1  0
 16 24  1  0
 17 18  1  0
 17 31  1  0
 17 32  1  0
 18 19  1  0
 18 33  1  0
 18 34  1  0
 19 20  1  0
 19 24  2  0
 20 21  2  0
 20 35  1  0
 21 22  1  0
 21 36  1  0
 22 23  2  0
 22 37  1  0
 23 24  1  0
 23 38  1  0
M  CHG  2  10   1  12  -1
M  END

