
     RDKit          3D

 31 32  0  0  0  0  0  0  0  0999 V2000
    0.9844   -0.2360   -1.8017 C   0  0  0  0  0  0  0  0  0  0  0  0
    2.4091   -0.1767   -1.7634 O   0  0  0  0  0  0  0  0  0  0  0  0
    3.0075   -0.9696   -0.8723 C   0  0  0  0  0  0  0  0  0  0  0  0
    2.4005   -1.7085   -0.1262 O   0  0  0  0  0  0  0  0  0  0  0  0
    4.5036   -0.8767   -0.8754 C   0  0  0  0  0  0  0  0  0  0  0  0
    5.1522   -1.7042    0.0170 C   0  0  0  0  0  0  0  0  0  0  0  0
    6.5606   -1.7248    0.1118 C   0  0  0  0  0  0  0  0  0  0  0  0
    7.3701   -2.7756    1.2424 Cl  0  0  0  0  0  0  0  0  0  0  0  0
    7.2867   -0.9054   -0.7152 C   0  0  0  0  0  0  0  0  0  0  0  0
    6.6763   -0.0823   -1.6050 N   0  0  0  0  0  0  0  0  0  0  0  0
    7.5018    0.7814   -2.4752 C   0  0  0  0  0  0  0  0  0  0  0  0
    7.8823    2.1032   -1.8387 C   0  0  0  0  0  0  0  0  0  0  0  0
    6.9381    3.1343   -1.6969 C   0  0  0  0  0  0  0  0  0  0  0  0
    7.2990    4.3407   -1.1015 C   0  0  0  0  0  0  0  0  0  0  0  0
    8.6053    4.5472   -0.6399 C   0  0  0  0  0  0  0  0  0  0  0  0
    9.0208    6.0675    0.0942 Cl  0  0  0  0  0  0  0  0  0  0  0  0
    9.5563    3.5247   -0.7826 C   0  0  0  0  0  0  0  0  0  0  0  0
   11.1947    3.7323   -0.2342 Cl  0  0  0  0  0  0  0  0  0  0  0  0
    9.1871    2.3132   -1.3789 C   0  0  0  0  0  0  0  0  0  0  0  0
    5.2540    0.0311   -1.7478 C   0  0  0  0  0  0  0  0  0  0  0  0
    4.8078    0.8400   -2.5448 O   0  0  0  0  0  0  0  0  0  0  0  0
    0.6741    0.4703   -2.5812 H   0  0  0  0  0  0  0  0  0  0  0  0
    0.5538    0.0509   -0.8302 H   0  0  0  0  0  0  0  0  0  0  0  0
    0.6405   -1.2528   -2.0456 H   0  0  0  0  0  0  0  0  0  0  0  0
    4.5430   -2.3494    0.6532 H   0  0  0  0  0  0  0  0  0  0  0  0
    8.3774   -0.8846   -0.6872 H   0  0  0  0  0  0  0  0  0  0  0  0
    6.9063    0.9539   -3.3801 H   0  0  0  0  0  0  0  0  0  0  0  0
    8.4037    0.2149   -2.7447 H   0  0  0  0  0  0  0  0  0  0  0  0
    5.9188    2.9794   -2.0558 H   0  0  0  0  0  0  0  0  0  0  0  0
    6.5705    5.1455   -0.9897 H   0  0  0  0  0  0  0  0  0  0  0  0
    9.9492    1.5381   -1.4851 H   0  0  0  0  0  0  0  0  0  0  0  0
  1  2  1  0
  1 22  1  0
  1 23  1  0
  1 24  1  0
  2  3  1  0
  3  4  2  0
  3  5  1  0
  5  6  2  0
  5 20  1  0
  6  7  1  0
  6 25  1  0
  7  8  1  0
  7  9  2  0
  9 10  1  0
  9 26  1  0
 10 11  1  0
 10 20  1  0
 11 12  1  0
 11 27  1  0
 11 28  1  0
 12 13  2  0
 12 19  1  0
 13 14  1  0
 13 29  1  0
 14 15  2  0
 14 30  1  0
 15 16  1  0
 15 17  1  0
 17 18  1  0
 17 19  2  0
 19 31  1  0
 20 21  2  0
M  END

