
     RDKit          3D

 67 70  0  0  0  0  0  0  0  0999 V2000
    2.1626   -0.1480    2.7575 C   0  0  0  0  0  0  0  0  0  0  0  0
    3.2333   -0.0212    1.7001 C   0  0  0  0  0  0  0  0  0  0  0  0
    3.5335    1.2319    1.1404 C   0  0  0  0  0  0  0  0  0  0  0  0
    4.5375    1.3937    0.1771 C   0  0  0  0  0  0  0  0  0  0  0  0
    4.8420    2.7470   -0.4188 C   0  0  0  0  0  0  0  0  0  0  0  0
    5.2544    0.2605   -0.2330 C   0  0  0  0  0  0  0  0  0  0  0  0
    4.9656   -1.0050    0.2889 C   0  0  0  0  0  0  0  0  0  0  0  0
    5.7962   -2.1571   -0.2176 C   0  0  0  0  0  0  0  0  0  0  0  0
    6.8649   -1.9760   -0.7782 O   0  0  0  0  0  0  0  0  0  0  0  0
    5.2462   -3.4049   -0.0207 N   0  0  0  0  0  0  0  0  0  0  0  0
    5.7747   -4.6594   -0.3310 C   0  0  0  0  0  0  0  0  0  0  0  0
    7.0981   -4.8796   -0.7577 C   0  0  0  0  0  0  0  0  0  0  0  0
    7.5823   -6.1017   -0.9773 N   0  0  0  0  0  0  0  0  0  0  0  0
    6.7832   -7.1493   -0.8035 C   0  0  0  0  0  0  0  0  0  0  0  0
    5.4320   -7.0605   -0.4159 C   0  0  0  0  0  0  0  0  0  0  0  0
    4.6409   -8.3262   -0.3176 C   0  0  0  0  0  0  0  0  0  0  0  0
    4.9418   -9.2688    0.6807 C   0  0  0  0  0  0  0  0  0  0  0  0
    4.2277  -10.4696    0.7899 C   0  0  0  0  0  0  0  0  0  0  0  0
    4.5817  -11.4900    1.8450 C   0  0  0  0  0  0  0  0  0  0  0  0
    3.1920  -10.7170   -0.1260 C   0  0  0  0  0  0  0  0  0  0  0  0
    2.8809   -9.8114   -1.1500 C   0  0  0  0  0  0  0  0  0  0  0  0
    1.7670  -10.0916   -2.1328 C   0  0  0  0  0  0  0  0  0  0  0  0
    3.6241   -8.6227   -1.2378 C   0  0  0  0  0  0  0  0  0  0  0  0
    4.9101   -5.7750   -0.1604 C   0  0  0  0  0  0  0  0  0  0  0  0
    3.5798   -5.4919    0.2908 N   0  0  0  0  0  0  0  0  0  0  0  0
    3.1026   -6.2244    1.4674 C   0  0  0  0  0  0  0  0  0  0  0  0
    1.8224   -5.5979    2.0291 C   0  0  0  0  0  0  0  0  0  0  0  0
    0.7358   -5.4676    0.9539 C   0  0  2  0  0  0  0  0  0  0  0  0
    0.2690   -6.7997    0.5599 N   0  0  0  0  0  0  0  0  0  0  0  0
   -0.9054   -6.9581   -0.1358 C   0  0  0  0  0  0  0  0  0  0  0  0
   -1.6628   -6.0631   -0.4127 O   0  0  0  0  0  0  0  0  0  0  0  0
   -1.1794   -8.2451   -0.4984 O   0  0  0  0  0  0  0  0  0  0  0  0
    1.2984   -4.6585   -0.2292 C   0  0  0  0  0  0  0  0  0  0  0  0
    2.5808   -5.2843   -0.7733 C   0  0  0  0  0  0  0  0  0  0  0  0
    3.9581   -1.1349    1.2610 C   0  0  0  0  0  0  0  0  0  0  0  0
    2.4146    0.4417    3.6548 H   0  0  0  0  0  0  0  0  0  0  0  0
    2.0245   -1.1929    3.0730 H   0  0  0  0  0  0  0  0  0  0  0  0
    1.1915    0.2243    2.3914 H   0  0  0  0  0  0  0  0  0  0  0  0
    2.9707    2.1097    1.4744 H   0  0  0  0  0  0  0  0  0  0  0  0
    4.3217    3.5545    0.1172 H   0  0  0  0  0  0  0  0  0  0  0  0
    4.5312    2.7931   -1.4764 H   0  0  0  0  0  0  0  0  0  0  0  0
    5.9226    2.9602   -0.3932 H   0  0  0  0  0  0  0  0  0  0  0  0
    6.0573    0.3403   -0.9692 H   0  0  0  0  0  0  0  0  0  0  0  0
    4.3157   -3.4806    0.3841 H   0  0  0  0  0  0  0  0  0  0  0  0
    7.7613   -4.0278   -0.9098 H   0  0  0  0  0  0  0  0  0  0  0  0
    7.2129   -8.1390   -0.9992 H   0  0  0  0  0  0  0  0  0  0  0  0
    5.7431   -9.0512    1.3922 H   0  0  0  0  0  0  0  0  0  0  0  0
    5.1041  -11.0294    2.6967 H   0  0  0  0  0  0  0  0  0  0  0  0
    5.2497  -12.2663    1.4324 H   0  0  0  0  0  0  0  0  0  0  0  0
    3.6871  -12.0051    2.2280 H   0  0  0  0  0  0  0  0  0  0  0  0
    2.6252  -11.6505   -0.0493 H   0  0  0  0  0  0  0  0  0  0  0  0
    1.4680  -11.1502   -2.1164 H   0  0  0  0  0  0  0  0  0  0  0  0
    2.0665   -9.8397   -3.1623 H   0  0  0  0  0  0  0  0  0  0  0  0
    0.8689   -9.4891   -1.9099 H   0  0  0  0  0  0  0  0  0  0  0  0
    3.4201   -7.9241   -2.0525 H   0  0  0  0  0  0  0  0  0  0  0  0
    3.8965   -6.2027    2.2300 H   0  0  0  0  0  0  0  0  0  0  0  0
    2.9243   -7.2969    1.2514 H   0  0  0  0  0  0  0  0  0  0  0  0
    2.0454   -4.5912    2.4182 H   0  0  0  0  0  0  0  0  0  0  0  0
    1.4567   -6.2042    2.8738 H   0  0  0  0  0  0  0  0  0  0  0  0
   -0.1397   -4.9400    1.3603 H   0  0  0  0  0  0  0  0  0  0  0  0
    0.9604   -7.5407    0.5205 H   0  0  0  0  0  0  0  0  0  0  0  0
   -0.6113   -8.8709   -0.0275 H   0  0  0  0  0  0  0  0  0  0  0  0
    1.4980   -3.6290    0.1147 H   0  0  0  0  0  0  0  0  0  0  0  0
    0.5414   -4.5948   -1.0252 H   0  0  0  0  0  0  0  0  0  0  0  0
    3.0276   -4.6340   -1.5412 H   0  0  0  0  0  0  0  0  0  0  0  0
    2.3310   -6.2379   -1.2773 H   0  0  0  0  0  0  0  0  0  0  0  0
    3.7484   -2.1049    1.7201 H   0  0  0  0  0  0  0  0  0  0  0  0
  1  2  1  0
  1 36  1  0
  1 37  1  0
  1 38  1  0
  2  3  2  0
  2 35  1  0
  3  4  1  0
  3 39  1  0
  4  5  1  0
  4  6  2  0
  5 40  1  0
  5 41  1  0
  5 42  1  0
  6  7  1  0
  6 43  1  0
  7  8  1  0
  7 35  2  0
  8  9  2  0
  8 10  1  0
 10 11  1  0
 10 44  1  0
 11 12  2  0
 11 24  1  0
 12 13  1  0
 12 45  1  0
 13 14  2  0
 14 15  1  0
 14 46  1  0
 15 16  1  0
 15 24  2  0
 16 17  2  0
 16 23  1  0
 17 18  1  0
 17 47  1  0
 18 19  1  0
 18 20  2  0
 19 48  1  0
 19 49  1  0
 19 50  1  0
 20 21  1  0
 20 51  1  0
 21 22  1  0
 21 23  2  0
 22 52  1  0
 22 53  1  0
 22 54  1  0
 23 55  1  0
 24 25  1  0
 25 26  1  0
 25 34  1  0
 26 27  1  0
 26 56  1  0
 26 57  1  0
 27 28  1  0
 27 58  1  0
 27 59  1  0
 28 29  1  0
 28 33  1  0
 28 60  1  1
 29 30  1  0
 29 61  1  0
 30 31  2  0
 30 32  1  0
 32 62  1  0
 33 34  1  0
 33 63  1  0
 33 64  1  0
 34 65  1  0
 34 66  1  0
 35 67  1  0
M  END

