
     RDKit          3D

 22 23  0  0  0  0  0  0  0  0999 V2000
    1.0970   -0.0512   -0.0474 B   0  0  0  0  0  0  0  0  0  0  0  0
    2.6286   -0.0923   -0.0397 C   0  0  0  0  0  0  0  0  0  0  0  0
    3.3570    1.1260   -0.0368 C   0  0  0  0  0  0  0  0  0  0  0  0
    4.7548    1.1424   -0.0299 C   0  0  0  0  0  0  0  0  0  0  0  0
    5.3704   -0.1011   -0.0261 C   0  0  0  0  0  0  0  0  0  0  0  0
    6.7125   -0.3831   -0.0193 O   0  0  0  0  0  0  0  0  0  0  0  0
    6.7677   -1.7542   -0.0182 C   0  0  0  0  0  0  0  0  0  0  0  0
    7.9989   -2.2982   -0.0118 N   0  0  0  0  0  0  0  0  0  0  0  0
    9.2459   -1.5440   -0.0060 C   0  0  0  0  0  0  0  0  0  0  0  0
   10.4409   -2.4874    0.0002 C   0  0  0  0  0  0  0  0  0  0  0  0
    5.6218   -2.3701   -0.0236 N   0  0  0  0  0  0  0  0  0  0  0  0
    4.6904   -1.3408   -0.0288 C   0  0  0  0  0  0  0  0  0  0  0  0
    3.2960   -1.3404   -0.0357 C   0  0  0  0  0  0  0  0  0  0  0  0
    2.8107    2.0737   -0.0401 H   0  0  0  0  0  0  0  0  0  0  0  0
    5.3295    2.0703   -0.0276 H   0  0  0  0  0  0  0  0  0  0  0  0
    8.0187   -3.3110   -0.0111 H   0  0  0  0  0  0  0  0  0  0  0  0
    9.2784   -0.8829    0.8778 H   0  0  0  0  0  0  0  0  0  0  0  0
    9.2870   -0.8836   -0.8899 H   0  0  0  0  0  0  0  0  0  0  0  0
   10.4360   -3.1323    0.8938 H   0  0  0  0  0  0  0  0  0  0  0  0
   11.3788   -1.9133    0.0046 H   0  0  0  0  0  0  0  0  0  0  0  0
   10.4447   -3.1329   -0.8930 H   0  0  0  0  0  0  0  0  0  0  0  0
    2.7412   -2.2821   -0.0379 H   0  0  0  0  0  0  0  0  0  0  0  0
  1  2  1  0
  2  3  1  0
  2 13  1  0
  3  4  1  0
  3 14  1  0
  4  5  1  0
  4 15  1  0
  5  6  1  0
  5 12  1  0
  6  7  1  0
  7  8  1  0
  7 11  1  0
  8  9  1  0
  8 16  1  0
  9 10  1  0
  9 17  1  0
  9 18  1  0
 10 19  1  0
 10 20  1  0
 10 21  1  0
 11 12  1  0
 12 13  1  0
 13 22  1  0
M  CHG  8   1   2   2  -1   3  -1   4  -1   5   1   7  -1  11  -1  12   1
M  CHG  1  13   1
M  END

