
     RDKit          3D

 39 39  0  0  0  0  0  0  0  0999 V2000
    2.7224   -0.4383    1.2585 C   0  0  0  0  0  0  0  0  0  0  0  0
    2.4235   -0.0857   -0.2042 C   0  0  1  0  0  0  0  0  0  0  0  0
    0.9164   -0.1367   -0.4847 C   0  0  0  0  0  0  0  0  0  0  0  0
    2.9991    1.2844   -0.6100 C   0  0  0  0  0  0  0  0  0  0  0  0
    4.5235    1.4006   -0.5574 C   0  0  1  0  0  0  0  0  0  0  0  0
    5.1691    0.3942   -1.3387 O   0  0  0  0  0  0  0  0  0  0  0  0
    5.0177    2.7859   -0.9845 C   0  0  0  0  0  0  0  0  0  0  0  0
    6.4631    2.8263   -0.9622 N   0  0  0  0  0  0  0  0  0  0  0  0
    7.1713    3.9391   -0.6164 C   0  0  0  0  0  0  0  0  0  0  0  0
    6.6374    4.9981   -0.3222 O   0  0  0  0  0  0  0  0  0  0  0  0
    8.6763    3.7914   -0.6269 C   0  0  0  0  0  0  0  0  0  0  0  0
    9.3463    2.5618   -0.5705 C   0  0  0  0  0  0  0  0  0  0  0  0
   10.7444    2.5660   -0.5772 C   0  0  0  0  0  0  0  0  0  0  0  0
   11.4779    3.6762   -0.6419 N   0  0  0  0  0  0  0  0  0  0  0  0
   10.8442    4.8576   -0.6813 C   0  0  0  0  0  0  0  0  0  0  0  0
   11.7359    6.0854   -0.7144 C   0  0  0  0  0  0  0  0  0  0  0  0
   11.0316    7.2888   -1.1281 N   0  0  0  0  0  0  0  0  0  0  0  0
    9.4472    4.9586   -0.6687 C   0  0  0  0  0  0  0  0  0  0  0  0
    2.2874   -1.4155    1.5228 H   0  0  0  0  0  0  0  0  0  0  0  0
    2.2925    0.3126    1.9443 H   0  0  0  0  0  0  0  0  0  0  0  0
    3.8034   -0.4985    1.4577 H   0  0  0  0  0  0  0  0  0  0  0  0
    2.9164   -0.8448   -0.8375 H   0  0  0  0  0  0  0  0  0  0  0  0
    0.3740    0.6085    0.1228 H   0  0  0  0  0  0  0  0  0  0  0  0
    0.4986   -1.1275   -0.2442 H   0  0  0  0  0  0  0  0  0  0  0  0
    0.6927    0.0730   -1.5437 H   0  0  0  0  0  0  0  0  0  0  0  0
    2.5638    2.0732    0.0305 H   0  0  0  0  0  0  0  0  0  0  0  0
    2.6702    1.5210   -1.6408 H   0  0  0  0  0  0  0  0  0  0  0  0
    4.8789    1.2202    0.4702 H   0  0  0  0  0  0  0  0  0  0  0  0
    4.7869    0.4164   -2.2285 H   0  0  0  0  0  0  0  0  0  0  0  0
    4.6415    3.5746   -0.3168 H   0  0  0  0  0  0  0  0  0  0  0  0
    4.6291    3.0159   -1.9982 H   0  0  0  0  0  0  0  0  0  0  0  0
    6.9335    1.9883   -1.2838 H   0  0  0  0  0  0  0  0  0  0  0  0
    8.8130    1.6112   -0.4961 H   0  0  0  0  0  0  0  0  0  0  0  0
   11.2936    1.6177   -0.5287 H   0  0  0  0  0  0  0  0  0  0  0  0
   12.6270    5.8175   -1.3183 H   0  0  0  0  0  0  0  0  0  0  0  0
   12.1139    6.2426    0.3123 H   0  0  0  0  0  0  0  0  0  0  0  0
   10.8388    7.2699   -2.1300 H   0  0  0  0  0  0  0  0  0  0  0  0
   11.5987    8.1164   -0.9539 H   0  0  0  0  0  0  0  0  0  0  0  0
    8.9648    5.9357   -0.6877 H   0  0  0  0  0  0  0  0  0  0  0  0
  1  2  1  0
  1 19  1  0
  1 20  1  0
  1 21  1  0
  2  3  1  0
  2  4  1  0
  2 22  1  6
  3 23  1  0
  3 24  1  0
  3 25  1  0
  4  5  1  0
  4 26  1  0
  4 27  1  0
  5  6  1  0
  5  7  1  0
  5 28  1  1
  6 29  1  0
  7  8  1  0
  7 30  1  0
  7 31  1  0
  8  9  1  0
  8 32  1  0
  9 10  2  0
  9 11  1  0
 11 12  2  0
 11 18  1  0
 12 13  1  0
 12 33  1  0
 13 14  2  0
 13 34  1  0
 14 15  1  0
 15 16  1  0
 15 18  2  0
 16 17  1  0
 16 35  1  0
 16 36  1  0
 17 37  1  0
 17 38  1  0
 18 39  1  0
M  END

