
     RDKit          3D

 33 33  0  0  0  0  0  0  0  0999 V2000
    7.9435    0.0501    0.5892 C   0  0  0  0  0  0  0  0  0  0  0  0
    6.6940    0.9282    0.5817 C   0  0  0  0  0  0  0  0  0  0  0  0
    5.5239    0.2722   -0.0019 N   0  0  0  0  0  0  0  0  0  0  0  0
    4.9705   -0.7614    0.8559 C   0  0  0  0  0  0  0  0  0  0  0  0
    4.4791    1.1982   -0.4340 C   0  0  0  0  0  0  0  0  0  0  0  0
    4.9164    2.2349   -1.4566 C   0  0  0  0  0  0  0  0  0  0  0  0
    4.7408    3.5850   -1.1260 C   0  0  0  0  0  0  0  0  0  0  0  0
    5.1534    4.6424   -1.9465 C   0  0  0  0  0  0  0  0  0  0  0  0
    4.8971    6.0393   -1.4689 C   0  0  0  0  0  0  0  0  0  0  0  0
    4.1441    6.3052   -0.5678 O   0  0  0  0  0  0  0  0  0  0  0  0
    5.5706    7.0296   -2.1032 O   0  0  0  0  0  0  0  0  0  0  0  0
    5.7626    4.3294   -3.1722 C   0  0  0  0  0  0  0  0  0  0  0  0
    5.9378    3.0029   -3.5412 C   0  0  0  0  0  0  0  0  0  0  0  0
    5.5190    1.9444   -2.7110 C   0  0  0  0  0  0  0  0  0  0  0  0
    5.7882    0.7178   -3.2154 O   0  0  0  0  0  0  0  0  0  0  0  0
    4.9192   -0.3889   -3.0341 C   0  0  0  0  0  0  0  0  0  0  0  0
    8.8050    0.6202    0.9714 H   0  0  0  0  0  0  0  0  0  0  0  0
    8.1775   -0.2906   -0.4315 H   0  0  0  0  0  0  0  0  0  0  0  0
    7.8331   -0.8393    1.2293 H   0  0  0  0  0  0  0  0  0  0  0  0
    6.9059    1.8282   -0.0140 H   0  0  0  0  0  0  0  0  0  0  0  0
    6.4759    1.2866    1.6149 H   0  0  0  0  0  0  0  0  0  0  0  0
    5.7400   -1.5004    1.1204 H   0  0  0  0  0  0  0  0  0  0  0  0
    4.1619   -1.2980    0.3331 H   0  0  0  0  0  0  0  0  0  0  0  0
    4.5472   -0.3573    1.8043 H   0  0  0  0  0  0  0  0  0  0  0  0
    4.0435    1.7499    0.4287 H   0  0  0  0  0  0  0  0  0  0  0  0
    3.6529    0.5900   -0.8378 H   0  0  0  0  0  0  0  0  0  0  0  0
    4.2746    3.8448   -0.1729 H   0  0  0  0  0  0  0  0  0  0  0  0
    6.2313    6.6583   -2.7035 H   0  0  0  0  0  0  0  0  0  0  0  0
    6.0716    5.1104   -3.8740 H   0  0  0  0  0  0  0  0  0  0  0  0
    6.3893    2.7370   -4.4986 H   0  0  0  0  0  0  0  0  0  0  0  0
    5.1935   -1.1201   -3.8076 H   0  0  0  0  0  0  0  0  0  0  0  0
    3.8652   -0.0988   -3.1833 H   0  0  0  0  0  0  0  0  0  0  0  0
    5.0565   -0.8389   -2.0406 H   0  0  0  0  0  0  0  0  0  0  0  0
  1  2  1  0
  1 17  1  0
  1 18  1  0
  1 19  1  0
  2  3  1  0
  2 20  1  0
  2 21  1  0
  3  4  1  0
  3  5  1  0
  4 22  1  0
  4 23  1  0
  4 24  1  0
  5  6  1  0
  5 25  1  0
  5 26  1  0
  6  7  2  0
  6 14  1  0
  7  8  1  0
  7 27  1  0
  8  9  1  0
  8 12  2  0
  9 10  2  0
  9 11  1  0
 11 28  1  0
 12 13  1  0
 12 29  1  0
 13 14  2  0
 13 30  1  0
 14 15  1  0
 15 16  1  0
 16 31  1  0
 16 32  1  0
 16 33  1  0
M  END

