
     RDKit          3D

 42 43  0  0  0  0  0  0  0  0999 V2000
    1.2777   -1.5482    4.2855 C   0  0  0  0  0  0  0  0  0  0  0  0
    1.0833   -0.9206    2.8959 C   0  0  0  0  0  0  0  0  0  0  0  0
    2.2019    0.0294    2.5303 C   0  0  0  0  0  0  0  0  0  0  0  0
    2.0790    1.2783    3.0006 N   0  0  0  0  0  0  0  0  0  0  0  0
    3.0405    2.1564    2.7299 C   0  0  0  0  0  0  0  0  0  0  0  0
    2.8686    3.6157    3.2002 C   0  0  1  0  0  0  0  0  0  0  0  0
    1.8522    3.7086    4.1875 O   0  0  0  0  0  0  0  0  0  0  0  0
    2.0796    3.1514    5.4586 C   0  0  0  0  0  0  0  0  0  0  0  0
    4.2229    4.1657    3.6992 C   0  0  0  0  0  0  0  0  0  0  0  0
    4.2730    5.6594    4.0522 C   0  0  0  0  0  0  0  0  0  0  0  0
    4.2874    6.5908    2.8284 C   0  0  0  0  0  0  0  0  0  0  0  0
    2.9154    6.9260    2.2100 C   0  0  0  0  0  0  0  0  0  0  0  0
    1.8416    5.8267    2.2761 C   0  0  0  0  0  0  0  0  0  0  0  0
    2.2954    4.3891    1.9792 C   0  0  0  0  0  0  0  0  0  0  0  0
    4.1268    1.8747    2.0002 N   0  0  0  0  0  0  0  0  0  0  0  0
    4.2499    0.6499    1.5371 C   0  0  0  0  0  0  0  0  0  0  0  0
    5.6892    0.3399    0.5717 Cl  0  0  0  0  0  0  0  0  0  0  0  0
    3.3181   -0.3794    1.7664 C   0  0  0  0  0  0  0  0  0  0  0  0
    3.4723   -1.7811    1.2385 C   0  0  0  0  0  0  0  0  0  0  0  0
    0.4271   -2.1990    4.5418 H   0  0  0  0  0  0  0  0  0  0  0  0
    1.3513   -0.7642    5.0547 H   0  0  0  0  0  0  0  0  0  0  0  0
    2.1953   -2.1566    4.3348 H   0  0  0  0  0  0  0  0  0  0  0  0
    0.1513   -0.3352    2.8932 H   0  0  0  0  0  0  0  0  0  0  0  0
    0.9802   -1.7106    2.1369 H   0  0  0  0  0  0  0  0  0  0  0  0
    1.1131    3.1636    5.9847 H   0  0  0  0  0  0  0  0  0  0  0  0
    2.8030    3.7357    6.0580 H   0  0  0  0  0  0  0  0  0  0  0  0
    2.4260    2.1042    5.4092 H   0  0  0  0  0  0  0  0  0  0  0  0
    4.9746    3.9486    2.9265 H   0  0  0  0  0  0  0  0  0  0  0  0
    4.5286    3.5716    4.5766 H   0  0  0  0  0  0  0  0  0  0  0  0
    5.1999    5.8260    4.6268 H   0  0  0  0  0  0  0  0  0  0  0  0
    3.4454    5.9243    4.7329 H   0  0  0  0  0  0  0  0  0  0  0  0
    4.9360    6.1296    2.0626 H   0  0  0  0  0  0  0  0  0  0  0  0
    4.7843    7.5385    3.0967 H   0  0  0  0  0  0  0  0  0  0  0  0
    3.0764    7.2223    1.1584 H   0  0  0  0  0  0  0  0  0  0  0  0
    2.5027    7.8218    2.7066 H   0  0  0  0  0  0  0  0  0  0  0  0
    1.0419    6.0907    1.5637 H   0  0  0  0  0  0  0  0  0  0  0  0
    1.3627    5.8206    3.2664 H   0  0  0  0  0  0  0  0  0  0  0  0
    3.0340    4.3536    1.1616 H   0  0  0  0  0  0  0  0  0  0  0  0
    1.4196    3.8111    1.6431 H   0  0  0  0  0  0  0  0  0  0  0  0
    4.4923   -1.9545    0.8757 H   0  0  0  0  0  0  0  0  0  0  0  0
    2.7834   -1.9681    0.3968 H   0  0  0  0  0  0  0  0  0  0  0  0
    3.2507   -2.5300    2.0134 H   0  0  0  0  0  0  0  0  0  0  0  0
  1  2  1  0
  1 20  1  0
  1 21  1  0
  1 22  1  0
  2  3  1  0
  2 23  1  0
  2 24  1  0
  3  4  2  0
  3 18  1  0
  4  5  1  0
  5  6  1  0
  5 15  2  0
  6  7  1  1
  6  9  1  0
  6 14  1  0
  7  8  1  0
  8 25  1  0
  8 26  1  0
  8 27  1  0
  9 10  1  0
  9 28  1  0
  9 29  1  0
 10 11  1  0
 10 30  1  0
 10 31  1  0
 11 12  1  0
 11 32  1  0
 11 33  1  0
 12 13  1  0
 12 34  1  0
 12 35  1  0
 13 14  1  0
 13 36  1  0
 13 37  1  0
 14 38  1  0
 14 39  1  0
 15 16  1  0
 16 17  1  0
 16 18  2  0
 18 19  1  0
 19 40  1  0
 19 41  1  0
 19 42  1  0
M  END

