
     RDKit          3D

 41 42  0  0  0  0  0  0  0  0999 V2000
    4.9756    1.9010   -2.1518 C   0  0  0  0  0  0  0  0  0  0  0  0
    5.0301    0.4650   -1.9597 N   0  0  0  0  0  0  0  0  0  0  0  0
    4.2441   -0.0163   -0.8362 C   0  0  0  0  0  0  0  0  0  0  0  0
    4.2239   -1.5447   -0.7391 C   0  0  0  0  0  0  0  0  0  0  0  0
    5.5956   -2.2375   -0.5828 C   0  0  1  0  0  0  0  0  0  0  0  0
    6.3995   -1.7843    0.6579 C   0  0  0  0  0  0  0  0  0  0  0  0
    5.8366   -2.3802    1.9609 C   0  0  0  0  0  0  0  0  0  0  0  0
    5.7322   -3.8360    1.9427 N   0  0  0  0  0  0  0  0  0  0  0  0
    6.9843   -4.5522    2.1654 C   0  0  0  0  0  0  0  0  0  0  0  0
    6.7580   -5.9211    2.7764 C   0  0  0  0  0  0  0  0  0  0  0  0
    6.8475   -7.0863    2.0048 C   0  0  0  0  0  0  0  0  0  0  0  0
    7.1509   -6.9657    0.6978 F   0  0  0  0  0  0  0  0  0  0  0  0
    6.6361   -8.3662    2.5111 C   0  0  0  0  0  0  0  0  0  0  0  0
    6.3108   -8.5025    3.8610 C   0  0  0  0  0  0  0  0  0  0  0  0
    6.2049   -7.3748    4.6782 C   0  0  0  0  0  0  0  0  0  0  0  0
    6.4242   -6.1074    4.1307 C   0  0  0  0  0  0  0  0  0  0  0  0
    6.2984   -4.7194    5.1905 Cl  0  0  0  0  0  0  0  0  0  0  0  0
    4.9416   -4.2975    0.8023 C   0  0  0  0  0  0  0  0  0  0  0  0
    5.4532   -3.7770   -0.5538 C   0  0  0  0  0  0  0  0  0  0  0  0
    5.6345    2.1964   -2.9837 H   0  0  0  0  0  0  0  0  0  0  0  0
    5.2666    2.5002   -1.2584 H   0  0  0  0  0  0  0  0  0  0  0  0
    3.9501    2.2067   -2.4221 H   0  0  0  0  0  0  0  0  0  0  0  0
    5.9998    0.1701   -1.8588 H   0  0  0  0  0  0  0  0  0  0  0  0
    3.2058    0.3325   -0.9804 H   0  0  0  0  0  0  0  0  0  0  0  0
    4.5671    0.4252    0.1365 H   0  0  0  0  0  0  0  0  0  0  0  0
    3.7526   -1.9376   -1.6563 H   0  0  0  0  0  0  0  0  0  0  0  0
    3.5564   -1.8207    0.0948 H   0  0  0  0  0  0  0  0  0  0  0  0
    6.1834   -1.9838   -1.4831 H   0  0  0  0  0  0  0  0  0  0  0  0
    6.4305   -0.6841    0.7331 H   0  0  0  0  0  0  0  0  0  0  0  0
    7.4482   -2.1104    0.5386 H   0  0  0  0  0  0  0  0  0  0  0  0
    4.8270   -1.9711    2.1488 H   0  0  0  0  0  0  0  0  0  0  0  0
    6.4532   -2.0795    2.8233 H   0  0  0  0  0  0  0  0  0  0  0  0
    7.5812   -3.9608    2.8754 H   0  0  0  0  0  0  0  0  0  0  0  0
    7.6012   -4.6753    1.2544 H   0  0  0  0  0  0  0  0  0  0  0  0
    6.7247   -9.2251    1.8438 H   0  0  0  0  0  0  0  0  0  0  0  0
    6.1392   -9.4956    4.2826 H   0  0  0  0  0  0  0  0  0  0  0  0
    5.9549   -7.4667    5.7358 H   0  0  0  0  0  0  0  0  0  0  0  0
    3.8980   -3.9709    0.9600 H   0  0  0  0  0  0  0  0  0  0  0  0
    4.9187   -5.3980    0.7999 H   0  0  0  0  0  0  0  0  0  0  0  0
    4.7777   -4.1129   -1.3594 H   0  0  0  0  0  0  0  0  0  0  0  0
    6.4343   -4.2360   -0.7662 H   0  0  0  0  0  0  0  0  0  0  0  0
  1  2  1  0
  1 20  1  0
  1 21  1  0
  1 22  1  0
  2  3  1  0
  2 23  1  0
  3  4  1  0
  3 24  1  0
  3 25  1  0
  4  5  1  0
  4 26  1  0
  4 27  1  0
  5  6  1  0
  5 19  1  0
  5 28  1  6
  6  7  1  0
  6 29  1  0
  6 30  1  0
  7  8  1  0
  7 31  1  0
  7 32  1  0
  8  9  1  0
  8 18  1  0
  9 10  1  0
  9 33  1  0
  9 34  1  0
 10 11  2  0
 10 16  1  0
 11 12  1  0
 11 13  1  0
 13 14  2  0
 13 35  1  0
 14 15  1  0
 14 36  1  0
 15 16  2  0
 15 37  1  0
 16 17  1  0
 18 19  1  0
 18 38  1  0
 18 39  1  0
 19 40  1  0
 19 41  1  0
M  END

