
     RDKit          3D

 49 52  0  0  0  0  0  0  0  0999 V2000
    1.6461   -1.4237    3.4473 C   0  0  0  0  0  0  0  0  0  0  0  0
    2.5160   -0.7217    2.4342 C   0  0  0  0  0  0  0  0  0  0  0  0
    2.9060    0.6009    2.6330 C   0  0  0  0  0  0  0  0  0  0  0  0
    3.7184    1.2890    1.7135 C   0  0  0  0  0  0  0  0  0  0  0  0
    4.1515    0.6413    0.5671 C   0  0  0  0  0  0  0  0  0  0  0  0
    3.7733   -0.6919    0.3321 C   0  0  0  0  0  0  0  0  0  0  0  0
    4.2605   -1.3543   -0.8915 C   0  0  0  0  0  0  0  0  0  0  0  0
    4.9913   -0.8512   -1.7317 O   0  0  0  0  0  0  0  0  0  0  0  0
    3.8379   -2.6768   -1.0384 N   0  0  0  0  0  0  0  0  0  0  0  0
    4.2626   -3.1595   -1.8237 H   0  0  0  0  0  0  0  0  0  0  0  0
    3.0278   -3.3828   -0.1675 C   0  0  0  0  0  0  0  0  0  0  0  0
    2.7720   -4.7059   -0.5267 N   0  0  0  0  0  0  0  0  0  0  0  0
    2.2324   -4.9615   -1.8709 C   0  0  0  0  0  0  0  0  0  0  0  0
    2.4169   -6.4263   -2.2683 C   0  0  0  0  0  0  0  0  0  0  0  0
    1.7913   -7.4021   -1.2561 C   0  0  2  0  0  0  0  0  0  0  0  0
    0.3204   -7.3137   -1.1888 N   0  0  0  0  0  0  0  0  0  0  0  0
   -0.4421   -7.1489   -2.4295 C   0  0  0  0  0  0  0  0  0  0  0  0
   -0.6341   -8.4597   -3.1969 C   0  0  0  0  0  0  0  0  0  0  0  0
   -1.2499   -9.4358   -2.3777 O   0  0  0  0  0  0  0  0  0  0  0  0
   -0.5218   -9.6668   -1.1866 C   0  0  0  0  0  0  0  0  0  0  0  0
   -0.3220   -8.3686   -0.3961 C   0  0  0  0  0  0  0  0  0  0  0  0
    2.4125   -7.0573    0.1148 C   0  0  0  0  0  0  0  0  0  0  0  0
    2.2136   -5.5892    0.4954 C   0  0  0  0  0  0  0  0  0  0  0  0
    2.5773   -2.7600    0.9691 C   0  0  0  0  0  0  0  0  0  0  0  0
    2.9553   -1.3985    1.2556 C   0  0  0  0  0  0  0  0  0  0  0  0
    1.4154   -0.7632    4.2956 H   0  0  0  0  0  0  0  0  0  0  0  0
    2.1352   -2.3271    3.8502 H   0  0  0  0  0  0  0  0  0  0  0  0
    0.6871   -1.7497    3.0089 H   0  0  0  0  0  0  0  0  0  0  0  0
    2.5687    1.1176    3.5366 H   0  0  0  0  0  0  0  0  0  0  0  0
    4.0028    2.3260    1.9070 H   0  0  0  0  0  0  0  0  0  0  0  0
    4.7848    1.1332   -0.1736 H   0  0  0  0  0  0  0  0  0  0  0  0
    2.7416   -4.3186   -2.6023 H   0  0  0  0  0  0  0  0  0  0  0  0
    1.1588   -4.6861   -1.9039 H   0  0  0  0  0  0  0  0  0  0  0  0
    3.4962   -6.6453   -2.3087 H   0  0  0  0  0  0  0  0  0  0  0  0
    2.0341   -6.5850   -3.2872 H   0  0  0  0  0  0  0  0  0  0  0  0
    2.1290   -8.4233   -1.5345 H   0  0  0  0  0  0  0  0  0  0  0  0
    0.0097   -6.3856   -3.0770 H   0  0  0  0  0  0  0  0  0  0  0  0
   -1.4432   -6.7714   -2.1522 H   0  0  0  0  0  0  0  0  0  0  0  0
    0.3414   -8.8348   -3.5751 H   0  0  0  0  0  0  0  0  0  0  0  0
   -1.2942   -8.3105   -4.0662 H   0  0  0  0  0  0  0  0  0  0  0  0
    0.4596  -10.1304   -1.4233 H   0  0  0  0  0  0  0  0  0  0  0  0
   -1.0984  -10.3959   -0.5954 H   0  0  0  0  0  0  0  0  0  0  0  0
    0.2543   -8.5719    0.5180 H   0  0  0  0  0  0  0  0  0  0  0  0
   -1.3141   -8.0026   -0.0754 H   0  0  0  0  0  0  0  0  0  0  0  0
    3.4918   -7.2781    0.0713 H   0  0  0  0  0  0  0  0  0  0  0  0
    1.9983   -7.6888    0.9149 H   0  0  0  0  0  0  0  0  0  0  0  0
    2.7293   -5.3830    1.4440 H   0  0  0  0  0  0  0  0  0  0  0  0
    1.1338   -5.3926    0.6486 H   0  0  0  0  0  0  0  0  0  0  0  0
    1.9030   -3.2881    1.6362 H   0  0  0  0  0  0  0  0  0  0  0  0
  1  2  1  0
  1 26  1  0
  1 27  1  0
  1 28  1  0
  2  3  2  0
  2 25  1  0
  3  4  1  0
  3 29  1  0
  4  5  2  0
  4 30  1  0
  5  6  1  0
  5 31  1  0
  6  7  1  0
  6 25  2  0
  7  8  2  0
  7  9  1  0
  9 10  1  0
  9 11  1  0
 11 12  1  0
 11 24  2  0
 12 13  1  0
 12 23  1  0
 13 14  1  0
 13 32  1  0
 13 33  1  0
 14 15  1  0
 14 34  1  0
 14 35  1  0
 15 16  1  0
 15 22  1  0
 15 36  1  6
 16 17  1  0
 16 21  1  0
 17 18  1  0
 17 37  1  0
 17 38  1  0
 18 19  1  0
 18 39  1  0
 18 40  1  0
 19 20  1  0
 20 21  1  0
 20 41  1  0
 20 42  1  0
 21 43  1  0
 21 44  1  0
 22 23  1  0
 22 45  1  0
 22 46  1  0
 23 47  1  0
 23 48  1  0
 24 25  1  0
 24 49  1  0
M  END

