
     RDKit          3D

 46 48  0  0  0  0  0  0  0  0999 V2000
    4.2786   -1.7501   -3.3964 C   0  0  0  0  0  0  0  0  0  0  0  0
    4.0518   -0.8249   -2.2037 C   0  0  0  0  0  0  0  0  0  0  0  0
    3.3724    0.4110   -2.5682 N   0  0  0  0  0  0  0  0  0  0  0  0
    3.8927    1.6684   -2.6264 C   0  0  0  0  0  0  0  0  0  0  0  0
    2.8809    2.5190   -3.0607 C   0  0  0  0  0  0  0  0  0  0  0  0
    2.9503    4.0055   -3.3509 C   0  0  1  0  0  0  0  0  0  0  0  0
    1.6200    4.7373   -3.0661 C   0  0  0  0  0  0  0  0  0  0  0  0
    1.3536    4.8910   -1.5662 C   0  0  0  0  0  0  0  0  0  0  0  0
    2.4721    5.5601   -0.8951 N   0  0  0  0  0  0  0  0  0  0  0  0
    2.2442    6.7597   -0.2587 C   0  0  0  0  0  0  0  0  0  0  0  0
    1.1437    7.2938   -0.2850 O   0  0  0  0  0  0  0  0  0  0  0  0
    3.4181    7.4091    0.5014 C   0  0  1  0  0  0  0  0  0  0  0  0
    3.1252    8.8735    0.8708 C   0  0  0  0  0  0  0  0  0  0  0  0
    2.0560    9.0158    1.9613 C   0  0  0  0  0  0  0  0  0  0  0  0
    2.1418    8.0158    3.1036 C   0  0  0  0  0  0  0  0  0  0  0  0
    1.5699    8.1857    4.1655 O   0  0  0  0  0  0  0  0  0  0  0  0
    2.8373    6.8566    2.8461 N   0  0  0  0  0  0  0  0  0  0  0  0
    3.8016    6.6425    1.7811 C   0  0  0  0  0  0  0  0  0  0  0  0
    3.7562    4.8923   -1.0856 C   0  0  0  0  0  0  0  0  0  0  0  0
    4.0763    4.7246   -2.5792 C   0  0  0  0  0  0  0  0  0  0  0  0
    1.7779    1.6387   -3.2362 C   0  0  0  0  0  0  0  0  0  0  0  0
    2.0876    0.3795   -2.9389 N   0  0  0  0  0  0  0  0  0  0  0  0
    4.7616   -2.6838   -3.0680 H   0  0  0  0  0  0  0  0  0  0  0  0
    4.9228   -1.2738   -4.1521 H   0  0  0  0  0  0  0  0  0  0  0  0
    3.3180   -2.0012   -3.8693 H   0  0  0  0  0  0  0  0  0  0  0  0
    5.0060   -0.5439   -1.7325 H   0  0  0  0  0  0  0  0  0  0  0  0
    3.4405   -1.3282   -1.4380 H   0  0  0  0  0  0  0  0  0  0  0  0
    4.9299    1.8573   -2.3575 H   0  0  0  0  0  0  0  0  0  0  0  0
    3.1663    4.1195   -4.4288 H   0  0  0  0  0  0  0  0  0  0  0  0
    0.7744    4.2137   -3.5391 H   0  0  0  0  0  0  0  0  0  0  0  0
    1.6615    5.7407   -3.5226 H   0  0  0  0  0  0  0  0  0  0  0  0
    1.2083    3.8975   -1.1043 H   0  0  0  0  0  0  0  0  0  0  0  0
    0.4554    5.4911   -1.3816 H   0  0  0  0  0  0  0  0  0  0  0  0
    4.3017    7.3989   -0.1566 H   0  0  0  0  0  0  0  0  0  0  0  0
    2.8180    9.4335   -0.0250 H   0  0  0  0  0  0  0  0  0  0  0  0
    4.0734    9.3208    1.2174 H   0  0  0  0  0  0  0  0  0  0  0  0
    1.0608    8.8669    1.5156 H   0  0  0  0  0  0  0  0  0  0  0  0
    2.0640   10.0196    2.4113 H   0  0  0  0  0  0  0  0  0  0  0  0
    2.8690    6.2264    3.6427 H   0  0  0  0  0  0  0  0  0  0  0  0
    3.8685    5.5603    1.5900 H   0  0  0  0  0  0  0  0  0  0  0  0
    4.8157    6.9712    2.0878 H   0  0  0  0  0  0  0  0  0  0  0  0
    3.7220    3.9000   -0.5985 H   0  0  0  0  0  0  0  0  0  0  0  0
    4.5595    5.4580   -0.6011 H   0  0  0  0  0  0  0  0  0  0  0  0
    5.0357    4.1937   -2.6922 H   0  0  0  0  0  0  0  0  0  0  0  0
    4.2197    5.7264   -3.0189 H   0  0  0  0  0  0  0  0  0  0  0  0
    0.7670    1.8770   -3.5666 H   0  0  0  0  0  0  0  0  0  0  0  0
  1  2  1  0
  1 23  1  0
  1 24  1  0
  1 25  1  0
  2  3  1  0
  2 26  1  0
  2 27  1  0
  3  4  1  0
  3 22  1  0
  4  5  2  0
  4 28  1  0
  5  6  1  0
  5 21  1  0
  6  7  1  0
  6 20  1  0
  6 29  1  6
  7  8  1  0
  7 30  1  0
  7 31  1  0
  8  9  1  0
  8 32  1  0
  8 33  1  0
  9 10  1  0
  9 19  1  0
 10 11  2  0
 10 12  1  0
 12 13  1  0
 12 18  1  0
 12 34  1  6
 13 14  1  0
 13 35  1  0
 13 36  1  0
 14 15  1  0
 14 37  1  0
 14 38  1  0
 15 16  2  0
 15 17  1  0
 17 18  1  0
 17 39  1  0
 18 40  1  0
 18 41  1  0
 19 20  1  0
 19 42  1  0
 19 43  1  0
 20 44  1  0
 20 45  1  0
 21 22  2  0
 21 46  1  0
M  END

