
     RDKit          3D

 48 50  0  0  0  0  0  0  0  0999 V2000
    3.3371   -3.1283    0.5875 C   0  0  0  0  0  0  0  0  0  0  0  0
    3.5055   -1.6383    0.3118 C   0  0  0  0  0  0  0  0  0  0  0  0
    4.2719   -0.9872    1.3634 N   0  0  0  0  0  0  0  0  0  0  0  0
    4.4889    0.4353    1.1635 C   0  0  0  0  0  0  0  0  0  0  0  0
    5.1600    1.1027    2.3776 C   0  0  1  0  0  0  0  0  0  0  0  0
    6.5857    0.5902    2.6727 C   0  0  0  0  0  0  0  0  0  0  0  0
    7.6239    1.1079    1.6719 C   0  0  0  0  0  0  0  0  0  0  0  0
    7.5897    2.5679    1.5903 N   0  0  0  0  0  0  0  0  0  0  0  0
    8.7492    3.2784    1.7792 C   0  0  0  0  0  0  0  0  0  0  0  0
    9.8150    2.7309    2.0286 O   0  0  0  0  0  0  0  0  0  0  0  0
    8.6688    4.8027    1.6689 C   0  0  0  0  0  0  0  0  0  0  0  0
   10.0339    5.4433    1.9048 C   0  0  0  0  0  0  0  0  0  0  0  0
    9.9904    6.9306    1.8147 C   0  0  0  0  0  0  0  0  0  0  0  0
    8.9762    7.7106    1.5854 N   0  0  0  0  0  0  0  0  0  0  0  0
    9.5429    8.9688    1.6223 C   0  0  0  0  0  0  0  0  0  0  0  0
    8.7702   10.1938    1.4140 C   0  0  0  0  0  0  0  0  0  0  0  0
    7.3601   10.1967    1.1497 C   0  0  0  0  0  0  0  0  0  0  0  0
    6.8591   11.4608    0.9903 C   0  0  0  0  0  0  0  0  0  0  0  0
    8.0956   12.6630    1.1596 S   0  0  0  0  0  0  0  0  0  0  0  0
    9.2998   11.4676    1.4473 C   0  0  0  0  0  0  0  0  0  0  0  0
   10.8345    8.9603    1.8617 N   0  0  0  0  0  0  0  0  0  0  0  0
   11.1335    7.6095    1.9897 O   0  0  0  0  0  0  0  0  0  0  0  0
    6.2828    3.1286    1.2626 C   0  0  0  0  0  0  0  0  0  0  0  0
    5.2064    2.6382    2.2435 C   0  0  0  0  0  0  0  0  0  0  0  0
    2.7193   -3.6074   -0.1880 H   0  0  0  0  0  0  0  0  0  0  0  0
    2.8600   -3.2895    1.5667 H   0  0  0  0  0  0  0  0  0  0  0  0
    4.3123   -3.6450    0.5986 H   0  0  0  0  0  0  0  0  0  0  0  0
    2.5114   -1.1573    0.2668 H   0  0  0  0  0  0  0  0  0  0  0  0
    3.9536   -1.4959   -0.6997 H   0  0  0  0  0  0  0  0  0  0  0  0
    5.1651   -1.4668    1.4717 H   0  0  0  0  0  0  0  0  0  0  0  0
    3.4993    0.9061    1.0234 H   0  0  0  0  0  0  0  0  0  0  0  0
    5.0543    0.6558    0.2281 H   0  0  0  0  0  0  0  0  0  0  0  0
    4.5243    0.8491    3.2423 H   0  0  0  0  0  0  0  0  0  0  0  0
    6.6143   -0.5118    2.7001 H   0  0  0  0  0  0  0  0  0  0  0  0
    6.8800    0.9250    3.6821 H   0  0  0  0  0  0  0  0  0  0  0  0
    7.4369    0.6865    0.6654 H   0  0  0  0  0  0  0  0  0  0  0  0
    8.6411    0.8215    1.9646 H   0  0  0  0  0  0  0  0  0  0  0  0
    7.9389    5.2003    2.3926 H   0  0  0  0  0  0  0  0  0  0  0  0
    8.2847    5.0925    0.6773 H   0  0  0  0  0  0  0  0  0  0  0  0
   10.7721    5.0586    1.1830 H   0  0  0  0  0  0  0  0  0  0  0  0
   10.4321    5.1525    2.8902 H   0  0  0  0  0  0  0  0  0  0  0  0
    6.7680    9.2841    1.0861 H   0  0  0  0  0  0  0  0  0  0  0  0
    5.8321   11.7574    0.7826 H   0  0  0  0  0  0  0  0  0  0  0  0
   10.3370   11.7446    1.6275 H   0  0  0  0  0  0  0  0  0  0  0  0
    6.0137    2.8400    0.2282 H   0  0  0  0  0  0  0  0  0  0  0  0
    6.3264    4.2234    1.2791 H   0  0  0  0  0  0  0  0  0  0  0  0
    4.2245    3.0289    1.9267 H   0  0  0  0  0  0  0  0  0  0  0  0
    5.4190    3.0755    3.2341 H   0  0  0  0  0  0  0  0  0  0  0  0
  1  2  1  0
  1 25  1  0
  1 26  1  0
  1 27  1  0
  2  3  1  0
  2 28  1  0
  2 29  1  0
  3  4  1  0
  3 30  1  0
  4  5  1  0
  4 31  1  0
  4 32  1  0
  5  6  1  0
  5 24  1  0
  5 33  1  1
  6  7  1  0
  6 34  1  0
  6 35  1  0
  7  8  1  0
  7 36  1  0
  7 37  1  0
  8  9  1  0
  8 23  1  0
  9 10  2  0
  9 11  1  0
 11 12  1  0
 11 38  1  0
 11 39  1  0
 12 13  1  0
 12 40  1  0
 12 41  1  0
 13 14  2  0
 13 22  1  0
 14 15  1  0
 15 16  1  0
 15 21  2  0
 16 17  1  0
 16 20  2  0
 17 18  2  0
 17 42  1  0
 18 19  1  0
 18 43  1  0
 19 20  1  0
 20 44  1  0
 21 22  1  0
 23 24  1  0
 23 45  1  0
 23 46  1  0
 24 47  1  0
 24 48  1  0
M  END

