
     RDKit          3D

 52 56  0  0  0  0  0  0  0  0999 V2000
    1.6765    0.0196    1.6044 C   0  0  0  0  0  0  0  0  0  0  0  0
    2.9565    0.0434    0.8135 C   0  0  0  0  0  0  0  0  0  0  0  0
    3.3495    1.1678    0.0722 C   0  0  0  0  0  0  0  0  0  0  0  0
    4.5284    1.2163   -0.6693 C   0  0  0  0  0  0  0  0  0  0  0  0
    5.3887    0.1007   -0.6925 C   0  0  0  0  0  0  0  0  0  0  0  0
    6.6062    0.1131   -1.4185 N   0  0  0  0  0  0  0  0  0  0  0  0
    7.1729    1.2285   -2.0266 C   0  0  0  0  0  0  0  0  0  0  0  0
    6.7187    2.3472   -2.1217 O   0  0  0  0  0  0  0  0  0  0  0  0
    8.5295    0.7747   -2.5560 C   0  0  0  0  0  0  0  0  0  0  0  0
    9.3186    1.4910   -3.1811 O   0  0  0  0  0  0  0  0  0  0  0  0
    8.7050   -0.5972   -2.1871 C   0  0  0  0  0  0  0  0  0  0  0  0
    9.8808   -1.2465   -2.5256 C   0  0  0  0  0  0  0  0  0  0  0  0
   10.7949   -0.5943   -3.2212 O   0  0  0  0  0  0  0  0  0  0  0  0
   10.2113   -2.6655   -2.2475 C   0  0  0  0  0  0  0  0  0  0  0  0
   10.5414   -3.4650   -3.3333 C   0  0  0  0  0  0  0  0  0  0  0  0
   10.7993   -4.8440   -3.1719 C   0  0  0  0  0  0  0  0  0  0  0  0
   10.7475   -5.4121   -1.9169 C   0  0  0  0  0  0  0  0  0  0  0  0
   10.4666   -4.6227   -0.7683 C   0  0  0  0  0  0  0  0  0  0  0  0
   10.4645   -5.1911    0.5368 C   0  0  0  0  0  0  0  0  0  0  0  0
   10.2432   -4.4111    1.6507 C   0  0  0  0  0  0  0  0  0  0  0  0
   10.0290   -3.0185    1.5054 C   0  0  0  0  0  0  0  0  0  0  0  0
   10.0132   -2.4375    0.2540 C   0  0  0  0  0  0  0  0  0  0  0  0
   10.2053   -3.2178   -0.9217 C   0  0  0  0  0  0  0  0  0  0  0  0
    7.4368   -1.1084   -1.5372 C   0  0  2  0  0  0  0  0  0  0  0  0
    6.7517   -2.2114   -2.3506 C   0  0  0  0  0  0  0  0  0  0  0  0
    6.2396   -1.9674   -3.6333 C   0  0  0  0  0  0  0  0  0  0  0  0
    5.6485   -3.0215   -4.3281 C   0  0  0  0  0  0  0  0  0  0  0  0
    5.5948   -4.2813   -3.7247 C   0  0  0  0  0  0  0  0  0  0  0  0
    6.1329   -4.4224   -2.4439 C   0  0  0  0  0  0  0  0  0  0  0  0
    6.6928   -3.4129   -1.7707 N   0  0  0  0  0  0  0  0  0  0  0  0
    5.0211   -1.0440    0.0403 C   0  0  0  0  0  0  0  0  0  0  0  0
    3.8315   -1.0539    0.7684 C   0  0  0  0  0  0  0  0  0  0  0  0
    3.4320   -2.5143    1.6595 Cl  0  0  0  0  0  0  0  0  0  0  0  0
    1.1314    0.9685    1.4985 H   0  0  0  0  0  0  0  0  0  0  0  0
    1.8714   -0.1504    2.6762 H   0  0  0  0  0  0  0  0  0  0  0  0
    1.0165   -0.7993    1.2744 H   0  0  0  0  0  0  0  0  0  0  0  0
    2.7004    2.0479    0.0753 H   0  0  0  0  0  0  0  0  0  0  0  0
    4.7949    2.1123   -1.2221 H   0  0  0  0  0  0  0  0  0  0  0  0
   10.4454    0.3406   -3.3847 H   0  0  0  0  0  0  0  0  0  0  0  0
   10.5763   -3.0199   -4.3297 H   0  0  0  0  0  0  0  0  0  0  0  0
   11.0335   -5.4545   -4.0470 H   0  0  0  0  0  0  0  0  0  0  0  0
   10.9384   -6.4806   -1.7847 H   0  0  0  0  0  0  0  0  0  0  0  0
   10.6543   -6.2628    0.6400 H   0  0  0  0  0  0  0  0  0  0  0  0
   10.2471   -4.8593    2.6472 H   0  0  0  0  0  0  0  0  0  0  0  0
    9.8831   -2.3979    2.3930 H   0  0  0  0  0  0  0  0  0  0  0  0
    9.8741   -1.3590    0.1630 H   0  0  0  0  0  0  0  0  0  0  0  0
    7.6242   -1.5291   -0.5387 H   0  0  0  0  0  0  0  0  0  0  0  0
    6.2998   -0.9707   -4.0762 H   0  0  0  0  0  0  0  0  0  0  0  0
    5.2351   -2.8627   -5.3274 H   0  0  0  0  0  0  0  0  0  0  0  0
    5.1409   -5.1356   -4.2318 H   0  0  0  0  0  0  0  0  0  0  0  0
    6.1052   -5.3915   -1.9328 H   0  0  0  0  0  0  0  0  0  0  0  0
    5.6324   -1.9441    0.0501 H   0  0  0  0  0  0  0  0  0  0  0  0
  1  2  1  0
  1 34  1  0
  1 35  1  0
  1 36  1  0
  2  3  2  0
  2 32  1  0
  3  4  1  0
  3 37  1  0
  4  5  2  0
  4 38  1  0
  5  6  1  0
  5 31  1  0
  6  7  1  0
  6 24  1  0
  7  8  2  0
  7  9  1  0
  9 10  2  0
  9 11  1  0
 11 12  2  0
 11 24  1  0
 12 13  1  0
 12 14  1  0
 13 39  1  0
 14 15  2  0
 14 23  1  0
 15 16  1  0
 15 40  1  0
 16 17  2  0
 16 41  1  0
 17 18  1  0
 17 42  1  0
 18 19  1  0
 18 23  2  0
 19 20  2  0
 19 43  1  0
 20 21  1  0
 20 44  1  0
 21 22  2  0
 21 45  1  0
 22 23  1  0
 22 46  1  0
 24 25  1  0
 24 47  1  1
 25 26  2  0
 25 30  1  0
 26 27  1  0
 26 48  1  0
 27 28  2  0
 27 49  1  0
 28 29  1  0
 28 50  1  0
 29 30  2  0
 29 51  1  0
 31 32  2  0
 31 52  1  0
 32 33  1  0
M  END

