
     RDKit          3D

 28 29  0  0  0  0  0  0  0  0999 V2000
    3.6056    0.8126   -4.2659 O   0  0  0  0  0  0  0  0  0  0  0  0
    2.8905    0.0088   -3.7355 C   0  0  0  0  0  0  0  0  0  0  0  0
    1.5779   -0.0589   -4.0494 O   0  0  0  0  0  0  0  0  0  0  0  0
    3.3590   -0.9909   -2.6824 C   0  0  0  0  0  0  0  0  0  0  0  0
    4.8535   -0.8705   -2.4067 C   0  0  0  0  0  0  0  0  0  0  0  0
    5.3343   -2.0977   -1.1338 S   0  0  0  0  0  0  0  0  0  0  0  0
    7.1316   -1.7417   -1.0663 C   0  0  1  0  0  0  0  0  0  0  0  0
    7.5531   -0.4124   -0.4374 C   0  0  0  0  0  0  0  0  0  0  0  0
    8.7012   -0.7438    0.5078 C   0  0  0  0  0  0  0  0  0  0  0  0
    9.4447    0.0278    1.0360 O   0  0  0  0  0  0  0  0  0  0  0  0
    8.7158   -2.1691    0.6556 N   0  0  0  0  0  0  0  0  0  0  0  0
    9.5431   -2.8762    1.5478 C   0  0  0  0  0  0  0  0  0  0  0  0
   10.2293   -2.3036    2.4876 N   0  0  0  0  0  0  0  0  0  0  0  0
   10.9601   -3.2226    3.1890 C   0  0  0  0  0  0  0  0  0  0  0  0
   10.8297   -4.5221    2.7797 C   0  0  0  0  0  0  0  0  0  0  0  0
    9.7245   -4.6300    1.4505 S   0  0  0  0  0  0  0  0  0  0  0  0
    7.8294   -2.8084   -0.2219 C   0  0  0  0  0  0  0  0  0  0  0  0
    7.6898   -4.0033   -0.3006 O   0  0  0  0  0  0  0  0  0  0  0  0
    1.1358   -0.7557   -3.5433 H   0  0  0  0  0  0  0  0  0  0  0  0
    3.1078   -2.0116   -3.0232 H   0  0  0  0  0  0  0  0  0  0  0  0
    2.7782   -0.8228   -1.7571 H   0  0  0  0  0  0  0  0  0  0  0  0
    5.0877    0.1504   -2.0703 H   0  0  0  0  0  0  0  0  0  0  0  0
    5.4223   -1.0540   -3.3313 H   0  0  0  0  0  0  0  0  0  0  0  0
    7.5300   -1.8471   -2.0900 H   0  0  0  0  0  0  0  0  0  0  0  0
    6.7406    0.0216    0.1684 H   0  0  0  0  0  0  0  0  0  0  0  0
    7.8801    0.3525   -1.1551 H   0  0  0  0  0  0  0  0  0  0  0  0
   11.5875   -2.8864    4.0164 H   0  0  0  0  0  0  0  0  0  0  0  0
   11.2983   -5.4138    3.1930 H   0  0  0  0  0  0  0  0  0  0  0  0
  1  2  2  0
  2  3  1  0
  2  4  1  0
  3 19  1  0
  4  5  1  0
  4 20  1  0
  4 21  1  0
  5  6  1  0
  5 22  1  0
  5 23  1  0
  6  7  1  0
  7  8  1  0
  7 17  1  0
  7 24  1  6
  8  9  1  0
  8 25  1  0
  8 26  1  0
  9 10  2  0
  9 11  1  0
 11 12  1  0
 11 17  1  0
 12 13  2  0
 12 16  1  0
 13 14  1  0
 14 15  2  0
 14 27  1  0
 15 16  1  0
 15 28  1  0
 17 18  2  0
M  END

