
     RDKit          3D

 40 41  0  0  0  0  0  0  0  0999 V2000
    0.8239    1.5656    0.9039 C   0  0  0  0  0  0  0  0  0  0  0  0
    2.1311    1.0125    0.6111 N   0  0  0  0  0  0  0  0  0  0  0  0
    2.8046    0.3811    1.7397 C   0  0  1  0  0  0  0  0  0  0  0  0
    2.2395   -1.0339    1.9791 C   0  0  0  0  0  0  0  0  0  0  0  0
    4.3285    0.3336    1.6048 C   0  0  0  0  0  0  0  0  0  0  0  0
    5.0565    0.1066    2.7879 C   0  0  0  0  0  0  0  0  0  0  0  0
    6.4392    0.0132    2.7836 C   0  0  0  0  0  0  0  0  0  0  0  0
    7.0804   -0.2020    3.9485 F   0  0  0  0  0  0  0  0  0  0  0  0
    7.2008    0.1454    1.6164 C   0  0  0  0  0  0  0  0  0  0  0  0
    8.7022    0.0490    1.6603 C   0  0  0  0  0  0  0  0  0  0  0  0
    6.4809    0.3800    0.4435 C   0  0  0  0  0  0  0  0  0  0  0  0
    5.0794    0.4730    0.4186 C   0  0  0  0  0  0  0  0  0  0  0  0
    4.5108    0.7903   -0.7972 O   0  0  0  0  0  0  0  0  0  0  0  0
    3.9706   -0.2764   -1.5686 C   0  0  0  0  0  0  0  0  0  0  0  0
    3.7420    0.1764   -2.9917 C   0  0  0  0  0  0  0  0  0  0  0  0
    4.3687    1.3143   -3.5154 C   0  0  0  0  0  0  0  0  0  0  0  0
    4.1685    1.6963   -4.8449 C   0  0  0  0  0  0  0  0  0  0  0  0
    3.3357    0.9298   -5.6627 C   0  0  0  0  0  0  0  0  0  0  0  0
    3.0813    1.4004   -7.3299 Cl  0  0  0  0  0  0  0  0  0  0  0  0
    2.6977   -0.2086   -5.1605 C   0  0  0  0  0  0  0  0  0  0  0  0
    2.9015   -0.5728   -3.8290 C   0  0  0  0  0  0  0  0  0  0  0  0
    0.4391    2.0899    0.0157 H   0  0  0  0  0  0  0  0  0  0  0  0
    0.8134    2.2828    1.7562 H   0  0  0  0  0  0  0  0  0  0  0  0
    0.1006    0.7693    1.1447 H   0  0  0  0  0  0  0  0  0  0  0  0
    2.7308    1.7089    0.1781 H   0  0  0  0  0  0  0  0  0  0  0  0
    2.6126    0.9621    2.6714 H   0  0  0  0  0  0  0  0  0  0  0  0
    2.4609   -1.6880    1.1218 H   0  0  0  0  0  0  0  0  0  0  0  0
    1.1470   -1.0000    2.1106 H   0  0  0  0  0  0  0  0  0  0  0  0
    2.6704   -1.4889    2.8837 H   0  0  0  0  0  0  0  0  0  0  0  0
    4.5388    0.0070    3.7449 H   0  0  0  0  0  0  0  0  0  0  0  0
    9.1324    0.8149    2.3264 H   0  0  0  0  0  0  0  0  0  0  0  0
    9.1367    0.1801    0.6592 H   0  0  0  0  0  0  0  0  0  0  0  0
    9.0282   -0.9282    2.0529 H   0  0  0  0  0  0  0  0  0  0  0  0
    7.0102    0.5119   -0.5033 H   0  0  0  0  0  0  0  0  0  0  0  0
    3.0153   -0.6044   -1.1239 H   0  0  0  0  0  0  0  0  0  0  0  0
    4.6747   -1.1317   -1.5538 H   0  0  0  0  0  0  0  0  0  0  0  0
    5.0129    1.9112   -2.8683 H   0  0  0  0  0  0  0  0  0  0  0  0
    4.6552    2.5859   -5.2488 H   0  0  0  0  0  0  0  0  0  0  0  0
    2.0434   -0.7950   -5.8077 H   0  0  0  0  0  0  0  0  0  0  0  0
    2.3918   -1.4577   -3.4361 H   0  0  0  0  0  0  0  0  0  0  0  0
  1  2  1  0
  1 22  1  0
  1 23  1  0
  1 24  1  0
  2  3  1  0
  2 25  1  0
  3  4  1  0
  3  5  1  0
  3 26  1  1
  4 27  1  0
  4 28  1  0
  4 29  1  0
  5  6  2  0
  5 12  1  0
  6  7  1  0
  6 30  1  0
  7  8  1  0
  7  9  2  0
  9 10  1  0
  9 11  1  0
 10 31  1  0
 10 32  1  0
 10 33  1  0
 11 12  2  0
 11 34  1  0
 12 13  1  0
 13 14  1  0
 14 15  1  0
 14 35  1  0
 14 36  1  0
 15 16  2  0
 15 21  1  0
 16 17  1  0
 16 37  1  0
 17 18  2  0
 17 38  1  0
 18 19  1  0
 18 20  1  0
 20 21  2  0
 20 39  1  0
 21 40  1  0
M  END

