
     RDKit          3D

 42 43  0  0  0  0  0  0  0  0999 V2000
    5.5242   -0.5716    2.6449 C   0  0  0  0  0  0  0  0  0  0  0  0
    5.7500   -0.3627    1.1567 C   0  0  0  0  0  0  0  0  0  0  0  0
    5.7979    1.0360    0.8171 O   0  0  0  0  0  0  0  0  0  0  0  0
    4.6360    1.6515    0.5767 C   0  0  0  0  0  0  0  0  0  0  0  0
    3.5472    1.1195    0.6140 O   0  0  0  0  0  0  0  0  0  0  0  0
    4.7874    3.0894    0.2425 C   0  0  0  0  0  0  0  0  0  0  0  0
    5.9236    3.6891    0.2007 N   0  0  0  0  0  0  0  0  0  0  0  0
    5.7553    4.9976   -0.1216 O   0  0  0  0  0  0  0  0  0  0  0  0
    4.3438    5.2866   -0.4230 C   0  0  1  0  0  0  0  0  0  0  0  0
    4.2296    5.7105   -1.8836 C   0  0  0  0  0  0  0  0  0  0  0  0
    5.0091    6.9853   -2.2105 C   0  0  0  0  0  0  0  0  0  0  0  0
    4.9435    7.3672   -3.6904 C   0  0  0  0  0  0  0  0  0  0  0  0
    5.5330    8.7535   -3.9574 C   0  0  0  0  0  0  0  0  0  0  0  0
    5.3868    9.6725   -3.1718 O   0  0  0  0  0  0  0  0  0  0  0  0
    6.1986    8.8620   -5.1575 N   0  0  0  0  0  0  0  0  0  0  0  0
    6.8037    9.9914   -5.7453 C   0  0  0  0  0  0  0  0  0  0  0  0
    7.4090    9.8221   -7.0046 C   0  0  0  0  0  0  0  0  0  0  0  0
    8.0263   10.8951   -7.6458 C   0  0  0  0  0  0  0  0  0  0  0  0
    8.0511   12.1565   -7.0430 C   0  0  0  0  0  0  0  0  0  0  0  0
    7.4505   12.3244   -5.7924 C   0  0  0  0  0  0  0  0  0  0  0  0
    6.8281   11.2592   -5.1362 C   0  0  0  0  0  0  0  0  0  0  0  0
    3.6130    3.9831   -0.0623 C   0  0  0  0  0  0  0  0  0  0  0  0
    5.5776   -1.6460    2.8832 H   0  0  0  0  0  0  0  0  0  0  0  0
    4.5320   -0.2043    2.9463 H   0  0  0  0  0  0  0  0  0  0  0  0
    6.2919   -0.0486    3.2359 H   0  0  0  0  0  0  0  0  0  0  0  0
    4.9589   -0.8479    0.5657 H   0  0  0  0  0  0  0  0  0  0  0  0
    6.7275   -0.7556    0.8425 H   0  0  0  0  0  0  0  0  0  0  0  0
    4.0635    6.1227    0.2372 H   0  0  0  0  0  0  0  0  0  0  0  0
    3.1576    5.8529   -2.1128 H   0  0  0  0  0  0  0  0  0  0  0  0
    4.5754    4.8712   -2.5140 H   0  0  0  0  0  0  0  0  0  0  0  0
    6.0607    6.8544   -1.9082 H   0  0  0  0  0  0  0  0  0  0  0  0
    4.6203    7.8309   -1.6204 H   0  0  0  0  0  0  0  0  0  0  0  0
    3.8874    7.4074   -4.0179 H   0  0  0  0  0  0  0  0  0  0  0  0
    5.4319    6.5997   -4.3152 H   0  0  0  0  0  0  0  0  0  0  0  0
    6.2571    8.0140   -5.7086 H   0  0  0  0  0  0  0  0  0  0  0  0
    7.3944    8.8380   -7.4838 H   0  0  0  0  0  0  0  0  0  0  0  0
    8.4905   10.7418   -8.6234 H   0  0  0  0  0  0  0  0  0  0  0  0
    8.5344   12.9988   -7.5434 H   0  0  0  0  0  0  0  0  0  0  0  0
    7.4635   13.3050   -5.3093 H   0  0  0  0  0  0  0  0  0  0  0  0
    6.3627   11.3900   -4.1624 H   0  0  0  0  0  0  0  0  0  0  0  0
    3.0022    3.5835   -0.8873 H   0  0  0  0  0  0  0  0  0  0  0  0
    2.9497    4.0753    0.8122 H   0  0  0  0  0  0  0  0  0  0  0  0
  1  2  1  0
  1 23  1  0
  1 24  1  0
  1 25  1  0
  2  3  1  0
  2 26  1  0
  2 27  1  0
  3  4  1  0
  4  5  2  0
  4  6  1  0
  6  7  2  0
  6 22  1  0
  7  8  1  0
  8  9  1  0
  9 10  1  0
  9 22  1  0
  9 28  1  1
 10 11  1  0
 10 29  1  0
 10 30  1  0
 11 12  1  0
 11 31  1  0
 11 32  1  0
 12 13  1  0
 12 33  1  0
 12 34  1  0
 13 14  2  0
 13 15  1  0
 15 16  1  0
 15 35  1  0
 16 17  2  0
 16 21  1  0
 17 18  1  0
 17 36  1  0
 18 19  2  0
 18 37  1  0
 19 20  1  0
 19 38  1  0
 20 21  2  0
 20 39  1  0
 21 40  1  0
 22 41  1  0
 22 42  1  0
M  END

