
     RDKit          3D

 72 80  0  0  0  0  0  0  0  0999 V2000
    1.4697   -0.5186    0.5097 O   0  0  0  0  0  0  0  0  0  0  0  0
    3.0754   -0.3088    0.0362 Si  0  0  1  0  0  4  0  0  0  0  0  0
    3.6845   -2.0972   -0.3516 C   0  0  0  0  0  0  0  0  0  0  0  0
    4.2780   -2.4849   -1.5879 C   0  0  0  0  0  0  0  0  0  0  0  0
    4.7857   -1.5438   -2.5465 C   0  0  0  0  0  0  0  0  0  0  0  0
    5.3619   -1.9449   -3.7268 C   0  0  0  0  0  0  0  0  0  0  0  0
    5.4688   -3.3264   -4.0557 C   0  0  0  0  0  0  0  0  0  0  0  0
    5.0138   -4.2690   -3.1711 C   0  0  0  0  0  0  0  0  0  0  0  0
    4.4288   -3.8899   -1.9196 C   0  0  0  0  0  0  0  0  0  0  0  0
    4.0042   -4.8610   -1.0076 C   0  0  0  0  0  0  0  0  0  0  0  0
    3.4936   -4.5139    0.2478 C   0  0  0  0  0  0  0  0  0  0  0  0
    3.1126   -5.5247    1.1885 C   0  0  0  0  0  0  0  0  0  0  0  0
    2.6491   -5.1982    2.4366 C   0  0  0  0  0  0  0  0  0  0  0  0
    2.5642   -3.8284    2.8154 C   0  0  0  0  0  0  0  0  0  0  0  0
    2.9069   -2.8314    1.9337 C   0  0  0  0  0  0  0  0  0  0  0  0
    3.3592   -3.1139    0.5968 C   0  0  0  0  0  0  0  0  0  0  0  0
    2.8764    0.8422   -1.4878 C   0  0  0  0  0  0  0  0  0  0  0  0
    3.6910    1.9958   -1.6988 C   0  0  0  0  0  0  0  0  0  0  0  0
    4.8908    2.2682   -0.9576 C   0  0  0  0  0  0  0  0  0  0  0  0
    5.6547    3.3872   -1.1842 C   0  0  0  0  0  0  0  0  0  0  0  0
    5.2796    4.3414   -2.1715 C   0  0  0  0  0  0  0  0  0  0  0  0
    4.1568    4.1217   -2.9257 C   0  0  0  0  0  0  0  0  0  0  0  0
    3.3505    2.9532   -2.7344 C   0  0  0  0  0  0  0  0  0  0  0  0
    2.2426    2.7145   -3.5520 C   0  0  0  0  0  0  0  0  0  0  0  0
    1.4801    1.5488   -3.4340 C   0  0  0  0  0  0  0  0  0  0  0  0
    0.3967    1.2984   -4.3375 C   0  0  0  0  0  0  0  0  0  0  0  0
   -0.3300    0.1395   -4.2674 C   0  0  0  0  0  0  0  0  0  0  0  0
   -0.0020   -0.8323   -3.2800 C   0  0  0  0  0  0  0  0  0  0  0  0
    1.0141   -0.6158   -2.3822 C   0  0  0  0  0  0  0  0  0  0  0  0
    1.8026    0.5863   -2.3979 C   0  0  0  0  0  0  0  0  0  0  0  0
    3.9748    0.4979    1.5375 C   0  0  0  0  0  0  0  0  0  0  0  0
    3.2671    1.4834    2.2942 C   0  0  0  0  0  0  0  0  0  0  0  0
    2.0192    2.0620    1.8728 C   0  0  0  0  0  0  0  0  0  0  0  0
    1.3719    3.0147    2.6207 C   0  0  0  0  0  0  0  0  0  0  0  0
    1.9087    3.4675    3.8595 C   0  0  0  0  0  0  0  0  0  0  0  0
    3.1000    2.9580    4.3043 C   0  0  0  0  0  0  0  0  0  0  0  0
    3.8153    1.9769    3.5437 C   0  0  0  0  0  0  0  0  0  0  0  0
    5.0489    1.4949    3.9916 C   0  0  0  0  0  0  0  0  0  0  0  0
    5.7993    0.5854    3.2403 C   0  0  0  0  0  0  0  0  0  0  0  0
    7.0892    0.1562    3.6917 C   0  0  0  0  0  0  0  0  0  0  0  0
    7.8600   -0.6906    2.9385 C   0  0  0  0  0  0  0  0  0  0  0  0
    7.3728   -1.1473    1.6813 C   0  0  0  0  0  0  0  0  0  0  0  0
    6.1306   -0.7741    1.2285 C   0  0  0  0  0  0  0  0  0  0  0  0
    5.2685    0.0915    1.9840 C   0  0  0  0  0  0  0  0  0  0  0  0
    1.2891   -1.2481    1.1138 H   0  0  0  0  0  0  0  0  0  0  0  0
    4.7257   -0.4795   -2.3297 H   0  0  0  0  0  0  0  0  0  0  0  0
    5.7436   -1.1932   -4.4223 H   0  0  0  0  0  0  0  0  0  0  0  0
    5.9204   -3.6272   -5.0043 H   0  0  0  0  0  0  0  0  0  0  0  0
    5.1005   -5.3350   -3.3987 H   0  0  0  0  0  0  0  0  0  0  0  0
    4.0940   -5.9184   -1.2732 H   0  0  0  0  0  0  0  0  0  0  0  0
    3.2109   -6.5717    0.8883 H   0  0  0  0  0  0  0  0  0  0  0  0
    2.3654   -5.9787    3.1466 H   0  0  0  0  0  0  0  0  0  0  0  0
    2.2416   -3.5671    3.8265 H   0  0  0  0  0  0  0  0  0  0  0  0
    2.8852   -1.8003    2.2900 H   0  0  0  0  0  0  0  0  0  0  0  0
    5.2209    1.5641   -0.1991 H   0  0  0  0  0  0  0  0  0  0  0  0
    6.5639    3.5441   -0.5984 H   0  0  0  0  0  0  0  0  0  0  0  0
    5.8920    5.2324   -2.3311 H   0  0  0  0  0  0  0  0  0  0  0  0
    3.8598    4.8305   -3.7037 H   0  0  0  0  0  0  0  0  0  0  0  0
    1.9829    3.4451   -4.3239 H   0  0  0  0  0  0  0  0  0  0  0  0
    0.1732    2.0534   -5.0964 H   0  0  0  0  0  0  0  0  0  0  0  0
   -1.1493   -0.0469   -4.9663 H   0  0  0  0  0  0  0  0  0  0  0  0
   -0.5676   -1.7667   -3.2357 H   0  0  0  0  0  0  0  0  0  0  0  0
    1.2218   -1.3803   -1.6388 H   0  0  0  0  0  0  0  0  0  0  0  0
    1.5633    1.7381    0.9403 H   0  0  0  0  0  0  0  0  0  0  0  0
    0.4298    3.4329    2.2572 H   0  0  0  0  0  0  0  0  0  0  0  0
    1.3738    4.2212    4.4429 H   0  0  0  0  0  0  0  0  0  0  0  0
    3.5371    3.2999    5.2466 H   0  0  0  0  0  0  0  0  0  0  0  0
    5.4494    1.8585    4.9426 H   0  0  0  0  0  0  0  0  0  0  0  0
    7.4518    0.5349    4.6514 H   0  0  0  0  0  0  0  0  0  0  0  0
    8.8460   -1.0055    3.2891 H   0  0  0  0  0  0  0  0  0  0  0  0
    7.9953   -1.8019    1.0659 H   0  0  0  0  0  0  0  0  0  0  0  0
    5.8016   -1.1414    0.2593 H   0  0  0  0  0  0  0  0  0  0  0  0
  2  1  1  1
  1 45  1  0
  2  3  1  0
  2 17  1  0
  2 31  1  0
  3  4  1  0
  3 16  2  0
  4  5  2  0
  4  9  1  0
  5  6  1  0
  5 46  1  0
  6  7  2  0
  6 47  1  0
  7  8  1  0
  7 48  1  0
  8  9  2  0
  8 49  1  0
  9 10  1  0
 10 11  2  0
 10 50  1  0
 11 12  1  0
 11 16  1  0
 12 13  2  0
 12 51  1  0
 13 14  1  0
 13 52  1  0
 14 15  2  0
 14 53  1  0
 15 16  1  0
 15 54  1  0
 17 18  1  0
 17 30  2  0
 18 19  2  0
 18 23  1  0
 19 20  1  0
 19 55  1  0
 20 21  2  0
 20 56  1  0
 21 22  1  0
 21 57  1  0
 22 23  2  0
 22 58  1  0
 23 24  1  0
 24 25  2  0
 24 59  1  0
 25 26  1  0
 25 30  1  0
 26 27  2  0
 26 60  1  0
 27 28  1  0
 27 61  1  0
 28 29  2  0
 28 62  1  0
 29 30  1  0
 29 63  1  0
 31 32  1  0
 31 44  2  0
 32 33  2  0
 32 37  1  0
 33 34  1  0
 33 64  1  0
 34 35  2  0
 34 65  1  0
 35 36  1  0
 35 66  1  0
 36 37  2  0
 36 67  1  0
 37 38  1  0
 38 39  2  0
 38 68  1  0
 39 40  1  0
 39 44  1  0
 40 41  2  0
 40 69  1  0
 41 42  1  0
 41 70  1  0
 42 43  2  0
 42 71  1  0
 43 44  1  0
 43 72  1  0
M  END

