
     RDKit          3D

 45 48  0  0  0  0  0  0  0  0999 V2000
    0.8105    0.6269    0.9770 C   0  0  0  0  0  0  0  0  0  0  0  0
    2.1941    1.2472    1.0917 C   0  0  0  0  0  0  0  0  0  0  0  0
    2.3760    2.4476    1.1023 O   0  0  0  0  0  0  0  0  0  0  0  0
    3.2167    0.3127    1.1613 N   0  0  0  0  0  0  0  0  0  0  0  0
    4.5999    0.5183    1.2400 C   0  0  0  0  0  0  0  0  0  0  0  0
    5.1904    1.8033    1.2707 C   0  0  0  0  0  0  0  0  0  0  0  0
    6.5707    1.9201    1.3506 C   0  0  0  0  0  0  0  0  0  0  0  0
    7.4192    0.7944    1.4019 C   0  0  0  0  0  0  0  0  0  0  0  0
    8.8690    0.8379    1.4774 C   0  0  0  0  0  0  0  0  0  0  0  0
    9.5977    2.1620    1.4892 C   0  0  0  0  0  0  0  0  0  0  0  0
    9.3044    2.9217    2.6763 O   0  0  0  0  0  0  0  0  0  0  0  0
   10.1101    2.7216    3.7430 C   0  0  0  0  0  0  0  0  0  0  0  0
   11.0693    1.9874    3.7431 O   0  0  0  0  0  0  0  0  0  0  0  0
    9.6811    3.5204    4.9084 C   0  0  0  0  0  0  0  0  0  0  0  0
    8.6142    4.3696    5.0288 C   0  0  0  0  0  0  0  0  0  0  0  0
    8.5289    4.9639    6.3319 C   0  0  0  0  0  0  0  0  0  0  0  0
    7.5796    5.8771    6.8277 C   0  0  0  0  0  0  0  0  0  0  0  0
    7.7107    6.3119    8.1375 C   0  0  0  0  0  0  0  0  0  0  0  0
    6.7188    7.2713    8.6671 N   0  0  0  0  0  0  0  0  0  0  0  0
    5.8286    7.6360    7.9161 O   0  0  0  0  0  0  0  0  0  0  0  0
    6.8528    7.6386    9.8232 O   0  0  0  0  0  0  0  0  0  0  0  0
    8.7490    5.8785    8.9856 C   0  0  0  0  0  0  0  0  0  0  0  0
    9.6914    4.9784    8.5099 C   0  0  0  0  0  0  0  0  0  0  0  0
    9.5822    4.5213    7.1852 C   0  0  0  0  0  0  0  0  0  0  0  0
   10.6388    3.3982    6.3756 S   0  0  0  0  0  0  0  0  0  0  0  0
    9.5699   -0.3259    1.5302 C   0  0  0  0  0  0  0  0  0  0  0  0
    8.9266   -1.6377    1.4954 C   0  0  0  0  0  0  0  0  0  0  0  0
    9.4800   -2.7032    1.5271 O   0  0  0  0  0  0  0  0  0  0  0  0
    7.5365   -1.6212    1.4155 O   0  0  0  0  0  0  0  0  0  0  0  0
    6.8064   -0.4784    1.3717 C   0  0  0  0  0  0  0  0  0  0  0  0
    5.4215   -0.6175    1.2917 C   0  0  0  0  0  0  0  0  0  0  0  0
    0.0632    1.4117    1.1437 H   0  0  0  0  0  0  0  0  0  0  0  0
    0.6598   -0.1857    1.7054 H   0  0  0  0  0  0  0  0  0  0  0  0
    0.6645    0.2097   -0.0334 H   0  0  0  0  0  0  0  0  0  0  0  0
    2.9307   -0.6597    1.1477 H   0  0  0  0  0  0  0  0  0  0  0  0
    4.5518    2.6816    1.2334 H   0  0  0  0  0  0  0  0  0  0  0  0
    7.0066    2.9196    1.3885 H   0  0  0  0  0  0  0  0  0  0  0  0
    9.2658    2.7968    0.6556 H   0  0  0  0  0  0  0  0  0  0  0  0
   10.6803    2.0001    1.4184 H   0  0  0  0  0  0  0  0  0  0  0  0
    7.9133    4.5619    4.2169 H   0  0  0  0  0  0  0  0  0  0  0  0
    6.7561    6.2450    6.2158 H   0  0  0  0  0  0  0  0  0  0  0  0
    8.7894    6.2624   10.0042 H   0  0  0  0  0  0  0  0  0  0  0  0
   10.5009    4.6343    9.1567 H   0  0  0  0  0  0  0  0  0  0  0  0
   10.6577   -0.3411    1.6081 H   0  0  0  0  0  0  0  0  0  0  0  0
    5.0055   -1.6272    1.2700 H   0  0  0  0  0  0  0  0  0  0  0  0
  1  2  1  0
  1 32  1  0
  1 33  1  0
  1 34  1  0
  2  3  2  0
  2  4  1  0
  4  5  1  0
  4 35  1  0
  5  6  2  0
  5 31  1  0
  6  7  1  0
  6 36  1  0
  7  8  2  0
  7 37  1  0
  8  9  1  0
  8 30  1  0
  9 10  1  0
  9 26  2  0
 10 11  1  0
 10 38  1  0
 10 39  1  0
 11 12  1  0
 12 13  2  0
 12 14  1  0
 14 15  2  0
 14 25  1  0
 15 16  1  0
 15 40  1  0
 16 17  2  0
 16 24  1  0
 17 18  1  0
 17 41  1  0
 18 19  1  0
 18 22  2  0
 19 20  2  0
 19 21  1  0
 22 23  1  0
 22 42  1  0
 23 24  2  0
 23 43  1  0
 24 25  1  0
 26 27  1  0
 26 44  1  0
 27 28  2  0
 27 29  1  0
 29 30  1  0
 30 31  2  0
 31 45  1  0
M  CHG  2  19   1  21  -1
M  END

