
     RDKit          3D

 44 46  0  0  0  0  0  0  0  0999 V2000
    2.6174   -3.3912   -4.1022 C   0  0  0  0  0  0  0  0  0  0  0  0
    2.6568   -2.9781   -2.7487 O   0  0  0  0  0  0  0  0  0  0  0  0
    3.6300   -2.1323   -2.3271 C   0  0  0  0  0  0  0  0  0  0  0  0
    4.6441   -1.6171   -3.1401 C   0  0  0  0  0  0  0  0  0  0  0  0
    5.6008   -0.7514   -2.6049 C   0  0  0  0  0  0  0  0  0  0  0  0
    5.5198   -0.4182   -1.2571 C   0  0  0  0  0  0  0  0  0  0  0  0
    6.5282    0.4951   -0.6878 N   0  0  0  0  0  0  0  0  0  0  0  0
    7.3938    0.9191   -1.4396 O   0  0  0  0  0  0  0  0  0  0  0  0
    6.4390    0.7718    0.4972 O   0  0  0  0  0  0  0  0  0  0  0  0
    4.5183   -0.9147   -0.4172 C   0  0  0  0  0  0  0  0  0  0  0  0
    3.5610   -1.7807   -0.9486 C   0  0  0  0  0  0  0  0  0  0  0  0
    2.5092   -2.3475   -0.2175 N   0  0  0  0  0  0  0  0  0  0  0  0
    2.2086   -2.1815    1.1140 C   0  0  0  0  0  0  0  0  0  0  0  0
    2.8400   -1.4625    1.8691 O   0  0  0  0  0  0  0  0  0  0  0  0
    1.0166   -2.9981    1.6027 C   0  0  0  0  0  0  0  0  0  0  0  0
    0.1373   -2.1698    2.5480 C   0  0  0  0  0  0  0  0  0  0  0  0
   -0.8172   -2.9854    3.3043 N   0  0  0  0  0  0  0  0  0  0  0  0
   -2.1462   -2.9116    2.8995 C   0  0  0  0  0  0  0  0  0  0  0  0
   -2.4948   -2.2667    1.9278 O   0  0  0  0  0  0  0  0  0  0  0  0
   -3.1548   -3.6555    3.7544 C   0  0  0  0  0  0  0  0  0  0  0  0
   -2.6183   -5.3741    4.0274 S   0  0  0  0  0  0  0  0  0  0  0  0
   -1.0712   -4.9529    4.7866 C   0  0  0  0  0  0  0  0  0  0  0  0
   -0.5561   -5.7841    5.7899 C   0  0  0  0  0  0  0  0  0  0  0  0
    0.6764   -5.5127    6.3830 C   0  0  0  0  0  0  0  0  0  0  0  0
    1.3905   -4.3822    5.9812 C   0  0  0  0  0  0  0  0  0  0  0  0
    0.8836   -3.5402    4.9903 C   0  0  0  0  0  0  0  0  0  0  0  0
   -0.3485   -3.8095    4.3629 C   0  0  0  0  0  0  0  0  0  0  0  0
    1.7518   -4.0590   -4.1982 H   0  0  0  0  0  0  0  0  0  0  0  0
    3.5321   -3.9414   -4.3822 H   0  0  0  0  0  0  0  0  0  0  0  0
    2.4883   -2.5315   -4.7818 H   0  0  0  0  0  0  0  0  0  0  0  0
    4.6965   -1.8859   -4.1947 H   0  0  0  0  0  0  0  0  0  0  0  0
    6.4009   -0.3360   -3.2157 H   0  0  0  0  0  0  0  0  0  0  0  0
    4.4834   -0.6311    0.6308 H   0  0  0  0  0  0  0  0  0  0  0  0
    1.9085   -2.9554   -0.7636 H   0  0  0  0  0  0  0  0  0  0  0  0
    1.4329   -3.8630    2.1485 H   0  0  0  0  0  0  0  0  0  0  0  0
    0.4157   -3.3963    0.7701 H   0  0  0  0  0  0  0  0  0  0  0  0
   -0.4576   -1.4533    1.9706 H   0  0  0  0  0  0  0  0  0  0  0  0
    0.7779   -1.5965    3.2291 H   0  0  0  0  0  0  0  0  0  0  0  0
   -4.1061   -3.6701    3.2095 H   0  0  0  0  0  0  0  0  0  0  0  0
   -3.2984   -3.1491    4.7237 H   0  0  0  0  0  0  0  0  0  0  0  0
   -1.1426   -6.6507    6.1046 H   0  0  0  0  0  0  0  0  0  0  0  0
    1.0684   -6.1735    7.1594 H   0  0  0  0  0  0  0  0  0  0  0  0
    2.3527   -4.1437    6.4401 H   0  0  0  0  0  0  0  0  0  0  0  0
    1.4722   -2.6732    4.6929 H   0  0  0  0  0  0  0  0  0  0  0  0
  1  2  1  0
  1 28  1  0
  1 29  1  0
  1 30  1  0
  2  3  1  0
  3  4  2  0
  3 11  1  0
  4  5  1  0
  4 31  1  0
  5  6  2  0
  5 32  1  0
  6  7  1  0
  6 10  1  0
  7  8  1  0
  7  9  1  0
 10 11  2  0
 10 33  1  0
 11 12  1  0
 12 13  1  0
 12 34  1  0
 13 14  2  0
 13 15  1  0
 15 16  1  0
 15 35  1  0
 15 36  1  0
 16 17  1  0
 16 37  1  0
 16 38  1  0
 17 18  1  0
 17 27  2  0
 18 19  2  0
 18 20  1  0
 20 21  1  0
 20 39  1  0
 20 40  1  0
 21 22  2  0
 22 23  1  0
 22 27  1  0
 23 24  2  0
 23 41  1  0
 24 25  1  0
 24 42  1  0
 25 26  2  0
 25 43  1  0
 26 27  1  0
 26 44  1  0
M  CHG  4   8  -1   9  -1  17   1  21   1
M  END

