
     RDKit          3D

 30 30  0  0  0  0  0  0  0  0999 V2000
    0.8489    0.8931   -1.5663 C   0  0  0  0  0  0  0  0  0  0  0  0
    2.2917    0.8953   -1.7316 N   0  0  0  0  0  0  0  0  0  0  0  0
    2.8036    0.9226   -3.0271 N   0  0  0  0  0  0  0  0  0  0  0  0
    3.1210    0.9773   -0.6281 C   0  0  0  0  0  0  0  0  0  0  0  0
    2.6474    0.9891    0.4966 O   0  0  0  0  0  0  0  0  0  0  0  0
    4.6601    1.0579   -0.8531 C   0  0  1  0  0  0  0  0  0  0  0  0
    5.3190    1.2087    0.5374 C   0  0  0  0  0  0  0  0  0  0  0  0
    5.1587   -0.2638   -1.4741 C   0  0  0  0  0  0  0  0  0  0  0  0
    5.0058    2.3025   -1.6854 C   0  0  0  0  0  0  0  0  0  0  0  0
    4.4205    3.5377   -1.3523 C   0  0  0  0  0  0  0  0  0  0  0  0
    4.7369    4.7101   -2.0423 C   0  0  0  0  0  0  0  0  0  0  0  0
    5.6668    4.6507   -3.0772 C   0  0  0  0  0  0  0  0  0  0  0  0
    5.9807    5.7721   -3.7470 F   0  0  0  0  0  0  0  0  0  0  0  0
    6.2747    3.4500   -3.4303 C   0  0  0  0  0  0  0  0  0  0  0  0
    5.9385    2.2855   -2.7334 C   0  0  0  0  0  0  0  0  0  0  0  0
    0.4040    0.0065   -2.0527 H   0  0  0  0  0  0  0  0  0  0  0  0
    0.4018    1.7973   -2.0194 H   0  0  0  0  0  0  0  0  0  0  0  0
    0.6178    0.8727   -0.4950 H   0  0  0  0  0  0  0  0  0  0  0  0
    2.5398    1.7920   -3.4987 H   0  0  0  0  0  0  0  0  0  0  0  0
    2.4217    0.1417   -3.5648 H   0  0  0  0  0  0  0  0  0  0  0  0
    5.0887    0.3420    1.1733 H   0  0  0  0  0  0  0  0  0  0  0  0
    4.9600    2.1045    1.0613 H   0  0  0  0  0  0  0  0  0  0  0  0
    6.4106    1.2868    0.4185 H   0  0  0  0  0  0  0  0  0  0  0  0
    4.8060   -1.1141   -0.8696 H   0  0  0  0  0  0  0  0  0  0  0  0
    6.2594   -0.3009   -1.4705 H   0  0  0  0  0  0  0  0  0  0  0  0
    4.8048   -0.3937   -2.5039 H   0  0  0  0  0  0  0  0  0  0  0  0
    3.6994    3.5901   -0.5319 H   0  0  0  0  0  0  0  0  0  0  0  0
    4.2792    5.6674   -1.7843 H   0  0  0  0  0  0  0  0  0  0  0  0
    7.0004    3.4364   -4.2462 H   0  0  0  0  0  0  0  0  0  0  0  0
    6.4149    1.3500   -3.0285 H   0  0  0  0  0  0  0  0  0  0  0  0
  1  2  1  0
  1 16  1  0
  1 17  1  0
  1 18  1  0
  2  3  1  0
  2  4  1  0
  3 19  1  0
  3 20  1  0
  4  5  2  0
  6  4  1  1
  6  7  1  0
  6  8  1  0
  6  9  1  0
  7 21  1  0
  7 22  1  0
  7 23  1  0
  8 24  1  0
  8 25  1  0
  8 26  1  0
  9 10  2  0
  9 15  1  0
 10 11  1  0
 10 27  1  0
 11 12  2  0
 11 28  1  0
 12 13  1  0
 12 14  1  0
 14 15  2  0
 14 29  1  0
 15 30  1  0
M  END

