
     RDKit          3D

 35 35  0  0  0  0  0  0  0  0999 V2000
    2.9124    1.1277    0.5797 C   0  0  0  0  0  0  0  0  0  0  0  0
    2.6278    1.2877   -0.9155 C   0  0  1  0  0  0  0  0  0  0  0  0
    3.1538    2.4977   -1.4201 O   0  0  0  0  0  0  0  0  0  0  0  0
    3.0940    0.0859   -1.7580 C   0  0  0  0  0  0  0  0  0  0  0  0
    4.5324   -0.1129   -1.7127 N   0  0  0  0  0  0  0  0  0  0  0  0
    5.3410   -0.0358   -2.7891 C   0  0  0  0  0  0  0  0  0  0  0  0
    5.0166    0.2376   -3.9356 O   0  0  0  0  0  0  0  0  0  0  0  0
    6.8147   -0.3432   -2.4246 C   0  0  0  0  0  0  0  0  0  0  0  0
    7.1481   -0.6253   -1.2841 O   0  0  0  0  0  0  0  0  0  0  0  0
    7.6048   -0.2504   -3.5245 N   0  0  0  0  0  0  0  0  0  0  0  0
    8.9855   -0.4477   -3.6504 C   0  0  0  0  0  0  0  0  0  0  0  0
    9.8059   -0.7892   -2.5583 C   0  0  0  0  0  0  0  0  0  0  0  0
   11.1742   -0.9693   -2.7552 C   0  0  0  0  0  0  0  0  0  0  0  0
   11.7233   -0.8176   -4.0306 C   0  0  0  0  0  0  0  0  0  0  0  0
   13.4819   -1.0543   -4.2722 S   0  0  1  0  0  0  0  0  0  0  0  0
   13.6210   -2.7017   -4.6302 N   0  0  0  0  0  0  0  0  0  0  0  0
   13.8631   -0.3247   -5.4843 O   0  0  0  0  0  0  0  0  0  0  0  0
   14.1388   -0.8400   -2.9806 O   0  0  0  0  0  0  0  0  0  0  0  0
   10.9215   -0.4656   -5.1201 C   0  0  0  0  0  0  0  0  0  0  0  0
    9.5558   -0.2843   -4.9277 C   0  0  0  0  0  0  0  0  0  0  0  0
    2.5390    2.0064    1.1258 H   0  0  0  0  0  0  0  0  0  0  0  0
    3.9963    1.0538    0.7758 H   0  0  0  0  0  0  0  0  0  0  0  0
    2.4281    0.2283    0.9937 H   0  0  0  0  0  0  0  0  0  0  0  0
    1.5360    1.3615   -1.0586 H   0  0  0  0  0  0  0  0  0  0  0  0
    4.1191    2.4410   -1.3797 H   0  0  0  0  0  0  0  0  0  0  0  0
    2.8319    0.2605   -2.8106 H   0  0  0  0  0  0  0  0  0  0  0  0
    2.5799   -0.8313   -1.4200 H   0  0  0  0  0  0  0  0  0  0  0  0
    4.9949   -0.4089   -0.8555 H   0  0  0  0  0  0  0  0  0  0  0  0
    7.0746    0.0005   -4.3604 H   0  0  0  0  0  0  0  0  0  0  0  0
    9.3638   -0.9026   -1.5707 H   0  0  0  0  0  0  0  0  0  0  0  0
   11.8241   -1.2149   -1.9134 H   0  0  0  0  0  0  0  0  0  0  0  0
   14.0229   -2.8196   -5.5602 H   0  0  0  0  0  0  0  0  0  0  0  0
   14.1777   -3.1667   -3.9131 H   0  0  0  0  0  0  0  0  0  0  0  0
   11.3722   -0.3219   -6.1034 H   0  0  0  0  0  0  0  0  0  0  0  0
    8.9199   -0.0053   -5.7723 H   0  0  0  0  0  0  0  0  0  0  0  0
  1  2  1  0
  1 21  1  0
  1 22  1  0
  1 23  1  0
  2  3  1  0
  2  4  1  0
  2 24  1  1
  3 25  1  0
  4  5  1  0
  4 26  1  0
  4 27  1  0
  5  6  1  0
  5 28  1  0
  6  7  2  0
  6  8  1  0
  8  9  2  0
  8 10  1  0
 10 11  1  0
 10 29  1  0
 11 12  2  0
 11 20  1  0
 12 13  1  0
 12 30  1  0
 13 14  2  0
 13 31  1  0
 14 15  1  0
 14 19  1  0
 15 16  1  6
 15 17  2  0
 15 18  2  0
 16 32  1  0
 16 33  1  0
 19 20  2  0
 19 34  1  0
 20 35  1  0
M  END

