
     RDKit          3D

 45 46  0  0  0  0  0  0  0  0999 V2000
    0.9593    1.0435    0.9346 C   0  0  0  0  0  0  0  0  0  0  0  0
    2.4562    0.9303    1.2064 C   0  0  0  0  0  0  0  0  0  0  0  0
    2.9947   -0.4327    1.2495 N   0  0  0  0  0  0  0  0  0  0  0  0
    2.1172   -1.5423    1.6090 C   0  0  0  0  0  0  0  0  0  0  0  0
    1.9793   -1.7845    3.1164 C   0  0  0  0  0  0  0  0  0  0  0  0
    4.3696   -0.6005    1.2769 C   0  0  0  0  0  0  0  0  0  0  0  0
    5.2583    0.5086    1.1655 C   0  0  0  0  0  0  0  0  0  0  0  0
    6.6275    0.3104    1.1508 C   0  0  0  0  0  0  0  0  0  0  0  0
    7.2340   -0.9583    1.2869 C   0  0  0  0  0  0  0  0  0  0  0  0
    8.6990   -1.0293    1.1906 C   0  0  0  0  0  0  0  0  0  0  0  0
    9.5557   -1.8037    1.7613 N   0  0  0  0  0  0  0  0  0  0  0  0
    9.0795   -2.7196    2.6806 N   0  0  0  0  0  0  0  0  0  0  0  0
   10.0268   -3.5173    3.3498 C   0  0  0  0  0  0  0  0  0  0  0  0
    9.6559   -4.1821    4.5301 C   0  0  0  0  0  0  0  0  0  0  0  0
   10.5649   -5.0141    5.1734 C   0  0  0  0  0  0  0  0  0  0  0  0
   11.8503   -5.1945    4.6540 C   0  0  0  0  0  0  0  0  0  0  0  0
   12.8996   -6.2822    5.5761 Cl  0  0  0  0  0  0  0  0  0  0  0  0
   12.2524   -4.5394    3.4723 C   0  0  0  0  0  0  0  0  0  0  0  0
   13.5986   -4.6062    2.7574 C   0  0  0  0  0  0  0  0  0  0  0  0
   13.7864   -3.9903    1.7399 O   0  0  0  0  0  0  0  0  0  0  0  0
   14.5741   -5.3595    3.2776 O   0  0  0  0  0  0  0  0  0  0  0  0
   11.3150   -3.7053    2.8403 C   0  0  0  0  0  0  0  0  0  0  0  0
    6.3484   -2.0698    1.3825 C   0  0  0  0  0  0  0  0  0  0  0  0
    6.7609   -3.3551    1.4116 O   0  0  0  0  0  0  0  0  0  0  0  0
    4.9627   -1.8765    1.3985 C   0  0  0  0  0  0  0  0  0  0  0  0
    0.7017    2.1098    0.8405 H   0  0  0  0  0  0  0  0  0  0  0  0
    0.3399    0.6307    1.7452 H   0  0  0  0  0  0  0  0  0  0  0  0
    0.6752    0.5490   -0.0076 H   0  0  0  0  0  0  0  0  0  0  0  0
    2.6949    1.4723    2.1446 H   0  0  0  0  0  0  0  0  0  0  0  0
    2.9782    1.4735    0.4028 H   0  0  0  0  0  0  0  0  0  0  0  0
    2.4771   -2.4543    1.1108 H   0  0  0  0  0  0  0  0  0  0  0  0
    1.1272   -1.3564    1.1736 H   0  0  0  0  0  0  0  0  0  0  0  0
    2.9542   -2.0041    3.5780 H   0  0  0  0  0  0  0  0  0  0  0  0
    1.3106   -2.6391    3.3103 H   0  0  0  0  0  0  0  0  0  0  0  0
    1.5561   -0.9034    3.6254 H   0  0  0  0  0  0  0  0  0  0  0  0
    4.8829    1.5256    1.0836 H   0  0  0  0  0  0  0  0  0  0  0  0
    7.2792    1.1828    1.0452 H   0  0  0  0  0  0  0  0  0  0  0  0
    9.1667   -0.2771    0.5415 H   0  0  0  0  0  0  0  0  0  0  0  0
    8.3340   -2.3671    3.2888 H   0  0  0  0  0  0  0  0  0  0  0  0
    8.6532   -4.0531    4.9471 H   0  0  0  0  0  0  0  0  0  0  0  0
   10.2823   -5.5318    6.0912 H   0  0  0  0  0  0  0  0  0  0  0  0
   14.2937   -5.8042    4.0961 H   0  0  0  0  0  0  0  0  0  0  0  0
   11.6200   -3.1919    1.9303 H   0  0  0  0  0  0  0  0  0  0  0  0
    7.7059   -3.4132    1.6617 H   0  0  0  0  0  0  0  0  0  0  0  0
    4.3677   -2.7835    1.4776 H   0  0  0  0  0  0  0  0  0  0  0  0
  1  2  1  0
  1 26  1  0
  1 27  1  0
  1 28  1  0
  2  3  1  0
  2 29  1  0
  2 30  1  0
  3  4  1  0
  3  6  1  0
  4  5  1  0
  4 31  1  0
  4 32  1  0
  5 33  1  0
  5 34  1  0
  5 35  1  0
  6  7  2  0
  6 25  1  0
  7  8  1  0
  7 36  1  0
  8  9  2  0
  8 37  1  0
  9 10  1  0
  9 23  1  0
 10 11  2  0
 10 38  1  0
 11 12  1  0
 12 13  1  0
 12 39  1  0
 13 14  2  0
 13 22  1  0
 14 15  1  0
 14 40  1  0
 15 16  2  0
 15 41  1  0
 16 17  1  0
 16 18  1  0
 18 19  1  0
 18 22  2  0
 19 20  2  0
 19 21  1  0
 21 42  1  0
 22 43  1  0
 23 24  1  0
 23 25  2  0
 24 44  1  0
 25 45  1  0
M  END

