
     RDKit          3D

 36 37  0  0  0  0  0  0  0  0999 V2000
    1.4286   -0.3748    0.9414 C   0  0  0  0  0  0  0  0  0  0  0  0
    2.7271    0.0300    0.2472 C   0  0  1  0  0  0  0  0  0  0  0  0
    2.8719   -0.5551   -1.1816 C   0  0  0  0  0  0  0  0  0  0  0  0
    2.9750   -2.0596   -1.2274 C   0  0  0  0  0  0  0  0  0  0  0  0
    1.8844   -2.9477   -1.5157 C   0  0  0  0  0  0  0  0  0  0  0  0
    2.2354   -4.2728   -1.4680 C   0  0  0  0  0  0  0  0  0  0  0  0
    3.9059   -4.4694   -1.0686 S   0  0  0  0  0  0  0  0  0  0  0  0
    4.1333   -2.7586   -0.9660 C   0  0  0  0  0  0  0  0  0  0  0  0
    2.8369    1.4867    0.2286 N   0  0  0  0  0  0  0  0  0  0  0  0
    4.0507    2.1187    0.2190 C   0  0  0  0  0  0  0  0  0  0  0  0
    5.1193    1.5206    0.2786 O   0  0  0  0  0  0  0  0  0  0  0  0
    4.0006    3.5037    0.1604 N   0  0  0  0  0  0  0  0  0  0  0  0
    5.2442    4.2419    0.0391 C   0  0  0  0  0  0  0  0  0  0  0  0
    5.8121    4.2909   -1.3596 C   0  0  0  0  0  0  0  0  0  0  0  0
    5.7959    5.3511   -2.1182 N   0  0  0  0  0  0  0  0  0  0  0  0
    6.3607    5.1116   -3.3485 C   0  0  0  0  0  0  0  0  0  0  0  0
    6.4274    6.2223   -4.3484 C   0  0  0  0  0  0  0  0  0  0  0  0
    6.8911    6.1045   -5.4525 O   0  0  0  0  0  0  0  0  0  0  0  0
    5.9136    7.3750   -3.8894 O   0  0  0  0  0  0  0  0  0  0  0  0
    6.8226    3.8347   -3.5431 C   0  0  0  0  0  0  0  0  0  0  0  0
    6.5411    2.8892   -2.1315 S   0  0  0  0  0  0  0  0  0  0  0  0
    1.3405   -1.4694    0.9916 H   0  0  0  0  0  0  0  0  0  0  0  0
    0.5479    0.0041    0.3926 H   0  0  0  0  0  0  0  0  0  0  0  0
    1.3920    0.0215    1.9680 H   0  0  0  0  0  0  0  0  0  0  0  0
    3.5830   -0.3355    0.8353 H   0  0  0  0  0  0  0  0  0  0  0  0
    3.7789   -0.1118   -1.6199 H   0  0  0  0  0  0  0  0  0  0  0  0
    2.0177   -0.2178   -1.7940 H   0  0  0  0  0  0  0  0  0  0  0  0
    0.8768   -2.6044   -1.7595 H   0  0  0  0  0  0  0  0  0  0  0  0
    1.6075   -5.1435   -1.6519 H   0  0  0  0  0  0  0  0  0  0  0  0
    5.1141   -2.3493   -0.7242 H   0  0  0  0  0  0  0  0  0  0  0  0
    1.9839    2.0329    0.2125 H   0  0  0  0  0  0  0  0  0  0  0  0
    3.1629    3.9504   -0.1960 H   0  0  0  0  0  0  0  0  0  0  0  0
    5.9711    3.7789    0.7203 H   0  0  0  0  0  0  0  0  0  0  0  0
    5.0802    5.2820    0.3549 H   0  0  0  0  0  0  0  0  0  0  0  0
    5.6087    7.2123   -2.9755 H   0  0  0  0  0  0  0  0  0  0  0  0
    7.2984    3.4397   -4.4389 H   0  0  0  0  0  0  0  0  0  0  0  0
  1  2  1  0
  1 22  1  0
  1 23  1  0
  1 24  1  0
  2  3  1  0
  2  9  1  0
  2 25  1  1
  3  4  1  0
  3 26  1  0
  3 27  1  0
  4  5  1  0
  4  8  2  0
  5  6  2  0
  5 28  1  0
  6  7  1  0
  6 29  1  0
  7  8  1  0
  8 30  1  0
  9 10  1  0
  9 31  1  0
 10 11  2  0
 10 12  1  0
 12 13  1  0
 12 32  1  0
 13 14  1  0
 13 33  1  0
 13 34  1  0
 14 15  2  0
 14 21  1  0
 15 16  1  0
 16 17  1  0
 16 20  2  0
 17 18  2  0
 17 19  1  0
 19 35  1  0
 20 21  1  0
 20 36  1  0
M  END

