
     RDKit          3D

 54 57  0  0  0  0  0  0  0  0999 V2000
    0.6206    0.1907    0.1556 C   0  0  0  0  0  0  0  0  0  0  0  0
    2.1216    0.1243    0.1041 C   0  0  0  0  0  0  0  0  0  0  0  0
    2.7636    0.5882   -0.9712 N   0  0  0  0  0  0  0  0  0  0  0  0
    4.0958    0.5369   -1.0249 C   0  0  0  0  0  0  0  0  0  0  0  0
    4.9034    0.0065   -0.0056 C   0  0  0  0  0  0  0  0  0  0  0  0
    6.3920    0.0498   -0.0861 C   0  0  0  0  0  0  0  0  0  0  0  0
    6.9938    1.3049   -0.1013 C   0  0  0  0  0  0  0  0  0  0  0  0
    8.3879    1.4680   -0.0323 C   0  0  0  0  0  0  0  0  0  0  0  0
    8.9386    2.8591   -0.0322 C   0  0  0  0  0  0  0  0  0  0  0  0
    8.2203    3.8290    0.1537 O   0  0  0  0  0  0  0  0  0  0  0  0
   10.2968    2.9523   -0.2702 N   0  0  0  0  0  0  0  0  0  0  0  0
   11.1133    4.0953   -0.2907 C   0  0  0  0  0  0  0  0  0  0  0  0
   10.6374    5.3944   -0.0288 C   0  0  0  0  0  0  0  0  0  0  0  0
   11.5185    6.4761   -0.0633 C   0  0  0  0  0  0  0  0  0  0  0  0
   12.8655    6.2752   -0.3581 C   0  0  0  0  0  0  0  0  0  0  0  0
   13.7275    7.3792   -0.4559 O   0  0  0  0  0  0  0  0  0  0  0  0
   14.4006    7.7533    0.6557 C   0  0  1  0  0  0  0  0  0  0  0  0
   13.5677    8.0684    1.6637 F   0  0  0  0  0  0  0  0  0  0  0  0
   15.1946    6.7674    1.1153 F   0  0  0  0  0  0  0  0  0  0  0  0
   15.3991    9.1691    0.2540 Cl  0  0  0  0  0  0  0  0  0  0  0  0
   13.3535    4.9964   -0.6249 C   0  0  0  0  0  0  0  0  0  0  0  0
   12.4780    3.9142   -0.5889 C   0  0  0  0  0  0  0  0  0  0  0  0
    9.1292    0.2918    0.1292 C   0  0  0  0  0  0  0  0  0  0  0  0
    8.5993   -0.9219    0.1028 N   0  0  0  0  0  0  0  0  0  0  0  0
    7.2729   -1.0907   -0.0697 C   0  0  0  0  0  0  0  0  0  0  0  0
    6.8740   -2.3944   -0.2264 N   0  0  0  0  0  0  0  0  0  0  0  0
    7.8810   -3.4769   -0.2387 C   0  0  0  0  0  0  0  0  0  0  0  0
    7.1879   -4.6251   -0.9813 C   0  0  0  0  0  0  0  0  0  0  0  0
    5.6969   -4.3871   -0.7175 C   0  0  1  0  0  0  0  0  0  0  0  0
    5.0514   -4.8564   -1.4742 H   0  0  0  0  0  0  0  0  0  0  0  0
    5.2663   -4.9114    0.5243 O   0  0  0  0  0  0  0  0  0  0  0  0
    5.5893   -2.8568   -0.7701 C   0  0  0  0  0  0  0  0  0  0  0  0
    4.2422   -0.4772    1.1361 C   0  0  0  0  0  0  0  0  0  0  0  0
    2.8582   -0.4135    1.1733 C   0  0  0  0  0  0  0  0  0  0  0  0
    2.2018   -0.8647    2.2526 F   0  0  0  0  0  0  0  0  0  0  0  0
    0.2478    0.6217   -0.7822 H   0  0  0  0  0  0  0  0  0  0  0  0
    0.2781    0.8124    0.9994 H   0  0  0  0  0  0  0  0  0  0  0  0
    0.1796   -0.8096    0.2971 H   0  0  0  0  0  0  0  0  0  0  0  0
    4.5641    0.9329   -1.9333 H   0  0  0  0  0  0  0  0  0  0  0  0
    6.3752    2.2048   -0.1247 H   0  0  0  0  0  0  0  0  0  0  0  0
   10.7680    2.0905   -0.5149 H   0  0  0  0  0  0  0  0  0  0  0  0
    9.5830    5.5401    0.1917 H   0  0  0  0  0  0  0  0  0  0  0  0
   11.1578    7.4868    0.1344 H   0  0  0  0  0  0  0  0  0  0  0  0
   14.4094    4.8564   -0.8606 H   0  0  0  0  0  0  0  0  0  0  0  0
   12.8593    2.9100   -0.7966 H   0  0  0  0  0  0  0  0  0  0  0  0
   10.2111    0.3227    0.3170 H   0  0  0  0  0  0  0  0  0  0  0  0
    8.1637   -3.7479    0.7953 H   0  0  0  0  0  0  0  0  0  0  0  0
    8.8045   -3.1385   -0.7257 H   0  0  0  0  0  0  0  0  0  0  0  0
    7.5074   -5.6202   -0.6410 H   0  0  0  0  0  0  0  0  0  0  0  0
    7.3887   -4.5528   -2.0626 H   0  0  0  0  0  0  0  0  0  0  0  0
    5.7991   -4.5188    1.2296 H   0  0  0  0  0  0  0  0  0  0  0  0
    4.7305   -2.5328   -0.1722 H   0  0  0  0  0  0  0  0  0  0  0  0
    5.4388   -2.4944   -1.8045 H   0  0  0  0  0  0  0  0  0  0  0  0
    4.7875   -0.8887    1.9884 H   0  0  0  0  0  0  0  0  0  0  0  0
  1  2  1  0
  1 36  1  0
  1 37  1  0
  1 38  1  0
  2  3  2  0
  2 34  1  0
  3  4  1  0
  4  5  2  0
  4 39  1  0
  5  6  1  0
  5 33  1  0
  6  7  2  0
  6 25  1  0
  7  8  1  0
  7 40  1  0
  8  9  1  0
  8 23  2  0
  9 10  2  0
  9 11  1  0
 11 12  1  0
 11 41  1  0
 12 13  2  0
 12 22  1  0
 13 14  1  0
 13 42  1  0
 14 15  2  0
 14 43  1  0
 15 16  1  0
 15 21  1  0
 16 17  1  0
 17 18  1  1
 17 19  1  0
 17 20  1  0
 21 22  2  0
 21 44  1  0
 22 45  1  0
 23 24  1  0
 23 46  1  0
 24 25  2  0
 25 26  1  0
 26 27  1  0
 26 32  1  0
 27 28  1  0
 27 47  1  0
 27 48  1  0
 28 29  1  0
 28 49  1  0
 28 50  1  0
 29 30  1  6
 29 31  1  0
 29 32  1  0
 31 51  1  0
 32 52  1  0
 32 53  1  0
 33 34  2  0
 33 54  1  0
 34 35  1  0
M  END

