
     RDKit          3D

 50 52  0  0  0  0  0  0  0  0999 V2000
    4.2058   -2.4077    0.7685 C   0  0  0  0  0  0  0  0  0  0  0  0
    3.4532   -1.6106    1.8201 C   0  0  0  0  0  0  0  0  0  0  0  0
    4.2074   -0.4688    2.2801 O   0  0  0  0  0  0  0  0  0  0  0  0
    4.1403    0.6552    1.5512 C   0  0  0  0  0  0  0  0  0  0  0  0
    3.4868    0.7740    0.5437 O   0  0  0  0  0  0  0  0  0  0  0  0
    4.9230    1.7991    2.1864 C   0  0  0  0  0  0  0  0  0  0  0  0
    6.2937    1.4867    2.5441 N   0  0  0  0  0  0  0  0  0  0  0  0
    7.0919    0.7959    1.5384 C   0  0  0  0  0  0  0  0  0  0  0  0
    7.7121   -0.5320    1.9594 C   0  0  0  0  0  0  0  0  0  0  0  0
    7.2660   -1.2417    3.0816 C   0  0  0  0  0  0  0  0  0  0  0  0
    7.8398   -2.4724    3.4172 C   0  0  0  0  0  0  0  0  0  0  0  0
    8.8639   -3.0127    2.6341 C   0  0  0  0  0  0  0  0  0  0  0  0
    9.3161   -2.3099    1.5126 C   0  0  0  0  0  0  0  0  0  0  0  0
    8.7463   -1.0776    1.1828 C   0  0  0  0  0  0  0  0  0  0  0  0
    6.9475    2.3024    3.4831 C   0  0  0  0  0  0  0  0  0  0  0  0
    8.3272    2.1199    3.7565 C   0  0  0  0  0  0  0  0  0  0  0  0
    9.0001    2.9028    4.6985 C   0  0  0  0  0  0  0  0  0  0  0  0
    8.3176    3.8975    5.3998 C   0  0  0  0  0  0  0  0  0  0  0  0
    6.9607    4.0930    5.1244 C   0  0  0  0  0  0  0  0  0  0  0  0
    6.2724    3.3282    4.1868 C   0  0  0  0  0  0  0  0  0  0  0  0
    6.4084    5.2316    5.9619 C   0  0  1  0  0  0  0  0  0  0  0  0
    5.0759    5.0660    6.3992 O   0  0  0  0  0  0  0  0  0  0  0  0
    7.4673    5.3597    7.0818 C   0  0  0  0  0  0  0  0  0  0  0  0
    8.8015    4.8770    6.4586 C   0  0  1  0  0  0  0  0  0  0  0  0
    9.8092    4.3198    7.4653 C   0  0  0  0  0  0  0  0  0  0  0  0
    3.6277   -3.3079    0.5042 H   0  0  0  0  0  0  0  0  0  0  0  0
    5.1905   -2.7259    1.1427 H   0  0  0  0  0  0  0  0  0  0  0  0
    4.3455   -1.8142   -0.1470 H   0  0  0  0  0  0  0  0  0  0  0  0
    3.2825   -2.2077    2.7273 H   0  0  0  0  0  0  0  0  0  0  0  0
    2.4854   -1.2595    1.4324 H   0  0  0  0  0  0  0  0  0  0  0  0
    4.3630    2.0544    3.0986 H   0  0  0  0  0  0  0  0  0  0  0  0
    4.8359    2.6587    1.4945 H   0  0  0  0  0  0  0  0  0  0  0  0
    7.8947    1.4600    1.1652 H   0  0  0  0  0  0  0  0  0  0  0  0
    6.4451    0.6099    0.6650 H   0  0  0  0  0  0  0  0  0  0  0  0
    6.4617   -0.8196    3.6855 H   0  0  0  0  0  0  0  0  0  0  0  0
    7.4846   -3.0115    4.2997 H   0  0  0  0  0  0  0  0  0  0  0  0
    9.3120   -3.9740    2.8986 H   0  0  0  0  0  0  0  0  0  0  0  0
   10.1201   -2.7196    0.8954 H   0  0  0  0  0  0  0  0  0  0  0  0
    9.1125   -0.5300    0.3084 H   0  0  0  0  0  0  0  0  0  0  0  0
    8.8819    1.3310    3.2510 H   0  0  0  0  0  0  0  0  0  0  0  0
   10.0612    2.7108    4.8809 H   0  0  0  0  0  0  0  0  0  0  0  0
    5.2174    3.5465    4.0245 H   0  0  0  0  0  0  0  0  0  0  0  0
    6.3893    6.1569    5.3568 H   0  0  0  0  0  0  0  0  0  0  0  0
    5.0244    4.2175    6.8619 H   0  0  0  0  0  0  0  0  0  0  0  0
    7.1803    4.6690    7.8966 H   0  0  0  0  0  0  0  0  0  0  0  0
    7.5209    6.3718    7.5110 H   0  0  0  0  0  0  0  0  0  0  0  0
    9.2751    5.7384    5.9464 H   0  0  0  0  0  0  0  0  0  0  0  0
    9.3973    3.4435    7.9930 H   0  0  0  0  0  0  0  0  0  0  0  0
   10.0748    5.0778    8.2200 H   0  0  0  0  0  0  0  0  0  0  0  0
   10.7432    4.0060    6.9719 H   0  0  0  0  0  0  0  0  0  0  0  0
  1  2  1  0
  1 26  1  0
  1 27  1  0
  1 28  1  0
  2  3  1  0
  2 29  1  0
  2 30  1  0
  3  4  1  0
  4  5  2  0
  4  6  1  0
  6  7  1  0
  6 31  1  0
  6 32  1  0
  7  8  1  0
  7 15  1  0
  8  9  1  0
  8 33  1  0
  8 34  1  0
  9 10  2  0
  9 14  1  0
 10 11  1  0
 10 35  1  0
 11 12  2  0
 11 36  1  0
 12 13  1  0
 12 37  1  0
 13 14  2  0
 13 38  1  0
 14 39  1  0
 15 16  2  0
 15 20  1  0
 16 17  1  0
 16 40  1  0
 17 18  2  0
 17 41  1  0
 18 19  1  0
 18 24  1  0
 19 20  2  0
 19 21  1  0
 20 42  1  0
 21 22  1  0
 21 23  1  0
 21 43  1  6
 22 44  1  0
 23 24  1  0
 23 45  1  0
 23 46  1  0
 24 25  1  0
 24 47  1  6
 25 48  1  0
 25 49  1  0
 25 50  1  0
M  END

