
     RDKit          3D

 55 55  0  0  0  0  0  0  0  0999 V2000
    2.3087    2.8746   -1.9859 C   0  0  0  0  0  0  0  0  0  0  0  0
    1.8893    1.7697   -1.0096 C   0  0  1  0  0  0  0  0  0  0  0  0
    0.3885    1.4678   -1.1025 C   0  0  0  0  0  0  0  0  0  0  0  0
    2.6849    0.4639   -1.2228 C   0  0  0  0  0  0  0  0  0  0  0  0
    4.1392    0.6223   -1.1553 N   0  0  0  0  0  0  0  0  0  0  0  0
    4.7479    0.7481    0.1685 C   0  0  0  0  0  0  0  0  0  0  0  0
    4.8941   -0.5746    0.9504 C   0  0  1  0  0  0  0  0  0  0  0  0
    5.7842   -1.5855    0.2211 C   0  0  0  0  0  0  0  0  0  0  0  0
    5.4222   -0.2748    2.3588 C   0  0  0  0  0  0  0  0  0  0  0  0
    4.8250    0.6891   -2.3345 C   0  0  0  0  0  0  0  0  0  0  0  0
    4.3089    0.5294   -3.4341 O   0  0  0  0  0  0  0  0  0  0  0  0
    6.2983    1.1458   -2.2909 C   0  0  0  0  0  0  0  0  0  0  0  0
    6.5509    2.2441   -1.8048 O   0  0  0  0  0  0  0  0  0  0  0  0
    7.2301    0.3697   -2.9151 N   0  0  0  0  0  0  0  0  0  0  0  0
    6.9059   -0.9155   -3.5181 C   0  0  0  0  0  0  0  0  0  0  0  0
    8.5835    0.9729   -3.0286 C   0  0  1  0  0  0  0  0  0  0  0  0
    9.7358   -0.0475   -3.1265 C   0  0  0  0  0  0  0  0  0  0  0  0
   10.0169   -0.5630   -4.5563 C   0  0  0  0  0  0  0  0  0  0  0  0
   10.1273    0.4897   -5.5582 N   0  0  0  0  0  0  0  0  0  0  0  0
   11.4005    1.1829   -5.5892 C   0  0  0  0  0  0  0  0  0  0  0  0
    8.9510    1.3559   -5.5455 C   0  0  0  0  0  0  0  0  0  0  0  0
    8.6784    2.0036   -4.1786 C   0  0  0  0  0  0  0  0  0  0  0  0
    1.7280    3.7938   -1.8053 H   0  0  0  0  0  0  0  0  0  0  0  0
    2.1448    2.5640   -3.0303 H   0  0  0  0  0  0  0  0  0  0  0  0
    3.3750    3.1260   -1.8783 H   0  0  0  0  0  0  0  0  0  0  0  0
    2.0926    2.1295    0.0169 H   0  0  0  0  0  0  0  0  0  0  0  0
    0.1198    1.1121   -2.1119 H   0  0  0  0  0  0  0  0  0  0  0  0
   -0.2107    2.3690   -0.8974 H   0  0  0  0  0  0  0  0  0  0  0  0
    0.0817    0.6912   -0.3822 H   0  0  0  0  0  0  0  0  0  0  0  0
    2.4507    0.0507   -2.2140 H   0  0  0  0  0  0  0  0  0  0  0  0
    2.3763   -0.2790   -0.4688 H   0  0  0  0  0  0  0  0  0  0  0  0
    4.1327    1.4464    0.7605 H   0  0  0  0  0  0  0  0  0  0  0  0
    5.7273    1.2306    0.0619 H   0  0  0  0  0  0  0  0  0  0  0  0
    3.8892   -1.0233    1.0583 H   0  0  0  0  0  0  0  0  0  0  0  0
    6.8044   -1.1878    0.0825 H   0  0  0  0  0  0  0  0  0  0  0  0
    5.3827   -1.8366   -0.7727 H   0  0  0  0  0  0  0  0  0  0  0  0
    5.8661   -2.5244    0.7918 H   0  0  0  0  0  0  0  0  0  0  0  0
    6.4261    0.1815    2.3159 H   0  0  0  0  0  0  0  0  0  0  0  0
    5.5004   -1.1950    2.9591 H   0  0  0  0  0  0  0  0  0  0  0  0
    4.7631    0.4233    2.9002 H   0  0  0  0  0  0  0  0  0  0  0  0
    5.9334   -1.2672   -3.1605 H   0  0  0  0  0  0  0  0  0  0  0  0
    7.6572   -1.6697   -3.2451 H   0  0  0  0  0  0  0  0  0  0  0  0
    6.8451   -0.8550   -4.6167 H   0  0  0  0  0  0  0  0  0  0  0  0
    8.6996    1.5332   -2.0910 H   0  0  0  0  0  0  0  0  0  0  0  0
    9.5773   -0.8889   -2.4313 H   0  0  0  0  0  0  0  0  0  0  0  0
   10.6372    0.4721   -2.7607 H   0  0  0  0  0  0  0  0  0  0  0  0
    9.2168   -1.2516   -4.8764 H   0  0  0  0  0  0  0  0  0  0  0  0
   10.9474   -1.1542   -4.5566 H   0  0  0  0  0  0  0  0  0  0  0  0
   12.2161    0.4541   -5.7273 H   0  0  0  0  0  0  0  0  0  0  0  0
   11.6461    1.7828   -4.6840 H   0  0  0  0  0  0  0  0  0  0  0  0
   11.4252    1.8712   -6.4499 H   0  0  0  0  0  0  0  0  0  0  0  0
    8.0766    0.7544   -5.8540 H   0  0  0  0  0  0  0  0  0  0  0  0
    9.0747    2.1344   -6.3163 H   0  0  0  0  0  0  0  0  0  0  0  0
    7.7635    2.6144   -4.2007 H   0  0  0  0  0  0  0  0  0  0  0  0
    9.5015    2.6981   -3.9353 H   0  0  0  0  0  0  0  0  0  0  0  0
  1  2  1  0
  1 23  1  0
  1 24  1  0
  1 25  1  0
  2  3  1  0
  2  4  1  0
  2 26  1  1
  3 27  1  0
  3 28  1  0
  3 29  1  0
  4  5  1  0
  4 30  1  0
  4 31  1  0
  5  6  1  0
  5 10  1  0
  6  7  1  0
  6 32  1  0
  6 33  1  0
  7  8  1  0
  7  9  1  0
  7 34  1  1
  8 35  1  0
  8 36  1  0
  8 37  1  0
  9 38  1  0
  9 39  1  0
  9 40  1  0
 10 11  2  0
 10 12  1  0
 12 13  2  0
 12 14  1  0
 14 15  1  0
 14 16  1  0
 15 41  1  0
 15 42  1  0
 15 43  1  0
 16 17  1  0
 16 22  1  0
 16 44  1  1
 17 18  1  0
 17 45  1  0
 17 46  1  0
 18 19  1  0
 18 47  1  0
 18 48  1  0
 19 20  1  0
 19 21  1  0
 20 49  1  0
 20 50  1  0
 20 51  1  0
 21 22  1  0
 21 52  1  0
 21 53  1  0
 22 54  1  0
 22 55  1  0
M  END

