
     RDKit          3D

 41 43  0  0  0  0  0  0  0  0999 V2000
    1.4355   -0.5451    0.9483 C   0  0  0  0  0  0  0  0  0  0  0  0
    2.1039   -0.1651   -0.2271 O   0  0  0  0  0  0  0  0  0  0  0  0
    2.8533   -1.1900   -0.8442 C   0  0  2  0  0  0  0  0  0  0  0  0
    3.8709   -0.5870   -1.8336 C   0  0  0  0  0  0  0  0  0  0  0  0
    2.8928   -0.9200   -3.0064 C   0  0  1  0  0  0  0  0  0  0  0  0
    3.3811   -1.4610   -4.2397 N   0  0  0  0  0  0  0  0  0  0  0  0
    4.0376   -0.7137   -5.0549 C   0  0  0  0  0  0  0  0  0  0  0  0
    4.2114    0.6630   -4.9152 N   0  0  0  0  0  0  0  0  0  0  0  0
    4.6369   -1.2530   -6.1905 N   0  0  0  0  0  0  0  0  0  0  0  0
    4.5956   -2.6980   -6.3959 C   0  0  0  0  0  0  0  0  0  0  0  0
    3.5132   -3.0719   -7.4060 C   0  0  0  0  0  0  0  0  0  0  0  0
    3.6911   -2.3679   -8.6256 O   0  0  0  0  0  0  0  0  0  0  0  0
    3.6643   -0.9701   -8.4364 C   0  0  0  0  0  0  0  0  0  0  0  0
    4.7440   -0.5137   -7.4472 C   0  0  0  0  0  0  0  0  0  0  0  0
    2.1511   -1.8929   -2.0528 C   0  0  2  0  0  0  0  0  0  0  0  0
    0.6279   -2.1370   -2.0845 C   0  0  0  0  0  0  0  0  0  0  0  0
    0.8845   -3.6306   -1.7580 C   0  0  0  0  0  0  0  0  0  0  0  0
    2.3656   -3.4235   -2.1680 C   0  0  0  0  0  0  0  0  0  0  0  0
    0.9077    0.3406    1.3327 H   0  0  0  0  0  0  0  0  0  0  0  0
    2.1433   -0.8969    1.7264 H   0  0  0  0  0  0  0  0  0  0  0  0
    0.6909   -1.3471    0.7823 H   0  0  0  0  0  0  0  0  0  0  0  0
    3.2677   -1.8730   -0.0769 H   0  0  0  0  0  0  0  0  0  0  0  0
    4.7881   -1.1908   -1.9001 H   0  0  0  0  0  0  0  0  0  0  0  0
    4.1311    0.4657   -1.6414 H   0  0  0  0  0  0  0  0  0  0  0  0
    2.2229   -0.0493   -3.1702 H   0  0  0  0  0  0  0  0  0  0  0  0
    3.9163    1.0378   -4.0222 H   0  0  0  0  0  0  0  0  0  0  0  0
    5.1069    1.0342   -5.2154 H   0  0  0  0  0  0  0  0  0  0  0  0
    4.4108   -3.1815   -5.4294 H   0  0  0  0  0  0  0  0  0  0  0  0
    5.5784   -3.0215   -6.7860 H   0  0  0  0  0  0  0  0  0  0  0  0
    2.5168   -2.8497   -6.9739 H   0  0  0  0  0  0  0  0  0  0  0  0
    3.5563   -4.1448   -7.6502 H   0  0  0  0  0  0  0  0  0  0  0  0
    2.6696   -0.6484   -8.0613 H   0  0  0  0  0  0  0  0  0  0  0  0
    3.8257   -0.5070   -9.4231 H   0  0  0  0  0  0  0  0  0  0  0  0
    4.6441    0.5646   -7.2691 H   0  0  0  0  0  0  0  0  0  0  0  0
    5.7394   -0.6999   -7.8913 H   0  0  0  0  0  0  0  0  0  0  0  0
    0.2385   -2.0017   -3.1068 H   0  0  0  0  0  0  0  0  0  0  0  0
    0.0055   -1.5434   -1.3976 H   0  0  0  0  0  0  0  0  0  0  0  0
    0.3050   -4.3794   -2.3201 H   0  0  0  0  0  0  0  0  0  0  0  0
    0.7742   -3.8463   -0.6832 H   0  0  0  0  0  0  0  0  0  0  0  0
    2.5555   -3.7038   -3.2142 H   0  0  0  0  0  0  0  0  0  0  0  0
    3.1442   -3.8767   -1.5317 H   0  0  0  0  0  0  0  0  0  0  0  0
  1  2  1  0
  1 19  1  0
  1 20  1  0
  1 21  1  0
  2  3  1  0
  3  4  1  0
  3 15  1  0
  3 22  1  1
  4  5  1  0
  4 23  1  0
  4 24  1  0
  5  6  1  0
  5 15  1  0
  5 25  1  6
  6  7  2  0
  7  8  1  0
  7  9  1  0
  8 26  1  0
  8 27  1  0
  9 10  1  0
  9 14  1  0
 10 11  1  0
 10 28  1  0
 10 29  1  0
 11 12  1  0
 11 30  1  0
 11 31  1  0
 12 13  1  0
 13 14  1  0
 13 32  1  0
 13 33  1  0
 14 34  1  0
 14 35  1  0
 15 16  1  1
 15 18  1  0
 16 17  1  0
 16 36  1  0
 16 37  1  0
 17 18  1  0
 17 38  1  0
 17 39  1  0
 18 40  1  0
 18 41  1  0
M  END

