
     RDKit          3D

 62 65  0  0  0  0  0  0  0  0999 V2000
    2.8421    4.2889    2.6928 C   0  0  0  0  0  0  0  0  0  0  0  0
    3.8858    3.2330    2.4375 C   0  0  0  0  0  0  0  0  0  0  0  0
    4.6084    3.3569    1.3219 N   0  0  0  0  0  0  0  0  0  0  0  0
    5.5645    2.4535    1.0790 C   0  0  0  0  0  0  0  0  0  0  0  0
    6.3806    2.6601   -0.1932 C   0  0  1  0  0  0  0  0  0  0  0  0
    6.9107    3.6181   -0.0411 H   0  0  0  0  0  0  0  0  0  0  0  0
    7.4168    1.5606   -0.4740 C   0  0  0  0  0  0  0  0  0  0  0  0
    6.7593    0.2862   -1.0146 C   0  0  0  0  0  0  0  0  0  0  0  0
    5.8232    0.5928   -2.1835 C   0  0  0  0  0  0  0  0  0  0  0  0
    4.8374    1.6086   -1.8205 N   0  0  0  0  0  0  0  0  0  0  0  0
    3.8119    1.7858   -2.8335 C   0  0  0  0  0  0  0  0  0  0  0  0
    2.7443    0.7028   -2.8319 C   0  0  0  0  0  0  0  0  0  0  0  0
    2.5228   -0.0911   -1.6958 C   0  0  0  0  0  0  0  0  0  0  0  0
    1.5268   -1.0692   -1.6670 C   0  0  0  0  0  0  0  0  0  0  0  0
    0.7167   -1.2741   -2.7870 C   0  0  0  0  0  0  0  0  0  0  0  0
    0.9058   -0.4932   -3.9285 C   0  0  0  0  0  0  0  0  0  0  0  0
    1.9080    0.4814   -3.9399 C   0  0  0  0  0  0  0  0  0  0  0  0
    2.0873    1.4568   -5.3937 Cl  0  0  0  0  0  0  0  0  0  0  0  0
    5.4692    2.8599   -1.4172 C   0  0  0  0  0  0  0  0  0  0  0  0
    5.8699    1.4418    1.8905 N   0  0  0  0  0  0  0  0  0  0  0  0
    5.1602    1.2946    3.0181 C   0  0  0  0  0  0  0  0  0  0  0  0
    5.5613    0.1511    3.9174 C   0  0  0  0  0  0  0  0  0  0  0  0
    4.1109    2.1725    3.3409 C   0  0  0  0  0  0  0  0  0  0  0  0
    3.2903    2.0078    4.5951 C   0  0  0  0  0  0  0  0  0  0  0  0
    3.7865    2.8845    5.7606 C   0  0  0  0  0  0  0  0  0  0  0  0
    4.6510    3.7289    5.5885 O   0  0  0  0  0  0  0  0  0  0  0  0
    3.2014    2.6832    6.9884 N   0  0  0  0  0  0  0  0  0  0  0  0
    3.6692    3.4531    8.1407 C   0  0  0  0  0  0  0  0  0  0  0  0
    2.4806    4.0523    8.8868 C   0  0  0  0  0  0  0  0  0  0  0  0
    1.5380    3.0554    9.2382 O   0  0  0  0  0  0  0  0  0  0  0  0
    1.0439    2.3792    8.1052 C   0  0  0  0  0  0  0  0  0  0  0  0
    2.1705    1.7047    7.3153 C   0  0  0  0  0  0  0  0  0  0  0  0
    2.8444    5.0080    1.8643 H   0  0  0  0  0  0  0  0  0  0  0  0
    3.0590    4.8199    3.6330 H   0  0  0  0  0  0  0  0  0  0  0  0
    1.8320    3.8536    2.7785 H   0  0  0  0  0  0  0  0  0  0  0  0
    7.9924    1.3384    0.4360 H   0  0  0  0  0  0  0  0  0  0  0  0
    8.1270    1.9493   -1.2255 H   0  0  0  0  0  0  0  0  0  0  0  0
    6.1866   -0.1970   -0.2076 H   0  0  0  0  0  0  0  0  0  0  0  0
    7.5298   -0.4319   -1.3424 H   0  0  0  0  0  0  0  0  0  0  0  0
    5.2932   -0.3213   -2.4945 H   0  0  0  0  0  0  0  0  0  0  0  0
    6.4198    0.9287   -3.0661 H   0  0  0  0  0  0  0  0  0  0  0  0
    4.2438    1.8641   -3.8539 H   0  0  0  0  0  0  0  0  0  0  0  0
    3.3119    2.7540   -2.6545 H   0  0  0  0  0  0  0  0  0  0  0  0
    3.1636    0.0859   -0.8297 H   0  0  0  0  0  0  0  0  0  0  0  0
    1.3830   -1.6725   -0.7670 H   0  0  0  0  0  0  0  0  0  0  0  0
   -0.0645   -2.0384   -2.7773 H   0  0  0  0  0  0  0  0  0  0  0  0
    0.2832   -0.6294   -4.8145 H   0  0  0  0  0  0  0  0  0  0  0  0
    4.6875    3.5890   -1.1617 H   0  0  0  0  0  0  0  0  0  0  0  0
    6.0779    3.2945   -2.2451 H   0  0  0  0  0  0  0  0  0  0  0  0
    6.4397   -0.3494    3.4912 H   0  0  0  0  0  0  0  0  0  0  0  0
    4.7525   -0.5924    4.0186 H   0  0  0  0  0  0  0  0  0  0  0  0
    5.8115    0.5058    4.9304 H   0  0  0  0  0  0  0  0  0  0  0  0
    3.2827    0.9539    4.9088 H   0  0  0  0  0  0  0  0  0  0  0  0
    2.2373    2.2695    4.3970 H   0  0  0  0  0  0  0  0  0  0  0  0
    4.3515    4.2306    7.7746 H   0  0  0  0  0  0  0  0  0  0  0  0
    4.2302    2.7871    8.8235 H   0  0  0  0  0  0  0  0  0  0  0  0
    1.9993    4.8290    8.2573 H   0  0  0  0  0  0  0  0  0  0  0  0
    2.8124    4.5243    9.8238 H   0  0  0  0  0  0  0  0  0  0  0  0
    0.5040    3.0835    7.4375 H   0  0  0  0  0  0  0  0  0  0  0  0
    0.3269    1.6246    8.4635 H   0  0  0  0  0  0  0  0  0  0  0  0
    1.7576    1.2509    6.4066 H   0  0  0  0  0  0  0  0  0  0  0  0
    2.6053    0.8939    7.9318 H   0  0  0  0  0  0  0  0  0  0  0  0
  1  2  1  0
  1 33  1  0
  1 34  1  0
  1 35  1  0
  2  3  2  0
  2 23  1  0
  3  4  1  0
  4  5  1  0
  4 20  2  0
  5  6  1  1
  5  7  1  0
  5 19  1  0
  7  8  1  0
  7 36  1  0
  7 37  1  0
  8  9  1  0
  8 38  1  0
  8 39  1  0
  9 10  1  0
  9 40  1  0
  9 41  1  0
 10 11  1  0
 10 19  1  0
 11 12  1  0
 11 42  1  0
 11 43  1  0
 12 13  2  0
 12 17  1  0
 13 14  1  0
 13 44  1  0
 14 15  2  0
 14 45  1  0
 15 16  1  0
 15 46  1  0
 16 17  2  0
 16 47  1  0
 17 18  1  0
 19 48  1  0
 19 49  1  0
 20 21  1  0
 21 22  1  0
 21 23  2  0
 22 50  1  0
 22 51  1  0
 22 52  1  0
 23 24  1  0
 24 25  1  0
 24 53  1  0
 24 54  1  0
 25 26  2  0
 25 27  1  0
 27 28  1  0
 27 32  1  0
 28 29  1  0
 28 55  1  0
 28 56  1  0
 29 30  1  0
 29 57  1  0
 29 58  1  0
 30 31  1  0
 31 32  1  0
 31 59  1  0
 31 60  1  0
 32 61  1  0
 32 62  1  0
M  END

