
     RDKit          3D

 48 49  0  0  0  0  0  0  0  0999 V2000
    1.7820    0.5037    1.9555 C   0  0  0  0  0  0  0  0  0  0  0  0
    1.8294   -0.7871    1.6036 C   0  0  0  0  0  0  0  0  0  0  0  0
    0.6083   -1.6702    1.5725 C   0  0  0  0  0  0  0  0  0  0  0  0
    3.1166   -1.4986    1.2124 C   0  0  0  0  0  0  0  0  0  0  0  0
    4.3414   -0.7230    1.1563 N   0  0  0  0  0  0  0  0  0  0  0  0
    4.8611   -0.4184   -0.1691 C   0  0  0  0  0  0  0  0  0  0  0  0
    4.3612    0.9137   -0.7702 C   0  0  1  0  0  0  0  0  0  0  0  0
    4.8838    2.1542   -0.0250 C   0  0  0  0  0  0  0  0  0  0  0  0
    4.7101    0.9684   -2.2601 C   0  0  0  0  0  0  0  0  0  0  0  0
    5.3182    0.1141   -2.8466 O   0  0  0  0  0  0  0  0  0  0  0  0
    4.2807    2.0684   -2.9224 O   0  0  0  0  0  0  0  0  0  0  0  0
    5.1140   -0.5606    2.3158 C   0  0  0  0  0  0  0  0  0  0  0  0
    4.6243   -0.9091    3.5949 C   0  0  0  0  0  0  0  0  0  0  0  0
    5.4137   -0.7642    4.7294 C   0  0  0  0  0  0  0  0  0  0  0  0
    6.7184   -0.2352    4.6063 C   0  0  0  0  0  0  0  0  0  0  0  0
    7.5604   -0.0096    5.6978 N   0  0  0  0  0  0  0  0  0  0  0  0
    8.9972    0.1009    5.4604 C   0  0  0  0  0  0  0  0  0  0  0  0
    9.6629    0.8656    6.5963 C   0  0  0  0  0  0  0  0  0  0  0  0
    9.3709    0.2849    7.8536 O   0  0  0  0  0  0  0  0  0  0  0  0
    7.9825    0.2696    8.0918 C   0  0  0  0  0  0  0  0  0  0  0  0
    7.2198   -0.5093    7.0183 C   0  0  0  0  0  0  0  0  0  0  0  0
    7.1829    0.1014    3.3984 N   0  0  0  0  0  0  0  0  0  0  0  0
    6.4291   -0.0458    2.3124 C   0  0  0  0  0  0  0  0  0  0  0  0
    0.8386    0.9813    2.2347 H   0  0  0  0  0  0  0  0  0  0  0  0
    2.6858    1.1155    1.9881 H   0  0  0  0  0  0  0  0  0  0  0  0
   -0.2993   -1.1238    1.8658 H   0  0  0  0  0  0  0  0  0  0  0  0
    0.7239   -2.5325    2.2530 H   0  0  0  0  0  0  0  0  0  0  0  0
    0.4465   -2.0907    0.5639 H   0  0  0  0  0  0  0  0  0  0  0  0
    2.9572   -1.9524    0.2179 H   0  0  0  0  0  0  0  0  0  0  0  0
    3.2480   -2.3632    1.8938 H   0  0  0  0  0  0  0  0  0  0  0  0
    4.5729   -1.2264   -0.8579 H   0  0  0  0  0  0  0  0  0  0  0  0
    5.9597   -0.4256   -0.1684 H   0  0  0  0  0  0  0  0  0  0  0  0
    3.2566    0.9154   -0.7054 H   0  0  0  0  0  0  0  0  0  0  0  0
    5.9728    2.2649   -0.1486 H   0  0  0  0  0  0  0  0  0  0  0  0
    4.6730    2.0727    1.0507 H   0  0  0  0  0  0  0  0  0  0  0  0
    4.4117    3.0875   -0.3748 H   0  0  0  0  0  0  0  0  0  0  0  0
    3.8095    2.6639   -2.3227 H   0  0  0  0  0  0  0  0  0  0  0  0
    3.6093   -1.2865    3.7172 H   0  0  0  0  0  0  0  0  0  0  0  0
    5.0020   -1.0613    5.6931 H   0  0  0  0  0  0  0  0  0  0  0  0
    9.1535    0.6095    4.5014 H   0  0  0  0  0  0  0  0  0  0  0  0
    9.4572   -0.9077    5.3836 H   0  0  0  0  0  0  0  0  0  0  0  0
    9.3282    1.9237    6.5789 H   0  0  0  0  0  0  0  0  0  0  0  0
   10.7571    0.8461    6.4793 H   0  0  0  0  0  0  0  0  0  0  0  0
    7.5888    1.3072    8.1305 H   0  0  0  0  0  0  0  0  0  0  0  0
    7.8257   -0.1962    9.0770 H   0  0  0  0  0  0  0  0  0  0  0  0
    6.1448   -0.3787    7.2081 H   0  0  0  0  0  0  0  0  0  0  0  0
    7.4475   -1.5936    7.1145 H   0  0  0  0  0  0  0  0  0  0  0  0
    6.9025    0.2688    1.3787 H   0  0  0  0  0  0  0  0  0  0  0  0
  1  2  2  0
  1 24  1  0
  1 25  1  0
  2  3  1  0
  2  4  1  0
  3 26  1  0
  3 27  1  0
  3 28  1  0
  4  5  1  0
  4 29  1  0
  4 30  1  0
  5  6  1  0
  5 12  1  0
  6  7  1  0
  6 31  1  0
  6 32  1  0
  7  8  1  0
  7  9  1  0
  7 33  1  6
  8 34  1  0
  8 35  1  0
  8 36  1  0
  9 10  2  0
  9 11  1  0
 11 37  1  0
 12 13  2  0
 12 23  1  0
 13 14  1  0
 13 38  1  0
 14 15  2  0
 14 39  1  0
 15 16  1  0
 15 22  1  0
 16 17  1  0
 16 21  1  0
 17 18  1  0
 17 40  1  0
 17 41  1  0
 18 19  1  0
 18 42  1  0
 18 43  1  0
 19 20  1  0
 20 21  1  0
 20 44  1  0
 20 45  1  0
 21 46  1  0
 21 47  1  0
 22 23  2  0
 23 48  1  0
M  END

