
     RDKit          3D

 47 48  0  0  0  0  0  0  0  0999 V2000
    2.8671    0.4252   -1.1459 C   0  0  0  0  0  0  0  0  0  0  0  0
    2.2790    0.3549    0.1750 N   0  0  0  0  0  0  0  0  0  0  0  0
    0.8584    0.5751    0.3444 C   0  0  0  0  0  0  0  0  0  0  0  0
    3.0845    0.1541    1.2814 C   0  0  0  0  0  0  0  0  0  0  0  0
    4.4860   -0.0207    1.1583 C   0  0  0  0  0  0  0  0  0  0  0  0
    5.2856   -0.2259    2.2800 C   0  0  0  0  0  0  0  0  0  0  0  0
    4.7593   -0.2673    3.5815 C   0  0  0  0  0  0  0  0  0  0  0  0
    5.6679   -0.5291    4.7718 C   0  0  1  0  0  0  0  0  0  0  0  0
    5.2660    0.2551    6.0489 C   0  0  0  0  0  0  0  0  0  0  0  0
    6.3892    0.4166    7.0782 C   0  0  0  0  0  0  0  0  0  0  0  0
    5.9390    1.1636    8.3359 C   0  0  0  0  0  0  0  0  0  0  0  0
    7.0726    1.3266    9.3624 C   0  0  0  0  0  0  0  0  0  0  0  0
    6.6569    2.0972   10.5717 C   0  0  0  0  0  0  0  0  0  0  0  0
    6.6388    1.5832   11.7779 N   0  0  0  0  0  0  0  0  0  0  0  0
    6.1816    2.6232   12.5811 O   0  0  0  0  0  0  0  0  0  0  0  0
    5.9688    3.6541   11.7654 C   0  0  0  0  0  0  0  0  0  0  0  0
    5.5074    4.9556   12.3845 C   0  0  1  0  0  0  0  0  0  0  0  0
    4.5327    4.7340   13.2723 F   0  0  0  0  0  0  0  0  0  0  0  0
    6.5221    5.5519   13.0240 F   0  0  0  0  0  0  0  0  0  0  0  0
    5.0549    5.7817   11.4464 F   0  0  0  0  0  0  0  0  0  0  0  0
    6.2363    3.4144   10.5258 N   0  0  0  0  0  0  0  0  0  0  0  0
    5.8480   -2.0257    5.1208 C   0  0  0  0  0  0  0  0  0  0  0  0
    4.9086   -2.8790    4.6291 N   0  0  0  0  0  0  0  0  0  0  0  0
    6.7632   -2.4059    5.8338 O   0  0  0  0  0  0  0  0  0  0  0  0
    3.3713   -0.0871    3.7023 C   0  0  0  0  0  0  0  0  0  0  0  0
    2.5500    0.1166    2.5931 C   0  0  0  0  0  0  0  0  0  0  0  0
    2.0749    0.5746   -1.8907 H   0  0  0  0  0  0  0  0  0  0  0  0
    3.4038   -0.5041   -1.4123 H   0  0  0  0  0  0  0  0  0  0  0  0
    3.5852    1.2616   -1.2460 H   0  0  0  0  0  0  0  0  0  0  0  0
    0.3897    0.7086   -0.6391 H   0  0  0  0  0  0  0  0  0  0  0  0
    0.6389    1.4772    0.9471 H   0  0  0  0  0  0  0  0  0  0  0  0
    0.3602   -0.2802    0.8375 H   0  0  0  0  0  0  0  0  0  0  0  0
    4.9621    0.0083    0.1788 H   0  0  0  0  0  0  0  0  0  0  0  0
    6.3628   -0.3550    2.1359 H   0  0  0  0  0  0  0  0  0  0  0  0
    6.6843   -0.2031    4.4956 H   0  0  0  0  0  0  0  0  0  0  0  0
    4.4007   -0.2381    6.5272 H   0  0  0  0  0  0  0  0  0  0  0  0
    4.9141    1.2533    5.7366 H   0  0  0  0  0  0  0  0  0  0  0  0
    7.2286    0.9637    6.6101 H   0  0  0  0  0  0  0  0  0  0  0  0
    6.7871   -0.5749    7.3435 H   0  0  0  0  0  0  0  0  0  0  0  0
    5.1011    0.6228    8.8108 H   0  0  0  0  0  0  0  0  0  0  0  0
    5.5514    2.1625    8.0701 H   0  0  0  0  0  0  0  0  0  0  0  0
    7.9179    1.8592    8.8936 H   0  0  0  0  0  0  0  0  0  0  0  0
    7.4450    0.3446    9.6901 H   0  0  0  0  0  0  0  0  0  0  0  0
    4.2157   -2.5758    3.9570 H   0  0  0  0  0  0  0  0  0  0  0  0
    5.0145   -3.8663    4.8306 H   0  0  0  0  0  0  0  0  0  0  0  0
    2.9038   -0.1002    4.6902 H   0  0  0  0  0  0  0  0  0  0  0  0
    1.4820    0.2554    2.7576 H   0  0  0  0  0  0  0  0  0  0  0  0
  1  2  1  0
  1 27  1  0
  1 28  1  0
  1 29  1  0
  2  3  1  0
  2  4  1  0
  3 30  1  0
  3 31  1  0
  3 32  1  0
  4  5  2  0
  4 26  1  0
  5  6  1  0
  5 33  1  0
  6  7  2  0
  6 34  1  0
  7  8  1  0
  7 25  1  0
  8  9  1  0
  8 22  1  0
  8 35  1  6
  9 10  1  0
  9 36  1  0
  9 37  1  0
 10 11  1  0
 10 38  1  0
 10 39  1  0
 11 12  1  0
 11 40  1  0
 11 41  1  0
 12 13  1  0
 12 42  1  0
 12 43  1  0
 13 14  2  0
 13 21  1  0
 14 15  1  0
 15 16  1  0
 16 17  1  0
 16 21  2  0
 17 18  1  1
 17 19  1  0
 17 20  1  0
 22 23  1  0
 22 24  2  0
 23 44  1  0
 23 45  1  0
 25 26  2  0
 25 46  1  0
 26 47  1  0
M  END

