
     RDKit          3D

 42 43  0  0  0  0  0  0  0  0999 V2000
    6.4942   -0.3454   -2.9212 C   0  0  0  0  0  0  0  0  0  0  0  0
    5.4832   -1.0756   -2.0357 C   0  0  0  0  0  0  0  0  0  0  0  0
    5.4661   -0.6259   -0.5631 C   0  0  1  0  0  0  0  0  0  0  0  0
    5.0836    0.8559   -0.3510 C   0  0  0  0  0  0  0  0  0  0  0  0
    3.6912    1.2744   -0.8354 C   0  0  0  0  0  0  0  0  0  0  0  0
    4.5706   -1.5559    0.2821 C   0  0  0  0  0  0  0  0  0  0  0  0
    5.0548   -2.9355    0.3474 N   0  0  0  0  0  0  0  0  0  0  0  0
    6.1006   -3.0872    1.3503 C   0  0  0  0  0  0  0  0  0  0  0  0
    6.6470   -4.4913    1.4765 C   0  0  0  0  0  0  0  0  0  0  0  0
    7.8523   -4.7159    2.1592 C   0  0  0  0  0  0  0  0  0  0  0  0
    8.3509   -6.0072    2.3282 C   0  0  0  0  0  0  0  0  0  0  0  0
    7.6398   -7.0970    1.8130 C   0  0  0  0  0  0  0  0  0  0  0  0
    6.4407   -6.8803    1.1347 C   0  0  0  0  0  0  0  0  0  0  0  0
    5.9335   -5.5830    0.9585 C   0  0  0  0  0  0  0  0  0  0  0  0
    4.6552   -5.3466    0.1925 C   0  0  0  0  0  0  0  0  0  0  0  0
    4.0317   -3.9710    0.4834 C   0  0  2  0  0  0  0  0  0  0  0  0
    2.8985   -3.7584   -0.5205 C   0  0  0  0  0  0  0  0  0  0  0  0
    3.0196   -3.7724   -1.7190 O   0  0  0  0  0  0  0  0  0  0  0  0
    1.7081   -3.5861    0.0886 O   0  0  0  0  0  0  0  0  0  0  0  0
    6.5086   -0.7724   -3.9368 H   0  0  0  0  0  0  0  0  0  0  0  0
    7.5171   -0.4279   -2.5152 H   0  0  0  0  0  0  0  0  0  0  0  0
    6.2674    0.7285   -3.0233 H   0  0  0  0  0  0  0  0  0  0  0  0
    5.6936   -2.1562   -2.0461 H   0  0  0  0  0  0  0  0  0  0  0  0
    4.4699   -0.9753   -2.4637 H   0  0  0  0  0  0  0  0  0  0  0  0
    6.4990   -0.7278   -0.1806 H   0  0  0  0  0  0  0  0  0  0  0  0
    5.8383    1.4892   -0.8468 H   0  0  0  0  0  0  0  0  0  0  0  0
    5.1723    1.0854    0.7263 H   0  0  0  0  0  0  0  0  0  0  0  0
    3.5669    1.1179   -1.9188 H   0  0  0  0  0  0  0  0  0  0  0  0
    3.5170    2.3444   -0.6382 H   0  0  0  0  0  0  0  0  0  0  0  0
    2.8873    0.7175   -0.3268 H   0  0  0  0  0  0  0  0  0  0  0  0
    3.5610   -1.5523   -0.1539 H   0  0  0  0  0  0  0  0  0  0  0  0
    4.4589   -1.1307    1.3050 H   0  0  0  0  0  0  0  0  0  0  0  0
    5.7307   -2.7635    2.3552 H   0  0  0  0  0  0  0  0  0  0  0  0
    6.9266   -2.4016    1.1036 H   0  0  0  0  0  0  0  0  0  0  0  0
    8.4066   -3.8625    2.5623 H   0  0  0  0  0  0  0  0  0  0  0  0
    9.2929   -6.1651    2.8596 H   0  0  0  0  0  0  0  0  0  0  0  0
    8.0204   -8.1135    1.9411 H   0  0  0  0  0  0  0  0  0  0  0  0
    5.8828   -7.7303    0.7305 H   0  0  0  0  0  0  0  0  0  0  0  0
    3.9228   -6.1406    0.4151 H   0  0  0  0  0  0  0  0  0  0  0  0
    4.8576   -5.3897   -0.8911 H   0  0  0  0  0  0  0  0  0  0  0  0
    3.5792   -3.9722    1.4991 H   0  0  0  0  0  0  0  0  0  0  0  0
    1.0437   -3.4935   -0.6174 H   0  0  0  0  0  0  0  0  0  0  0  0
  1  2  1  0
  1 20  1  0
  1 21  1  0
  1 22  1  0
  2  3  1  0
  2 23  1  0
  2 24  1  0
  3  4  1  0
  3  6  1  0
  3 25  1  1
  4  5  1  0
  4 26  1  0
  4 27  1  0
  5 28  1  0
  5 29  1  0
  5 30  1  0
  6  7  1  0
  6 31  1  0
  6 32  1  0
  7  8  1  0
  7 16  1  0
  8  9  1  0
  8 33  1  0
  8 34  1  0
  9 10  1  0
  9 14  2  0
 10 11  2  0
 10 35  1  0
 11 12  1  0
 11 36  1  0
 12 13  2  0
 12 37  1  0
 13 14  1  0
 13 38  1  0
 14 15  1  0
 15 16  1  0
 15 39  1  0
 15 40  1  0
 16 17  1  0
 16 41  1  1
 17 18  2  0
 17 19  1  0
 19 42  1  0
M  END

