
     RDKit          3D

 56 60  0  0  0  0  0  0  0  0999 V2000
    0.3188   -0.0076   -0.5998 C   0  0  0  0  0  0  0  0  0  0  0  0
    1.8143   -0.1384   -0.2112 C   0  0  1  0  0  0  0  0  0  0  0  0
    1.9127   -0.0325    1.3219 C   0  0  0  0  0  0  0  0  0  0  0  0
    2.3799   -1.5044   -0.6539 C   0  0  0  0  0  0  0  0  0  0  0  0
    2.6728   -1.5867   -2.1599 C   0  0  2  0  0  0  0  0  0  0  0  0
    3.2992   -2.8596   -2.4587 N   0  0  0  0  0  0  0  0  0  0  0  0
    2.7311   -3.6562   -3.2760 C   0  0  0  0  0  0  0  0  0  0  0  0
    3.3016   -4.9698   -3.6334 C   0  0  0  0  0  0  0  0  0  0  0  0
    4.5183   -5.3530   -3.0374 C   0  0  0  0  0  0  0  0  0  0  0  0
    5.1158   -6.5705   -3.3211 C   0  0  0  0  0  0  0  0  0  0  0  0
    4.5203   -7.4738   -4.2235 C   0  0  0  0  0  0  0  0  0  0  0  0
    5.1191   -8.7422   -4.5340 C   0  0  0  0  0  0  0  0  0  0  0  0
    4.5332   -9.6092   -5.4097 C   0  0  0  0  0  0  0  0  0  0  0  0
    3.2913   -9.2849   -6.0565 C   0  0  0  0  0  0  0  0  0  0  0  0
    2.6685  -10.1630   -6.9634 C   0  0  0  0  0  0  0  0  0  0  0  0
    1.4627   -9.8220   -7.5770 C   0  0  0  0  0  0  0  0  0  0  0  0
    0.8510   -8.5983   -7.3004 C   0  0  0  0  0  0  0  0  0  0  0  0
    1.4367   -7.6891   -6.4008 C   0  0  0  0  0  0  0  0  0  0  0  0
    0.8391   -6.4210   -6.0899 C   0  0  0  0  0  0  0  0  0  0  0  0
    1.4205   -5.5506   -5.2146 C   0  0  0  0  0  0  0  0  0  0  0  0
    2.6653   -5.8520   -4.5522 C   0  0  0  0  0  0  0  0  0  0  0  0
    3.2840   -7.1149   -4.8468 C   0  0  0  0  0  0  0  0  0  0  0  0
    2.6720   -8.0268   -5.7655 C   0  0  0  0  0  0  0  0  0  0  0  0
    3.6259   -0.4466   -2.5485 C   0  0  0  0  0  0  0  0  0  0  0  0
    3.0993    0.9526   -2.1660 C   0  0  2  0  0  0  0  0  0  0  0  0
    1.9969    1.4169   -3.1528 C   0  0  0  0  0  0  0  0  0  0  0  0
    4.2600    1.9610   -2.2493 C   0  0  0  0  0  0  0  0  0  0  0  0
    2.6802    0.9164   -0.7574 N   0  0  0  0  0  0  0  0  0  0  0  0
   -0.2960   -0.7305   -0.0389 H   0  0  0  0  0  0  0  0  0  0  0  0
    0.1377   -0.1819   -1.6693 H   0  0  0  0  0  0  0  0  0  0  0  0
   -0.0516    1.0027   -0.3593 H   0  0  0  0  0  0  0  0  0  0  0  0
    1.3422   -0.8353    1.8156 H   0  0  0  0  0  0  0  0  0  0  0  0
    1.5048    0.9308    1.6734 H   0  0  0  0  0  0  0  0  0  0  0  0
    2.9635   -0.0930    1.6409 H   0  0  0  0  0  0  0  0  0  0  0  0
    1.6815   -2.3067   -0.3646 H   0  0  0  0  0  0  0  0  0  0  0  0
    3.3269   -1.6937   -0.1231 H   0  0  0  0  0  0  0  0  0  0  0  0
    1.7229   -1.4809   -2.7249 H   0  0  0  0  0  0  0  0  0  0  0  0
    1.7715   -3.3753   -3.7487 H   0  0  0  0  0  0  0  0  0  0  0  0
    4.9763   -4.6507   -2.3388 H   0  0  0  0  0  0  0  0  0  0  0  0
    6.0610   -6.8416   -2.8430 H   0  0  0  0  0  0  0  0  0  0  0  0
    6.0641   -9.0007   -4.0486 H   0  0  0  0  0  0  0  0  0  0  0  0
    5.0026  -10.5707   -5.6346 H   0  0  0  0  0  0  0  0  0  0  0  0
    3.1439  -11.1227   -7.1833 H   0  0  0  0  0  0  0  0  0  0  0  0
    0.9946  -10.5173   -8.2784 H   0  0  0  0  0  0  0  0  0  0  0  0
   -0.0937   -8.3345   -7.7832 H   0  0  0  0  0  0  0  0  0  0  0  0
   -0.1056   -6.1584   -6.5739 H   0  0  0  0  0  0  0  0  0  0  0  0
    0.9224   -4.6018   -5.0167 H   0  0  0  0  0  0  0  0  0  0  0  0
    3.8308   -0.4830   -3.6310 H   0  0  0  0  0  0  0  0  0  0  0  0
    4.5830   -0.6267   -2.0328 H   0  0  0  0  0  0  0  0  0  0  0  0
    2.4143    1.5704   -4.1615 H   0  0  0  0  0  0  0  0  0  0  0  0
    1.5658    2.3758   -2.8206 H   0  0  0  0  0  0  0  0  0  0  0  0
    1.1729    0.6961   -3.2443 H   0  0  0  0  0  0  0  0  0  0  0  0
    4.6823    2.0016   -3.2660 H   0  0  0  0  0  0  0  0  0  0  0  0
    5.0561    1.6842   -1.5427 H   0  0  0  0  0  0  0  0  0  0  0  0
    3.9137    2.9766   -1.9915 H   0  0  0  0  0  0  0  0  0  0  0  0
    2.3668    1.8357   -0.4504 H   0  0  0  0  0  0  0  0  0  0  0  0
  2  1  1  1
  1 29  1  0
  1 30  1  0
  1 31  1  0
  2  3  1  0
  2  4  1  0
  2 28  1  0
  3 32  1  0
  3 33  1  0
  3 34  1  0
  4  5  1  0
  4 35  1  0
  4 36  1  0
  5  6  1  0
  5 24  1  0
  5 37  1  6
  6  7  2  0
  7  8  1  0
  7 38  1  0
  8  9  2  0
  8 21  1  0
  9 10  1  0
  9 39  1  0
 10 11  2  0
 10 40  1  0
 11 12  1  0
 11 22  1  0
 12 13  2  0
 12 41  1  0
 13 14  1  0
 13 42  1  0
 14 15  2  0
 14 23  1  0
 15 16  1  0
 15 43  1  0
 16 17  2  0
 16 44  1  0
 17 18  1  0
 17 45  1  0
 18 19  2  0
 18 23  1  0
 19 20  1  0
 19 46  1  0
 20 21  2  0
 20 47  1  0
 21 22  1  0
 22 23  2  0
 24 25  1  0
 24 48  1  0
 24 49  1  0
 25 26  1  6
 25 27  1  0
 25 28  1  0
 26 50  1  0
 26 51  1  0
 26 52  1  0
 27 53  1  0
 27 54  1  0
 27 55  1  0
 28 56  1  0
M  END

