
     RDKit          3D

 41 43  0  0  0  0  0  0  0  0999 V2000
    4.2024   -0.9307    4.9149 C   0  0  0  0  0  0  0  0  0  0  0  0
    5.4990   -1.4021    4.3087 C   0  0  0  0  0  0  0  0  0  0  0  0
    6.5901   -0.9386    4.5190 O   0  0  0  0  0  0  0  0  0  0  0  0
    5.2865   -2.4372    3.4576 O   0  0  0  0  0  0  0  0  0  0  0  0
    6.4263   -2.9729    2.7878 C   0  0  1  0  0  0  0  0  0  0  0  0
    6.0166   -4.3005    2.1439 C   0  0  0  0  0  0  0  0  0  0  0  0
    6.8291   -4.4904    0.8652 C   0  0  0  0  0  0  0  0  0  0  0  0
    6.7856   -3.1549    0.1147 C   0  0  2  0  0  0  0  0  0  0  0  0
    5.7967   -3.0038   -0.3466 H   0  0  0  0  0  0  0  0  0  0  0  0
    7.8551   -2.9867   -0.9606 C   0  0  0  0  0  0  0  0  0  0  0  0
    7.7427   -4.0032   -1.9683 O   0  0  0  0  0  0  0  0  0  0  0  0
    6.9007   -3.7700   -3.0004 C   0  0  0  0  0  0  0  0  0  0  0  0
    6.2344   -2.7648   -3.0969 O   0  0  0  0  0  0  0  0  0  0  0  0
    6.8894   -4.8823   -3.9945 C   0  0  0  0  0  0  0  0  0  0  0  0
    6.0162   -4.7609   -5.1129 C   0  0  0  0  0  0  0  0  0  0  0  0
    5.9630   -5.7527   -6.0640 C   0  0  0  0  0  0  0  0  0  0  0  0
    6.7757   -6.9182   -5.9559 C   0  0  0  0  0  0  0  0  0  0  0  0
    6.7460   -7.9620   -6.9214 C   0  0  0  0  0  0  0  0  0  0  0  0
    7.5492   -9.0753   -6.7831 C   0  0  0  0  0  0  0  0  0  0  0  0
    8.4218   -9.1985   -5.6715 C   0  0  0  0  0  0  0  0  0  0  0  0
    8.4745   -8.2044   -4.7176 C   0  0  0  0  0  0  0  0  0  0  0  0
    7.6586   -7.0427   -4.8299 C   0  0  0  0  0  0  0  0  0  0  0  0
    7.6920   -6.0034   -3.8626 C   0  0  0  0  0  0  0  0  0  0  0  0
    7.0328   -1.8674    1.4256 S   0  0  0  0  0  0  0  0  0  0  0  0
    4.4076   -0.1713    5.6786 H   0  0  0  0  0  0  0  0  0  0  0  0
    3.6522   -1.7780    5.3507 H   0  0  0  0  0  0  0  0  0  0  0  0
    3.5667   -0.5010    4.1246 H   0  0  0  0  0  0  0  0  0  0  0  0
    7.2447   -3.0634    3.5147 H   0  0  0  0  0  0  0  0  0  0  0  0
    4.9440   -4.2268    1.9030 H   0  0  0  0  0  0  0  0  0  0  0  0
    6.1387   -5.1331    2.8546 H   0  0  0  0  0  0  0  0  0  0  0  0
    6.4314   -5.3091    0.2448 H   0  0  0  0  0  0  0  0  0  0  0  0
    7.8772   -4.7386    1.1074 H   0  0  0  0  0  0  0  0  0  0  0  0
    8.8574   -3.1092   -0.5260 H   0  0  0  0  0  0  0  0  0  0  0  0
    7.7763   -1.9973   -1.4336 H   0  0  0  0  0  0  0  0  0  0  0  0
    5.3984   -3.8646   -5.1897 H   0  0  0  0  0  0  0  0  0  0  0  0
    5.2913   -5.6572   -6.9214 H   0  0  0  0  0  0  0  0  0  0  0  0
    6.0741   -7.8678   -7.7788 H   0  0  0  0  0  0  0  0  0  0  0  0
    7.5161   -9.8695   -7.5333 H   0  0  0  0  0  0  0  0  0  0  0  0
    9.0527  -10.0856   -5.5751 H   0  0  0  0  0  0  0  0  0  0  0  0
    9.1458   -8.2947   -3.8592 H   0  0  0  0  0  0  0  0  0  0  0  0
    8.3615   -6.0914   -3.0055 H   0  0  0  0  0  0  0  0  0  0  0  0
  1  2  1  0
  1 25  1  0
  1 26  1  0
  1 27  1  0
  2  3  2  0
  2  4  1  0
  4  5  1  0
  5  6  1  0
  5 24  1  0
  5 28  1  1
  6  7  1  0
  6 29  1  0
  6 30  1  0
  7  8  1  0
  7 31  1  0
  7 32  1  0
  8  9  1  6
  8 10  1  0
  8 24  1  0
 10 11  1  0
 10 33  1  0
 10 34  1  0
 11 12  1  0
 12 13  2  0
 12 14  1  0
 14 15  2  0
 14 23  1  0
 15 16  1  0
 15 35  1  0
 16 17  2  0
 16 36  1  0
 17 18  1  0
 17 22  1  0
 18 19  2  0
 18 37  1  0
 19 20  1  0
 19 38  1  0
 20 21  2  0
 20 39  1  0
 21 22  1  0
 21 40  1  0
 22 23  2  0
 23 41  1  0
M  END

