
     RDKit          3D

 57 60  0  0  0  0  0  0  0  0999 V2000
   14.4425    9.0231    3.2004 C   0  0  0  0  0  0  0  0  0  0  0  0
   14.0752    8.0580    2.5700 C   0  0  0  0  0  0  0  0  0  0  0  0
   13.6694    6.8856    1.7980 C   0  0  0  0  0  0  0  0  0  0  0  0
   12.2561    6.7770    1.8054 O   0  0  0  0  0  0  0  0  0  0  0  0
   11.6746    5.7439    1.1359 C   0  0  0  0  0  0  0  0  0  0  0  0
   12.3740    4.7607    0.4233 C   0  0  0  0  0  0  0  0  0  0  0  0
   11.6910    3.7142   -0.2052 C   0  0  0  0  0  0  0  0  0  0  0  0
   10.2982    3.6220   -0.1333 C   0  0  0  0  0  0  0  0  0  0  0  0
    9.5320    2.5122   -0.8412 C   0  0  1  0  0  0  0  0  0  0  0  0
    8.5169    2.4858   -0.4092 H   0  0  0  0  0  0  0  0  0  0  0  0
    9.3335    3.0911   -2.5897 S   0  0  0  0  0  0  0  0  0  0  0  0
    8.5471    1.5964   -3.3492 C   0  0  1  0  0  0  0  0  0  0  0  0
    8.0500    1.0522   -2.5292 H   0  0  0  0  0  0  0  0  0  0  0  0
    7.5339    2.0035   -4.4130 C   0  0  0  0  0  0  0  0  0  0  0  0
    9.6530    0.7259   -3.9291 C   0  0  0  0  0  0  0  0  0  0  0  0
    9.7734    0.5123   -5.1193 O   0  0  0  0  0  0  0  0  0  0  0  0
   10.5642    0.1795   -3.0379 N   0  0  0  0  0  0  0  0  0  0  0  0
   10.5986    0.2197   -1.6463 C   0  0  0  0  0  0  0  0  0  0  0  0
   10.1508    1.1431   -0.7020 C   0  0  0  0  0  0  0  0  0  0  0  0
   10.3843    0.4929    0.5552 C   0  0  0  0  0  0  0  0  0  0  0  0
   10.0789    1.0078    1.9276 C   0  0  0  0  0  0  0  0  0  0  0  0
   10.9473   -0.6926    0.3953 N   0  0  0  0  0  0  0  0  0  0  0  0
   11.0851   -0.8623   -0.9421 N   0  0  0  0  0  0  0  0  0  0  0  0
   11.6543   -2.0669   -1.4405 C   0  0  0  0  0  0  0  0  0  0  0  0
   12.6877   -2.0357   -2.3883 C   0  0  0  0  0  0  0  0  0  0  0  0
   13.2135   -3.2386   -2.8637 C   0  0  0  0  0  0  0  0  0  0  0  0
   12.7384   -4.4593   -2.3785 C   0  0  0  0  0  0  0  0  0  0  0  0
   11.7278   -4.5018   -1.4047 C   0  0  0  0  0  0  0  0  0  0  0  0
   11.2237   -5.8127   -0.8517 C   0  0  0  0  0  0  0  0  0  0  0  0
   11.1880   -3.2908   -0.9486 C   0  0  0  0  0  0  0  0  0  0  0  0
    9.6014    4.6199    0.5654 C   0  0  0  0  0  0  0  0  0  0  0  0
   10.2601    5.6737    1.1991 C   0  0  0  0  0  0  0  0  0  0  0  0
    9.5216    6.5651    1.9188 O   0  0  0  0  0  0  0  0  0  0  0  0
    9.5293    7.9253    1.5050 C   0  0  0  0  0  0  0  0  0  0  0  0
   14.7629    9.8800    3.7631 H   0  0  0  0  0  0  0  0  0  0  0  0
   14.1286    5.9770    2.2334 H   0  0  0  0  0  0  0  0  0  0  0  0
   14.0473    6.9770    0.7610 H   0  0  0  0  0  0  0  0  0  0  0  0
   13.4617    4.7922    0.3582 H   0  0  0  0  0  0  0  0  0  0  0  0
   12.2573    2.9574   -0.7518 H   0  0  0  0  0  0  0  0  0  0  0  0
    6.7388    2.6172   -3.9667 H   0  0  0  0  0  0  0  0  0  0  0  0
    7.0863    1.1111   -4.8758 H   0  0  0  0  0  0  0  0  0  0  0  0
    8.0194    2.5764   -5.2163 H   0  0  0  0  0  0  0  0  0  0  0  0
   11.2303   -0.4310   -3.5019 H   0  0  0  0  0  0  0  0  0  0  0  0
    9.0205    1.3017    2.0235 H   0  0  0  0  0  0  0  0  0  0  0  0
   10.6819    1.8967    2.1717 H   0  0  0  0  0  0  0  0  0  0  0  0
   10.2928    0.2237    2.6669 H   0  0  0  0  0  0  0  0  0  0  0  0
   13.1039   -1.0823   -2.7226 H   0  0  0  0  0  0  0  0  0  0  0  0
   14.0155   -3.2213   -3.6058 H   0  0  0  0  0  0  0  0  0  0  0  0
   13.1639   -5.3936   -2.7542 H   0  0  0  0  0  0  0  0  0  0  0  0
   11.6609   -6.6710   -1.3821 H   0  0  0  0  0  0  0  0  0  0  0  0
   10.1269   -5.8861   -0.9314 H   0  0  0  0  0  0  0  0  0  0  0  0
   11.4756   -5.9136    0.2175 H   0  0  0  0  0  0  0  0  0  0  0  0
   10.4000   -3.2807   -0.1933 H   0  0  0  0  0  0  0  0  0  0  0  0
    8.5116    4.5953    0.6422 H   0  0  0  0  0  0  0  0  0  0  0  0
    8.8100    8.4503    2.1491 H   0  0  0  0  0  0  0  0  0  0  0  0
    9.2021    8.0214    0.4536 H   0  0  0  0  0  0  0  0  0  0  0  0
   10.5223    8.3856    1.6206 H   0  0  0  0  0  0  0  0  0  0  0  0
  1  2  3  0
  1 35  1  0
  2  3  1  0
  3  4  1  0
  3 36  1  0
  3 37  1  0
  4  5  1  0
  5  6  2  0
  5 32  1  0
  6  7  1  0
  6 38  1  0
  7  8  2  0
  7 39  1  0
  8  9  1  0
  8 31  1  0
  9 10  1  1
  9 11  1  0
  9 19  1  0
 11 12  1  0
 12 13  1  1
 12 14  1  0
 12 15  1  0
 14 40  1  0
 14 41  1  0
 14 42  1  0
 15 16  2  0
 15 17  1  0
 17 18  1  0
 17 43  1  0
 18 19  2  0
 18 23  1  0
 19 20  1  0
 20 21  1  0
 20 22  2  0
 21 44  1  0
 21 45  1  0
 21 46  1  0
 22 23  1  0
 23 24  1  0
 24 25  2  0
 24 30  1  0
 25 26  1  0
 25 47  1  0
 26 27  2  0
 26 48  1  0
 27 28  1  0
 27 49  1  0
 28 29  1  0
 28 30  2  0
 29 50  1  0
 29 51  1  0
 29 52  1  0
 30 53  1  0
 31 32  2  0
 31 54  1  0
 32 33  1  0
 33 34  1  0
 34 55  1  0
 34 56  1  0
 34 57  1  0
M  END

