
     RDKit          3D

 54 57  0  0  0  0  0  0  0  0999 V2000
    6.7644   -4.5718    4.5128 C   0  0  0  0  0  0  0  0  0  0  0  0
    6.7699   -3.1093    4.1144 C   0  0  0  0  0  0  0  0  0  0  0  0
    5.6772   -2.8707    3.2378 O   0  0  0  0  0  0  0  0  0  0  0  0
    5.4912   -1.6207    2.7183 C   0  0  0  0  0  0  0  0  0  0  0  0
    6.3173   -0.5252    2.9768 C   0  0  0  0  0  0  0  0  0  0  0  0
    6.0430    0.7152    2.3849 C   0  0  0  0  0  0  0  0  0  0  0  0
    4.9448    0.8543    1.5407 C   0  0  0  0  0  0  0  0  0  0  0  0
    4.1056   -0.2353    1.2785 C   0  0  0  0  0  0  0  0  0  0  0  0
    4.3640   -1.4832    1.8622 C   0  0  0  0  0  0  0  0  0  0  0  0
    3.5909   -2.6409    1.6691 N   0  0  0  0  0  0  0  0  0  0  0  0
    2.4788   -2.7977    0.8664 C   0  0  0  0  0  0  0  0  0  0  0  0
    2.0017   -1.8657    0.2249 O   0  0  0  0  0  0  0  0  0  0  0  0
    1.9095   -4.1754    0.8152 C   0  0  0  0  0  0  0  0  0  0  0  0
    0.7207   -4.3923    0.1583 C   0  0  0  0  0  0  0  0  0  0  0  0
   -0.1661   -3.3408   -0.4543 C   0  0  0  0  0  0  0  0  0  0  0  0
    0.2510   -5.6832   -0.0209 N   0  0  0  0  0  0  0  0  0  0  0  0
    1.0653   -6.7627    0.2085 C   0  0  0  0  0  0  0  0  0  0  0  0
    0.9088   -8.0223   -0.1510 N   0  0  0  0  0  0  0  0  0  0  0  0
    2.0642   -8.5839    0.3077 C   0  0  0  0  0  0  0  0  0  0  0  0
    2.8999   -7.7569    0.9147 N   0  0  0  0  0  0  0  0  0  0  0  0
    2.2403   -6.5723    0.8371 N   0  0  0  0  0  0  0  0  0  0  0  0
    2.6621   -5.3292    1.4814 C   0  0  2  0  0  0  0  0  0  0  0  0
    2.4965   -5.4233    3.0077 C   0  0  0  0  0  0  0  0  0  0  0  0
    1.5472   -4.6716    3.6958 C   0  0  0  0  0  0  0  0  0  0  0  0
    1.4367   -4.8153    5.0835 C   0  0  0  0  0  0  0  0  0  0  0  0
    0.1439   -3.7816    6.0505 Br  0  0  0  0  0  0  0  0  0  0  0  0
    2.2395   -5.6957    5.8157 C   0  0  0  0  0  0  0  0  0  0  0  0
    2.1666   -5.8615    7.1475 O   0  0  0  0  0  0  0  0  0  0  0  0
    3.1970   -6.4673    5.1001 C   0  0  0  0  0  0  0  0  0  0  0  0
    3.9410   -7.3048    5.8583 O   0  0  0  0  0  0  0  0  0  0  0  0
    4.8283   -8.1976    5.2190 C   0  0  0  0  0  0  0  0  0  0  0  0
    3.3188   -6.3186    3.7196 C   0  0  0  0  0  0  0  0  0  0  0  0
    7.6097   -4.7784    5.1875 H   0  0  0  0  0  0  0  0  0  0  0  0
    6.8643   -5.2165    3.6258 H   0  0  0  0  0  0  0  0  0  0  0  0
    5.8322   -4.8378    5.0328 H   0  0  0  0  0  0  0  0  0  0  0  0
    7.7168   -2.8477    3.6066 H   0  0  0  0  0  0  0  0  0  0  0  0
    6.6810   -2.4594    5.0048 H   0  0  0  0  0  0  0  0  0  0  0  0
    7.1786   -0.6280    3.6363 H   0  0  0  0  0  0  0  0  0  0  0  0
    6.6964    1.5658    2.5931 H   0  0  0  0  0  0  0  0  0  0  0  0
    4.7259    1.8185    1.0759 H   0  0  0  0  0  0  0  0  0  0  0  0
    3.2432   -0.1386    0.6249 H   0  0  0  0  0  0  0  0  0  0  0  0
    3.8907   -3.4152    2.2515 H   0  0  0  0  0  0  0  0  0  0  0  0
    0.2869   -2.9398   -1.3730 H   0  0  0  0  0  0  0  0  0  0  0  0
   -0.2959   -2.4810    0.2125 H   0  0  0  0  0  0  0  0  0  0  0  0
   -1.1501   -3.7720   -0.6978 H   0  0  0  0  0  0  0  0  0  0  0  0
   -0.6018   -5.8449   -0.5420 H   0  0  0  0  0  0  0  0  0  0  0  0
    2.2982   -9.6408    0.1820 H   0  0  0  0  0  0  0  0  0  0  0  0
    3.7397   -5.2378    1.2631 H   0  0  0  0  0  0  0  0  0  0  0  0
    0.8965   -3.9734    3.1696 H   0  0  0  0  0  0  0  0  0  0  0  0
    1.4711   -5.2768    7.4926 H   0  0  0  0  0  0  0  0  0  0  0  0
    5.2684   -8.8179    6.0111 H   0  0  0  0  0  0  0  0  0  0  0  0
    5.6387   -7.6645    4.6904 H   0  0  0  0  0  0  0  0  0  0  0  0
    4.3029   -8.8477    4.4973 H   0  0  0  0  0  0  0  0  0  0  0  0
    4.0364   -6.9226    3.1660 H   0  0  0  0  0  0  0  0  0  0  0  0
  1  2  1  0
  1 33  1  0
  1 34  1  0
  1 35  1  0
  2  3  1  0
  2 36  1  0
  2 37  1  0
  3  4  1  0
  4  5  2  0
  4  9  1  0
  5  6  1  0
  5 38  1  0
  6  7  2  0
  6 39  1  0
  7  8  1  0
  7 40  1  0
  8  9  2  0
  8 41  1  0
  9 10  1  0
 10 11  1  0
 10 42  1  0
 11 12  2  0
 11 13  1  0
 13 14  2  0
 13 22  1  0
 14 15  1  0
 14 16  1  0
 15 43  1  0
 15 44  1  0
 15 45  1  0
 16 17  1  0
 16 46  1  0
 17 18  2  0
 17 21  1  0
 18 19  1  0
 19 20  2  0
 19 47  1  0
 20 21  1  0
 21 22  1  0
 22 23  1  0
 22 48  1  1
 23 24  2  0
 23 32  1  0
 24 25  1  0
 24 49  1  0
 25 26  1  0
 25 27  2  0
 27 28  1  0
 27 29  1  0
 28 50  1  0
 29 30  1  0
 29 32  2  0
 30 31  1  0
 31 51  1  0
 31 52  1  0
 31 53  1  0
 32 54  1  0
M  END

