
     RDKit          3D

 35 36  0  0  0  0  0  0  0  0999 V2000
    1.0086    1.3429   -0.5482 C   0  0  0  0  0  0  0  0  0  0  0  0
    2.5265    1.4020   -0.7251 C   0  0  0  0  0  0  0  0  0  0  0  0
    3.0583    0.3940   -1.7491 C   0  0  0  0  0  0  0  0  0  0  0  0
    4.5772    0.4549   -1.9244 C   0  0  0  0  0  0  0  0  0  0  0  0
    5.1602   -0.5529   -2.9192 C   0  0  1  0  0  0  0  0  0  0  0  0
    4.4881   -0.2259   -4.6047 Cl  0  0  0  0  0  0  0  0  0  0  0  0
    6.6693   -0.5715   -2.9578 C   0  0  0  0  0  0  0  0  0  0  0  0
    7.3714   -1.6733   -2.4531 C   0  0  0  0  0  0  0  0  0  0  0  0
    8.7673   -1.6814   -2.4173 C   0  0  0  0  0  0  0  0  0  0  0  0
    9.4876   -0.5850   -2.9057 C   0  0  0  0  0  0  0  0  0  0  0  0
    8.8010    0.5270   -3.4424 C   0  0  0  0  0  0  0  0  0  0  0  0
    7.4075    0.5181   -3.4503 C   0  0  0  0  0  0  0  0  0  0  0  0
    9.6296    1.6444   -4.0323 C   0  0  0  0  0  0  0  0  0  0  0  0
   10.9324    1.8390   -3.2487 C   0  0  0  0  0  0  0  0  0  0  0  0
   11.6944    0.5381   -3.0431 C   0  0  0  0  0  0  0  0  0  0  0  0
   12.9043    0.4596   -2.9784 O   0  0  0  0  0  0  0  0  0  0  0  0
   10.8890   -0.5760   -2.8899 N   0  0  0  0  0  0  0  0  0  0  0  0
    0.6579    2.0830    0.1886 H   0  0  0  0  0  0  0  0  0  0  0  0
    0.6837    0.3478   -0.2007 H   0  0  0  0  0  0  0  0  0  0  0  0
    0.4873    1.5453   -1.4986 H   0  0  0  0  0  0  0  0  0  0  0  0
    3.0190    1.2300    0.2496 H   0  0  0  0  0  0  0  0  0  0  0  0
    2.8223    2.4212   -1.0339 H   0  0  0  0  0  0  0  0  0  0  0  0
    2.5756    0.5673   -2.7253 H   0  0  0  0  0  0  0  0  0  0  0  0
    2.7675   -0.6282   -1.4419 H   0  0  0  0  0  0  0  0  0  0  0  0
    5.0699    0.2580   -0.9546 H   0  0  0  0  0  0  0  0  0  0  0  0
    4.8857    1.4719   -2.2225 H   0  0  0  0  0  0  0  0  0  0  0  0
    4.7926   -1.5605   -2.6793 H   0  0  0  0  0  0  0  0  0  0  0  0
    6.8231   -2.5394   -2.0725 H   0  0  0  0  0  0  0  0  0  0  0  0
    9.3010   -2.5439   -2.0091 H   0  0  0  0  0  0  0  0  0  0  0  0
    6.8768    1.3697   -3.8843 H   0  0  0  0  0  0  0  0  0  0  0  0
    9.0518    2.5804   -4.0643 H   0  0  0  0  0  0  0  0  0  0  0  0
    9.8737    1.3940   -5.0824 H   0  0  0  0  0  0  0  0  0  0  0  0
   10.7128    2.2416   -2.2426 H   0  0  0  0  0  0  0  0  0  0  0  0
   11.6166    2.5461   -3.7369 H   0  0  0  0  0  0  0  0  0  0  0  0
   11.3844   -1.4327   -2.6604 H   0  0  0  0  0  0  0  0  0  0  0  0
  1  2  1  0
  1 18  1  0
  1 19  1  0
  1 20  1  0
  2  3  1  0
  2 21  1  0
  2 22  1  0
  3  4  1  0
  3 23  1  0
  3 24  1  0
  4  5  1  0
  4 25  1  0
  4 26  1  0
  5  6  1  0
  5  7  1  0
  5 27  1  1
  7  8  2  0
  7 12  1  0
  8  9  1  0
  8 28  1  0
  9 10  2  0
  9 29  1  0
 10 11  1  0
 10 17  1  0
 11 12  2  0
 11 13  1  0
 12 30  1  0
 13 14  1  0
 13 31  1  0
 13 32  1  0
 14 15  1  0
 14 33  1  0
 14 34  1  0
 15 16  2  0
 15 17  1  0
 17 35  1  0
M  END

