
     RDKit          3D

 62 65  0  0  0  0  0  0  0  0999 V2000
    0.0195   -3.8916   -4.3097 C   0  0  0  0  0  0  0  0  0  0  0  0
    1.3916   -4.1459   -4.5007 O   0  0  0  0  0  0  0  0  0  0  0  0
    2.1807   -4.3731   -3.4204 C   0  0  0  0  0  0  0  0  0  0  0  0
    3.5522   -4.6161   -3.7220 C   0  0  0  0  0  0  0  0  0  0  0  0
    4.4746   -4.8612   -2.7238 C   0  0  0  0  0  0  0  0  0  0  0  0
    4.0448   -4.8772   -1.3765 C   0  0  0  0  0  0  0  0  0  0  0  0
    4.7092   -5.1074   -0.1223 C   0  0  0  0  0  0  0  0  0  0  0  0
    6.1622   -5.4735    0.0030 C   0  0  0  0  0  0  0  0  0  0  0  0
    7.0357   -4.4862   -0.6033 N   0  0  0  0  0  0  0  0  0  0  0  0
    8.4561   -4.7513   -0.4460 C   0  0  0  0  0  0  0  0  0  0  0  0
    9.3018   -3.6705   -1.1201 C   0  0  0  0  0  0  0  0  0  0  0  0
   10.8254   -3.8601   -0.9723 C   0  0  1  0  0  0  0  0  0  0  0  0
   11.3783   -5.0871   -1.7351 C   0  0  0  0  0  0  0  0  0  0  0  0
   11.4473   -4.8515   -3.2554 C   0  0  0  0  0  0  0  0  0  0  0  0
   12.1931   -3.6494   -3.6300 N   0  0  0  0  0  0  0  0  0  0  0  0
   13.6420   -3.7929   -3.6139 C   0  0  0  0  0  0  0  0  0  0  0  0
   14.1730   -4.6745   -4.7334 C   0  0  0  0  0  0  0  0  0  0  0  0
   13.6272   -4.5980   -6.0246 C   0  0  0  0  0  0  0  0  0  0  0  0
   14.1487   -5.3691   -7.0656 C   0  0  0  0  0  0  0  0  0  0  0  0
   15.2265   -6.2312   -6.8336 C   0  0  0  0  0  0  0  0  0  0  0  0
   15.7745   -6.3185   -5.5513 C   0  0  0  0  0  0  0  0  0  0  0  0
   15.2471   -5.5474   -4.5101 C   0  0  0  0  0  0  0  0  0  0  0  0
   11.6681   -2.4686   -2.9504 C   0  0  0  0  0  0  0  0  0  0  0  0
   11.6110   -2.6059   -1.4179 C   0  0  0  0  0  0  0  0  0  0  0  0
    3.7325   -4.9707    0.8646 C   0  0  0  0  0  0  0  0  0  0  0  0
    3.6829   -5.0748    2.3409 C   0  0  0  0  0  0  0  0  0  0  0  0
    2.6330   -5.0236    2.9389 O   0  0  0  0  0  0  0  0  0  0  0  0
    4.8444   -5.2033    3.0120 O   0  0  0  0  0  0  0  0  0  0  0  0
    2.5184   -4.6926    0.2586 N   0  0  0  0  0  0  0  0  0  0  0  0
    1.6708   -4.5826    0.8034 H   0  0  0  0  0  0  0  0  0  0  0  0
    2.6723   -4.6274   -1.0955 C   0  0  0  0  0  0  0  0  0  0  0  0
    1.7226   -4.3718   -2.1033 C   0  0  0  0  0  0  0  0  0  0  0  0
   -0.4146   -3.7401   -5.3071 H   0  0  0  0  0  0  0  0  0  0  0  0
   -0.1495   -2.9826   -3.7040 H   0  0  0  0  0  0  0  0  0  0  0  0
   -0.4919   -4.7415   -3.8220 H   0  0  0  0  0  0  0  0  0  0  0  0
    3.8446   -4.5925   -4.7735 H   0  0  0  0  0  0  0  0  0  0  0  0
    5.5281   -5.0189   -2.9609 H   0  0  0  0  0  0  0  0  0  0  0  0
    6.3334   -6.4380   -0.5122 H   0  0  0  0  0  0  0  0  0  0  0  0
    6.4325   -5.6956    1.0650 H   0  0  0  0  0  0  0  0  0  0  0  0
    6.7998   -3.5523   -0.2688 H   0  0  0  0  0  0  0  0  0  0  0  0
    8.6646   -5.7373   -0.8970 H   0  0  0  0  0  0  0  0  0  0  0  0
    8.7579   -4.8415    0.6250 H   0  0  0  0  0  0  0  0  0  0  0  0
    9.0319   -2.6945   -0.6754 H   0  0  0  0  0  0  0  0  0  0  0  0
    9.0023   -3.6100   -2.1792 H   0  0  0  0  0  0  0  0  0  0  0  0
   11.0227   -4.0131    0.1046 H   0  0  0  0  0  0  0  0  0  0  0  0
   10.7784   -5.9890   -1.5280 H   0  0  0  0  0  0  0  0  0  0  0  0
   12.3910   -5.3088   -1.3559 H   0  0  0  0  0  0  0  0  0  0  0  0
   10.4247   -4.7591   -3.6639 H   0  0  0  0  0  0  0  0  0  0  0  0
   11.8999   -5.7211   -3.7565 H   0  0  0  0  0  0  0  0  0  0  0  0
   14.0500   -4.1689   -2.6498 H   0  0  0  0  0  0  0  0  0  0  0  0
   14.0681   -2.7812   -3.7389 H   0  0  0  0  0  0  0  0  0  0  0  0
   12.7786   -3.9313   -6.1945 H   0  0  0  0  0  0  0  0  0  0  0  0
   13.7120   -5.2980   -8.0656 H   0  0  0  0  0  0  0  0  0  0  0  0
   15.6336   -6.8355   -7.6485 H   0  0  0  0  0  0  0  0  0  0  0  0
   16.6119   -6.9941   -5.3574 H   0  0  0  0  0  0  0  0  0  0  0  0
   15.6769   -5.6256   -3.5066 H   0  0  0  0  0  0  0  0  0  0  0  0
   10.6521   -2.2752   -3.3405 H   0  0  0  0  0  0  0  0  0  0  0  0
   12.2780   -1.5949   -3.2327 H   0  0  0  0  0  0  0  0  0  0  0  0
   11.1663   -1.6969   -0.9766 H   0  0  0  0  0  0  0  0  0  0  0  0
   12.6403   -2.6700   -1.0234 H   0  0  0  0  0  0  0  0  0  0  0  0
    5.5964   -5.1655    2.4024 H   0  0  0  0  0  0  0  0  0  0  0  0
    0.6802   -4.1846   -1.8484 H   0  0  0  0  0  0  0  0  0  0  0  0
  1  2  1  0
  1 33  1  0
  1 34  1  0
  1 35  1  0
  2  3  1  0
  3  4  2  0
  3 32  1  0
  4  5  1  0
  4 36  1  0
  5  6  2  0
  5 37  1  0
  6  7  1  0
  6 31  1  0
  7  8  1  0
  7 25  2  0
  8  9  1  0
  8 38  1  0
  8 39  1  0
  9 10  1  0
  9 40  1  0
 10 11  1  0
 10 41  1  0
 10 42  1  0
 11 12  1  0
 11 43  1  0
 11 44  1  0
 12 13  1  0
 12 24  1  0
 12 45  1  1
 13 14  1  0
 13 46  1  0
 13 47  1  0
 14 15  1  0
 14 48  1  0
 14 49  1  0
 15 16  1  0
 15 23  1  0
 16 17  1  0
 16 50  1  0
 16 51  1  0
 17 18  2  0
 17 22  1  0
 18 19  1  0
 18 52  1  0
 19 20  2  0
 19 53  1  0
 20 21  1  0
 20 54  1  0
 21 22  2  0
 21 55  1  0
 22 56  1  0
 23 24  1  0
 23 57  1  0
 23 58  1  0
 24 59  1  0
 24 60  1  0
 25 26  1  0
 25 29  1  0
 26 27  2  0
 26 28  1  0
 28 61  1  0
 29 30  1  0
 29 31  1  0
 31 32  2  0
 32 62  1  0
M  END

