
     RDKit          3D

 19 19  0  0  0  0  0  0  0  0999 V2000
    1.5078    0.8543   -0.2117 C   0  0  0  0  0  0  0  0  0  0  0  0
    2.8604    0.1249   -0.0840 C   0  0  1  0  0  0  0  0  0  0  0  0
    3.9672    0.7445   -0.8083 N   0  0  0  0  0  0  0  0  0  0  0  0
    3.2540    0.0195    1.3749 C   0  0  0  0  0  0  0  0  0  0  0  0
    3.7481    1.1362    2.0008 N   0  0  0  0  0  0  0  0  0  0  0  0
    4.0172    0.9050    3.2511 C   0  0  0  0  0  0  0  0  0  0  0  0
    3.6809   -0.7061    3.7990 S   0  0  0  0  0  0  0  0  0  0  0  0
    3.1358   -1.0825    2.1932 C   0  0  0  0  0  0  0  0  0  0  0  0
    2.6327   -2.4482    1.8367 C   0  0  1  0  0  0  0  0  0  0  0  0
    1.3953   -2.3976    1.3042 F   0  0  0  0  0  0  0  0  0  0  0  0
    3.4159   -3.0581    0.9307 F   0  0  0  0  0  0  0  0  0  0  0  0
    2.5744   -3.2428    2.9187 F   0  0  0  0  0  0  0  0  0  0  0  0
    1.2268    0.9460   -1.2738 H   0  0  0  0  0  0  0  0  0  0  0  0
    1.5743    1.8664    0.2188 H   0  0  0  0  0  0  0  0  0  0  0  0
    0.7056    0.3058    0.3073 H   0  0  0  0  0  0  0  0  0  0  0  0
    2.7367   -0.8964   -0.4776 H   0  0  0  0  0  0  0  0  0  0  0  0
    4.1717    1.6551   -0.3933 H   0  0  0  0  0  0  0  0  0  0  0  0
    3.6990    0.9106   -1.7782 H   0  0  0  0  0  0  0  0  0  0  0  0
    4.4250    1.6488    3.9403 H   0  0  0  0  0  0  0  0  0  0  0  0
  1  2  1  0
  1 13  1  0
  1 14  1  0
  1 15  1  0
  2  3  1  0
  2  4  1  0
  2 16  1  6
  3 17  1  0
  3 18  1  0
  4  5  1  0
  4  8  2  0
  5  6  2  0
  6  7  1  0
  6 19  1  0
  7  8  1  0
  8  9  1  0
  9 10  1  6
  9 11  1  0
  9 12  1  0
M  END

