
     RDKit          3D

 45 47  0  0  0  0  0  0  0  0999 V2000
    2.4621    1.5802   -2.0020 C   0  0  0  0  0  0  0  0  0  0  0  0
    2.2188    0.6928   -0.7813 C   0  0  0  0  0  0  0  0  0  0  0  0
    2.4311    1.4016    0.4886 N   0  0  0  0  0  0  0  0  0  0  0  0
    1.2433    1.7724    1.2541 C   0  0  0  0  0  0  0  0  0  0  0  0
    0.5485    0.5973    1.9534 C   0  0  1  0  0  0  0  0  0  0  0  0
    1.3365   -0.0778    3.0867 C   0  0  0  0  0  0  0  0  0  0  0  0
    0.2181   -0.7675    3.8703 C   0  0  0  0  0  0  0  0  0  0  0  0
   -0.9287    0.0664    3.7346 O   0  0  0  0  0  0  0  0  0  0  0  0
   -0.7377    1.0084    2.6915 C   0  0  0  0  0  0  0  0  0  0  0  0
    3.7343    1.5106    0.9168 C   0  0  0  0  0  0  0  0  0  0  0  0
    4.6462    0.9381    0.3315 O   0  0  0  0  0  0  0  0  0  0  0  0
    4.0580    2.3663    2.1070 C   0  0  0  0  0  0  0  0  0  0  0  0
    3.5718    4.0371    2.2654 S   0  0  0  0  0  0  0  0  0  0  0  0
    4.5602    4.1677    3.7153 C   0  0  0  0  0  0  0  0  0  0  0  0
    4.6657    5.4148    4.4880 C   0  0  0  0  0  0  0  0  0  0  0  0
    3.9688    6.5824    4.1268 C   0  0  0  0  0  0  0  0  0  0  0  0
    4.0950    7.7470    4.8846 C   0  0  0  0  0  0  0  0  0  0  0  0
    4.9178    7.7642    6.0153 C   0  0  0  0  0  0  0  0  0  0  0  0
    5.6146    6.6073    6.3828 C   0  0  0  0  0  0  0  0  0  0  0  0
    5.4923    5.4417    5.6281 C   0  0  0  0  0  0  0  0  0  0  0  0
    5.1821    3.0604    4.0156 N   0  0  0  0  0  0  0  0  0  0  0  0
    4.9383    2.0478    3.1271 C   0  0  0  0  0  0  0  0  0  0  0  0
    5.6148    0.7263    3.3368 C   0  0  0  0  0  0  0  0  0  0  0  0
    2.2663    1.0179   -2.9292 H   0  0  0  0  0  0  0  0  0  0  0  0
    3.5076    1.9210   -2.0258 H   0  0  0  0  0  0  0  0  0  0  0  0
    1.8048    2.4649   -1.9951 H   0  0  0  0  0  0  0  0  0  0  0  0
    2.8938   -0.1745   -0.8131 H   0  0  0  0  0  0  0  0  0  0  0  0
    1.1866    0.3123   -0.7861 H   0  0  0  0  0  0  0  0  0  0  0  0
    0.5311    2.2648    0.5684 H   0  0  0  0  0  0  0  0  0  0  0  0
    1.5118    2.5219    2.0082 H   0  0  0  0  0  0  0  0  0  0  0  0
    0.2881   -0.1705    1.2035 H   0  0  0  0  0  0  0  0  0  0  0  0
    1.8328    0.6861    3.7091 H   0  0  0  0  0  0  0  0  0  0  0  0
    2.1078   -0.7772    2.7314 H   0  0  0  0  0  0  0  0  0  0  0  0
    0.4499   -0.8896    4.9414 H   0  0  0  0  0  0  0  0  0  0  0  0
    0.0054   -1.7734    3.4563 H   0  0  0  0  0  0  0  0  0  0  0  0
   -0.6348    2.0280    3.1176 H   0  0  0  0  0  0  0  0  0  0  0  0
   -1.6229    1.0143    2.0313 H   0  0  0  0  0  0  0  0  0  0  0  0
    3.3211    6.5839    3.2459 H   0  0  0  0  0  0  0  0  0  0  0  0
    3.5474    8.6458    4.5905 H   0  0  0  0  0  0  0  0  0  0  0  0
    5.0157    8.6768    6.6086 H   0  0  0  0  0  0  0  0  0  0  0  0
    6.2595    6.6145    7.2652 H   0  0  0  0  0  0  0  0  0  0  0  0
    6.0296    4.5323    5.9011 H   0  0  0  0  0  0  0  0  0  0  0  0
    5.3211    0.2976    4.3090 H   0  0  0  0  0  0  0  0  0  0  0  0
    6.7064    0.8716    3.3671 H   0  0  0  0  0  0  0  0  0  0  0  0
    5.3848    0.0194    2.5317 H   0  0  0  0  0  0  0  0  0  0  0  0
  1  2  1  0
  1 24  1  0
  1 25  1  0
  1 26  1  0
  2  3  1  0
  2 27  1  0
  2 28  1  0
  3  4  1  0
  3 10  1  0
  4  5  1  0
  4 29  1  0
  4 30  1  0
  5  6  1  0
  5  9  1  0
  5 31  1  6
  6  7  1  0
  6 32  1  0
  6 33  1  0
  7  8  1  0
  7 34  1  0
  7 35  1  0
  8  9  1  0
  9 36  1  0
  9 37  1  0
 10 11  2  0
 10 12  1  0
 12 13  1  0
 12 22  2  0
 13 14  1  0
 14 15  1  0
 14 21  2  0
 15 16  2  0
 15 20  1  0
 16 17  1  0
 16 38  1  0
 17 18  2  0
 17 39  1  0
 18 19  1  0
 18 40  1  0
 19 20  2  0
 19 41  1  0
 20 42  1  0
 21 22  1  0
 22 23  1  0
 23 43  1  0
 23 44  1  0
 23 45  1  0
M  END

