
     RDKit          3D

 59 62  0  0  0  0  0  0  0  0999 V2000
    1.2892   -0.6775    3.5245 C   0  0  0  0  0  0  0  0  0  0  0  0
    1.2067   -1.0064    2.1551 O   0  0  0  0  0  0  0  0  0  0  0  0
    1.7258   -2.1765    1.7169 C   0  0  0  0  0  0  0  0  0  0  0  0
    1.6013   -2.4334    0.3377 C   0  0  0  0  0  0  0  0  0  0  0  0
    2.1013   -3.6081   -0.2031 C   0  0  0  0  0  0  0  0  0  0  0  0
    2.7574   -4.5585    0.6031 C   0  0  0  0  0  0  0  0  0  0  0  0
    3.2541   -5.8083   -0.0704 C   0  0  0  0  0  0  0  0  0  0  0  0
    2.8140   -6.1622   -1.1532 O   0  0  0  0  0  0  0  0  0  0  0  0
    4.2355   -6.4922    0.6151 N   0  0  0  0  0  0  0  0  0  0  0  0
    4.8760   -7.7005    0.2806 C   0  0  0  0  0  0  0  0  0  0  0  0
    4.5908   -8.4433   -0.8804 C   0  0  0  0  0  0  0  0  0  0  0  0
    5.2609   -9.6381   -1.1329 C   0  0  0  0  0  0  0  0  0  0  0  0
    6.2411  -10.1295   -0.2538 C   0  0  0  0  0  0  0  0  0  0  0  0
    6.9025  -11.3722   -0.4815 N   0  0  0  0  0  0  0  0  0  0  0  0
    7.2377  -12.1914    0.6840 C   0  0  0  0  0  0  0  0  0  0  0  0
    7.3223  -13.6584    0.2956 C   0  0  0  0  0  0  0  0  0  0  0  0
    8.3269  -13.8192   -0.8323 C   0  0  0  0  0  0  0  0  0  0  0  0
    8.0246  -12.8976   -1.9166 N   0  0  0  0  0  0  0  0  0  0  0  0
    8.6322  -13.1795   -3.2183 C   0  0  0  0  0  0  0  0  0  0  0  0
   10.1171  -12.8677   -3.2897 C   0  0  0  0  0  0  0  0  0  0  0  0
   11.0768  -13.8847   -3.3450 C   0  0  0  0  0  0  0  0  0  0  0  0
   12.4432  -13.5852   -3.4000 C   0  0  0  0  0  0  0  0  0  0  0  0
   12.8923  -12.2585   -3.3996 C   0  0  0  0  0  0  0  0  0  0  0  0
   14.3627  -11.9214   -3.4602 C   0  0  0  0  0  0  0  0  0  0  0  0
   11.9241  -11.2390   -3.3454 C   0  0  0  0  0  0  0  0  0  0  0  0
   10.5629  -11.5333   -3.2930 C   0  0  0  0  0  0  0  0  0  0  0  0
    7.3908  -11.6748   -1.7582 C   0  0  0  0  0  0  0  0  0  0  0  0
    7.2521  -10.9051   -2.6998 O   0  0  0  0  0  0  0  0  0  0  0  0
    6.5271   -9.3807    0.8987 C   0  0  0  0  0  0  0  0  0  0  0  0
    5.8511   -8.1907    1.1640 C   0  0  0  0  0  0  0  0  0  0  0  0
    2.8620   -4.3003    1.9763 C   0  0  0  0  0  0  0  0  0  0  0  0
    2.3559   -3.1243    2.5390 C   0  0  0  0  0  0  0  0  0  0  0  0
    0.8137    0.3057    3.6388 H   0  0  0  0  0  0  0  0  0  0  0  0
    2.3371   -0.6103    3.8682 H   0  0  0  0  0  0  0  0  0  0  0  0
    0.7533   -1.4091    4.1556 H   0  0  0  0  0  0  0  0  0  0  0  0
    1.1005   -1.6881   -0.2835 H   0  0  0  0  0  0  0  0  0  0  0  0
    1.9957   -3.8228   -1.2681 H   0  0  0  0  0  0  0  0  0  0  0  0
    4.5976   -6.0378    1.4436 H   0  0  0  0  0  0  0  0  0  0  0  0
    3.8392   -8.0749   -1.5742 H   0  0  0  0  0  0  0  0  0  0  0  0
    5.0284  -10.1937   -2.0394 H   0  0  0  0  0  0  0  0  0  0  0  0
    6.4579  -12.0367    1.4440 H   0  0  0  0  0  0  0  0  0  0  0  0
    8.1976  -11.8723    1.1363 H   0  0  0  0  0  0  0  0  0  0  0  0
    6.3299  -14.0132   -0.0286 H   0  0  0  0  0  0  0  0  0  0  0  0
    7.6274  -14.2617    1.1650 H   0  0  0  0  0  0  0  0  0  0  0  0
    8.2961  -14.8471   -1.2326 H   0  0  0  0  0  0  0  0  0  0  0  0
    9.3566  -13.6618   -0.4538 H   0  0  0  0  0  0  0  0  0  0  0  0
    8.0866  -12.5806   -3.9581 H   0  0  0  0  0  0  0  0  0  0  0  0
    8.4671  -14.2460   -3.4456 H   0  0  0  0  0  0  0  0  0  0  0  0
   10.7560  -14.9313   -3.3523 H   0  0  0  0  0  0  0  0  0  0  0  0
   13.1715  -14.4004   -3.4453 H   0  0  0  0  0  0  0  0  0  0  0  0
   14.9851  -12.8275   -3.5056 H   0  0  0  0  0  0  0  0  0  0  0  0
   14.6782  -11.3405   -2.5771 H   0  0  0  0  0  0  0  0  0  0  0  0
   14.5971  -11.3077   -4.3463 H   0  0  0  0  0  0  0  0  0  0  0  0
   12.2460  -10.1929   -3.3521 H   0  0  0  0  0  0  0  0  0  0  0  0
    9.8248  -10.7276   -3.2610 H   0  0  0  0  0  0  0  0  0  0  0  0
    7.2931   -9.7148    1.6002 H   0  0  0  0  0  0  0  0  0  0  0  0
    6.0936   -7.6304    2.0724 H   0  0  0  0  0  0  0  0  0  0  0  0
    3.3143   -5.0336    2.6498 H   0  0  0  0  0  0  0  0  0  0  0  0
    2.4477   -2.9656    3.6133 H   0  0  0  0  0  0  0  0  0  0  0  0
  1  2  1  0
  1 33  1  0
  1 34  1  0
  1 35  1  0
  2  3  1  0
  3  4  2  0
  3 32  1  0
  4  5  1  0
  4 36  1  0
  5  6  2  0
  5 37  1  0
  6  7  1  0
  6 31  1  0
  7  8  2  0
  7  9  1  0
  9 10  1  0
  9 38  1  0
 10 11  2  0
 10 30  1  0
 11 12  1  0
 11 39  1  0
 12 13  2  0
 12 40  1  0
 13 14  1  0
 13 29  1  0
 14 15  1  0
 14 27  1  0
 15 16  1  0
 15 41  1  0
 15 42  1  0
 16 17  1  0
 16 43  1  0
 16 44  1  0
 17 18  1  0
 17 45  1  0
 17 46  1  0
 18 19  1  0
 18 27  1  0
 19 20  1  0
 19 47  1  0
 19 48  1  0
 20 21  2  0
 20 26  1  0
 21 22  1  0
 21 49  1  0
 22 23  2  0
 22 50  1  0
 23 24  1  0
 23 25  1  0
 24 51  1  0
 24 52  1  0
 24 53  1  0
 25 26  2  0
 25 54  1  0
 26 55  1  0
 27 28  2  0
 29 30  2  0
 29 56  1  0
 30 57  1  0
 31 32  2  0
 31 58  1  0
 32 59  1  0
M  END

