
     RDKit          3D

 36 36  0  0  0  0  0  0  0  0999 V2000
    2.0146   -1.0533   -0.0855 C   0  0  0  0  0  0  0  0  0  0  0  0
    2.4260    0.4179   -0.1763 C   0  0  0  0  0  0  0  0  0  0  0  0
    3.1750    0.9584    1.0526 C   0  0  1  0  0  0  0  0  0  0  0  0
    4.4867    0.2057    1.3785 C   0  0  0  0  0  0  0  0  0  0  0  0
    5.4925    0.1584    0.2260 C   0  0  0  0  0  0  0  0  0  0  0  0
    3.4117    2.4793    1.0134 C   0  0  0  0  0  0  0  0  0  0  0  0
    3.8326    3.2212    0.1667 O   0  0  0  0  0  0  0  0  0  0  0  0
    2.8119    2.6921    2.4035 C   0  0  0  0  0  0  0  0  0  0  0  0
    2.2975    1.2197    2.3352 C   0  0  2  0  0  0  0  0  0  0  0  0
    2.5906    0.3715    3.4089 O   0  0  0  0  0  0  0  0  0  0  0  0
    1.6468    0.2181    4.4883 C   0  0  1  0  0  0  0  0  0  0  0  0
    0.4036   -0.5450    4.0038 C   0  0  0  0  0  0  0  0  0  0  0  0
    2.4098   -0.6178    5.5198 C   0  0  0  0  0  0  0  0  0  0  0  0
    1.2540    1.5760    5.0897 C   0  0  0  0  0  0  0  0  0  0  0  0
    1.4202   -1.3472   -0.9654 H   0  0  0  0  0  0  0  0  0  0  0  0
    1.4021   -1.2487    0.8097 H   0  0  0  0  0  0  0  0  0  0  0  0
    2.8869   -1.7239   -0.0395 H   0  0  0  0  0  0  0  0  0  0  0  0
    1.5258    1.0386   -0.3331 H   0  0  0  0  0  0  0  0  0  0  0  0
    3.0508    0.5853   -1.0692 H   0  0  0  0  0  0  0  0  0  0  0  0
    4.2261   -0.8108    1.7141 H   0  0  0  0  0  0  0  0  0  0  0  0
    4.9563    0.6796    2.2559 H   0  0  0  0  0  0  0  0  0  0  0  0
    5.1258   -0.4417   -0.6216 H   0  0  0  0  0  0  0  0  0  0  0  0
    6.4393   -0.2947    0.5606 H   0  0  0  0  0  0  0  0  0  0  0  0
    5.7162    1.1672   -0.1554 H   0  0  0  0  0  0  0  0  0  0  0  0
    2.0863    3.5137    2.5075 H   0  0  0  0  0  0  0  0  0  0  0  0
    3.5993    2.8103    3.1659 H   0  0  0  0  0  0  0  0  0  0  0  0
    1.2257    1.1889    2.0721 H   0  0  0  0  0  0  0  0  0  0  0  0
    0.6965   -1.5098    3.5619 H   0  0  0  0  0  0  0  0  0  0  0  0
   -0.1616    0.0234    3.2489 H   0  0  0  0  0  0  0  0  0  0  0  0
   -0.2806   -0.7428    4.8437 H   0  0  0  0  0  0  0  0  0  0  0  0
    2.7256   -1.5734    5.0747 H   0  0  0  0  0  0  0  0  0  0  0  0
    1.7819   -0.8297    6.3987 H   0  0  0  0  0  0  0  0  0  0  0  0
    3.3120   -0.0820    5.8518 H   0  0  0  0  0  0  0  0  0  0  0  0
    0.6961    2.1966    4.3719 H   0  0  0  0  0  0  0  0  0  0  0  0
    2.1478    2.1342    5.4077 H   0  0  0  0  0  0  0  0  0  0  0  0
    0.6101    1.4305    5.9711 H   0  0  0  0  0  0  0  0  0  0  0  0
  1  2  1  0
  1 15  1  0
  1 16  1  0
  1 17  1  0
  3  2  1  6
  2 18  1  0
  2 19  1  0
  3  4  1  0
  3  6  1  0
  3  9  1  0
  4  5  1  0
  4 20  1  0
  4 21  1  0
  5 22  1  0
  5 23  1  0
  5 24  1  0
  6  7  2  0
  6  8  1  0
  8  9  1  0
  8 25  1  0
  8 26  1  0
  9 10  1  0
  9 27  1  6
 11 10  1  6
 11 12  1  0
 11 13  1  0
 11 14  1  0
 12 28  1  0
 12 29  1  0
 12 30  1  0
 13 31  1  0
 13 32  1  0
 13 33  1  0
 14 34  1  0
 14 35  1  0
 14 36  1  0
M  END

