
     RDKit          3D

 31 32  0  0  0  0  0  0  0  0999 V2000
    4.6545   -0.0775   -0.8878 N   0  0  0  0  0  0  0  0  0  0  0  0
    3.1786   -0.0046   -0.0559 S   0  0  1  0  0  0  0  0  0  0  0  0
    3.0551    1.3881    0.3821 O   0  0  0  0  0  0  0  0  0  0  0  0
    2.1499   -0.6608   -0.8691 O   0  0  0  0  0  0  0  0  0  0  0  0
    3.4597   -1.0247    1.3820 C   0  0  0  0  0  0  0  0  0  0  0  0
    4.1764   -0.5062    2.4700 C   0  0  0  0  0  0  0  0  0  0  0  0
    4.3869   -1.2997    3.5883 C   0  0  0  0  0  0  0  0  0  0  0  0
    3.8822   -2.6163    3.6389 C   0  0  0  0  0  0  0  0  0  0  0  0
    4.1377   -3.2952    4.7779 O   0  0  0  0  0  0  0  0  0  0  0  0
    3.6512   -4.6165    4.9899 C   0  0  1  0  0  0  0  0  0  0  0  0
    4.4989   -5.7251    4.3498 C   0  0  0  0  0  0  0  0  0  0  0  0
    4.0633   -6.9773    5.1252 C   0  0  0  0  0  0  0  0  0  0  0  0
    3.7859   -6.4835    6.5746 C   0  0  0  0  0  0  0  0  0  0  0  0
    3.7121   -4.9380    6.4893 C   0  0  0  0  0  0  0  0  0  0  0  0
    3.1582   -3.1219    2.5452 C   0  0  0  0  0  0  0  0  0  0  0  0
    2.9464   -2.3201    1.4204 C   0  0  0  0  0  0  0  0  0  0  0  0
    4.9044    0.8678   -1.1810 H   0  0  0  0  0  0  0  0  0  0  0  0
    4.5807   -0.7068   -1.6875 H   0  0  0  0  0  0  0  0  0  0  0  0
    4.5503    0.5188    2.4364 H   0  0  0  0  0  0  0  0  0  0  0  0
    4.9349   -0.9243    4.4545 H   0  0  0  0  0  0  0  0  0  0  0  0
    2.6070   -4.6827    4.6324 H   0  0  0  0  0  0  0  0  0  0  0  0
    5.5605   -5.4905    4.5396 H   0  0  0  0  0  0  0  0  0  0  0  0
    4.3693   -5.8151    3.2608 H   0  0  0  0  0  0  0  0  0  0  0  0
    4.8139   -7.7807    5.0826 H   0  0  0  0  0  0  0  0  0  0  0  0
    3.1402   -7.3858    4.6814 H   0  0  0  0  0  0  0  0  0  0  0  0
    4.5851   -6.7961    7.2637 H   0  0  0  0  0  0  0  0  0  0  0  0
    2.8528   -6.9160    6.9664 H   0  0  0  0  0  0  0  0  0  0  0  0
    4.6290   -4.4734    6.8854 H   0  0  0  0  0  0  0  0  0  0  0  0
    2.8651   -4.5056    7.0423 H   0  0  0  0  0  0  0  0  0  0  0  0
    2.7552   -4.1340    2.5574 H   0  0  0  0  0  0  0  0  0  0  0  0
    2.3732   -2.6958    0.5710 H   0  0  0  0  0  0  0  0  0  0  0  0
  2  1  1  6
  1 17  1  0
  1 18  1  0
  2  3  2  0
  2  4  2  0
  2  5  1  0
  5  6  2  0
  5 16  1  0
  6  7  1  0
  6 19  1  0
  7  8  2  0
  7 20  1  0
  8  9  1  0
  8 15  1  0
  9 10  1  0
 10 11  1  0
 10 14  1  0
 10 21  1  6
 11 12  1  0
 11 22  1  0
 11 23  1  0
 12 13  1  0
 12 24  1  0
 12 25  1  0
 13 14  1  0
 13 26  1  0
 13 27  1  0
 14 28  1  0
 14 29  1  0
 15 16  2  0
 15 30  1  0
 16 31  1  0
M  END

