
     RDKit          3D

 39 40  0  0  0  0  0  0  0  0999 V2000
    5.9114   -0.0697    1.6324 C   0  0  0  0  0  0  0  0  0  0  0  0
    5.0610    0.7462    0.6523 C   0  0  1  0  0  0  0  0  0  0  0  0
    5.2321    2.2563    0.8513 C   0  0  0  0  0  0  0  0  0  0  0  0
    5.3511    0.3678   -0.7278 N   0  0  0  0  0  0  0  0  0  0  0  0
    4.4327   -0.1917   -1.5679 C   0  0  0  0  0  0  0  0  0  0  0  0
    3.2743   -0.4202   -1.2441 O   0  0  0  0  0  0  0  0  0  0  0  0
    4.9530   -0.5144   -2.9415 C   0  0  1  0  0  0  0  0  0  0  0  0
    4.4157   -1.7355   -3.6279 C   0  0  0  0  0  0  0  0  0  0  0  0
    3.9609   -0.3725   -4.0883 C   0  0  2  0  0  0  0  0  0  0  0  0
    4.5259    0.1471   -5.3835 C   0  0  0  0  0  0  0  0  0  0  0  0
    5.7124   -0.0008   -5.6376 O   0  0  0  0  0  0  0  0  0  0  0  0
    3.6507    0.7897   -6.2467 N   0  0  0  0  0  0  0  0  0  0  0  0
    2.2218    0.9075   -5.9506 C   0  0  0  0  0  0  0  0  0  0  0  0
    4.1408    1.4442   -7.4211 C   0  0  0  0  0  0  0  0  0  0  0  0
    5.0804    0.8323   -8.2680 C   0  0  0  0  0  0  0  0  0  0  0  0
    5.5176    1.4915   -9.4183 C   0  0  0  0  0  0  0  0  0  0  0  0
    5.0281    2.7588   -9.7490 C   0  0  0  0  0  0  0  0  0  0  0  0
    4.0926    3.3687   -8.9104 C   0  0  0  0  0  0  0  0  0  0  0  0
    3.6551    2.7204   -7.7529 C   0  0  0  0  0  0  0  0  0  0  0  0
    5.6599    0.1847    2.6743 H   0  0  0  0  0  0  0  0  0  0  0  0
    6.9875    0.1329    1.4912 H   0  0  0  0  0  0  0  0  0  0  0  0
    5.7456   -1.1487    1.4924 H   0  0  0  0  0  0  0  0  0  0  0  0
    4.0018    0.4842    0.7940 H   0  0  0  0  0  0  0  0  0  0  0  0
    6.2768    2.5663    0.6741 H   0  0  0  0  0  0  0  0  0  0  0  0
    4.9697    2.5474    1.8808 H   0  0  0  0  0  0  0  0  0  0  0  0
    4.5870    2.8192    0.1597 H   0  0  0  0  0  0  0  0  0  0  0  0
    6.2903    0.5216   -1.0777 H   0  0  0  0  0  0  0  0  0  0  0  0
    5.9803   -0.2348   -3.1895 H   0  0  0  0  0  0  0  0  0  0  0  0
    3.6864   -2.3327   -3.0753 H   0  0  0  0  0  0  0  0  0  0  0  0
    5.1046   -2.2725   -4.2841 H   0  0  0  0  0  0  0  0  0  0  0  0
    2.9606   -0.0838   -3.7688 H   0  0  0  0  0  0  0  0  0  0  0  0
    1.8226   -0.0439   -5.5743 H   0  0  0  0  0  0  0  0  0  0  0  0
    1.6878    1.1420   -6.8798 H   0  0  0  0  0  0  0  0  0  0  0  0
    1.9955    1.6966   -5.2126 H   0  0  0  0  0  0  0  0  0  0  0  0
    5.4721   -0.1510   -8.0171 H   0  0  0  0  0  0  0  0  0  0  0  0
    6.2482    1.0014  -10.0672 H   0  0  0  0  0  0  0  0  0  0  0  0
    5.3738    3.2665  -10.6528 H   0  0  0  0  0  0  0  0  0  0  0  0
    3.7030    4.3616   -9.1498 H   0  0  0  0  0  0  0  0  0  0  0  0
    2.9389    3.2197   -7.0972 H   0  0  0  0  0  0  0  0  0  0  0  0
  1  2  1  0
  1 20  1  0
  1 21  1  0
  1 22  1  0
  2  3  1  0
  2  4  1  0
  2 23  1  1
  3 24  1  0
  3 25  1  0
  3 26  1  0
  4  5  1  0
  4 27  1  0
  5  6  2  0
  5  7  1  0
  7  8  1  0
  7  9  1  0
  7 28  1  6
  8  9  1  0
  8 29  1  0
  8 30  1  0
  9 10  1  0
  9 31  1  1
 10 11  2  0
 10 12  1  0
 12 13  1  0
 12 14  1  0
 13 32  1  0
 13 33  1  0
 13 34  1  0
 14 15  2  0
 14 19  1  0
 15 16  1  0
 15 35  1  0
 16 17  2  0
 16 36  1  0
 17 18  1  0
 17 37  1  0
 18 19  2  0
 18 38  1  0
 19 39  1  0
M  END

