
     RDKit          3D

 72 77  0  0  0  0  0  0  0  0999 V2000
   -0.9905   -2.6092   -0.0993 C   0  0  0  0  0  0  0  0  0  0  0  0
   -2.0605   -1.8667   -0.4654 C   0  0  0  0  0  0  0  0  0  0  0  0
   -2.1777   -0.4592   -0.1629 C   0  0  0  0  0  0  0  0  0  0  0  0
   -1.3498    0.3338    0.4688 N   0  0  0  0  0  0  0  0  0  0  0  0
   -1.9588    1.5608    0.4715 C   0  0  0  0  0  0  0  0  0  0  0  0
   -3.1722    1.4820   -0.1742 C   0  0  0  0  0  0  0  0  0  0  0  0
   -4.2377    2.4251   -0.4797 C   0  0  0  0  0  0  0  0  0  0  0  0
   -5.3831    2.0233   -1.1929 C   0  0  0  0  0  0  0  0  0  0  0  0
   -6.3884    2.9426   -1.4889 C   0  0  0  0  0  0  0  0  0  0  0  0
   -6.2883    4.2763   -1.0811 C   0  0  0  0  0  0  0  0  0  0  0  0
   -7.3058    5.1462   -1.3661 O   0  0  0  0  0  0  0  0  0  0  0  0
   -7.0120    6.1991   -2.2897 C   0  0  0  0  0  0  0  0  0  0  0  0
   -8.2517    7.0241   -2.5368 C   0  0  0  0  0  0  0  0  0  0  0  0
   -9.5327    6.4605   -2.4469 C   0  0  0  0  0  0  0  0  0  0  0  0
  -10.6655    7.2306   -2.7245 C   0  0  0  0  0  0  0  0  0  0  0  0
  -10.5334    8.5708   -3.1006 C   0  0  0  0  0  0  0  0  0  0  0  0
   -9.2595    9.1400   -3.1898 C   0  0  0  0  0  0  0  0  0  0  0  0
   -8.1275    8.3724   -2.9034 C   0  0  0  0  0  0  0  0  0  0  0  0
   -5.1547    4.6841   -0.3419 C   0  0  0  0  0  0  0  0  0  0  0  0
   -5.0065    5.9825    0.0702 O   0  0  0  0  0  0  0  0  0  0  0  0
   -5.9017    6.4328    1.0913 C   0  0  0  0  0  0  0  0  0  0  0  0
   -5.5759    7.8579    1.4676 C   0  0  0  0  0  0  0  0  0  0  0  0
   -6.5805    8.6841    1.9932 C   0  0  0  0  0  0  0  0  0  0  0  0
   -6.2899    9.9892    2.3988 C   0  0  0  0  0  0  0  0  0  0  0  0
   -4.9906   10.4898    2.2720 C   0  0  0  0  0  0  0  0  0  0  0  0
   -3.9867    9.6760    1.7383 C   0  0  0  0  0  0  0  0  0  0  0  0
   -4.2756    8.3674    1.3409 C   0  0  0  0  0  0  0  0  0  0  0  0
   -4.1461    3.7656   -0.0564 C   0  0  0  0  0  0  0  0  0  0  0  0
   -3.3066    0.1825   -0.5794 O   0  0  0  0  0  0  0  0  0  0  0  0
   -0.7717   -4.0341   -0.3545 C   0  0  0  0  0  0  0  0  0  0  0  0
   -1.6917   -4.8401   -1.0578 C   0  0  0  0  0  0  0  0  0  0  0  0
   -1.4075   -6.1891   -1.2531 C   0  0  0  0  0  0  0  0  0  0  0  0
   -0.2309   -6.7666   -0.7713 C   0  0  0  0  0  0  0  0  0  0  0  0
    0.7119   -5.9844   -0.0608 C   0  0  0  0  0  0  0  0  0  0  0  0
    1.8775   -6.5339    0.4242 N   0  0  0  0  0  0  0  0  0  0  0  0
    2.9350   -5.7584    1.0622 C   0  0  0  0  0  0  0  0  0  0  0  0
    4.1073   -6.7447    1.1490 C   0  0  0  0  0  0  0  0  0  0  0  0
    3.4101   -8.1058    1.2738 C   0  0  0  0  0  0  0  0  0  0  0  0
    2.1870   -7.9571    0.3592 C   0  0  0  0  0  0  0  0  0  0  0  0
    0.4121   -4.6155    0.1333 C   0  0  0  0  0  0  0  0  0  0  0  0
   -0.1973   -2.0908    0.4497 H   0  0  0  0  0  0  0  0  0  0  0  0
   -2.9018   -2.2965   -1.0139 H   0  0  0  0  0  0  0  0  0  0  0  0
   -1.4969    2.4320    0.9326 H   0  0  0  0  0  0  0  0  0  0  0  0
   -5.4757    0.9876   -1.5220 H   0  0  0  0  0  0  0  0  0  0  0  0
   -7.2758    2.6422   -2.0504 H   0  0  0  0  0  0  0  0  0  0  0  0
   -6.6591    5.7480   -3.2381 H   0  0  0  0  0  0  0  0  0  0  0  0
   -6.1975    6.8337   -1.9032 H   0  0  0  0  0  0  0  0  0  0  0  0
   -9.6344    5.4164   -2.1460 H   0  0  0  0  0  0  0  0  0  0  0  0
  -11.6586    6.7802   -2.6462 H   0  0  0  0  0  0  0  0  0  0  0  0
  -11.4203    9.1714   -3.3181 H   0  0  0  0  0  0  0  0  0  0  0  0
   -9.1460   10.1895   -3.4739 H   0  0  0  0  0  0  0  0  0  0  0  0
   -7.1346    8.8282   -2.9611 H   0  0  0  0  0  0  0  0  0  0  0  0
   -5.7925    5.7715    1.9735 H   0  0  0  0  0  0  0  0  0  0  0  0
   -6.9466    6.3547    0.7480 H   0  0  0  0  0  0  0  0  0  0  0  0
   -7.6025    8.3037    2.0820 H   0  0  0  0  0  0  0  0  0  0  0  0
   -7.0839   10.6204    2.8062 H   0  0  0  0  0  0  0  0  0  0  0  0
   -4.7627   11.5126    2.5830 H   0  0  0  0  0  0  0  0  0  0  0  0
   -2.9697   10.0624    1.6299 H   0  0  0  0  0  0  0  0  0  0  0  0
   -3.4949    7.7335    0.9173 H   0  0  0  0  0  0  0  0  0  0  0  0
   -3.2849    4.1226    0.5112 H   0  0  0  0  0  0  0  0  0  0  0  0
   -2.6181   -4.4169   -1.4491 H   0  0  0  0  0  0  0  0  0  0  0  0
   -2.1168   -6.8161   -1.8005 H   0  0  0  0  0  0  0  0  0  0  0  0
   -0.0413   -7.8240   -0.9564 H   0  0  0  0  0  0  0  0  0  0  0  0
    2.6292   -5.4034    2.0677 H   0  0  0  0  0  0  0  0  0  0  0  0
    3.1896   -4.8624    0.4699 H   0  0  0  0  0  0  0  0  0  0  0  0
    4.7866   -6.5217    1.9851 H   0  0  0  0  0  0  0  0  0  0  0  0
    4.6991   -6.7059    0.2192 H   0  0  0  0  0  0  0  0  0  0  0  0
    3.0824   -8.2696    2.3140 H   0  0  0  0  0  0  0  0  0  0  0  0
    4.0504   -8.9541    0.9895 H   0  0  0  0  0  0  0  0  0  0  0  0
    1.3351   -8.5695    0.7027 H   0  0  0  0  0  0  0  0  0  0  0  0
    2.4157   -8.2771   -0.6781 H   0  0  0  0  0  0  0  0  0  0  0  0
    1.1066   -3.9810    0.6848 H   0  0  0  0  0  0  0  0  0  0  0  0
  1  2  2  0
  1 30  1  0
  1 41  1  0
  2  3  1  0
  2 42  1  0
  3  4  2  0
  3 29  1  0
  4  5  1  0
  5  6  2  0
  5 43  1  0
  6  7  1  0
  6 29  1  0
  7  8  2  0
  7 28  1  0
  8  9  1  0
  8 44  1  0
  9 10  2  0
  9 45  1  0
 10 11  1  0
 10 19  1  0
 11 12  1  0
 12 13  1  0
 12 46  1  0
 12 47  1  0
 13 14  2  0
 13 18  1  0
 14 15  1  0
 14 48  1  0
 15 16  2  0
 15 49  1  0
 16 17  1  0
 16 50  1  0
 17 18  2  0
 17 51  1  0
 18 52  1  0
 19 20  1  0
 19 28  2  0
 20 21  1  0
 21 22  1  0
 21 53  1  0
 21 54  1  0
 22 23  2  0
 22 27  1  0
 23 24  1  0
 23 55  1  0
 24 25  2  0
 24 56  1  0
 25 26  1  0
 25 57  1  0
 26 27  2  0
 26 58  1  0
 27 59  1  0
 28 60  1  0
 30 31  2  0
 30 40  1  0
 31 32  1  0
 31 61  1  0
 32 33  2  0
 32 62  1  0
 33 34  1  0
 33 63  1  0
 34 35  1  0
 34 40  2  0
 35 36  1  0
 35 39  1  0
 36 37  1  0
 36 64  1  0
 36 65  1  0
 37 38  1  0
 37 66  1  0
 37 67  1  0
 38 39  1  0
 38 68  1  0
 38 69  1  0
 39 70  1  0
 39 71  1  0
 40 72  1  0
M  END

