
     RDKit          3D

 47 48  0  0  0  0  0  0  0  0999 V2000
    1.3533   -2.3116   -4.1564 N   0  0  0  0  0  0  0  0  0  0  0  0
    2.2045   -3.3637   -4.4355 C   0  0  0  0  0  0  0  0  0  0  0  0
    2.7221   -3.5802   -5.7282 C   0  0  0  0  0  0  0  0  0  0  0  0
    3.6330   -4.6071   -5.9805 C   0  0  0  0  0  0  0  0  0  0  0  0
    4.0589   -5.4514   -4.9509 C   0  0  0  0  0  0  0  0  0  0  0  0
    3.5491   -5.2568   -3.6627 C   0  0  0  0  0  0  0  0  0  0  0  0
    2.6361   -4.2362   -3.4045 C   0  0  0  0  0  0  0  0  0  0  0  0
    2.1643   -4.0352   -2.1219 O   0  0  0  0  0  0  0  0  0  0  0  0
    0.8819   -4.5962   -1.8203 C   0  0  0  0  0  0  0  0  0  0  0  0
    0.2803   -3.7231   -0.7205 C   0  0  1  0  0  0  0  0  0  0  0  0
    0.3692   -2.3540   -1.0952 O   0  0  0  0  0  0  0  0  0  0  0  0
   -1.2042   -4.0066   -0.4732 C   0  0  0  0  0  0  0  0  0  0  0  0
   -1.4909   -5.4067   -0.1634 N   0  0  0  0  0  0  0  0  0  0  0  0
   -1.1500   -5.7143    1.2321 C   0  0  0  0  0  0  0  0  0  0  0  0
   -0.7094   -7.1627    1.4883 C   0  0  0  0  0  0  0  0  0  0  0  0
   -1.8361   -8.1650    1.7915 C   0  0  0  0  0  0  0  0  0  0  0  0
   -3.1510   -7.8903    1.0481 C   0  0  0  0  0  0  0  0  0  0  0  0
   -3.0038   -7.4085   -0.4029 C   0  0  0  0  0  0  0  0  0  0  0  0
   -2.8025   -5.8882   -0.6148 C   0  0  2  0  0  0  0  0  0  0  0  0
   -3.0680   -5.5494   -2.1004 C   0  0  0  0  0  0  0  0  0  0  0  0
   -2.0065   -5.8575   -2.9750 O   0  0  0  0  0  0  0  0  0  0  0  0
    0.8720   -1.8903   -4.9405 H   0  0  0  0  0  0  0  0  0  0  0  0
    0.8182   -2.3355   -3.2940 H   0  0  0  0  0  0  0  0  0  0  0  0
    2.4055   -2.9186   -6.5401 H   0  0  0  0  0  0  0  0  0  0  0  0
    4.0162   -4.7431   -6.9953 H   0  0  0  0  0  0  0  0  0  0  0  0
    4.7767   -6.2514   -5.1452 H   0  0  0  0  0  0  0  0  0  0  0  0
    3.8566   -5.8917   -2.8280 H   0  0  0  0  0  0  0  0  0  0  0  0
    0.9854   -5.6414   -1.4834 H   0  0  0  0  0  0  0  0  0  0  0  0
    0.2283   -4.5931   -2.7085 H   0  0  0  0  0  0  0  0  0  0  0  0
    0.8664   -3.8842    0.2061 H   0  0  0  0  0  0  0  0  0  0  0  0
    1.3114   -2.1871   -1.2545 H   0  0  0  0  0  0  0  0  0  0  0  0
   -1.7209   -3.7067   -1.3911 H   0  0  0  0  0  0  0  0  0  0  0  0
   -1.5602   -3.3147    0.3200 H   0  0  0  0  0  0  0  0  0  0  0  0
   -1.9754   -5.4278    1.9232 H   0  0  0  0  0  0  0  0  0  0  0  0
   -0.3079   -5.0626    1.5013 H   0  0  0  0  0  0  0  0  0  0  0  0
    0.0036   -7.1698    2.3298 H   0  0  0  0  0  0  0  0  0  0  0  0
   -0.1354   -7.4849    0.6042 H   0  0  0  0  0  0  0  0  0  0  0  0
   -2.0442   -8.1760    2.8753 H   0  0  0  0  0  0  0  0  0  0  0  0
   -1.4781   -9.1806    1.5493 H   0  0  0  0  0  0  0  0  0  0  0  0
   -3.7460   -7.1413    1.5995 H   0  0  0  0  0  0  0  0  0  0  0  0
   -3.7595   -8.8099    1.0594 H   0  0  0  0  0  0  0  0  0  0  0  0
   -3.9330   -7.6665   -0.9359 H   0  0  0  0  0  0  0  0  0  0  0  0
   -2.1948   -7.9680   -0.9086 H   0  0  0  0  0  0  0  0  0  0  0  0
   -3.6262   -5.3884   -0.0467 H   0  0  0  0  0  0  0  0  0  0  0  0
   -3.2710   -4.4760   -2.2297 H   0  0  0  0  0  0  0  0  0  0  0  0
   -4.0015   -6.0701   -2.3938 H   0  0  0  0  0  0  0  0  0  0  0  0
   -1.6354   -6.7137   -2.7252 H   0  0  0  0  0  0  0  0  0  0  0  0
  1  2  1  0
  1 22  1  0
  1 23  1  0
  2  3  2  0
  2  7  1  0
  3  4  1  0
  3 24  1  0
  4  5  2  0
  4 25  1  0
  5  6  1  0
  5 26  1  0
  6  7  2  0
  6 27  1  0
  7  8  1  0
  8  9  1  0
  9 10  1  0
  9 28  1  0
  9 29  1  0
 10 11  1  0
 10 12  1  0
 10 30  1  1
 11 31  1  0
 12 13  1  0
 12 32  1  0
 12 33  1  0
 13 14  1  0
 13 19  1  0
 14 15  1  0
 14 34  1  0
 14 35  1  0
 15 16  1  0
 15 36  1  0
 15 37  1  0
 16 17  1  0
 16 38  1  0
 16 39  1  0
 17 18  1  0
 17 40  1  0
 17 41  1  0
 18 19  1  0
 18 42  1  0
 18 43  1  0
 19 20  1  0
 19 44  1  1
 20 21  1  0
 20 45  1  0
 20 46  1  0
 21 47  1  0
M  END

