
     RDKit          3D

 81 90  0  0  0  0  0  0  0  0999 V2000
    3.8183   -1.6910    3.9662 C   0  0  0  0  0  0  0  0  0  0  0  0
    4.6650   -1.3328    2.7689 C   0  0  0  0  0  0  0  0  0  0  0  0
    5.5283   -0.2286    2.7733 C   0  0  0  0  0  0  0  0  0  0  0  0
    6.3083    0.0833    1.6639 C   0  0  0  0  0  0  0  0  0  0  0  0
    6.2573   -0.7013    0.4923 C   0  0  0  0  0  0  0  0  0  0  0  0
    5.3957   -1.8189    0.4663 C   0  0  0  0  0  0  0  0  0  0  0  0
    4.6253   -2.1027    1.6017 C   0  0  0  0  0  0  0  0  0  0  0  0
    5.2685   -2.7294   -0.7621 C   0  0  2  0  0  0  0  0  0  0  0  0
    3.8087   -2.7971   -1.2490 C   0  0  0  0  0  0  0  0  0  0  0  0
    3.0096   -1.7641   -1.7306 C   0  0  0  0  0  0  0  0  0  0  0  0
    1.6954   -2.0483   -2.1246 C   0  0  0  0  0  0  0  0  0  0  0  0
    1.1913   -3.3532   -2.0359 C   0  0  0  0  0  0  0  0  0  0  0  0
    1.9915   -4.3935   -1.5527 C   0  0  0  0  0  0  0  0  0  0  0  0
    3.3044   -4.1104   -1.1589 C   0  0  0  0  0  0  0  0  0  0  0  0
    4.3608   -4.9827   -0.6223 C   0  0  0  0  0  0  0  0  0  0  0  0
    4.3664   -6.3548   -0.3457 C   0  0  0  0  0  0  0  0  0  0  0  0
    5.5299   -6.9360    0.1687 C   0  0  0  0  0  0  0  0  0  0  0  0
    6.6718   -6.1576    0.4036 C   0  0  0  0  0  0  0  0  0  0  0  0
    6.6669   -4.7841    0.1270 C   0  0  0  0  0  0  0  0  0  0  0  0
    5.5105   -4.2025   -0.3849 C   0  0  0  0  0  0  0  0  0  0  0  0
    6.2047   -2.2893   -1.8944 C   0  0  0  0  0  0  0  0  0  0  0  0
    6.2284   -3.0373   -3.0826 C   0  0  0  0  0  0  0  0  0  0  0  0
    7.0370   -2.7161   -4.1742 C   0  0  0  0  0  0  0  0  0  0  0  0
    7.0392   -3.5462   -5.4348 C   0  0  0  0  0  0  0  0  0  0  0  0
    7.8560   -1.5819   -4.0488 C   0  0  0  0  0  0  0  0  0  0  0  0
    7.8584   -0.8189   -2.8885 C   0  0  0  0  0  0  0  0  0  0  0  0
    7.0358   -1.1568   -1.7898 C   0  0  0  0  0  0  0  0  0  0  0  0
    7.0509   -0.3728   -0.6216 N   0  0  0  0  0  0  0  0  0  0  0  0
    7.9038    0.7745   -0.5568 C   0  0  0  0  0  0  0  0  0  0  0  0
    9.2285    0.6540   -0.1145 C   0  0  0  0  0  0  0  0  0  0  0  0
   10.0462    1.7801   -0.0681 C   0  0  0  0  0  0  0  0  0  0  0  0
    9.5635    3.0480   -0.4324 C   0  0  0  0  0  0  0  0  0  0  0  0
    8.2396    3.1625   -0.8981 C   0  0  0  0  0  0  0  0  0  0  0  0
    7.4211    2.0216   -0.9585 C   0  0  0  0  0  0  0  0  0  0  0  0
    7.4525    4.6782   -1.3990 S   0  0  0  0  0  0  0  0  0  0  0  0
    8.7733    5.7354   -1.9555 C   0  0  0  0  0  0  0  0  0  0  0  0
    8.3937    6.7156   -2.8901 C   0  0  0  0  0  0  0  0  0  0  0  0
    9.3274    7.6300   -3.3728 C   0  0  0  0  0  0  0  0  0  0  0  0
   10.6597    7.5618   -2.9511 C   0  0  0  0  0  0  0  0  0  0  0  0
   11.0428    6.5828   -2.0366 C   0  0  0  0  0  0  0  0  0  0  0  0
   10.1076    5.6760   -1.5093 C   0  0  0  0  0  0  0  0  0  0  0  0
   10.7195    4.4686   -0.2670 P   0  0  2  0  0  0  0  0  0  0  0  0
   12.6132    3.9760   -0.4988 S   0  0  0  0  0  0  0  0  0  0  0  0
   10.3672    5.2134    1.3889 C   0  0  0  0  0  0  0  0  0  0  0  0
    9.0805    5.6525    1.7480 C   0  0  0  0  0  0  0  0  0  0  0  0
    8.8594    6.2077    3.0103 C   0  0  0  0  0  0  0  0  0  0  0  0
    9.9141    6.3299    3.9214 C   0  0  0  0  0  0  0  0  0  0  0  0
   11.1934    5.8947    3.5663 C   0  0  0  0  0  0  0  0  0  0  0  0
   11.4212    5.3379    2.3043 C   0  0  0  0  0  0  0  0  0  0  0  0
    3.9048   -0.9349    4.7610 H   0  0  0  0  0  0  0  0  0  0  0  0
    4.1176   -2.6620    4.3969 H   0  0  0  0  0  0  0  0  0  0  0  0
    2.7522   -1.7753    3.6975 H   0  0  0  0  0  0  0  0  0  0  0  0
    5.5967    0.4050    3.6623 H   0  0  0  0  0  0  0  0  0  0  0  0
    6.9684    0.9488    1.7079 H   0  0  0  0  0  0  0  0  0  0  0  0
    3.9613   -2.9706    1.5663 H   0  0  0  0  0  0  0  0  0  0  0  0
    3.4002   -0.7457   -1.8013 H   0  0  0  0  0  0  0  0  0  0  0  0
    1.0577   -1.2460   -2.5047 H   0  0  0  0  0  0  0  0  0  0  0  0
    0.1640   -3.5593   -2.3474 H   0  0  0  0  0  0  0  0  0  0  0  0
    1.5942   -5.4097   -1.4855 H   0  0  0  0  0  0  0  0  0  0  0  0
    3.4784   -6.9658   -0.5275 H   0  0  0  0  0  0  0  0  0  0  0  0
    5.5494   -8.0063    0.3895 H   0  0  0  0  0  0  0  0  0  0  0  0
    7.5736   -6.6265    0.8057 H   0  0  0  0  0  0  0  0  0  0  0  0
    7.5588   -4.1796    0.3109 H   0  0  0  0  0  0  0  0  0  0  0  0
    5.5780   -3.9131   -3.1497 H   0  0  0  0  0  0  0  0  0  0  0  0
    6.7800   -2.9392   -6.3187 H   0  0  0  0  0  0  0  0  0  0  0  0
    6.3170   -4.3738   -5.3741 H   0  0  0  0  0  0  0  0  0  0  0  0
    8.0335   -3.9841   -5.6280 H   0  0  0  0  0  0  0  0  0  0  0  0
    8.5083   -1.2866   -4.8761 H   0  0  0  0  0  0  0  0  0  0  0  0
    8.5083    0.0534   -2.8296 H   0  0  0  0  0  0  0  0  0  0  0  0
    9.6094   -0.3246    0.1835 H   0  0  0  0  0  0  0  0  0  0  0  0
   11.0878    1.6946    0.2516 H   0  0  0  0  0  0  0  0  0  0  0  0
    6.3995    2.0992   -1.3363 H   0  0  0  0  0  0  0  0  0  0  0  0
    7.3613    6.7445   -3.2473 H   0  0  0  0  0  0  0  0  0  0  0  0
    9.0156    8.3859   -4.0979 H   0  0  0  0  0  0  0  0  0  0  0  0
   11.3998    8.2649   -3.3398 H   0  0  0  0  0  0  0  0  0  0  0  0
   12.0838    6.4981   -1.7148 H   0  0  0  0  0  0  0  0  0  0  0  0
    8.2462    5.5645    1.0490 H   0  0  0  0  0  0  0  0  0  0  0  0
    7.8567    6.5472    3.2825 H   0  0  0  0  0  0  0  0  0  0  0  0
    9.7369    6.7654    4.9083 H   0  0  0  0  0  0  0  0  0  0  0  0
   12.0215    5.9880    4.2736 H   0  0  0  0  0  0  0  0  0  0  0  0
   12.4168    4.9942    2.0124 H   0  0  0  0  0  0  0  0  0  0  0  0
  1  2  1  0
  1 50  1  0
  1 51  1  0
  1 52  1  0
  2  3  2  0
  2  7  1  0
  3  4  1  0
  3 53  1  0
  4  5  2  0
  4 54  1  0
  5  6  1  0
  5 28  1  0
  6  7  2  0
  8  6  1  1
  7 55  1  0
  8  9  1  0
  8 20  1  0
  8 21  1  0
  9 10  2  0
  9 14  1  0
 10 11  1  0
 10 56  1  0
 11 12  2  0
 11 57  1  0
 12 13  1  0
 12 58  1  0
 13 14  2  0
 13 59  1  0
 14 15  1  0
 15 16  2  0
 15 20  1  0
 16 17  1  0
 16 60  1  0
 17 18  2  0
 17 61  1  0
 18 19  1  0
 18 62  1  0
 19 20  2  0
 19 63  1  0
 21 22  1  0
 21 27  2  0
 22 23  2  0
 22 64  1  0
 23 24  1  0
 23 25  1  0
 24 65  1  0
 24 66  1  0
 24 67  1  0
 25 26  2  0
 25 68  1  0
 26 27  1  0
 26 69  1  0
 27 28  1  0
 28 29  1  0
 29 30  2  0
 29 34  1  0
 30 31  1  0
 30 70  1  0
 31 32  2  0
 31 71  1  0
 32 33  1  0
 32 42  1  0
 33 34  2  0
 33 35  1  0
 34 72  1  0
 35 36  1  0
 36 37  2  0
 36 41  1  0
 37 38  1  0
 37 73  1  0
 38 39  2  0
 38 74  1  0
 39 40  1  0
 39 75  1  0
 40 41  2  0
 40 76  1  0
 41 42  1  0
 42 43  2  0
 42 44  1  1
 44 45  2  0
 44 49  1  0
 45 46  1  0
 45 77  1  0
 46 47  2  0
 46 78  1  0
 47 48  1  0
 47 79  1  0
 48 49  2  0
 48 80  1  0
 49 81  1  0
M  END

