
     RDKit          3D

 47 48  0  0  0  0  0  0  0  0999 V2000
    1.0872   -0.1671    0.4343 C   0  0  0  0  0  0  0  0  0  0  0  0
    2.5555    0.0838    0.0883 C   0  0  0  0  0  0  0  0  0  0  0  0
    3.1473   -0.9128   -0.7998 N   0  0  0  0  0  0  0  0  0  0  0  0
    2.4364   -1.0837   -2.0681 C   0  0  0  0  0  0  0  0  0  0  0  0
    2.2626    0.1745   -2.9610 C   0  0  1  0  0  0  0  0  0  0  0  0
    3.5091    0.7818   -3.4470 N   0  0  0  0  0  0  0  0  0  0  0  0
    1.3296   -0.0453   -4.1532 C   0  0  0  0  0  0  0  0  0  0  0  0
    1.1061   -1.3238   -4.6854 C   0  0  0  0  0  0  0  0  0  0  0  0
    0.2828   -1.5233   -5.7988 C   0  0  0  0  0  0  0  0  0  0  0  0
   -0.3349   -0.4293   -6.4014 C   0  0  0  0  0  0  0  0  0  0  0  0
   -0.1197    0.8514   -5.8842 C   0  0  0  0  0  0  0  0  0  0  0  0
    0.7032    1.0687   -4.7701 C   0  0  0  0  0  0  0  0  0  0  0  0
    0.9098    2.4721   -4.2533 C   0  0  0  0  0  0  0  0  0  0  0  0
    4.6225   -0.9394   -0.7595 C   0  0  1  0  0  0  0  0  0  0  0  0
    5.1437   -1.4293    0.6165 C   0  0  0  0  0  0  0  0  0  0  0  0
    4.8442   -2.9119    0.8672 C   0  0  0  0  0  0  0  0  0  0  0  0
    5.4596   -3.7950   -0.2245 C   0  0  0  0  0  0  0  0  0  0  0  0
    5.0167   -3.3406   -1.6208 C   0  0  0  0  0  0  0  0  0  0  0  0
    5.2693   -1.8404   -1.8329 C   0  0  0  0  0  0  0  0  0  0  0  0
    0.7591    0.5433    1.2097 H   0  0  0  0  0  0  0  0  0  0  0  0
    0.9497   -1.1889    0.8226 H   0  0  0  0  0  0  0  0  0  0  0  0
    0.4146   -0.0397   -0.4277 H   0  0  0  0  0  0  0  0  0  0  0  0
    3.1226    0.0821    1.0285 H   0  0  0  0  0  0  0  0  0  0  0  0
    2.6643    1.1197   -0.3107 H   0  0  0  0  0  0  0  0  0  0  0  0
    1.4294   -1.4734   -1.8418 H   0  0  0  0  0  0  0  0  0  0  0  0
    2.9301   -1.8771   -2.6417 H   0  0  0  0  0  0  0  0  0  0  0  0
    1.7845    0.9419   -2.3302 H   0  0  0  0  0  0  0  0  0  0  0  0
    3.9905    0.1567   -4.0932 H   0  0  0  0  0  0  0  0  0  0  0  0
    4.1471    0.9817   -2.6783 H   0  0  0  0  0  0  0  0  0  0  0  0
    1.5790   -2.1952   -4.2295 H   0  0  0  0  0  0  0  0  0  0  0  0
    0.1291   -2.5327   -6.1890 H   0  0  0  0  0  0  0  0  0  0  0  0
   -0.9820   -0.5668   -7.2718 H   0  0  0  0  0  0  0  0  0  0  0  0
   -0.6024    1.7110   -6.3584 H   0  0  0  0  0  0  0  0  0  0  0  0
    0.4296    3.2114   -4.9108 H   0  0  0  0  0  0  0  0  0  0  0  0
    1.9836    2.6999   -4.1772 H   0  0  0  0  0  0  0  0  0  0  0  0
    0.4812    2.5999   -3.2437 H   0  0  0  0  0  0  0  0  0  0  0  0
    5.0307    0.0879   -0.9092 H   0  0  0  0  0  0  0  0  0  0  0  0
    4.7440   -0.8153    1.4372 H   0  0  0  0  0  0  0  0  0  0  0  0
    6.2363   -1.2660    0.6320 H   0  0  0  0  0  0  0  0  0  0  0  0
    3.7506   -3.0563    0.8838 H   0  0  0  0  0  0  0  0  0  0  0  0
    5.2216   -3.2100    1.8600 H   0  0  0  0  0  0  0  0  0  0  0  0
    5.1934   -4.8535   -0.0640 H   0  0  0  0  0  0  0  0  0  0  0  0
    6.5624   -3.7386   -0.1573 H   0  0  0  0  0  0  0  0  0  0  0  0
    3.9435   -3.5639   -1.7482 H   0  0  0  0  0  0  0  0  0  0  0  0
    5.5477   -3.9168   -2.3977 H   0  0  0  0  0  0  0  0  0  0  0  0
    4.9667   -1.5282   -2.8426 H   0  0  0  0  0  0  0  0  0  0  0  0
    6.3566   -1.6559   -1.7818 H   0  0  0  0  0  0  0  0  0  0  0  0
  1  2  1  0
  1 20  1  0
  1 21  1  0
  1 22  1  0
  2  3  1  0
  2 23  1  0
  2 24  1  0
  3  4  1  0
  3 14  1  0
  4  5  1  0
  4 25  1  0
  4 26  1  0
  5  6  1  0
  5  7  1  0
  5 27  1  1
  6 28  1  0
  6 29  1  0
  7  8  2  0
  7 12  1  0
  8  9  1  0
  8 30  1  0
  9 10  2  0
  9 31  1  0
 10 11  1  0
 10 32  1  0
 11 12  2  0
 11 33  1  0
 12 13  1  0
 13 34  1  0
 13 35  1  0
 13 36  1  0
 14 15  1  0
 14 19  1  0
 14 37  1  6
 15 16  1  0
 15 38  1  0
 15 39  1  0
 16 17  1  0
 16 40  1  0
 16 41  1  0
 17 18  1  0
 17 42  1  0
 17 43  1  0
 18 19  1  0
 18 44  1  0
 18 45  1  0
 19 46  1  0
 19 47  1  0
M  END

