
     RDKit          3D

 39 41  0  0  0  0  0  0  0  0999 V2000
    3.2344    1.1357   -0.6947 C   0  0  0  0  0  0  0  0  0  0  0  0
    2.6869   -0.1615   -0.8015 O   0  0  0  0  0  0  0  0  0  0  0  0
    3.3389   -1.2040   -0.2240 C   0  0  0  0  0  0  0  0  0  0  0  0
    4.5171   -1.0715    0.5077 C   0  0  0  0  0  0  0  0  0  0  0  0
    5.1463   -2.2202    1.0254 C   0  0  0  0  0  0  0  0  0  0  0  0
    6.3823   -2.0531    1.7823 C   0  0  0  0  0  0  0  0  0  0  0  0
    7.0073   -0.9398    2.0648 N   0  0  0  0  0  0  0  0  0  0  0  0
    8.1078   -1.3194    2.7886 C   0  0  0  0  0  0  0  0  0  0  0  0
    8.1208   -2.6866    2.9296 C   0  0  0  0  0  0  0  0  0  0  0  0
    9.0052   -3.6429    3.5749 C   0  0  0  0  0  0  0  0  0  0  0  0
   10.1611   -3.2226    4.2605 C   0  0  0  0  0  0  0  0  0  0  0  0
   10.9764   -4.1798    4.8627 C   0  0  0  0  0  0  0  0  0  0  0  0
   10.7308   -5.4938    4.8331 N   0  0  0  0  0  0  0  0  0  0  0  0
    9.6347   -5.8932    4.1829 C   0  0  0  0  0  0  0  0  0  0  0  0
    8.7472   -5.0254    3.5438 C   0  0  0  0  0  0  0  0  0  0  0  0
    7.0071   -3.1506    2.2793 O   0  0  0  0  0  0  0  0  0  0  0  0
    4.5893   -3.4818    0.8123 C   0  0  0  0  0  0  0  0  0  0  0  0
    3.3941   -3.6248    0.0876 C   0  0  0  0  0  0  0  0  0  0  0  0
    2.9819   -4.9045   -0.0858 O   0  0  0  0  0  0  0  0  0  0  0  0
    1.6226   -5.2537   -0.2852 C   0  0  0  0  0  0  0  0  0  0  0  0
    2.7545   -2.4829   -0.4408 C   0  0  0  0  0  0  0  0  0  0  0  0
    1.6482   -2.6246   -1.2275 O   0  0  0  0  0  0  0  0  0  0  0  0
    0.4319   -2.0237   -0.7989 C   0  0  0  0  0  0  0  0  0  0  0  0
    2.5621    1.8034   -1.2497 H   0  0  0  0  0  0  0  0  0  0  0  0
    4.2435    1.1892   -1.1394 H   0  0  0  0  0  0  0  0  0  0  0  0
    3.2908    1.4730    0.3555 H   0  0  0  0  0  0  0  0  0  0  0  0
    4.9806   -0.1028    0.6824 H   0  0  0  0  0  0  0  0  0  0  0  0
    8.8270   -0.5953    3.1670 H   0  0  0  0  0  0  0  0  0  0  0  0
   10.4250   -2.1650    4.3261 H   0  0  0  0  0  0  0  0  0  0  0  0
   11.8790   -3.8631    5.3991 H   0  0  0  0  0  0  0  0  0  0  0  0
    9.4433   -6.9729    4.1648 H   0  0  0  0  0  0  0  0  0  0  0  0
    7.8680   -5.4141    3.0281 H   0  0  0  0  0  0  0  0  0  0  0  0
    5.0569   -4.3845    1.2041 H   0  0  0  0  0  0  0  0  0  0  0  0
    1.5621   -6.3360   -0.0996 H   0  0  0  0  0  0  0  0  0  0  0  0
    1.2836   -5.0365   -1.3079 H   0  0  0  0  0  0  0  0  0  0  0  0
    0.9605   -4.7364    0.4310 H   0  0  0  0  0  0  0  0  0  0  0  0
   -0.3400   -2.3389   -1.5151 H   0  0  0  0  0  0  0  0  0  0  0  0
    0.4997   -0.9265   -0.7941 H   0  0  0  0  0  0  0  0  0  0  0  0
    0.1484   -2.3744    0.2105 H   0  0  0  0  0  0  0  0  0  0  0  0
  1  2  1  0
  1 24  1  0
  1 25  1  0
  1 26  1  0
  2  3  1  0
  3  4  2  0
  3 21  1  0
  4  5  1  0
  4 27  1  0
  5  6  1  0
  5 17  2  0
  6  7  2  0
  6 16  1  0
  7  8  1  0
  8  9  2  0
  8 28  1  0
  9 10  1  0
  9 16  1  0
 10 11  2  0
 10 15  1  0
 11 12  1  0
 11 29  1  0
 12 13  2  0
 12 30  1  0
 13 14  1  0
 14 15  2  0
 14 31  1  0
 15 32  1  0
 17 18  1  0
 17 33  1  0
 18 19  1  0
 18 21  2  0
 19 20  1  0
 20 34  1  0
 20 35  1  0
 20 36  1  0
 21 22  1  0
 22 23  1  0
 23 37  1  0
 23 38  1  0
 23 39  1  0
M  END

