
     RDKit          3D

 74 73  0  0  0  0  0  0  0  0999 V2000
    3.4749   -4.6347   -2.2682 N   0  0  0  0  0  0  0  0  0  0  0  0
    4.4024   -4.0746   -1.2820 C   0  0  0  0  0  0  0  0  0  0  0  0
    4.1152   -4.6231    0.1154 C   0  0  0  0  0  0  0  0  0  0  0  0
    5.2949   -4.4689    1.0765 C   0  0  0  0  0  0  0  0  0  0  0  0
    4.9868   -4.9296    2.5060 C   0  0  0  0  0  0  0  0  0  0  0  0
    6.2409   -5.3040    3.3076 C   0  0  1  0  0  0  0  0  0  0  0  0
    7.0035   -4.5164    3.2018 H   0  0  0  0  0  0  0  0  0  0  0  0
    5.9658   -5.4834    4.8032 C   0  0  0  0  0  0  0  0  0  0  0  0
    5.5094   -4.2290    5.3263 O   0  0  0  0  0  0  0  0  0  0  0  0
    5.1451   -4.2188    6.6082 C   0  0  0  0  0  0  0  0  0  0  0  0
    5.1517   -5.1630    7.3568 O   0  0  0  0  0  0  0  0  0  0  0  0
    4.7624   -2.9763    6.9362 O   0  0  0  0  0  0  0  0  0  0  0  0
    6.8274   -6.5244    2.7788 N   0  0  0  0  0  0  0  0  0  0  0  0
    8.1658   -6.6993    2.5846 C   0  0  0  0  0  0  0  0  0  0  0  0
    9.0305   -5.8930    2.8566 O   0  0  0  0  0  0  0  0  0  0  0  0
    8.3900   -7.9180    2.0330 O   0  0  0  0  0  0  0  0  0  0  0  0
    9.7506   -8.2838    1.7867 C   0  0  0  0  0  0  0  0  0  0  0  0
   10.2916   -7.7543    0.4442 C   0  0  2  0  0  0  0  0  0  0  0  0
   10.2229   -6.6551    0.4784 H   0  0  0  0  0  0  0  0  0  0  0  0
    9.5374   -8.2595   -0.8062 C   0  0  0  0  0  0  0  0  0  0  0  0
    8.2292   -7.5279   -1.1300 C   0  0  0  0  0  0  0  0  0  0  0  0
    7.5723   -8.0412   -2.4157 C   0  0  0  0  0  0  0  0  0  0  0  0
    6.3352   -7.2569   -2.8651 C   0  0  0  0  0  0  0  0  0  0  0  0
    5.2620   -7.2759   -1.8765 N   0  0  0  0  0  0  0  0  0  0  0  0
   11.7229   -8.0556    0.3787 N   0  0  0  0  0  0  0  0  0  0  0  0
   12.2599   -9.2996    0.3254 C   0  0  0  0  0  0  0  0  0  0  0  0
   11.6145  -10.3412    0.3471 O   0  0  0  0  0  0  0  0  0  0  0  0
   13.8029   -9.3182    0.2824 C   0  0  1  0  0  0  0  0  0  0  0  0
   14.0576  -10.1744   -0.3724 H   0  0  0  0  0  0  0  0  0  0  0  0
   14.3224   -8.0375   -0.2040 N   0  0  0  0  0  0  0  0  0  0  0  0
   14.3763   -9.6064    1.6843 C   0  0  0  0  0  0  0  0  0  0  0  0
   14.0848  -11.0040    2.2365 C   0  0  0  0  0  0  0  0  0  0  0  0
   14.6574  -11.2218    3.6390 C   0  0  0  0  0  0  0  0  0  0  0  0
   14.3815  -12.6162    4.2006 C   0  0  0  0  0  0  0  0  0  0  0  0
   14.9018  -12.7475    5.5587 N   0  0  0  0  0  0  0  0  0  0  0  0
    3.6219   -4.2077   -3.1834 H   0  0  0  0  0  0  0  0  0  0  0  0
    2.5098   -4.4212   -2.0096 H   0  0  0  0  0  0  0  0  0  0  0  0
    4.4016   -2.9638   -1.2483 H   0  0  0  0  0  0  0  0  0  0  0  0
    5.4223   -4.3751   -1.5761 H   0  0  0  0  0  0  0  0  0  0  0  0
    3.8885   -5.6973    0.0153 H   0  0  0  0  0  0  0  0  0  0  0  0
    3.2107   -4.1381    0.5298 H   0  0  0  0  0  0  0  0  0  0  0  0
    5.6438   -3.4205    1.0990 H   0  0  0  0  0  0  0  0  0  0  0  0
    6.1306   -5.0665    0.6752 H   0  0  0  0  0  0  0  0  0  0  0  0
    4.3195   -5.8129    2.4810 H   0  0  0  0  0  0  0  0  0  0  0  0
    4.4364   -4.1481    3.0530 H   0  0  0  0  0  0  0  0  0  0  0  0
    6.8863   -5.7861    5.3255 H   0  0  0  0  0  0  0  0  0  0  0  0
    5.2021   -6.2587    4.9829 H   0  0  0  0  0  0  0  0  0  0  0  0
    4.5101   -3.0083    7.8718 H   0  0  0  0  0  0  0  0  0  0  0  0
    6.2188   -7.2853    2.4979 H   0  0  0  0  0  0  0  0  0  0  0  0
    9.7707   -9.3808    1.7865 H   0  0  0  0  0  0  0  0  0  0  0  0
   10.3832   -7.8991    2.5994 H   0  0  0  0  0  0  0  0  0  0  0  0
    9.3654   -9.3438   -0.7097 H   0  0  0  0  0  0  0  0  0  0  0  0
   10.2236   -8.1405   -1.6631 H   0  0  0  0  0  0  0  0  0  0  0  0
    8.4365   -6.4461   -1.2404 H   0  0  0  0  0  0  0  0  0  0  0  0
    7.5131   -7.6152   -0.3009 H   0  0  0  0  0  0  0  0  0  0  0  0
    7.2997   -9.1063   -2.2864 H   0  0  0  0  0  0  0  0  0  0  0  0
    8.3081   -8.0235   -3.2407 H   0  0  0  0  0  0  0  0  0  0  0  0
    6.0296   -7.6386   -3.8647 H   0  0  0  0  0  0  0  0  0  0  0  0
    6.6257   -6.2023   -3.0246 H   0  0  0  0  0  0  0  0  0  0  0  0
    4.8647   -8.2139   -1.8073 H   0  0  0  0  0  0  0  0  0  0  0  0
    4.5012   -6.6470   -2.1561 H   0  0  0  0  0  0  0  0  0  0  0  0
   12.4057   -7.3010    0.3409 H   0  0  0  0  0  0  0  0  0  0  0  0
   14.2383   -7.9714   -1.2185 H   0  0  0  0  0  0  0  0  0  0  0  0
   15.3128   -7.9403    0.0170 H   0  0  0  0  0  0  0  0  0  0  0  0
   14.0049   -8.8342    2.3812 H   0  0  0  0  0  0  0  0  0  0  0  0
   15.4727   -9.4655    1.6288 H   0  0  0  0  0  0  0  0  0  0  0  0
   14.5009  -11.7588    1.5442 H   0  0  0  0  0  0  0  0  0  0  0  0
   12.9972  -11.1786    2.2414 H   0  0  0  0  0  0  0  0  0  0  0  0
   14.2442  -10.4785    4.3428 H   0  0  0  0  0  0  0  0  0  0  0  0
   15.7515  -11.0499    3.6250 H   0  0  0  0  0  0  0  0  0  0  0  0
   14.7752  -13.3741    3.4860 H   0  0  0  0  0  0  0  0  0  0  0  0
   13.2893  -12.7758    4.2361 H   0  0  0  0  0  0  0  0  0  0  0  0
   15.9225  -12.7103    5.5483 H   0  0  0  0  0  0  0  0  0  0  0  0
   14.6593  -13.6590    5.9470 H   0  0  0  0  0  0  0  0  0  0  0  0
  1  2  1  0
  1 36  1  0
  1 37  1  0
  2  3  1  0
  2 38  1  0
  2 39  1  0
  3  4  1  0
  3 40  1  0
  3 41  1  0
  4  5  1  0
  4 42  1  0
  4 43  1  0
  5  6  1  0
  5 44  1  0
  5 45  1  0
  6  7  1  1
  6  8  1  0
  6 13  1  0
  8  9  1  0
  8 46  1  0
  8 47  1  0
  9 10  1  0
 10 11  2  0
 10 12  1  0
 12 48  1  0
 13 14  1  0
 13 49  1  0
 14 15  2  0
 14 16  1  0
 16 17  1  0
 17 18  1  0
 17 50  1  0
 17 51  1  0
 18 19  1  1
 18 20  1  0
 18 25  1  0
 20 21  1  0
 20 52  1  0
 20 53  1  0
 21 22  1  0
 21 54  1  0
 21 55  1  0
 22 23  1  0
 22 56  1  0
 22 57  1  0
 23 24  1  0
 23 58  1  0
 23 59  1  0
 24 60  1  0
 24 61  1  0
 25 26  1  0
 25 62  1  0
 26 27  2  0
 26 28  1  0
 28 29  1  6
 28 30  1  0
 28 31  1  0
 30 63  1  0
 30 64  1  0
 31 32  1  0
 31 65  1  0
 31 66  1  0
 32 33  1  0
 32 67  1  0
 32 68  1  0
 33 34  1  0
 33 69  1  0
 33 70  1  0
 34 35  1  0
 34 71  1  0
 34 72  1  0
 35 73  1  0
 35 74  1  0
M  END

