
     RDKit          3D

 39 40  0  0  0  0  0  0  0  0999 V2000
    3.9733    2.4937   -1.2002 C   0  0  0  0  0  0  0  0  0  0  0  0
    3.3665    1.6052   -2.2962 C   0  0  1  0  0  0  0  0  0  0  0  0
    3.0981    0.2763   -1.7565 N   0  0  0  0  0  0  0  0  0  0  0  0
    2.8020   -0.7769   -2.7358 C   0  0  1  0  0  0  0  0  0  0  0  0
    4.0888   -1.2912   -3.4127 C   0  0  0  0  0  0  0  0  0  0  0  0
    5.0055   -2.0351   -2.4340 C   0  0  0  0  0  0  0  0  0  0  0  0
    4.2685   -3.1798   -1.7268 C   0  0  0  0  0  0  0  0  0  0  0  0
    2.9871   -2.6911   -1.0340 C   0  0  2  0  0  0  0  0  0  0  0  0
    2.2416   -3.8379   -0.3448 C   0  0  0  0  0  0  0  0  0  0  0  0
    1.0767   -3.4258    0.3441 O   0  0  0  0  0  0  0  0  0  0  0  0
    2.0885   -1.9435   -2.0323 C   0  0  0  0  0  0  0  0  0  0  0  0
    2.1172    2.2760   -2.8766 C   0  0  0  0  0  0  0  0  0  0  0  0
    2.1338    2.9737   -4.0934 C   0  0  0  0  0  0  0  0  0  0  0  0
    0.9615    3.5855   -4.5415 C   0  0  0  0  0  0  0  0  0  0  0  0
   -0.1919    3.4812   -3.7617 C   0  0  0  0  0  0  0  0  0  0  0  0
   -0.1128    2.7623   -2.5647 C   0  0  0  0  0  0  0  0  0  0  0  0
    1.0058    2.1778   -2.1341 N   0  0  0  0  0  0  0  0  0  0  0  0
    4.8770    2.0196   -0.7896 H   0  0  0  0  0  0  0  0  0  0  0  0
    3.2482    2.6299   -0.3817 H   0  0  0  0  0  0  0  0  0  0  0  0
    4.2345    3.4910   -1.5884 H   0  0  0  0  0  0  0  0  0  0  0  0
    4.1059    1.5077   -3.1077 H   0  0  0  0  0  0  0  0  0  0  0  0
    2.3000    0.3713   -1.1264 H   0  0  0  0  0  0  0  0  0  0  0  0
    2.1224   -0.4033   -3.5322 H   0  0  0  0  0  0  0  0  0  0  0  0
    4.6344   -0.4586   -3.8879 H   0  0  0  0  0  0  0  0  0  0  0  0
    3.7941   -1.9679   -4.2351 H   0  0  0  0  0  0  0  0  0  0  0  0
    5.3738   -1.3210   -1.6791 H   0  0  0  0  0  0  0  0  0  0  0  0
    5.8902   -2.4243   -2.9660 H   0  0  0  0  0  0  0  0  0  0  0  0
    4.9352   -3.6679   -0.9944 H   0  0  0  0  0  0  0  0  0  0  0  0
    4.0005   -3.9573   -2.4683 H   0  0  0  0  0  0  0  0  0  0  0  0
    3.2892   -1.9722   -0.2476 H   0  0  0  0  0  0  0  0  0  0  0  0
    2.9399   -4.3770    0.3292 H   0  0  0  0  0  0  0  0  0  0  0  0
    1.9033   -4.5690   -1.0997 H   0  0  0  0  0  0  0  0  0  0  0  0
    1.3443   -2.8020    1.0321 H   0  0  0  0  0  0  0  0  0  0  0  0
    1.1813   -1.5830   -1.5205 H   0  0  0  0  0  0  0  0  0  0  0  0
    1.7422   -2.6565   -2.8025 H   0  0  0  0  0  0  0  0  0  0  0  0
    3.0546    3.0308   -4.6798 H   0  0  0  0  0  0  0  0  0  0  0  0
    0.9471    4.1314   -5.4888 H   0  0  0  0  0  0  0  0  0  0  0  0
   -1.1336    3.9400   -4.0714 H   0  0  0  0  0  0  0  0  0  0  0  0
   -0.9983    2.6544   -1.9265 H   0  0  0  0  0  0  0  0  0  0  0  0
  1  2  1  0
  1 18  1  0
  1 19  1  0
  1 20  1  0
  2  3  1  0
  2 12  1  0
  2 21  1  6
  3  4  1  0
  3 22  1  0
  4  5  1  0
  4 11  1  0
  4 23  1  6
  5  6  1  0
  5 24  1  0
  5 25  1  0
  6  7  1  0
  6 26  1  0
  6 27  1  0
  7  8  1  0
  7 28  1  0
  7 29  1  0
  8  9  1  0
  8 11  1  0
  8 30  1  1
  9 10  1  0
  9 31  1  0
  9 32  1  0
 10 33  1  0
 11 34  1  0
 11 35  1  0
 12 13  2  0
 12 17  1  0
 13 14  1  0
 13 36  1  0
 14 15  2  0
 14 37  1  0
 15 16  1  0
 15 38  1  0
 16 17  2  0
 16 39  1  0
M  END

