
     RDKit          3D

 68 71  0  0  0  0  0  0  0  0999 V2000
    0.9558    0.1683   -0.7665 C   0  0  0  0  0  0  0  0  0  0  0  0
    2.4202    0.4158   -1.0350 C   0  0  0  0  0  0  0  0  0  0  0  0
    2.6519    1.1448   -2.0758 N   0  0  0  0  0  0  0  0  0  0  0  0
    4.0008    1.5078   -2.3384 N   0  0  0  0  0  0  0  0  0  0  0  0
    4.1681    1.6888   -3.7852 C   0  0  0  0  0  0  0  0  0  0  0  0
    4.4678    2.9515   -1.4437 S   0  0  1  0  0  0  0  0  0  0  0  0
    4.3529    4.1288   -2.3082 O   0  0  0  0  0  0  0  0  0  0  0  0
    3.7429    2.9063   -0.1734 O   0  0  0  0  0  0  0  0  0  0  0  0
    6.2158    2.5802   -1.0670 C   0  0  0  0  0  0  0  0  0  0  0  0
    6.3777    1.9799    0.1810 C   0  0  0  0  0  0  0  0  0  0  0  0
    7.6088    1.4397    0.5388 C   0  0  0  0  0  0  0  0  0  0  0  0
    7.7497    0.7703    1.8372 N   0  0  0  0  0  0  0  0  0  0  0  0
    6.7777    0.7581    2.5802 O   0  0  0  0  0  0  0  0  0  0  0  0
    8.8290    0.2624    2.0970 O   0  0  0  0  0  0  0  0  0  0  0  0
    8.6936    1.4878   -0.3361 C   0  0  0  0  0  0  0  0  0  0  0  0
    8.5419    2.1246   -1.5603 C   0  0  0  0  0  0  0  0  0  0  0  0
    7.3195    2.7177   -1.9656 C   0  0  0  0  0  0  0  0  0  0  0  0
    7.2307    3.3888   -3.1887 N   0  0  0  0  0  0  0  0  0  0  0  0
    6.9582    4.8324   -3.1479 C   0  0  0  0  0  0  0  0  0  0  0  0
    8.1652    3.0034   -4.2463 C   0  0  0  0  0  0  0  0  0  0  0  0
    7.6603    3.3457   -5.6590 C   0  0  0  0  0  0  0  0  0  0  0  0
    8.5798    2.8279   -6.6605 N   0  0  0  0  0  0  0  0  0  0  0  0
    8.3283    1.4533   -7.0922 C   0  0  0  0  0  0  0  0  0  0  0  0
    7.2309    1.3370   -8.1655 C   0  0  0  0  0  0  0  0  0  0  0  0
    7.5389    2.2520   -9.3591 C   0  0  0  0  0  0  0  0  0  0  0  0
    7.8047    3.6894   -8.8902 C   0  0  0  0  0  0  0  0  0  0  0  0
    8.8804    3.7032   -7.7909 C   0  0  0  0  0  0  0  0  0  0  0  0
    3.4112   -0.2150   -0.1487 C   0  0  0  0  0  0  0  0  0  0  0  0
    4.6789   -0.7411   -0.4976 C   0  0  0  0  0  0  0  0  0  0  0  0
    5.2990   -1.3405    0.5158 N   0  0  0  0  0  0  0  0  0  0  0  0
    4.4618   -1.2121    1.5569 N   0  0  0  0  0  0  0  0  0  0  0  0
    4.7435   -1.6539    2.8188 C   0  0  0  0  0  0  0  0  0  0  0  0
    3.8254   -1.4731    3.8138 C   0  0  0  0  0  0  0  0  0  0  0  0
    2.5893   -0.8064    3.5254 C   0  0  0  0  0  0  0  0  0  0  0  0
    1.6253   -0.6155    4.5713 C   0  0  0  0  0  0  0  0  0  0  0  0
    0.8490   -0.4702    5.4225 N   0  0  0  0  0  0  0  0  0  0  0  0
    2.3270   -0.3429    2.2449 C   0  0  0  0  0  0  0  0  0  0  0  0
    3.2798   -0.5452    1.2202 C   0  0  0  0  0  0  0  0  0  0  0  0
    0.3772    0.4350   -1.6604 H   0  0  0  0  0  0  0  0  0  0  0  0
    0.6070    0.8174    0.0545 H   0  0  0  0  0  0  0  0  0  0  0  0
    0.7594   -0.8766   -0.4824 H   0  0  0  0  0  0  0  0  0  0  0  0
    3.4075    2.3687   -4.2030 H   0  0  0  0  0  0  0  0  0  0  0  0
    4.0707    0.7015   -4.2590 H   0  0  0  0  0  0  0  0  0  0  0  0
    5.1695    2.0888   -3.9881 H   0  0  0  0  0  0  0  0  0  0  0  0
    5.5319    1.9011    0.8611 H   0  0  0  0  0  0  0  0  0  0  0  0
    9.6456    1.0506   -0.0354 H   0  0  0  0  0  0  0  0  0  0  0  0
    9.4088    2.2048   -2.2149 H   0  0  0  0  0  0  0  0  0  0  0  0
    6.4621    5.1056   -2.2140 H   0  0  0  0  0  0  0  0  0  0  0  0
    6.2914    5.1371   -3.9657 H   0  0  0  0  0  0  0  0  0  0  0  0
    7.9095    5.3956   -3.2264 H   0  0  0  0  0  0  0  0  0  0  0  0
    8.3198    1.9160   -4.1926 H   0  0  0  0  0  0  0  0  0  0  0  0
    9.1594    3.4796   -4.1191 H   0  0  0  0  0  0  0  0  0  0  0  0
    7.5979    4.4384   -5.7728 H   0  0  0  0  0  0  0  0  0  0  0  0
    6.6228    2.9682   -5.7719 H   0  0  0  0  0  0  0  0  0  0  0  0
    8.0784    0.8365   -6.2136 H   0  0  0  0  0  0  0  0  0  0  0  0
    9.2716    1.0419   -7.4982 H   0  0  0  0  0  0  0  0  0  0  0  0
    6.2548    1.6168   -7.7291 H   0  0  0  0  0  0  0  0  0  0  0  0
    7.1364    0.2868   -8.4905 H   0  0  0  0  0  0  0  0  0  0  0  0
    6.7162    2.2251  -10.0929 H   0  0  0  0  0  0  0  0  0  0  0  0
    8.4359    1.8725   -9.8838 H   0  0  0  0  0  0  0  0  0  0  0  0
    6.8708    4.1320   -8.4978 H   0  0  0  0  0  0  0  0  0  0  0  0
    8.1222    4.3243   -9.7352 H   0  0  0  0  0  0  0  0  0  0  0  0
    9.0485    4.7255   -7.4158 H   0  0  0  0  0  0  0  0  0  0  0  0
    9.8405    3.3713   -8.2304 H   0  0  0  0  0  0  0  0  0  0  0  0
    5.1560   -0.7047   -1.4737 H   0  0  0  0  0  0  0  0  0  0  0  0
    5.7190   -2.1219    2.9443 H   0  0  0  0  0  0  0  0  0  0  0  0
    4.0421   -1.8220    4.8228 H   0  0  0  0  0  0  0  0  0  0  0  0
    1.3980    0.1801    2.0269 H   0  0  0  0  0  0  0  0  0  0  0  0
  1  2  1  0
  1 39  1  0
  1 40  1  0
  1 41  1  0
  2  3  2  0
  2 28  1  0
  3  4  1  0
  4  5  1  0
  6  4  1  6
  5 42  1  0
  5 43  1  0
  5 44  1  0
  6  7  2  0
  6  8  2  0
  6  9  1  0
  9 10  2  0
  9 17  1  0
 10 11  1  0
 10 45  1  0
 11 12  1  0
 11 15  2  0
 12 13  2  0
 12 14  1  0
 15 16  1  0
 15 46  1  0
 16 17  2  0
 16 47  1  0
 17 18  1  0
 18 19  1  0
 18 20  1  0
 19 48  1  0
 19 49  1  0
 19 50  1  0
 20 21  1  0
 20 51  1  0
 20 52  1  0
 21 22  1  0
 21 53  1  0
 21 54  1  0
 22 23  1  0
 22 27  1  0
 23 24  1  0
 23 55  1  0
 23 56  1  0
 24 25  1  0
 24 57  1  0
 24 58  1  0
 25 26  1  0
 25 59  1  0
 25 60  1  0
 26 27  1  0
 26 61  1  0
 26 62  1  0
 27 63  1  0
 27 64  1  0
 28 29  1  0
 28 38  2  0
 29 30  2  0
 29 65  1  0
 30 31  1  0
 31 32  1  0
 31 38  1  0
 32 33  2  0
 32 66  1  0
 33 34  1  0
 33 67  1  0
 34 35  1  0
 34 37  2  0
 35 36  3  0
 37 38  1  0
 37 68  1  0
M  CHG  2  12   1  14  -1
M  END

