
     RDKit          3D

 48 51  0  0  0  0  0  0  0  0999 V2000
    5.2603    2.7094   -1.2605 C   0  0  0  0  0  0  0  0  0  0  0  0
    4.4606    1.7142   -0.3963 C   0  0  1  0  0  0  0  0  0  0  0  0
    5.3364    0.4731   -0.1243 C   0  0  0  0  0  0  0  0  0  0  0  0
    4.1501    2.3722    0.9645 C   0  0  0  0  0  0  0  0  0  0  0  0
    3.1290    1.2646   -1.0938 C   0  0  2  0  0  0  0  0  0  0  0  0
    2.7218    0.4493   -0.4658 H   0  0  0  0  0  0  0  0  0  0  0  0
    3.3121    0.6899   -2.5137 C   0  0  0  0  0  0  0  0  0  0  0  0
    2.0399    0.0041   -3.0301 C   0  0  0  0  0  0  0  0  0  0  0  0
    0.8280    0.8707   -2.8107 C   0  0  0  0  0  0  0  0  0  0  0  0
    0.8549    1.9391   -1.9428 C   0  0  0  0  0  0  0  0  0  0  0  0
   -0.6736    2.7918   -1.8605 S   0  0  0  0  0  0  0  0  0  0  0  0
   -1.3746    1.6927   -3.0151 C   0  0  0  0  0  0  0  0  0  0  0  0
   -2.6630    1.7959   -3.4353 N   0  0  0  0  0  0  0  0  0  0  0  0
   -3.0895    0.9477   -4.2856 N   0  0  0  0  0  0  0  0  0  0  0  0
   -2.2732   -0.0213   -4.7485 N   0  0  0  0  0  0  0  0  0  0  0  0
   -2.8925   -0.9025   -5.7544 C   0  0  0  0  0  0  0  0  0  0  0  0
   -2.6817   -0.4241   -7.1775 C   0  0  0  0  0  0  0  0  0  0  0  0
   -1.6002   -0.8925   -7.9393 C   0  0  0  0  0  0  0  0  0  0  0  0
   -1.4086   -0.4394   -9.2476 C   0  0  0  0  0  0  0  0  0  0  0  0
   -2.2920    0.4889   -9.8068 C   0  0  0  0  0  0  0  0  0  0  0  0
   -3.3688    0.9646   -9.0517 C   0  0  0  0  0  0  0  0  0  0  0  0
   -3.5618    0.5107   -7.7444 C   0  0  0  0  0  0  0  0  0  0  0  0
   -0.9157   -0.2442   -4.3988 C   0  0  0  0  0  0  0  0  0  0  0  0
   -0.2773   -1.1589   -4.8964 O   0  0  0  0  0  0  0  0  0  0  0  0
   -0.4573    0.7272   -3.4259 C   0  0  0  0  0  0  0  0  0  0  0  0
    2.0456    2.3684   -1.1320 C   0  0  0  0  0  0  0  0  0  0  0  0
    6.1596    3.0466   -0.7197 H   0  0  0  0  0  0  0  0  0  0  0  0
    4.6740    3.6092   -1.5074 H   0  0  0  0  0  0  0  0  0  0  0  0
    5.5979    2.2571   -2.2056 H   0  0  0  0  0  0  0  0  0  0  0  0
    6.2611    0.7621    0.4009 H   0  0  0  0  0  0  0  0  0  0  0  0
    5.6360   -0.0404   -1.0503 H   0  0  0  0  0  0  0  0  0  0  0  0
    4.8073   -0.2570    0.5103 H   0  0  0  0  0  0  0  0  0  0  0  0
    5.0830    2.5600    1.5199 H   0  0  0  0  0  0  0  0  0  0  0  0
    3.5167    1.7219    1.5910 H   0  0  0  0  0  0  0  0  0  0  0  0
    3.6388    3.3409    0.8554 H   0  0  0  0  0  0  0  0  0  0  0  0
    4.1421   -0.0310   -2.5394 H   0  0  0  0  0  0  0  0  0  0  0  0
    3.5843    1.5062   -3.2053 H   0  0  0  0  0  0  0  0  0  0  0  0
    1.8907   -0.9636   -2.5169 H   0  0  0  0  0  0  0  0  0  0  0  0
    2.1279   -0.2482   -4.0975 H   0  0  0  0  0  0  0  0  0  0  0  0
   -3.9611   -0.9319   -5.5082 H   0  0  0  0  0  0  0  0  0  0  0  0
   -2.4553   -1.8985   -5.6137 H   0  0  0  0  0  0  0  0  0  0  0  0
   -0.9021   -1.6041   -7.4927 H   0  0  0  0  0  0  0  0  0  0  0  0
   -0.5642   -0.8132   -9.8328 H   0  0  0  0  0  0  0  0  0  0  0  0
   -2.1423    0.8413  -10.8307 H   0  0  0  0  0  0  0  0  0  0  0  0
   -4.0633    1.6901   -9.4834 H   0  0  0  0  0  0  0  0  0  0  0  0
   -4.4019    0.8864   -7.1540 H   0  0  0  0  0  0  0  0  0  0  0  0
    1.7202    2.6262   -0.1124 H   0  0  0  0  0  0  0  0  0  0  0  0
    2.4629    3.2980   -1.5616 H   0  0  0  0  0  0  0  0  0  0  0  0
  2  1  1  6
  1 27  1  0
  1 28  1  0
  1 29  1  0
  2  3  1  0
  2  4  1  0
  2  5  1  0
  3 30  1  0
  3 31  1  0
  3 32  1  0
  4 33  1  0
  4 34  1  0
  4 35  1  0
  5  6  1  1
  5  7  1  0
  5 26  1  0
  7  8  1  0
  7 36  1  0
  7 37  1  0
  8  9  1  0
  8 38  1  0
  8 39  1  0
  9 10  2  0
  9 25  1  0
 10 11  1  0
 10 26  1  0
 11 12  2  0
 12 13  1  0
 12 25  1  0
 13 14  2  0
 14 15  1  0
 15 16  1  0
 15 23  1  0
 16 17  1  0
 16 40  1  0
 16 41  1  0
 17 18  2  0
 17 22  1  0
 18 19  1  0
 18 42  1  0
 19 20  2  0
 19 43  1  0
 20 21  1  0
 20 44  1  0
 21 22  2  0
 21 45  1  0
 22 46  1  0
 23 24  1  0
 23 25  2  0
 26 47  1  0
 26 48  1  0
M  CHG  2  11   1  24  -1
M  END

