
     RDKit          3D

 42 44  0  0  0  0  0  0  0  0999 V2000
    1.8370   -0.7532   -0.6807 O   0  0  0  0  0  0  0  0  0  0  0  0
    2.5786    0.1229   -0.2590 C   0  0  0  0  0  0  0  0  0  0  0  0
    2.8263    0.2413    1.2248 C   0  0  0  0  0  0  0  0  0  0  0  0
    4.1138    0.3728    1.7698 C   0  0  0  0  0  0  0  0  0  0  0  0
    4.2992    0.3643    3.1552 C   0  0  0  0  0  0  0  0  0  0  0  0
    3.1998    0.2342    4.0089 C   0  0  0  0  0  0  0  0  0  0  0  0
    1.9155    0.0906    3.4725 C   0  0  0  0  0  0  0  0  0  0  0  0
    1.7321    0.0784    2.0890 C   0  0  0  0  0  0  0  0  0  0  0  0
    3.2393    0.9914   -1.1054 N   0  0  0  0  0  0  0  0  0  0  0  0
    3.1345    0.7796   -2.5493 C   0  0  0  0  0  0  0  0  0  0  0  0
    2.3125    1.8880   -3.2121 C   0  0  0  0  0  0  0  0  0  0  0  0
    2.8370    3.2039   -2.8478 N   0  0  0  0  0  0  0  0  0  0  0  0
    3.4086    3.9852   -3.8128 C   0  0  0  0  0  0  0  0  0  0  0  0
    3.4558    3.6864   -4.9934 O   0  0  0  0  0  0  0  0  0  0  0  0
    3.8845    5.3720   -3.4057 C   0  0  0  0  0  0  0  0  0  0  0  0
    2.9351    6.4015   -3.3217 C   0  0  0  0  0  0  0  0  0  0  0  0
    3.3238    7.7306   -3.1377 C   0  0  0  0  0  0  0  0  0  0  0  0
    4.6792    8.0637   -3.0465 C   0  0  0  0  0  0  0  0  0  0  0  0
    5.6430    7.0607   -3.1341 C   0  0  0  0  0  0  0  0  0  0  0  0
    5.2358    5.7354   -3.3024 C   0  0  0  0  0  0  0  0  0  0  0  0
    6.2893    4.7009   -3.3305 N   0  0  0  0  0  0  0  0  0  0  0  0
    5.9575    3.5522   -3.0697 O   0  0  0  0  0  0  0  0  0  0  0  0
    7.4261    5.0541   -3.5856 O   0  0  0  0  0  0  0  0  0  0  0  0
    2.9587    3.4227   -1.4138 C   0  0  0  0  0  0  0  0  0  0  0  0
    3.7723    2.3007   -0.7435 C   0  0  0  0  0  0  0  0  0  0  0  0
    4.9793    0.4575    1.1081 H   0  0  0  0  0  0  0  0  0  0  0  0
    5.3071    0.4534    3.5685 H   0  0  0  0  0  0  0  0  0  0  0  0
    3.3449    0.2336    5.0923 H   0  0  0  0  0  0  0  0  0  0  0  0
    1.0548   -0.0243    4.1363 H   0  0  0  0  0  0  0  0  0  0  0  0
    0.7393   -0.0690    1.6586 H   0  0  0  0  0  0  0  0  0  0  0  0
    2.6631   -0.1967   -2.7136 H   0  0  0  0  0  0  0  0  0  0  0  0
    4.1508    0.7720   -2.9801 H   0  0  0  0  0  0  0  0  0  0  0  0
    1.2613    1.8170   -2.8806 H   0  0  0  0  0  0  0  0  0  0  0  0
    2.3478    1.8028   -4.3052 H   0  0  0  0  0  0  0  0  0  0  0  0
    1.8758    6.1513   -3.4173 H   0  0  0  0  0  0  0  0  0  0  0  0
    2.5627    8.5120   -3.0734 H   0  0  0  0  0  0  0  0  0  0  0  0
    4.9861    9.1025   -2.9070 H   0  0  0  0  0  0  0  0  0  0  0  0
    6.7090    7.2782   -3.0708 H   0  0  0  0  0  0  0  0  0  0  0  0
    1.9479    3.4530   -0.9655 H   0  0  0  0  0  0  0  0  0  0  0  0
    3.4383    4.3914   -1.2220 H   0  0  0  0  0  0  0  0  0  0  0  0
    3.7370    2.4356    0.3436 H   0  0  0  0  0  0  0  0  0  0  0  0
    4.8226    2.3780   -1.0725 H   0  0  0  0  0  0  0  0  0  0  0  0
  1  2  2  0
  2  3  1  0
  2  9  1  0
  3  4  2  0
  3  8  1  0
  4  5  1  0
  4 26  1  0
  5  6  2  0
  5 27  1  0
  6  7  1  0
  6 28  1  0
  7  8  2  0
  7 29  1  0
  8 30  1  0
  9 10  1  0
  9 25  1  0
 10 11  1  0
 10 31  1  0
 10 32  1  0
 11 12  1  0
 11 33  1  0
 11 34  1  0
 12 13  1  0
 12 24  1  0
 13 14  2  0
 13 15  1  0
 15 16  2  0
 15 20  1  0
 16 17  1  0
 16 35  1  0
 17 18  2  0
 17 36  1  0
 18 19  1  0
 18 37  1  0
 19 20  2  0
 19 38  1  0
 20 21  1  0
 21 22  2  0
 21 23  1  0
 24 25  1  0
 24 39  1  0
 24 40  1  0
 25 41  1  0
 25 42  1  0
M  CHG  2  21   1  23  -1
M  END

