
     RDKit          3D

 43 45  0  0  0  0  0  0  0  0999 V2000
    3.2574   -2.0109   -0.5733 O   0  0  0  0  0  0  0  0  0  0  0  0
    2.5510   -1.4440    0.2424 C   0  0  0  0  0  0  0  0  0  0  0  0
    1.0361   -1.6462    0.1923 C   0  0  0  0  0  0  0  0  0  0  0  0
    0.3901   -0.9454    1.2357 O   0  0  0  0  0  0  0  0  0  0  0  0
   -0.9681   -0.9889    1.3457 C   0  0  0  0  0  0  0  0  0  0  0  0
   -1.8039   -1.7179    0.4885 C   0  0  0  0  0  0  0  0  0  0  0  0
   -3.1897   -1.7011    0.6849 C   0  0  0  0  0  0  0  0  0  0  0  0
   -3.7394   -0.9613    1.7309 C   0  0  0  0  0  0  0  0  0  0  0  0
   -5.4723   -0.9429    1.9731 Cl  0  0  0  0  0  0  0  0  0  0  0  0
   -2.9091   -0.2311    2.5906 C   0  0  0  0  0  0  0  0  0  0  0  0
   -1.5313   -0.2464    2.3969 C   0  0  0  0  0  0  0  0  0  0  0  0
    2.9966   -0.6253    1.2293 N   0  0  0  0  0  0  0  0  0  0  0  0
    4.4033   -0.2793    1.3917 C   0  0  1  0  0  0  0  0  0  0  0  0
    4.6189    1.2010    1.0712 C   0  0  0  0  0  0  0  0  0  0  0  0
    4.4074    2.1982    2.0361 C   0  0  0  0  0  0  0  0  0  0  0  0
    4.5380    3.5494    1.7039 C   0  0  0  0  0  0  0  0  0  0  0  0
    4.8883    3.9229    0.4027 C   0  0  0  0  0  0  0  0  0  0  0  0
    5.1043    2.9371   -0.5646 C   0  0  0  0  0  0  0  0  0  0  0  0
    4.9674    1.5862   -0.2321 C   0  0  0  0  0  0  0  0  0  0  0  0
    4.9651   -0.7078    2.7489 C   0  0  0  0  0  0  0  0  0  0  0  0
    4.2027   -1.4189    3.6845 C   0  0  0  0  0  0  0  0  0  0  0  0
    4.7595   -1.8224    4.9042 C   0  0  0  0  0  0  0  0  0  0  0  0
    6.0902   -1.5262    5.2029 C   0  0  0  0  0  0  0  0  0  0  0  0
    6.8632   -0.8229    4.2717 C   0  0  0  0  0  0  0  0  0  0  0  0
    6.3048   -0.4170    3.0592 C   0  0  0  0  0  0  0  0  0  0  0  0
    0.8494   -2.7330    0.2567 H   0  0  0  0  0  0  0  0  0  0  0  0
    0.6891   -1.3050   -0.7998 H   0  0  0  0  0  0  0  0  0  0  0  0
   -1.3958   -2.3039   -0.3349 H   0  0  0  0  0  0  0  0  0  0  0  0
   -3.8428   -2.2678    0.0192 H   0  0  0  0  0  0  0  0  0  0  0  0
   -3.3465    0.3460    3.4070 H   0  0  0  0  0  0  0  0  0  0  0  0
   -0.8691    0.3172    3.0571 H   0  0  0  0  0  0  0  0  0  0  0  0
    2.2965   -0.1525    1.7915 H   0  0  0  0  0  0  0  0  0  0  0  0
    4.9168   -0.8689    0.6163 H   0  0  0  0  0  0  0  0  0  0  0  0
    4.1504    1.9155    3.0605 H   0  0  0  0  0  0  0  0  0  0  0  0
    4.3712    4.3144    2.4669 H   0  0  0  0  0  0  0  0  0  0  0  0
    4.9962    4.9795    0.1445 H   0  0  0  0  0  0  0  0  0  0  0  0
    5.3820    3.2199   -1.5834 H   0  0  0  0  0  0  0  0  0  0  0  0
    5.1281    0.8177   -0.9934 H   0  0  0  0  0  0  0  0  0  0  0  0
    3.1664   -1.6732    3.4545 H   0  0  0  0  0  0  0  0  0  0  0  0
    4.1462   -2.3755    5.6204 H   0  0  0  0  0  0  0  0  0  0  0  0
    6.5261   -1.8427    6.1538 H   0  0  0  0  0  0  0  0  0  0  0  0
    7.9082   -0.5895    4.4920 H   0  0  0  0  0  0  0  0  0  0  0  0
    6.9164    0.1362    2.3415 H   0  0  0  0  0  0  0  0  0  0  0  0
  1  2  2  0
  2  3  1  0
  2 12  1  0
  3  4  1  0
  3 26  1  0
  3 27  1  0
  4  5  1  0
  5  6  2  0
  5 11  1  0
  6  7  1  0
  6 28  1  0
  7  8  2  0
  7 29  1  0
  8  9  1  0
  8 10  1  0
 10 11  2  0
 10 30  1  0
 11 31  1  0
 12 13  1  0
 12 32  1  0
 13 14  1  0
 13 20  1  0
 13 33  1  6
 14 15  2  0
 14 19  1  0
 15 16  1  0
 15 34  1  0
 16 17  2  0
 16 35  1  0
 17 18  1  0
 17 36  1  0
 18 19  2  0
 18 37  1  0
 19 38  1  0
 20 21  2  0
 20 25  1  0
 21 22  1  0
 21 39  1  0
 22 23  2  0
 22 40  1  0
 23 24  1  0
 23 41  1  0
 24 25  2  0
 24 42  1  0
 25 43  1  0
M  END

