
     RDKit          3D

 38 40  0  0  0  0  0  0  0  0999 V2000
    2.0717    2.8082   -1.4001 C   0  0  0  0  0  0  0  0  0  0  0  0
    1.3798    1.4384   -1.4775 C   0  0  0  0  0  0  0  0  0  0  0  0
    2.0972    0.4251   -2.3264 C   0  0  0  0  0  0  0  0  0  0  0  0
    1.7409   -0.0650   -3.5609 C   0  0  0  0  0  0  0  0  0  0  0  0
    2.6790   -0.9946   -4.1047 C   0  0  0  0  0  0  0  0  0  0  0  0
    3.7601   -1.2144   -3.2868 C   0  0  0  0  0  0  0  0  0  0  0  0
    4.9094   -2.1675   -3.5039 C   0  0  0  0  0  0  0  0  0  0  0  0
    4.6361   -3.5399   -3.1122 N   0  0  0  0  0  0  0  0  0  0  0  0
    4.1598   -4.4610   -3.9953 C   0  0  0  0  0  0  0  0  0  0  0  0
    4.0196   -4.2347   -5.1996 O   0  0  0  0  0  0  0  0  0  0  0  0
    3.8390   -5.7828   -3.4180 C   0  0  0  0  0  0  0  0  0  0  0  0
    4.0188   -6.0728   -2.1202 N   0  0  0  0  0  0  0  0  0  0  0  0
    3.6632   -7.3407   -2.0042 N   0  0  0  0  0  0  0  0  0  0  0  0
    3.7127   -7.7989   -1.1017 H   0  0  0  0  0  0  0  0  0  0  0  0
    3.2523   -7.9221   -3.1833 C   0  0  0  0  0  0  0  0  0  0  0  0
    2.7696   -9.3177   -3.2813 C   0  0  1  0  0  0  0  0  0  0  0  0
    3.4924  -10.3204   -4.1602 C   0  0  0  0  0  0  0  0  0  0  0  0
    3.5575  -10.4552   -2.6645 C   0  0  0  0  0  0  0  0  0  0  0  0
    3.3458   -6.9096   -4.1416 C   0  0  0  0  0  0  0  0  0  0  0  0
    2.9897   -6.9381   -5.4736 N   0  0  0  0  0  0  0  0  0  0  0  0
    3.6188   -0.2712   -1.8252 S   0  0  0  0  0  0  0  0  0  0  0  0
    1.4933    3.5049   -0.7721 H   0  0  0  0  0  0  0  0  0  0  0  0
    2.1769    3.2548   -2.4014 H   0  0  0  0  0  0  0  0  0  0  0  0
    3.0811    2.7220   -0.9670 H   0  0  0  0  0  0  0  0  0  0  0  0
    0.3657    1.5595   -1.8932 H   0  0  0  0  0  0  0  0  0  0  0  0
    1.2441    1.0417   -0.4556 H   0  0  0  0  0  0  0  0  0  0  0  0
    0.8226    0.2383   -4.0685 H   0  0  0  0  0  0  0  0  0  0  0  0
    2.5632   -1.5015   -5.0645 H   0  0  0  0  0  0  0  0  0  0  0  0
    5.8060   -1.8160   -2.9686 H   0  0  0  0  0  0  0  0  0  0  0  0
    5.1466   -2.1905   -4.5767 H   0  0  0  0  0  0  0  0  0  0  0  0
    4.6290   -3.7997   -2.1310 H   0  0  0  0  0  0  0  0  0  0  0  0
    1.6779   -9.4367   -3.2524 H   0  0  0  0  0  0  0  0  0  0  0  0
    4.3951   -9.9835   -4.6776 H   0  0  0  0  0  0  0  0  0  0  0  0
    2.8859  -11.0365   -4.7210 H   0  0  0  0  0  0  0  0  0  0  0  0
    4.5068  -10.2170   -2.1761 H   0  0  0  0  0  0  0  0  0  0  0  0
    2.9971  -11.2644   -2.1890 H   0  0  0  0  0  0  0  0  0  0  0  0
    3.0702   -7.8320   -5.9441 H   0  0  0  0  0  0  0  0  0  0  0  0
    3.3375   -6.1358   -5.9944 H   0  0  0  0  0  0  0  0  0  0  0  0
  1  2  1  0
  1 22  1  0
  1 23  1  0
  1 24  1  0
  2  3  1  0
  2 25  1  0
  2 26  1  0
  3  4  2  0
  3 21  1  0
  4  5  1  0
  4 27  1  0
  5  6  2  0
  5 28  1  0
  6  7  1  0
  6 21  1  0
  7  8  1  0
  7 29  1  0
  7 30  1  0
  8  9  1  0
  8 31  1  0
  9 10  2  0
  9 11  1  0
 11 12  2  0
 11 19  1  0
 12 13  1  0
 13 14  1  0
 13 15  1  0
 15 16  1  0
 15 19  2  0
 16 17  1  0
 16 18  1  0
 16 32  1  6
 17 18  1  0
 17 33  1  0
 17 34  1  0
 18 35  1  0
 18 36  1  0
 19 20  1  0
 20 37  1  0
 20 38  1  0
M  END

