
     RDKit          3D

 66 69  0  0  0  0  0  0  0  0999 V2000
   -0.8670   -1.7589   -0.9761 C   0  0  0  0  0  0  0  0  0  0  0  0
    0.2274   -2.5817   -1.6731 C   0  0  1  0  0  0  0  0  0  0  0  0
    0.2543   -2.3624   -3.2018 C   0  0  0  0  0  0  0  0  0  0  0  0
    0.8798   -1.0098   -3.5868 C   0  0  0  0  0  0  0  0  0  0  0  0
    2.2115   -0.8039   -3.0220 N   0  0  0  0  0  0  0  0  0  0  0  0
    3.3218   -1.4263   -3.7311 C   0  0  0  0  0  0  0  0  0  0  0  0
    4.3308   -0.4912   -4.4550 C   0  0  1  0  0  0  0  0  0  0  0  0
    5.3298   -1.3639   -4.9999 O   0  0  0  0  0  0  0  0  0  0  0  0
    3.7076    0.3404   -5.5984 C   0  0  0  0  0  0  0  0  0  0  0  0
    3.0031    1.6345   -5.1442 C   0  0  0  0  0  0  0  0  0  0  0  0
    3.8145    2.4560   -4.2628 N   0  0  0  0  0  0  0  0  0  0  0  0
    4.5781    3.5700   -4.7928 C   0  0  0  0  0  0  0  0  0  0  0  0
    5.9394    3.3028   -5.4424 C   0  0  0  0  0  0  0  0  0  0  0  0
    7.1087    3.3937   -4.6817 C   0  0  0  0  0  0  0  0  0  0  0  0
    8.3638    3.1442   -5.2464 C   0  0  0  0  0  0  0  0  0  0  0  0
    9.9323    3.2738   -4.1636 Br  0  0  0  0  0  0  0  0  0  0  0  0
    8.4745    2.8085   -6.5924 C   0  0  0  0  0  0  0  0  0  0  0  0
    7.3187    2.7309   -7.3776 C   0  0  0  0  0  0  0  0  0  0  0  0
    6.0593    2.9782   -6.8142 C   0  0  0  0  0  0  0  0  0  0  0  0
    4.8950    2.9285   -7.5243 O   0  0  0  0  0  0  0  0  0  0  0  0
    4.9321    2.6617   -8.9170 C   0  0  0  0  0  0  0  0  0  0  0  0
    3.5349    2.7471   -9.4805 C   0  0  0  0  0  0  0  0  0  0  0  0
    2.7132    3.8482   -9.1922 C   0  0  0  0  0  0  0  0  0  0  0  0
    1.4328    3.9501   -9.7358 C   0  0  0  0  0  0  0  0  0  0  0  0
    0.9658    2.9421  -10.5866 C   0  0  0  0  0  0  0  0  0  0  0  0
   -0.6368    3.0654  -11.2747 Cl  0  0  0  0  0  0  0  0  0  0  0  0
    1.7656    1.8381  -10.8887 C   0  0  0  0  0  0  0  0  0  0  0  0
    3.0427    1.7468  -10.3283 C   0  0  0  0  0  0  0  0  0  0  0  0
    4.3336    1.7214   -3.1218 C   0  0  0  0  0  0  0  0  0  0  0  0
    5.1015    0.4401   -3.5010 C   0  0  0  0  0  0  0  0  0  0  0  0
    2.2042   -0.9576   -1.5685 C   0  0  0  0  0  0  0  0  0  0  0  0
    1.6349   -2.3080   -1.0989 C   0  0  0  0  0  0  0  0  0  0  0  0
   -1.8621   -2.0052   -1.3813 H   0  0  0  0  0  0  0  0  0  0  0  0
   -0.7253   -0.6730   -1.0956 H   0  0  0  0  0  0  0  0  0  0  0  0
   -0.8867   -1.9685    0.1059 H   0  0  0  0  0  0  0  0  0  0  0  0
   -0.0090   -3.6452   -1.4907 H   0  0  0  0  0  0  0  0  0  0  0  0
   -0.7650   -2.4377   -3.6198 H   0  0  0  0  0  0  0  0  0  0  0  0
    0.8429   -3.1724   -3.6688 H   0  0  0  0  0  0  0  0  0  0  0  0
    0.2261   -0.1865   -3.2442 H   0  0  0  0  0  0  0  0  0  0  0  0
    0.9332   -0.9132   -4.6823 H   0  0  0  0  0  0  0  0  0  0  0  0
    2.9405   -2.1293   -4.4990 H   0  0  0  0  0  0  0  0  0  0  0  0
    3.9289   -2.0448   -3.0470 H   0  0  0  0  0  0  0  0  0  0  0  0
    4.8974   -1.9440   -5.6422 H   0  0  0  0  0  0  0  0  0  0  0  0
    3.0060   -0.2868   -6.1803 H   0  0  0  0  0  0  0  0  0  0  0  0
    4.5346    0.6038   -6.2758 H   0  0  0  0  0  0  0  0  0  0  0  0
    2.0710    1.3722   -4.6143 H   0  0  0  0  0  0  0  0  0  0  0  0
    2.7221    2.2259   -6.0277 H   0  0  0  0  0  0  0  0  0  0  0  0
    4.7546    4.2792   -3.9647 H   0  0  0  0  0  0  0  0  0  0  0  0
    3.9409    4.0917   -5.5228 H   0  0  0  0  0  0  0  0  0  0  0  0
    7.0382    3.6709   -3.6275 H   0  0  0  0  0  0  0  0  0  0  0  0
    9.4513    2.6118   -7.0370 H   0  0  0  0  0  0  0  0  0  0  0  0
    7.4219    2.4739   -8.4316 H   0  0  0  0  0  0  0  0  0  0  0  0
    5.3587    1.6605   -9.1080 H   0  0  0  0  0  0  0  0  0  0  0  0
    5.5893    3.4006   -9.4161 H   0  0  0  0  0  0  0  0  0  0  0  0
    3.0786    4.6336   -8.5268 H   0  0  0  0  0  0  0  0  0  0  0  0
    0.7946    4.8054   -9.5077 H   0  0  0  0  0  0  0  0  0  0  0  0
    1.3869    1.0561  -11.5487 H   0  0  0  0  0  0  0  0  0  0  0  0
    3.6628    0.8756  -10.5579 H   0  0  0  0  0  0  0  0  0  0  0  0
    3.4867    1.4543   -2.4668 H   0  0  0  0  0  0  0  0  0  0  0  0
    4.9911    2.3842   -2.5359 H   0  0  0  0  0  0  0  0  0  0  0  0
    5.3929   -0.1171   -2.5940 H   0  0  0  0  0  0  0  0  0  0  0  0
    6.0359    0.7076   -4.0183 H   0  0  0  0  0  0  0  0  0  0  0  0
    1.6092   -0.1320   -1.1361 H   0  0  0  0  0  0  0  0  0  0  0  0
    3.2280   -0.8223   -1.1874 H   0  0  0  0  0  0  0  0  0  0  0  0
    1.6142   -2.3443    0.0045 H   0  0  0  0  0  0  0  0  0  0  0  0
    2.3179   -3.1130   -1.4243 H   0  0  0  0  0  0  0  0  0  0  0  0
  1  2  1  0
  1 33  1  0
  1 34  1  0
  1 35  1  0
  2  3  1  0
  2 32  1  0
  2 36  1  6
  3  4  1  0
  3 37  1  0
  3 38  1  0
  4  5  1  0
  4 39  1  0
  4 40  1  0
  5  6  1  0
  5 31  1  0
  6  7  1  0
  6 41  1  0
  6 42  1  0
  7  8  1  6
  7  9  1  0
  7 30  1  0
  8 43  1  0
  9 10  1  0
  9 44  1  0
  9 45  1  0
 10 11  1  0
 10 46  1  0
 10 47  1  0
 11 12  1  0
 11 29  1  0
 12 13  1  0
 12 48  1  0
 12 49  1  0
 13 14  2  0
 13 19  1  0
 14 15  1  0
 14 50  1  0
 15 16  1  0
 15 17  2  0
 17 18  1  0
 17 51  1  0
 18 19  2  0
 18 52  1  0
 19 20  1  0
 20 21  1  0
 21 22  1  0
 21 53  1  0
 21 54  1  0
 22 23  2  0
 22 28  1  0
 23 24  1  0
 23 55  1  0
 24 25  2  0
 24 56  1  0
 25 26  1  0
 25 27  1  0
 27 28  2  0
 27 57  1  0
 28 58  1  0
 29 30  1  0
 29 59  1  0
 29 60  1  0
 30 61  1  0
 30 62  1  0
 31 32  1  0
 31 63  1  0
 31 64  1  0
 32 65  1  0
 32 66  1  0
M  END

