
     RDKit          3D

 34 35  0  0  0  0  0  0  0  0999 V2000
    5.9312    0.2835    0.8584 O   0  0  0  0  0  0  0  0  0  0  0  0
    5.0374   -0.2582    1.4620 C   0  0  0  0  0  0  0  0  0  0  0  0
    3.9676    0.4603    1.8592 O   0  0  0  0  0  0  0  0  0  0  0  0
    5.0140   -1.7495    1.7606 C   0  0  0  0  0  0  0  0  0  0  0  0
    4.5111   -2.5963    0.5691 C   0  0  0  0  0  0  0  0  0  0  0  0
    5.1932   -2.2764   -0.7742 C   0  0  0  0  0  0  0  0  0  0  0  0
    6.6371   -2.1679   -0.7045 N   0  0  0  0  0  0  0  0  0  0  0  0
    7.4215   -3.2974   -0.7004 C   0  0  0  0  0  0  0  0  0  0  0  0
    6.9546   -4.4201   -0.8452 O   0  0  0  0  0  0  0  0  0  0  0  0
    8.7808   -3.0558   -0.5384 N   0  0  0  0  0  0  0  0  0  0  0  0
    9.3734   -1.7078   -0.4388 C   0  0  0  0  0  0  0  0  0  0  0  0
   10.8980   -1.9363   -0.2890 C   0  0  0  0  0  0  0  0  0  0  0  0
   11.0398   -3.4347   -0.3531 C   0  0  0  0  0  0  0  0  0  0  0  0
   12.1807   -4.2250   -0.2872 C   0  0  0  0  0  0  0  0  0  0  0  0
   13.7465   -3.4575   -0.1016 Cl  0  0  0  0  0  0  0  0  0  0  0  0
   12.0875   -5.6207   -0.3677 C   0  0  0  0  0  0  0  0  0  0  0  0
   10.8262   -6.2033   -0.5165 C   0  0  0  0  0  0  0  0  0  0  0  0
    9.6555   -5.4371   -0.5867 C   0  0  0  0  0  0  0  0  0  0  0  0
    9.7808   -4.0452   -0.5008 C   0  0  0  0  0  0  0  0  0  0  0  0
    3.3418   -0.1006    2.3388 H   0  0  0  0  0  0  0  0  0  0  0  0
    4.4060   -1.9676    2.6546 H   0  0  0  0  0  0  0  0  0  0  0  0
    6.0487   -2.0375    1.9962 H   0  0  0  0  0  0  0  0  0  0  0  0
    3.4215   -2.4687    0.4455 H   0  0  0  0  0  0  0  0  0  0  0  0
    4.6838   -3.6553    0.8158 H   0  0  0  0  0  0  0  0  0  0  0  0
    4.8112   -1.3260   -1.1782 H   0  0  0  0  0  0  0  0  0  0  0  0
    4.9395   -3.0689   -1.4925 H   0  0  0  0  0  0  0  0  0  0  0  0
    6.9908   -1.2777   -0.3686 H   0  0  0  0  0  0  0  0  0  0  0  0
    8.9583   -1.1649    0.4274 H   0  0  0  0  0  0  0  0  0  0  0  0
    9.1309   -1.1215   -1.3407 H   0  0  0  0  0  0  0  0  0  0  0  0
   11.2832   -1.5345    0.6622 H   0  0  0  0  0  0  0  0  0  0  0  0
   11.4693   -1.4401   -1.0897 H   0  0  0  0  0  0  0  0  0  0  0  0
   12.9912   -6.2290   -0.3154 H   0  0  0  0  0  0  0  0  0  0  0  0
   10.7502   -7.2918   -0.5822 H   0  0  0  0  0  0  0  0  0  0  0  0
    8.6749   -5.8897   -0.7080 H   0  0  0  0  0  0  0  0  0  0  0  0
  1  2  2  0
  2  3  1  0
  2  4  1  0
  3 20  1  0
  4  5  1  0
  4 21  1  0
  4 22  1  0
  5  6  1  0
  5 23  1  0
  5 24  1  0
  6  7  1  0
  6 25  1  0
  6 26  1  0
  7  8  1  0
  7 27  1  0
  8  9  2  0
  8 10  1  0
 10 11  1  0
 10 19  1  0
 11 12  1  0
 11 28  1  0
 11 29  1  0
 12 13  1  0
 12 30  1  0
 12 31  1  0
 13 14  2  0
 13 19  1  0
 14 15  1  0
 14 16  1  0
 16 17  2  0
 16 32  1  0
 17 18  1  0
 17 33  1  0
 18 19  2  0
 18 34  1  0
M  END

