
     RDKit          3D

 36 37  0  0  0  0  0  0  0  0999 V2000
    0.7621   -0.0384   -1.6926 C   0  0  0  0  0  0  0  0  0  0  0  0
    2.2271   -0.4209   -1.6083 C   0  0  0  0  0  0  0  0  0  0  0  0
    2.9679    0.4936   -2.4024 O   0  0  0  0  0  0  0  0  0  0  0  0
    4.3142    0.3691   -2.4995 C   0  0  0  0  0  0  0  0  0  0  0  0
    4.9657    1.3133   -3.3156 C   0  0  0  0  0  0  0  0  0  0  0  0
    6.3459    1.2709   -3.4824 C   0  0  0  0  0  0  0  0  0  0  0  0
    7.0959    0.2829   -2.8322 C   0  0  0  0  0  0  0  0  0  0  0  0
    8.4603    0.1922   -3.0565 O   0  0  0  0  0  0  0  0  0  0  0  0
    9.3679    0.8882   -2.2836 C   0  0  0  0  0  0  0  0  0  0  0  0
    8.9351    1.6851   -1.2213 C   0  0  0  0  0  0  0  0  0  0  0  0
    9.8584    2.3939   -0.4289 C   0  0  0  0  0  0  0  0  0  0  0  0
    9.4279    3.1454    0.6453 N   0  0  0  0  0  0  0  0  0  0  0  0
   11.2310    2.2814   -0.7337 C   0  0  0  0  0  0  0  0  0  0  0  0
   11.6390    1.4851   -1.7926 C   0  0  0  0  0  0  0  0  0  0  0  0
   10.7409    0.7659   -2.6008 C   0  0  0  0  0  0  0  0  0  0  0  0
   11.3646   -0.0458   -3.7092 C   0  0  0  0  0  0  0  0  0  0  0  0
   10.5333   -0.7612   -4.5157 N   0  0  0  0  0  0  0  0  0  0  0  0
   12.5787   -0.0553   -3.8707 O   0  0  0  0  0  0  0  0  0  0  0  0
    6.4619   -0.6584   -2.0245 C   0  0  0  0  0  0  0  0  0  0  0  0
    5.0726   -0.6209   -1.8539 C   0  0  0  0  0  0  0  0  0  0  0  0
    0.1534   -0.7281   -1.0876 H   0  0  0  0  0  0  0  0  0  0  0  0
    0.4082   -0.0826   -2.7339 H   0  0  0  0  0  0  0  0  0  0  0  0
    0.6051    0.9849   -1.3190 H   0  0  0  0  0  0  0  0  0  0  0  0
    2.3847   -1.4530   -1.9750 H   0  0  0  0  0  0  0  0  0  0  0  0
    2.5822   -0.3851   -0.5607 H   0  0  0  0  0  0  0  0  0  0  0  0
    4.3591    2.0710   -3.8156 H   0  0  0  0  0  0  0  0  0  0  0  0
    6.8548    1.9967   -4.1201 H   0  0  0  0  0  0  0  0  0  0  0  0
    7.8697    1.7547   -0.9992 H   0  0  0  0  0  0  0  0  0  0  0  0
    8.4547    3.4228    0.6694 H   0  0  0  0  0  0  0  0  0  0  0  0
   10.0686    3.8341    1.0193 H   0  0  0  0  0  0  0  0  0  0  0  0
   11.9677    2.8203   -0.1322 H   0  0  0  0  0  0  0  0  0  0  0  0
   12.6967    1.3871   -2.0447 H   0  0  0  0  0  0  0  0  0  0  0  0
    9.5309   -0.7540   -4.3825 H   0  0  0  0  0  0  0  0  0  0  0  0
   10.9635   -1.3015   -5.2555 H   0  0  0  0  0  0  0  0  0  0  0  0
    7.0596   -1.4273   -1.5305 H   0  0  0  0  0  0  0  0  0  0  0  0
    4.5976   -1.3698   -1.2206 H   0  0  0  0  0  0  0  0  0  0  0  0
  1  2  1  0
  1 21  1  0
  1 22  1  0
  1 23  1  0
  2  3  1  0
  2 24  1  0
  2 25  1  0
  3  4  1  0
  4  5  2  0
  4 20  1  0
  5  6  1  0
  5 26  1  0
  6  7  2  0
  6 27  1  0
  7  8  1  0
  7 19  1  0
  8  9  1  0
  9 10  2  0
  9 15  1  0
 10 11  1  0
 10 28  1  0
 11 12  1  0
 11 13  2  0
 12 29  1  0
 12 30  1  0
 13 14  1  0
 13 31  1  0
 14 15  2  0
 14 32  1  0
 15 16  1  0
 16 17  1  0
 16 18  2  0
 17 33  1  0
 17 34  1  0
 19 20  2  0
 19 35  1  0
 20 36  1  0
M  END

