
     RDKit          3D

 37 37  0  0  0  0  0  0  0  0999 V2000
    8.1058   -0.6836   -2.2956 C   0  0  0  0  0  0  0  0  0  0  0  0
    7.9737    0.8296   -2.3450 C   0  0  0  0  0  0  0  0  0  0  0  0
    8.2082    1.4266   -1.0564 O   0  0  0  0  0  0  0  0  0  0  0  0
    7.1622    1.5237   -0.2130 C   0  0  0  0  0  0  0  0  0  0  0  0
    6.0479    1.1396   -0.4771 O   0  0  0  0  0  0  0  0  0  0  0  0
    7.5732    2.1915    1.0837 C   0  0  0  0  0  0  0  0  0  0  0  0
    6.4622    2.1693    2.1416 C   0  0  0  0  0  0  0  0  0  0  0  0
    6.7982    2.9574    3.3986 C   0  0  0  0  0  0  0  0  0  0  0  0
    6.3618    4.2876    3.4327 C   0  0  0  0  0  0  0  0  0  0  0  0
    6.6033    5.1309    4.5136 C   0  0  0  0  0  0  0  0  0  0  0  0
    7.2898    4.6411    5.6275 C   0  0  0  0  0  0  0  0  0  0  0  0
    7.5653    5.3900    6.7285 O   0  0  0  0  0  0  0  0  0  0  0  0
    7.1222    6.7266    6.7905 C   0  0  0  0  0  0  0  0  0  0  0  0
    7.7357    3.2989    5.6627 C   0  0  0  0  0  0  0  0  0  0  0  0
    8.4312    2.8357    6.9239 C   0  0  0  0  0  0  0  0  0  0  0  0
    7.5149    2.4824    4.5287 C   0  0  0  0  0  0  0  0  0  0  0  0
    8.0557    1.0626    4.6056 C   0  0  1  0  0  0  0  0  0  0  0  0
    8.0280    0.3967    3.4369 F   0  0  0  0  0  0  0  0  0  0  0  0
    9.3436    1.0405    5.0045 F   0  0  0  0  0  0  0  0  0  0  0  0
    7.3604    0.3090    5.4849 F   0  0  0  0  0  0  0  0  0  0  0  0
    8.0008   -1.1031   -3.3092 H   0  0  0  0  0  0  0  0  0  0  0  0
    7.3218   -1.1231   -1.6613 H   0  0  0  0  0  0  0  0  0  0  0  0
    9.0898   -0.9804   -1.9004 H   0  0  0  0  0  0  0  0  0  0  0  0
    6.9750    1.1248   -2.6999 H   0  0  0  0  0  0  0  0  0  0  0  0
    8.7349    1.2748   -3.0024 H   0  0  0  0  0  0  0  0  0  0  0  0
    7.8628    3.2291    0.8406 H   0  0  0  0  0  0  0  0  0  0  0  0
    8.4921    1.7050    1.4432 H   0  0  0  0  0  0  0  0  0  0  0  0
    6.1956    1.1296    2.3657 H   0  0  0  0  0  0  0  0  0  0  0  0
    5.5619    2.6157    1.6941 H   0  0  0  0  0  0  0  0  0  0  0  0
    5.8034    4.6773    2.5774 H   0  0  0  0  0  0  0  0  0  0  0  0
    6.2441    6.1592    4.4809 H   0  0  0  0  0  0  0  0  0  0  0  0
    7.4468    7.1180    7.7639 H   0  0  0  0  0  0  0  0  0  0  0  0
    6.0215    6.7993    6.7249 H   0  0  0  0  0  0  0  0  0  0  0  0
    7.5673    7.3453    5.9906 H   0  0  0  0  0  0  0  0  0  0  0  0
    8.0294    3.3796    7.7882 H   0  0  0  0  0  0  0  0  0  0  0  0
    9.5118    3.0530    6.8815 H   0  0  0  0  0  0  0  0  0  0  0  0
    8.3143    1.7619    7.1020 H   0  0  0  0  0  0  0  0  0  0  0  0
  1  2  1  0
  1 21  1  0
  1 22  1  0
  1 23  1  0
  2  3  1  0
  2 24  1  0
  2 25  1  0
  3  4  1  0
  4  5  2  0
  4  6  1  0
  6  7  1  0
  6 26  1  0
  6 27  1  0
  7  8  1  0
  7 28  1  0
  7 29  1  0
  8  9  2  0
  8 16  1  0
  9 10  1  0
  9 30  1  0
 10 11  2  0
 10 31  1  0
 11 12  1  0
 11 14  1  0
 12 13  1  0
 13 32  1  0
 13 33  1  0
 13 34  1  0
 14 15  1  0
 14 16  2  0
 15 35  1  0
 15 36  1  0
 15 37  1  0
 16 17  1  0
 17 18  1  6
 17 19  1  0
 17 20  1  0
M  END

