
     RDKit          3D

 74 78  0  0  0  0  0  0  0  0999 V2000
    4.8633   -0.3440   -0.2294 C   0  0  0  0  0  0  0  0  0  0  0  0
    4.7683    0.7180    0.8672 C   0  0  0  0  0  0  0  0  0  0  0  0
    3.5100    1.5845    0.7643 C   0  0  0  0  0  0  0  0  0  0  0  0
    3.3831    2.6694    1.8532 C   0  0  0  0  0  0  0  0  0  0  0  0
    4.4328    3.7586    1.7905 C   0  0  0  0  0  0  0  0  0  0  0  0
    4.3601    4.7879    0.8397 C   0  0  0  0  0  0  0  0  0  0  0  0
    5.3308    5.7843    0.7466 C   0  0  0  0  0  0  0  0  0  0  0  0
    6.4443    5.8007    1.6140 C   0  0  0  0  0  0  0  0  0  0  0  0
    7.4450    6.8067    1.5191 N   0  0  0  0  0  0  0  0  0  0  0  0
    7.2064    7.9967    0.7692 C   0  0  0  0  0  0  0  0  0  0  0  0
    7.1156    8.0100   -0.6230 C   0  0  0  0  0  0  0  0  0  0  0  0
    6.7700    9.1802   -1.3056 C   0  0  0  0  0  0  0  0  0  0  0  0
    6.5289   10.3675   -0.6018 C   0  0  0  0  0  0  0  0  0  0  0  0
    6.1107   11.6313   -1.3151 C   0  0  0  0  0  0  0  0  0  0  0  0
    6.6893   10.3697    0.7930 C   0  0  0  0  0  0  0  0  0  0  0  0
    7.0511    9.2057    1.4868 C   0  0  0  0  0  0  0  0  0  0  0  0
    7.3207    9.1839    2.8729 N   0  0  0  0  0  0  0  0  0  0  0  0
    7.0171   10.3300    3.6796 C   0  0  0  0  0  0  0  0  0  0  0  0
    5.8351   10.3498    4.4304 C   0  0  0  0  0  0  0  0  0  0  0  0
    5.5206   11.4584    5.2178 C   0  0  0  0  0  0  0  0  0  0  0  0
    6.3727   12.5740    5.2804 C   0  0  0  0  0  0  0  0  0  0  0  0
    6.0270   13.7605    6.1557 C   0  0  0  0  0  0  0  0  0  0  0  0
    6.2628   13.5352    7.6633 C   0  0  0  0  0  0  0  0  0  0  0  0
    7.7300   13.3541    8.0630 C   0  0  0  0  0  0  0  0  0  0  0  0
    7.9241   13.1436    9.5654 C   0  0  0  0  0  0  0  0  0  0  0  0
    7.5533   12.5410    4.5210 C   0  0  0  0  0  0  0  0  0  0  0  0
    7.8758   11.4358    3.7292 C   0  0  0  0  0  0  0  0  0  0  0  0
    8.2283    8.2099    3.3436 C   0  0  0  0  0  0  0  0  0  0  0  0
    9.0277    8.3913    4.4816 C   0  0  0  0  0  0  0  0  0  0  0  0
    9.9900    7.4401    4.8566 C   0  0  0  0  0  0  0  0  0  0  0  0
   10.8149    7.6528    6.1037 C   0  0  0  0  0  0  0  0  0  0  0  0
   10.1675    6.3080    4.0507 C   0  0  0  0  0  0  0  0  0  0  0  0
    9.3653    6.1085    2.9230 C   0  0  0  0  0  0  0  0  0  0  0  0
    8.3620    7.0194    2.5911 C   0  0  0  0  0  0  0  0  0  0  0  0
    6.5124    4.7804    2.5847 C   0  0  0  0  0  0  0  0  0  0  0  0
    5.5302    3.7911    2.6610 C   0  0  0  0  0  0  0  0  0  0  0  0
    5.7752   -0.9539   -0.1250 H   0  0  0  0  0  0  0  0  0  0  0  0
    4.8855    0.1166   -1.2315 H   0  0  0  0  0  0  0  0  0  0  0  0
    3.9998   -1.0302   -0.2030 H   0  0  0  0  0  0  0  0  0  0  0  0
    5.6620    1.3647    0.8330 H   0  0  0  0  0  0  0  0  0  0  0  0
    4.7889    0.2278    1.8584 H   0  0  0  0  0  0  0  0  0  0  0  0
    2.6179    0.9332    0.8116 H   0  0  0  0  0  0  0  0  0  0  0  0
    3.4799    2.0670   -0.2300 H   0  0  0  0  0  0  0  0  0  0  0  0
    3.4170    2.1869    2.8455 H   0  0  0  0  0  0  0  0  0  0  0  0
    2.3824    3.1278    1.7692 H   0  0  0  0  0  0  0  0  0  0  0  0
    3.5111    4.8243    0.1493 H   0  0  0  0  0  0  0  0  0  0  0  0
    5.2065    6.5652   -0.0012 H   0  0  0  0  0  0  0  0  0  0  0  0
    7.2911    7.0810   -1.1690 H   0  0  0  0  0  0  0  0  0  0  0  0
    6.6807    9.1646   -2.3948 H   0  0  0  0  0  0  0  0  0  0  0  0
    6.2165   11.5329   -2.4057 H   0  0  0  0  0  0  0  0  0  0  0  0
    6.7122   12.4967   -0.9929 H   0  0  0  0  0  0  0  0  0  0  0  0
    5.0555   11.8774   -1.1042 H   0  0  0  0  0  0  0  0  0  0  0  0
    6.5367   11.2974    1.3461 H   0  0  0  0  0  0  0  0  0  0  0  0
    5.1651    9.4886    4.3842 H   0  0  0  0  0  0  0  0  0  0  0  0
    4.5889   11.4591    5.7913 H   0  0  0  0  0  0  0  0  0  0  0  0
    4.9649   14.0175    6.0040 H   0  0  0  0  0  0  0  0  0  0  0  0
    6.6082   14.6386    5.8268 H   0  0  0  0  0  0  0  0  0  0  0  0
    5.6819   12.6546    7.9931 H   0  0  0  0  0  0  0  0  0  0  0  0
    5.8421   14.3970    8.2121 H   0  0  0  0  0  0  0  0  0  0  0  0
    8.3052   14.2402    7.7368 H   0  0  0  0  0  0  0  0  0  0  0  0
    8.1586   12.4980    7.5132 H   0  0  0  0  0  0  0  0  0  0  0  0
    7.5378   13.9988   10.1454 H   0  0  0  0  0  0  0  0  0  0  0  0
    8.9885   13.0219    9.8223 H   0  0  0  0  0  0  0  0  0  0  0  0
    7.3930   12.2425    9.9154 H   0  0  0  0  0  0  0  0  0  0  0  0
    8.2318   13.3983    4.5456 H   0  0  0  0  0  0  0  0  0  0  0  0
    8.7972   11.4272    3.1425 H   0  0  0  0  0  0  0  0  0  0  0  0
    8.9057    9.2927    5.0836 H   0  0  0  0  0  0  0  0  0  0  0  0
   11.2381    8.6698    6.1413 H   0  0  0  0  0  0  0  0  0  0  0  0
   11.6484    6.9373    6.1629 H   0  0  0  0  0  0  0  0  0  0  0  0
   10.2024    7.5260    7.0132 H   0  0  0  0  0  0  0  0  0  0  0  0
   10.9324    5.5707    4.3074 H   0  0  0  0  0  0  0  0  0  0  0  0
    9.4945    5.2206    2.3012 H   0  0  0  0  0  0  0  0  0  0  0  0
    7.3308    4.7578    3.3016 H   0  0  0  0  0  0  0  0  0  0  0  0
    5.6246    3.0235    3.4353 H   0  0  0  0  0  0  0  0  0  0  0  0
  1  2  1  0
  1 37  1  0
  1 38  1  0
  1 39  1  0
  2  3  1  0
  2 40  1  0
  2 41  1  0
  3  4  1  0
  3 42  1  0
  3 43  1  0
  4  5  1  0
  4 44  1  0
  4 45  1  0
  5  6  2  0
  5 36  1  0
  6  7  1  0
  6 46  1  0
  7  8  2  0
  7 47  1  0
  8  9  1  0
  8 35  1  0
  9 10  1  0
  9 34  1  0
 10 11  2  0
 10 16  1  0
 11 12  1  0
 11 48  1  0
 12 13  2  0
 12 49  1  0
 13 14  1  0
 13 15  1  0
 14 50  1  0
 14 51  1  0
 14 52  1  0
 15 16  2  0
 15 53  1  0
 16 17  1  0
 17 18  1  0
 17 28  1  0
 18 19  2  0
 18 27  1  0
 19 20  1  0
 19 54  1  0
 20 21  2  0
 20 55  1  0
 21 22  1  0
 21 26  1  0
 22 23  1  0
 22 56  1  0
 22 57  1  0
 23 24  1  0
 23 58  1  0
 23 59  1  0
 24 25  1  0
 24 60  1  0
 24 61  1  0
 25 62  1  0
 25 63  1  0
 25 64  1  0
 26 27  2  0
 26 65  1  0
 27 66  1  0
 28 29  1  0
 28 34  2  0
 29 30  2  0
 29 67  1  0
 30 31  1  0
 30 32  1  0
 31 68  1  0
 31 69  1  0
 31 70  1  0
 32 33  2  0
 32 71  1  0
 33 34  1  0
 33 72  1  0
 35 36  2  0
 35 73  1  0
 36 74  1  0
M  END

