
     RDKit          3D

 61 66  0  0  0  0  0  0  0  0999 V2000
    1.2810   -0.0834    1.0115 C   0  0  0  0  0  0  0  0  0  0  0  0
    2.6955   -0.0627    0.4821 C   0  0  0  0  0  0  0  0  0  0  0  0
    3.3236    1.1582    0.2018 C   0  0  0  0  0  0  0  0  0  0  0  0
    4.6324    1.2159   -0.2977 C   0  0  0  0  0  0  0  0  0  0  0  0
    5.2411    2.4714   -0.5619 N   0  0  0  0  0  0  0  0  0  0  0  0
    5.7584    2.8859   -1.7937 C   0  0  0  0  0  0  0  0  0  0  0  0
    5.7804    2.2152   -3.0234 C   0  0  0  0  0  0  0  0  0  0  0  0
    6.3467    2.8743   -4.1154 C   0  0  0  0  0  0  0  0  0  0  0  0
    6.8770    4.1727   -3.9952 C   0  0  0  0  0  0  0  0  0  0  0  0
    6.8424    4.8415   -2.7725 C   0  0  0  0  0  0  0  0  0  0  0  0
    6.2783    4.2021   -1.6589 C   0  0  0  0  0  0  0  0  0  0  0  0
    6.0655    4.5963   -0.2799 C   0  0  0  0  0  0  0  0  0  0  0  0
    6.3689    5.7519    0.4545 C   0  0  0  0  0  0  0  0  0  0  0  0
    6.0380    5.8043    1.8078 C   0  0  0  0  0  0  0  0  0  0  0  0
    5.4133    4.7092    2.4340 C   0  0  0  0  0  0  0  0  0  0  0  0
    5.0998    3.5478    1.7265 C   0  0  0  0  0  0  0  0  0  0  0  0
    5.4227    3.5039    0.3640 C   0  0  0  0  0  0  0  0  0  0  0  0
    5.3279    0.0241   -0.5356 C   0  0  0  0  0  0  0  0  0  0  0  0
    4.7064   -1.1980   -0.2765 C   0  0  0  0  0  0  0  0  0  0  0  0
    3.4020   -1.2635    0.2362 C   0  0  0  0  0  0  0  0  0  0  0  0
    2.7767   -2.6002    0.4972 C   0  0  0  0  0  0  0  0  0  0  0  0
    2.0644   -3.2383   -0.5315 C   0  0  0  0  0  0  0  0  0  0  0  0
    1.4750   -4.4889   -0.3411 C   0  0  0  0  0  0  0  0  0  0  0  0
    1.5988   -5.0965    0.9082 C   0  0  0  0  0  0  0  0  0  0  0  0
    0.8660   -6.7245    1.1800 S   0  0  1  0  0  0  0  0  0  0  0  0
    0.7442   -7.3708   -0.1355 O   0  0  0  0  0  0  0  0  0  0  0  0
    1.5980   -7.3526    2.2906 O   0  0  0  0  0  0  0  0  0  0  0  0
   -0.8105   -6.3917    1.7673 C   0  0  0  0  0  0  0  0  0  0  0  0
   -1.8530   -6.3083    0.8400 C   0  0  0  0  0  0  0  0  0  0  0  0
   -3.1504   -6.0708    1.3011 C   0  0  0  0  0  0  0  0  0  0  0  0
   -3.3936   -5.9297    2.6717 C   0  0  0  0  0  0  0  0  0  0  0  0
   -2.3426   -6.0346    3.5895 C   0  0  0  0  0  0  0  0  0  0  0  0
   -1.0410   -6.2720    3.1407 C   0  0  0  0  0  0  0  0  0  0  0  0
    2.3199   -4.4929    1.9397 C   0  0  0  0  0  0  0  0  0  0  0  0
    2.9165   -3.2380    1.7539 C   0  0  0  0  0  0  0  0  0  0  0  0
    3.7067   -2.6003    2.8711 C   0  0  0  0  0  0  0  0  0  0  0  0
    0.8962    0.9356    1.1609 H   0  0  0  0  0  0  0  0  0  0  0  0
    1.2155   -0.6167    1.9738 H   0  0  0  0  0  0  0  0  0  0  0  0
    0.6009   -0.6069    0.3204 H   0  0  0  0  0  0  0  0  0  0  0  0
    2.7801    2.0916    0.3639 H   0  0  0  0  0  0  0  0  0  0  0  0
    5.3659    1.2115   -3.1295 H   0  0  0  0  0  0  0  0  0  0  0  0
    6.3758    2.3694   -5.0845 H   0  0  0  0  0  0  0  0  0  0  0  0
    7.3148    4.6596   -4.8698 H   0  0  0  0  0  0  0  0  0  0  0  0
    7.2464    5.8530   -2.6824 H   0  0  0  0  0  0  0  0  0  0  0  0
    6.8625    6.5991   -0.0284 H   0  0  0  0  0  0  0  0  0  0  0  0
    6.2684    6.6994    2.3904 H   0  0  0  0  0  0  0  0  0  0  0  0
    5.1698    4.7658    3.4981 H   0  0  0  0  0  0  0  0  0  0  0  0
    4.6230    2.7016    2.2234 H   0  0  0  0  0  0  0  0  0  0  0  0
    6.3515    0.0572   -0.9131 H   0  0  0  0  0  0  0  0  0  0  0  0
    5.2498   -2.1273   -0.4661 H   0  0  0  0  0  0  0  0  0  0  0  0
    1.9826   -2.7456   -1.5037 H   0  0  0  0  0  0  0  0  0  0  0  0
    0.9457   -4.9961   -1.1494 H   0  0  0  0  0  0  0  0  0  0  0  0
   -1.6449   -6.4482   -0.2223 H   0  0  0  0  0  0  0  0  0  0  0  0
   -3.9760   -6.0055    0.5881 H   0  0  0  0  0  0  0  0  0  0  0  0
   -4.4105   -5.7466    3.0277 H   0  0  0  0  0  0  0  0  0  0  0  0
   -2.5386   -5.9411    4.6605 H   0  0  0  0  0  0  0  0  0  0  0  0
   -0.2113   -6.3842    3.8409 H   0  0  0  0  0  0  0  0  0  0  0  0
    2.4340   -5.0207    2.8889 H   0  0  0  0  0  0  0  0  0  0  0  0
    3.6875   -3.2230    3.7768 H   0  0  0  0  0  0  0  0  0  0  0  0
    3.3109   -1.6053    3.1312 H   0  0  0  0  0  0  0  0  0  0  0  0
    4.7593   -2.4497    2.5826 H   0  0  0  0  0  0  0  0  0  0  0  0
  1  2  1  0
  1 37  1  0
  1 38  1  0
  1 39  1  0
  2  3  2  0
  2 20  1  0
  3  4  1  0
  3 40  1  0
  4  5  1  0
  4 18  2  0
  5  6  1  0
  5 17  1  0
  6  7  2  0
  6 11  1  0
  7  8  1  0
  7 41  1  0
  8  9  2  0
  8 42  1  0
  9 10  1  0
  9 43  1  0
 10 11  2  0
 10 44  1  0
 11 12  1  0
 12 13  1  0
 12 17  2  0
 13 14  2  0
 13 45  1  0
 14 15  1  0
 14 46  1  0
 15 16  2  0
 15 47  1  0
 16 17  1  0
 16 48  1  0
 18 19  1  0
 18 49  1  0
 19 20  2  0
 19 50  1  0
 20 21  1  0
 21 22  2  0
 21 35  1  0
 22 23  1  0
 22 51  1  0
 23 24  2  0
 23 52  1  0
 25 24  1  6
 24 34  1  0
 25 26  2  0
 25 27  2  0
 25 28  1  0
 28 29  2  0
 28 33  1  0
 29 30  1  0
 29 53  1  0
 30 31  2  0
 30 54  1  0
 31 32  1  0
 31 55  1  0
 32 33  2  0
 32 56  1  0
 33 57  1  0
 34 35  2  0
 34 58  1  0
 35 36  1  0
 36 59  1  0
 36 60  1  0
 36 61  1  0
M  END

