
     RDKit          3D

 32 33  0  0  0  0  0  0  0  0999 V2000
    1.4235   -0.6353   -0.6543 C   0  0  0  0  0  0  0  0  0  0  0  0
    2.7928   -1.2564   -0.3431 C   0  0  2  0  0  0  0  0  0  0  0  0
    2.7008   -2.2303    0.8406 C   0  0  0  0  0  0  0  0  0  0  0  0
    3.7099   -0.2017   -0.0018 O   0  0  0  0  0  0  0  0  0  0  0  0
    4.8525   -0.1131   -0.8778 C   0  0  1  0  0  0  0  0  0  0  0  0
    4.8530    1.2694   -1.5443 C   0  0  0  0  0  0  0  0  0  0  0  0
    6.1254   -0.3253   -0.0476 C   0  0  0  0  0  0  0  0  0  0  0  0
    4.6182   -1.2341   -1.8736 C   0  0  0  0  0  0  0  0  0  0  0  0
    5.3844   -1.6411   -2.9564 C   0  0  0  0  0  0  0  0  0  0  0  0
    4.9840   -2.7206   -3.7733 C   0  0  0  0  0  0  0  0  0  0  0  0
    5.9585   -3.0128   -4.9098 C   0  0  0  0  0  0  0  0  0  0  0  0
    7.0019   -2.4138   -4.9862 O   0  0  0  0  0  0  0  0  0  0  0  0
    5.6436   -3.9247   -5.8340 O   0  0  0  0  0  0  0  0  0  0  0  0
    3.7756   -3.3672   -3.4332 C   0  0  0  0  0  0  0  0  0  0  0  0
    3.0584   -4.8713   -4.4068 Br  0  0  0  0  0  0  0  0  0  0  0  0
    2.9980   -2.9656   -2.3396 C   0  0  0  0  0  0  0  0  0  0  0  0
    3.4289   -1.8931   -1.5648 C   0  0  0  0  0  0  0  0  0  0  0  0
    1.0648   -0.0765    0.2236 H   0  0  0  0  0  0  0  0  0  0  0  0
    0.6800   -1.4096   -0.9020 H   0  0  0  0  0  0  0  0  0  0  0  0
    1.4967    0.0627   -1.5012 H   0  0  0  0  0  0  0  0  0  0  0  0
    2.3566   -1.6903    1.7358 H   0  0  0  0  0  0  0  0  0  0  0  0
    3.6849   -2.6697    1.0598 H   0  0  0  0  0  0  0  0  0  0  0  0
    1.9912   -3.0470    0.6323 H   0  0  0  0  0  0  0  0  0  0  0  0
    4.9020    2.0530   -0.7728 H   0  0  0  0  0  0  0  0  0  0  0  0
    3.9345    1.4186   -2.1309 H   0  0  0  0  0  0  0  0  0  0  0  0
    5.7185    1.3855   -2.2156 H   0  0  0  0  0  0  0  0  0  0  0  0
    6.1876    0.4421    0.7391 H   0  0  0  0  0  0  0  0  0  0  0  0
    7.0261   -0.2535   -0.6775 H   0  0  0  0  0  0  0  0  0  0  0  0
    6.1154   -1.3142    0.4340 H   0  0  0  0  0  0  0  0  0  0  0  0
    6.3233   -1.1519   -3.2218 H   0  0  0  0  0  0  0  0  0  0  0  0
    4.7849   -4.3496   -5.6596 H   0  0  0  0  0  0  0  0  0  0  0  0
    2.0718   -3.4960   -2.1114 H   0  0  0  0  0  0  0  0  0  0  0  0
  2  1  1  6
  1 18  1  0
  1 19  1  0
  1 20  1  0
  2  3  1  0
  2  4  1  0
  2 17  1  0
  3 21  1  0
  3 22  1  0
  3 23  1  0
  4  5  1  0
  5  6  1  6
  5  7  1  0
  5  8  1  0
  6 24  1  0
  6 25  1  0
  6 26  1  0
  7 27  1  0
  7 28  1  0
  7 29  1  0
  8  9  2  0
  8 17  1  0
  9 10  1  0
  9 30  1  0
 10 11  1  0
 10 14  2  0
 11 12  2  0
 11 13  1  0
 13 31  1  0
 14 15  1  0
 14 16  1  0
 16 17  2  0
 16 32  1  0
M  END

