
     RDKit          3D

 60 59  0  0  0  0  0  0  0  0999 V2000
    3.2104   -0.4185   -2.5085 C   0  0  0  0  0  0  0  0  0  0  0  0
    2.7631   -0.0916   -1.0764 C   0  0  0  0  0  0  0  0  0  0  0  0
    3.3016    1.2184   -0.5700 C   0  0  0  0  0  0  0  0  0  0  0  0
    4.0888    1.3775    0.5013 C   0  0  0  0  0  0  0  0  0  0  0  0
    4.6399    2.6850    0.9983 C   0  0  0  0  0  0  0  0  0  0  0  0
    6.1771    2.7408    1.0038 C   0  0  0  0  0  0  0  0  0  0  0  0
    6.7420    4.0551    1.5499 C   0  0  0  0  0  0  0  0  0  0  0  0
    8.2723    4.1164    1.5568 C   0  0  0  0  0  0  0  0  0  0  0  0
    8.8387    5.4311    2.1014 C   0  0  0  0  0  0  0  0  0  0  0  0
   10.3690    5.4924    2.1089 C   0  0  0  0  0  0  0  0  0  0  0  0
   10.9355    6.8069    2.6538 C   0  0  0  0  0  0  0  0  0  0  0  0
   12.4658    6.8683    2.6616 C   0  0  0  0  0  0  0  0  0  0  0  0
   13.0321    8.1826    3.2070 C   0  0  0  0  0  0  0  0  0  0  0  0
   14.5624    8.2441    3.2150 C   0  0  0  0  0  0  0  0  0  0  0  0
   15.1287    9.5584    3.7606 C   0  0  0  0  0  0  0  0  0  0  0  0
   16.6590    9.6199    3.7690 C   0  0  0  0  0  0  0  0  0  0  0  0
   17.2251   10.9341    4.3149 C   0  0  0  0  0  0  0  0  0  0  0  0
   18.7552   10.9961    4.3236 C   0  0  0  0  0  0  0  0  0  0  0  0
   19.3218   12.3104    4.8698 C   0  0  0  0  0  0  0  0  0  0  0  0
   20.8502   12.3639    4.8749 C   0  0  0  0  0  0  0  0  0  0  0  0
    2.7714   -1.3670   -2.8576 H   0  0  0  0  0  0  0  0  0  0  0  0
    4.3070   -0.5073   -2.5710 H   0  0  0  0  0  0  0  0  0  0  0  0
    2.9017    0.3708   -3.2143 H   0  0  0  0  0  0  0  0  0  0  0  0
    3.0658   -0.9041   -0.3938 H   0  0  0  0  0  0  0  0  0  0  0  0
    1.6571   -0.0627   -1.0503 H   0  0  0  0  0  0  0  0  0  0  0  0
    3.0188    2.1093   -1.1498 H   0  0  0  0  0  0  0  0  0  0  0  0
    4.3772    0.4856    1.0766 H   0  0  0  0  0  0  0  0  0  0  0  0
    4.2814    2.8632    2.0306 H   0  0  0  0  0  0  0  0  0  0  0  0
    4.2410    3.5134    0.3870 H   0  0  0  0  0  0  0  0  0  0  0  0
    6.5461    2.5768   -0.0247 H   0  0  0  0  0  0  0  0  0  0  0  0
    6.5700    1.8973    1.6014 H   0  0  0  0  0  0  0  0  0  0  0  0
    6.3654    4.2150    2.5776 H   0  0  0  0  0  0  0  0  0  0  0  0
    6.3461    4.8981    0.9533 H   0  0  0  0  0  0  0  0  0  0  0  0
    8.6481    3.9552    0.5292 H   0  0  0  0  0  0  0  0  0  0  0  0
    8.6682    3.2737    2.1541 H   0  0  0  0  0  0  0  0  0  0  0  0
    8.4623    5.5924    3.1289 H   0  0  0  0  0  0  0  0  0  0  0  0
    8.4430    6.2736    1.5040 H   0  0  0  0  0  0  0  0  0  0  0  0
   10.7453    5.3313    1.0814 H   0  0  0  0  0  0  0  0  0  0  0  0
   10.7647    4.6496    2.7061 H   0  0  0  0  0  0  0  0  0  0  0  0
   10.5589    6.9680    3.6813 H   0  0  0  0  0  0  0  0  0  0  0  0
   10.5399    7.6496    2.0566 H   0  0  0  0  0  0  0  0  0  0  0  0
   12.8423    6.7075    1.6341 H   0  0  0  0  0  0  0  0  0  0  0  0
   12.8614    6.0253    3.2586 H   0  0  0  0  0  0  0  0  0  0  0  0
   12.6555    8.3433    4.2345 H   0  0  0  0  0  0  0  0  0  0  0  0
   12.6365    9.0256    2.6100 H   0  0  0  0  0  0  0  0  0  0  0  0
   14.9391    8.0836    2.1875 H   0  0  0  0  0  0  0  0  0  0  0  0
   14.9580    7.4011    3.8119 H   0  0  0  0  0  0  0  0  0  0  0  0
   14.7518    9.7190    4.7881 H   0  0  0  0  0  0  0  0  0  0  0  0
   14.7332   10.4014    3.1637 H   0  0  0  0  0  0  0  0  0  0  0  0
   17.0358    9.4595    2.7415 H   0  0  0  0  0  0  0  0  0  0  0  0
   17.0544    8.7767    4.3658 H   0  0  0  0  0  0  0  0  0  0  0  0
   16.8480   11.0943    5.3424 H   0  0  0  0  0  0  0  0  0  0  0  0
   16.8295   11.7772    3.7180 H   0  0  0  0  0  0  0  0  0  0  0  0
   19.1329   10.8363    3.2961 H   0  0  0  0  0  0  0  0  0  0  0  0
   19.1514   10.1532    4.9205 H   0  0  0  0  0  0  0  0  0  0  0  0
   18.9437   12.4691    5.8963 H   0  0  0  0  0  0  0  0  0  0  0  0
   18.9251   13.1519    4.2728 H   0  0  0  0  0  0  0  0  0  0  0  0
   21.2777   11.5577    5.4947 H   0  0  0  0  0  0  0  0  0  0  0  0
   21.2218   13.3216    5.2734 H   0  0  0  0  0  0  0  0  0  0  0  0
   21.2590   12.2465    3.8571 H   0  0  0  0  0  0  0  0  0  0  0  0
  1  2  1  0
  1 21  1  0
  1 22  1  0
  1 23  1  0
  2  3  1  0
  2 24  1  0
  2 25  1  0
  3  4  2  0
  3 26  1  0
  4  5  1  0
  4 27  1  0
  5  6  1  0
  5 28  1  0
  5 29  1  0
  6  7  1  0
  6 30  1  0
  6 31  1  0
  7  8  1  0
  7 32  1  0
  7 33  1  0
  8  9  1  0
  8 34  1  0
  8 35  1  0
  9 10  1  0
  9 36  1  0
  9 37  1  0
 10 11  1  0
 10 38  1  0
 10 39  1  0
 11 12  1  0
 11 40  1  0
 11 41  1  0
 12 13  1  0
 12 42  1  0
 12 43  1  0
 13 14  1  0
 13 44  1  0
 13 45  1  0
 14 15  1  0
 14 46  1  0
 14 47  1  0
 15 16  1  0
 15 48  1  0
 15 49  1  0
 16 17  1  0
 16 50  1  0
 16 51  1  0
 17 18  1  0
 17 52  1  0
 17 53  1  0
 18 19  1  0
 18 54  1  0
 18 55  1  0
 19 20  1  0
 19 56  1  0
 19 57  1  0
 20 58  1  0
 20 59  1  0
 20 60  1  0
M  END

