
     RDKit          3D

 45 47  0  0  0  0  0  0  0  0999 V2000
    2.2607   -0.5184   -2.1014 C   0  0  0  0  0  0  0  0  0  0  0  0
    1.4098    0.7019   -2.3502 C   0  0  0  0  0  0  0  0  0  0  0  0
    1.7862    1.9525   -1.8397 C   0  0  0  0  0  0  0  0  0  0  0  0
    0.9639    3.0651   -2.0874 C   0  0  0  0  0  0  0  0  0  0  0  0
    1.2328    4.3590   -1.6342 N   0  0  0  0  0  0  0  0  0  0  0  0
    2.3271    4.8083   -0.8996 C   0  0  0  0  0  0  0  0  0  0  0  0
    3.2274    4.0855   -0.5088 O   0  0  0  0  0  0  0  0  0  0  0  0
    2.2757    6.1615   -0.6310 N   0  0  0  0  0  0  0  0  0  0  0  0
    3.3866    6.8398   -0.0061 C   0  0  2  0  0  0  0  0  0  0  0  0
    3.9577    6.0510    0.4997 H   0  0  0  0  0  0  0  0  0  0  0  0
    2.9658    7.9108    1.0138 C   0  0  0  0  0  0  0  0  0  0  0  0
    4.1914    8.8143    1.0610 C   0  0  0  0  0  0  0  0  0  0  0  0
    4.5839    8.8991   -0.3375 N   0  0  0  0  0  0  0  0  0  0  0  0
    5.8477    9.5448   -0.6059 C   0  0  0  0  0  0  0  0  0  0  0  0
    4.3831    7.6008   -0.9790 C   0  0  2  0  0  0  0  0  0  0  0  0
    5.3258    7.0137   -1.0000 H   0  0  0  0  0  0  0  0  0  0  0  0
    3.8902    7.7105   -2.4140 C   0  0  0  0  0  0  0  0  0  0  0  0
    4.1258    6.6619   -3.3181 C   0  0  0  0  0  0  0  0  0  0  0  0
    3.6324    6.7180   -4.6242 C   0  0  0  0  0  0  0  0  0  0  0  0
    2.8959    7.8290   -5.0495 C   0  0  0  0  0  0  0  0  0  0  0  0
    2.6591    8.8803   -4.1589 C   0  0  0  0  0  0  0  0  0  0  0  0
    3.1517    8.8206   -2.8507 C   0  0  0  0  0  0  0  0  0  0  0  0
   -0.2047    2.8552   -2.8421 C   0  0  0  0  0  0  0  0  0  0  0  0
   -0.4826    1.5694   -3.3003 C   0  0  0  0  0  0  0  0  0  0  0  0
    0.2932    0.5102   -3.0704 N   0  0  0  0  0  0  0  0  0  0  0  0
    3.1872   -0.2752   -1.5627 H   0  0  0  0  0  0  0  0  0  0  0  0
    2.5163   -1.0017   -3.0577 H   0  0  0  0  0  0  0  0  0  0  0  0
    1.6949   -1.2604   -1.5143 H   0  0  0  0  0  0  0  0  0  0  0  0
    2.6965    2.0728   -1.2581 H   0  0  0  0  0  0  0  0  0  0  0  0
    0.5302    5.0469   -1.8789 H   0  0  0  0  0  0  0  0  0  0  0  0
    1.6389    6.7386   -1.1696 H   0  0  0  0  0  0  0  0  0  0  0  0
    2.6942    7.4764    1.9871 H   0  0  0  0  0  0  0  0  0  0  0  0
    2.0976    8.4771    0.6369 H   0  0  0  0  0  0  0  0  0  0  0  0
    4.9836    8.3583    1.7008 H   0  0  0  0  0  0  0  0  0  0  0  0
    3.9825    9.8171    1.4700 H   0  0  0  0  0  0  0  0  0  0  0  0
    6.7200    8.9839   -0.1979 H   0  0  0  0  0  0  0  0  0  0  0  0
    5.8587   10.5535   -0.1618 H   0  0  0  0  0  0  0  0  0  0  0  0
    5.9967    9.6557   -1.6913 H   0  0  0  0  0  0  0  0  0  0  0  0
    4.6998    5.7897   -2.9911 H   0  0  0  0  0  0  0  0  0  0  0  0
    3.8274    5.8929   -5.3143 H   0  0  0  0  0  0  0  0  0  0  0  0
    2.5147    7.8770   -6.0729 H   0  0  0  0  0  0  0  0  0  0  0  0
    2.0924    9.7566   -4.4859 H   0  0  0  0  0  0  0  0  0  0  0  0
    2.9878    9.6435   -2.1515 H   0  0  0  0  0  0  0  0  0  0  0  0
   -0.8849    3.6810   -3.0698 H   0  0  0  0  0  0  0  0  0  0  0  0
   -1.3909    1.3937   -3.8905 H   0  0  0  0  0  0  0  0  0  0  0  0
  1  2  1  0
  1 26  1  0
  1 27  1  0
  1 28  1  0
  2  3  2  0
  2 25  1  0
  3  4  1  0
  3 29  1  0
  4  5  1  0
  4 23  2  0
  5  6  1  0
  5 30  1  0
  6  7  2  0
  6  8  1  0
  8  9  1  0
  8 31  1  0
  9 10  1  1
  9 11  1  0
  9 15  1  0
 11 12  1  0
 11 32  1  0
 11 33  1  0
 12 13  1  0
 12 34  1  0
 12 35  1  0
 13 14  1  0
 13 15  1  0
 14 36  1  0
 14 37  1  0
 14 38  1  0
 15 16  1  6
 15 17  1  0
 17 18  2  0
 17 22  1  0
 18 19  1  0
 18 39  1  0
 19 20  2  0
 19 40  1  0
 20 21  1  0
 20 41  1  0
 21 22  2  0
 21 42  1  0
 22 43  1  0
 23 24  1  0
 23 44  1  0
 24 25  2  0
 24 45  1  0
M  END

