
     RDKit          3D

 41 43  0  0  0  0  0  0  0  0999 V2000
    5.4031   -1.0406   -0.1858 O   0  0  0  0  0  0  0  0  0  0  0  0
    4.3204   -0.5376   -0.3898 C   0  0  0  0  0  0  0  0  0  0  0  0
    4.0733    0.8824   -0.8866 C   0  0  0  0  0  0  0  0  0  0  0  0
    2.6050    1.1477   -0.5568 C   0  0  0  0  0  0  0  0  0  0  0  0
    1.9715   -0.2515   -0.5934 C   0  0  0  0  0  0  0  0  0  0  0  0
    3.0737   -1.1549   -0.2435 N   0  0  0  0  0  0  0  0  0  0  0  0
    2.8469   -2.5099    0.0622 C   0  0  0  0  0  0  0  0  0  0  0  0
    3.8881   -3.3603    0.5011 C   0  0  0  0  0  0  0  0  0  0  0  0
    3.6249   -4.6932    0.8014 C   0  0  0  0  0  0  0  0  0  0  0  0
    2.3264   -5.2020    0.6820 C   0  0  0  0  0  0  0  0  0  0  0  0
    1.9964   -6.9147    1.1028 S   0  0  1  0  0  0  0  0  0  0  0  0
    0.7169   -7.2739    0.4866 O   0  0  0  0  0  0  0  0  0  0  0  0
    3.2284   -7.6678    0.8762 O   0  0  0  0  0  0  0  0  0  0  0  0
    1.7483   -6.9811    2.7562 N   0  0  0  0  0  0  0  0  0  0  0  0
    0.5413   -6.4602    3.3835 C   0  0  0  0  0  0  0  0  0  0  0  0
    0.1874   -7.2311    4.6407 C   0  0  0  0  0  0  0  0  0  0  0  0
   -0.1575   -6.5602    5.8214 C   0  0  0  0  0  0  0  0  0  0  0  0
   -0.5201   -7.2650    6.9735 C   0  0  0  0  0  0  0  0  0  0  0  0
   -0.5269   -8.6561    6.9327 C   0  0  0  0  0  0  0  0  0  0  0  0
   -0.8684   -9.3425    8.0333 F   0  0  0  0  0  0  0  0  0  0  0  0
   -0.1817   -9.3542    5.7756 C   0  0  0  0  0  0  0  0  0  0  0  0
    0.1743   -8.6357    4.6344 C   0  0  0  0  0  0  0  0  0  0  0  0
    1.2905   -4.3820    0.2318 C   0  0  0  0  0  0  0  0  0  0  0  0
    1.5489   -3.0467   -0.0751 C   0  0  0  0  0  0  0  0  0  0  0  0
    4.2651    0.8903   -1.9743 H   0  0  0  0  0  0  0  0  0  0  0  0
    4.7908    1.5746   -0.4251 H   0  0  0  0  0  0  0  0  0  0  0  0
    2.1093    1.8416   -1.2500 H   0  0  0  0  0  0  0  0  0  0  0  0
    2.5150    1.5688    0.4571 H   0  0  0  0  0  0  0  0  0  0  0  0
    1.5739   -0.4973   -1.5957 H   0  0  0  0  0  0  0  0  0  0  0  0
    1.1443   -0.3532    0.1250 H   0  0  0  0  0  0  0  0  0  0  0  0
    4.8972   -2.9658    0.5834 H   0  0  0  0  0  0  0  0  0  0  0  0
    4.4379   -5.3515    1.1145 H   0  0  0  0  0  0  0  0  0  0  0  0
    2.6158   -6.9352    3.2865 H   0  0  0  0  0  0  0  0  0  0  0  0
   -0.2654   -6.5716    2.6413 H   0  0  0  0  0  0  0  0  0  0  0  0
    0.6209   -5.3820    3.6200 H   0  0  0  0  0  0  0  0  0  0  0  0
   -0.1444   -5.4668    5.8470 H   0  0  0  0  0  0  0  0  0  0  0  0
   -0.7894   -6.7530    7.8993 H   0  0  0  0  0  0  0  0  0  0  0  0
   -0.1967  -10.4459    5.7843 H   0  0  0  0  0  0  0  0  0  0  0  0
    0.4553   -9.1659    3.7215 H   0  0  0  0  0  0  0  0  0  0  0  0
    0.2900   -4.7973    0.0993 H   0  0  0  0  0  0  0  0  0  0  0  0
    0.7274   -2.4321   -0.4410 H   0  0  0  0  0  0  0  0  0  0  0  0
  1  2  2  0
  2  3  1  0
  2  6  1  0
  3  4  1  0
  3 25  1  0
  3 26  1  0
  4  5  1  0
  4 27  1  0
  4 28  1  0
  5  6  1  0
  5 29  1  0
  5 30  1  0
  6  7  1  0
  7  8  2  0
  7 24  1  0
  8  9  1  0
  8 31  1  0
  9 10  2  0
  9 32  1  0
 10 11  1  0
 10 23  1  0
 11 12  2  0
 11 13  2  0
 11 14  1  1
 14 15  1  0
 14 33  1  0
 15 16  1  0
 15 34  1  0
 15 35  1  0
 16 17  2  0
 16 22  1  0
 17 18  1  0
 17 36  1  0
 18 19  2  0
 18 37  1  0
 19 20  1  0
 19 21  1  0
 21 22  2  0
 21 38  1  0
 22 39  1  0
 23 24  2  0
 23 40  1  0
 24 41  1  0
M  END

