
     RDKit          3D

 33 33  0  0  0  0  0  0  0  0999 V2000
    5.8690    2.7745    5.5111 C   0  0  0  0  0  0  0  0  0  0  0  0
    5.5213    1.0156    5.8217 S   0  0  0  0  0  0  0  0  0  0  0  0
    5.5663    0.3886    4.0996 C   0  0  0  0  0  0  0  0  0  0  0  0
    5.4346   -1.1349    4.1031 C   0  0  0  0  0  0  0  0  0  0  0  0
    5.3460   -1.7763    2.7059 C   0  0  2  0  0  0  0  0  0  0  0  0
    4.6262   -1.1987    2.0976 H   0  0  0  0  0  0  0  0  0  0  0  0
    4.8755   -3.1712    2.7153 N   0  0  0  0  0  0  0  0  0  0  0  0
    3.4257   -3.3480    2.7227 C   0  0  0  0  0  0  0  0  0  0  0  0
    2.9908   -4.7995    2.6803 C   0  0  0  0  0  0  0  0  0  0  0  0
    3.9017   -5.8415    2.4438 C   0  0  0  0  0  0  0  0  0  0  0  0
    3.4953   -7.1776    2.4027 C   0  0  0  0  0  0  0  0  0  0  0  0
    2.1523   -7.5043    2.5945 C   0  0  0  0  0  0  0  0  0  0  0  0
    1.2195   -6.4897    2.8225 C   0  0  0  0  0  0  0  0  0  0  0  0
    1.6419   -5.1593    2.8622 C   0  0  0  0  0  0  0  0  0  0  0  0
    0.3118   -3.8119    3.1564 Br  0  0  0  0  0  0  0  0  0  0  0  0
    6.6774   -1.7074    1.9159 C   0  0  0  0  0  0  0  0  0  0  0  0
    7.4418   -0.7785    1.9717 O   0  0  0  0  0  0  0  0  0  0  0  0
    6.8706   -2.7675    1.1315 O   0  0  0  0  0  0  0  0  0  0  0  0
    5.8845    3.2754    6.4897 H   0  0  0  0  0  0  0  0  0  0  0  0
    5.0864    3.2378    4.8901 H   0  0  0  0  0  0  0  0  0  0  0  0
    6.8491    2.9085    5.0278 H   0  0  0  0  0  0  0  0  0  0  0  0
    6.5101    0.6828    3.6210 H   0  0  0  0  0  0  0  0  0  0  0  0
    4.7360    0.8406    3.5286 H   0  0  0  0  0  0  0  0  0  0  0  0
    4.5201   -1.4111    4.6565 H   0  0  0  0  0  0  0  0  0  0  0  0
    6.2851   -1.5748    4.6527 H   0  0  0  0  0  0  0  0  0  0  0  0
    5.2855   -3.6584    3.5148 H   0  0  0  0  0  0  0  0  0  0  0  0
    3.0151   -2.8271    1.8392 H   0  0  0  0  0  0  0  0  0  0  0  0
    2.9470   -2.8644    3.5965 H   0  0  0  0  0  0  0  0  0  0  0  0
    4.9520   -5.5957    2.2798 H   0  0  0  0  0  0  0  0  0  0  0  0
    4.2328   -7.9620    2.2171 H   0  0  0  0  0  0  0  0  0  0  0  0
    1.8227   -8.5456    2.5655 H   0  0  0  0  0  0  0  0  0  0  0  0
    0.1643   -6.7259    2.9690 H   0  0  0  0  0  0  0  0  0  0  0  0
    6.1119   -3.3666    1.3425 H   0  0  0  0  0  0  0  0  0  0  0  0
  1  2  1  0
  1 19  1  0
  1 20  1  0
  1 21  1  0
  2  3  1  0
  3  4  1  0
  3 22  1  0
  3 23  1  0
  4  5  1  0
  4 24  1  0
  4 25  1  0
  5  6  1  6
  5  7  1  0
  5 16  1  0
  7  8  1  0
  7 26  1  0
  8  9  1  0
  8 27  1  0
  8 28  1  0
  9 10  2  0
  9 14  1  0
 10 11  1  0
 10 29  1  0
 11 12  2  0
 11 30  1  0
 12 13  1  0
 12 31  1  0
 13 14  2  0
 13 32  1  0
 14 15  1  0
 16 17  2  0
 16 18  1  0
 18 33  1  0
M  END

