
     RDKit          3D

 69 73  0  0  0  0  0  0  0  0999 V2000
   -1.1652    2.6802    6.0033 C   0  0  0  0  0  0  0  0  0  0  0  0
   -0.2581    1.9495    7.0044 C   0  0  2  0  0  0  0  0  0  0  0  0
    0.2423    2.7176    7.6189 H   0  0  0  0  0  0  0  0  0  0  0  0
    0.8065    1.1828    6.3623 N   0  0  0  0  0  0  0  0  0  0  0  0
    0.5655   -0.1213    5.3523 P   0  0  1  0  0  0  0  0  0  0  0  0
   -0.8162   -0.2348    4.8176 O   0  0  0  0  0  0  0  0  0  0  0  0
    1.7334   -0.0255    4.2329 O   0  0  0  0  0  0  0  0  0  0  0  0
    1.5956    0.8774    3.1234 C   0  0  0  0  0  0  0  0  0  0  0  0
    2.6793    0.5526    2.0962 C   0  0  2  0  0  0  0  0  0  0  0  0
    2.5391   -0.5027    1.7995 H   0  0  0  0  0  0  0  0  0  0  0  0
    4.0790    0.7483    2.6307 C   0  0  0  0  0  0  0  0  0  0  0  0
    4.7978    1.6081    1.9058 C   0  0  0  0  0  0  0  0  0  0  0  0
    4.0310    2.1324    0.7105 C   0  0  2  0  0  0  0  0  0  0  0  0
    4.5112    1.7877   -0.2207 H   0  0  0  0  0  0  0  0  0  0  0  0
    4.0362    3.5962    0.5952 N   0  0  0  0  0  0  0  0  0  0  0  0
    4.6728    4.3040   -0.4131 C   0  0  0  0  0  0  0  0  0  0  0  0
    4.5482    5.6572   -0.2088 C   0  0  0  0  0  0  0  0  0  0  0  0
    3.7913    5.8080    1.0002 C   0  0  0  0  0  0  0  0  0  0  0  0
    3.2931    6.8688    1.8007 C   0  0  0  0  0  0  0  0  0  0  0  0
    3.4784    8.1787    1.4831 N   0  0  0  0  0  0  0  0  0  0  0  0
    2.5942    6.5947    2.9097 N   0  0  0  0  0  0  0  0  0  0  0  0
    2.3774    5.3123    3.2299 C   0  0  0  0  0  0  0  0  0  0  0  0
    2.7833    4.2273    2.5790 N   0  0  0  0  0  0  0  0  0  0  0  0
    3.4904    4.5070    1.4736 C   0  0  0  0  0  0  0  0  0  0  0  0
    2.6177    1.4922    0.8586 C   0  0  0  0  0  0  0  0  0  0  0  0
    1.1791   -1.3654    6.2054 O   0  0  0  0  0  0  0  0  0  0  0  0
    1.2792   -2.6705    5.7588 C   0  0  0  0  0  0  0  0  0  0  0  0
    0.2735   -3.2772    4.9969 C   0  0  0  0  0  0  0  0  0  0  0  0
    0.4271   -4.6126    4.6135 C   0  0  0  0  0  0  0  0  0  0  0  0
    1.5603   -5.3405    4.9895 C   0  0  0  0  0  0  0  0  0  0  0  0
    2.5522   -4.7225    5.7579 C   0  0  0  0  0  0  0  0  0  0  0  0
    2.4173   -3.3866    6.1423 C   0  0  0  0  0  0  0  0  0  0  0  0
   -1.0587    1.1021    8.0064 C   0  0  0  0  0  0  0  0  0  0  0  0
   -0.8674   -0.0666    8.2285 O   0  0  0  0  0  0  0  0  0  0  0  0
   -1.9881    1.8509    8.6246 O   0  0  0  0  0  0  0  0  0  0  0  0
   -2.8233    1.2043    9.6157 C   0  0  0  0  0  0  0  0  0  0  0  0
   -2.2305    1.2922   11.0011 C   0  0  0  0  0  0  0  0  0  0  0  0
   -2.5402    2.3761   11.8369 C   0  0  0  0  0  0  0  0  0  0  0  0
   -1.9832    2.4737   13.1147 C   0  0  0  0  0  0  0  0  0  0  0  0
   -1.1070    1.4846   13.5718 C   0  0  0  0  0  0  0  0  0  0  0  0
   -0.7916    0.4003   12.7465 C   0  0  0  0  0  0  0  0  0  0  0  0
   -1.3487    0.3038   11.4688 C   0  0  0  0  0  0  0  0  0  0  0  0
   -1.6949    1.9574    5.3683 H   0  0  0  0  0  0  0  0  0  0  0  0
   -0.5518    3.3295    5.3609 H   0  0  0  0  0  0  0  0  0  0  0  0
   -1.8964    3.2993    6.5404 H   0  0  0  0  0  0  0  0  0  0  0  0
    1.6850    1.1627    6.8717 H   0  0  0  0  0  0  0  0  0  0  0  0
    1.7136    1.9178    3.4682 H   0  0  0  0  0  0  0  0  0  0  0  0
    0.5929    0.7578    2.6803 H   0  0  0  0  0  0  0  0  0  0  0  0
    4.4279    0.2302    3.5266 H   0  0  0  0  0  0  0  0  0  0  0  0
    5.8290    1.9112    2.1042 H   0  0  0  0  0  0  0  0  0  0  0  0
    5.1745    3.7680   -1.2167 H   0  0  0  0  0  0  0  0  0  0  0  0
    4.9470    6.4338   -0.8586 H   0  0  0  0  0  0  0  0  0  0  0  0
    4.1212    8.4516    0.7547 H   0  0  0  0  0  0  0  0  0  0  0  0
    3.1806    8.8701    2.1595 H   0  0  0  0  0  0  0  0  0  0  0  0
    1.7934    5.1421    4.1431 H   0  0  0  0  0  0  0  0  0  0  0  0
    2.3411    0.9429   -0.0525 H   0  0  0  0  0  0  0  0  0  0  0  0
    1.8672    2.2809    1.0036 H   0  0  0  0  0  0  0  0  0  0  0  0
   -0.6117   -2.7024    4.7209 H   0  0  0  0  0  0  0  0  0  0  0  0
   -0.3563   -5.0889    4.0181 H   0  0  0  0  0  0  0  0  0  0  0  0
    1.6686   -6.3852    4.6884 H   0  0  0  0  0  0  0  0  0  0  0  0
    3.4412   -5.2822    6.0602 H   0  0  0  0  0  0  0  0  0  0  0  0
    3.1798   -2.8845    6.7407 H   0  0  0  0  0  0  0  0  0  0  0  0
   -2.9764    0.1591    9.3149 H   0  0  0  0  0  0  0  0  0  0  0  0
   -3.7778    1.7451    9.5648 H   0  0  0  0  0  0  0  0  0  0  0  0
   -3.2282    3.1498   11.4835 H   0  0  0  0  0  0  0  0  0  0  0  0
   -2.2361    3.3218   13.7563 H   0  0  0  0  0  0  0  0  0  0  0  0
   -0.6724    1.5573   14.5722 H   0  0  0  0  0  0  0  0  0  0  0  0
   -0.1090   -0.3766   13.1007 H   0  0  0  0  0  0  0  0  0  0  0  0
   -1.0959   -0.5356   10.8171 H   0  0  0  0  0  0  0  0  0  0  0  0
  1  2  1  0
  1 43  1  0
  1 44  1  0
  1 45  1  0
  2  3  1  1
  2  4  1  0
  2 33  1  0
  4  5  1  0
  4 46  1  0
  5  6  2  0
  5  7  1  6
  5 26  1  0
  7  8  1  0
  8  9  1  0
  8 47  1  0
  8 48  1  0
  9 10  1  6
  9 11  1  0
  9 25  1  0
 11 12  2  0
 11 49  1  0
 12 13  1  0
 12 50  1  0
 13 14  1  6
 13 15  1  0
 13 25  1  0
 15 16  1  0
 15 24  1  0
 16 17  2  0
 16 51  1  0
 17 18  1  0
 17 52  1  0
 18 19  1  0
 18 24  2  0
 19 20  1  0
 19 21  2  0
 20 53  1  0
 20 54  1  0
 21 22  1  0
 22 23  2  0
 22 55  1  0
 23 24  1  0
 25 56  1  0
 25 57  1  0
 26 27  1  0
 27 28  2  0
 27 32  1  0
 28 29  1  0
 28 58  1  0
 29 30  2  0
 29 59  1  0
 30 31  1  0
 30 60  1  0
 31 32  2  0
 31 61  1  0
 32 62  1  0
 33 34  2  0
 33 35  1  0
 35 36  1  0
 36 37  1  0
 36 63  1  0
 36 64  1  0
 37 38  2  0
 37 42  1  0
 38 39  1  0
 38 65  1  0
 39 40  2  0
 39 66  1  0
 40 41  1  0
 40 67  1  0
 41 42  2  0
 41 68  1  0
 42 69  1  0
M  END

