
     RDKit          3D

 47 48  0  0  0  0  0  0  0  0999 V2000
   -0.9752   -5.4363   -3.9675 C   0  0  0  0  0  0  0  0  0  0  0  0
   -0.3974   -4.8816   -2.6885 C   0  0  0  0  0  0  0  0  0  0  0  0
   -1.1887   -4.6811   -1.5498 C   0  0  0  0  0  0  0  0  0  0  0  0
   -0.6519   -4.1249   -0.3863 C   0  0  0  0  0  0  0  0  0  0  0  0
    0.6952   -3.7442   -0.2902 C   0  0  0  0  0  0  0  0  0  0  0  0
    1.2255   -3.1571    0.9953 C   0  0  0  0  0  0  0  0  0  0  0  0
    1.4869   -3.9639   -1.4394 C   0  0  0  0  0  0  0  0  0  0  0  0
    3.2463   -3.5179   -1.4963 S   0  0  1  0  0  0  0  0  0  0  0  0
    3.7368   -3.9089   -2.8218 O   0  0  0  0  0  0  0  0  0  0  0  0
    3.3708   -2.1455   -1.0058 O   0  0  0  0  0  0  0  0  0  0  0  0
    4.0550   -4.4725   -0.4040 N   0  0  0  0  0  0  0  0  0  0  0  0
    4.3920   -5.8627   -0.6641 C   0  0  0  0  0  0  0  0  0  0  0  0
    3.3336   -6.8983   -0.2582 C   0  0  0  0  0  0  0  0  0  0  0  0
    3.0054   -6.8493    1.2340 C   0  0  0  0  0  0  0  0  0  0  0  0
    3.4493   -5.9485    1.9438 O   0  0  0  0  0  0  0  0  0  0  0  0
    2.1979   -7.8292    1.7464 N   0  0  0  0  0  0  0  0  0  0  0  0
    1.5402   -8.8896    0.9915 C   0  0  0  0  0  0  0  0  0  0  0  0
    1.7301  -10.2267    1.7109 C   0  0  0  0  0  0  0  0  0  0  0  0
    1.3007  -10.1565    3.0503 O   0  0  0  0  0  0  0  0  0  0  0  0
    2.0000   -9.1689    3.8024 C   0  0  2  0  0  0  0  0  0  0  0  0
    1.4837   -9.2218    5.2292 C   0  0  0  0  0  0  0  0  0  0  0  0
    1.8192   -7.7902    3.1582 C   0  0  0  0  0  0  0  0  0  0  0  0
    0.9535   -4.5132   -2.6092 C   0  0  0  0  0  0  0  0  0  0  0  0
   -1.8763   -6.0388   -3.7768 H   0  0  0  0  0  0  0  0  0  0  0  0
   -0.2468   -6.0661   -4.5013 H   0  0  0  0  0  0  0  0  0  0  0  0
   -1.2642   -4.6231   -4.6561 H   0  0  0  0  0  0  0  0  0  0  0  0
   -2.2468   -4.9579   -1.5713 H   0  0  0  0  0  0  0  0  0  0  0  0
   -1.3003   -3.9736    0.4814 H   0  0  0  0  0  0  0  0  0  0  0  0
    0.3965   -2.8875    1.6652 H   0  0  0  0  0  0  0  0  0  0  0  0
    1.8344   -2.2632    0.8027 H   0  0  0  0  0  0  0  0  0  0  0  0
    1.8594   -3.8830    1.5336 H   0  0  0  0  0  0  0  0  0  0  0  0
    3.9018   -4.2373    0.5753 H   0  0  0  0  0  0  0  0  0  0  0  0
    5.3305   -6.0749   -0.1276 H   0  0  0  0  0  0  0  0  0  0  0  0
    4.6058   -5.9558   -1.7381 H   0  0  0  0  0  0  0  0  0  0  0  0
    3.7054   -7.8998   -0.5323 H   0  0  0  0  0  0  0  0  0  0  0  0
    2.4049   -6.7448   -0.8344 H   0  0  0  0  0  0  0  0  0  0  0  0
    1.9414   -8.9524   -0.0269 H   0  0  0  0  0  0  0  0  0  0  0  0
    0.4578   -8.6711    0.9138 H   0  0  0  0  0  0  0  0  0  0  0  0
    2.8000  -10.5190    1.6596 H   0  0  0  0  0  0  0  0  0  0  0  0
    1.1343  -11.0110    1.2190 H   0  0  0  0  0  0  0  0  0  0  0  0
    3.0840   -9.4116    3.7861 H   0  0  0  0  0  0  0  0  0  0  0  0
    0.4095   -8.9801    5.2596 H   0  0  0  0  0  0  0  0  0  0  0  0
    2.0244   -8.5064    5.8674 H   0  0  0  0  0  0  0  0  0  0  0  0
    1.6180  -10.2325    5.6416 H   0  0  0  0  0  0  0  0  0  0  0  0
    2.4385   -7.0320    3.6527 H   0  0  0  0  0  0  0  0  0  0  0  0
    0.7577   -7.4890    3.2477 H   0  0  0  0  0  0  0  0  0  0  0  0
    1.6162   -4.6432   -3.4671 H   0  0  0  0  0  0  0  0  0  0  0  0
  1  2  1  0
  1 24  1  0
  1 25  1  0
  1 26  1  0
  2  3  2  0
  2 23  1  0
  3  4  1  0
  3 27  1  0
  4  5  2  0
  4 28  1  0
  5  6  1  0
  5  7  1  0
  6 29  1  0
  6 30  1  0
  6 31  1  0
  7  8  1  0
  7 23  2  0
  8  9  2  0
  8 10  2  0
  8 11  1  1
 11 12  1  0
 11 32  1  0
 12 13  1  0
 12 33  1  0
 12 34  1  0
 13 14  1  0
 13 35  1  0
 13 36  1  0
 14 15  2  0
 14 16  1  0
 16 17  1  0
 16 22  1  0
 17 18  1  0
 17 37  1  0
 17 38  1  0
 18 19  1  0
 18 39  1  0
 18 40  1  0
 19 20  1  0
 20 21  1  0
 20 22  1  0
 20 41  1  1
 21 42  1  0
 21 43  1  0
 21 44  1  0
 22 45  1  0
 22 46  1  0
 23 47  1  0
M  END

