
     RDKit          3D

 62 64  0  0  0  0  0  0  0  0999 V2000
    0.9742    1.7110    1.8116 C   0  0  0  0  0  0  0  0  0  0  0  0
    2.1562    2.1380    1.3399 C   0  0  0  0  0  0  0  0  0  0  0  0
    2.8003    3.4254    1.7964 C   0  0  0  0  0  0  0  0  0  0  0  0
    2.8302    1.3870    0.2345 C   0  0  0  0  0  0  0  0  0  0  0  0
    2.0477    1.2305   -0.9328 O   0  0  0  0  0  0  0  0  0  0  0  0
    1.4709    2.4909   -1.7719 P   0  0  1  0  0  0  0  0  0  0  0  0
    2.1101    3.7878   -1.4816 O   0  0  0  0  0  0  0  0  0  0  0  0
    1.6570    2.0562   -3.3194 O   0  0  0  0  0  0  0  0  0  0  0  0
    1.2170    0.9437   -4.0229 C   0  0  0  0  0  0  0  0  0  0  0  0
    0.6519    1.1715   -5.2802 C   0  0  0  0  0  0  0  0  0  0  0  0
    0.2516    0.0916   -6.0643 C   0  0  0  0  0  0  0  0  0  0  0  0
    0.4049   -1.2369   -5.6210 C   0  0  0  0  0  0  0  0  0  0  0  0
   -0.0191   -2.3856   -6.4625 C   0  0  0  0  0  0  0  0  0  0  0  0
    0.1191   -2.3579   -7.8618 C   0  0  0  0  0  0  0  0  0  0  0  0
   -0.2762   -3.4350   -8.6559 C   0  0  0  0  0  0  0  0  0  0  0  0
   -0.8264   -4.5818   -8.0667 C   0  0  0  0  0  0  0  0  0  0  0  0
   -1.2285   -5.6599   -8.7868 O   0  0  0  0  0  0  0  0  0  0  0  0
   -0.9733   -4.6299   -6.6726 C   0  0  0  0  0  0  0  0  0  0  0  0
   -0.5749   -3.5485   -5.8918 C   0  0  0  0  0  0  0  0  0  0  0  0
    0.9793   -1.4331   -4.3517 C   0  0  0  0  0  0  0  0  0  0  0  0
    1.3855   -0.3616   -3.5528 C   0  0  0  0  0  0  0  0  0  0  0  0
   -0.1139    2.3571   -1.4776 O   0  0  0  0  0  0  0  0  0  0  0  0
   -1.2323    2.5552   -2.2893 C   0  0  0  0  0  0  0  0  0  0  0  0
   -2.1410    1.4815   -2.3339 C   0  0  0  0  0  0  0  0  0  0  0  0
   -1.8658    0.2142   -1.5683 C   0  0  0  0  0  0  0  0  0  0  0  0
   -3.3061    1.6434   -3.0940 C   0  0  0  0  0  0  0  0  0  0  0  0
   -3.5578    2.8352   -3.7755 C   0  0  0  0  0  0  0  0  0  0  0  0
   -2.6495    3.8892   -3.6875 C   0  0  0  0  0  0  0  0  0  0  0  0
   -1.4678    3.7819   -2.9352 C   0  0  0  0  0  0  0  0  0  0  0  0
   -0.5196    4.9496   -2.8294 C   0  0  0  0  0  0  0  0  0  0  0  0
    4.0496    0.8175    0.2565 C   0  0  0  0  0  0  0  0  0  0  0  0
    4.8798    0.7636    1.5137 C   0  0  0  0  0  0  0  0  0  0  0  0
    4.6597    0.1506   -0.9480 C   0  0  0  0  0  0  0  0  0  0  0  0
    0.4374    2.2689    2.5843 H   0  0  0  0  0  0  0  0  0  0  0  0
    0.5018    0.8013    1.4319 H   0  0  0  0  0  0  0  0  0  0  0  0
    2.2368    3.8810    2.6244 H   0  0  0  0  0  0  0  0  0  0  0  0
    2.8286    4.1303    0.9496 H   0  0  0  0  0  0  0  0  0  0  0  0
    3.8403    3.2747    2.1258 H   0  0  0  0  0  0  0  0  0  0  0  0
    0.5228    2.1986   -5.6255 H   0  0  0  0  0  0  0  0  0  0  0  0
   -0.2145    0.2878   -7.0323 H   0  0  0  0  0  0  0  0  0  0  0  0
    0.5686   -1.4868   -8.3440 H   0  0  0  0  0  0  0  0  0  0  0  0
   -0.1463   -3.3895   -9.7421 H   0  0  0  0  0  0  0  0  0  0  0  0
   -1.0785   -5.4952   -9.7270 H   0  0  0  0  0  0  0  0  0  0  0  0
   -1.4123   -5.5221   -6.2215 H   0  0  0  0  0  0  0  0  0  0  0  0
   -0.7221   -3.5992   -4.8104 H   0  0  0  0  0  0  0  0  0  0  0  0
    1.1420   -2.4492   -3.9852 H   0  0  0  0  0  0  0  0  0  0  0  0
    1.8410   -0.5356   -2.5783 H   0  0  0  0  0  0  0  0  0  0  0  0
   -1.7403    0.4191   -0.4927 H   0  0  0  0  0  0  0  0  0  0  0  0
   -0.9358   -0.2680   -1.9090 H   0  0  0  0  0  0  0  0  0  0  0  0
   -2.6893   -0.5036   -1.6914 H   0  0  0  0  0  0  0  0  0  0  0  0
   -4.0234    0.8200   -3.1448 H   0  0  0  0  0  0  0  0  0  0  0  0
   -4.4709    2.9474   -4.3652 H   0  0  0  0  0  0  0  0  0  0  0  0
   -2.8570    4.8317   -4.2015 H   0  0  0  0  0  0  0  0  0  0  0  0
   -1.0064    5.8687   -3.1858 H   0  0  0  0  0  0  0  0  0  0  0  0
    0.3922    4.7985   -3.4297 H   0  0  0  0  0  0  0  0  0  0  0  0
   -0.1768    5.1079   -1.7970 H   0  0  0  0  0  0  0  0  0  0  0  0
    4.3287    1.0787    2.4091 H   0  0  0  0  0  0  0  0  0  0  0  0
    5.7854    1.3893    1.4211 H   0  0  0  0  0  0  0  0  0  0  0  0
    5.2310   -0.2690    1.6854 H   0  0  0  0  0  0  0  0  0  0  0  0
    4.1143    0.3687   -1.8740 H   0  0  0  0  0  0  0  0  0  0  0  0
    4.6934   -0.9463   -0.8172 H   0  0  0  0  0  0  0  0  0  0  0  0
    5.7049    0.4813   -1.0761 H   0  0  0  0  0  0  0  0  0  0  0  0
  1  2  2  0
  1 34  1  0
  1 35  1  0
  2  3  1  0
  2  4  1  0
  3 36  1  0
  3 37  1  0
  3 38  1  0
  4  5  1  0
  4 31  2  0
  6  5  1  1
  6  7  2  0
  6  8  1  0
  6 22  1  0
  8  9  1  0
  9 10  2  0
  9 21  1  0
 10 11  1  0
 10 39  1  0
 11 12  2  0
 11 40  1  0
 12 13  1  0
 12 20  1  0
 13 14  2  0
 13 19  1  0
 14 15  1  0
 14 41  1  0
 15 16  2  0
 15 42  1  0
 16 17  1  0
 16 18  1  0
 17 43  1  0
 18 19  2  0
 18 44  1  0
 19 45  1  0
 20 21  2  0
 20 46  1  0
 21 47  1  0
 22 23  1  0
 23 24  2  0
 23 29  1  0
 24 25  1  0
 24 26  1  0
 25 48  1  0
 25 49  1  0
 25 50  1  0
 26 27  2  0
 26 51  1  0
 27 28  1  0
 27 52  1  0
 28 29  2  0
 28 53  1  0
 29 30  1  0
 30 54  1  0
 30 55  1  0
 30 56  1  0
 31 32  1  0
 31 33  1  0
 32 57  1  0
 32 58  1  0
 32 59  1  0
 33 60  1  0
 33 61  1  0
 33 62  1  0
M  END

