
     RDKit          3D

 37 39  0  0  0  0  0  0  0  0999 V2000
    0.9756   -0.0206    0.4514 C   0  0  0  0  0  0  0  0  0  0  0  0
    2.4802    0.0466    0.1110 C   0  0  2  0  0  0  0  0  0  0  0  0
    3.0256   -1.3508   -0.2628 C   0  0  0  0  0  0  0  0  0  0  0  0
    2.2047   -2.4659   -0.4669 C   0  0  0  0  0  0  0  0  0  0  0  0
    2.7147   -3.7412   -0.7817 C   0  0  0  0  0  0  0  0  0  0  0  0
    1.8511   -4.8070   -1.0295 N   0  0  0  0  0  0  0  0  0  0  0  0
    4.1069   -3.8967   -0.8891 C   0  0  0  0  0  0  0  0  0  0  0  0
    4.9470   -2.8006   -0.6960 C   0  0  0  0  0  0  0  0  0  0  0  0
    4.4087   -1.5569   -0.3918 C   0  0  0  0  0  0  0  0  0  0  0  0
    5.2653   -0.5204   -0.2409 F   0  0  0  0  0  0  0  0  0  0  0  0
    3.1524    0.4507    1.3434 N   0  0  0  0  0  0  0  0  0  0  0  0
    3.5579    1.6418    1.5277 C   0  0  0  0  0  0  0  0  0  0  0  0
    4.2214    2.0183    2.6685 N   0  0  0  0  0  0  0  0  0  0  0  0
    3.4621    2.7085    0.6840 O   0  0  0  0  0  0  0  0  0  0  0  0
    2.9104    2.5084   -0.6083 C   0  0  2  0  0  0  0  0  0  0  0  0
    3.5864    3.0358   -1.2989 H   0  0  0  0  0  0  0  0  0  0  0  0
    1.4870    3.0912   -0.7658 C   0  0  0  0  0  0  0  0  0  0  0  0
    0.8288    2.2499   -1.8841 C   0  0  0  0  0  0  0  0  0  0  0  0
    1.8510    1.1555   -2.2297 C   0  0  1  0  0  0  0  0  0  0  0  0
    1.2619   -0.0196   -2.5845 F   0  0  0  0  0  0  0  0  0  0  0  0
    2.5718    1.5610   -3.3312 F   0  0  0  0  0  0  0  0  0  0  0  0
    2.8318    1.0351   -1.0572 C   0  0  2  0  0  0  0  0  0  0  0  0
    3.8024    0.7302   -1.4624 H   0  0  0  0  0  0  0  0  0  0  0  0
    0.8390   -0.7090    1.2969 H   0  0  0  0  0  0  0  0  0  0  0  0
    0.3568   -0.3584   -0.3894 H   0  0  0  0  0  0  0  0  0  0  0  0
    0.6177    0.9639    0.7815 H   0  0  0  0  0  0  0  0  0  0  0  0
    1.1227   -2.3575   -0.3911 H   0  0  0  0  0  0  0  0  0  0  0  0
    0.9286   -4.7322   -0.6156 H   0  0  0  0  0  0  0  0  0  0  0  0
    2.2489   -5.7319   -0.9111 H   0  0  0  0  0  0  0  0  0  0  0  0
    4.5322   -4.8739   -1.1327 H   0  0  0  0  0  0  0  0  0  0  0  0
    6.0317   -2.8958   -0.7790 H   0  0  0  0  0  0  0  0  0  0  0  0
    4.1678    1.3636    3.4379 H   0  0  0  0  0  0  0  0  0  0  0  0
    4.2359    3.0047    2.8938 H   0  0  0  0  0  0  0  0  0  0  0  0
    1.5193    4.1648   -1.0004 H   0  0  0  0  0  0  0  0  0  0  0  0
    0.9455    2.9871    0.1855 H   0  0  0  0  0  0  0  0  0  0  0  0
    0.6138    2.8263   -2.7948 H   0  0  0  0  0  0  0  0  0  0  0  0
   -0.1081    1.7823   -1.5542 H   0  0  0  0  0  0  0  0  0  0  0  0
  2  1  1  1
  1 24  1  0
  1 25  1  0
  1 26  1  0
  2  3  1  0
  2 11  1  0
  2 22  1  0
  3  4  2  0
  3  9  1  0
  4  5  1  0
  4 27  1  0
  5  6  1  0
  5  7  2  0
  6 28  1  0
  6 29  1  0
  7  8  1  0
  7 30  1  0
  8  9  2  0
  8 31  1  0
  9 10  1  0
 11 12  2  0
 12 13  1  0
 12 14  1  0
 13 32  1  0
 13 33  1  0
 14 15  1  0
 15 16  1  6
 15 17  1  0
 15 22  1  0
 17 18  1  0
 17 34  1  0
 17 35  1  0
 18 19  1  0
 18 36  1  0
 18 37  1  0
 19 20  1  6
 19 21  1  0
 19 22  1  0
 22 23  1  6
M  END

