
     RDKit          3D

 49 48  0  0  0  0  0  0  0  0999 V2000
    2.4009   -1.4844    1.3587 C   0  0  0  0  0  0  0  0  0  0  0  0
    2.2692   -0.2243    0.4995 C   0  0  0  0  0  0  0  0  0  0  0  0
    2.7848    0.9938    1.1421 N   0  0  0  0  0  0  0  0  0  0  0  0
    2.0060    1.8647    1.8987 C   0  0  0  0  0  0  0  0  0  0  0  0
    2.4056    2.9287    2.3101 O   0  0  0  0  0  0  0  0  0  0  0  0
    0.7033    1.3747    2.1476 N   0  0  0  0  0  0  0  0  0  0  0  0
   -0.3701    2.0709    2.6567 C   0  0  0  0  0  0  0  0  0  0  0  0
   -1.3868    1.3035    3.0709 N   0  0  0  0  0  0  0  0  0  0  0  0
   -2.4230    1.9800    3.5522 C   0  0  0  0  0  0  0  0  0  0  0  0
   -3.4517    1.2130    3.9418 O   0  0  0  0  0  0  0  0  0  0  0  0
   -4.5800    1.8065    4.5576 C   0  0  0  0  0  0  0  0  0  0  0  0
   -4.5187    1.6094    6.0655 C   0  0  1  0  0  0  0  0  0  0  0  0
   -3.4054    2.1440    6.5865 F   0  0  0  0  0  0  0  0  0  0  0  0
   -5.5782    2.2083    6.6332 F   0  0  0  0  0  0  0  0  0  0  0  0
   -4.5461    0.3142    6.4029 F   0  0  0  0  0  0  0  0  0  0  0  0
   -2.5101    3.3047    3.6578 N   0  0  0  0  0  0  0  0  0  0  0  0
   -1.4392    3.9721    3.2075 C   0  0  0  0  0  0  0  0  0  0  0  0
   -1.5456    5.8213    3.1783 P   0  0  0  0  0  0  0  0  0  0  0  0
    0.2682    6.2243    3.4511 C   0  0  0  0  0  0  0  0  0  0  0  0
    0.6694    7.5550    2.8592 C   0  0  1  0  0  0  0  0  0  0  0  0
    0.5056    7.5834    1.5262 F   0  0  0  0  0  0  0  0  0  0  0  0
   -0.0610    8.5678    3.3723 F   0  0  0  0  0  0  0  0  0  0  0  0
    1.9601    7.8283    3.1133 F   0  0  0  0  0  0  0  0  0  0  0  0
   -0.3564    3.4069    2.6838 N   0  0  0  0  0  0  0  0  0  0  0  0
    4.1778    1.2931    1.0055 C   0  0  0  0  0  0  0  0  0  0  0  0
    4.9828    1.4897    2.1379 C   0  0  0  0  0  0  0  0  0  0  0  0
    6.3420    1.7592    1.9969 C   0  0  0  0  0  0  0  0  0  0  0  0
    6.9203    1.8259    0.7234 C   0  0  0  0  0  0  0  0  0  0  0  0
    8.4042    2.0515    0.5794 C   0  0  1  0  0  0  0  0  0  0  0  0
    8.8872    2.8383    1.5563 F   0  0  0  0  0  0  0  0  0  0  0  0
    9.0886    0.8910    0.6393 F   0  0  0  0  0  0  0  0  0  0  0  0
    8.7127    2.6259   -0.5963 F   0  0  0  0  0  0  0  0  0  0  0  0
    6.1219    1.6386   -0.4090 C   0  0  0  0  0  0  0  0  0  0  0  0
    4.7581    1.3818   -0.2678 C   0  0  0  0  0  0  0  0  0  0  0  0
    2.0288   -2.3632    0.8086 H   0  0  0  0  0  0  0  0  0  0  0  0
    1.8303   -1.4109    2.2994 H   0  0  0  0  0  0  0  0  0  0  0  0
    3.4534   -1.6685    1.6239 H   0  0  0  0  0  0  0  0  0  0  0  0
    1.2242   -0.0513    0.2020 H   0  0  0  0  0  0  0  0  0  0  0  0
    2.8221   -0.3670   -0.4394 H   0  0  0  0  0  0  0  0  0  0  0  0
    0.5338    0.3753    2.1230 H   0  0  0  0  0  0  0  0  0  0  0  0
   -5.4738    1.2912    4.1791 H   0  0  0  0  0  0  0  0  0  0  0  0
   -4.6362    2.8817    4.3453 H   0  0  0  0  0  0  0  0  0  0  0  0
   -2.0286    5.9544    4.5102 H   0  0  0  0  0  0  0  0  0  0  0  0
    0.8507    5.4263    2.9634 H   0  0  0  0  0  0  0  0  0  0  0  0
    0.5269    6.2327    4.5192 H   0  0  0  0  0  0  0  0  0  0  0  0
    4.5376    1.4441    3.1321 H   0  0  0  0  0  0  0  0  0  0  0  0
    6.9586    1.9188    2.8834 H   0  0  0  0  0  0  0  0  0  0  0  0
    6.5621    1.7135   -1.4048 H   0  0  0  0  0  0  0  0  0  0  0  0
    4.1375    1.2685   -1.1589 H   0  0  0  0  0  0  0  0  0  0  0  0
  1  2  1  0
  1 35  1  0
  1 36  1  0
  1 37  1  0
  2  3  1  0
  2 38  1  0
  2 39  1  0
  3  4  1  0
  3 25  1  0
  4  5  1  0
  4  6  2  0
  6  7  1  0
  6 40  1  0
  7  8  1  0
  7 24  2  0
  8  9  1  0
  9 10  1  0
  9 16  2  0
 10 11  1  0
 11 12  1  0
 11 41  1  0
 11 42  1  0
 12 13  1  1
 12 14  1  0
 12 15  1  0
 16 17  1  0
 17 18  2  0
 17 24  1  0
 19 20  1  0
 19 44  1  0
 19 45  1  0
 20 21  1  6
 20 22  1  0
 20 23  1  0
 25 26  2  0
 25 34  1  0
 26 27  1  0
 26 46  1  0
 27 28  2  0
 27 47  1  0
 28 29  1  0
 28 33  1  0
 29 30  1  1
 29 31  1  0
 29 32  1  0
 33 34  2  0
 33 48  1  0
 34 49  1  0
M  CHG  6   5  -1   6   1   8  -1  18  -1  19   1  43   1
M  END

