
     RDKit          3D

 60 64  0  0  0  0  0  0  0  0999 V2000
    1.6082    2.7198   -1.0730 O   0  0  0  0  0  0  0  0  0  0  0  0
    2.4274    1.8966   -0.6812 C   0  0  0  0  0  0  0  0  0  0  0  0
    3.0574    1.0339   -1.5340 N   0  0  0  0  0  0  0  0  0  0  0  0
    2.8060    1.0998   -2.9693 C   0  0  0  0  0  0  0  0  0  0  0  0
    3.5144    2.2251   -3.6683 C   0  0  0  0  0  0  0  0  0  0  0  0
    3.2302    3.5763   -3.6781 C   0  0  0  0  0  0  0  0  0  0  0  0
    4.2102    4.1205   -4.4555 N   0  0  0  0  0  0  0  0  0  0  0  0
    4.4213    5.4908   -4.7800 C   0  0  0  0  0  0  0  0  0  0  0  0
    4.1111    6.4565   -3.8140 C   0  0  0  0  0  0  0  0  0  0  0  0
    4.2712    7.8117   -4.0926 C   0  0  0  0  0  0  0  0  0  0  0  0
    4.7874    8.2109   -5.3302 C   0  0  0  0  0  0  0  0  0  0  0  0
    4.9791    9.6037   -5.6100 N   0  0  0  0  0  0  0  0  0  0  0  0
    5.6901   10.3737   -4.7208 C   0  0  0  0  0  0  0  0  0  0  0  0
    5.8592   11.7166   -4.8954 C   0  0  0  0  0  0  0  0  0  0  0  0
    5.2730   12.3296   -6.0426 C   0  0  0  0  0  0  0  0  0  0  0  0
    4.5685   11.5845   -6.9445 C   0  0  0  0  0  0  0  0  0  0  0  0
    4.3760   10.1510   -6.7961 C   0  0  0  0  0  0  0  0  0  0  0  0
    3.7614    9.4337   -7.5674 O   0  0  0  0  0  0  0  0  0  0  0  0
    5.1226    7.2446   -6.2822 C   0  0  0  0  0  0  0  0  0  0  0  0
    4.9226    5.8814   -6.0383 C   0  0  0  0  0  0  0  0  0  0  0  0
    5.4037    4.9352   -7.1286 C   0  0  0  0  0  0  0  0  0  0  0  0
    6.5962    4.9041   -7.3811 O   0  0  0  0  0  0  0  0  0  0  0  0
    4.4674    4.2108   -7.8148 N   0  0  0  0  0  0  0  0  0  0  0  0
    4.9183    3.2543   -8.8236 C   0  0  0  0  0  0  0  0  0  0  0  0
    4.2586    1.8875   -8.6097 C   0  0  0  0  0  0  0  0  0  0  0  0
    2.7269    1.9971   -8.5600 C   0  0  2  0  0  0  0  0  0  0  0  0
    2.1669    2.2770   -9.8362 O   0  0  0  0  0  0  0  0  0  0  0  0
    2.3089    3.0405   -7.5099 C   0  0  0  0  0  0  0  0  0  0  0  0
    3.0209    4.3813   -7.7272 C   0  0  0  0  0  0  0  0  0  0  0  0
    5.0530    3.1556   -4.8924 N   0  0  0  0  0  0  0  0  0  0  0  0
    4.6348    2.0247   -4.4245 N   0  0  0  0  0  0  0  0  0  0  0  0
    2.7685    1.7909    0.7633 C   0  0  0  0  0  0  0  0  0  0  0  0
    2.3443    2.6805    1.7253 C   0  0  0  0  0  0  0  0  0  0  0  0
    2.8014    2.3682    3.0344 C   0  0  0  0  0  0  0  0  0  0  0  0
    3.5718    1.2292    3.0514 C   0  0  0  0  0  0  0  0  0  0  0  0
    4.3148    0.4971    4.4219 Cl  0  0  0  0  0  0  0  0  0  0  0  0
    3.7393    0.5202    1.4734 S   0  0  0  0  0  0  0  0  0  0  0  0
    3.8757    0.5246   -1.2199 H   0  0  0  0  0  0  0  0  0  0  0  0
    1.7202    1.1953   -3.1105 H   0  0  0  0  0  0  0  0  0  0  0  0
    3.1347    0.1535   -3.4207 H   0  0  0  0  0  0  0  0  0  0  0  0
    2.4323    4.1442   -3.2107 H   0  0  0  0  0  0  0  0  0  0  0  0
    3.7475    6.1443   -2.8338 H   0  0  0  0  0  0  0  0  0  0  0  0
    3.9946    8.5574   -3.3448 H   0  0  0  0  0  0  0  0  0  0  0  0
    6.1269    9.8344   -3.8787 H   0  0  0  0  0  0  0  0  0  0  0  0
    6.4424   12.2893   -4.1744 H   0  0  0  0  0  0  0  0  0  0  0  0
    5.3942   13.4050   -6.2007 H   0  0  0  0  0  0  0  0  0  0  0  0
    4.1090   12.0244   -7.8310 H   0  0  0  0  0  0  0  0  0  0  0  0
    5.5361    7.5511   -7.2417 H   0  0  0  0  0  0  0  0  0  0  0  0
    6.0113    3.1948   -8.7600 H   0  0  0  0  0  0  0  0  0  0  0  0
    4.6783    3.6481   -9.8329 H   0  0  0  0  0  0  0  0  0  0  0  0
    4.6232    1.4627   -7.6602 H   0  0  0  0  0  0  0  0  0  0  0  0
    4.5488    1.2016   -9.4217 H   0  0  0  0  0  0  0  0  0  0  0  0
    2.3024    1.0199   -8.2789 H   0  0  0  0  0  0  0  0  0  0  0  0
    2.5756    3.0773  -10.1903 H   0  0  0  0  0  0  0  0  0  0  0  0
    2.5520    2.6566   -6.5060 H   0  0  0  0  0  0  0  0  0  0  0  0
    1.2183    3.1880   -7.5604 H   0  0  0  0  0  0  0  0  0  0  0  0
    2.7772    5.0935   -6.9290 H   0  0  0  0  0  0  0  0  0  0  0  0
    2.6579    4.8438   -8.6677 H   0  0  0  0  0  0  0  0  0  0  0  0
    1.7167    3.5343    1.4685 H   0  0  0  0  0  0  0  0  0  0  0  0
    2.5784    2.9468    3.9306 H   0  0  0  0  0  0  0  0  0  0  0  0
  1  2  2  0
  2  3  1  0
  2 32  1  0
  3  4  1  0
  3 38  1  0
  4  5  1  0
  4 39  1  0
  4 40  1  0
  5  6  2  0
  5 31  1  0
  6  7  1  0
  6 41  1  0
  7  8  1  0
  7 30  1  0
  8  9  2  0
  8 20  1  0
  9 10  1  0
  9 42  1  0
 10 11  2  0
 10 43  1  0
 11 12  1  0
 11 19  1  0
 12 13  1  0
 12 17  1  0
 13 14  2  0
 13 44  1  0
 14 15  1  0
 14 45  1  0
 15 16  2  0
 15 46  1  0
 16 17  1  0
 16 47  1  0
 17 18  2  0
 19 20  2  0
 19 48  1  0
 20 21  1  0
 21 22  2  0
 21 23  1  0
 23 24  1  0
 23 29  1  0
 24 25  1  0
 24 49  1  0
 24 50  1  0
 25 26  1  0
 25 51  1  0
 25 52  1  0
 26 27  1  0
 26 28  1  0
 26 53  1  1
 27 54  1  0
 28 29  1  0
 28 55  1  0
 28 56  1  0
 29 57  1  0
 29 58  1  0
 30 31  2  0
 32 33  2  0
 32 37  1  0
 33 34  1  0
 33 59  1  0
 34 35  2  0
 34 60  1  0
 35 36  1  0
 35 37  1  0
M  END

