
     RDKit          3D

 78 86  0  0  0  0  0  0  0  0999 V2000
    1.5670    0.2043    0.6267 N   0  0  0  0  0  0  0  0  0  0  0  0
    2.7232    0.1871    0.5364 C   0  0  0  0  0  0  0  0  0  0  0  0
    4.1595    0.1658    0.4208 C   0  0  0  0  0  0  0  0  0  0  0  0
    4.6766    0.1269   -0.8262 N   0  0  0  0  0  0  0  0  0  0  0  0
    5.9895    0.1061   -0.9149 C   0  0  0  0  0  0  0  0  0  0  0  0
    6.8264    0.1239    0.2381 C   0  0  0  0  0  0  0  0  0  0  0  0
    6.3344    0.1640    1.4584 N   0  0  0  0  0  0  0  0  0  0  0  0
    4.9883    0.1857    1.5625 C   0  0  0  0  0  0  0  0  0  0  0  0
    4.4328    0.2289    2.8916 C   0  0  0  0  0  0  0  0  0  0  0  0
    3.9888    0.2633    3.9626 N   0  0  0  0  0  0  0  0  0  0  0  0
    8.3076    0.0961   -0.0991 C   0  0  2  0  0  0  0  0  0  0  0  0
    8.5218    1.2961   -1.0251 C   0  0  0  0  0  0  0  0  0  0  0  0
    9.4103    2.3525   -0.8385 C   0  0  0  0  0  0  0  0  0  0  0  0
    9.4924    3.3718   -1.7924 C   0  0  0  0  0  0  0  0  0  0  0  0
    8.6696    3.3620   -2.9350 C   0  0  0  0  0  0  0  0  0  0  0  0
    8.7461    4.4005   -3.8909 N   0  0  0  0  0  0  0  0  0  0  0  0
    8.6142    4.1106   -5.2772 C   0  0  0  0  0  0  0  0  0  0  0  0
    7.8196    4.9260   -6.1029 C   0  0  0  0  0  0  0  0  0  0  0  0
    7.7013    4.6475   -7.4656 C   0  0  0  0  0  0  0  0  0  0  0  0
    8.3569    3.5465   -8.0260 C   0  0  0  0  0  0  0  0  0  0  0  0
    9.1430    2.7293   -7.2072 C   0  0  0  0  0  0  0  0  0  0  0  0
    9.2805    3.0104   -5.8467 C   0  0  0  0  0  0  0  0  0  0  0  0
    8.9615    5.7446   -3.4756 C   0  0  0  0  0  0  0  0  0  0  0  0
    9.8878    6.5586   -4.1514 C   0  0  0  0  0  0  0  0  0  0  0  0
   10.0877    7.8812   -3.7516 C   0  0  0  0  0  0  0  0  0  0  0  0
    9.3830    8.4095   -2.6654 C   0  0  0  0  0  0  0  0  0  0  0  0
    8.4655    7.6010   -1.9864 C   0  0  0  0  0  0  0  0  0  0  0  0
    8.2471    6.2829   -2.3902 C   0  0  0  0  0  0  0  0  0  0  0  0
    7.7579    2.2964   -3.1095 C   0  0  0  0  0  0  0  0  0  0  0  0
    7.7001    1.2764   -2.1683 C   0  0  0  0  0  0  0  0  0  0  0  0
    6.7699    0.0594   -2.2174 C   0  0  1  0  0  0  0  0  0  0  0  0
    7.6675   -1.1752   -2.0975 C   0  0  0  0  0  0  0  0  0  0  0  0
    7.7317   -2.2552   -2.9747 C   0  0  0  0  0  0  0  0  0  0  0  0
    8.6094   -3.3128   -2.7164 C   0  0  0  0  0  0  0  0  0  0  0  0
    9.4441   -3.3010   -1.5823 C   0  0  0  0  0  0  0  0  0  0  0  0
   10.3352   -4.3681   -1.3284 N   0  0  0  0  0  0  0  0  0  0  0  0
   10.5658   -4.8081    0.0054 C   0  0  0  0  0  0  0  0  0  0  0  0
    9.4931   -4.9875    0.8972 C   0  0  0  0  0  0  0  0  0  0  0  0
    9.7274   -5.4139    2.2056 C   0  0  0  0  0  0  0  0  0  0  0  0
   11.0280   -5.6866    2.6417 C   0  0  0  0  0  0  0  0  0  0  0  0
   12.0963   -5.5202    1.7545 C   0  0  0  0  0  0  0  0  0  0  0  0
   11.8725   -5.0772    0.4498 C   0  0  0  0  0  0  0  0  0  0  0  0
   11.0048   -5.0180   -2.4023 C   0  0  0  0  0  0  0  0  0  0  0  0
   11.5965   -4.2705   -3.4366 C   0  0  0  0  0  0  0  0  0  0  0  0
   12.2500   -4.9152   -4.4880 C   0  0  0  0  0  0  0  0  0  0  0  0
   12.3415   -6.3106   -4.5193 C   0  0  0  0  0  0  0  0  0  0  0  0
   11.7634   -7.0570   -3.4875 C   0  0  0  0  0  0  0  0  0  0  0  0
   11.0934   -6.4210   -2.4409 C   0  0  0  0  0  0  0  0  0  0  0  0
    9.3756   -2.2009   -0.6975 C   0  0  0  0  0  0  0  0  0  0  0  0
    8.4934   -1.1600   -0.9573 C   0  0  0  0  0  0  0  0  0  0  0  0
    8.9303    0.1139    0.8026 H   0  0  0  0  0  0  0  0  0  0  0  0
   10.0578    2.3827    0.0419 H   0  0  0  0  0  0  0  0  0  0  0  0
   10.2030    4.1877   -1.6521 H   0  0  0  0  0  0  0  0  0  0  0  0
    7.2957    5.7798   -5.6690 H   0  0  0  0  0  0  0  0  0  0  0  0
    7.0792    5.2918   -8.0923 H   0  0  0  0  0  0  0  0  0  0  0  0
    8.2570    3.3278   -9.0917 H   0  0  0  0  0  0  0  0  0  0  0  0
    9.6685    1.8705   -7.6332 H   0  0  0  0  0  0  0  0  0  0  0  0
    9.9086    2.3778   -5.2164 H   0  0  0  0  0  0  0  0  0  0  0  0
   10.4493    6.1479   -4.9927 H   0  0  0  0  0  0  0  0  0  0  0  0
   10.8114    8.5001   -4.2884 H   0  0  0  0  0  0  0  0  0  0  0  0
    9.5463    9.4430   -2.3512 H   0  0  0  0  0  0  0  0  0  0  0  0
    7.9012    8.0034   -1.1411 H   0  0  0  0  0  0  0  0  0  0  0  0
    7.5182    5.6621   -1.8656 H   0  0  0  0  0  0  0  0  0  0  0  0
    7.1026    2.2814   -3.9821 H   0  0  0  0  0  0  0  0  0  0  0  0
    6.1061    0.0429   -3.0893 H   0  0  0  0  0  0  0  0  0  0  0  0
    7.0899   -2.2894   -3.8591 H   0  0  0  0  0  0  0  0  0  0  0  0
    8.6471   -4.1628   -3.3993 H   0  0  0  0  0  0  0  0  0  0  0  0
    8.4739   -4.7921    0.5582 H   0  0  0  0  0  0  0  0  0  0  0  0
    8.8821   -5.5474    2.8858 H   0  0  0  0  0  0  0  0  0  0  0  0
   11.2071   -6.0268    3.6643 H   0  0  0  0  0  0  0  0  0  0  0  0
   13.1184   -5.7250    2.0835 H   0  0  0  0  0  0  0  0  0  0  0  0
   12.7113   -4.9374   -0.2349 H   0  0  0  0  0  0  0  0  0  0  0  0
   11.5418   -3.1804   -3.4104 H   0  0  0  0  0  0  0  0  0  0  0  0
   12.7047   -4.3186   -5.2832 H   0  0  0  0  0  0  0  0  0  0  0  0
   12.8598   -6.8118   -5.3401 H   0  0  0  0  0  0  0  0  0  0  0  0
   11.8224   -8.1484   -3.5015 H   0  0  0  0  0  0  0  0  0  0  0  0
   10.6338   -7.0094   -1.6446 H   0  0  0  0  0  0  0  0  0  0  0  0
   10.0188   -2.1731    0.1837 H   0  0  0  0  0  0  0  0  0  0  0  0
  1  2  3  0
  2  3  1  0
  3  4  2  0
  3  8  1  0
  4  5  1  0
  5  6  2  0
  5 31  1  0
  6  7  1  0
  6 11  1  0
  7  8  2  0
  8  9  1  0
  9 10  3  0
 11 12  1  0
 11 50  1  0
 11 51  1  1
 12 13  1  0
 12 30  2  0
 13 14  2  0
 13 52  1  0
 14 15  1  0
 14 53  1  0
 15 16  1  0
 15 29  2  0
 16 17  1  0
 16 23  1  0
 17 18  2  0
 17 22  1  0
 18 19  1  0
 18 54  1  0
 19 20  2  0
 19 55  1  0
 20 21  1  0
 20 56  1  0
 21 22  2  0
 21 57  1  0
 22 58  1  0
 23 24  2  0
 23 28  1  0
 24 25  1  0
 24 59  1  0
 25 26  2  0
 25 60  1  0
 26 27  1  0
 26 61  1  0
 27 28  2  0
 27 62  1  0
 28 63  1  0
 29 30  1  0
 29 64  1  0
 30 31  1  0
 31 32  1  0
 31 65  1  6
 32 33  2  0
 32 50  1  0
 33 34  1  0
 33 66  1  0
 34 35  2  0
 34 67  1  0
 35 36  1  0
 35 49  1  0
 36 37  1  0
 36 43  1  0
 37 38  2  0
 37 42  1  0
 38 39  1  0
 38 68  1  0
 39 40  2  0
 39 69  1  0
 40 41  1  0
 40 70  1  0
 41 42  2  0
 41 71  1  0
 42 72  1  0
 43 44  2  0
 43 48  1  0
 44 45  1  0
 44 73  1  0
 45 46  2  0
 45 74  1  0
 46 47  1  0
 46 75  1  0
 47 48  2  0
 47 76  1  0
 48 77  1  0
 49 50  2  0
 49 78  1  0
M  END

