
     RDKit          3D

 52 52  0  0  0  0  0  0  0  0999 V2000
    3.5944    1.0412   -0.0464 C   0  0  0  0  0  0  0  0  0  0  0  0
    2.7712    0.7951   -1.2990 C   0  0  2  0  0  0  0  0  0  0  0  0
    1.6974    0.9466   -1.0802 H   0  0  0  0  0  0  0  0  0  0  0  0
    2.9680   -0.5829   -1.6570 O   0  0  0  0  0  0  0  0  0  0  0  0
    2.3378   -1.0118   -2.8265 C   0  0  1  0  0  0  0  0  0  0  0  0
    2.6701   -2.0532   -2.9841 H   0  0  0  0  0  0  0  0  0  0  0  0
    0.9285   -0.9696   -2.7380 O   0  0  0  0  0  0  0  0  0  0  0  0
    0.2843   -2.1449   -2.2817 C   0  0  0  0  0  0  0  0  0  0  0  0
   -1.2270   -1.9507   -2.3773 C   0  0  0  0  0  0  0  0  0  0  0  0
   -1.7061   -1.3172   -3.6875 C   0  0  0  0  0  0  0  0  0  0  0  0
   -1.0590   -2.1896   -5.1696 S   0  0  0  0  0  0  0  0  0  0  0  0
   -1.8679   -1.1967   -6.4819 C   0  0  0  0  0  0  0  0  0  0  0  0
   -1.3863   -1.6384   -7.8638 C   0  0  0  0  0  0  0  0  0  0  0  0
   -2.0451   -0.8516   -9.0025 C   0  0  0  0  0  0  0  0  0  0  0  0
   -1.5656   -1.2784  -10.3935 C   0  0  0  0  0  0  0  0  0  0  0  0
   -2.2213   -0.4901  -11.5333 C   0  0  0  0  0  0  0  0  0  0  0  0
   -1.7411   -0.9281  -12.9163 C   0  0  0  0  0  0  0  0  0  0  0  0
   -2.4338    0.0419  -14.3146 S   0  0  0  0  0  0  0  0  0  0  0  0
    2.7298   -0.1475   -4.0270 C   0  0  1  0  0  0  0  0  0  0  0  0
    3.8203   -0.2353   -4.1511 H   0  0  0  0  0  0  0  0  0  0  0  0
    2.1340   -0.5730   -5.2335 O   0  0  0  0  0  0  0  0  0  0  0  0
    2.4188    1.3208   -3.7346 C   0  0  2  0  0  0  0  0  0  0  0  0
    1.3250    1.4342   -3.6037 H   0  0  0  0  0  0  0  0  0  0  0  0
    2.8857    2.1398   -4.7916 O   0  0  0  0  0  0  0  0  0  0  0  0
    3.1251    1.7549   -2.4459 C   0  0  2  0  0  0  0  0  0  0  0  0
    2.7499    2.7608   -2.1603 H   0  0  0  0  0  0  0  0  0  0  0  0
    4.5196    1.7854   -2.6522 O   0  0  0  0  0  0  0  0  0  0  0  0
    4.6624    0.9192   -0.2736 H   0  0  0  0  0  0  0  0  0  0  0  0
    3.3101    0.3252    0.7387 H   0  0  0  0  0  0  0  0  0  0  0  0
    3.4298    2.0628    0.3294 H   0  0  0  0  0  0  0  0  0  0  0  0
    0.5757   -2.3746   -1.2402 H   0  0  0  0  0  0  0  0  0  0  0  0
    0.5981   -3.0021   -2.9091 H   0  0  0  0  0  0  0  0  0  0  0  0
   -1.5692   -1.2997   -1.5547 H   0  0  0  0  0  0  0  0  0  0  0  0
   -1.7070   -2.9321   -2.2259 H   0  0  0  0  0  0  0  0  0  0  0  0
   -1.3713   -0.2702   -3.7365 H   0  0  0  0  0  0  0  0  0  0  0  0
   -2.8071   -1.3281   -3.7263 H   0  0  0  0  0  0  0  0  0  0  0  0
   -1.6341   -0.1322   -6.3127 H   0  0  0  0  0  0  0  0  0  0  0  0
   -2.9610   -1.3168   -6.3940 H   0  0  0  0  0  0  0  0  0  0  0  0
   -1.5899   -2.7161   -7.9931 H   0  0  0  0  0  0  0  0  0  0  0  0
   -0.2895   -1.5233   -7.9187 H   0  0  0  0  0  0  0  0  0  0  0  0
   -1.8487    0.2275   -8.8646 H   0  0  0  0  0  0  0  0  0  0  0  0
   -3.1429   -0.9685   -8.9428 H   0  0  0  0  0  0  0  0  0  0  0  0
   -1.7613   -2.3579  -10.5311 H   0  0  0  0  0  0  0  0  0  0  0  0
   -0.4677   -1.1622  -10.4516 H   0  0  0  0  0  0  0  0  0  0  0  0
   -2.0233    0.5886  -11.4100 H   0  0  0  0  0  0  0  0  0  0  0  0
   -3.3191   -0.6056  -11.4770 H   0  0  0  0  0  0  0  0  0  0  0  0
   -1.9384   -1.9987  -13.0862 H   0  0  0  0  0  0  0  0  0  0  0  0
   -0.6514   -0.7903  -13.0091 H   0  0  0  0  0  0  0  0  0  0  0  0
   -3.7218   -0.3411  -14.1490 H   0  0  0  0  0  0  0  0  0  0  0  0
    1.2219   -0.8648   -5.0446 H   0  0  0  0  0  0  0  0  0  0  0  0
    2.6922    1.6557   -5.6098 H   0  0  0  0  0  0  0  0  0  0  0  0
    4.6401    2.1814   -3.5301 H   0  0  0  0  0  0  0  0  0  0  0  0
  1  2  1  0
  1 28  1  0
  1 29  1  0
  1 30  1  0
  2  3  1  1
  2  4  1  0
  2 25  1  0
  4  5  1  0
  5  6  1  6
  5  7  1  0
  5 19  1  0
  7  8  1  0
  8  9  1  0
  8 31  1  0
  8 32  1  0
  9 10  1  0
  9 33  1  0
  9 34  1  0
 10 11  1  0
 10 35  1  0
 10 36  1  0
 11 12  1  0
 12 13  1  0
 12 37  1  0
 12 38  1  0
 13 14  1  0
 13 39  1  0
 13 40  1  0
 14 15  1  0
 14 41  1  0
 14 42  1  0
 15 16  1  0
 15 43  1  0
 15 44  1  0
 16 17  1  0
 16 45  1  0
 16 46  1  0
 17 18  1  0
 17 47  1  0
 17 48  1  0
 18 49  1  0
 19 20  1  6
 19 21  1  0
 19 22  1  0
 21 50  1  0
 22 23  1  1
 22 24  1  0
 22 25  1  0
 24 51  1  0
 25 26  1  1
 25 27  1  0
 27 52  1  0
M  END

