
     RDKit          3D

 24 25  0  0  0  0  0  0  0  0999 V2000
    0.9669   -0.1127    0.0860 C   0  0  0  0  0  0  0  0  0  0  0  0
    2.4121   -0.0612    0.0907 N   0  0  0  0  0  0  0  0  0  0  0  0
    3.2767   -1.1304    0.0866 C   0  0  0  0  0  0  0  0  0  0  0  0
    4.5344   -0.7615    0.0853 N   0  0  0  0  0  0  0  0  0  0  0  0
    4.5074    0.6121    0.0844 C   0  0  0  0  0  0  0  0  0  0  0  0
    3.2050    1.0711    0.0957 C   0  0  0  0  0  0  0  0  0  0  0  0
    2.7570    2.4968    0.0607 C   0  0  0  0  0  0  0  0  0  0  0  0
    3.9675    3.4028    0.3595 C   0  0  0  0  0  0  0  0  0  0  0  0
    5.2342    2.9330   -0.3725 C   0  0  0  0  0  0  0  0  0  0  0  0
    5.7050    1.5239    0.0838 C   0  0  1  0  0  0  0  0  0  0  0  0
    6.3832    1.4811    1.3814 N   0  0  0  0  0  0  0  0  0  0  0  0
    0.6438   -1.1628    0.1016 H   0  0  0  0  0  0  0  0  0  0  0  0
    0.5501    0.3642   -0.8163 H   0  0  0  0  0  0  0  0  0  0  0  0
    0.5450    0.3912    0.9708 H   0  0  0  0  0  0  0  0  0  0  0  0
    2.9074   -2.1575    0.0851 H   0  0  0  0  0  0  0  0  0  0  0  0
    1.9458    2.6907    0.7851 H   0  0  0  0  0  0  0  0  0  0  0  0
    2.3398    2.7457   -0.9351 H   0  0  0  0  0  0  0  0  0  0  0  0
    4.1617    3.3981    1.4470 H   0  0  0  0  0  0  0  0  0  0  0  0
    3.7298    4.4449    0.0926 H   0  0  0  0  0  0  0  0  0  0  0  0
    6.0522    3.6555   -0.2113 H   0  0  0  0  0  0  0  0  0  0  0  0
    5.0409    2.9152   -1.4609 H   0  0  0  0  0  0  0  0  0  0  0  0
    6.4280    1.1446   -0.6597 H   0  0  0  0  0  0  0  0  0  0  0  0
    5.7458    1.7417    2.1339 H   0  0  0  0  0  0  0  0  0  0  0  0
    7.1624    2.1402    1.4020 H   0  0  0  0  0  0  0  0  0  0  0  0
  1  2  1  0
  1 12  1  0
  1 13  1  0
  1 14  1  0
  2  3  1  0
  2  6  1  0
  3  4  2  0
  3 15  1  0
  4  5  1  0
  5  6  2  0
  5 10  1  0
  6  7  1  0
  7  8  1  0
  7 16  1  0
  7 17  1  0
  8  9  1  0
  8 18  1  0
  8 19  1  0
  9 10  1  0
  9 20  1  0
  9 21  1  0
 10 11  1  0
 10 22  1  6
 11 23  1  0
 11 24  1  0
M  END

