
     RDKit          3D

 51 56  0  0  0  0  0  0  0  0999 V2000
    6.0035    3.0541   -1.4512 C   0  0  0  0  0  0  0  0  0  0  0  0
    5.4136    1.7282   -1.8685 C   0  0  0  0  0  0  0  0  0  0  0  0
    4.4089    1.6540   -2.8450 C   0  0  0  0  0  0  0  0  0  0  0  0
    3.8912    0.4189   -3.2445 C   0  0  0  0  0  0  0  0  0  0  0  0
    4.3618   -0.7635   -2.6700 C   0  0  0  0  0  0  0  0  0  0  0  0
    5.3602   -0.7171   -1.6831 C   0  0  0  0  0  0  0  0  0  0  0  0
    5.8965   -1.9778   -1.0818 C   0  0  0  0  0  0  0  0  0  0  0  0
    7.1155   -2.4896   -1.5239 C   0  0  0  0  0  0  0  0  0  0  0  0
    7.6188   -3.7058   -0.9913 C   0  0  0  0  0  0  0  0  0  0  0  0
    7.0034   -4.4319   -0.0632 N   0  0  0  0  0  0  0  0  0  0  0  0
    5.8489   -3.9353    0.3618 C   0  0  0  0  0  0  0  0  0  0  0  0
    4.8897   -4.7510    1.5888 S   0  0  0  0  0  0  0  0  0  0  0  0
    3.6805   -3.4831    1.5244 C   0  0  0  0  0  0  0  0  0  0  0  0
    3.9739   -2.4868    0.6288 C   0  0  0  0  0  0  0  0  0  0  0  0
    5.2212   -2.7268   -0.0760 C   0  0  0  0  0  0  0  0  0  0  0  0
    3.0499   -1.3012    0.4619 C   0  0  0  0  0  0  0  0  0  0  0  0
    2.0344   -1.1920    1.6080 C   0  0  0  0  0  0  0  0  0  0  0  0
    1.3846   -2.5418    1.9456 C   0  0  2  0  0  0  0  0  0  0  0  0
    0.2654   -2.4105    2.9805 C   0  0  0  0  0  0  0  0  0  0  0  0
    2.4681   -3.5312    2.4111 C   0  0  0  0  0  0  0  0  0  0  0  0
    8.8963   -4.0177   -1.6425 C   0  0  0  0  0  0  0  0  0  0  0  0
    9.7685   -5.0948   -1.4593 C   0  0  0  0  0  0  0  0  0  0  0  0
   10.9356   -5.1440   -2.2265 C   0  0  0  0  0  0  0  0  0  0  0  0
   11.2209   -4.1340   -3.1579 C   0  0  0  0  0  0  0  0  0  0  0  0
   10.3439   -3.0559   -3.3395 C   0  0  0  0  0  0  0  0  0  0  0  0
    9.1777   -3.0001   -2.5781 C   0  0  0  0  0  0  0  0  0  0  0  0
    8.0714   -1.9625   -2.5735 C   0  0  0  0  0  0  0  0  0  0  0  0
    5.8773    0.5302   -1.3010 C   0  0  0  0  0  0  0  0  0  0  0  0
    5.3377    3.8919   -1.7071 H   0  0  0  0  0  0  0  0  0  0  0  0
    6.9687    3.2353   -1.9558 H   0  0  0  0  0  0  0  0  0  0  0  0
    6.1955    3.0887   -0.3673 H   0  0  0  0  0  0  0  0  0  0  0  0
    4.0289    2.5739   -3.2984 H   0  0  0  0  0  0  0  0  0  0  0  0
    3.1116    0.3784   -4.0098 H   0  0  0  0  0  0  0  0  0  0  0  0
    3.9562   -1.7286   -2.9834 H   0  0  0  0  0  0  0  0  0  0  0  0
    3.6343   -0.3714    0.3904 H   0  0  0  0  0  0  0  0  0  0  0  0
    2.5159   -1.3810   -0.5021 H   0  0  0  0  0  0  0  0  0  0  0  0
    1.2592   -0.4536    1.3436 H   0  0  0  0  0  0  0  0  0  0  0  0
    2.5368   -0.8052    2.5142 H   0  0  0  0  0  0  0  0  0  0  0  0
    0.9467   -2.9438    1.0122 H   0  0  0  0  0  0  0  0  0  0  0  0
    0.6455   -1.9802    3.9228 H   0  0  0  0  0  0  0  0  0  0  0  0
   -0.1809   -3.3900    3.2183 H   0  0  0  0  0  0  0  0  0  0  0  0
   -0.5412   -1.7542    2.6160 H   0  0  0  0  0  0  0  0  0  0  0  0
    2.0592   -4.5561    2.4454 H   0  0  0  0  0  0  0  0  0  0  0  0
    2.7611   -3.2918    3.4522 H   0  0  0  0  0  0  0  0  0  0  0  0
    9.5302   -5.8722   -0.7299 H   0  0  0  0  0  0  0  0  0  0  0  0
   11.6339   -5.9757   -2.1018 H   0  0  0  0  0  0  0  0  0  0  0  0
   12.1385   -4.1892   -3.7496 H   0  0  0  0  0  0  0  0  0  0  0  0
   10.5756   -2.2745   -4.0689 H   0  0  0  0  0  0  0  0  0  0  0  0
    7.5855   -1.8694   -3.5612 H   0  0  0  0  0  0  0  0  0  0  0  0
    8.4504   -0.9558   -2.3254 H   0  0  0  0  0  0  0  0  0  0  0  0
    6.6541    0.5673   -0.5313 H   0  0  0  0  0  0  0  0  0  0  0  0
  1  2  1  0
  1 29  1  0
  1 30  1  0
  1 31  1  0
  2  3  2  0
  2 28  1  0
  3  4  1  0
  3 32  1  0
  4  5  2  0
  4 33  1  0
  5  6  1  0
  5 34  1  0
  6  7  1  0
  6 28  2  0
  7  8  2  0
  7 15  1  0
  8  9  1  0
  8 27  1  0
  9 10  2  0
  9 21  1  0
 10 11  1  0
 11 12  1  0
 11 15  2  0
 12 13  1  0
 13 14  2  0
 13 20  1  0
 14 15  1  0
 14 16  1  0
 16 17  1  0
 16 35  1  0
 16 36  1  0
 17 18  1  0
 17 37  1  0
 17 38  1  0
 18 19  1  0
 18 20  1  0
 18 39  1  6
 19 40  1  0
 19 41  1  0
 19 42  1  0
 20 43  1  0
 20 44  1  0
 21 22  2  0
 21 26  1  0
 22 23  1  0
 22 45  1  0
 23 24  2  0
 23 46  1  0
 24 25  1  0
 24 47  1  0
 25 26  2  0
 25 48  1  0
 26 27  1  0
 27 49  1  0
 27 50  1  0
 28 51  1  0
M  END

