
     RDKit          3D

 40 41  0  0  0  0  0  0  0  0999 V2000
    5.5287    2.3255    0.3306 C   0  0  0  0  0  0  0  0  0  0  0  0
    4.7289    1.2082   -0.3031 C   0  0  0  0  0  0  0  0  0  0  0  0
    3.5238    1.5160   -0.9517 C   0  0  0  0  0  0  0  0  0  0  0  0
    2.7593    0.5141   -1.5474 C   0  0  0  0  0  0  0  0  0  0  0  0
    3.1754   -0.8148   -1.5137 C   0  0  0  0  0  0  0  0  0  0  0  0
    4.3788   -1.1424   -0.8667 C   0  0  0  0  0  0  0  0  0  0  0  0
    4.8547   -2.4677   -0.7918 N   0  0  0  0  0  0  0  0  0  0  0  0
    4.2810   -3.6317   -1.2809 C   0  0  0  0  0  0  0  0  0  0  0  0
    3.2400   -3.6780   -1.9184 O   0  0  0  0  0  0  0  0  0  0  0  0
    5.0280   -4.7605   -0.9930 N   0  0  0  0  0  0  0  0  0  0  0  0
    4.5494   -6.1005   -1.3388 C   0  0  1  0  0  0  0  0  0  0  0  0
    5.6886   -6.9249   -1.9410 C   0  0  0  0  0  0  0  0  0  0  0  0
    3.8342   -6.7531   -0.1522 C   0  0  0  0  0  0  0  0  0  0  0  0
    2.5560   -6.2881    0.2075 C   0  0  0  0  0  0  0  0  0  0  0  0
    1.8868   -6.8304    1.3049 C   0  0  0  0  0  0  0  0  0  0  0  0
    2.4717   -7.8461    2.0687 C   0  0  0  0  0  0  0  0  0  0  0  0
    3.7383   -8.3067    1.7086 C   0  0  0  0  0  0  0  0  0  0  0  0
    4.4941   -9.5811    2.6445 Cl  0  0  0  0  0  0  0  0  0  0  0  0
    4.4198   -7.7734    0.6090 C   0  0  0  0  0  0  0  0  0  0  0  0
    5.1667   -0.1331   -0.2540 C   0  0  0  0  0  0  0  0  0  0  0  0
    6.4554   -0.5183    0.4388 C   0  0  0  0  0  0  0  0  0  0  0  0
    5.0297    3.2933    0.1782 H   0  0  0  0  0  0  0  0  0  0  0  0
    6.5419    2.4069   -0.0976 H   0  0  0  0  0  0  0  0  0  0  0  0
    5.6488    2.1855    1.4183 H   0  0  0  0  0  0  0  0  0  0  0  0
    3.1866    2.5552   -0.9879 H   0  0  0  0  0  0  0  0  0  0  0  0
    1.8229    0.7679   -2.0512 H   0  0  0  0  0  0  0  0  0  0  0  0
    2.5925   -1.6047   -1.9801 H   0  0  0  0  0  0  0  0  0  0  0  0
    5.7675   -2.5693   -0.3696 H   0  0  0  0  0  0  0  0  0  0  0  0
    5.7171   -4.7098   -0.2500 H   0  0  0  0  0  0  0  0  0  0  0  0
    3.7915   -5.9268   -2.1157 H   0  0  0  0  0  0  0  0  0  0  0  0
    6.5319   -7.0407   -1.2400 H   0  0  0  0  0  0  0  0  0  0  0  0
    6.0725   -6.4241   -2.8417 H   0  0  0  0  0  0  0  0  0  0  0  0
    5.3438   -7.9317   -2.2216 H   0  0  0  0  0  0  0  0  0  0  0  0
    2.0947   -5.4934   -0.3839 H   0  0  0  0  0  0  0  0  0  0  0  0
    0.8923   -6.4636    1.5717 H   0  0  0  0  0  0  0  0  0  0  0  0
    1.9560   -8.2791    2.9273 H   0  0  0  0  0  0  0  0  0  0  0  0
    5.4039   -8.1719    0.3615 H   0  0  0  0  0  0  0  0  0  0  0  0
    7.1823   -0.9701   -0.2618 H   0  0  0  0  0  0  0  0  0  0  0  0
    6.2831   -1.2509    1.2485 H   0  0  0  0  0  0  0  0  0  0  0  0
    6.9562    0.3428    0.8954 H   0  0  0  0  0  0  0  0  0  0  0  0
  1  2  1  0
  1 22  1  0
  1 23  1  0
  1 24  1  0
  2  3  2  0
  2 20  1  0
  3  4  1  0
  3 25  1  0
  4  5  2  0
  4 26  1  0
  5  6  1  0
  5 27  1  0
  6  7  1  0
  6 20  2  0
  7  8  1  0
  7 28  1  0
  8  9  2  0
  8 10  1  0
 10 11  1  0
 10 29  1  0
 11 12  1  0
 11 13  1  0
 11 30  1  6
 12 31  1  0
 12 32  1  0
 12 33  1  0
 13 14  2  0
 13 19  1  0
 14 15  1  0
 14 34  1  0
 15 16  2  0
 15 35  1  0
 16 17  1  0
 16 36  1  0
 17 18  1  0
 17 19  2  0
 19 37  1  0
 20 21  1  0
 21 38  1  0
 21 39  1  0
 21 40  1  0
M  END

