
     RDKit          3D

 48 51  0  0  0  0  0  0  0  0999 V2000
    2.7011   -0.7672   -0.1742 C   0  0  0  0  0  0  0  0  0  0  0  0
    2.5033    0.0660   -1.4421 C   0  0  2  0  0  0  0  0  0  0  0  0
    1.4279    0.3153   -1.5208 H   0  0  0  0  0  0  0  0  0  0  0  0
    2.8830   -0.7106   -2.7164 C   0  0  0  0  0  0  0  0  0  0  0  0
    2.6505    0.1083   -3.9929 C   0  0  0  0  0  0  0  0  0  0  0  0
    3.3723    1.4607   -3.9358 C   0  0  0  0  0  0  0  0  0  0  0  0
    2.9963    2.2412   -2.6691 C   0  0  0  0  0  0  0  0  0  0  0  0
    3.2359    1.4331   -1.3791 C   0  0  2  0  0  0  0  0  0  0  0  0
    2.8443    1.9967   -0.5207 H   0  0  0  0  0  0  0  0  0  0  0  0
    4.6638    1.2926   -1.1028 N   0  0  0  0  0  0  0  0  0  0  0  0
    5.2275    1.6652    0.0853 C   0  0  0  0  0  0  0  0  0  0  0  0
    4.5857    2.1214    1.0248 O   0  0  0  0  0  0  0  0  0  0  0  0
    6.6988    1.4870    0.1991 C   0  0  0  0  0  0  0  0  0  0  0  0
    7.6530    1.1011   -0.7111 C   0  0  0  0  0  0  0  0  0  0  0  0
    8.9665    1.0688   -0.1423 C   0  0  0  0  0  0  0  0  0  0  0  0
   10.3628    0.8335   -0.3979 C   0  0  0  0  0  0  0  0  0  0  0  0
   11.0876    0.4431   -1.6213 C   0  0  0  0  0  0  0  0  0  0  0  0
   12.4881    0.6013   -1.6929 C   0  0  0  0  0  0  0  0  0  0  0  0
   13.2099    0.2358   -2.8267 C   0  0  0  0  0  0  0  0  0  0  0  0
   12.5502   -0.3042   -3.9370 C   0  0  0  0  0  0  0  0  0  0  0  0
   11.1666   -0.4782   -3.8968 C   0  0  0  0  0  0  0  0  0  0  0  0
   10.4666   -0.1089   -2.7515 C   0  0  0  0  0  0  0  0  0  0  0  0
    9.1319   -0.3107   -2.7475 F   0  0  0  0  0  0  0  0  0  0  0  0
   11.0666    1.0661    0.7138 N   0  0  0  0  0  0  0  0  0  0  0  0
   10.2027    1.4509    1.6769 N   0  0  0  0  0  0  0  0  0  0  0  0
   10.6662    1.7008    3.0240 C   0  0  0  0  0  0  0  0  0  0  0  0
    8.9340    1.4564    1.2047 C   0  0  0  0  0  0  0  0  0  0  0  0
    7.3574    1.8472    1.8076 S   0  0  0  0  0  0  0  0  0  0  0  0
    3.7516   -1.0822   -0.0649 H   0  0  0  0  0  0  0  0  0  0  0  0
    2.0817   -1.6782   -0.2026 H   0  0  0  0  0  0  0  0  0  0  0  0
    2.4335   -0.1967    0.7286 H   0  0  0  0  0  0  0  0  0  0  0  0
    2.3115   -1.6534   -2.7579 H   0  0  0  0  0  0  0  0  0  0  0  0
    3.9472   -1.0106   -2.6568 H   0  0  0  0  0  0  0  0  0  0  0  0
    1.5659    0.2847   -4.1155 H   0  0  0  0  0  0  0  0  0  0  0  0
    2.9727   -0.4631   -4.8796 H   0  0  0  0  0  0  0  0  0  0  0  0
    3.1411    2.0608   -4.8316 H   0  0  0  0  0  0  0  0  0  0  0  0
    4.4664    1.2953   -3.9643 H   0  0  0  0  0  0  0  0  0  0  0  0
    1.9241    2.5016   -2.7135 H   0  0  0  0  0  0  0  0  0  0  0  0
    3.5507    3.1921   -2.6130 H   0  0  0  0  0  0  0  0  0  0  0  0
    5.2575    0.8781   -1.8094 H   0  0  0  0  0  0  0  0  0  0  0  0
    7.4364    0.8514   -1.7480 H   0  0  0  0  0  0  0  0  0  0  0  0
   12.9936    1.0247   -0.8242 H   0  0  0  0  0  0  0  0  0  0  0  0
   14.2931    0.3763   -2.8471 H   0  0  0  0  0  0  0  0  0  0  0  0
   13.1087   -0.5898   -4.8315 H   0  0  0  0  0  0  0  0  0  0  0  0
   10.6110   -0.9021   -4.7356 H   0  0  0  0  0  0  0  0  0  0  0  0
   11.7141    2.0214    2.9720 H   0  0  0  0  0  0  0  0  0  0  0  0
   10.5966    0.7948    3.6493 H   0  0  0  0  0  0  0  0  0  0  0  0
   10.0620    2.4985    3.4806 H   0  0  0  0  0  0  0  0  0  0  0  0
  1  2  1  0
  1 29  1  0
  1 30  1  0
  1 31  1  0
  2  3  1  6
  2  4  1  0
  2  8  1  0
  4  5  1  0
  4 32  1  0
  4 33  1  0
  5  6  1  0
  5 34  1  0
  5 35  1  0
  6  7  1  0
  6 36  1  0
  6 37  1  0
  7  8  1  0
  7 38  1  0
  7 39  1  0
  8  9  1  1
  8 10  1  0
 10 11  1  0
 10 40  1  0
 11 12  2  0
 11 13  1  0
 13 14  2  0
 13 28  1  0
 14 15  1  0
 14 41  1  0
 15 16  1  0
 15 27  2  0
 16 17  1  0
 16 24  2  0
 17 18  2  0
 17 22  1  0
 18 19  1  0
 18 42  1  0
 19 20  2  0
 19 43  1  0
 20 21  1  0
 20 44  1  0
 21 22  2  0
 21 45  1  0
 22 23  1  0
 24 25  1  0
 25 26  1  0
 25 27  1  0
 26 46  1  0
 26 47  1  0
 26 48  1  0
 27 28  1  0
M  END

