
     RDKit          3D

 44 44  0  0  0  0  0  0  0  0999 V2000
    1.1968   -1.7569    3.3121 C   0  0  0  0  0  0  0  0  0  0  0  0
    2.7072   -1.5316    3.2157 C   0  0  0  0  0  0  0  0  0  0  0  0
    3.1814   -0.8579    1.9162 C   0  0  1  0  0  0  0  0  0  0  0  0
    2.5963    0.5476    1.6898 C   0  0  0  0  0  0  0  0  0  0  0  0
    3.0730    1.8534    2.9021 S   0  0  0  0  0  0  0  0  0  0  0  0
    4.7088   -0.8288    1.8122 C   0  0  0  0  0  0  0  0  0  0  0  0
    5.1944   -2.1575    1.7165 O   0  0  0  0  0  0  0  0  0  0  0  0
    6.5370   -2.3807    1.5745 C   0  0  0  0  0  0  0  0  0  0  0  0
    7.4681   -1.3352    1.6195 C   0  0  0  0  0  0  0  0  0  0  0  0
    8.8362   -1.5851    1.4740 C   0  0  0  0  0  0  0  0  0  0  0  0
    9.3051   -2.8826    1.2789 C   0  0  0  0  0  0  0  0  0  0  0  0
   10.7760   -3.1873    1.1246 C   0  0  0  0  0  0  0  0  0  0  0  0
    8.3531   -3.9170    1.2337 C   0  0  0  0  0  0  0  0  0  0  0  0
    6.9735   -3.7225    1.3735 C   0  0  0  0  0  0  0  0  0  0  0  0
    5.9876   -4.9121    1.3104 C   0  0  1  0  0  0  0  0  0  0  0  0
    5.2328   -5.0436    2.6547 C   0  0  0  0  0  0  0  0  0  0  0  0
    4.9837   -4.7139    0.1490 C   0  0  0  0  0  0  0  0  0  0  0  0
    6.7116   -6.2505    1.0617 C   0  0  0  0  0  0  0  0  0  0  0  0
    0.9404   -2.3110    4.2289 H   0  0  0  0  0  0  0  0  0  0  0  0
    0.8226   -2.3441    2.4566 H   0  0  0  0  0  0  0  0  0  0  0  0
    0.6293   -0.8120    3.3368 H   0  0  0  0  0  0  0  0  0  0  0  0
    3.2218   -2.5010    3.2993 H   0  0  0  0  0  0  0  0  0  0  0  0
    3.0548   -0.9312    4.0755 H   0  0  0  0  0  0  0  0  0  0  0  0
    2.8181   -1.4681    1.0669 H   0  0  0  0  0  0  0  0  0  0  0  0
    1.4996    0.5094    1.6319 H   0  0  0  0  0  0  0  0  0  0  0  0
    2.9446    0.9491    0.7251 H   0  0  0  0  0  0  0  0  0  0  0  0
    2.3231    1.4111    3.9373 H   0  0  0  0  0  0  0  0  0  0  0  0
    5.1379   -0.3189    2.6928 H   0  0  0  0  0  0  0  0  0  0  0  0
    5.0146   -0.2549    0.9167 H   0  0  0  0  0  0  0  0  0  0  0  0
    7.1367   -0.3092    1.7730 H   0  0  0  0  0  0  0  0  0  0  0  0
    9.5381   -0.7472    1.5147 H   0  0  0  0  0  0  0  0  0  0  0  0
   11.3795   -2.2671    1.1181 H   0  0  0  0  0  0  0  0  0  0  0  0
   10.9816   -3.7292    0.1861 H   0  0  0  0  0  0  0  0  0  0  0  0
   11.1466   -3.8220    1.9480 H   0  0  0  0  0  0  0  0  0  0  0  0
    8.7261   -4.9294    1.0775 H   0  0  0  0  0  0  0  0  0  0  0  0
    4.6688   -4.1338    2.8933 H   0  0  0  0  0  0  0  0  0  0  0  0
    5.9383   -5.2349    3.4793 H   0  0  0  0  0  0  0  0  0  0  0  0
    4.5249   -5.8883    2.6134 H   0  0  0  0  0  0  0  0  0  0  0  0
    4.3947   -3.7970    0.2722 H   0  0  0  0  0  0  0  0  0  0  0  0
    4.2875   -5.5678    0.0999 H   0  0  0  0  0  0  0  0  0  0  0  0
    5.5132   -4.6561   -0.8157 H   0  0  0  0  0  0  0  0  0  0  0  0
    7.4235   -6.4952    1.8654 H   0  0  0  0  0  0  0  0  0  0  0  0
    7.2565   -6.2575    0.1048 H   0  0  0  0  0  0  0  0  0  0  0  0
    5.9687   -7.0626    1.0232 H   0  0  0  0  0  0  0  0  0  0  0  0
  1  2  1  0
  1 19  1  0
  1 20  1  0
  1 21  1  0
  2  3  1  0
  2 22  1  0
  2 23  1  0
  3  4  1  0
  3  6  1  0
  3 24  1  6
  4  5  1  0
  4 25  1  0
  4 26  1  0
  5 27  1  0
  6  7  1  0
  6 28  1  0
  6 29  1  0
  7  8  1  0
  8  9  2  0
  8 14  1  0
  9 10  1  0
  9 30  1  0
 10 11  2  0
 10 31  1  0
 11 12  1  0
 11 13  1  0
 12 32  1  0
 12 33  1  0
 12 34  1  0
 13 14  2  0
 13 35  1  0
 14 15  1  0
 15 16  1  1
 15 17  1  0
 15 18  1  0
 16 36  1  0
 16 37  1  0
 16 38  1  0
 17 39  1  0
 17 40  1  0
 17 41  1  0
 18 42  1  0
 18 43  1  0
 18 44  1  0
M  END

