
     RDKit          3D

 66 67  0  0  0  0  0  0  0  0999 V2000
    1.5034   -0.5584   -0.3540 C   0  0  0  0  0  0  0  0  0  0  0  0
    3.0089   -0.2955   -0.2244 C   0  0  1  0  0  0  0  0  0  0  0  0
    3.8020   -1.6075   -0.2883 C   0  0  0  0  0  0  0  0  0  0  0  0
    3.4977    0.6868   -1.3208 C   0  0  1  0  0  0  0  0  0  0  0  0
    2.7699    1.9656   -1.3271 N   0  0  0  0  0  0  0  0  0  0  0  0
    2.7217    2.9033   -0.3557 C   0  0  0  0  0  0  0  0  0  0  0  0
    3.4074    2.8500    0.6761 O   0  0  0  0  0  0  0  0  0  0  0  0
    1.7407    4.0763   -0.6010 C   0  0  1  0  0  0  0  0  0  0  0  0
    1.8383    4.7130   -1.8994 N   0  0  0  0  0  0  0  0  0  0  0  0
    0.2750    3.6597   -0.3675 C   0  0  0  0  0  0  0  0  0  0  0  0
   -0.1128    3.1735    1.0005 C   0  0  0  0  0  0  0  0  0  0  0  0
    0.6433    3.1000    2.1510 C   0  0  0  0  0  0  0  0  0  0  0  0
   -0.1323    2.6367    3.1954 N   0  0  0  0  0  0  0  0  0  0  0  0
    0.1982    2.4835    4.1380 H   0  0  0  0  0  0  0  0  0  0  0  0
   -1.4119    2.3953    2.7475 C   0  0  0  0  0  0  0  0  0  0  0  0
   -2.5449    1.9220    3.4236 C   0  0  0  0  0  0  0  0  0  0  0  0
   -3.7218    1.7814    2.6925 C   0  0  0  0  0  0  0  0  0  0  0  0
   -3.7730    2.1057    1.3191 C   0  0  0  0  0  0  0  0  0  0  0  0
   -2.6464    2.5760    0.6504 C   0  0  0  0  0  0  0  0  0  0  0  0
   -1.4398    2.7254    1.3616 C   0  0  0  0  0  0  0  0  0  0  0  0
    5.0326    0.8911   -1.3581 C   0  0  0  0  0  0  0  0  0  0  0  0
    5.6713    0.6334   -2.3621 O   0  0  0  0  0  0  0  0  0  0  0  0
    5.5920    1.3413   -0.1941 N   0  0  0  0  0  0  0  0  0  0  0  0
    6.9888    1.6888   -0.1098 C   0  0  0  0  0  0  0  0  0  0  0  0
    7.3179    3.1814   -0.1213 C   0  0  0  0  0  0  0  0  0  0  0  0
    8.4530    3.5441   -0.4474 O   0  0  0  0  0  0  0  0  0  0  0  0
    6.3615    4.0490    0.2734 N   0  0  0  0  0  0  0  0  0  0  0  0
    6.4724    5.5030    0.0858 C   0  0  1  0  0  0  0  0  0  0  0  0
    5.0952    6.1483    0.2764 C   0  0  0  0  0  0  0  0  0  0  0  0
    4.9504    7.4973   -0.4231 C   0  0  0  0  0  0  0  0  0  0  0  0
    4.7817    7.3667   -1.9314 C   0  0  0  0  0  0  0  0  0  0  0  0
    4.4320    6.3553   -2.4879 O   0  0  0  0  0  0  0  0  0  0  0  0
    5.0103    8.4826   -2.6474 O   0  0  0  0  0  0  0  0  0  0  0  0
    7.5251    6.1830    1.0114 C   0  0  0  0  0  0  0  0  0  0  0  0
    7.2369    7.1406    1.6903 O   0  0  0  0  0  0  0  0  0  0  0  0
    8.7500    5.6914    0.9573 O   0  0  0  0  0  0  0  0  0  0  0  0
    1.1664   -1.2566    0.4280 H   0  0  0  0  0  0  0  0  0  0  0  0
    1.2635   -1.0140   -1.3304 H   0  0  0  0  0  0  0  0  0  0  0  0
    0.9103    0.3615   -0.2472 H   0  0  0  0  0  0  0  0  0  0  0  0
    3.1863    0.1735    0.7581 H   0  0  0  0  0  0  0  0  0  0  0  0
    3.6840   -2.0968   -1.2698 H   0  0  0  0  0  0  0  0  0  0  0  0
    3.4412   -2.3096    0.4793 H   0  0  0  0  0  0  0  0  0  0  0  0
    4.8778   -1.4527   -0.1179 H   0  0  0  0  0  0  0  0  0  0  0  0
    3.2876    0.2311   -2.2988 H   0  0  0  0  0  0  0  0  0  0  0  0
    2.2510    2.1815   -2.1704 H   0  0  0  0  0  0  0  0  0  0  0  0
    2.0168    4.8156    0.1684 H   0  0  0  0  0  0  0  0  0  0  0  0
    1.4342    4.1724   -2.6613 H   0  0  0  0  0  0  0  0  0  0  0  0
    2.7722    5.0389   -2.1500 H   0  0  0  0  0  0  0  0  0  0  0  0
    0.0061    2.8918   -1.1197 H   0  0  0  0  0  0  0  0  0  0  0  0
   -0.3281    4.5455   -0.6331 H   0  0  0  0  0  0  0  0  0  0  0  0
    1.6976    3.3233    2.2963 H   0  0  0  0  0  0  0  0  0  0  0  0
   -2.5086    1.6725    4.4872 H   0  0  0  0  0  0  0  0  0  0  0  0
   -4.6226    1.4149    3.1913 H   0  0  0  0  0  0  0  0  0  0  0  0
   -4.7141    1.9857    0.7767 H   0  0  0  0  0  0  0  0  0  0  0  0
   -2.7007    2.8266   -0.4124 H   0  0  0  0  0  0  0  0  0  0  0  0
    4.9405    1.6480    0.5286 H   0  0  0  0  0  0  0  0  0  0  0  0
    7.5067    1.2520   -0.9741 H   0  0  0  0  0  0  0  0  0  0  0  0
    7.4495    1.2642    0.7998 H   0  0  0  0  0  0  0  0  0  0  0  0
    5.4331    3.6929    0.4999 H   0  0  0  0  0  0  0  0  0  0  0  0
    6.8280    5.6661   -0.9495 H   0  0  0  0  0  0  0  0  0  0  0  0
    4.9107    6.2757    1.3521 H   0  0  0  0  0  0  0  0  0  0  0  0
    4.3312    5.4700   -0.1249 H   0  0  0  0  0  0  0  0  0  0  0  0
    5.7986    8.1556   -0.1738 H   0  0  0  0  0  0  0  0  0  0  0  0
    4.0469    8.0143   -0.0521 H   0  0  0  0  0  0  0  0  0  0  0  0
    5.3123    9.2001   -2.0713 H   0  0  0  0  0  0  0  0  0  0  0  0
    8.7908    4.9021    0.3405 H   0  0  0  0  0  0  0  0  0  0  0  0
  1  2  1  0
  1 37  1  0
  1 38  1  0
  1 39  1  0
  2  3  1  0
  2  4  1  0
  2 40  1  1
  3 41  1  0
  3 42  1  0
  3 43  1  0
  4  5  1  0
  4 21  1  0
  4 44  1  6
  5  6  1  0
  5 45  1  0
  6  7  2  0
  6  8  1  0
  8  9  1  0
  8 10  1  0
  8 46  1  1
  9 47  1  0
  9 48  1  0
 10 11  1  0
 10 49  1  0
 10 50  1  0
 11 12  2  0
 11 20  1  0
 12 13  1  0
 12 51  1  0
 13 14  1  0
 13 15  1  0
 15 16  1  0
 15 20  2  0
 16 17  2  0
 16 52  1  0
 17 18  1  0
 17 53  1  0
 18 19  2  0
 18 54  1  0
 19 20  1  0
 19 55  1  0
 21 22  2  0
 21 23  1  0
 23 24  1  0
 23 56  1  0
 24 25  1  0
 24 57  1  0
 24 58  1  0
 25 26  2  0
 25 27  1  0
 27 28  1  0
 27 59  1  0
 28 29  1  0
 28 34  1  0
 28 60  1  6
 29 30  1  0
 29 61  1  0
 29 62  1  0
 30 31  1  0
 30 63  1  0
 30 64  1  0
 31 32  2  0
 31 33  1  0
 33 65  1  0
 34 35  2  0
 34 36  1  0
 36 66  1  0
M  END

