
     RDKit          3D

 39 40  0  0  0  0  0  0  0  0999 V2000
    4.9777    0.8589   -1.6949 C   0  0  0  0  0  0  0  0  0  0  0  0
    3.7363    1.0600   -0.8411 C   0  0  0  0  0  0  0  0  0  0  0  0
    4.0340    1.7815    0.3668 O   0  0  0  0  0  0  0  0  0  0  0  0
    4.4585    1.0750    1.4163 C   0  0  0  0  0  0  0  0  0  0  0  0
    4.6066   -0.1283    1.4188 O   0  0  0  0  0  0  0  0  0  0  0  0
    4.7397    1.9277    2.6272 C   0  0  0  0  0  0  0  0  0  0  0  0
    5.1799    1.2707    3.8010 C   0  0  0  0  0  0  0  0  0  0  0  0
    5.4334    2.0075    4.9424 C   0  0  0  0  0  0  0  0  0  0  0  0
    5.6476    1.2040    6.1962 C   0  0  0  0  0  0  0  0  0  0  0  0
    4.9619    1.2961    7.1862 O   0  0  0  0  0  0  0  0  0  0  0  0
    6.6392    0.3097    6.0462 O   0  0  0  0  0  0  0  0  0  0  0  0
    6.8652   -0.6230    7.1240 C   0  0  0  0  0  0  0  0  0  0  0  0
    5.9644   -1.8407    7.0092 C   0  0  0  0  0  0  0  0  0  0  0  0
    5.3341    3.4408    4.8998 C   0  0  0  0  0  0  0  0  0  0  0  0
    5.7194    4.3370    5.9547 C   0  0  0  0  0  0  0  0  0  0  0  0
    6.3761    3.8913    7.2397 C   0  0  0  0  0  0  0  0  0  0  0  0
    5.5213    5.6943    5.7498 C   0  0  0  0  0  0  0  0  0  0  0  0
    4.9764    6.2311    4.5657 C   0  0  0  0  0  0  0  0  0  0  0  0
    4.6471    5.4005    3.5129 C   0  0  0  0  0  0  0  0  0  0  0  0
    4.1593    5.8442    2.3383 O   0  0  0  0  0  0  0  0  0  0  0  0
    4.8420    3.9811    3.6512 C   0  0  0  0  0  0  0  0  0  0  0  0
    4.5559    3.2272    2.5686 N   0  0  0  0  0  0  0  0  0  0  0  0
    4.7025    0.3798   -2.6483 H   0  0  0  0  0  0  0  0  0  0  0  0
    5.7034    0.2094   -1.1833 H   0  0  0  0  0  0  0  0  0  0  0  0
    5.4599    1.8229   -1.9193 H   0  0  0  0  0  0  0  0  0  0  0  0
    3.2785    0.0943   -0.5795 H   0  0  0  0  0  0  0  0  0  0  0  0
    2.9934    1.6832   -1.3595 H   0  0  0  0  0  0  0  0  0  0  0  0
    5.2731    0.1850    3.7949 H   0  0  0  0  0  0  0  0  0  0  0  0
    6.7083   -0.1043    8.0811 H   0  0  0  0  0  0  0  0  0  0  0  0
    7.9256   -0.8979    7.0318 H   0  0  0  0  0  0  0  0  0  0  0  0
    4.9073   -1.5585    7.1234 H   0  0  0  0  0  0  0  0  0  0  0  0
    6.2119   -2.5633    7.8034 H   0  0  0  0  0  0  0  0  0  0  0  0
    6.0967   -2.3404    6.0370 H   0  0  0  0  0  0  0  0  0  0  0  0
    7.1945    3.1768    7.0539 H   0  0  0  0  0  0  0  0  0  0  0  0
    5.6678    3.3967    7.9197 H   0  0  0  0  0  0  0  0  0  0  0  0
    6.8106    4.7580    7.7585 H   0  0  0  0  0  0  0  0  0  0  0  0
    5.8132    6.3896    6.5415 H   0  0  0  0  0  0  0  0  0  0  0  0
    4.8408    7.3129    4.4715 H   0  0  0  0  0  0  0  0  0  0  0  0
    4.0906    6.8079    2.3702 H   0  0  0  0  0  0  0  0  0  0  0  0
  1  2  1  0
  1 23  1  0
  1 24  1  0
  1 25  1  0
  2  3  1  0
  2 26  1  0
  2 27  1  0
  3  4  1  0
  4  5  2  0
  4  6  1  0
  6  7  2  0
  6 22  1  0
  7  8  1  0
  7 28  1  0
  8  9  1  0
  8 14  2  0
  9 10  2  0
  9 11  1  0
 11 12  1  0
 12 13  1  0
 12 29  1  0
 12 30  1  0
 13 31  1  0
 13 32  1  0
 13 33  1  0
 14 15  1  0
 14 21  1  0
 15 16  1  0
 15 17  2  0
 16 34  1  0
 16 35  1  0
 16 36  1  0
 17 18  1  0
 17 37  1  0
 18 19  2  0
 18 38  1  0
 19 20  1  0
 19 21  1  0
 20 39  1  0
 21 22  2  0
M  END

