
     RDKit          3D

 57 60  0  0  0  0  0  0  0  0999 V2000
    2.3218   -1.5968    1.6733 C   0  0  0  0  0  0  0  0  0  0  0  0
    2.3424   -2.8897    1.1055 O   0  0  0  0  0  0  0  0  0  0  0  0
    2.7719   -3.0580   -0.1638 C   0  0  0  0  0  0  0  0  0  0  0  0
    3.2168   -2.0152   -0.9990 C   0  0  0  0  0  0  0  0  0  0  0  0
    3.6399   -2.2971   -2.2952 C   0  0  0  0  0  0  0  0  0  0  0  0
    3.6373   -3.6111   -2.8064 C   0  0  0  0  0  0  0  0  0  0  0  0
    4.0684   -3.9523   -4.1536 C   0  0  0  0  0  0  0  0  0  0  0  0
    4.5180   -3.1102   -5.1193 C   0  0  0  0  0  0  0  0  0  0  0  0
    4.9221   -3.5926   -6.4308 C   0  0  0  0  0  0  0  0  0  0  0  0
    4.8668   -4.8737   -6.6259 O   0  0  0  0  0  0  0  0  0  0  0  0
    5.0272   -5.5166   -7.9770 B   0  0  2  0  0  0  0  0  0  0  0  0
    3.7839   -5.6860   -8.5318 F   0  0  0  0  0  0  0  0  0  0  0  0
    5.7351   -6.6726   -7.8332 F   0  0  0  0  0  0  0  0  0  0  0  0
    5.8142   -4.5694   -8.8421 O   0  0  0  0  0  0  0  0  0  0  0  0
    5.8671   -3.2895   -8.6391 C   0  0  0  0  0  0  0  0  0  0  0  0
    6.4753   -2.4831   -9.6860 C   0  0  0  0  0  0  0  0  0  0  0  0
    6.9287   -3.0336  -10.8416 C   0  0  0  0  0  0  0  0  0  0  0  0
    7.5569   -2.3537  -11.9641 C   0  0  0  0  0  0  0  0  0  0  0  0
    7.8014   -0.9656  -11.9986 C   0  0  0  0  0  0  0  0  0  0  0  0
    8.4041   -0.3554  -13.0954 C   0  0  0  0  0  0  0  0  0  0  0  0
    8.7860   -1.1306  -14.2073 C   0  0  0  0  0  0  0  0  0  0  0  0
    9.3756   -0.6360  -15.3171 O   0  0  0  0  0  0  0  0  0  0  0  0
    9.6462    0.7469  -15.4105 C   0  0  0  0  0  0  0  0  0  0  0  0
    8.5517   -2.5183  -14.1927 C   0  0  0  0  0  0  0  0  0  0  0  0
    7.9504   -3.1109  -13.0928 C   0  0  0  0  0  0  0  0  0  0  0  0
    5.3811   -2.7106   -7.4404 C   0  0  0  0  0  0  0  0  0  0  0  0
    5.4174   -1.2301   -7.2222 C   0  0  0  0  0  0  0  0  0  0  0  0
    4.3301   -0.4244   -7.6042 C   0  0  0  0  0  0  0  0  0  0  0  0
    4.3579    0.9590   -7.4036 C   0  0  0  0  0  0  0  0  0  0  0  0
    5.4747    1.5612   -6.8163 C   0  0  0  0  0  0  0  0  0  0  0  0
    6.5634    0.7726   -6.4313 C   0  0  0  0  0  0  0  0  0  0  0  0
    6.5344   -0.6106   -6.6330 C   0  0  0  0  0  0  0  0  0  0  0  0
    3.1865   -4.6414   -1.9478 C   0  0  0  0  0  0  0  0  0  0  0  0
    2.7620   -4.3770   -0.6546 C   0  0  0  0  0  0  0  0  0  0  0  0
    1.9409   -1.7125    2.6965 H   0  0  0  0  0  0  0  0  0  0  0  0
    1.6534   -0.9161    1.1168 H   0  0  0  0  0  0  0  0  0  0  0  0
    3.3319   -1.1519    1.7150 H   0  0  0  0  0  0  0  0  0  0  0  0
    3.2357   -0.9844   -0.6453 H   0  0  0  0  0  0  0  0  0  0  0  0
    3.9810   -1.4705   -2.9220 H   0  0  0  0  0  0  0  0  0  0  0  0
    4.0219   -5.0140   -4.4157 H   0  0  0  0  0  0  0  0  0  0  0  0
    4.5927   -2.0361   -4.9506 H   0  0  0  0  0  0  0  0  0  0  0  0
    6.5479   -1.4123   -9.4965 H   0  0  0  0  0  0  0  0  0  0  0  0
    6.8076   -4.1165  -10.9459 H   0  0  0  0  0  0  0  0  0  0  0  0
    7.5155   -0.3420  -11.1488 H   0  0  0  0  0  0  0  0  0  0  0  0
    8.5738    0.7212  -13.0789 H   0  0  0  0  0  0  0  0  0  0  0  0
   10.1206    0.9057  -16.3878 H   0  0  0  0  0  0  0  0  0  0  0  0
   10.3376    1.0831  -14.6175 H   0  0  0  0  0  0  0  0  0  0  0  0
    8.7218    1.3492  -15.3587 H   0  0  0  0  0  0  0  0  0  0  0  0
    8.8541   -3.1045  -15.0625 H   0  0  0  0  0  0  0  0  0  0  0  0
    7.7738   -4.1897  -13.0945 H   0  0  0  0  0  0  0  0  0  0  0  0
    3.4558   -0.8932   -8.0629 H   0  0  0  0  0  0  0  0  0  0  0  0
    3.5026    1.5683   -7.7073 H   0  0  0  0  0  0  0  0  0  0  0  0
    5.4968    2.6427   -6.6591 H   0  0  0  0  0  0  0  0  0  0  0  0
    7.4407    1.2357   -5.9718 H   0  0  0  0  0  0  0  0  0  0  0  0
    7.3871   -1.2245   -6.3317 H   0  0  0  0  0  0  0  0  0  0  0  0
    3.1734   -5.6704   -2.3167 H   0  0  0  0  0  0  0  0  0  0  0  0
    2.4144   -5.1736    0.0059 H   0  0  0  0  0  0  0  0  0  0  0  0
  1  2  1  0
  1 35  1  0
  1 36  1  0
  1 37  1  0
  2  3  1  0
  3  4  2  0
  3 34  1  0
  4  5  1  0
  4 38  1  0
  5  6  2  0
  5 39  1  0
  6  7  1  0
  6 33  1  0
  7  8  2  0
  7 40  1  0
  8  9  1  0
  8 41  1  0
  9 10  1  0
  9 26  2  0
 10 11  1  0
 11 12  1  6
 11 13  1  0
 11 14  1  0
 14 15  1  0
 15 16  2  0
 15 26  1  0
 16 17  1  0
 16 42  1  0
 17 18  2  0
 17 43  1  0
 18 19  1  0
 18 25  1  0
 19 20  2  0
 19 44  1  0
 20 21  1  0
 20 45  1  0
 21 22  2  0
 21 24  1  0
 22 23  1  0
 23 46  1  0
 23 47  1  0
 23 48  1  0
 24 25  2  0
 24 49  1  0
 25 50  1  0
 26 27  1  0
 27 28  2  0
 27 32  1  0
 28 29  1  0
 28 51  1  0
 29 30  2  0
 29 52  1  0
 30 31  1  0
 30 53  1  0
 31 32  2  0
 31 54  1  0
 32 55  1  0
 33 34  2  0
 33 56  1  0
 34 57  1  0
M  CHG  2  11  -1  22   1
M  END

