
     RDKit          3D

 39 42  0  0  0  0  0  0  0  0999 V2000
    1.9783    0.8655    1.3186 C   0  0  0  0  0  0  0  0  0  0  0  0
    2.8420    0.2767    0.3692 O   0  0  0  0  0  0  0  0  0  0  0  0
    3.1803    0.9798   -0.7431 C   0  0  0  0  0  0  0  0  0  0  0  0
    2.6995    2.2561   -1.0276 C   0  0  0  0  0  0  0  0  0  0  0  0
    3.1441    2.9331   -2.1810 C   0  0  0  0  0  0  0  0  0  0  0  0
    2.6214    4.2780   -2.4454 C   0  0  0  0  0  0  0  0  0  0  0  0
    1.7376    4.8855   -1.6914 N   0  0  0  0  0  0  0  0  0  0  0  0
    1.4524    6.1098   -2.1848 C   0  0  0  0  0  0  0  0  0  0  0  0
    0.3458    7.3297   -1.5720 S   0  0  0  0  0  0  0  0  0  0  0  0
    0.7761    8.3943   -2.9152 C   0  0  0  0  0  0  0  0  0  0  0  0
    0.2604    9.6753   -3.1410 C   0  0  0  0  0  0  0  0  0  0  0  0
    0.7034   10.3924   -4.2519 C   0  0  0  0  0  0  0  0  0  0  0  0
    1.6523    9.8411   -5.1327 C   0  0  0  0  0  0  0  0  0  0  0  0
    2.1695    8.5681   -4.9146 C   0  0  0  0  0  0  0  0  0  0  0  0
    1.7390    7.8227   -3.8003 C   0  0  0  0  0  0  0  0  0  0  0  0
    2.1016    6.5108   -3.3461 C   0  0  0  0  0  0  0  0  0  0  0  0
    3.1604    5.2318   -3.8504 S   0  0  0  0  0  0  0  0  0  0  0  0
    4.0592    2.3123   -3.0339 C   0  0  0  0  0  0  0  0  0  0  0  0
    4.5416    1.0209   -2.7655 C   0  0  0  0  0  0  0  0  0  0  0  0
    5.4576    0.5577   -3.6519 O   0  0  0  0  0  0  0  0  0  0  0  0
    5.6535   -0.8241   -3.8992 C   0  0  0  0  0  0  0  0  0  0  0  0
    4.1058    0.3371   -1.6107 C   0  0  0  0  0  0  0  0  0  0  0  0
    4.6439   -0.8764   -1.2925 O   0  0  0  0  0  0  0  0  0  0  0  0
    3.7754   -2.0002   -1.2114 C   0  0  0  0  0  0  0  0  0  0  0  0
    1.8652    0.1349    2.1307 H   0  0  0  0  0  0  0  0  0  0  0  0
    0.9844    1.0848    0.8900 H   0  0  0  0  0  0  0  0  0  0  0  0
    2.4011    1.7989    1.7297 H   0  0  0  0  0  0  0  0  0  0  0  0
    1.9934    2.7630   -0.3737 H   0  0  0  0  0  0  0  0  0  0  0  0
   -0.4764   10.1061   -2.4589 H   0  0  0  0  0  0  0  0  0  0  0  0
    0.3076   11.3937   -4.4382 H   0  0  0  0  0  0  0  0  0  0  0  0
    1.9864   10.4195   -5.9973 H   0  0  0  0  0  0  0  0  0  0  0  0
    2.9064    8.1432   -5.6005 H   0  0  0  0  0  0  0  0  0  0  0  0
    4.4270    2.7966   -3.9401 H   0  0  0  0  0  0  0  0  0  0  0  0
    6.2161   -0.8823   -4.8424 H   0  0  0  0  0  0  0  0  0  0  0  0
    4.6936   -1.3541   -4.0290 H   0  0  0  0  0  0  0  0  0  0  0  0
    6.2267   -1.3121   -3.0985 H   0  0  0  0  0  0  0  0  0  0  0  0
    4.4163   -2.8775   -1.0446 H   0  0  0  0  0  0  0  0  0  0  0  0
    3.2155   -2.1400   -2.1544 H   0  0  0  0  0  0  0  0  0  0  0  0
    3.0632   -1.9046   -0.3796 H   0  0  0  0  0  0  0  0  0  0  0  0
  1  2  1  0
  1 25  1  0
  1 26  1  0
  1 27  1  0
  2  3  1  0
  3  4  2  0
  3 22  1  0
  4  5  1  0
  4 28  1  0
  5  6  1  0
  5 18  2  0
  6  7  2  0
  6 17  1  0
  7  8  1  0
  8  9  1  0
  8 16  2  0
  9 10  1  0
 10 11  2  0
 10 15  1  0
 11 12  1  0
 11 29  1  0
 12 13  2  0
 12 30  1  0
 13 14  1  0
 13 31  1  0
 14 15  2  0
 14 32  1  0
 15 16  1  0
 16 17  1  0
 18 19  1  0
 18 33  1  0
 19 20  1  0
 19 22  2  0
 20 21  1  0
 21 34  1  0
 21 35  1  0
 21 36  1  0
 22 23  1  0
 23 24  1  0
 24 37  1  0
 24 38  1  0
 24 39  1  0
M  END

