
     RDKit          3D

 70 72  0  0  0  0  0  0  0  0999 V2000
    1.5042    2.1587    1.3399 C   0  0  0  0  0  0  0  0  0  0  0  0
    2.2173    2.1059    0.2114 C   0  0  0  0  0  0  0  0  0  0  0  0
    2.6843    0.8281   -0.4502 C   0  0  1  0  0  0  0  0  0  0  0  0
    2.1165    0.7133   -1.8969 C   0  0  0  0  0  0  0  0  0  0  0  0
    2.6405    1.7332   -2.9134 C   0  0  0  0  0  0  0  0  0  0  0  0
    2.0514    1.5348   -4.3142 C   0  0  0  0  0  0  0  0  0  0  0  0
    2.5614    2.5433   -5.3476 C   0  0  0  0  0  0  0  0  0  0  0  0
    1.9766    2.3454   -6.7496 C   0  0  0  0  0  0  0  0  0  0  0  0
    2.4905    3.3564   -7.7756 C   0  0  0  0  0  0  0  0  0  0  0  0
    4.2057    0.6235   -0.4160 C   0  0  0  0  0  0  0  0  0  0  0  0
    5.0466    1.7216   -0.2019 C   0  0  0  0  0  0  0  0  0  0  0  0
    6.4287    1.5916   -0.1786 C   0  0  0  0  0  0  0  0  0  0  0  0
    7.0519    0.3592   -0.4099 C   0  0  0  0  0  0  0  0  0  0  0  0
    8.5499    0.3322   -0.2900 C   0  0  0  0  0  0  0  0  0  0  0  0
    9.1318   -0.3212    0.8119 C   0  0  0  0  0  0  0  0  0  0  0  0
   10.5118   -0.2961    1.0219 C   0  0  0  0  0  0  0  0  0  0  0  0
   11.3320    0.3894    0.1251 C   0  0  0  0  0  0  0  0  0  0  0  0
   10.7635    1.0484   -0.9674 C   0  0  0  0  0  0  0  0  0  0  0  0
    9.3777    1.0473   -1.1975 C   0  0  0  0  0  0  0  0  0  0  0  0
    8.8213    1.7711   -2.4012 C   0  0  0  0  0  0  0  0  0  0  0  0
    6.2079   -0.7513   -0.6568 C   0  0  0  0  0  0  0  0  0  0  0  0
    6.9774   -2.3887   -0.9633 S   0  0  1  0  0  0  0  0  0  0  0  0
    7.5488   -2.8483    0.3002 O   0  0  0  0  0  0  0  0  0  0  0  0
    6.0554   -3.2450   -1.7128 O   0  0  0  0  0  0  0  0  0  0  0  0
    8.2708   -2.1499   -2.0387 N   0  0  0  0  0  0  0  0  0  0  0  0
    8.0640   -2.2068   -3.4281 C   0  0  0  0  0  0  0  0  0  0  0  0
    8.0961   -1.1128   -4.1568 N   0  0  0  0  0  0  0  0  0  0  0  0
    7.9664   -1.5325   -5.4567 O   0  0  0  0  0  0  0  0  0  0  0  0
    7.8418   -2.8802   -5.4966 C   0  0  0  0  0  0  0  0  0  0  0  0
    7.6841   -3.4936   -6.8430 C   0  0  0  0  0  0  0  0  0  0  0  0
    7.9020   -3.3885   -4.2260 C   0  0  0  0  0  0  0  0  0  0  0  0
    7.8434   -4.8041   -3.7501 C   0  0  0  0  0  0  0  0  0  0  0  0
    4.7904   -0.6586   -0.6078 C   0  0  0  0  0  0  0  0  0  0  0  0
    3.9028   -1.8839   -0.7026 C   0  0  0  0  0  0  0  0  0  0  0  0
    1.1661    3.1105    1.7594 H   0  0  0  0  0  0  0  0  0  0  0  0
    1.2314    1.2520    1.8910 H   0  0  0  0  0  0  0  0  0  0  0  0
    2.4515    3.0476   -0.2986 H   0  0  0  0  0  0  0  0  0  0  0  0
    2.2257    0.0105    0.1270 H   0  0  0  0  0  0  0  0  0  0  0  0
    1.0171    0.7932   -1.8316 H   0  0  0  0  0  0  0  0  0  0  0  0
    2.3252   -0.3006   -2.2762 H   0  0  0  0  0  0  0  0  0  0  0  0
    3.7412    1.6683   -2.9716 H   0  0  0  0  0  0  0  0  0  0  0  0
    2.4137    2.7600   -2.5748 H   0  0  0  0  0  0  0  0  0  0  0  0
    0.9482    1.5941   -4.2596 H   0  0  0  0  0  0  0  0  0  0  0  0
    2.2785    0.5100   -4.6624 H   0  0  0  0  0  0  0  0  0  0  0  0
    3.6645    2.4837   -5.4015 H   0  0  0  0  0  0  0  0  0  0  0  0
    2.3343    3.5688   -5.0003 H   0  0  0  0  0  0  0  0  0  0  0  0
    0.8740    2.4036   -6.6943 H   0  0  0  0  0  0  0  0  0  0  0  0
    2.2043    1.3206   -7.0955 H   0  0  0  0  0  0  0  0  0  0  0  0
    2.2454    4.3899   -7.4778 H   0  0  0  0  0  0  0  0  0  0  0  0
    2.0499    3.1844   -8.7707 H   0  0  0  0  0  0  0  0  0  0  0  0
    3.5867    3.2971   -7.8824 H   0  0  0  0  0  0  0  0  0  0  0  0
    4.6136    2.7050   -0.0167 H   0  0  0  0  0  0  0  0  0  0  0  0
    7.0502    2.4617    0.0431 H   0  0  0  0  0  0  0  0  0  0  0  0
    8.4889   -0.8652    1.5040 H   0  0  0  0  0  0  0  0  0  0  0  0
   10.9394   -0.8131    1.8842 H   0  0  0  0  0  0  0  0  0  0  0  0
   12.4147    0.4144    0.2734 H   0  0  0  0  0  0  0  0  0  0  0  0
   11.4095    1.5852   -1.6675 H   0  0  0  0  0  0  0  0  0  0  0  0
    9.6337    2.2308   -2.9827 H   0  0  0  0  0  0  0  0  0  0  0  0
    8.1193    2.5698   -2.1174 H   0  0  0  0  0  0  0  0  0  0  0  0
    8.2845    1.0783   -3.0681 H   0  0  0  0  0  0  0  0  0  0  0  0
    8.9466   -1.4591   -1.7111 H   0  0  0  0  0  0  0  0  0  0  0  0
    6.7215   -3.2073   -7.2985 H   0  0  0  0  0  0  0  0  0  0  0  0
    7.7176   -4.5890   -6.7718 H   0  0  0  0  0  0  0  0  0  0  0  0
    8.4839   -3.1593   -7.5228 H   0  0  0  0  0  0  0  0  0  0  0  0
    8.0527   -5.5124   -4.5655 H   0  0  0  0  0  0  0  0  0  0  0  0
    6.8568   -5.0364   -3.3216 H   0  0  0  0  0  0  0  0  0  0  0  0
    8.5823   -4.9694   -2.9503 H   0  0  0  0  0  0  0  0  0  0  0  0
    4.3112   -2.7231   -0.1273 H   0  0  0  0  0  0  0  0  0  0  0  0
    3.8073   -2.2433   -1.7372 H   0  0  0  0  0  0  0  0  0  0  0  0
    2.8993   -1.6730   -0.3175 H   0  0  0  0  0  0  0  0  0  0  0  0
  1  2  2  0
  1 35  1  0
  1 36  1  0
  2  3  1  0
  2 37  1  0
  3  4  1  0
  3 10  1  0
  3 38  1  1
  4  5  1  0
  4 39  1  0
  4 40  1  0
  5  6  1  0
  5 41  1  0
  5 42  1  0
  6  7  1  0
  6 43  1  0
  6 44  1  0
  7  8  1  0
  7 45  1  0
  7 46  1  0
  8  9  1  0
  8 47  1  0
  8 48  1  0
  9 49  1  0
  9 50  1  0
  9 51  1  0
 10 11  2  0
 10 33  1  0
 11 12  1  0
 11 52  1  0
 12 13  2  0
 12 53  1  0
 13 14  1  0
 13 21  1  0
 14 15  2  0
 14 19  1  0
 15 16  1  0
 15 54  1  0
 16 17  2  0
 16 55  1  0
 17 18  1  0
 17 56  1  0
 18 19  2  0
 18 57  1  0
 19 20  1  0
 20 58  1  0
 20 59  1  0
 20 60  1  0
 21 22  1  0
 21 33  2  0
 22 23  2  0
 22 24  2  0
 22 25  1  6
 25 26  1  0
 25 61  1  0
 26 27  2  0
 26 31  1  0
 27 28  1  0
 28 29  1  0
 29 30  1  0
 29 31  2  0
 30 62  1  0
 30 63  1  0
 30 64  1  0
 31 32  1  0
 32 65  1  0
 32 66  1  0
 32 67  1  0
 33 34  1  0
 34 68  1  0
 34 69  1  0
 34 70  1  0
M  END

