
     RDKit          3D

 57 59  0  0  0  0  0  0  0  0999 V2000
    7.4146   -3.9735    4.5405 C   0  0  0  0  0  0  0  0  0  0  0  0
    6.7171   -3.0332    3.5566 C   0  0  0  0  0  0  0  0  0  0  0  0
    5.2108   -2.9074    3.8030 C   0  0  0  0  0  0  0  0  0  0  0  0
    4.4894   -1.9423    2.8562 C   0  0  0  0  0  0  0  0  0  0  0  0
    4.6224   -2.2665    1.4383 N   0  0  0  0  0  0  0  0  0  0  0  0
    4.1220   -3.5800    1.0384 C   0  0  0  0  0  0  0  0  0  0  0  0
    2.6181   -3.8442    1.2336 C   0  0  0  0  0  0  0  0  0  0  0  0
    2.2221   -5.2434    0.7459 C   0  0  0  0  0  0  0  0  0  0  0  0
    0.8111   -5.5454    0.9113 N   0  0  0  0  0  0  0  0  0  0  0  0
    0.3243   -6.0993    2.0522 C   0  0  0  0  0  0  0  0  0  0  0  0
    1.0072   -6.3958    3.0183 O   0  0  0  0  0  0  0  0  0  0  0  0
   -1.2033   -6.3223    2.0619 C   0  0  0  0  0  0  0  0  0  0  0  0
   -1.6885   -7.2745    1.0549 N   0  0  0  0  0  0  0  0  0  0  0  0
   -1.8804   -8.5285    1.4977 N   0  0  0  0  0  0  0  0  0  0  0  0
   -2.3312   -9.4349    0.6797 C   0  0  0  0  0  0  0  0  0  0  0  0
   -2.6423   -9.1464   -0.6885 C   0  0  0  0  0  0  0  0  0  0  0  0
   -3.1499   -9.9815   -1.7363 C   0  0  0  0  0  0  0  0  0  0  0  0
   -3.3051   -9.2872   -2.9072 C   0  0  0  0  0  0  0  0  0  0  0  0
   -2.8442   -7.6170   -2.7854 S   0  0  0  0  0  0  0  0  0  0  0  0
   -2.4326   -7.8368   -1.1193 C   0  0  0  0  0  0  0  0  0  0  0  0
   -1.9115   -6.8074   -0.2519 C   0  0  0  0  0  0  0  0  0  0  0  0
   -1.6655   -5.6441   -0.5684 O   0  0  0  0  0  0  0  0  0  0  0  0
    4.2223   -1.1755    0.5598 C   0  0  0  0  0  0  0  0  0  0  0  0
    4.7691   -1.2872   -0.8529 C   0  0  0  0  0  0  0  0  0  0  0  0
    3.9522   -1.0360   -1.9638 C   0  0  0  0  0  0  0  0  0  0  0  0
    4.4693   -1.0883   -3.2631 C   0  0  0  0  0  0  0  0  0  0  0  0
    5.8151   -1.4007   -3.4685 C   0  0  0  0  0  0  0  0  0  0  0  0
    6.6389   -1.6599   -2.3667 C   0  0  0  0  0  0  0  0  0  0  0  0
    6.1203   -1.6029   -1.0717 C   0  0  0  0  0  0  0  0  0  0  0  0
    8.4958   -4.0417    4.3387 H   0  0  0  0  0  0  0  0  0  0  0  0
    7.0012   -4.9946    4.4813 H   0  0  0  0  0  0  0  0  0  0  0  0
    7.2921   -3.6314    5.5822 H   0  0  0  0  0  0  0  0  0  0  0  0
    6.8883   -3.3770    2.5229 H   0  0  0  0  0  0  0  0  0  0  0  0
    7.1755   -2.0287    3.6143 H   0  0  0  0  0  0  0  0  0  0  0  0
    5.0348   -2.5468    4.8325 H   0  0  0  0  0  0  0  0  0  0  0  0
    4.7424   -3.9070    3.7641 H   0  0  0  0  0  0  0  0  0  0  0  0
    4.9188   -0.9350    2.9955 H   0  0  0  0  0  0  0  0  0  0  0  0
    3.4248   -1.8614    3.1734 H   0  0  0  0  0  0  0  0  0  0  0  0
    4.6907   -4.3521    1.5837 H   0  0  0  0  0  0  0  0  0  0  0  0
    4.3774   -3.7212   -0.0251 H   0  0  0  0  0  0  0  0  0  0  0  0
    2.0207   -3.0907    0.6914 H   0  0  0  0  0  0  0  0  0  0  0  0
    2.3466   -3.7626    2.2987 H   0  0  0  0  0  0  0  0  0  0  0  0
    2.7903   -6.0014    1.3073 H   0  0  0  0  0  0  0  0  0  0  0  0
    2.4769   -5.3600   -0.3211 H   0  0  0  0  0  0  0  0  0  0  0  0
    0.1377   -5.2694    0.1960 H   0  0  0  0  0  0  0  0  0  0  0  0
   -1.7162   -5.3641    1.8919 H   0  0  0  0  0  0  0  0  0  0  0  0
   -1.4638   -6.7322    3.0419 H   0  0  0  0  0  0  0  0  0  0  0  0
   -2.4672  -10.4346    1.1020 H   0  0  0  0  0  0  0  0  0  0  0  0
   -3.3857  -11.0401   -1.6212 H   0  0  0  0  0  0  0  0  0  0  0  0
   -3.6732   -9.6712   -3.8585 H   0  0  0  0  0  0  0  0  0  0  0  0
    4.6117   -0.2437    1.0067 H   0  0  0  0  0  0  0  0  0  0  0  0
    3.1189   -1.0377    0.5063 H   0  0  0  0  0  0  0  0  0  0  0  0
    2.8957   -0.7955   -1.8102 H   0  0  0  0  0  0  0  0  0  0  0  0
    3.8156   -0.8892   -4.1167 H   0  0  0  0  0  0  0  0  0  0  0  0
    6.2216   -1.4454   -4.4823 H   0  0  0  0  0  0  0  0  0  0  0  0
    7.6932   -1.9067   -2.5194 H   0  0  0  0  0  0  0  0  0  0  0  0
    6.7573   -1.8131   -0.2092 H   0  0  0  0  0  0  0  0  0  0  0  0
  1  2  1  0
  1 30  1  0
  1 31  1  0
  1 32  1  0
  2  3  1  0
  2 33  1  0
  2 34  1  0
  3  4  1  0
  3 35  1  0
  3 36  1  0
  4  5  1  0
  4 37  1  0
  4 38  1  0
  5  6  1  0
  5 23  1  0
  6  7  1  0
  6 39  1  0
  6 40  1  0
  7  8  1  0
  7 41  1  0
  7 42  1  0
  8  9  1  0
  8 43  1  0
  8 44  1  0
  9 10  1  0
  9 45  1  0
 10 11  2  0
 10 12  1  0
 12 13  1  0
 12 46  1  0
 12 47  1  0
 13 14  1  0
 13 21  1  0
 14 15  2  0
 15 16  1  0
 15 48  1  0
 16 17  2  0
 16 20  1  0
 17 18  1  0
 17 49  1  0
 18 19  2  0
 18 50  1  0
 19 20  1  0
 20 21  2  0
 21 22  1  0
 23 24  1  0
 23 51  1  0
 23 52  1  0
 24 25  2  0
 24 29  1  0
 25 26  1  0
 25 53  1  0
 26 27  2  0
 26 54  1  0
 27 28  1  0
 27 55  1  0
 28 29  2  0
 28 56  1  0
 29 57  1  0
M  CHG  2  19   1  22  -1
M  END

