
     RDKit          3D

 34 36  0  0  0  0  0  0  0  0999 V2000
    3.4334    0.5671    0.7953 C   0  0  0  0  0  0  0  0  0  0  0  0
    2.2986   -0.0973    0.0108 C   0  0  1  0  0  0  0  0  0  0  0  0
    1.4604    0.9081   -0.7837 C   0  0  0  0  0  0  0  0  0  0  0  0
    2.8241   -1.1424   -0.8714 N   0  0  0  0  0  0  0  0  0  0  0  0
    3.6732   -0.8546   -1.8767 N   0  0  0  0  0  0  0  0  0  0  0  0
    3.9710   -1.9894   -2.4886 C   0  0  0  0  0  0  0  0  0  0  0  0
    3.2979   -3.0897   -1.8743 C   0  0  0  0  0  0  0  0  0  0  0  0
    3.2006   -4.4816   -2.0440 C   0  0  0  0  0  0  0  0  0  0  0  0
    2.3728   -5.1641   -1.1476 C   0  0  0  0  0  0  0  0  0  0  0  0
    2.1573   -6.5562   -1.1684 N   0  0  0  0  0  0  0  0  0  0  0  0
    2.6902   -7.4916   -2.0316 C   0  0  0  0  0  0  0  0  0  0  0  0
    3.4584   -7.2061   -2.9343 O   0  0  0  0  0  0  0  0  0  0  0  0
    2.2708   -8.9197   -1.8046 C   0  0  1  0  0  0  0  0  0  0  0  0
    2.0340   -9.5019   -0.4242 C   0  0  0  0  0  0  0  0  0  0  0  0
    0.8757   -9.3088   -1.3537 C   0  0  0  0  0  0  0  0  0  0  0  0
    1.6873   -4.4302   -0.1332 C   0  0  0  0  0  0  0  0  0  0  0  0
    1.7663   -3.1223    0.0418 N   0  0  0  0  0  0  0  0  0  0  0  0
    2.5603   -2.4859   -0.8216 C   0  0  0  0  0  0  0  0  0  0  0  0
    3.0279    1.3201    1.4890 H   0  0  0  0  0  0  0  0  0  0  0  0
    4.1355    1.0656    0.1099 H   0  0  0  0  0  0  0  0  0  0  0  0
    3.9938   -0.1761    1.3832 H   0  0  0  0  0  0  0  0  0  0  0  0
    1.6457   -0.6442    0.7087 H   0  0  0  0  0  0  0  0  0  0  0  0
    2.0817    1.4205   -1.5338 H   0  0  0  0  0  0  0  0  0  0  0  0
    1.0317    1.6651   -0.1086 H   0  0  0  0  0  0  0  0  0  0  0  0
    0.6326    0.4049   -1.3066 H   0  0  0  0  0  0  0  0  0  0  0  0
    4.6499   -1.9905   -3.3411 H   0  0  0  0  0  0  0  0  0  0  0  0
    3.7303   -5.0256   -2.8229 H   0  0  0  0  0  0  0  0  0  0  0  0
    1.5274   -6.8946   -0.4510 H   0  0  0  0  0  0  0  0  0  0  0  0
    2.7538   -9.5656   -2.5411 H   0  0  0  0  0  0  0  0  0  0  0  0
    2.1381   -8.8385    0.4403 H   0  0  0  0  0  0  0  0  0  0  0  0
    2.3973  -10.5168   -0.2416 H   0  0  0  0  0  0  0  0  0  0  0  0
    0.1576   -8.5083   -1.1493 H   0  0  0  0  0  0  0  0  0  0  0  0
    0.4267  -10.1883   -1.8231 H   0  0  0  0  0  0  0  0  0  0  0  0
    1.0396   -4.9787    0.5653 H   0  0  0  0  0  0  0  0  0  0  0  0
  1  2  1  0
  1 19  1  0
  1 20  1  0
  1 21  1  0
  2  3  1  0
  2  4  1  0
  2 22  1  1
  3 23  1  0
  3 24  1  0
  3 25  1  0
  4  5  1  0
  4 18  1  0
  5  6  2  0
  6  7  1  0
  6 26  1  0
  7  8  1  0
  7 18  2  0
  8  9  2  0
  8 27  1  0
  9 10  1  0
  9 16  1  0
 10 11  1  0
 10 28  1  0
 11 12  2  0
 11 13  1  0
 13 14  1  0
 13 15  1  0
 13 29  1  6
 14 15  1  0
 14 30  1  0
 14 31  1  0
 15 32  1  0
 15 33  1  0
 16 17  2  0
 16 34  1  0
 17 18  1  0
M  END

