
     RDKit          3D

 36 38  0  0  0  0  0  0  0  0999 V2000
    0.8618    1.4568    1.4607 N   0  0  0  0  0  0  0  0  0  0  0  0
    1.5677    0.3755    2.1349 C   0  0  0  0  0  0  0  0  0  0  0  0
    2.9327    0.0803    1.5018 C   0  0  2  0  0  0  0  0  0  0  0  0
    2.7202   -0.1122    0.4344 H   0  0  0  0  0  0  0  0  0  0  0  0
    3.5809   -1.1839    2.1020 C   0  0  0  0  0  0  0  0  0  0  0  0
    4.8256   -1.6160    1.3158 C   0  0  0  0  0  0  0  0  0  0  0  0
    5.8014   -0.4507    1.1210 C   0  0  0  0  0  0  0  0  0  0  0  0
    5.0776    0.7936    0.5971 C   0  0  0  0  0  0  0  0  0  0  0  0
    3.9624    1.1580    1.4843 N   0  0  0  0  0  0  0  0  0  0  0  0
    3.9444    2.2452    2.3058 C   0  0  0  0  0  0  0  0  0  0  0  0
    2.9826    2.5440    3.0185 O   0  0  0  0  0  0  0  0  0  0  0  0
    5.1220    3.1873    2.3928 C   0  0  0  0  0  0  0  0  0  0  0  0
    4.9758    4.3918    3.0756 C   0  0  0  0  0  0  0  0  0  0  0  0
    6.2034    4.9916    3.0281 N   0  0  0  0  0  0  0  0  0  0  0  0
    6.6788    6.1793    3.5120 C   0  0  0  0  0  0  0  0  0  0  0  0
    7.9945    6.4845    3.2878 C   0  0  0  0  0  0  0  0  0  0  0  0
    8.8018    5.5541    2.5646 C   0  0  0  0  0  0  0  0  0  0  0  0
    8.3528    4.4122    2.0967 N   0  0  0  0  0  0  0  0  0  0  0  0
    7.0641    4.1067    2.3122 C   0  0  0  0  0  0  0  0  0  0  0  0
    6.3983    3.0280    1.9390 N   0  0  0  0  0  0  0  0  0  0  0  0
   -0.1266    1.4251    1.7104 H   0  0  0  0  0  0  0  0  0  0  0  0
    1.2236    2.3348    1.8367 H   0  0  0  0  0  0  0  0  0  0  0  0
    0.9892   -0.5535    1.9869 H   0  0  0  0  0  0  0  0  0  0  0  0
    1.6812    0.5127    3.2254 H   0  0  0  0  0  0  0  0  0  0  0  0
    2.8401   -2.0008    2.1140 H   0  0  0  0  0  0  0  0  0  0  0  0
    3.8445   -0.9764    3.1545 H   0  0  0  0  0  0  0  0  0  0  0  0
    4.5067   -1.9877    0.3246 H   0  0  0  0  0  0  0  0  0  0  0  0
    5.3235   -2.4622    1.8182 H   0  0  0  0  0  0  0  0  0  0  0  0
    6.6076   -0.7287    0.4215 H   0  0  0  0  0  0  0  0  0  0  0  0
    6.2866   -0.1883    2.0770 H   0  0  0  0  0  0  0  0  0  0  0  0
    4.6485    0.5869   -0.4003 H   0  0  0  0  0  0  0  0  0  0  0  0
    5.7750    1.6284    0.5070 H   0  0  0  0  0  0  0  0  0  0  0  0
    4.1119    4.8199    3.5738 H   0  0  0  0  0  0  0  0  0  0  0  0
    5.9762    6.8169    4.0520 H   0  0  0  0  0  0  0  0  0  0  0  0
    8.4137    7.4211    3.6565 H   0  0  0  0  0  0  0  0  0  0  0  0
    9.8565    5.7888    2.3791 H   0  0  0  0  0  0  0  0  0  0  0  0
  1  2  1  0
  1 21  1  0
  1 22  1  0
  2  3  1  0
  2 23  1  0
  2 24  1  0
  3  4  1  6
  3  5  1  0
  3  9  1  0
  5  6  1  0
  5 25  1  0
  5 26  1  0
  6  7  1  0
  6 27  1  0
  6 28  1  0
  7  8  1  0
  7 29  1  0
  7 30  1  0
  8  9  1  0
  8 31  1  0
  8 32  1  0
  9 10  1  0
 10 11  2  0
 10 12  1  0
 12 13  2  0
 12 20  1  0
 13 14  1  0
 13 33  1  0
 14 15  1  0
 14 19  1  0
 15 16  2  0
 15 34  1  0
 16 17  1  0
 16 35  1  0
 17 18  2  0
 17 36  1  0
 18 19  1  0
 19 20  2  0
M  END

