
     RDKit          3D

 55 58  0  0  0  0  0  0  0  0999 V2000
    1.9177    0.5833    0.8791 O   0  0  0  0  0  0  0  0  0  0  0  0
    2.7810    0.3599    0.0408 C   0  0  0  0  0  0  0  0  0  0  0  0
    2.7853   -0.9590   -0.6900 C   0  0  0  0  0  0  0  0  0  0  0  0
    1.5468   -1.5150   -1.0497 C   0  0  0  0  0  0  0  0  0  0  0  0
    1.4727   -2.7718   -1.6484 C   0  0  0  0  0  0  0  0  0  0  0  0
    2.6515   -3.4869   -1.8573 C   0  0  0  0  0  0  0  0  0  0  0  0
    2.5878   -4.6986   -2.4247 F   0  0  0  0  0  0  0  0  0  0  0  0
    3.8933   -2.9785   -1.4814 C   0  0  0  0  0  0  0  0  0  0  0  0
    3.9532   -1.7102   -0.9003 C   0  0  0  0  0  0  0  0  0  0  0  0
    3.7937    1.2601   -0.2258 N   0  0  0  0  0  0  0  0  0  0  0  0
    4.4654    1.3983   -1.5173 C   0  0  0  0  0  0  0  0  0  0  0  0
    3.9054    2.5980   -2.2961 C   0  0  0  0  0  0  0  0  0  0  0  0
    3.9364    3.8840   -1.4629 C   0  0  0  0  0  0  0  0  0  0  0  0
    3.2692    3.6827   -0.0836 C   0  0  2  0  0  0  0  0  0  0  0  0
    3.4747    4.9214    0.7927 C   0  0  0  0  0  0  0  0  0  0  0  0
    4.4951    5.0278    1.4619 O   0  0  0  0  0  0  0  0  0  0  0  0
    2.5145    5.9073    0.7847 N   0  0  0  0  0  0  0  0  0  0  0  0
    2.6918    7.0750    1.6485 C   0  0  0  0  0  0  0  0  0  0  0  0
    2.5396    8.3665    0.8347 C   0  0  0  0  0  0  0  0  0  0  0  0
    1.2923    8.4355    0.0742 N   0  0  0  0  0  0  0  0  0  0  0  0
    0.1013    8.8016    0.8417 C   0  0  0  0  0  0  0  0  0  0  0  0
   -0.9516    9.4062   -0.0411 C   0  0  0  0  0  0  0  0  0  0  0  0
   -2.2562    9.3096    0.1070 N   0  0  0  0  0  0  0  0  0  0  0  0
   -2.8010   10.0718   -0.8977 C   0  0  0  0  0  0  0  0  0  0  0  0
   -1.8076   10.6325   -1.6714 C   0  0  0  0  0  0  0  0  0  0  0  0
   -0.6291   10.1983   -1.1062 N   0  0  0  0  0  0  0  0  0  0  0  0
    0.3203   10.3711   -1.4163 H   0  0  0  0  0  0  0  0  0  0  0  0
    1.1342    7.2437   -0.7580 C   0  0  0  0  0  0  0  0  0  0  0  0
    1.2697    5.9224    0.0220 C   0  0  0  0  0  0  0  0  0  0  0  0
    3.8852    2.4539    0.6129 C   0  0  0  0  0  0  0  0  0  0  0  0
    0.6367   -0.9489   -0.8418 H   0  0  0  0  0  0  0  0  0  0  0  0
    0.5190   -3.2128   -1.9447 H   0  0  0  0  0  0  0  0  0  0  0  0
    4.7899   -3.5808   -1.6397 H   0  0  0  0  0  0  0  0  0  0  0  0
    4.9202   -1.3127   -0.5842 H   0  0  0  0  0  0  0  0  0  0  0  0
    4.3450    0.4804   -2.1034 H   0  0  0  0  0  0  0  0  0  0  0  0
    5.5476    1.5399   -1.3406 H   0  0  0  0  0  0  0  0  0  0  0  0
    2.8662    2.3705   -2.5932 H   0  0  0  0  0  0  0  0  0  0  0  0
    4.4820    2.7309   -3.2270 H   0  0  0  0  0  0  0  0  0  0  0  0
    3.4517    4.7079   -2.0135 H   0  0  0  0  0  0  0  0  0  0  0  0
    4.9827    4.1944   -1.2934 H   0  0  0  0  0  0  0  0  0  0  0  0
    2.1990    3.4680   -0.2243 H   0  0  0  0  0  0  0  0  0  0  0  0
    3.6865    7.0034    2.1054 H   0  0  0  0  0  0  0  0  0  0  0  0
    1.9400    7.0443    2.4605 H   0  0  0  0  0  0  0  0  0  0  0  0
    3.3804    8.4311    0.1209 H   0  0  0  0  0  0  0  0  0  0  0  0
    2.6076    9.2413    1.5008 H   0  0  0  0  0  0  0  0  0  0  0  0
    0.4118    9.5430    1.5995 H   0  0  0  0  0  0  0  0  0  0  0  0
   -0.3771    7.9741    1.4014 H   0  0  0  0  0  0  0  0  0  0  0  0
   -3.8787   10.1741   -1.0205 H   0  0  0  0  0  0  0  0  0  0  0  0
   -1.8347   11.2716   -2.5504 H   0  0  0  0  0  0  0  0  0  0  0  0
    1.9108    7.2643   -1.5440 H   0  0  0  0  0  0  0  0  0  0  0  0
    0.1548    7.2767   -1.2606 H   0  0  0  0  0  0  0  0  0  0  0  0
    1.2367    5.0836   -0.6822 H   0  0  0  0  0  0  0  0  0  0  0  0
    0.4122    5.7995    0.7109 H   0  0  0  0  0  0  0  0  0  0  0  0
    3.3698    2.2487    1.5576 H   0  0  0  0  0  0  0  0  0  0  0  0
    4.9446    2.6614    0.8303 H   0  0  0  0  0  0  0  0  0  0  0  0
  1  2  2  0
  2  3  1  0
  2 10  1  0
  3  4  2  0
  3  9  1  0
  4  5  1  0
  4 31  1  0
  5  6  2  0
  5 32  1  0
  6  7  1  0
  6  8  1  0
  8  9  2  0
  8 33  1  0
  9 34  1  0
 10 11  1  0
 10 30  1  0
 11 12  1  0
 11 35  1  0
 11 36  1  0
 12 13  1  0
 12 37  1  0
 12 38  1  0
 13 14  1  0
 13 39  1  0
 13 40  1  0
 14 15  1  0
 14 30  1  0
 14 41  1  6
 15 16  2  0
 15 17  1  0
 17 18  1  0
 17 29  1  0
 18 19  1  0
 18 42  1  0
 18 43  1  0
 19 20  1  0
 19 44  1  0
 19 45  1  0
 20 21  1  0
 20 28  1  0
 21 22  1  0
 21 46  1  0
 21 47  1  0
 22 23  2  0
 22 26  1  0
 23 24  1  0
 24 25  2  0
 24 48  1  0
 25 26  1  0
 25 49  1  0
 26 27  1  0
 28 29  1  0
 28 50  1  0
 28 51  1  0
 29 52  1  0
 29 53  1  0
 30 54  1  0
 30 55  1  0
M  END

