
     RDKit          3D

 49 51  0  0  0  0  0  0  0  0999 V2000
    1.2895    0.3352    0.3018 C   0  0  0  0  0  0  0  0  0  0  0  0
    2.7635   -0.0861    0.2323 C   0  0  1  0  0  0  0  0  0  0  0  0
    3.1925   -0.4379    1.5805 N   0  0  0  0  0  0  0  0  0  0  0  0
    4.5889   -0.3846    1.9560 C   0  0  0  0  0  0  0  0  0  0  0  0
    4.7911   -0.2244    3.4562 C   0  0  0  0  0  0  0  0  0  0  0  0
    5.9593   -0.6952    4.0725 C   0  0  0  0  0  0  0  0  0  0  0  0
    6.1826   -0.4922    5.4382 C   0  0  0  0  0  0  0  0  0  0  0  0
    5.2351    0.1761    6.2123 C   0  0  0  0  0  0  0  0  0  0  0  0
    4.0472    0.6312    5.6201 C   0  0  0  0  0  0  0  0  0  0  0  0
    3.0563    1.3438    6.5006 C   0  0  0  0  0  0  0  0  0  0  0  0
    3.3282    1.7602    7.5963 O   0  0  0  0  0  0  0  0  0  0  0  0
    1.8081    1.4977    6.0035 O   0  0  0  0  0  0  0  0  0  0  0  0
    3.8413    0.4348    4.2464 C   0  0  0  0  0  0  0  0  0  0  0  0
    3.0377   -1.1536   -0.9020 C   0  0  1  0  0  0  0  0  0  0  0  0
    2.3344   -2.4794   -0.5608 C   0  0  0  0  0  0  0  0  0  0  0  0
    1.0611   -2.8065   -1.0628 C   0  0  0  0  0  0  0  0  0  0  0  0
    0.4082   -3.9876   -0.6973 C   0  0  0  0  0  0  0  0  0  0  0  0
    1.0095   -4.8826    0.1902 C   0  0  0  0  0  0  0  0  0  0  0  0
    2.2722   -4.5801    0.7040 C   0  0  0  0  0  0  0  0  0  0  0  0
    2.9215   -3.3989    0.3314 C   0  0  0  0  0  0  0  0  0  0  0  0
    2.6301   -0.5936   -2.2932 C   0  0  0  0  0  0  0  0  0  0  0  0
    3.3982   -1.4355   -3.3314 C   0  0  0  0  0  0  0  0  0  0  0  0
    4.6510   -1.9625   -2.5819 C   0  0  0  0  0  0  0  0  0  0  0  0
    4.5567   -1.3646   -1.1644 C   0  0  0  0  0  0  0  0  0  0  0  0
    1.1743    1.1497    1.0321 H   0  0  0  0  0  0  0  0  0  0  0  0
    0.6516   -0.5022    0.6275 H   0  0  0  0  0  0  0  0  0  0  0  0
    0.9104    0.6876   -0.6683 H   0  0  0  0  0  0  0  0  0  0  0  0
    3.3539    0.8028   -0.0563 H   0  0  0  0  0  0  0  0  0  0  0  0
    2.7346   -1.2834    1.9164 H   0  0  0  0  0  0  0  0  0  0  0  0
    5.0368    0.4897    1.4488 H   0  0  0  0  0  0  0  0  0  0  0  0
    5.1946   -1.2538    1.6245 H   0  0  0  0  0  0  0  0  0  0  0  0
    6.7065   -1.2256    3.4742 H   0  0  0  0  0  0  0  0  0  0  0  0
    7.1015   -0.8623    5.8998 H   0  0  0  0  0  0  0  0  0  0  0  0
    5.3872    0.3518    7.2787 H   0  0  0  0  0  0  0  0  0  0  0  0
    1.7197    1.0245    5.1643 H   0  0  0  0  0  0  0  0  0  0  0  0
    2.9452    0.7966    3.7340 H   0  0  0  0  0  0  0  0  0  0  0  0
    0.5575   -2.1306   -1.7548 H   0  0  0  0  0  0  0  0  0  0  0  0
   -0.5790   -4.2070   -1.1127 H   0  0  0  0  0  0  0  0  0  0  0  0
    0.5011   -5.8069    0.4759 H   0  0  0  0  0  0  0  0  0  0  0  0
    2.7625   -5.2690    1.3970 H   0  0  0  0  0  0  0  0  0  0  0  0
    3.9136   -3.2037    0.7419 H   0  0  0  0  0  0  0  0  0  0  0  0
    2.9674    0.4564   -2.3391 H   0  0  0  0  0  0  0  0  0  0  0  0
    1.5482   -0.5736   -2.4795 H   0  0  0  0  0  0  0  0  0  0  0  0
    3.6570   -0.8395   -4.2204 H   0  0  0  0  0  0  0  0  0  0  0  0
    2.7775   -2.2735   -3.6843 H   0  0  0  0  0  0  0  0  0  0  0  0
    5.5931   -1.6821   -3.0780 H   0  0  0  0  0  0  0  0  0  0  0  0
    4.6360   -3.0623   -2.5325 H   0  0  0  0  0  0  0  0  0  0  0  0
    5.0472   -0.3767   -1.1387 H   0  0  0  0  0  0  0  0  0  0  0  0
    5.0666   -1.9852   -0.4170 H   0  0  0  0  0  0  0  0  0  0  0  0
  1  2  1  0
  1 25  1  0
  1 26  1  0
  1 27  1  0
  2  3  1  0
  2 14  1  0
  2 28  1  6
  3  4  1  0
  3 29  1  0
  4  5  1  0
  4 30  1  0
  4 31  1  0
  5  6  2  0
  5 13  1  0
  6  7  1  0
  6 32  1  0
  7  8  2  0
  7 33  1  0
  8  9  1  0
  8 34  1  0
  9 10  1  0
  9 13  2  0
 10 11  2  0
 10 12  1  0
 12 35  1  0
 13 36  1  0
 14 15  1  1
 14 21  1  0
 14 24  1  0
 15 16  2  0
 15 20  1  0
 16 17  1  0
 16 37  1  0
 17 18  2  0
 17 38  1  0
 18 19  1  0
 18 39  1  0
 19 20  2  0
 19 40  1  0
 20 41  1  0
 21 22  1  0
 21 42  1  0
 21 43  1  0
 22 23  1  0
 22 44  1  0
 22 45  1  0
 23 24  1  0
 23 46  1  0
 23 47  1  0
 24 48  1  0
 24 49  1  0
M  END

