
     RDKit          3D

 26 26  0  0  0  0  0  0  0  0999 V2000
    2.7747   -0.5923   -2.9087 N   0  0  0  0  0  0  0  0  0  0  0  0
    2.1874    0.6401   -2.3609 C   0  0  0  0  0  0  0  0  0  0  0  0
    2.8284    1.0066   -1.0171 C   0  0  0  0  0  0  0  0  0  0  0  0
    4.3528    1.2187   -1.0453 C   0  0  1  0  0  0  0  0  0  0  0  0
    5.0395    0.0382   -1.4286 O   0  0  0  0  0  0  0  0  0  0  0  0
    4.8029    2.4026   -1.9127 C   0  0  0  0  0  0  0  0  0  0  0  0
    6.2391    2.5697   -1.7874 N   0  0  0  0  0  0  0  0  0  0  0  0
    6.8241    3.5307   -2.6703 C   0  0  1  0  0  0  0  0  0  0  0  0
    6.9088    4.9649   -2.2066 C   0  0  0  0  0  0  0  0  0  0  0  0
    8.1553    4.1182   -2.2867 C   0  0  0  0  0  0  0  0  0  0  0  0
    2.4655   -0.7536   -3.8670 H   0  0  0  0  0  0  0  0  0  0  0  0
    2.4742   -1.4033   -2.3648 H   0  0  0  0  0  0  0  0  0  0  0  0
    1.0870    0.5788   -2.2336 H   0  0  0  0  0  0  0  0  0  0  0  0
    2.3657    1.4457   -3.0919 H   0  0  0  0  0  0  0  0  0  0  0  0
    2.6157    0.2044   -0.2877 H   0  0  0  0  0  0  0  0  0  0  0  0
    2.3382    1.9158   -0.6286 H   0  0  0  0  0  0  0  0  0  0  0  0
    4.6833    1.4459   -0.0161 H   0  0  0  0  0  0  0  0  0  0  0  0
    4.5275   -0.3357   -2.1767 H   0  0  0  0  0  0  0  0  0  0  0  0
    4.2945    3.3269   -1.5816 H   0  0  0  0  0  0  0  0  0  0  0  0
    4.4869    2.2291   -2.9678 H   0  0  0  0  0  0  0  0  0  0  0  0
    6.6737    1.6530   -1.8991 H   0  0  0  0  0  0  0  0  0  0  0  0
    6.6495    3.3937   -3.7536 H   0  0  0  0  0  0  0  0  0  0  0  0
    6.5125    5.1786   -1.2101 H   0  0  0  0  0  0  0  0  0  0  0  0
    6.7680    5.7625   -2.9420 H   0  0  0  0  0  0  0  0  0  0  0  0
    8.5865    3.7694   -1.3446 H   0  0  0  0  0  0  0  0  0  0  0  0
    8.8810    4.3250   -3.0784 H   0  0  0  0  0  0  0  0  0  0  0  0
  1  2  1  0
  1 11  1  0
  1 12  1  0
  2  3  1  0
  2 13  1  0
  2 14  1  0
  3  4  1  0
  3 15  1  0
  3 16  1  0
  4  5  1  0
  4  6  1  0
  4 17  1  1
  5 18  1  0
  6  7  1  0
  6 19  1  0
  6 20  1  0
  7  8  1  0
  7 21  1  0
  8  9  1  0
  8 10  1  0
  8 22  1  6
  9 10  1  0
  9 23  1  0
  9 24  1  0
 10 25  1  0
 10 26  1  0
M  END

