
     RDKit          3D

 37 38  0  0  0  0  0  0  0  0999 V2000
    0.7852   -0.0267   -0.0618 C   0  0  0  0  0  0  0  0  0  0  0  0
    2.3277   -0.1205   -0.0748 C   0  0  1  0  0  0  0  0  0  0  0  0
    2.7459   -1.5893   -0.2887 C   0  0  0  0  0  0  0  0  0  0  0  0
    2.8140    0.7105   -1.2804 C   0  0  0  0  0  0  0  0  0  0  0  0
    2.8946    0.4685    1.2743 C   0  0  1  0  0  0  0  0  0  0  0  0
    2.4351   -0.3721    2.4760 C   0  0  0  0  0  0  0  0  0  0  0  0
    2.5701    0.5663    4.2106 Br  0  0  0  0  0  0  0  0  0  0  0  0
    4.4322    0.6198    1.3852 C   0  0  0  0  0  0  0  0  0  0  0  0
    5.0528    1.6764    0.5807 N   0  0  0  0  0  0  0  0  0  0  0  0
    4.8022    3.0246    0.8183 C   0  0  0  0  0  0  0  0  0  0  0  0
    4.0084    3.4775    1.6052 O   0  0  0  0  0  0  0  0  0  0  0  0
    5.7572    3.8231   -0.1245 C   0  0  0  0  0  0  0  0  0  0  0  0
    5.7973    5.0246   -0.2088 O   0  0  0  0  0  0  0  0  0  0  0  0
    6.5412    2.7905   -0.8270 C   0  0  0  0  0  0  0  0  0  0  0  0
    7.5560    2.9200   -1.7717 C   0  0  0  0  0  0  0  0  0  0  0  0
    8.1481    1.7602   -2.2819 C   0  0  0  0  0  0  0  0  0  0  0  0
    7.7092    0.5074   -1.8380 C   0  0  0  0  0  0  0  0  0  0  0  0
    6.6876    0.3921   -0.8926 C   0  0  0  0  0  0  0  0  0  0  0  0
    6.3007   -0.8435   -0.5128 F   0  0  0  0  0  0  0  0  0  0  0  0
    6.0849    1.5344   -0.3627 C   0  0  0  0  0  0  0  0  0  0  0  0
    0.3802   -0.3410   -1.0368 H   0  0  0  0  0  0  0  0  0  0  0  0
    0.4498    1.0072    0.1209 H   0  0  0  0  0  0  0  0  0  0  0  0
    0.3205   -0.6721    0.6986 H   0  0  0  0  0  0  0  0  0  0  0  0
    2.3444   -1.9613   -1.2453 H   0  0  0  0  0  0  0  0  0  0  0  0
    2.3618   -2.2533    0.5018 H   0  0  0  0  0  0  0  0  0  0  0  0
    3.8402   -1.7024   -0.3315 H   0  0  0  0  0  0  0  0  0  0  0  0
    2.2872    0.3841   -2.1917 H   0  0  0  0  0  0  0  0  0  0  0  0
    3.8882    0.5868   -1.4717 H   0  0  0  0  0  0  0  0  0  0  0  0
    2.6080    1.7843   -1.1449 H   0  0  0  0  0  0  0  0  0  0  0  0
    2.4598    1.4733    1.3913 H   0  0  0  0  0  0  0  0  0  0  0  0
    3.0324   -1.2848    2.6014 H   0  0  0  0  0  0  0  0  0  0  0  0
    1.3804   -0.6501    2.4064 H   0  0  0  0  0  0  0  0  0  0  0  0
    4.9339   -0.3237    1.1459 H   0  0  0  0  0  0  0  0  0  0  0  0
    4.6542    0.8521    2.4387 H   0  0  0  0  0  0  0  0  0  0  0  0
    7.8685    3.9162   -2.0920 H   0  0  0  0  0  0  0  0  0  0  0  0
    8.9479    1.8209   -3.0222 H   0  0  0  0  0  0  0  0  0  0  0  0
    8.1506   -0.4158   -2.2203 H   0  0  0  0  0  0  0  0  0  0  0  0
  2  1  1  1
  1 21  1  0
  1 22  1  0
  1 23  1  0
  2  3  1  0
  2  4  1  0
  2  5  1  0
  3 24  1  0
  3 25  1  0
  3 26  1  0
  4 27  1  0
  4 28  1  0
  4 29  1  0
  5  6  1  0
  5  8  1  0
  5 30  1  1
  6  7  1  0
  6 31  1  0
  6 32  1  0
  8  9  1  0
  8 33  1  0
  8 34  1  0
  9 10  1  0
  9 20  1  0
 10 11  2  0
 10 12  1  0
 12 13  2  0
 12 14  1  0
 14 15  2  0
 14 20  1  0
 15 16  1  0
 15 35  1  0
 16 17  2  0
 16 36  1  0
 17 18  1  0
 17 37  1  0
 18 19  1  0
 18 20  2  0
M  END

