
     RDKit          3D

 27 27  0  0  0  0  0  0  0  0999 V2000
    3.5990   -1.1848   -0.1328 C   0  0  0  0  0  0  0  0  0  0  0  0
    2.5461   -0.0697   -0.1114 C   0  0  2  0  0  0  0  0  0  0  0  0
    1.3004   -0.5837   -0.6979 N   0  0  0  0  0  0  0  0  0  0  0  0
    3.0499    1.1395   -0.8759 C   0  0  0  0  0  0  0  0  0  0  0  0
    2.5041    1.6265   -2.0056 C   0  0  0  0  0  0  0  0  0  0  0  0
    2.9594    2.7802   -2.7984 C   0  0  0  0  0  0  0  0  0  0  0  0
    4.0658    3.5792   -2.4436 C   0  0  0  0  0  0  0  0  0  0  0  0
    4.4515    4.6595   -3.2351 C   0  0  0  0  0  0  0  0  0  0  0  0
    3.7433    4.9711   -4.4025 C   0  0  0  0  0  0  0  0  0  0  0  0
    2.6446    4.1904   -4.7698 C   0  0  0  0  0  0  0  0  0  0  0  0
    2.2587    3.1088   -3.9752 C   0  0  0  0  0  0  0  0  0  0  0  0
    2.2508    0.3243    1.3682 C   0  0  0  0  0  0  0  0  0  0  0  0
    2.3657   -0.4272    2.2984 O   0  0  0  0  0  0  0  0  0  0  0  0
    1.7324    1.5604    1.5362 O   0  0  0  0  0  0  0  0  0  0  0  0
    4.5695   -0.8184    0.2331 H   0  0  0  0  0  0  0  0  0  0  0  0
    3.7190   -1.5538   -1.1612 H   0  0  0  0  0  0  0  0  0  0  0  0
    3.2876   -2.0086    0.5261 H   0  0  0  0  0  0  0  0  0  0  0  0
    0.5284    0.0679   -0.5471 H   0  0  0  0  0  0  0  0  0  0  0  0
    1.0390   -1.4542   -0.2347 H   0  0  0  0  0  0  0  0  0  0  0  0
    3.9490    1.6013   -0.4517 H   0  0  0  0  0  0  0  0  0  0  0  0
    1.6330    1.0973   -2.4056 H   0  0  0  0  0  0  0  0  0  0  0  0
    4.6339    3.3551   -1.5378 H   0  0  0  0  0  0  0  0  0  0  0  0
    5.3125    5.2652   -2.9407 H   0  0  0  0  0  0  0  0  0  0  0  0
    4.0489    5.8188   -5.0209 H   0  0  0  0  0  0  0  0  0  0  0  0
    2.0847    4.4235   -5.6790 H   0  0  0  0  0  0  0  0  0  0  0  0
    1.3986    2.5003   -4.2683 H   0  0  0  0  0  0  0  0  0  0  0  0
    1.7770    2.0414    0.6911 H   0  0  0  0  0  0  0  0  0  0  0  0
  1  2  1  0
  1 15  1  0
  1 16  1  0
  1 17  1  0
  2  3  1  0
  2  4  1  6
  2 12  1  0
  3 18  1  0
  3 19  1  0
  4  5  2  0
  4 20  1  0
  5  6  1  0
  5 21  1  0
  6  7  2  0
  6 11  1  0
  7  8  1  0
  7 22  1  0
  8  9  2  0
  8 23  1  0
  9 10  1  0
  9 24  1  0
 10 11  2  0
 10 25  1  0
 11 26  1  0
 12 13  2  0
 12 14  1  0
 14 27  1  0
M  END

