
     RDKit          3D

 34 36  0  0  0  0  0  0  0  0999 V2000
   -0.4265    0.3759    0.6010 O   0  0  0  0  0  0  0  0  0  0  0  0
    0.9610    0.3618    0.8774 C   0  0  0  0  0  0  0  0  0  0  0  0
    1.4442   -1.0668    1.0100 C   0  0  0  0  0  0  0  0  0  0  0  0
    2.0940   -1.4371    2.1964 C   0  0  0  0  0  0  0  0  0  0  0  0
    2.5211   -2.7465    2.4093 C   0  0  0  0  0  0  0  0  0  0  0  0
    3.3286   -3.1679    3.9025 Cl  0  0  0  0  0  0  0  0  0  0  0  0
    2.2937   -3.7288    1.4460 C   0  0  0  0  0  0  0  0  0  0  0  0
    1.6547   -3.3686    0.2608 C   0  0  0  0  0  0  0  0  0  0  0  0
    1.3806   -4.5909   -0.9535 Cl  0  0  0  0  0  0  0  0  0  0  0  0
    1.2283   -2.0444    0.0092 C   0  0  0  0  0  0  0  0  0  0  0  0
    0.5922   -1.8380   -1.1640 O   0  0  0  0  0  0  0  0  0  0  0  0
    0.8841   -0.7282   -2.0091 C   0  0  0  0  0  0  0  0  0  0  0  0
    0.5806   -1.1552   -3.4355 C   0  0  2  0  0  0  0  0  0  0  0  0
    0.4945    0.0067   -4.5057 C   0  0  0  0  0  0  0  0  0  0  0  0
   -0.9491   -0.4251   -4.7232 C   0  0  0  0  0  0  0  0  0  0  0  0
   -2.1105   -0.1685   -5.4437 C   0  0  0  0  0  0  0  0  0  0  0  0
   -3.2102   -0.9949   -5.1501 C   0  0  0  0  0  0  0  0  0  0  0  0
   -3.1347   -2.0153   -4.1865 C   0  0  0  0  0  0  0  0  0  0  0  0
   -1.9534   -2.2664   -3.4666 C   0  0  0  0  0  0  0  0  0  0  0  0
   -0.8762   -1.4433   -3.7713 C   0  0  0  0  0  0  0  0  0  0  0  0
   -0.7112    1.2955    0.5202 H   0  0  0  0  0  0  0  0  0  0  0  0
    1.1894    0.8858    1.8244 H   0  0  0  0  0  0  0  0  0  0  0  0
    1.5308    0.8862    0.0844 H   0  0  0  0  0  0  0  0  0  0  0  0
    2.2535   -0.6917    2.9775 H   0  0  0  0  0  0  0  0  0  0  0  0
    2.6141   -4.7582    1.6042 H   0  0  0  0  0  0  0  0  0  0  0  0
    1.9476   -0.4447   -1.9101 H   0  0  0  0  0  0  0  0  0  0  0  0
    0.2522    0.1282   -1.7213 H   0  0  0  0  0  0  0  0  0  0  0  0
    1.2685   -1.9676   -3.7235 H   0  0  0  0  0  0  0  0  0  0  0  0
    1.1714   -0.1120   -5.3669 H   0  0  0  0  0  0  0  0  0  0  0  0
    0.6294    1.0212   -4.0935 H   0  0  0  0  0  0  0  0  0  0  0  0
   -2.1880    0.6216   -6.1957 H   0  0  0  0  0  0  0  0  0  0  0  0
   -4.1526   -0.8416   -5.6834 H   0  0  0  0  0  0  0  0  0  0  0  0
   -4.0208   -2.6269   -3.9953 H   0  0  0  0  0  0  0  0  0  0  0  0
   -1.8960   -3.0580   -2.7163 H   0  0  0  0  0  0  0  0  0  0  0  0
  1  2  1  0
  1 21  1  0
  2  3  1  0
  2 22  1  0
  2 23  1  0
  3  4  2  0
  3 10  1  0
  4  5  1  0
  4 24  1  0
  5  6  1  0
  5  7  2  0
  7  8  1  0
  7 25  1  0
  8  9  1  0
  8 10  2  0
 10 11  1  0
 11 12  1  0
 12 13  1  0
 12 26  1  0
 12 27  1  0
 13 14  1  0
 13 20  1  0
 13 28  1  6
 14 15  1  0
 14 29  1  0
 14 30  1  0
 15 16  2  0
 15 20  1  0
 16 17  1  0
 16 31  1  0
 17 18  2  0
 17 32  1  0
 18 19  1  0
 18 33  1  0
 19 20  2  0
 19 34  1  0
M  END

