
     RDKit          3D

 28 31  0  0  0  0  0  0  0  0999 V2000
    2.8441   -1.1165    0.0496 O   0  0  0  0  0  0  0  0  0  0  0  0
    2.2839   -0.0410    0.0771 C   0  0  0  0  0  0  0  0  0  0  0  0
    2.9921    1.2627    0.0405 C   0  0  0  0  0  0  0  0  0  0  0  0
    4.3971    1.2191   -0.0327 C   0  0  0  0  0  0  0  0  0  0  0  0
    5.1553    2.3776   -0.0722 C   0  0  0  0  0  0  0  0  0  0  0  0
    4.5333    3.6419   -0.0398 C   0  0  0  0  0  0  0  0  0  0  0  0
    5.2961    4.8603   -0.0795 C   0  0  0  0  0  0  0  0  0  0  0  0
    4.6870    6.0802   -0.0478 C   0  0  0  0  0  0  0  0  0  0  0  0
    3.2553    6.1961    0.0269 C   0  0  0  0  0  0  0  0  0  0  0  0
    2.6071    7.4442    0.0606 C   0  0  0  0  0  0  0  0  0  0  0  0
    1.2158    7.5262    0.1332 C   0  0  0  0  0  0  0  0  0  0  0  0
    0.4423    6.3652    0.1735 C   0  0  0  0  0  0  0  0  0  0  0  0
    1.0478    5.0962    0.1420 C   0  0  0  0  0  0  0  0  0  0  0  0
    0.2856    3.8789    0.1817 C   0  0  0  0  0  0  0  0  0  0  0  0
    0.8872    2.6549    0.1503 C   0  0  0  0  0  0  0  0  0  0  0  0
    2.3215    2.5166    0.0755 C   0  0  0  0  0  0  0  0  0  0  0  0
    3.1064    3.7176    0.0346 C   0  0  0  0  0  0  0  0  0  0  0  0
    2.4712    4.9999    0.0678 C   0  0  0  0  0  0  0  0  0  0  0  0
    1.1701   -0.0010    0.1369 H   0  0  0  0  0  0  0  0  0  0  0  0
    4.8653    0.2327   -0.0572 H   0  0  0  0  0  0  0  0  0  0  0  0
    6.2455    2.3231   -0.1290 H   0  0  0  0  0  0  0  0  0  0  0  0
    6.3851    4.7839   -0.1363 H   0  0  0  0  0  0  0  0  0  0  0  0
    5.2802    6.9982   -0.0788 H   0  0  0  0  0  0  0  0  0  0  0  0
    3.2098    8.3557    0.0292 H   0  0  0  0  0  0  0  0  0  0  0  0
    0.7297    8.5045    0.1585 H   0  0  0  0  0  0  0  0  0  0  0  0
   -0.6474    6.4322    0.2304 H   0  0  0  0  0  0  0  0  0  0  0  0
   -0.8039    3.9524    0.2385 H   0  0  0  0  0  0  0  0  0  0  0  0
    0.2640    1.7618    0.1828 H   0  0  0  0  0  0  0  0  0  0  0  0
  1  2  2  0
  2  3  1  0
  2 19  1  0
  3  4  2  0
  3 16  1  0
  4  5  1  0
  4 20  1  0
  5  6  2  0
  5 21  1  0
  6  7  1  0
  6 17  1  0
  7  8  2  0
  7 22  1  0
  8  9  1  0
  8 23  1  0
  9 10  2  0
  9 18  1  0
 10 11  1  0
 10 24  1  0
 11 12  2  0
 11 25  1  0
 12 13  1  0
 12 26  1  0
 13 14  2  0
 13 18  1  0
 14 15  1  0
 14 27  1  0
 15 16  2  0
 15 28  1  0
 16 17  1  0
 17 18  2  0
M  END

