
     RDKit          3D

 52 53  0  0  0  0  0  0  0  0999 V2000
    3.5894   -1.2072    0.8618 C   0  0  0  0  0  0  0  0  0  0  0  0
    3.8871    0.1140    0.4757 O   0  0  0  0  0  0  0  0  0  0  0  0
    3.9576    0.4183   -0.8471 C   0  0  0  0  0  0  0  0  0  0  0  0
    3.7544   -0.4977   -1.8897 C   0  0  0  0  0  0  0  0  0  0  0  0
    3.8505   -0.0715   -3.2181 C   0  0  0  0  0  0  0  0  0  0  0  0
    4.1474    1.2570   -3.5639 C   0  0  0  0  0  0  0  0  0  0  0  0
    4.2520    1.6682   -5.0444 C   0  0  1  0  0  0  0  0  0  0  0  0
    2.9410    1.3144   -5.7802 C   0  0  0  0  0  0  0  0  0  0  0  0
    4.5140    3.1751   -5.2116 C   0  0  0  0  0  0  0  0  0  0  0  0
    5.4482    0.8740   -5.6582 C   0  0  0  0  0  0  0  0  0  0  0  0
    5.7086    1.1106   -7.0654 N   0  0  0  0  0  0  0  0  0  0  0  0
    5.4032    0.2038   -8.0379 C   0  0  0  0  0  0  0  0  0  0  0  0
    4.8294   -0.8532   -7.8189 O   0  0  0  0  0  0  0  0  0  0  0  0
    5.8925    0.5527   -9.4500 C   0  0  0  0  0  0  0  0  0  0  0  0
    5.6982    1.9986   -9.9615 C   0  0  1  0  0  0  0  0  0  0  0  0
    6.4632    2.9022   -9.1388 O   0  0  0  0  0  0  0  0  0  0  0  0
    6.1799    2.1285  -11.4222 C   0  0  0  0  0  0  0  0  0  0  0  0
    5.2611    1.4439  -12.4440 C   0  0  0  0  0  0  0  0  0  0  0  0
    3.8119    1.9266  -12.3040 C   0  0  0  0  0  0  0  0  0  0  0  0
    3.3074    1.7790  -10.8631 C   0  0  0  0  0  0  0  0  0  0  0  0
    4.2394    2.4792   -9.8654 C   0  0  0  0  0  0  0  0  0  0  0  0
    4.3481    2.1546   -2.4986 C   0  0  0  0  0  0  0  0  0  0  0  0
    4.2554    1.7506   -1.1683 C   0  0  0  0  0  0  0  0  0  0  0  0
    3.5841   -1.2201    1.9603 H   0  0  0  0  0  0  0  0  0  0  0  0
    4.3488   -1.9249    0.5010 H   0  0  0  0  0  0  0  0  0  0  0  0
    2.5974   -1.5312    0.4971 H   0  0  0  0  0  0  0  0  0  0  0  0
    3.5198   -1.5425   -1.6845 H   0  0  0  0  0  0  0  0  0  0  0  0
    3.6818   -0.8134   -4.0023 H   0  0  0  0  0  0  0  0  0  0  0  0
    2.0872    1.8338   -5.3172 H   0  0  0  0  0  0  0  0  0  0  0  0
    2.7389    0.2343   -5.7668 H   0  0  0  0  0  0  0  0  0  0  0  0
    2.9929    1.6198   -6.8364 H   0  0  0  0  0  0  0  0  0  0  0  0
    3.7003    3.7772   -4.7782 H   0  0  0  0  0  0  0  0  0  0  0  0
    4.5793    3.4343   -6.2793 H   0  0  0  0  0  0  0  0  0  0  0  0
    5.4576    3.4871   -4.7356 H   0  0  0  0  0  0  0  0  0  0  0  0
    5.2669   -0.2036   -5.5524 H   0  0  0  0  0  0  0  0  0  0  0  0
    6.3560    1.1192   -5.0804 H   0  0  0  0  0  0  0  0  0  0  0  0
    6.1414    1.9779   -7.3752 H   0  0  0  0  0  0  0  0  0  0  0  0
    5.4014   -0.1705  -10.1136 H   0  0  0  0  0  0  0  0  0  0  0  0
    6.9735    0.3216   -9.4896 H   0  0  0  0  0  0  0  0  0  0  0  0
    7.3994    2.7788   -9.3523 H   0  0  0  0  0  0  0  0  0  0  0  0
    7.2094    1.7340  -11.5063 H   0  0  0  0  0  0  0  0  0  0  0  0
    6.2339    3.2088  -11.6435 H   0  0  0  0  0  0  0  0  0  0  0  0
    5.2997    0.3486  -12.3108 H   0  0  0  0  0  0  0  0  0  0  0  0
    5.6355    1.6388  -13.4626 H   0  0  0  0  0  0  0  0  0  0  0  0
    3.1576    1.3752  -12.9995 H   0  0  0  0  0  0  0  0  0  0  0  0
    3.7551    2.9906  -12.5993 H   0  0  0  0  0  0  0  0  0  0  0  0
    3.2168    0.7091  -10.6057 H   0  0  0  0  0  0  0  0  0  0  0  0
    2.2926    2.1995  -10.7696 H   0  0  0  0  0  0  0  0  0  0  0  0
    3.8752    2.3511   -8.8348 H   0  0  0  0  0  0  0  0  0  0  0  0
    4.2487    3.5649  -10.0615 H   0  0  0  0  0  0  0  0  0  0  0  0
    4.5808    3.2013   -2.6970 H   0  0  0  0  0  0  0  0  0  0  0  0
    4.4111    2.4591   -0.3518 H   0  0  0  0  0  0  0  0  0  0  0  0
  1  2  1  0
  1 24  1  0
  1 25  1  0
  1 26  1  0
  2  3  1  0
  3  4  2  0
  3 23  1  0
  4  5  1  0
  4 27  1  0
  5  6  2  0
  5 28  1  0
  6  7  1  0
  6 22  1  0
  7  8  1  6
  7  9  1  0
  7 10  1  0
  8 29  1  0
  8 30  1  0
  8 31  1  0
  9 32  1  0
  9 33  1  0
  9 34  1  0
 10 11  1  0
 10 35  1  0
 10 36  1  0
 11 12  1  0
 11 37  1  0
 12 13  2  0
 12 14  1  0
 14 15  1  0
 14 38  1  0
 14 39  1  0
 15 16  1  1
 15 17  1  0
 15 21  1  0
 16 40  1  0
 17 18  1  0
 17 41  1  0
 17 42  1  0
 18 19  1  0
 18 43  1  0
 18 44  1  0
 19 20  1  0
 19 45  1  0
 19 46  1  0
 20 21  1  0
 20 47  1  0
 20 48  1  0
 21 49  1  0
 21 50  1  0
 22 23  2  0
 22 51  1  0
 23 52  1  0
M  END

