
     RDKit          3D

 45 46  0  0  0  0  0  0  0  0999 V2000
    3.5972    1.4994    0.1013 N   0  0  0  0  0  0  0  0  0  0  0  0
    3.6754    0.1485    0.3673 C   0  0  0  0  0  0  0  0  0  0  0  0
    3.5499   -0.3545    1.5525 N   0  0  0  0  0  0  0  0  0  0  0  0
    3.4310    0.6696    2.5099 O   0  0  0  0  0  0  0  0  0  0  0  0
    3.8555   -0.7868   -0.7712 C   0  0  0  0  0  0  0  0  0  0  0  0
    4.3702   -2.0789   -0.5616 C   0  0  0  0  0  0  0  0  0  0  0  0
    4.5377   -2.9592   -1.6276 C   0  0  0  0  0  0  0  0  0  0  0  0
    4.1991   -2.5817   -2.9386 C   0  0  0  0  0  0  0  0  0  0  0  0
    4.4244   -3.5253   -4.1029 C   0  0  0  0  0  0  0  0  0  0  0  0
    4.1888   -4.9138   -3.7503 N   0  0  0  0  0  0  0  0  0  0  0  0
    4.4445   -5.8680   -4.8164 C   0  0  0  0  0  0  0  0  0  0  0  0
    4.1772   -7.3004   -4.3525 C   0  0  0  0  0  0  0  0  0  0  0  0
    4.3929   -8.3819   -5.4300 C   0  0  1  0  0  0  0  0  0  0  0  0
    5.8634   -8.5291   -5.8837 C   0  0  0  0  0  0  0  0  0  0  0  0
    6.7567   -9.1931   -4.8252 C   0  0  0  0  0  0  0  0  0  0  0  0
    6.1934  -10.5512   -4.3852 C   0  0  0  0  0  0  0  0  0  0  0  0
    4.7373  -10.4318   -3.9155 C   0  0  0  0  0  0  0  0  0  0  0  0
    3.8575   -9.7594   -4.9801 C   0  0  0  0  0  0  0  0  0  0  0  0
    3.6756   -1.2985   -3.1436 C   0  0  0  0  0  0  0  0  0  0  0  0
    3.5060   -0.4108   -2.0784 C   0  0  0  0  0  0  0  0  0  0  0  0
    3.6182    2.0853    0.9296 H   0  0  0  0  0  0  0  0  0  0  0  0
    4.1437    1.8412   -0.6801 H   0  0  0  0  0  0  0  0  0  0  0  0
    3.3363    0.1787    3.3344 H   0  0  0  0  0  0  0  0  0  0  0  0
    4.6384   -2.3757    0.4536 H   0  0  0  0  0  0  0  0  0  0  0  0
    4.9337   -3.9628   -1.4591 H   0  0  0  0  0  0  0  0  0  0  0  0
    5.4779   -3.4407   -4.4343 H   0  0  0  0  0  0  0  0  0  0  0  0
    3.8164   -3.1795   -4.9701 H   0  0  0  0  0  0  0  0  0  0  0  0
    3.2376   -5.0236   -3.3978 H   0  0  0  0  0  0  0  0  0  0  0  0
    5.5009   -5.7564   -5.1183 H   0  0  0  0  0  0  0  0  0  0  0  0
    3.8454   -5.6603   -5.7346 H   0  0  0  0  0  0  0  0  0  0  0  0
    3.1270   -7.3625   -4.0105 H   0  0  0  0  0  0  0  0  0  0  0  0
    4.7942   -7.4913   -3.4592 H   0  0  0  0  0  0  0  0  0  0  0  0
    3.8025   -8.0721   -6.3121 H   0  0  0  0  0  0  0  0  0  0  0  0
    6.2813   -7.5519   -6.1773 H   0  0  0  0  0  0  0  0  0  0  0  0
    5.8802   -9.1496   -6.7982 H   0  0  0  0  0  0  0  0  0  0  0  0
    6.8502   -8.5330   -3.9442 H   0  0  0  0  0  0  0  0  0  0  0  0
    7.7788   -9.3145   -5.2224 H   0  0  0  0  0  0  0  0  0  0  0  0
    6.8201  -10.9885   -3.5894 H   0  0  0  0  0  0  0  0  0  0  0  0
    6.2405  -11.2540   -5.2382 H   0  0  0  0  0  0  0  0  0  0  0  0
    4.7018   -9.8500   -2.9770 H   0  0  0  0  0  0  0  0  0  0  0  0
    4.3322  -11.4283   -3.6705 H   0  0  0  0  0  0  0  0  0  0  0  0
    2.8216   -9.6588   -4.6129 H   0  0  0  0  0  0  0  0  0  0  0  0
    3.8081  -10.4208   -5.8643 H   0  0  0  0  0  0  0  0  0  0  0  0
    3.3834   -0.9890   -4.1516 H   0  0  0  0  0  0  0  0  0  0  0  0
    3.0654    0.5718   -2.2617 H   0  0  0  0  0  0  0  0  0  0  0  0
  1  2  1  0
  1 21  1  0
  1 22  1  0
  2  3  2  0
  2  5  1  0
  3  4  1  0
  4 23  1  0
  5  6  2  0
  5 20  1  0
  6  7  1  0
  6 24  1  0
  7  8  2  0
  7 25  1  0
  8  9  1  0
  8 19  1  0
  9 10  1  0
  9 26  1  0
  9 27  1  0
 10 11  1  0
 10 28  1  0
 11 12  1  0
 11 29  1  0
 11 30  1  0
 12 13  1  0
 12 31  1  0
 12 32  1  0
 13 14  1  0
 13 18  1  0
 13 33  1  6
 14 15  1  0
 14 34  1  0
 14 35  1  0
 15 16  1  0
 15 36  1  0
 15 37  1  0
 16 17  1  0
 16 38  1  0
 16 39  1  0
 17 18  1  0
 17 40  1  0
 17 41  1  0
 18 42  1  0
 18 43  1  0
 19 20  2  0
 19 44  1  0
 20 45  1  0
M  END

