
     RDKit          3D

 34 34  0  0  0  0  0  0  0  0999 V2000
    0.7915   -2.0402   -0.0184 C   0  0  0  0  0  0  0  0  0  0  0  0
    2.3045   -2.2156   -0.0823 C   0  0  0  0  0  0  0  0  0  0  0  0
    2.9025   -1.1652   -0.9063 N   0  0  0  0  0  0  0  0  0  0  0  0
    4.3537   -1.1297   -1.0654 C   0  0  1  0  0  0  0  0  0  0  0  0
    4.7417    0.2016   -1.7334 C   0  0  0  0  0  0  0  0  0  0  0  0
    5.0608   -1.2296    0.2484 C   0  0  0  0  0  0  0  0  0  0  0  0
    5.5414   -1.3032    1.3010 N   0  0  0  0  0  0  0  0  0  0  0  0
    4.7880   -2.3085   -1.9656 C   0  0  0  0  0  0  0  0  0  0  0  0
    6.1956   -2.2412   -2.1336 O   0  0  0  0  0  0  0  0  0  0  0  0
    6.8950   -3.3671   -2.4531 C   0  0  0  0  0  0  0  0  0  0  0  0
    8.0821   -3.6298   -1.7626 C   0  0  0  0  0  0  0  0  0  0  0  0
    8.8862   -4.7382   -2.0698 C   0  0  0  0  0  0  0  0  0  0  0  0
   10.1707   -4.9778   -1.3133 C   0  0  0  0  0  0  0  0  0  0  0  0
    8.4634   -5.6045   -3.0888 C   0  0  0  0  0  0  0  0  0  0  0  0
    7.2774   -5.3626   -3.7886 C   0  0  0  0  0  0  0  0  0  0  0  0
    6.5094   -4.2485   -3.4766 C   0  0  0  0  0  0  0  0  0  0  0  0
    5.3783   -4.0050   -4.1687 F   0  0  0  0  0  0  0  0  0  0  0  0
    0.3302   -2.8451    0.5739 H   0  0  0  0  0  0  0  0  0  0  0  0
    0.3518   -2.0505   -1.0277 H   0  0  0  0  0  0  0  0  0  0  0  0
    0.5218   -1.0827    0.4596 H   0  0  0  0  0  0  0  0  0  0  0  0
    2.5345   -3.1957   -0.5319 H   0  0  0  0  0  0  0  0  0  0  0  0
    2.7234   -2.2387    0.9455 H   0  0  0  0  0  0  0  0  0  0  0  0
    2.5805   -0.2529   -0.5854 H   0  0  0  0  0  0  0  0  0  0  0  0
    4.4821    1.0515   -1.0831 H   0  0  0  0  0  0  0  0  0  0  0  0
    4.1898    0.2972   -2.6802 H   0  0  0  0  0  0  0  0  0  0  0  0
    5.8198    0.2312   -1.9365 H   0  0  0  0  0  0  0  0  0  0  0  0
    4.2573   -2.2120   -2.9254 H   0  0  0  0  0  0  0  0  0  0  0  0
    4.5088   -3.2709   -1.5066 H   0  0  0  0  0  0  0  0  0  0  0  0
    8.3599   -2.9348   -0.9665 H   0  0  0  0  0  0  0  0  0  0  0  0
   10.0023   -4.9750   -0.2242 H   0  0  0  0  0  0  0  0  0  0  0  0
   10.9118   -4.1884   -1.5256 H   0  0  0  0  0  0  0  0  0  0  0  0
   10.6242   -5.9425   -1.5838 H   0  0  0  0  0  0  0  0  0  0  0  0
    9.0654   -6.4804   -3.3427 H   0  0  0  0  0  0  0  0  0  0  0  0
    6.9384   -6.0237   -4.5891 H   0  0  0  0  0  0  0  0  0  0  0  0
  1  2  1  0
  1 18  1  0
  1 19  1  0
  1 20  1  0
  2  3  1  0
  2 21  1  0
  2 22  1  0
  3  4  1  0
  3 23  1  0
  4  5  1  0
  4  6  1  1
  4  8  1  0
  5 24  1  0
  5 25  1  0
  5 26  1  0
  6  7  3  0
  8  9  1  0
  8 27  1  0
  8 28  1  0
  9 10  1  0
 10 11  2  0
 10 16  1  0
 11 12  1  0
 11 29  1  0
 12 13  1  0
 12 14  2  0
 13 30  1  0
 13 31  1  0
 13 32  1  0
 14 15  1  0
 14 33  1  0
 15 16  2  0
 15 34  1  0
 16 17  1  0
M  END

