
     RDKit          3D

 41 42  0  0  0  0  0  0  0  0999 V2000
    1.0630   -0.1193   -0.6534 C   0  0  0  0  0  0  0  0  0  0  0  0
    2.5668   -0.0007   -0.4070 C   0  0  0  0  0  0  0  0  0  0  0  0
    3.0569    1.4457   -0.3545 C   0  0  0  0  0  0  0  0  0  0  0  0
    4.4866    1.5126   -0.0874 N   0  0  0  0  0  0  0  0  0  0  0  0
    5.0571    2.8540   -0.0589 C   0  0  1  0  0  0  0  0  0  0  0  0
    4.5154    3.6895    1.1127 C   0  0  0  0  0  0  0  0  0  0  0  0
    3.9406    4.8766    0.8451 C   0  0  0  0  0  0  0  0  0  0  0  0
    3.4438    5.9269    1.8120 C   0  0  0  0  0  0  0  0  0  0  0  0
    4.1601    5.9640    3.1697 C   0  0  0  0  0  0  0  0  0  0  0  0
    3.7570    4.8494    4.1462 C   0  0  0  0  0  0  0  0  0  0  0  0
    3.6047    3.4580    3.5126 C   0  0  0  0  0  0  0  0  0  0  0  0
    4.6875    3.0782    2.4913 C   0  0  0  0  0  0  0  0  0  0  0  0
    6.5759    2.7752    0.0221 C   0  0  0  0  0  0  0  0  0  0  0  0
    7.2717    1.6889    0.5407 C   0  0  0  0  0  0  0  0  0  0  0  0
    8.6707    1.7729    0.5754 C   0  0  0  0  0  0  0  0  0  0  0  0
    9.3604    2.8253    0.1407 N   0  0  0  0  0  0  0  0  0  0  0  0
    8.7038    3.8669   -0.3606 N   0  0  0  0  0  0  0  0  0  0  0  0
    7.3755    3.8485   -0.4164 C   0  0  0  0  0  0  0  0  0  0  0  0
    0.7445   -1.1729   -0.6869 H   0  0  0  0  0  0  0  0  0  0  0  0
    0.7716    0.3460   -1.6098 H   0  0  0  0  0  0  0  0  0  0  0  0
    0.4854    0.3767    0.1444 H   0  0  0  0  0  0  0  0  0  0  0  0
    3.1138   -0.5390   -1.2039 H   0  0  0  0  0  0  0  0  0  0  0  0
    2.8409   -0.4977    0.5392 H   0  0  0  0  0  0  0  0  0  0  0  0
    2.5259    1.9854    0.4481 H   0  0  0  0  0  0  0  0  0  0  0  0
    2.7787    1.9658   -1.3004 H   0  0  0  0  0  0  0  0  0  0  0  0
    4.9881    0.9466   -0.7716 H   0  0  0  0  0  0  0  0  0  0  0  0
    4.8156    3.4233   -0.9829 H   0  0  0  0  0  0  0  0  0  0  0  0
    3.8355    5.1462   -0.2135 H   0  0  0  0  0  0  0  0  0  0  0  0
    2.3504    5.8211    1.9595 H   0  0  0  0  0  0  0  0  0  0  0  0
    3.5647    6.9070    1.3196 H   0  0  0  0  0  0  0  0  0  0  0  0
    3.9759    6.9398    3.6500 H   0  0  0  0  0  0  0  0  0  0  0  0
    5.2470    5.9233    2.9830 H   0  0  0  0  0  0  0  0  0  0  0  0
    2.8039    5.1150    4.6370 H   0  0  0  0  0  0  0  0  0  0  0  0
    4.5082    4.8061    4.9544 H   0  0  0  0  0  0  0  0  0  0  0  0
    2.6216    3.3796    3.0170 H   0  0  0  0  0  0  0  0  0  0  0  0
    3.5917    2.7048    4.3186 H   0  0  0  0  0  0  0  0  0  0  0  0
    4.6807    1.9850    2.3550 H   0  0  0  0  0  0  0  0  0  0  0  0
    5.6907    3.3174    2.8924 H   0  0  0  0  0  0  0  0  0  0  0  0
    6.7486    0.8035    0.9067 H   0  0  0  0  0  0  0  0  0  0  0  0
    9.2730    0.9500    0.9751 H   0  0  0  0  0  0  0  0  0  0  0  0
    6.9128    4.7472   -0.8397 H   0  0  0  0  0  0  0  0  0  0  0  0
  1  2  1  0
  1 19  1  0
  1 20  1  0
  1 21  1  0
  2  3  1  0
  2 22  1  0
  2 23  1  0
  3  4  1  0
  3 24  1  0
  3 25  1  0
  4  5  1  0
  4 26  1  0
  5  6  1  0
  5 13  1  0
  5 27  1  6
  6  7  2  0
  6 12  1  0
  7  8  1  0
  7 28  1  0
  8  9  1  0
  8 29  1  0
  8 30  1  0
  9 10  1  0
  9 31  1  0
  9 32  1  0
 10 11  1  0
 10 33  1  0
 10 34  1  0
 11 12  1  0
 11 35  1  0
 11 36  1  0
 12 37  1  0
 12 38  1  0
 13 14  2  0
 13 18  1  0
 14 15  1  0
 14 39  1  0
 15 16  2  0
 15 40  1  0
 16 17  1  0
 17 18  2  0
 18 41  1  0
M  END

