
     RDKit          3D

 43 46  0  0  0  0  0  0  0  0999 V2000
    0.8814   -0.1298   -0.5609 C   0  0  0  0  0  0  0  0  0  0  0  0
    2.2944   -0.0220   -0.2770 N   0  0  0  0  0  0  0  0  0  0  0  0
    3.0499    1.0925    0.0501 C   0  0  0  0  0  0  0  0  0  0  0  0
    2.4889    2.4561    0.1755 C   0  0  1  0  0  0  0  0  0  0  0  0
    3.0614    3.3802    1.2373 C   0  0  0  0  0  0  0  0  0  0  0  0
    3.3656    3.6368   -0.2038 C   0  0  0  0  0  0  0  0  0  0  0  0
    4.3206    0.8127    0.2417 N   0  0  0  0  0  0  0  0  0  0  0  0
    4.4422   -0.5465    0.0382 C   0  0  0  0  0  0  0  0  0  0  0  0
    5.5681   -1.3721    0.1147 C   0  0  0  0  0  0  0  0  0  0  0  0
    5.4268   -2.7483   -0.1410 C   0  0  0  0  0  0  0  0  0  0  0  0
    6.5510   -3.5748   -0.0240 N   0  0  0  0  0  0  0  0  0  0  0  0
    6.5793   -4.9239   -0.5426 C   0  0  0  0  0  0  0  0  0  0  0  0
    7.8789   -5.6273   -0.2085 C   0  0  0  0  0  0  0  0  0  0  0  0
    8.4560   -5.5062    1.0679 C   0  0  0  0  0  0  0  0  0  0  0  0
    9.6289   -6.1852    1.3873 C   0  0  0  0  0  0  0  0  0  0  0  0
   10.2696   -6.9925    0.4337 C   0  0  0  0  0  0  0  0  0  0  0  0
   11.5276   -7.7047    0.8463 C   0  0  0  0  0  0  0  0  0  0  0  0
   11.8451   -7.8699    1.9945 O   0  0  0  0  0  0  0  0  0  0  0  0
   12.3178   -8.1635   -0.1527 O   0  0  0  0  0  0  0  0  0  0  0  0
    9.6904   -7.1247   -0.8374 C   0  0  0  0  0  0  0  0  0  0  0  0
    8.5116   -6.4464   -1.1538 C   0  0  0  0  0  0  0  0  0  0  0  0
    4.1513   -3.2707   -0.4834 C   0  0  0  0  0  0  0  0  0  0  0  0
    3.0177   -2.4551   -0.5547 C   0  0  0  0  0  0  0  0  0  0  0  0
    3.1777   -1.0964   -0.2914 C   0  0  0  0  0  0  0  0  0  0  0  0
    0.3950    0.8471   -0.4581 H   0  0  0  0  0  0  0  0  0  0  0  0
    0.3955   -0.8313    0.1378 H   0  0  0  0  0  0  0  0  0  0  0  0
    0.7125   -0.4937   -1.5886 H   0  0  0  0  0  0  0  0  0  0  0  0
    1.4219    2.5565   -0.0318 H   0  0  0  0  0  0  0  0  0  0  0  0
    3.8600    2.9589    1.8529 H   0  0  0  0  0  0  0  0  0  0  0  0
    2.3642    4.0430    1.7579 H   0  0  0  0  0  0  0  0  0  0  0  0
    4.3687    3.3873   -0.5582 H   0  0  0  0  0  0  0  0  0  0  0  0
    2.8840    4.4818   -0.7043 H   0  0  0  0  0  0  0  0  0  0  0  0
    6.5390   -0.9465    0.3801 H   0  0  0  0  0  0  0  0  0  0  0  0
    7.4309   -3.0801   -0.1256 H   0  0  0  0  0  0  0  0  0  0  0  0
    6.4062   -4.9729   -1.6389 H   0  0  0  0  0  0  0  0  0  0  0  0
    5.7528   -5.4965   -0.0824 H   0  0  0  0  0  0  0  0  0  0  0  0
    7.9701   -4.8698    1.8110 H   0  0  0  0  0  0  0  0  0  0  0  0
   10.0733   -6.1063    2.3814 H   0  0  0  0  0  0  0  0  0  0  0  0
   12.0060   -7.8362   -1.0077 H   0  0  0  0  0  0  0  0  0  0  0  0
   10.1354   -7.7789   -1.5936 H   0  0  0  0  0  0  0  0  0  0  0  0
    8.0747   -6.5600   -2.1497 H   0  0  0  0  0  0  0  0  0  0  0  0
    4.0385   -4.3335   -0.6979 H   0  0  0  0  0  0  0  0  0  0  0  0
    2.0490   -2.8862   -0.8182 H   0  0  0  0  0  0  0  0  0  0  0  0
  1  2  1  0
  1 25  1  0
  1 26  1  0
  1 27  1  0
  2  3  1  0
  2 24  1  0
  3  4  1  0
  3  7  2  0
  4  5  1  0
  4  6  1  0
  4 28  1  6
  5  6  1  0
  5 29  1  0
  5 30  1  0
  6 31  1  0
  6 32  1  0
  7  8  1  0
  8  9  1  0
  8 24  2  0
  9 10  2  0
  9 33  1  0
 10 11  1  0
 10 22  1  0
 11 12  1  0
 11 34  1  0
 12 13  1  0
 12 35  1  0
 12 36  1  0
 13 14  2  0
 13 21  1  0
 14 15  1  0
 14 37  1  0
 15 16  2  0
 15 38  1  0
 16 17  1  0
 16 20  1  0
 17 18  2  0
 17 19  1  0
 19 39  1  0
 20 21  2  0
 20 40  1  0
 21 41  1  0
 22 23  2  0
 22 42  1  0
 23 24  1  0
 23 43  1  0
M  END

