
     RDKit          3D

 41 43  0  0  0  0  0  0  0  0999 V2000
    3.7085   -1.6372    0.8669 C   0  0  0  0  0  0  0  0  0  0  0  0
    3.1862   -0.3383    0.2961 C   0  0  0  0  0  0  0  0  0  0  0  0
    3.9087    0.8055    0.5377 C   0  0  0  0  0  0  0  0  0  0  0  0
    3.5476    2.1191    0.0366 C   0  0  0  0  0  0  0  0  0  0  0  0
    4.1348    3.1709    0.2266 O   0  0  0  0  0  0  0  0  0  0  0  0
    2.3801    2.0883   -0.7598 N   0  0  0  0  0  0  0  0  0  0  0  0
    2.1019    2.9879   -1.1446 H   0  0  0  0  0  0  0  0  0  0  0  0
    1.6562    0.9819   -1.0239 C   0  0  0  0  0  0  0  0  0  0  0  0
    1.9848   -0.2560   -0.5163 C   0  0  0  0  0  0  0  0  0  0  0  0
    1.0317   -1.3445   -0.9413 C   0  0  0  0  0  0  0  0  0  0  0  0
    0.2637   -1.1616   -1.8796 O   0  0  0  0  0  0  0  0  0  0  0  0
    1.0337   -2.5158   -0.2341 N   0  0  0  0  0  0  0  0  0  0  0  0
    0.1288   -3.6112   -0.5292 C   0  0  1  0  0  0  0  0  0  0  0  0
    0.8337   -4.9837   -0.6052 C   0  0  0  0  0  0  0  0  0  0  0  0
   -0.2613   -5.9808   -0.2035 C   0  0  2  0  0  0  0  0  0  0  0  0
   -1.1668   -6.3897   -1.3778 C   0  0  0  0  0  0  0  0  0  0  0  0
   -0.9255   -5.2391    0.8774 N   0  0  0  0  0  0  0  0  0  0  0  0
   -2.0749   -5.8038    1.5024 C   0  0  1  0  0  0  0  0  0  0  0  0
   -1.8787   -6.9498    2.4625 C   0  0  0  0  0  0  0  0  0  0  0  0
   -2.2575   -5.5881    2.9856 C   0  0  0  0  0  0  0  0  0  0  0  0
   -0.9973   -3.8241    0.5229 C   0  0  0  0  0  0  0  0  0  0  0  0
    4.7274   -1.5029    1.2545 H   0  0  0  0  0  0  0  0  0  0  0  0
    3.7289   -2.4386    0.1134 H   0  0  0  0  0  0  0  0  0  0  0  0
    3.0923   -1.9863    1.7151 H   0  0  0  0  0  0  0  0  0  0  0  0
    4.8258    0.7732    1.1286 H   0  0  0  0  0  0  0  0  0  0  0  0
    0.7834    1.0856   -1.6710 H   0  0  0  0  0  0  0  0  0  0  0  0
    1.5993   -2.5902    0.6000 H   0  0  0  0  0  0  0  0  0  0  0  0
   -0.3203   -3.3548   -1.4964 H   0  0  0  0  0  0  0  0  0  0  0  0
    1.6483   -5.0233    0.1367 H   0  0  0  0  0  0  0  0  0  0  0  0
    1.2685   -5.1788   -1.5970 H   0  0  0  0  0  0  0  0  0  0  0  0
    0.1823   -6.8986    0.2205 H   0  0  0  0  0  0  0  0  0  0  0  0
   -1.6260   -5.5173   -1.8714 H   0  0  0  0  0  0  0  0  0  0  0  0
   -1.9794   -7.0519   -1.0407 H   0  0  0  0  0  0  0  0  0  0  0  0
   -0.5872   -6.9378   -2.1381 H   0  0  0  0  0  0  0  0  0  0  0  0
   -3.0079   -5.8240    0.9107 H   0  0  0  0  0  0  0  0  0  0  0  0
   -0.8517   -7.2847    2.6305 H   0  0  0  0  0  0  0  0  0  0  0  0
   -2.6282   -7.7460    2.4778 H   0  0  0  0  0  0  0  0  0  0  0  0
   -1.4814   -5.0136    3.4981 H   0  0  0  0  0  0  0  0  0  0  0  0
   -3.2713   -5.4348    3.3660 H   0  0  0  0  0  0  0  0  0  0  0  0
   -0.8453   -3.1866    1.4122 H   0  0  0  0  0  0  0  0  0  0  0  0
   -1.9805   -3.5354    0.0956 H   0  0  0  0  0  0  0  0  0  0  0  0
  1  2  1  0
  1 22  1  0
  1 23  1  0
  1 24  1  0
  2  3  2  0
  2  9  1  0
  3  4  1  0
  3 25  1  0
  4  5  2  0
  4  6  1  0
  6  7  1  0
  6  8  1  0
  8  9  2  0
  8 26  1  0
  9 10  1  0
 10 11  2  0
 10 12  1  0
 12 13  1  0
 12 27  1  0
 13 14  1  0
 13 21  1  0
 13 28  1  6
 14 15  1  0
 14 29  1  0
 14 30  1  0
 15 16  1  0
 15 17  1  0
 15 31  1  1
 16 32  1  0
 16 33  1  0
 16 34  1  0
 17 18  1  0
 17 21  1  0
 18 19  1  0
 18 20  1  0
 18 35  1  6
 19 20  1  0
 19 36  1  0
 19 37  1  0
 20 38  1  0
 20 39  1  0
 21 40  1  0
 21 41  1  0
M  END

