
     RDKit          3D

 41 43  0  0  0  0  0  0  0  0999 V2000
    2.7328    0.7744   -0.1547 O   0  0  0  0  0  0  0  0  0  0  0  0
    2.3463   -0.3258    0.2166 C   0  0  0  0  0  0  0  0  0  0  0  0
    1.4623   -0.4833    1.4584 C   0  0  0  0  0  0  0  0  0  0  0  0
   -0.0146   -0.5260    1.1177 C   0  0  0  0  0  0  0  0  0  0  0  0
   -0.8014   -1.5460    1.5046 C   0  0  0  0  0  0  0  0  0  0  0  0
   -2.2767   -1.6438    1.2069 C   0  0  0  0  0  0  0  0  0  0  0  0
   -2.7288   -0.6388    0.1400 C   0  0  0  0  0  0  0  0  0  0  0  0
   -2.0957    0.7339    0.3846 C   0  0  0  0  0  0  0  0  0  0  0  0
   -0.5655    0.6512    0.3368 C   0  0  0  0  0  0  0  0  0  0  0  0
    2.6563   -1.4561   -0.4873 N   0  0  0  0  0  0  0  0  0  0  0  0
    3.4443   -1.3478   -1.7217 C   0  0  0  0  0  0  0  0  0  0  0  0
    3.3867   -2.7617   -2.3133 C   0  0  0  0  0  0  0  0  0  0  0  0
    3.1985   -3.6758   -1.0918 C   0  0  1  0  0  0  0  0  0  0  0  0
    2.6917   -5.1069   -1.3680 C   0  0  0  0  0  0  0  0  0  0  0  0
    3.3254   -5.9575   -0.2385 C   0  0  0  0  0  0  0  0  0  0  0  0
    4.1670   -5.0836    0.5064 O   0  0  0  0  0  0  0  0  0  0  0  0
    4.4992   -3.9916   -0.3236 C   0  0  0  0  0  0  0  0  0  0  0  0
    2.2554   -2.8341   -0.2058 C   0  0  0  0  0  0  0  0  0  0  0  0
    1.6756    0.4085    2.0694 H   0  0  0  0  0  0  0  0  0  0  0  0
    1.7400   -1.3730    2.0429 H   0  0  0  0  0  0  0  0  0  0  0  0
   -0.3621   -2.3613    2.0924 H   0  0  0  0  0  0  0  0  0  0  0  0
   -2.8457   -1.4830    2.1440 H   0  0  0  0  0  0  0  0  0  0  0  0
   -2.5253   -2.6742    0.8954 H   0  0  0  0  0  0  0  0  0  0  0  0
   -3.8289   -0.5676    0.1246 H   0  0  0  0  0  0  0  0  0  0  0  0
   -2.4244   -1.0032   -0.8581 H   0  0  0  0  0  0  0  0  0  0  0  0
   -2.4112    1.1057    1.3764 H   0  0  0  0  0  0  0  0  0  0  0  0
   -2.4573    1.4685   -0.3535 H   0  0  0  0  0  0  0  0  0  0  0  0
   -0.1112    1.5829    0.7149 H   0  0  0  0  0  0  0  0  0  0  0  0
   -0.2208    0.5832   -0.7123 H   0  0  0  0  0  0  0  0  0  0  0  0
    4.4765   -1.0316   -1.4887 H   0  0  0  0  0  0  0  0  0  0  0  0
    3.0238   -0.5740   -2.3819 H   0  0  0  0  0  0  0  0  0  0  0  0
    4.2832   -3.0153   -2.9002 H   0  0  0  0  0  0  0  0  0  0  0  0
    2.5158   -2.8597   -2.9828 H   0  0  0  0  0  0  0  0  0  0  0  0
    3.0449   -5.4437   -2.3553 H   0  0  0  0  0  0  0  0  0  0  0  0
    1.5925   -5.1624   -1.3784 H   0  0  0  0  0  0  0  0  0  0  0  0
    3.9146   -6.7966   -0.6552 H   0  0  0  0  0  0  0  0  0  0  0  0
    2.5817   -6.3833    0.4538 H   0  0  0  0  0  0  0  0  0  0  0  0
    5.3097   -4.2536   -1.0375 H   0  0  0  0  0  0  0  0  0  0  0  0
    4.8541   -3.1672    0.3134 H   0  0  0  0  0  0  0  0  0  0  0  0
    2.3714   -3.0908    0.8580 H   0  0  0  0  0  0  0  0  0  0  0  0
    1.1976   -3.0090   -0.4764 H   0  0  0  0  0  0  0  0  0  0  0  0
  1  2  2  0
  2  3  1  0
  2 10  1  0
  3  4  1  0
  3 19  1  0
  3 20  1  0
  4  5  2  0
  4  9  1  0
  5  6  1  0
  5 21  1  0
  6  7  1  0
  6 22  1  0
  6 23  1  0
  7  8  1  0
  7 24  1  0
  7 25  1  0
  8  9  1  0
  8 26  1  0
  8 27  1  0
  9 28  1  0
  9 29  1  0
 10 11  1  0
 10 18  1  0
 11 12  1  0
 11 30  1  0
 11 31  1  0
 13 12  1  6
 12 32  1  0
 12 33  1  0
 13 14  1  0
 13 17  1  0
 13 18  1  0
 14 15  1  0
 14 34  1  0
 14 35  1  0
 15 16  1  0
 15 36  1  0
 15 37  1  0
 16 17  1  0
 17 38  1  0
 17 39  1  0
 18 40  1  0
 18 41  1  0
M  END

