
     RDKit          3D

 34 36  0  0  0  0  0  0  0  0999 V2000
   -0.1885    1.3801    0.6218 C   0  0  0  0  0  0  0  0  0  0  0  0
   -0.4552    0.9071    1.8808 C   0  0  0  0  0  0  0  0  0  0  0  0
    0.4863   -0.5018    2.2359 S   0  0  0  0  0  0  0  0  0  0  0  0
    1.2578   -0.4695    0.6682 C   0  0  0  0  0  0  0  0  0  0  0  0
    2.2714   -1.5038    0.2639 C   0  0  0  0  0  0  0  0  0  0  0  0
    1.7032   -2.8669   -0.1888 C   0  0  1  0  0  0  0  0  0  0  0  0
    0.7644   -2.7338   -1.3953 C   0  0  0  0  0  0  0  0  0  0  0  0
    1.4004   -2.0842   -2.5338 N   0  0  0  0  0  0  0  0  0  0  0  0
    0.5891   -2.0161   -3.7153 C   0  0  1  0  0  0  0  0  0  0  0  0
   -0.3425   -0.8417   -3.8768 C   0  0  0  0  0  0  0  0  0  0  0  0
    0.9004   -0.9453   -4.7259 C   0  0  0  0  0  0  0  0  0  0  0  0
    2.7848   -3.9806   -0.3992 C   0  0  0  0  0  0  0  0  0  0  0  0
    1.9261   -4.9611    0.4375 C   0  0  0  0  0  0  0  0  0  0  0  0
    1.0657   -3.7655    0.9184 C   0  0  0  0  0  0  0  0  0  0  0  0
    0.7870    0.5946   -0.0665 C   0  0  0  0  0  0  0  0  0  0  0  0
   -0.6688    2.2644    0.1990 H   0  0  0  0  0  0  0  0  0  0  0  0
   -1.1459    1.3072    2.6219 H   0  0  0  0  0  0  0  0  0  0  0  0
    2.9721   -1.6853    1.0968 H   0  0  0  0  0  0  0  0  0  0  0  0
    2.8631   -1.0837   -0.5640 H   0  0  0  0  0  0  0  0  0  0  0  0
   -0.1130   -2.1324   -1.1024 H   0  0  0  0  0  0  0  0  0  0  0  0
    0.3733   -3.7451   -1.6503 H   0  0  0  0  0  0  0  0  0  0  0  0
    2.2853   -2.5427   -2.7517 H   0  0  0  0  0  0  0  0  0  0  0  0
    0.2175   -2.9747   -4.1197 H   0  0  0  0  0  0  0  0  0  0  0  0
   -0.3477   -0.1026   -3.0717 H   0  0  0  0  0  0  0  0  0  0  0  0
   -1.3139   -1.0133   -4.3492 H   0  0  0  0  0  0  0  0  0  0  0  0
    1.7310   -0.2755   -4.4869 H   0  0  0  0  0  0  0  0  0  0  0  0
    0.7933   -1.1842   -5.7878 H   0  0  0  0  0  0  0  0  0  0  0  0
    3.7387   -3.7282    0.0903 H   0  0  0  0  0  0  0  0  0  0  0  0
    3.0053   -4.2739   -1.4391 H   0  0  0  0  0  0  0  0  0  0  0  0
    2.4523   -5.5347    1.2155 H   0  0  0  0  0  0  0  0  0  0  0  0
    1.3611   -5.6718   -0.1845 H   0  0  0  0  0  0  0  0  0  0  0  0
    1.3374   -3.4322    1.9317 H   0  0  0  0  0  0  0  0  0  0  0  0
   -0.0288   -3.8839    0.8834 H   0  0  0  0  0  0  0  0  0  0  0  0
    1.1401    0.8006   -1.0781 H   0  0  0  0  0  0  0  0  0  0  0  0
  1  2  2  0
  1 15  1  0
  1 16  1  0
  2  3  1  0
  2 17  1  0
  3  4  1  0
  4  5  1  0
  4 15  2  0
  6  5  1  1
  5 18  1  0
  5 19  1  0
  6  7  1  0
  6 12  1  0
  6 14  1  0
  7  8  1  0
  7 20  1  0
  7 21  1  0
  8  9  1  0
  8 22  1  0
  9 10  1  0
  9 11  1  0
  9 23  1  6
 10 11  1  0
 10 24  1  0
 10 25  1  0
 11 26  1  0
 11 27  1  0
 12 13  1  0
 12 28  1  0
 12 29  1  0
 13 14  1  0
 13 30  1  0
 13 31  1  0
 14 32  1  0
 14 33  1  0
 15 34  1  0
M  END

