
     RDKit          3D

 46 48  0  0  0  0  0  0  0  0999 V2000
   11.3854   -7.1457   -6.4970 C   0  0  0  0  0  0  0  0  0  0  0  0
   10.3855   -6.3388   -5.9203 O   0  0  0  0  0  0  0  0  0  0  0  0
    9.6645   -6.8208   -4.8745 C   0  0  0  0  0  0  0  0  0  0  0  0
    8.6853   -5.9581   -4.3470 C   0  0  0  0  0  0  0  0  0  0  0  0
    7.8968   -6.3594   -3.2753 C   0  0  0  0  0  0  0  0  0  0  0  0
    8.0547   -7.6342   -2.6950 C   0  0  0  0  0  0  0  0  0  0  0  0
    7.1733   -8.0708   -1.5396 C   0  0  0  0  0  0  0  0  0  0  0  0
    5.8026   -8.3997   -1.9231 N   0  0  0  0  0  0  0  0  0  0  0  0
    4.8197   -7.4611   -1.8936 C   0  0  0  0  0  0  0  0  0  0  0  0
    5.0099   -6.3127   -1.5085 O   0  0  0  0  0  0  0  0  0  0  0  0
    3.3970   -7.8994   -2.3001 C   0  0  1  0  0  0  0  0  0  0  0  0
    2.7216   -6.8081   -3.1522 C   0  0  0  0  0  0  0  0  0  0  0  0
    3.2533   -6.8185   -4.5897 C   0  0  0  0  0  0  0  0  0  0  0  0
    3.1648   -8.2117   -5.2312 C   0  0  0  0  0  0  0  0  0  0  0  0
    3.7935   -9.2120   -4.3756 N   0  0  0  0  0  0  0  0  0  0  0  0
    4.7359  -10.1108   -4.8083 C   0  0  0  0  0  0  0  0  0  0  0  0
    4.9859  -10.3846   -6.1887 C   0  0  0  0  0  0  0  0  0  0  0  0
    5.8991  -11.2574   -6.5750 N   0  0  0  0  0  0  0  0  0  0  0  0
    6.5980  -11.9044   -5.6310 C   0  0  0  0  0  0  0  0  0  0  0  0
    6.3599  -11.6539   -4.2827 C   0  0  0  0  0  0  0  0  0  0  0  0
    5.4492  -10.7674   -3.8748 N   0  0  0  0  0  0  0  0  0  0  0  0
    3.2697   -9.2522   -3.0109 C   0  0  0  0  0  0  0  0  0  0  0  0
    9.0327   -8.4790   -3.2263 C   0  0  0  0  0  0  0  0  0  0  0  0
    9.8381   -8.0896   -4.3053 C   0  0  0  0  0  0  0  0  0  0  0  0
   11.8305   -6.5598   -7.3127 H   0  0  0  0  0  0  0  0  0  0  0  0
   10.9711   -8.0814   -6.9151 H   0  0  0  0  0  0  0  0  0  0  0  0
   12.1776   -7.4043   -5.7706 H   0  0  0  0  0  0  0  0  0  0  0  0
    8.5710   -4.9700   -4.7981 H   0  0  0  0  0  0  0  0  0  0  0  0
    7.1402   -5.6837   -2.8684 H   0  0  0  0  0  0  0  0  0  0  0  0
    7.1076   -7.2671   -0.7926 H   0  0  0  0  0  0  0  0  0  0  0  0
    7.6133   -8.9547   -1.0511 H   0  0  0  0  0  0  0  0  0  0  0  0
    5.6573   -9.2905   -2.4019 H   0  0  0  0  0  0  0  0  0  0  0  0
    2.8529   -7.9739   -1.3413 H   0  0  0  0  0  0  0  0  0  0  0  0
    2.8936   -5.8297   -2.6825 H   0  0  0  0  0  0  0  0  0  0  0  0
    1.6319   -6.9879   -3.1590 H   0  0  0  0  0  0  0  0  0  0  0  0
    4.3071   -6.4918   -4.5964 H   0  0  0  0  0  0  0  0  0  0  0  0
    2.6931   -6.1014   -5.2125 H   0  0  0  0  0  0  0  0  0  0  0  0
    3.6568   -8.1974   -6.2110 H   0  0  0  0  0  0  0  0  0  0  0  0
    2.1026   -8.4810   -5.4028 H   0  0  0  0  0  0  0  0  0  0  0  0
    4.4120   -9.8891   -6.9767 H   0  0  0  0  0  0  0  0  0  0  0  0
    7.3476  -12.6327   -5.9550 H   0  0  0  0  0  0  0  0  0  0  0  0
    6.9256  -12.1779   -3.5036 H   0  0  0  0  0  0  0  0  0  0  0  0
    3.7678  -10.0601   -2.4645 H   0  0  0  0  0  0  0  0  0  0  0  0
    2.1935   -9.5115   -3.0601 H   0  0  0  0  0  0  0  0  0  0  0  0
    9.1821   -9.4722   -2.7912 H   0  0  0  0  0  0  0  0  0  0  0  0
   10.5902   -8.7805   -4.6869 H   0  0  0  0  0  0  0  0  0  0  0  0
  1  2  1  0
  1 25  1  0
  1 26  1  0
  1 27  1  0
  2  3  1  0
  3  4  2  0
  3 24  1  0
  4  5  1  0
  4 28  1  0
  5  6  2  0
  5 29  1  0
  6  7  1  0
  6 23  1  0
  7  8  1  0
  7 30  1  0
  7 31  1  0
  8  9  1  0
  8 32  1  0
  9 10  2  0
  9 11  1  0
 11 12  1  0
 11 22  1  0
 11 33  1  1
 12 13  1  0
 12 34  1  0
 12 35  1  0
 13 14  1  0
 13 36  1  0
 13 37  1  0
 14 15  1  0
 14 38  1  0
 14 39  1  0
 15 16  1  0
 15 22  1  0
 16 17  2  0
 16 21  1  0
 17 18  1  0
 17 40  1  0
 18 19  2  0
 19 20  1  0
 19 41  1  0
 20 21  2  0
 20 42  1  0
 22 43  1  0
 22 44  1  0
 23 24  2  0
 23 45  1  0
 24 46  1  0
M  END

