
     RDKit          3D

 46 47  0  0  0  0  0  0  0  0999 V2000
    2.3373    0.6409   -0.8021 C   0  0  0  0  0  0  0  0  0  0  0  0
    2.1169    0.7765    0.5825 O   0  0  0  0  0  0  0  0  0  0  0  0
    3.0934    0.4030    1.4500 C   0  0  0  0  0  0  0  0  0  0  0  0
    2.8023    0.5576    2.8165 C   0  0  0  0  0  0  0  0  0  0  0  0
    3.7429    0.2034    3.7781 C   0  0  0  0  0  0  0  0  0  0  0  0
    5.0018   -0.3137    3.4209 C   0  0  0  0  0  0  0  0  0  0  0  0
    6.0024   -0.7358    4.4746 C   0  0  0  0  0  0  0  0  0  0  0  0
    5.8280   -2.1934    4.9351 C   0  0  0  0  0  0  0  0  0  0  0  0
    6.8411   -2.5966    6.0055 C   0  0  0  0  0  0  0  0  0  0  0  0
    6.7039   -4.0431    6.4522 C   0  0  0  0  0  0  0  0  0  0  0  0
    5.8828   -4.8066    5.9259 O   0  0  0  0  0  0  0  0  0  0  0  0
    7.5175   -4.4712    7.4473 N   0  0  0  0  0  0  0  0  0  0  0  0
    8.5413   -3.6637    8.1232 C   0  0  0  0  0  0  0  0  0  0  0  0
    9.2879   -4.6763    8.9915 C   0  0  2  0  0  0  0  0  0  0  0  0
   10.2967   -5.2256    8.1773 O   0  0  0  0  0  0  0  0  0  0  0  0
   11.1291   -6.1899    8.7842 C   0  0  0  0  0  0  0  0  0  0  0  0
    8.1733   -5.6686    9.3721 C   0  0  0  0  0  0  0  0  0  0  0  0
    7.3398   -5.7927    8.0946 C   0  0  2  0  0  0  0  0  0  0  0  0
    7.7715   -7.0015    7.2192 C   0  0  0  0  0  0  0  0  0  0  0  0
    8.5181   -7.8559    7.6294 O   0  0  0  0  0  0  0  0  0  0  0  0
    7.2033   -7.0636    6.0237 O   0  0  0  0  0  0  0  0  0  0  0  0
    5.2756   -0.4591    2.0561 C   0  0  0  0  0  0  0  0  0  0  0  0
    4.3430   -0.1090    1.0720 C   0  0  0  0  0  0  0  0  0  0  0  0
    1.4243    0.9924   -1.3016 H   0  0  0  0  0  0  0  0  0  0  0  0
    2.5189   -0.4107   -1.0902 H   0  0  0  0  0  0  0  0  0  0  0  0
    3.1904    1.2536   -1.1469 H   0  0  0  0  0  0  0  0  0  0  0  0
    1.8276    0.9629    3.0960 H   0  0  0  0  0  0  0  0  0  0  0  0
    3.4958    0.3359    4.8359 H   0  0  0  0  0  0  0  0  0  0  0  0
    5.9181   -0.0666    5.3493 H   0  0  0  0  0  0  0  0  0  0  0  0
    7.0263   -0.6006    4.0839 H   0  0  0  0  0  0  0  0  0  0  0  0
    5.9184   -2.8723    4.0727 H   0  0  0  0  0  0  0  0  0  0  0  0
    4.8068   -2.3447    5.3205 H   0  0  0  0  0  0  0  0  0  0  0  0
    6.7570   -1.9392    6.8898 H   0  0  0  0  0  0  0  0  0  0  0  0
    7.8723   -2.4495    5.6350 H   0  0  0  0  0  0  0  0  0  0  0  0
    8.0819   -2.8719    8.7414 H   0  0  0  0  0  0  0  0  0  0  0  0
    9.2325   -3.1986    7.4069 H   0  0  0  0  0  0  0  0  0  0  0  0
    9.7330   -4.1988    9.8874 H   0  0  0  0  0  0  0  0  0  0  0  0
   11.9728   -6.3610    8.1003 H   0  0  0  0  0  0  0  0  0  0  0  0
   10.6069   -7.1497    8.9351 H   0  0  0  0  0  0  0  0  0  0  0  0
   11.5288   -5.8289    9.7530 H   0  0  0  0  0  0  0  0  0  0  0  0
    7.5696   -5.2374   10.1860 H   0  0  0  0  0  0  0  0  0  0  0  0
    8.5488   -6.6462    9.6965 H   0  0  0  0  0  0  0  0  0  0  0  0
    6.2651   -5.9369    8.3034 H   0  0  0  0  0  0  0  0  0  0  0  0
    6.5755   -6.2990    5.8955 H   0  0  0  0  0  0  0  0  0  0  0  0
    6.2465   -0.8540    1.7413 H   0  0  0  0  0  0  0  0  0  0  0  0
    4.6042   -0.2369    0.0213 H   0  0  0  0  0  0  0  0  0  0  0  0
  1  2  1  0
  1 24  1  0
  1 25  1  0
  1 26  1  0
  2  3  1  0
  3  4  2  0
  3 23  1  0
  4  5  1  0
  4 27  1  0
  5  6  2  0
  5 28  1  0
  6  7  1  0
  6 22  1  0
  7  8  1  0
  7 29  1  0
  7 30  1  0
  8  9  1  0
  8 31  1  0
  8 32  1  0
  9 10  1  0
  9 33  1  0
  9 34  1  0
 10 11  2  0
 10 12  1  0
 12 13  1  0
 12 18  1  0
 13 14  1  0
 13 35  1  0
 13 36  1  0
 14 15  1  0
 14 17  1  0
 14 37  1  1
 15 16  1  0
 16 38  1  0
 16 39  1  0
 16 40  1  0
 17 18  1  0
 17 41  1  0
 17 42  1  0
 18 19  1  0
 18 43  1  1
 19 20  2  0
 19 21  1  0
 21 44  1  0
 22 23  2  0
 22 45  1  0
 23 46  1  0
M  END

