
     RDKit          3D

 43 42  0  0  0  0  0  0  0  0999 V2000
    0.7970   -0.0305   -0.2308 C   0  0  0  0  0  0  0  0  0  0  0  0
    2.2910   -0.2566    0.0057 C   0  0  0  0  0  0  0  0  0  0  0  0
    2.8276    0.4499    1.2552 C   0  0  0  0  0  0  0  0  0  0  0  0
    4.3299    0.2347    1.4821 C   0  0  0  0  0  0  0  0  0  0  0  0
    4.8908    0.9368    2.7408 C   0  0  1  0  0  0  0  0  0  0  0  0
    4.4374    0.2065    4.0158 C   0  0  0  0  0  0  0  0  0  0  0  0
    6.4540    1.1745    2.6979 C   0  0  1  0  0  0  0  0  0  0  0  0
    7.1704   -0.1714    2.4254 C   0  0  0  0  0  0  0  0  0  0  0  0
    6.8572    2.1007    1.5217 C   0  0  0  0  0  0  0  0  0  0  0  0
    6.9348    1.8166    4.0385 C   0  0  0  0  0  0  0  0  0  0  0  0
    7.7835    0.9280    4.9308 C   0  0  0  0  0  0  0  0  0  0  0  0
    6.6069    3.0663    4.4530 C   0  0  0  0  0  0  0  0  0  0  0  0
    5.6654    4.0749    3.8308 C   0  0  0  0  0  0  0  0  0  0  0  0
    7.1015    3.6188    5.7809 C   0  0  0  0  0  0  0  0  0  0  0  0
    8.4424    3.8728    5.8552 N   0  0  0  0  0  0  0  0  0  0  0  0
    6.3376    3.8918    6.6912 O   0  0  0  0  0  0  0  0  0  0  0  0
    0.4456   -0.5530   -1.1349 H   0  0  0  0  0  0  0  0  0  0  0  0
    0.5683    1.0413   -0.3562 H   0  0  0  0  0  0  0  0  0  0  0  0
    0.1966   -0.3964    0.6191 H   0  0  0  0  0  0  0  0  0  0  0  0
    2.8603    0.0852   -0.8782 H   0  0  0  0  0  0  0  0  0  0  0  0
    2.4913   -1.3405    0.0881 H   0  0  0  0  0  0  0  0  0  0  0  0
    2.2548    0.1036    2.1336 H   0  0  0  0  0  0  0  0  0  0  0  0
    2.6241    1.5342    1.1740 H   0  0  0  0  0  0  0  0  0  0  0  0
    4.8579    0.5909    0.5823 H   0  0  0  0  0  0  0  0  0  0  0  0
    4.5308   -0.8500    1.5399 H   0  0  0  0  0  0  0  0  0  0  0  0
    4.4289    1.9362    2.7688 H   0  0  0  0  0  0  0  0  0  0  0  0
    4.8583   -0.8109    4.0752 H   0  0  0  0  0  0  0  0  0  0  0  0
    3.3420    0.1023    4.0384 H   0  0  0  0  0  0  0  0  0  0  0  0
    4.7283    0.7525    4.9250 H   0  0  0  0  0  0  0  0  0  0  0  0
    6.8744   -0.5594    1.4405 H   0  0  0  0  0  0  0  0  0  0  0  0
    6.9386   -0.9488    3.1661 H   0  0  0  0  0  0  0  0  0  0  0  0
    8.2632   -0.0472    2.4019 H   0  0  0  0  0  0  0  0  0  0  0  0
    6.6676    1.6193    0.5503 H   0  0  0  0  0  0  0  0  0  0  0  0
    7.9361    2.3186    1.5685 H   0  0  0  0  0  0  0  0  0  0  0  0
    6.3279    3.0614    1.5232 H   0  0  0  0  0  0  0  0  0  0  0  0
    7.2614   -0.0191    5.1383 H   0  0  0  0  0  0  0  0  0  0  0  0
    8.0130    1.3897    5.8973 H   0  0  0  0  0  0  0  0  0  0  0  0
    8.7404    0.6521    4.4577 H   0  0  0  0  0  0  0  0  0  0  0  0
    5.1396    3.7250    2.9393 H   0  0  0  0  0  0  0  0  0  0  0  0
    6.2067    5.0011    3.5671 H   0  0  0  0  0  0  0  0  0  0  0  0
    4.9157    4.3553    4.5882 H   0  0  0  0  0  0  0  0  0  0  0  0
    9.0701    3.6472    5.0960 H   0  0  0  0  0  0  0  0  0  0  0  0
    8.8155    4.2603    6.7147 H   0  0  0  0  0  0  0  0  0  0  0  0
  1  2  1  0
  1 17  1  0
  1 18  1  0
  1 19  1  0
  2  3  1  0
  2 20  1  0
  2 21  1  0
  3  4  1  0
  3 22  1  0
  3 23  1  0
  4  5  1  0
  4 24  1  0
  4 25  1  0
  5  6  1  0
  5  7  1  0
  5 26  1  1
  6 27  1  0
  6 28  1  0
  6 29  1  0
  7  8  1  0
  7  9  1  0
  7 10  1  1
  8 30  1  0
  8 31  1  0
  8 32  1  0
  9 33  1  0
  9 34  1  0
  9 35  1  0
 10 11  1  0
 10 12  2  0
 11 36  1  0
 11 37  1  0
 11 38  1  0
 12 13  1  0
 12 14  1  0
 13 39  1  0
 13 40  1  0
 13 41  1  0
 14 15  1  0
 14 16  2  0
 15 42  1  0
 15 43  1  0
M  END

