
     RDKit          3D

 25 25  0  0  0  0  0  0  0  0999 V2000
    0.9718   -0.0847    0.0323 C   0  0  0  0  0  0  0  0  0  0  0  0
    2.7628   -0.1345   -0.1793 S   0  0  1  0  0  0  0  0  0  0  0  0
    3.0439   -0.7086   -1.5031 O   0  0  0  0  0  0  0  0  0  0  0  0
    3.2990    1.1786    0.2009 O   0  0  0  0  0  0  0  0  0  0  0  0
    3.3334   -1.3438    1.0631 C   0  0  0  0  0  0  0  0  0  0  0  0
    4.8582   -1.4201    1.0086 C   0  0  0  0  0  0  0  0  0  0  0  0
    5.4057   -2.5233    1.9215 C   0  0  0  0  0  0  0  0  0  0  0  0
    6.8626   -2.5803    1.9247 N   0  0  0  0  0  0  0  0  0  0  0  0
    7.6692   -3.0717    0.9314 C   0  0  0  0  0  0  0  0  0  0  0  0
    8.9703   -2.8743    1.3596 C   0  0  0  0  0  0  0  0  0  0  0  0
    8.9845   -2.2759    2.5812 N   0  0  0  0  0  0  0  0  0  0  0  0
    7.7138   -2.1047    2.9025 C   0  0  0  0  0  0  0  0  0  0  0  0
    7.2229   -1.5186    4.1071 C   0  0  0  0  0  0  0  0  0  0  0  0
    6.7855   -1.0510    5.0765 N   0  0  0  0  0  0  0  0  0  0  0  0
    0.6227    0.6350   -0.7211 H   0  0  0  0  0  0  0  0  0  0  0  0
    0.7317    0.2739    1.0417 H   0  0  0  0  0  0  0  0  0  0  0  0
    0.5494   -1.0784   -0.1660 H   0  0  0  0  0  0  0  0  0  0  0  0
    2.8577   -2.3028    0.8041 H   0  0  0  0  0  0  0  0  0  0  0  0
    2.9681   -1.0034    2.0445 H   0  0  0  0  0  0  0  0  0  0  0  0
    5.2805   -0.4466    1.3017 H   0  0  0  0  0  0  0  0  0  0  0  0
    5.1680   -1.6079   -0.0320 H   0  0  0  0  0  0  0  0  0  0  0  0
    5.0232   -3.5091    1.6113 H   0  0  0  0  0  0  0  0  0  0  0  0
    5.0812   -2.3615    2.9603 H   0  0  0  0  0  0  0  0  0  0  0  0
    7.2615   -3.5132    0.0249 H   0  0  0  0  0  0  0  0  0  0  0  0
    9.8897   -3.1412    0.8405 H   0  0  0  0  0  0  0  0  0  0  0  0
  2  1  1  6
  1 15  1  0
  1 16  1  0
  1 17  1  0
  2  3  2  0
  2  4  2  0
  2  5  1  0
  5  6  1  0
  5 18  1  0
  5 19  1  0
  6  7  1  0
  6 20  1  0
  6 21  1  0
  7  8  1  0
  7 22  1  0
  7 23  1  0
  8  9  1  0
  8 12  1  0
  9 10  2  0
  9 24  1  0
 10 11  1  0
 10 25  1  0
 11 12  2  0
 12 13  1  0
 13 14  3  0
M  END

