
     RDKit          3D

 57 60  0  0  0  0  0  0  0  0999 V2000
    1.7549   -0.9542    1.7142 C   0  0  0  0  0  0  0  0  0  0  0  0
    2.1112    0.5329    1.6838 C   0  0  0  0  0  0  0  0  0  0  0  0
    3.4033    0.8904    2.4278 C   0  0  0  0  0  0  0  0  0  0  0  0
    4.5975    0.2134    1.9174 N   0  0  0  0  0  0  0  0  0  0  0  0
    5.2202    0.3301    0.6824 C   0  0  0  0  0  0  0  0  0  0  0  0
    4.9182    1.2874   -0.3983 C   0  0  0  0  0  0  0  0  0  0  0  0
    4.4934    2.6073   -0.1783 C   0  0  0  0  0  0  0  0  0  0  0  0
    4.2782    3.4404   -1.2804 C   0  0  0  0  0  0  0  0  0  0  0  0
    4.4568    3.0588   -2.5459 N   0  0  0  0  0  0  0  0  0  0  0  0
    4.8748    1.8068   -2.7555 C   0  0  0  0  0  0  0  0  0  0  0  0
    5.1175    0.8901   -1.7319 C   0  0  0  0  0  0  0  0  0  0  0  0
    6.1814   -0.5497    0.5663 N   0  0  0  0  0  0  0  0  0  0  0  0
    6.1935   -1.2334    1.7352 N   0  0  0  0  0  0  0  0  0  0  0  0
    7.1081   -2.3546    1.9467 C   0  0  0  0  0  0  0  0  0  0  0  0
    6.5253   -3.6197    1.5963 N   0  0  0  0  0  0  0  0  0  0  0  0
    6.6714   -4.6928    2.5744 C   0  0  0  0  0  0  0  0  0  0  0  0
    5.7085   -5.8324    2.2397 C   0  0  0  0  0  0  0  0  0  0  0  0
    5.8698   -6.2740    0.8505 N   0  0  0  0  0  0  0  0  0  0  0  0
    6.7981   -7.6309    0.5394 S   0  0  1  0  0  0  0  0  0  0  0  0
    7.2468   -7.5553   -0.8506 O   0  0  0  0  0  0  0  0  0  0  0  0
    7.7640   -7.8151    1.6302 O   0  0  0  0  0  0  0  0  0  0  0  0
    5.6340   -9.0116    0.6935 C   0  0  0  0  0  0  0  0  0  0  0  0
    5.9347   -9.9878    1.6514 C   0  0  0  0  0  0  0  0  0  0  0  0
    5.1147  -11.1067    1.8050 C   0  0  0  0  0  0  0  0  0  0  0  0
    3.9873  -11.2555    0.9942 C   0  0  0  0  0  0  0  0  0  0  0  0
    3.6803  -10.2902    0.0330 C   0  0  0  0  0  0  0  0  0  0  0  0
    4.5019   -9.1694   -0.1242 C   0  0  0  0  0  0  0  0  0  0  0  0
    4.0601   -8.0022   -1.3416 Cl  0  0  0  0  0  0  0  0  0  0  0  0
    5.7923   -5.1949   -0.1369 C   0  0  0  0  0  0  0  0  0  0  0  0
    6.7415   -4.0513    0.2207 C   0  0  0  0  0  0  0  0  0  0  0  0
    5.2262   -0.8179    2.6099 C   0  0  0  0  0  0  0  0  0  0  0  0
    4.8970   -1.4041    4.1380 S   0  0  0  0  0  0  0  0  0  0  0  0
    0.7911   -1.1333    1.2126 H   0  0  0  0  0  0  0  0  0  0  0  0
    1.6827   -1.3299    2.7465 H   0  0  0  0  0  0  0  0  0  0  0  0
    2.5135   -1.5648    1.1985 H   0  0  0  0  0  0  0  0  0  0  0  0
    1.3056    1.1209    2.1571 H   0  0  0  0  0  0  0  0  0  0  0  0
    2.1690    0.8886    0.6408 H   0  0  0  0  0  0  0  0  0  0  0  0
    3.3392    0.5779    3.4812 H   0  0  0  0  0  0  0  0  0  0  0  0
    3.5712    1.9765    2.4191 H   0  0  0  0  0  0  0  0  0  0  0  0
    4.3540    3.0046    0.8268 H   0  0  0  0  0  0  0  0  0  0  0  0
    3.9483    4.4739   -1.1214 H   0  0  0  0  0  0  0  0  0  0  0  0
    5.0229    1.5084   -3.8000 H   0  0  0  0  0  0  0  0  0  0  0  0
    5.4566   -0.1219   -1.9568 H   0  0  0  0  0  0  0  0  0  0  0  0
    7.3568   -2.3445    3.0164 H   0  0  0  0  0  0  0  0  0  0  0  0
    8.0128   -2.1097    1.3613 H   0  0  0  0  0  0  0  0  0  0  0  0
    6.4267   -4.2940    3.5707 H   0  0  0  0  0  0  0  0  0  0  0  0
    7.7035   -5.1049    2.6005 H   0  0  0  0  0  0  0  0  0  0  0  0
    4.6690   -5.4836    2.3640 H   0  0  0  0  0  0  0  0  0  0  0  0
    5.8721   -6.6808    2.9171 H   0  0  0  0  0  0  0  0  0  0  0  0
    6.8242   -9.8478    2.2670 H   0  0  0  0  0  0  0  0  0  0  0  0
    5.3601  -11.8605    2.5563 H   0  0  0  0  0  0  0  0  0  0  0  0
    3.3380  -12.1273    1.1053 H   0  0  0  0  0  0  0  0  0  0  0  0
    2.8029  -10.3947   -0.6074 H   0  0  0  0  0  0  0  0  0  0  0  0
    4.7517   -4.8267   -0.1465 H   0  0  0  0  0  0  0  0  0  0  0  0
    6.0276   -5.6005   -1.1277 H   0  0  0  0  0  0  0  0  0  0  0  0
    6.5565   -3.2021   -0.4557 H   0  0  0  0  0  0  0  0  0  0  0  0
    7.7901   -4.3884    0.0546 H   0  0  0  0  0  0  0  0  0  0  0  0
  1  2  1  0
  1 33  1  0
  1 34  1  0
  1 35  1  0
  2  3  1  0
  2 36  1  0
  2 37  1  0
  3  4  1  0
  3 38  1  0
  3 39  1  0
  4  5  1  0
  4 31  1  0
  5  6  1  0
  5 12  2  0
  6  7  2  0
  6 11  1  0
  7  8  1  0
  7 40  1  0
  8  9  2  0
  8 41  1  0
  9 10  1  0
 10 11  2  0
 10 42  1  0
 11 43  1  0
 12 13  1  0
 13 14  1  0
 13 31  1  0
 14 15  1  0
 14 44  1  0
 14 45  1  0
 15 16  1  0
 15 30  1  0
 16 17  1  0
 16 46  1  0
 16 47  1  0
 17 18  1  0
 17 48  1  0
 17 49  1  0
 18 19  1  0
 18 29  1  0
 19 20  2  0
 19 21  2  0
 19 22  1  6
 22 23  2  0
 22 27  1  0
 23 24  1  0
 23 50  1  0
 24 25  2  0
 24 51  1  0
 25 26  1  0
 25 52  1  0
 26 27  2  0
 26 53  1  0
 27 28  1  0
 29 30  1  0
 29 54  1  0
 29 55  1  0
 30 56  1  0
 30 57  1  0
 31 32  2  0
M  END

