
     RDKit          3D

 40 44  0  0  0  0  0  0  0  0999 V2000
    2.2437    0.7242   -0.2651 C   0  0  0  0  0  0  0  0  0  0  0  0
    3.6264    0.5035   -0.4297 O   0  0  0  0  0  0  0  0  0  0  0  0
    4.2981   -0.2860    0.4448 C   0  0  0  0  0  0  0  0  0  0  0  0
    3.6717   -0.9319    1.5555 C   0  0  0  0  0  0  0  0  0  0  0  0
    4.4137   -1.7204    2.4045 C   0  0  0  0  0  0  0  0  0  0  0  0
    5.8111   -1.9202    2.2129 C   0  0  0  0  0  0  0  0  0  0  0  0
    6.4422   -1.2673    1.0918 C   0  0  0  0  0  0  0  0  0  0  0  0
    5.6512   -0.4572    0.2288 C   0  0  0  0  0  0  0  0  0  0  0  0
    7.7506   -1.3939    0.8284 N   0  0  0  0  0  0  0  0  0  0  0  0
    8.5077   -2.1500    1.6291 C   0  0  0  0  0  0  0  0  0  0  0  0
    9.8963   -2.2520    1.3032 C   0  0  0  0  0  0  0  0  0  0  0  0
   10.7382   -3.0087    2.0738 C   0  0  0  0  0  0  0  0  0  0  0  0
   10.2521   -3.7031    3.2078 C   0  0  0  0  0  0  0  0  0  0  0  0
    8.9203   -3.6567    3.5943 C   0  0  0  0  0  0  0  0  0  0  0  0
    8.4621   -4.4012    4.7948 C   0  0  0  0  0  0  0  0  0  0  0  0
    9.3588   -5.1596    5.5689 C   0  0  0  0  0  0  0  0  0  0  0  0
    8.9651   -5.8739    6.7044 C   0  0  0  0  0  0  0  0  0  0  0  0
    9.9465   -6.5581    7.3452 O   0  0  0  0  0  0  0  0  0  0  0  0
    9.6292   -7.3009    8.5007 C   0  0  0  0  0  0  0  0  0  0  0  0
    7.6203   -5.8463    7.1079 C   0  0  0  0  0  0  0  0  0  0  0  0
    6.7137   -5.1019    6.3588 C   0  0  0  0  0  0  0  0  0  0  0  0
    7.1136   -4.3875    5.2210 C   0  0  0  0  0  0  0  0  0  0  0  0
    5.8217   -3.5067    4.4070 S   0  0  0  0  0  0  0  0  0  0  0  0
    6.6234   -2.7237    3.0588 C   0  0  0  0  0  0  0  0  0  0  0  0
    8.0038   -2.8646    2.7952 C   0  0  0  0  0  0  0  0  0  0  0  0
    1.9359    1.3880   -1.0843 H   0  0  0  0  0  0  0  0  0  0  0  0
    2.0135    1.2183    0.6961 H   0  0  0  0  0  0  0  0  0  0  0  0
    1.6625   -0.2132   -0.3324 H   0  0  0  0  0  0  0  0  0  0  0  0
    2.6051   -0.8076    1.7416 H   0  0  0  0  0  0  0  0  0  0  0  0
    3.9080   -2.2008    3.2448 H   0  0  0  0  0  0  0  0  0  0  0  0
    6.1406    0.0302   -0.6146 H   0  0  0  0  0  0  0  0  0  0  0  0
   10.2363   -1.7036    0.4234 H   0  0  0  0  0  0  0  0  0  0  0  0
   11.7989   -3.0850    1.8211 H   0  0  0  0  0  0  0  0  0  0  0  0
   10.9675   -4.2883    3.7825 H   0  0  0  0  0  0  0  0  0  0  0  0
   10.4141   -5.2221    5.3114 H   0  0  0  0  0  0  0  0  0  0  0  0
   10.5655   -7.7614    8.8434 H   0  0  0  0  0  0  0  0  0  0  0  0
    8.8960   -8.1001    8.2886 H   0  0  0  0  0  0  0  0  0  0  0  0
    9.2318   -6.6586    9.3074 H   0  0  0  0  0  0  0  0  0  0  0  0
    7.2732   -6.3891    7.9867 H   0  0  0  0  0  0  0  0  0  0  0  0
    5.6647   -5.0734    6.6653 H   0  0  0  0  0  0  0  0  0  0  0  0
  1  2  1  0
  1 26  1  0
  1 27  1  0
  1 28  1  0
  2  3  1  0
  3  4  2  0
  3  8  1  0
  4  5  1  0
  4 29  1  0
  5  6  2  0
  5 30  1  0
  6  7  1  0
  6 24  1  0
  7  8  2  0
  7  9  1  0
  8 31  1  0
  9 10  2  0
 10 11  1  0
 10 25  1  0
 11 12  2  0
 11 32  1  0
 12 13  1  0
 12 33  1  0
 13 14  2  0
 13 34  1  0
 14 15  1  0
 14 25  1  0
 15 16  2  0
 15 22  1  0
 16 17  1  0
 16 35  1  0
 17 18  1  0
 17 20  2  0
 18 19  1  0
 19 36  1  0
 19 37  1  0
 19 38  1  0
 20 21  1  0
 20 39  1  0
 21 22  2  0
 21 40  1  0
 22 23  1  0
 23 24  1  0
 24 25  2  0
M  END

