
     RDKit          3D

 47 47  0  0  0  0  0  0  0  0999 V2000
    0.7970   -0.5054    0.6048 C   0  0  0  0  0  0  0  0  0  0  0  0
    2.3224   -0.5638    0.6861 C   0  0  0  0  0  0  0  0  0  0  0  0
    2.8225   -1.5912    1.7088 C   0  0  0  0  0  0  0  0  0  0  0  0
    4.2680   -1.6678    1.7874 N   0  0  0  0  0  0  0  0  0  0  0  0
    4.9667   -1.3322    2.9116 C   0  0  0  0  0  0  0  0  0  0  0  0
    4.4511   -0.9038    3.9336 O   0  0  0  0  0  0  0  0  0  0  0  0
    6.4808   -1.5203    2.7928 C   0  0  0  0  0  0  0  0  0  0  0  0
    6.9690   -2.9396    3.1524 C   0  0  1  0  0  0  0  0  0  0  0  0
    6.2123   -4.0162    2.3469 C   0  0  0  0  0  0  0  0  0  0  0  0
    6.2766   -3.7304    0.9123 N   0  0  0  0  0  0  0  0  0  0  0  0
    8.4208   -3.1051    2.9125 N   0  0  0  0  0  0  0  0  0  0  0  0
    9.3103   -1.9436    2.9797 C   0  0  0  0  0  0  0  0  0  0  0  0
    9.6719   -1.5015    4.4083 C   0  0  0  0  0  0  0  0  0  0  0  0
   10.2776   -2.6422    5.2647 C   0  0  2  0  0  0  0  0  0  0  0  0
   10.3211   -2.2123    6.7400 C   0  0  0  0  0  0  0  0  0  0  0  0
   11.7156   -2.9628    4.8088 C   0  0  0  0  0  0  0  0  0  0  0  0
    9.3646   -3.8848    5.1135 C   0  0  0  0  0  0  0  0  0  0  0  0
    9.0238   -4.2193    3.6503 C   0  0  0  0  0  0  0  0  0  0  0  0
    0.4609    0.2415   -0.1315 H   0  0  0  0  0  0  0  0  0  0  0  0
    0.3546   -0.2359    1.5783 H   0  0  0  0  0  0  0  0  0  0  0  0
    0.3708   -1.4788    0.3078 H   0  0  0  0  0  0  0  0  0  0  0  0
    2.7275    0.4262    0.9574 H   0  0  0  0  0  0  0  0  0  0  0  0
    2.7420   -0.8054   -0.3074 H   0  0  0  0  0  0  0  0  0  0  0  0
    2.4089   -2.5877    1.4621 H   0  0  0  0  0  0  0  0  0  0  0  0
    2.4635   -1.3282    2.7154 H   0  0  0  0  0  0  0  0  0  0  0  0
    4.7929   -2.1650    1.0629 H   0  0  0  0  0  0  0  0  0  0  0  0
    6.9209   -0.7911    3.4848 H   0  0  0  0  0  0  0  0  0  0  0  0
    6.8010   -1.2698    1.7708 H   0  0  0  0  0  0  0  0  0  0  0  0
    6.7143   -3.1018    4.2205 H   0  0  0  0  0  0  0  0  0  0  0  0
    5.1574   -4.0263    2.6651 H   0  0  0  0  0  0  0  0  0  0  0  0
    6.6216   -5.0095    2.6117 H   0  0  0  0  0  0  0  0  0  0  0  0
    7.2604   -3.6025    0.6629 H   0  0  0  0  0  0  0  0  0  0  0  0
    5.9413   -4.5280    0.3724 H   0  0  0  0  0  0  0  0  0  0  0  0
    8.8805   -1.1027    2.4208 H   0  0  0  0  0  0  0  0  0  0  0  0
   10.2340   -2.2144    2.4373 H   0  0  0  0  0  0  0  0  0  0  0  0
    8.7617   -1.1275    4.9095 H   0  0  0  0  0  0  0  0  0  0  0  0
   10.3744   -0.6500    4.3668 H   0  0  0  0  0  0  0  0  0  0  0  0
   10.9522   -1.3178    6.8745 H   0  0  0  0  0  0  0  0  0  0  0  0
   10.7348   -3.0132    7.3755 H   0  0  0  0  0  0  0  0  0  0  0  0
    9.3135   -1.9713    7.1166 H   0  0  0  0  0  0  0  0  0  0  0  0
   12.3658   -2.0796    4.9204 H   0  0  0  0  0  0  0  0  0  0  0  0
   11.7719   -3.2805    3.7566 H   0  0  0  0  0  0  0  0  0  0  0  0
   12.1463   -3.7729    5.4201 H   0  0  0  0  0  0  0  0  0  0  0  0
    8.4260   -3.7016    5.6661 H   0  0  0  0  0  0  0  0  0  0  0  0
    9.8368   -4.7606    5.5930 H   0  0  0  0  0  0  0  0  0  0  0  0
    8.3519   -5.0898    3.6201 H   0  0  0  0  0  0  0  0  0  0  0  0
    9.9396   -4.5281    3.1150 H   0  0  0  0  0  0  0  0  0  0  0  0
  1  2  1  0
  1 19  1  0
  1 20  1  0
  1 21  1  0
  2  3  1  0
  2 22  1  0
  2 23  1  0
  3  4  1  0
  3 24  1  0
  3 25  1  0
  4  5  1  0
  4 26  1  0
  5  6  2  0
  5  7  1  0
  7  8  1  0
  7 27  1  0
  7 28  1  0
  8  9  1  0
  8 11  1  0
  8 29  1  1
  9 10  1  0
  9 30  1  0
  9 31  1  0
 10 32  1  0
 10 33  1  0
 11 12  1  0
 11 18  1  0
 12 13  1  0
 12 34  1  0
 12 35  1  0
 13 14  1  0
 13 36  1  0
 13 37  1  0
 14 15  1  1
 14 16  1  0
 14 17  1  0
 15 38  1  0
 15 39  1  0
 15 40  1  0
 16 41  1  0
 16 42  1  0
 16 43  1  0
 17 18  1  0
 17 44  1  0
 17 45  1  0
 18 46  1  0
 18 47  1  0
M  END

