
     RDKit          3D

 40 43  0  0  0  0  0  0  0  0999 V2000
    6.7408    2.8420    0.1206 C   0  0  0  0  0  0  0  0  0  0  0  0
    7.2623    2.0259   -0.5498 N   0  0  0  0  0  0  0  0  0  0  0  0
    7.8757    1.0707   -1.3431 C   0  0  0  0  0  0  0  0  0  0  0  0
    8.1992    1.3951   -2.6851 C   0  0  0  0  0  0  0  0  0  0  0  0
    8.8195    0.4655   -3.5093 C   0  0  0  0  0  0  0  0  0  0  0  0
    9.1176   -0.8029   -2.9858 C   0  0  0  0  0  0  0  0  0  0  0  0
    9.7434   -1.8807   -3.5779 N   0  0  0  0  0  0  0  0  0  0  0  0
    9.7820   -2.7950   -2.6465 C   0  0  0  0  0  0  0  0  0  0  0  0
    9.2103   -2.4159   -1.4478 N   0  0  0  0  0  0  0  0  0  0  0  0
    9.1517   -3.2094   -0.2263 C   0  0  0  0  0  0  0  0  0  0  0  0
    7.9257   -4.1554   -0.0712 C   0  0  1  0  0  0  0  0  0  0  0  0
    6.6239   -3.3385   -0.0946 C   0  0  0  0  0  0  0  0  0  0  0  0
    7.8801   -5.2293   -1.1880 C   0  0  0  0  0  0  0  0  0  0  0  0
    9.0133   -6.2631   -1.1240 C   0  0  0  0  0  0  0  0  0  0  0  0
    9.0800   -6.9436    0.2498 C   0  0  0  0  0  0  0  0  0  0  0  0
    9.1536   -5.9143    1.3621 C   0  0  2  0  0  0  0  0  0  0  0  0
   10.4308   -5.6366    2.0492 C   0  0  0  0  0  0  0  0  0  0  0  0
    9.4223   -6.4274    2.6649 O   0  0  0  0  0  0  0  0  0  0  0  0
    8.0519   -4.8684    1.3016 C   0  0  0  0  0  0  0  0  0  0  0  0
    8.7758   -1.1134   -1.6404 C   0  0  0  0  0  0  0  0  0  0  0  0
    8.1569   -0.1879   -0.7965 C   0  0  0  0  0  0  0  0  0  0  0  0
    7.9516    2.3920   -3.0528 H   0  0  0  0  0  0  0  0  0  0  0  0
    9.0787    0.7060   -4.5419 H   0  0  0  0  0  0  0  0  0  0  0  0
   10.2294   -3.7839   -2.7595 H   0  0  0  0  0  0  0  0  0  0  0  0
    9.1695   -2.5084    0.6227 H   0  0  0  0  0  0  0  0  0  0  0  0
   10.0852   -3.7872   -0.1663 H   0  0  0  0  0  0  0  0  0  0  0  0
    5.7531   -3.9994    0.0387 H   0  0  0  0  0  0  0  0  0  0  0  0
    6.4941   -2.8048   -1.0483 H   0  0  0  0  0  0  0  0  0  0  0  0
    6.6007   -2.5946    0.7184 H   0  0  0  0  0  0  0  0  0  0  0  0
    7.8569   -4.7411   -2.1762 H   0  0  0  0  0  0  0  0  0  0  0  0
    6.9165   -5.7611   -1.0973 H   0  0  0  0  0  0  0  0  0  0  0  0
    9.9860   -5.7871   -1.3419 H   0  0  0  0  0  0  0  0  0  0  0  0
    8.8668   -7.0186   -1.9128 H   0  0  0  0  0  0  0  0  0  0  0  0
    9.9331   -7.6361    0.3178 H   0  0  0  0  0  0  0  0  0  0  0  0
    8.1677   -7.5472    0.4076 H   0  0  0  0  0  0  0  0  0  0  0  0
   10.6071   -4.6524    2.5052 H   0  0  0  0  0  0  0  0  0  0  0  0
   11.3404   -6.1740    1.7467 H   0  0  0  0  0  0  0  0  0  0  0  0
    8.1883   -4.1350    2.1134 H   0  0  0  0  0  0  0  0  0  0  0  0
    7.0986   -5.3854    1.5101 H   0  0  0  0  0  0  0  0  0  0  0  0
    7.8911   -0.4047    0.2379 H   0  0  0  0  0  0  0  0  0  0  0  0
  1  2  2  0
  2  3  2  0
  3  4  1  0
  3 21  1  0
  4  5  2  0
  4 22  1  0
  5  6  1  0
  5 23  1  0
  6  7  2  0
  6 20  1  0
  7  8  1  0
  8  9  2  0
  8 24  1  0
  9 10  1  0
  9 20  1  0
 11 10  1  6
 10 25  1  0
 10 26  1  0
 11 12  1  0
 11 13  1  0
 11 19  1  0
 12 27  1  0
 12 28  1  0
 12 29  1  0
 13 14  1  0
 13 30  1  0
 13 31  1  0
 14 15  1  0
 14 32  1  0
 14 33  1  0
 15 16  1  0
 15 34  1  0
 15 35  1  0
 16 17  1  0
 16 18  1  1
 16 19  1  0
 17 18  1  0
 17 36  1  0
 17 37  1  0
 19 38  1  0
 19 39  1  0
 20 21  2  0
 21 40  1  0
M  CHG  3   1  -2   2   1   9   1
M  END

