
     RDKit          3D

 35 36  0  0  0  0  0  0  0  0999 V2000
    3.5819    1.1508    0.9437 C   0  0  0  0  0  0  0  0  0  0  0  0
    3.3944    0.9309   -0.4421 O   0  0  0  0  0  0  0  0  0  0  0  0
    4.2464    0.0207   -1.0096 C   0  0  0  0  0  0  0  0  0  0  0  0
    3.9297   -1.2818   -0.5325 O   0  0  0  0  0  0  0  0  0  0  0  0
    4.6608   -2.3566   -0.9143 C   0  0  0  0  0  0  0  0  0  0  0  0
    5.7107   -2.2729   -1.8348 C   0  0  0  0  0  0  0  0  0  0  0  0
    6.4448   -3.4220   -2.2230 C   0  0  0  0  0  0  0  0  0  0  0  0
    7.4600   -3.3318   -3.1719 N   0  0  0  0  0  0  0  0  0  0  0  0
    8.1964   -4.5281   -3.5693 C   0  0  0  0  0  0  0  0  0  0  0  0
    8.8601   -4.3305   -4.9313 C   0  0  0  0  0  0  0  0  0  0  0  0
    9.6688   -3.1762   -4.9647 O   0  0  0  0  0  0  0  0  0  0  0  0
    8.9032   -2.0264   -4.6853 C   0  0  0  0  0  0  0  0  0  0  0  0
    8.2489   -2.1075   -3.3090 C   0  0  0  0  0  0  0  0  0  0  0  0
    6.0920   -4.6613   -1.6300 C   0  0  0  0  0  0  0  0  0  0  0  0
    5.0459   -4.7299   -0.7223 C   0  0  0  0  0  0  0  0  0  0  0  0
    4.3047   -3.6029   -0.3392 C   0  0  0  0  0  0  0  0  0  0  0  0
    3.2055   -3.7462    0.6324 C   0  0  0  0  0  0  0  0  0  0  0  0
    2.8851   -4.8008    1.1463 O   0  0  0  0  0  0  0  0  0  0  0  0
    2.9027    1.9627    1.2370 H   0  0  0  0  0  0  0  0  0  0  0  0
    4.6232    1.4575    1.1637 H   0  0  0  0  0  0  0  0  0  0  0  0
    3.3464    0.2515    1.5369 H   0  0  0  0  0  0  0  0  0  0  0  0
    5.3099    0.2387   -0.7665 H   0  0  0  0  0  0  0  0  0  0  0  0
    4.0967    0.0678   -2.1025 H   0  0  0  0  0  0  0  0  0  0  0  0
    5.9430   -1.3132   -2.2866 H   0  0  0  0  0  0  0  0  0  0  0  0
    7.5046   -5.3770   -3.6517 H   0  0  0  0  0  0  0  0  0  0  0  0
    8.9672   -4.7922   -2.8152 H   0  0  0  0  0  0  0  0  0  0  0  0
    8.0756   -4.2707   -5.7140 H   0  0  0  0  0  0  0  0  0  0  0  0
    9.5079   -5.1908   -5.1574 H   0  0  0  0  0  0  0  0  0  0  0  0
    8.1185   -1.8894   -5.4584 H   0  0  0  0  0  0  0  0  0  0  0  0
    9.5833   -1.1621   -4.7256 H   0  0  0  0  0  0  0  0  0  0  0  0
    7.6159   -1.2220   -3.1774 H   0  0  0  0  0  0  0  0  0  0  0  0
    9.0373   -2.0707   -2.5282 H   0  0  0  0  0  0  0  0  0  0  0  0
    6.6437   -5.5698   -1.8624 H   0  0  0  0  0  0  0  0  0  0  0  0
    4.7725   -5.6822   -0.2610 H   0  0  0  0  0  0  0  0  0  0  0  0
    2.6616   -2.8040    0.8789 H   0  0  0  0  0  0  0  0  0  0  0  0
  1  2  1  0
  1 19  1  0
  1 20  1  0
  1 21  1  0
  2  3  1  0
  3  4  1  0
  3 22  1  0
  3 23  1  0
  4  5  1  0
  5  6  2  0
  5 16  1  0
  6  7  1  0
  6 24  1  0
  7  8  1  0
  7 14  2  0
  8  9  1  0
  8 13  1  0
  9 10  1  0
  9 25  1  0
  9 26  1  0
 10 11  1  0
 10 27  1  0
 10 28  1  0
 11 12  1  0
 12 13  1  0
 12 29  1  0
 12 30  1  0
 13 31  1  0
 13 32  1  0
 14 15  1  0
 14 33  1  0
 15 16  2  0
 15 34  1  0
 16 17  1  0
 17 18  2  0
 17 35  1  0
M  END

