
     RDKit          3D

 46 48  0  0  0  0  0  0  0  0999 V2000
    3.4117   -2.0464    2.0658 C   0  0  0  0  0  0  0  0  0  0  0  0
    3.4523   -0.8903    1.1013 C   0  0  0  0  0  0  0  0  0  0  0  0
    4.3675    0.1622    1.2481 C   0  0  0  0  0  0  0  0  0  0  0  0
    4.3582    1.2210    0.3328 C   0  0  0  0  0  0  0  0  0  0  0  0
    5.3652    2.3261    0.5314 C   0  0  0  0  0  0  0  0  0  0  0  0
    6.3639    2.1755    1.2055 O   0  0  0  0  0  0  0  0  0  0  0  0
    5.0593    3.5243   -0.0940 N   0  0  0  0  0  0  0  0  0  0  0  0
    5.8951    4.6819   -0.0560 C   0  0  0  0  0  0  0  0  0  0  0  0
    7.0953    4.7533   -0.4641 N   0  0  0  0  0  0  0  0  0  0  0  0
    7.7655    3.6254   -1.0547 C   0  0  0  0  0  0  0  0  0  0  0  0
    8.8142    4.0281   -2.0751 C   0  0  0  0  0  0  0  0  0  0  0  0
    8.9280    5.3422   -2.5496 C   0  0  0  0  0  0  0  0  0  0  0  0
    9.8830    5.7086   -3.5006 C   0  0  0  0  0  0  0  0  0  0  0  0
   10.7456    4.7332   -3.9906 C   0  0  0  0  0  0  0  0  0  0  0  0
   11.6709    5.0644   -4.9030 F   0  0  0  0  0  0  0  0  0  0  0  0
   10.6714    3.4120   -3.5582 C   0  0  0  0  0  0  0  0  0  0  0  0
    9.7044    3.0780   -2.6075 C   0  0  0  0  0  0  0  0  0  0  0  0
    9.6139    1.4064   -2.0814 Cl  0  0  0  0  0  0  0  0  0  0  0  0
    5.2119    5.7714    0.4550 N   0  0  0  0  0  0  0  0  0  0  0  0
    5.6611    7.0828    0.5657 C   0  0  0  0  0  0  0  0  0  0  0  0
    6.9444    7.6384    0.3190 C   0  0  0  0  0  0  0  0  0  0  0  0
    6.7792    8.9782    0.6301 C   0  0  0  0  0  0  0  0  0  0  0  0
    7.7263   10.1296    0.5261 C   0  0  1  0  0  0  0  0  0  0  0  0
    8.9800    9.7600    0.8039 F   0  0  0  0  0  0  0  0  0  0  0  0
    7.7316   10.6740   -0.7040 F   0  0  0  0  0  0  0  0  0  0  0  0
    7.3705   11.1094    1.3843 F   0  0  0  0  0  0  0  0  0  0  0  0
    5.4905    9.1438    1.0202 N   0  0  0  0  0  0  0  0  0  0  0  0
    5.0557    9.9984    1.3483 H   0  0  0  0  0  0  0  0  0  0  0  0
    4.7926    8.0027    0.9925 N   0  0  0  0  0  0  0  0  0  0  0  0
    3.4382    1.1735   -0.7221 C   0  0  0  0  0  0  0  0  0  0  0  0
    2.5701    0.0787   -0.7916 C   0  0  0  0  0  0  0  0  0  0  0  0
    2.5677   -0.9177    0.0908 N   0  0  0  0  0  0  0  0  0  0  0  0
    4.1745   -1.9563    2.8516 H   0  0  0  0  0  0  0  0  0  0  0  0
    3.5660   -2.9941    1.5256 H   0  0  0  0  0  0  0  0  0  0  0  0
    2.4185   -2.1104    2.5388 H   0  0  0  0  0  0  0  0  0  0  0  0
    5.0939    0.1743    2.0625 H   0  0  0  0  0  0  0  0  0  0  0  0
    4.1175    3.6488   -0.4508 H   0  0  0  0  0  0  0  0  0  0  0  0
    7.0627    2.9177   -1.5399 H   0  0  0  0  0  0  0  0  0  0  0  0
    8.2465    3.0334   -0.2561 H   0  0  0  0  0  0  0  0  0  0  0  0
    8.2397    6.0900   -2.1544 H   0  0  0  0  0  0  0  0  0  0  0  0
    9.9663    6.7344   -3.8640 H   0  0  0  0  0  0  0  0  0  0  0  0
   11.3551    2.6622   -3.9566 H   0  0  0  0  0  0  0  0  0  0  0  0
    4.3217    5.5993    0.9063 H   0  0  0  0  0  0  0  0  0  0  0  0
    7.8368    7.1185   -0.0064 H   0  0  0  0  0  0  0  0  0  0  0  0
    3.4043    1.9389   -1.5010 H   0  0  0  0  0  0  0  0  0  0  0  0
    1.8443    0.0095   -1.6110 H   0  0  0  0  0  0  0  0  0  0  0  0
  1  2  1  0
  1 33  1  0
  1 34  1  0
  1 35  1  0
  2  3  2  0
  2 32  1  0
  3  4  1  0
  3 36  1  0
  4  5  1  0
  4 30  2  0
  5  6  2  0
  5  7  1  0
  7  8  1  0
  7 37  1  0
  8  9  2  0
  8 19  1  0
  9 10  1  0
 10 11  1  0
 10 38  1  0
 10 39  1  0
 11 12  2  0
 11 17  1  0
 12 13  1  0
 12 40  1  0
 13 14  2  0
 13 41  1  0
 14 15  1  0
 14 16  1  0
 16 17  2  0
 16 42  1  0
 17 18  1  0
 19 20  1  0
 19 43  1  0
 20 21  1  0
 20 29  2  0
 21 22  2  0
 21 44  1  0
 22 23  1  0
 22 27  1  0
 23 24  1  1
 23 25  1  0
 23 26  1  0
 27 28  1  0
 27 29  1  0
 30 31  1  0
 30 45  1  0
 31 32  2  0
 31 46  1  0
M  END

