
     RDKit          3D

 30 30  0  0  0  0  0  0  0  0999 V2000
    1.6159   -0.1863   -2.1104 C   0  0  0  0  0  0  0  0  0  0  0  0
    2.4263   -0.1037   -1.0530 C   0  0  0  0  0  0  0  0  0  0  0  0
    3.1299    1.1570   -0.5993 C   0  0  1  0  0  0  0  0  0  0  0  0
    2.6987    1.5758    0.8124 C   0  0  0  0  0  0  0  0  0  0  0  0
    4.5823    0.9922   -0.6643 N   0  0  0  0  0  0  0  0  0  0  0  0
    5.3632    1.6411   -1.5770 C   0  0  0  0  0  0  0  0  0  0  0  0
    4.9240    2.4623   -2.3681 O   0  0  0  0  0  0  0  0  0  0  0  0
    6.8383    1.3045   -1.5449 C   0  0  0  0  0  0  0  0  0  0  0  0
    7.7185    2.1744   -2.1998 C   0  0  0  0  0  0  0  0  0  0  0  0
    9.0821    1.8767   -2.1873 C   0  0  0  0  0  0  0  0  0  0  0  0
    9.5975    0.7991   -1.5906 N   0  0  0  0  0  0  0  0  0  0  0  0
    8.7611   -0.0487   -0.9801 C   0  0  0  0  0  0  0  0  0  0  0  0
    9.3899   -1.2875   -0.3674 C   0  0  0  0  0  0  0  0  0  0  0  0
    8.5460   -1.9083    0.6462 N   0  0  0  0  0  0  0  0  0  0  0  0
    7.3763    0.1669   -0.9314 C   0  0  0  0  0  0  0  0  0  0  0  0
    1.1294   -1.1260   -2.3871 H   0  0  0  0  0  0  0  0  0  0  0  0
    1.4110    0.6840   -2.7426 H   0  0  0  0  0  0  0  0  0  0  0  0
    2.6122   -0.9989   -0.4428 H   0  0  0  0  0  0  0  0  0  0  0  0
    2.9027    1.9656   -1.3087 H   0  0  0  0  0  0  0  0  0  0  0  0
    2.9413    0.7939    1.5530 H   0  0  0  0  0  0  0  0  0  0  0  0
    1.6115    1.7430    0.8501 H   0  0  0  0  0  0  0  0  0  0  0  0
    3.2078    2.5041    1.1144 H   0  0  0  0  0  0  0  0  0  0  0  0
    5.0197    0.3521   -0.0127 H   0  0  0  0  0  0  0  0  0  0  0  0
    7.3247    3.0591   -2.7023 H   0  0  0  0  0  0  0  0  0  0  0  0
    9.7947    2.5469   -2.6828 H   0  0  0  0  0  0  0  0  0  0  0  0
   10.4063   -1.0006   -0.0321 H   0  0  0  0  0  0  0  0  0  0  0  0
    9.5417   -2.0189   -1.1820 H   0  0  0  0  0  0  0  0  0  0  0  0
    8.5810   -1.3750    1.5159 H   0  0  0  0  0  0  0  0  0  0  0  0
    8.8813   -2.8444    0.8672 H   0  0  0  0  0  0  0  0  0  0  0  0
    6.7693   -0.5858   -0.4249 H   0  0  0  0  0  0  0  0  0  0  0  0
  1  2  2  0
  1 16  1  0
  1 17  1  0
  2  3  1  0
  2 18  1  0
  3  4  1  0
  3  5  1  0
  3 19  1  6
  4 20  1  0
  4 21  1  0
  4 22  1  0
  5  6  1  0
  5 23  1  0
  6  7  2  0
  6  8  1  0
  8  9  2  0
  8 15  1  0
  9 10  1  0
  9 24  1  0
 10 11  2  0
 10 25  1  0
 11 12  1  0
 12 13  1  0
 12 15  2  0
 13 14  1  0
 13 26  1  0
 13 27  1  0
 14 28  1  0
 14 29  1  0
 15 30  1  0
M  END

