
     RDKit          3D

 48 51  0  0  0  0  0  0  0  0999 V2000
    1.8822   -1.0731   -3.3541 C   0  0  0  0  0  0  0  0  0  0  0  0
    2.2424   -1.1180   -1.8637 C   0  0  1  0  0  0  0  0  0  0  0  0
    2.5189   -2.4985   -1.4693 N   0  0  0  0  0  0  0  0  0  0  0  0
    2.2655   -2.9501   -0.2205 C   0  0  0  0  0  0  0  0  0  0  0  0
    1.7157   -2.2881    0.6518 O   0  0  0  0  0  0  0  0  0  0  0  0
    2.6970   -4.4086    0.0804 C   0  0  1  0  0  0  0  0  0  0  0  0
    2.0366   -5.4644   -0.8105 C   0  0  0  0  0  0  0  0  0  0  0  0
    4.1663   -4.5334    0.1629 N   0  0  0  0  0  0  0  0  0  0  0  0
    4.8984   -4.6182    1.3526 C   0  0  0  0  0  0  0  0  0  0  0  0
    4.3738   -4.4929    2.7068 C   0  0  0  0  0  0  0  0  0  0  0  0
    3.3546   -3.7011    3.2077 C   0  0  0  0  0  0  0  0  0  0  0  0
    3.2107   -3.8274    4.6186 C   0  0  0  0  0  0  0  0  0  0  0  0
    4.1163   -4.7007    5.1704 C   0  0  0  0  0  0  0  0  0  0  0  0
    5.1633   -5.3856    3.9845 S   0  0  0  0  0  0  0  0  0  0  0  0
    6.1634   -4.8429    1.1023 N   0  0  0  0  0  0  0  0  0  0  0  0
    6.2397   -4.8912   -0.2460 N   0  0  0  0  0  0  0  0  0  0  0  0
    7.1283   -5.0166   -0.7174 H   0  0  0  0  0  0  0  0  0  0  0  0
    5.0624   -4.6778   -0.8869 C   0  0  0  0  0  0  0  0  0  0  0  0
    4.8565   -4.6006   -2.5552 S   0  0  0  0  0  0  0  0  0  0  0  0
    3.3896   -0.1699   -1.5200 C   0  0  0  0  0  0  0  0  0  0  0  0
    4.7137   -0.4597   -1.8851 C   0  0  0  0  0  0  0  0  0  0  0  0
    5.7441    0.4401   -1.6021 C   0  0  0  0  0  0  0  0  0  0  0  0
    5.4687    1.6369   -0.9408 C   0  0  0  0  0  0  0  0  0  0  0  0
    4.1489    1.9333   -0.5539 C   0  0  0  0  0  0  0  0  0  0  0  0
    3.1222    1.0324   -0.8534 C   0  0  0  0  0  0  0  0  0  0  0  0
    3.9271    3.1201    0.1629 N   0  0  0  0  0  0  0  0  0  0  0  0
    4.8519    4.1267    0.2676 C   0  0  0  0  0  0  0  0  0  0  0  0
    4.6559    5.1603    0.8728 O   0  0  0  0  0  0  0  0  0  0  0  0
    6.1392    3.8590   -0.5110 C   0  0  0  0  0  0  0  0  0  0  0  0
    6.4851    2.4867   -0.6135 O   0  0  0  0  0  0  0  0  0  0  0  0
    1.0174   -1.7217   -3.5645 H   0  0  0  0  0  0  0  0  0  0  0  0
    2.7274   -1.4080   -3.9772 H   0  0  0  0  0  0  0  0  0  0  0  0
    1.6321   -0.0455   -3.6568 H   0  0  0  0  0  0  0  0  0  0  0  0
    1.3695   -0.8063   -1.2720 H   0  0  0  0  0  0  0  0  0  0  0  0
    3.0853   -3.0875   -2.0895 H   0  0  0  0  0  0  0  0  0  0  0  0
    2.3459   -4.5759    1.1029 H   0  0  0  0  0  0  0  0  0  0  0  0
    2.3400   -5.3843   -1.8610 H   0  0  0  0  0  0  0  0  0  0  0  0
    0.9448   -5.3448   -0.7400 H   0  0  0  0  0  0  0  0  0  0  0  0
    2.2933   -6.4735   -0.4527 H   0  0  0  0  0  0  0  0  0  0  0  0
    2.7450   -3.0346    2.5929 H   0  0  0  0  0  0  0  0  0  0  0  0
    2.4665   -3.2823    5.2006 H   0  0  0  0  0  0  0  0  0  0  0  0
    4.2280   -4.9784    6.2179 H   0  0  0  0  0  0  0  0  0  0  0  0
    4.9526   -1.4003   -2.3885 H   0  0  0  0  0  0  0  0  0  0  0  0
    6.7785    0.2262   -1.8784 H   0  0  0  0  0  0  0  0  0  0  0  0
    2.1007    1.2672   -0.5398 H   0  0  0  0  0  0  0  0  0  0  0  0
    3.0303    3.2796    0.6127 H   0  0  0  0  0  0  0  0  0  0  0  0
    6.9615    4.3712    0.0040 H   0  0  0  0  0  0  0  0  0  0  0  0
    6.0279    4.3101   -1.5184 H   0  0  0  0  0  0  0  0  0  0  0  0
  1  2  1  0
  1 31  1  0
  1 32  1  0
  1 33  1  0
  2  3  1  0
  2 20  1  0
  2 34  1  1
  3  4  1  0
  3 35  1  0
  4  5  2  0
  4  6  1  0
  6  7  1  0
  6  8  1  0
  6 36  1  1
  7 37  1  0
  7 38  1  0
  7 39  1  0
  8  9  1  0
  8 18  1  0
  9 10  1  0
  9 15  2  0
 10 11  2  0
 10 14  1  0
 11 12  1  0
 11 40  1  0
 12 13  2  0
 12 41  1  0
 13 14  1  0
 13 42  1  0
 15 16  1  0
 16 17  1  0
 16 18  1  0
 18 19  2  0
 20 21  2  0
 20 25  1  0
 21 22  1  0
 21 43  1  0
 22 23  2  0
 22 44  1  0
 23 24  1  0
 23 30  1  0
 24 25  2  0
 24 26  1  0
 25 45  1  0
 26 27  1  0
 26 46  1  0
 27 28  2  0
 27 29  1  0
 29 30  1  0
 29 47  1  0
 29 48  1  0
M  END

