
     RDKit          3D

 31 32  0  0  0  0  0  0  0  0999 V2000
    1.7565    0.9593   -0.2238 C   0  0  0  0  0  0  0  0  0  0  0  0
    2.9832    0.2774   -0.0901 O   0  0  0  0  0  0  0  0  0  0  0  0
    3.2641   -0.7576   -0.9188 C   0  0  0  0  0  0  0  0  0  0  0  0
    4.5052   -1.3905   -0.7210 C   0  0  0  0  0  0  0  0  0  0  0  0
    4.8840   -2.4604   -1.5225 C   0  0  0  0  0  0  0  0  0  0  0  0
    4.0400   -2.9326   -2.5462 C   0  0  0  0  0  0  0  0  0  0  0  0
    4.4383   -4.1035   -3.4055 C   0  0  0  0  0  0  0  0  0  0  0  0
    4.0327   -5.3742   -2.8322 O   0  0  0  0  0  0  0  0  0  0  0  0
    4.8966   -5.9965   -2.0169 C   0  0  0  0  0  0  0  0  0  0  0  0
    5.9959   -5.5745   -1.7374 O   0  0  0  0  0  0  0  0  0  0  0  0
    4.3479   -7.2893   -1.4902 C   0  0  0  0  0  0  0  0  0  0  0  0
    5.1490   -8.0622   -0.6410 C   0  0  0  0  0  0  0  0  0  0  0  0
    4.6352   -9.2661   -0.1531 C   0  0  0  0  0  0  0  0  0  0  0  0
    3.4154   -9.7215   -0.4536 N   0  0  0  0  0  0  0  0  0  0  0  0
    2.6553   -8.9796   -1.2630 C   0  0  0  0  0  0  0  0  0  0  0  0
    3.0681   -7.7603   -1.8087 C   0  0  0  0  0  0  0  0  0  0  0  0
    2.8085   -2.2949   -2.7331 C   0  0  0  0  0  0  0  0  0  0  0  0
    2.4119   -1.2165   -1.9353 C   0  0  0  0  0  0  0  0  0  0  0  0
    1.7490    1.7438    0.5447 H   0  0  0  0  0  0  0  0  0  0  0  0
    0.8931    0.2895   -0.0591 H   0  0  0  0  0  0  0  0  0  0  0  0
    1.6542    1.4320   -1.2175 H   0  0  0  0  0  0  0  0  0  0  0  0
    5.1550   -1.0174    0.0733 H   0  0  0  0  0  0  0  0  0  0  0  0
    5.8448   -2.9520   -1.3537 H   0  0  0  0  0  0  0  0  0  0  0  0
    5.5244   -4.1296   -3.5665 H   0  0  0  0  0  0  0  0  0  0  0  0
    3.9237   -4.0704   -4.3751 H   0  0  0  0  0  0  0  0  0  0  0  0
    6.1499   -7.7165   -0.3769 H   0  0  0  0  0  0  0  0  0  0  0  0
    5.2407   -9.8915    0.5133 H   0  0  0  0  0  0  0  0  0  0  0  0
    1.6584   -9.3730   -1.4946 H   0  0  0  0  0  0  0  0  0  0  0  0
    2.4129   -7.1866   -2.4646 H   0  0  0  0  0  0  0  0  0  0  0  0
    2.1360   -2.6409   -3.5237 H   0  0  0  0  0  0  0  0  0  0  0  0
    1.4462   -0.7444   -2.1162 H   0  0  0  0  0  0  0  0  0  0  0  0
  1  2  1  0
  1 19  1  0
  1 20  1  0
  1 21  1  0
  2  3  1  0
  3  4  2  0
  3 18  1  0
  4  5  1  0
  4 22  1  0
  5  6  2  0
  5 23  1  0
  6  7  1  0
  6 17  1  0
  7  8  1  0
  7 24  1  0
  7 25  1  0
  8  9  1  0
  9 10  2  0
  9 11  1  0
 11 12  2  0
 11 16  1  0
 12 13  1  0
 12 26  1  0
 13 14  2  0
 13 27  1  0
 14 15  1  0
 15 16  2  0
 15 28  1  0
 16 29  1  0
 17 18  2  0
 17 30  1  0
 18 31  1  0
M  END

