
     RDKit          3D

 38 39  0  0  0  0  0  0  0  0999 V2000
    4.1906   -4.1839   -2.3411 C   0  0  0  0  0  0  0  0  0  0  0  0
    4.5823   -2.9103   -3.0581 C   0  0  0  0  0  0  0  0  0  0  0  0
    5.2780   -2.9660   -4.0553 O   0  0  0  0  0  0  0  0  0  0  0  0
    4.1237   -1.5572   -2.5582 C   0  0  0  0  0  0  0  0  0  0  0  0
    4.5577   -0.4599   -3.3211 C   0  0  0  0  0  0  0  0  0  0  0  0
    4.2084    0.8345   -2.9723 C   0  0  0  0  0  0  0  0  0  0  0  0
    4.6364    1.8653   -3.7189 F   0  0  0  0  0  0  0  0  0  0  0  0
    3.4170    1.0839   -1.8547 C   0  0  0  0  0  0  0  0  0  0  0  0
    2.9738    0.0113   -1.0808 C   0  0  0  0  0  0  0  0  0  0  0  0
    3.3156   -1.3122   -1.4156 C   0  0  0  0  0  0  0  0  0  0  0  0
    2.9006   -2.3757   -0.6826 O   0  0  0  0  0  0  0  0  0  0  0  0
    2.0905   -2.1849    0.4692 C   0  0  0  0  0  0  0  0  0  0  0  0
    1.7850   -3.5468    1.0732 C   0  0  0  0  0  0  0  0  0  0  0  0
    0.9228   -3.4435    2.3333 C   0  0  0  0  0  0  0  0  0  0  0  0
    0.5378   -4.7956    2.9270 C   0  0  1  0  0  0  0  0  0  0  0  0
    1.6811   -5.6332    3.5175 C   0  0  0  0  0  0  0  0  0  0  0  0
    0.9455   -6.4707    4.5699 C   0  0  0  0  0  0  0  0  0  0  0  0
   -0.1029   -5.4763    5.0859 C   0  0  0  0  0  0  0  0  0  0  0  0
   -0.3641   -4.5773    4.0125 O   0  0  0  0  0  0  0  0  0  0  0  0
    4.6321   -5.0293   -2.8845 H   0  0  0  0  0  0  0  0  0  0  0  0
    3.0966   -4.2877   -2.2924 H   0  0  0  0  0  0  0  0  0  0  0  0
    4.5436   -4.1717   -1.2992 H   0  0  0  0  0  0  0  0  0  0  0  0
    5.1780   -0.6554   -4.1969 H   0  0  0  0  0  0  0  0  0  0  0  0
    3.1529    2.1116   -1.5970 H   0  0  0  0  0  0  0  0  0  0  0  0
    2.3553    0.2175   -0.2086 H   0  0  0  0  0  0  0  0  0  0  0  0
    1.1537   -1.6663    0.1916 H   0  0  0  0  0  0  0  0  0  0  0  0
    2.6192   -1.5464    1.2017 H   0  0  0  0  0  0  0  0  0  0  0  0
    2.7400   -4.0514    1.2972 H   0  0  0  0  0  0  0  0  0  0  0  0
    1.2752   -4.1632    0.3125 H   0  0  0  0  0  0  0  0  0  0  0  0
   -0.0114   -2.9001    2.1097 H   0  0  0  0  0  0  0  0  0  0  0  0
    1.4422   -2.8581    3.1129 H   0  0  0  0  0  0  0  0  0  0  0  0
    0.0206   -5.3900    2.1431 H   0  0  0  0  0  0  0  0  0  0  0  0
    2.4222   -4.9709    3.9985 H   0  0  0  0  0  0  0  0  0  0  0  0
    2.2064   -6.2397    2.7648 H   0  0  0  0  0  0  0  0  0  0  0  0
    1.6017   -6.8547    5.3654 H   0  0  0  0  0  0  0  0  0  0  0  0
    0.4559   -7.3356    4.0927 H   0  0  0  0  0  0  0  0  0  0  0  0
    0.2766   -4.9089    5.9575 H   0  0  0  0  0  0  0  0  0  0  0  0
   -1.0428   -5.9669    5.3928 H   0  0  0  0  0  0  0  0  0  0  0  0
  1  2  1  0
  1 20  1  0
  1 21  1  0
  1 22  1  0
  2  3  2  0
  2  4  1  0
  4  5  2  0
  4 10  1  0
  5  6  1  0
  5 23  1  0
  6  7  1  0
  6  8  2  0
  8  9  1  0
  8 24  1  0
  9 10  2  0
  9 25  1  0
 10 11  1  0
 11 12  1  0
 12 13  1  0
 12 26  1  0
 12 27  1  0
 13 14  1  0
 13 28  1  0
 13 29  1  0
 14 15  1  0
 14 30  1  0
 14 31  1  0
 15 16  1  0
 15 19  1  0
 15 32  1  6
 16 17  1  0
 16 33  1  0
 16 34  1  0
 17 18  1  0
 17 35  1  0
 17 36  1  0
 18 19  1  0
 18 37  1  0
 18 38  1  0
M  END

