
     RDKit          3D

 43 46  0  0  0  0  0  0  0  0999 V2000
    4.5079    0.6779   -3.4199 C   0  0  0  0  0  0  0  0  0  0  0  0
    3.3833    1.0563   -2.4714 C   0  0  0  0  0  0  0  0  0  0  0  0
    3.7734    2.1261   -1.5882 O   0  0  0  0  0  0  0  0  0  0  0  0
    4.3916    1.8034   -0.4435 C   0  0  0  0  0  0  0  0  0  0  0  0
    4.6554    0.6604   -0.1258 O   0  0  0  0  0  0  0  0  0  0  0  0
    4.7299    2.9911    0.3626 C   0  0  0  0  0  0  0  0  0  0  0  0
    4.1975    4.3341    0.3284 C   0  0  0  0  0  0  0  0  0  0  0  0
    3.0659    4.9152   -0.4300 C   0  0  0  0  0  0  0  0  0  0  0  0
    1.8513    4.2267   -0.5853 C   0  0  0  0  0  0  0  0  0  0  0  0
    0.7827    4.8222   -1.2572 C   0  0  0  0  0  0  0  0  0  0  0  0
    0.9129    6.1107   -1.7853 C   0  0  0  0  0  0  0  0  0  0  0  0
    2.1161    6.8050   -1.6295 C   0  0  0  0  0  0  0  0  0  0  0  0
    3.1850    6.2142   -0.9530 C   0  0  0  0  0  0  0  0  0  0  0  0
    4.8601    5.1154    1.1522 N   0  0  0  0  0  0  0  0  0  0  0  0
    5.8346    4.3326    1.7367 O   0  0  0  0  0  0  0  0  0  0  0  0
    5.7667    3.0755    1.2798 C   0  0  0  0  0  0  0  0  0  0  0  0
    6.7512    2.1509    1.8114 C   0  0  0  0  0  0  0  0  0  0  0  0
    6.6546    0.7872    1.9468 C   0  0  0  0  0  0  0  0  0  0  0  0
    7.7310    0.3115    2.5654 O   0  0  0  0  0  0  0  0  0  0  0  0
    8.6010    1.3441    2.8587 N   0  0  0  0  0  0  0  0  0  0  0  0
    8.0335    2.4450    2.4179 C   0  0  0  0  0  0  0  0  0  0  0  0
    8.7435    3.7287    2.5969 C   0  0  0  0  0  0  0  0  0  0  0  0
    9.3759    4.0323    3.8148 C   0  0  0  0  0  0  0  0  0  0  0  0
   10.0787    5.2262    3.9816 C   0  0  0  0  0  0  0  0  0  0  0  0
   10.1659    6.1387    2.9254 C   0  0  0  0  0  0  0  0  0  0  0  0
    9.5583    5.8532    1.7003 C   0  0  0  0  0  0  0  0  0  0  0  0
    8.8653    4.6567    1.5535 C   0  0  0  0  0  0  0  0  0  0  0  0
    8.3132    4.3738    0.3624 F   0  0  0  0  0  0  0  0  0  0  0  0
    4.1525   -0.0819   -4.1343 H   0  0  0  0  0  0  0  0  0  0  0  0
    5.3608    0.2555   -2.8684 H   0  0  0  0  0  0  0  0  0  0  0  0
    4.8525    1.5538   -3.9910 H   0  0  0  0  0  0  0  0  0  0  0  0
    3.0675    0.1925   -1.8683 H   0  0  0  0  0  0  0  0  0  0  0  0
    2.5158    1.4545   -3.0170 H   0  0  0  0  0  0  0  0  0  0  0  0
    1.7354    3.2264   -0.1648 H   0  0  0  0  0  0  0  0  0  0  0  0
   -0.1596    4.2788   -1.3642 H   0  0  0  0  0  0  0  0  0  0  0  0
    0.0759    6.5737   -2.3143 H   0  0  0  0  0  0  0  0  0  0  0  0
    2.2242    7.8135   -2.0366 H   0  0  0  0  0  0  0  0  0  0  0  0
    4.1250    6.7535   -0.8242 H   0  0  0  0  0  0  0  0  0  0  0  0
    5.8861    0.0816    1.6448 H   0  0  0  0  0  0  0  0  0  0  0  0
    9.3012    3.3123    4.6316 H   0  0  0  0  0  0  0  0  0  0  0  0
   10.5567    5.4459    4.9387 H   0  0  0  0  0  0  0  0  0  0  0  0
   10.7110    7.0772    3.0514 H   0  0  0  0  0  0  0  0  0  0  0  0
    9.6161    6.5370    0.8516 H   0  0  0  0  0  0  0  0  0  0  0  0
  1  2  1  0
  1 29  1  0
  1 30  1  0
  1 31  1  0
  2  3  1  0
  2 32  1  0
  2 33  1  0
  3  4  1  0
  4  5  2  0
  4  6  1  0
  6  7  1  0
  6 16  2  0
  7  8  1  0
  7 14  2  0
  8  9  2  0
  8 13  1  0
  9 10  1  0
  9 34  1  0
 10 11  2  0
 10 35  1  0
 11 12  1  0
 11 36  1  0
 12 13  2  0
 12 37  1  0
 13 38  1  0
 14 15  1  0
 15 16  1  0
 16 17  1  0
 17 18  2  0
 17 21  1  0
 18 19  1  0
 18 39  1  0
 19 20  1  0
 20 21  2  0
 21 22  1  0
 22 23  2  0
 22 27  1  0
 23 24  1  0
 23 40  1  0
 24 25  2  0
 24 41  1  0
 25 26  1  0
 25 42  1  0
 26 27  2  0
 26 43  1  0
 27 28  1  0
M  END

