
     RDKit          3D

 37 37  0  0  0  0  0  0  0  0999 V2000
    2.9892   -0.2350   -1.5204 C   0  0  0  0  0  0  0  0  0  0  0  0
    2.4849   -0.1611   -0.0728 C   0  0  1  0  0  0  0  0  0  0  0  0
    0.9887   -0.4962   -0.0007 C   0  0  0  0  0  0  0  0  0  0  0  0
    3.2768   -1.0776    0.8811 C   0  0  0  0  0  0  0  0  0  0  0  0
    4.7959   -0.8279    0.9726 C   0  0  1  0  0  0  0  0  0  0  0  0
    5.1652    0.5787    1.4610 C   0  0  0  0  0  0  0  0  0  0  0  0
    5.4451   -1.8679    1.7920 N   0  0  0  0  0  0  0  0  0  0  0  0
    5.1472   -1.9662    3.2113 C   0  0  0  0  0  0  0  0  0  0  0  0
    6.3172   -2.7650    1.2412 C   0  0  0  0  0  0  0  0  0  0  0  0
    6.5906   -2.6764   -0.0789 N   0  0  0  0  0  0  0  0  0  0  0  0
    7.4433   -3.5604   -0.5794 C   0  0  0  0  0  0  0  0  0  0  0  0
    8.0551   -4.5572    0.1865 C   0  0  0  0  0  0  0  0  0  0  0  0
    7.7119   -4.5733    1.5401 C   0  0  0  0  0  0  0  0  0  0  0  0
    8.2878   -5.5903    2.4979 C   0  0  0  0  0  0  0  0  0  0  0  0
    7.8299   -5.4383    3.7481 N   0  0  0  0  0  0  0  0  0  0  0  0
    9.3700   -6.7640    2.0411 S   0  0  0  0  0  0  0  0  0  0  0  0
    6.8540   -3.6905    2.0640 N   0  0  0  0  0  0  0  0  0  0  0  0
    2.3782    0.3997   -2.1825 H   0  0  0  0  0  0  0  0  0  0  0  0
    2.9338   -1.2681   -1.9046 H   0  0  0  0  0  0  0  0  0  0  0  0
    4.0339    0.0985   -1.6196 H   0  0  0  0  0  0  0  0  0  0  0  0
    2.6030    0.8820    0.2746 H   0  0  0  0  0  0  0  0  0  0  0  0
    0.7978   -1.5279   -0.3429 H   0  0  0  0  0  0  0  0  0  0  0  0
    0.3958    0.1801   -0.6375 H   0  0  0  0  0  0  0  0  0  0  0  0
    0.6037   -0.4112    1.0287 H   0  0  0  0  0  0  0  0  0  0  0  0
    3.1286   -2.1260    0.5650 H   0  0  0  0  0  0  0  0  0  0  0  0
    2.8305   -0.9952    1.8887 H   0  0  0  0  0  0  0  0  0  0  0  0
    5.2267   -0.9643   -0.0257 H   0  0  0  0  0  0  0  0  0  0  0  0
    4.7247    0.8123    2.4445 H   0  0  0  0  0  0  0  0  0  0  0  0
    4.8070    1.3420    0.7538 H   0  0  0  0  0  0  0  0  0  0  0  0
    6.2581    0.6842    1.5412 H   0  0  0  0  0  0  0  0  0  0  0  0
    4.4461   -1.1707    3.4908 H   0  0  0  0  0  0  0  0  0  0  0  0
    6.0567   -1.8582    3.8248 H   0  0  0  0  0  0  0  0  0  0  0  0
    4.6902   -2.9367    3.4666 H   0  0  0  0  0  0  0  0  0  0  0  0
    7.6568   -3.4769   -1.6521 H   0  0  0  0  0  0  0  0  0  0  0  0
    8.7552   -5.2843   -0.2214 H   0  0  0  0  0  0  0  0  0  0  0  0
    7.1680   -4.6851    3.9228 H   0  0  0  0  0  0  0  0  0  0  0  0
    8.1476   -6.0638    4.4773 H   0  0  0  0  0  0  0  0  0  0  0  0
  1  2  1  0
  1 18  1  0
  1 19  1  0
  1 20  1  0
  2  3  1  0
  2  4  1  0
  2 21  1  1
  3 22  1  0
  3 23  1  0
  3 24  1  0
  4  5  1  0
  4 25  1  0
  4 26  1  0
  5  6  1  0
  5  7  1  0
  5 27  1  6
  6 28  1  0
  6 29  1  0
  6 30  1  0
  7  8  1  0
  7  9  1  0
  8 31  1  0
  8 32  1  0
  8 33  1  0
  9 10  2  0
  9 17  1  0
 10 11  1  0
 11 12  2  0
 11 34  1  0
 12 13  1  0
 12 35  1  0
 13 14  1  0
 13 17  2  0
 14 15  1  0
 14 16  2  0
 15 36  1  0
 15 37  1  0
M  END

