
     RDKit          3D

 61 63  0  0  0  0  0  0  0  0999 V2000
    3.2295   -2.0970    5.2391 C   0  0  0  0  0  0  0  0  0  0  0  0
    4.3430   -2.0026    4.2233 C   0  0  0  0  0  0  0  0  0  0  0  0
    5.5791   -2.6352    4.4282 C   0  0  0  0  0  0  0  0  0  0  0  0
    6.5870   -2.5603    3.4692 C   0  0  0  0  0  0  0  0  0  0  0  0
    6.3831   -1.8587    2.2785 C   0  0  0  0  0  0  0  0  0  0  0  0
    5.1526   -1.2022    2.0515 C   0  0  0  0  0  0  0  0  0  0  0  0
    4.1582   -1.2819    3.0377 C   0  0  0  0  0  0  0  0  0  0  0  0
    5.0073   -0.4406    0.8591 N   0  0  0  0  0  0  0  0  0  0  0  0
    3.5765   -0.4750   -0.0828 S   0  0  1  0  0  0  0  0  0  0  0  0
    2.8115    1.1128    0.2769 C   0  0  0  0  0  0  0  0  0  0  0  0
    3.9807   -0.4434   -1.4895 O   0  0  0  0  0  0  0  0  0  0  0  0
    2.7041   -1.5252    0.4345 O   0  0  0  0  0  0  0  0  0  0  0  0
    6.2565   -0.0388    0.2177 C   0  0  0  0  0  0  0  0  0  0  0  0
    7.1834   -1.2466    0.1041 C   0  0  1  0  0  0  0  0  0  0  0  0
    8.5110   -0.8626   -0.5593 C   0  0  0  0  0  0  0  0  0  0  0  0
    8.5094   -0.2234   -1.5975 O   0  0  0  0  0  0  0  0  0  0  0  0
    9.6268   -1.2894    0.0869 N   0  0  0  0  0  0  0  0  0  0  0  0
   10.9617   -1.0339   -0.4128 C   0  0  0  0  0  0  0  0  0  0  0  0
   11.6444    0.1139    0.3320 C   0  0  0  0  0  0  0  0  0  0  0  0
   12.9566    0.2255   -0.1785 O   0  0  0  0  0  0  0  0  0  0  0  0
   13.7635    1.2624    0.2024 C   0  0  0  0  0  0  0  0  0  0  0  0
   13.3875    2.1460    1.2236 C   0  0  0  0  0  0  0  0  0  0  0  0
   14.2296    3.1953    1.6042 C   0  0  0  0  0  0  0  0  0  0  0  0
   15.4524    3.3604    0.9637 C   0  0  0  0  0  0  0  0  0  0  0  0
   15.8219    2.4700   -0.0519 C   0  0  0  0  0  0  0  0  0  0  0  0
   15.0110    1.4049   -0.4685 C   0  0  0  0  0  0  0  0  0  0  0  0
   15.4570    0.4452   -1.5951 C   0  0  1  0  0  0  0  0  0  0  0  0
   15.5537   -1.0034   -1.0586 C   0  0  0  0  0  0  0  0  0  0  0  0
   14.4572    0.5145   -2.7749 C   0  0  0  0  0  0  0  0  0  0  0  0
   16.8467    0.8186   -2.1482 C   0  0  0  0  0  0  0  0  0  0  0  0
    7.4252   -1.8148    1.3871 O   0  0  0  0  0  0  0  0  0  0  0  0
    3.5855   -2.5247    6.1882 H   0  0  0  0  0  0  0  0  0  0  0  0
    2.4084   -2.7368    4.8729 H   0  0  0  0  0  0  0  0  0  0  0  0
    2.7942   -1.1081    5.4575 H   0  0  0  0  0  0  0  0  0  0  0  0
    5.7564   -3.1961    5.3495 H   0  0  0  0  0  0  0  0  0  0  0  0
    7.5506   -3.0517    3.6203 H   0  0  0  0  0  0  0  0  0  0  0  0
    3.2020   -0.7891    2.8609 H   0  0  0  0  0  0  0  0  0  0  0  0
    3.4965    1.9126   -0.0328 H   0  0  0  0  0  0  0  0  0  0  0  0
    2.5874    1.1729    1.3495 H   0  0  0  0  0  0  0  0  0  0  0  0
    1.8872    1.1479   -0.3164 H   0  0  0  0  0  0  0  0  0  0  0  0
    6.7427    0.7462    0.8230 H   0  0  0  0  0  0  0  0  0  0  0  0
    6.0649    0.3544   -0.7863 H   0  0  0  0  0  0  0  0  0  0  0  0
    6.6929   -1.9934   -0.5480 H   0  0  0  0  0  0  0  0  0  0  0  0
    9.4912   -1.7864    0.9606 H   0  0  0  0  0  0  0  0  0  0  0  0
   10.8795   -0.7798   -1.4787 H   0  0  0  0  0  0  0  0  0  0  0  0
   11.5746   -1.9453   -0.3220 H   0  0  0  0  0  0  0  0  0  0  0  0
   11.6626   -0.0979    1.4187 H   0  0  0  0  0  0  0  0  0  0  0  0
   11.0790    1.0510    0.1784 H   0  0  0  0  0  0  0  0  0  0  0  0
   12.4338    2.0188    1.7351 H   0  0  0  0  0  0  0  0  0  0  0  0
   13.9181    3.8741    2.4024 H   0  0  0  0  0  0  0  0  0  0  0  0
   16.1234    4.1766    1.2419 H   0  0  0  0  0  0  0  0  0  0  0  0
   16.7860    2.6219   -0.5358 H   0  0  0  0  0  0  0  0  0  0  0  0
   14.5874   -1.3693   -0.6899 H   0  0  0  0  0  0  0  0  0  0  0  0
   16.2804   -1.0649   -0.2319 H   0  0  0  0  0  0  0  0  0  0  0  0
   15.8969   -1.6795   -1.8590 H   0  0  0  0  0  0  0  0  0  0  0  0
   13.4404    0.2455   -2.4640 H   0  0  0  0  0  0  0  0  0  0  0  0
   14.7649   -0.1802   -3.5745 H   0  0  0  0  0  0  0  0  0  0  0  0
   14.4311    1.5296   -3.2023 H   0  0  0  0  0  0  0  0  0  0  0  0
   17.6311    0.7587   -1.3777 H   0  0  0  0  0  0  0  0  0  0  0  0
   16.8650    1.8311   -2.5812 H   0  0  0  0  0  0  0  0  0  0  0  0
   17.1170    0.1149   -2.9511 H   0  0  0  0  0  0  0  0  0  0  0  0
  1  2  1  0
  1 32  1  0
  1 33  1  0
  1 34  1  0
  2  3  2  0
  2  7  1  0
  3  4  1  0
  3 35  1  0
  4  5  2  0
  4 36  1  0
  5  6  1  0
  5 31  1  0
  6  7  2  0
  6  8  1  0
  7 37  1  0
  8  9  1  0
  8 13  1  0
  9 10  1  1
  9 11  2  0
  9 12  2  0
 10 38  1  0
 10 39  1  0
 10 40  1  0
 13 14  1  0
 13 41  1  0
 13 42  1  0
 14 15  1  0
 14 31  1  0
 14 43  1  6
 15 16  2  0
 15 17  1  0
 17 18  1  0
 17 44  1  0
 18 19  1  0
 18 45  1  0
 18 46  1  0
 19 20  1  0
 19 47  1  0
 19 48  1  0
 20 21  1  0
 21 22  2  0
 21 26  1  0
 22 23  1  0
 22 49  1  0
 23 24  2  0
 23 50  1  0
 24 25  1  0
 24 51  1  0
 25 26  2  0
 25 52  1  0
 26 27  1  0
 27 28  1  1
 27 29  1  0
 27 30  1  0
 28 53  1  0
 28 54  1  0
 28 55  1  0
 29 56  1  0
 29 57  1  0
 29 58  1  0
 30 59  1  0
 30 60  1  0
 30 61  1  0
M  END

