
     RDKit          3D

 54 57  0  0  0  0  0  0  0  0999 V2000
    4.2495   -3.0951   -0.2448 O   0  0  0  0  0  0  0  0  0  0  0  0
    3.8629   -1.9363   -0.3379 C   0  0  0  0  0  0  0  0  0  0  0  0
    3.0209   -1.2584    0.7508 C   0  0  2  0  0  0  0  0  0  0  0  0
    2.3111   -0.5889    0.2507 H   0  0  0  0  0  0  0  0  0  0  0  0
    3.8847   -0.3840    1.6559 C   0  0  0  0  0  0  0  0  0  0  0  0
    3.3466    0.7900    2.2094 C   0  0  0  0  0  0  0  0  0  0  0  0
    4.1152    1.6064    3.0425 C   0  0  0  0  0  0  0  0  0  0  0  0
    5.4394    1.2653    3.3341 C   0  0  0  0  0  0  0  0  0  0  0  0
    5.9853    0.1003    2.7891 C   0  0  0  0  0  0  0  0  0  0  0  0
    5.2144   -0.7185    1.9589 C   0  0  0  0  0  0  0  0  0  0  0  0
    2.0388   -2.2198    1.5456 C   0  0  1  0  0  0  0  0  0  0  0  0
    1.0411   -1.2859    1.9882 O   0  0  0  0  0  0  0  0  0  0  0  0
    1.3320   -3.1963    0.5769 C   0  0  0  0  0  0  0  0  0  0  0  0
    1.4051   -4.5931    0.6679 C   0  0  0  0  0  0  0  0  0  0  0  0
    0.7038   -5.4091   -0.2261 C   0  0  0  0  0  0  0  0  0  0  0  0
   -0.0866   -4.8471   -1.2301 C   0  0  0  0  0  0  0  0  0  0  0  0
   -0.1801   -3.4554   -1.3258 C   0  0  0  0  0  0  0  0  0  0  0  0
    0.5158   -2.6431   -0.4288 C   0  0  0  0  0  0  0  0  0  0  0  0
    2.6859   -2.9004    2.7700 C   0  0  0  0  0  0  0  0  0  0  0  0
    2.2071   -2.6145    4.0582 C   0  0  0  0  0  0  0  0  0  0  0  0
    2.7598   -3.2237    5.1897 C   0  0  0  0  0  0  0  0  0  0  0  0
    3.8130   -4.1293    5.0582 C   0  0  0  0  0  0  0  0  0  0  0  0
    4.3122   -4.4099    3.7829 C   0  0  0  0  0  0  0  0  0  0  0  0
    3.7597   -3.8027    2.6524 C   0  0  0  0  0  0  0  0  0  0  0  0
    4.1858   -1.1771   -1.4387 N   0  0  0  0  0  0  0  0  0  0  0  0
    5.0249   -1.7671   -2.4823 C   0  0  0  0  0  0  0  0  0  0  0  0
    4.4394   -1.4521   -3.8558 C   0  0  0  0  0  0  0  0  0  0  0  0
    4.2569   -0.0601   -4.0362 O   0  0  0  0  0  0  0  0  0  0  0  0
    3.4052    0.4871   -3.0545 C   0  0  0  0  0  0  0  0  0  0  0  0
    3.9450    0.2484   -1.6423 C   0  0  0  0  0  0  0  0  0  0  0  0
    2.3083    1.0520    1.9953 H   0  0  0  0  0  0  0  0  0  0  0  0
    3.6771    2.5146    3.4648 H   0  0  0  0  0  0  0  0  0  0  0  0
    6.0429    1.9050    3.9833 H   0  0  0  0  0  0  0  0  0  0  0  0
    7.0186   -0.1778    3.0128 H   0  0  0  0  0  0  0  0  0  0  0  0
    5.6504   -1.6310    1.5473 H   0  0  0  0  0  0  0  0  0  0  0  0
    0.2826   -1.7962    2.3037 H   0  0  0  0  0  0  0  0  0  0  0  0
    2.0127   -5.0579    1.4428 H   0  0  0  0  0  0  0  0  0  0  0  0
    0.7791   -6.4956   -0.1316 H   0  0  0  0  0  0  0  0  0  0  0  0
   -0.6323   -5.4872   -1.9281 H   0  0  0  0  0  0  0  0  0  0  0  0
   -0.8050   -2.9984   -2.0979 H   0  0  0  0  0  0  0  0  0  0  0  0
    0.4052   -1.5589   -0.4959 H   0  0  0  0  0  0  0  0  0  0  0  0
    1.4057   -1.8870    4.1857 H   0  0  0  0  0  0  0  0  0  0  0  0
    2.3648   -2.9787    6.1794 H   0  0  0  0  0  0  0  0  0  0  0  0
    4.2473   -4.6062    5.9409 H   0  0  0  0  0  0  0  0  0  0  0  0
    5.1454   -5.1078    3.6626 H   0  0  0  0  0  0  0  0  0  0  0  0
    4.1682   -4.0117    1.6641 H   0  0  0  0  0  0  0  0  0  0  0  0
    5.0810   -2.8482   -2.3065 H   0  0  0  0  0  0  0  0  0  0  0  0
    6.0473   -1.3489   -2.4138 H   0  0  0  0  0  0  0  0  0  0  0  0
    3.4734   -1.9846   -3.9754 H   0  0  0  0  0  0  0  0  0  0  0  0
    5.1216   -1.7913   -4.6501 H   0  0  0  0  0  0  0  0  0  0  0  0
    2.3887    0.0472   -3.1341 H   0  0  0  0  0  0  0  0  0  0  0  0
    3.3316    1.5671   -3.2546 H   0  0  0  0  0  0  0  0  0  0  0  0
    3.2419    0.6435   -0.9011 H   0  0  0  0  0  0  0  0  0  0  0  0
    4.8954    0.8016   -1.5190 H   0  0  0  0  0  0  0  0  0  0  0  0
  1  2  2  0
  2  3  1  0
  2 25  1  0
  3  4  1  6
  3  5  1  0
  3 11  1  0
  5  6  2  0
  5 10  1  0
  6  7  1  0
  6 31  1  0
  7  8  2  0
  7 32  1  0
  8  9  1  0
  8 33  1  0
  9 10  2  0
  9 34  1  0
 10 35  1  0
 11 12  1  1
 11 13  1  0
 11 19  1  0
 12 36  1  0
 13 14  2  0
 13 18  1  0
 14 15  1  0
 14 37  1  0
 15 16  2  0
 15 38  1  0
 16 17  1  0
 16 39  1  0
 17 18  2  0
 17 40  1  0
 18 41  1  0
 19 20  2  0
 19 24  1  0
 20 21  1  0
 20 42  1  0
 21 22  2  0
 21 43  1  0
 22 23  1  0
 22 44  1  0
 23 24  2  0
 23 45  1  0
 24 46  1  0
 25 26  1  0
 25 30  1  0
 26 27  1  0
 26 47  1  0
 26 48  1  0
 27 28  1  0
 27 49  1  0
 27 50  1  0
 28 29  1  0
 29 30  1  0
 29 51  1  0
 29 52  1  0
 30 53  1  0
 30 54  1  0
M  END

