
     RDKit          3D

 35 37  0  0  0  0  0  0  0  0999 V2000
    0.9360    0.4300    0.5161 C   0  0  0  0  0  0  0  0  0  0  0  0
    2.3739    0.3184    0.2502 N   0  0  0  0  0  0  0  0  0  0  0  0
    3.0072    0.9013   -0.8270 C   0  0  0  0  0  0  0  0  0  0  0  0
    4.2125    0.8200   -1.0128 O   0  0  0  0  0  0  0  0  0  0  0  0
    2.2158    1.6738   -1.8530 C   0  0  0  0  0  0  0  0  0  0  0  0
    2.8628    2.4005   -2.8947 C   0  0  0  0  0  0  0  0  0  0  0  0
    1.8289    2.9066   -3.6377 C   0  0  0  0  0  0  0  0  0  0  0  0
    1.7512    3.7400   -4.8365 C   0  0  0  0  0  0  0  0  0  0  0  0
    2.9261    4.1834   -5.4730 C   0  0  0  0  0  0  0  0  0  0  0  0
    2.8624    4.9780   -6.6152 C   0  0  0  0  0  0  0  0  0  0  0  0
    1.6122    5.3306   -7.1233 C   0  0  0  0  0  0  0  0  0  0  0  0
    1.5465    6.0938   -8.2201 F   0  0  0  0  0  0  0  0  0  0  0  0
    0.4309    4.9074   -6.5166 C   0  0  0  0  0  0  0  0  0  0  0  0
    0.5043    4.1126   -5.3741 C   0  0  0  0  0  0  0  0  0  0  0  0
    0.6612    2.5045   -3.0796 O   0  0  0  0  0  0  0  0  0  0  0  0
    0.9035    1.7357   -1.9697 N   0  0  0  0  0  0  0  0  0  0  0  0
    3.1334   -0.5302    1.1212 C   0  0  0  0  0  0  0  0  0  0  0  0
    4.3634   -0.1184    1.6600 C   0  0  0  0  0  0  0  0  0  0  0  0
    5.0682   -0.9522    2.5277 C   0  0  0  0  0  0  0  0  0  0  0  0
    4.5388   -2.1969    2.8622 C   0  0  0  0  0  0  0  0  0  0  0  0
    5.2162   -2.9953    3.7004 F   0  0  0  0  0  0  0  0  0  0  0  0
    3.3210   -2.6275    2.3447 C   0  0  0  0  0  0  0  0  0  0  0  0
    2.6247   -1.7910    1.4695 C   0  0  0  0  0  0  0  0  0  0  0  0
    0.5843    1.4479    0.3178 H   0  0  0  0  0  0  0  0  0  0  0  0
    0.7651    0.1954    1.5743 H   0  0  0  0  0  0  0  0  0  0  0  0
    0.3354   -0.2517   -0.1070 H   0  0  0  0  0  0  0  0  0  0  0  0
    3.9341    2.4970   -3.0340 H   0  0  0  0  0  0  0  0  0  0  0  0
    3.9027    3.9042   -5.0726 H   0  0  0  0  0  0  0  0  0  0  0  0
    3.7648    5.3286   -7.1191 H   0  0  0  0  0  0  0  0  0  0  0  0
   -0.5281    5.2044   -6.9451 H   0  0  0  0  0  0  0  0  0  0  0  0
   -0.4121    3.7738   -4.8888 H   0  0  0  0  0  0  0  0  0  0  0  0
    4.7744    0.8531    1.3919 H   0  0  0  0  0  0  0  0  0  0  0  0
    6.0253   -0.6453    2.9539 H   0  0  0  0  0  0  0  0  0  0  0  0
    2.9347   -3.6104    2.6210 H   0  0  0  0  0  0  0  0  0  0  0  0
    1.6781   -2.1333    1.0474 H   0  0  0  0  0  0  0  0  0  0  0  0
  1  2  1  0
  1 24  1  0
  1 25  1  0
  1 26  1  0
  2  3  1  0
  2 17  1  0
  3  4  2  0
  3  5  1  0
  5  6  1  0
  5 16  2  0
  6  7  2  0
  6 27  1  0
  7  8  1  0
  7 15  1  0
  8  9  2  0
  8 14  1  0
  9 10  1  0
  9 28  1  0
 10 11  2  0
 10 29  1  0
 11 12  1  0
 11 13  1  0
 13 14  2  0
 13 30  1  0
 14 31  1  0
 15 16  1  0
 17 18  2  0
 17 23  1  0
 18 19  1  0
 18 32  1  0
 19 20  2  0
 19 33  1  0
 20 21  1  0
 20 22  1  0
 22 23  2  0
 22 34  1  0
 23 35  1  0
M  END

