
     RDKit          3D

 45 47  0  0  0  0  0  0  0  0999 V2000
    3.4067   -4.1130    0.8076 C   0  0  0  0  0  0  0  0  0  0  0  0
    2.5280   -2.8866    1.1052 C   0  0  0  0  0  0  0  0  0  0  0  0
    3.2611   -1.7591    1.7806 C   0  0  0  0  0  0  0  0  0  0  0  0
    3.3244   -1.6898    3.5198 S   0  0  0  0  0  0  0  0  0  0  0  0
    4.3247   -0.2623    3.4950 C   0  0  0  0  0  0  0  0  0  0  0  0
    4.8269    0.4571    4.6948 C   0  0  0  0  0  0  0  0  0  0  0  0
    5.4484    1.5098    4.5873 O   0  0  0  0  0  0  0  0  0  0  0  0
    4.5623   -0.1099    5.9075 N   0  0  0  0  0  0  0  0  0  0  0  0
    5.0504    0.4947    7.1362 C   0  0  1  0  0  0  0  0  0  0  0  0
    4.1102    1.5875    7.6636 C   0  0  0  0  0  0  0  0  0  0  0  0
    2.9737    1.2619    8.4200 C   0  0  0  0  0  0  0  0  0  0  0  0
    2.1009    2.2561    8.8660 C   0  0  0  0  0  0  0  0  0  0  0  0
    2.3744    3.5847    8.5453 C   0  0  0  0  0  0  0  0  0  0  0  0
    1.5421    4.5453    8.9759 F   0  0  0  0  0  0  0  0  0  0  0  0
    3.4892    3.9389    7.7897 C   0  0  0  0  0  0  0  0  0  0  0  0
    4.3528    2.9328    7.3481 C   0  0  0  0  0  0  0  0  0  0  0  0
    5.2698   -0.6168    8.1316 C   0  0  0  0  0  0  0  0  0  0  0  0
    4.7226   -1.8124    8.0354 N   0  0  0  0  0  0  0  0  0  0  0  0
    5.1423   -2.5095    9.1399 C   0  0  0  0  0  0  0  0  0  0  0  0
    5.9531   -1.7151    9.9163 C   0  0  0  0  0  0  0  0  0  0  0  0
    6.0280   -0.4981    9.2644 N   0  0  0  0  0  0  0  0  0  0  0  0
    6.8092    0.6550    9.6767 C   0  0  0  0  0  0  0  0  0  0  0  0
    4.5736    0.1236    2.1986 C   0  0  0  0  0  0  0  0  0  0  0  0
    3.9796   -0.7205    1.2116 C   0  0  0  0  0  0  0  0  0  0  0  0
    4.1444   -0.4929   -0.2680 C   0  0  0  0  0  0  0  0  0  0  0  0
    2.8191   -4.9073    0.3197 H   0  0  0  0  0  0  0  0  0  0  0  0
    3.8352   -4.5252    1.7346 H   0  0  0  0  0  0  0  0  0  0  0  0
    4.2441   -3.8508    0.1419 H   0  0  0  0  0  0  0  0  0  0  0  0
    1.6723   -3.1938    1.7293 H   0  0  0  0  0  0  0  0  0  0  0  0
    2.0934   -2.5094    0.1642 H   0  0  0  0  0  0  0  0  0  0  0  0
    4.1764   -1.0468    6.0060 H   0  0  0  0  0  0  0  0  0  0  0  0
    6.0107    0.9817    6.8980 H   0  0  0  0  0  0  0  0  0  0  0  0
    2.7663    0.2161    8.6609 H   0  0  0  0  0  0  0  0  0  0  0  0
    1.2138    2.0188    9.4567 H   0  0  0  0  0  0  0  0  0  0  0  0
    3.6636    4.9898    7.5505 H   0  0  0  0  0  0  0  0  0  0  0  0
    5.2122    3.1882    6.7243 H   0  0  0  0  0  0  0  0  0  0  0  0
    4.8406   -3.5402    9.3209 H   0  0  0  0  0  0  0  0  0  0  0  0
    6.4762   -1.8970   10.8520 H   0  0  0  0  0  0  0  0  0  0  0  0
    7.1099    0.5299   10.7253 H   0  0  0  0  0  0  0  0  0  0  0  0
    6.2112    1.5736    9.5929 H   0  0  0  0  0  0  0  0  0  0  0  0
    7.7171    0.7650    9.0615 H   0  0  0  0  0  0  0  0  0  0  0  0
    5.1740    1.0079    1.9793 H   0  0  0  0  0  0  0  0  0  0  0  0
    4.0910    0.5802   -0.5095 H   0  0  0  0  0  0  0  0  0  0  0  0
    3.3708   -1.0080   -0.8561 H   0  0  0  0  0  0  0  0  0  0  0  0
    5.1238   -0.8559   -0.6252 H   0  0  0  0  0  0  0  0  0  0  0  0
  1  2  1  0
  1 26  1  0
  1 27  1  0
  1 28  1  0
  2  3  1  0
  2 29  1  0
  2 30  1  0
  3  4  2  0
  3 24  1  0
  4  5  1  0
  5  6  2  0
  5 23  1  0
  6  7  1  0
  6  8  1  0
  8  9  1  0
  8 31  1  0
  9 10  1  0
  9 17  1  0
  9 32  1  6
 10 11  2  0
 10 16  1  0
 11 12  1  0
 11 33  1  0
 12 13  2  0
 12 34  1  0
 13 14  1  0
 13 15  1  0
 15 16  2  0
 15 35  1  0
 16 36  1  0
 17 18  2  0
 17 21  1  0
 18 19  1  0
 19 20  2  0
 19 37  1  0
 20 21  1  0
 20 38  1  0
 21 22  1  0
 22 39  1  0
 22 40  1  0
 22 41  1  0
 23 24  2  0
 23 42  1  0
 24 25  1  0
 25 43  1  0
 25 44  1  0
 25 45  1  0
M  CHG  2   4   1   7  -1
M  END

