
     RDKit          3D

 36 38  0  0  0  0  0  0  0  0999 V2000
    4.8782   -2.6756    1.3300 C   0  0  0  0  0  0  0  0  0  0  0  0
    4.2054   -1.4749    0.7140 C   0  0  0  0  0  0  0  0  0  0  0  0
    4.7391   -0.1956    1.0313 C   0  0  0  0  0  0  0  0  0  0  0  0
    5.8075   -0.0909    1.9110 N   0  0  0  0  0  0  0  0  0  0  0  0
    4.1562    0.9673    0.4976 C   0  0  0  0  0  0  0  0  0  0  0  0
    3.0538    0.8843   -0.3491 C   0  0  0  0  0  0  0  0  0  0  0  0
    2.5191   -0.3553   -0.6804 C   0  0  0  0  0  0  0  0  0  0  0  0
    3.0871   -1.5358   -0.1535 C   0  0  0  0  0  0  0  0  0  0  0  0
    2.4561   -2.8026   -0.5585 C   0  0  0  0  0  0  0  0  0  0  0  0
    2.6299   -4.0302   -0.1462 N   0  0  0  0  0  0  0  0  0  0  0  0
    1.7358   -4.7528   -0.8944 C   0  0  0  0  0  0  0  0  0  0  0  0
    1.6328   -6.2681   -0.8207 C   0  0  1  0  0  0  0  0  0  0  0  0
    1.7523   -6.7434    0.6251 C   0  0  0  0  0  0  0  0  0  0  0  0
    0.3690   -6.8127   -1.5554 C   0  0  0  0  0  0  0  0  0  0  0  0
    0.9386   -7.8053   -2.5831 C   0  0  0  0  0  0  0  0  0  0  0  0
    2.3342   -7.2325   -2.8226 C   0  0  0  0  0  0  0  0  0  0  0  0
    2.7615   -6.7992   -1.5410 O   0  0  0  0  0  0  0  0  0  0  0  0
    1.0360   -4.0220   -1.7257 N   0  0  0  0  0  0  0  0  0  0  0  0
    1.5046   -2.7372   -1.5152 O   0  0  0  0  0  0  0  0  0  0  0  0
    4.9016   -2.5783    2.4298 H   0  0  0  0  0  0  0  0  0  0  0  0
    5.9299   -2.7515    0.9940 H   0  0  0  0  0  0  0  0  0  0  0  0
    4.3753   -3.6119    1.0752 H   0  0  0  0  0  0  0  0  0  0  0  0
    6.4257   -0.8887    1.9890 H   0  0  0  0  0  0  0  0  0  0  0  0
    6.2968    0.7960    1.9168 H   0  0  0  0  0  0  0  0  0  0  0  0
    4.5784    1.9427    0.7566 H   0  0  0  0  0  0  0  0  0  0  0  0
    2.6109    1.7967   -0.7555 H   0  0  0  0  0  0  0  0  0  0  0  0
    1.6585   -0.4243   -1.3444 H   0  0  0  0  0  0  0  0  0  0  0  0
    0.9472   -6.3224    1.2470 H   0  0  0  0  0  0  0  0  0  0  0  0
    2.7180   -6.4319    1.0460 H   0  0  0  0  0  0  0  0  0  0  0  0
    1.6896   -7.8414    0.6542 H   0  0  0  0  0  0  0  0  0  0  0  0
   -0.1640   -5.9956   -2.0586 H   0  0  0  0  0  0  0  0  0  0  0  0
   -0.3290   -7.2835   -0.8483 H   0  0  0  0  0  0  0  0  0  0  0  0
    0.3320   -7.8713   -3.4990 H   0  0  0  0  0  0  0  0  0  0  0  0
    1.0195   -8.8171   -2.1537 H   0  0  0  0  0  0  0  0  0  0  0  0
    2.2958   -6.3855   -3.5374 H   0  0  0  0  0  0  0  0  0  0  0  0
    3.0680   -7.9641   -3.1943 H   0  0  0  0  0  0  0  0  0  0  0  0
  1  2  1  0
  1 20  1  0
  1 21  1  0
  1 22  1  0
  2  3  2  0
  2  8  1  0
  3  4  1  0
  3  5  1  0
  4 23  1  0
  4 24  1  0
  5  6  2  0
  5 25  1  0
  6  7  1  0
  6 26  1  0
  7  8  2  0
  7 27  1  0
  8  9  1  0
  9 10  2  0
  9 19  1  0
 10 11  1  0
 11 12  1  0
 11 18  2  0
 12 13  1  1
 12 14  1  0
 12 17  1  0
 13 28  1  0
 13 29  1  0
 13 30  1  0
 14 15  1  0
 14 31  1  0
 14 32  1  0
 15 16  1  0
 15 33  1  0
 15 34  1  0
 16 17  1  0
 16 35  1  0
 16 36  1  0
 18 19  1  0
M  END

