
     RDKit          3D

 35 36  0  0  0  0  0  0  0  0999 V2000
    2.1350    1.3043    0.7733 C   0  0  0  0  0  0  0  0  0  0  0  0
    2.5250    0.1904   -0.0042 O   0  0  0  0  0  0  0  0  0  0  0  0
    3.0408    0.3798   -1.2593 C   0  0  0  0  0  0  0  0  0  0  0  0
    3.2348    1.6444   -1.8239 C   0  0  0  0  0  0  0  0  0  0  0  0
    3.7737    1.8048   -3.1127 C   0  0  0  0  0  0  0  0  0  0  0  0
    3.9742    3.1753   -3.7036 C   0  0  0  0  0  0  0  0  0  0  0  0
    4.1177    0.6393   -3.8093 C   0  0  0  0  0  0  0  0  0  0  0  0
    4.8070    0.7513   -5.4203 Cl  0  0  0  0  0  0  0  0  0  0  0  0
    3.9315   -0.6281   -3.2474 C   0  0  0  0  0  0  0  0  0  0  0  0
    3.3861   -0.7912   -1.9732 C   0  0  0  0  0  0  0  0  0  0  0  0
    3.1593   -2.1792   -1.3850 C   0  0  1  0  0  0  0  0  0  0  0  0
    3.7150   -2.3137   -0.0898 O   0  0  0  0  0  0  0  0  0  0  0  0
    1.6567   -2.5780   -1.3620 C   0  0  0  0  0  0  0  0  0  0  0  0
    0.9673   -2.7337   -2.6268 N   0  0  0  0  0  0  0  0  0  0  0  0
    1.2140   -3.9273   -3.3807 C   0  0  1  0  0  0  0  0  0  0  0  0
    0.8457   -3.9956   -4.8311 C   0  0  0  0  0  0  0  0  0  0  0  0
    2.3036   -4.0938   -4.4297 C   0  0  0  0  0  0  0  0  0  0  0  0
    1.7467    0.9037    1.7190 H   0  0  0  0  0  0  0  0  0  0  0  0
    1.3395    1.8867    0.2769 H   0  0  0  0  0  0  0  0  0  0  0  0
    2.9884    1.9709    0.9884 H   0  0  0  0  0  0  0  0  0  0  0  0
    2.9691    2.5422   -1.2657 H   0  0  0  0  0  0  0  0  0  0  0  0
    3.6414    3.9608   -3.0103 H   0  0  0  0  0  0  0  0  0  0  0  0
    3.4175    3.2860   -4.6484 H   0  0  0  0  0  0  0  0  0  0  0  0
    5.0349    3.3518   -3.9457 H   0  0  0  0  0  0  0  0  0  0  0  0
    4.2338   -1.5067   -3.8198 H   0  0  0  0  0  0  0  0  0  0  0  0
    3.6947   -2.9043   -2.0174 H   0  0  0  0  0  0  0  0  0  0  0  0
    3.3223   -1.6108    0.4489 H   0  0  0  0  0  0  0  0  0  0  0  0
    1.1181   -1.8349   -0.7487 H   0  0  0  0  0  0  0  0  0  0  0  0
    1.6031   -3.5334   -0.8139 H   0  0  0  0  0  0  0  0  0  0  0  0
    0.9917   -1.8925   -3.1982 H   0  0  0  0  0  0  0  0  0  0  0  0
    0.9953   -4.8266   -2.7913 H   0  0  0  0  0  0  0  0  0  0  0  0
    0.5169   -3.0679   -5.3120 H   0  0  0  0  0  0  0  0  0  0  0  0
    0.3350   -4.8877   -5.2050 H   0  0  0  0  0  0  0  0  0  0  0  0
    2.9355   -3.2298   -4.6528 H   0  0  0  0  0  0  0  0  0  0  0  0
    2.8111   -5.0596   -4.5211 H   0  0  0  0  0  0  0  0  0  0  0  0
  1  2  1  0
  1 18  1  0
  1 19  1  0
  1 20  1  0
  2  3  1  0
  3  4  2  0
  3 10  1  0
  4  5  1  0
  4 21  1  0
  5  6  1  0
  5  7  2  0
  6 22  1  0
  6 23  1  0
  6 24  1  0
  7  8  1  0
  7  9  1  0
  9 10  2  0
  9 25  1  0
 10 11  1  0
 11 12  1  0
 11 13  1  0
 11 26  1  6
 12 27  1  0
 13 14  1  0
 13 28  1  0
 13 29  1  0
 14 15  1  0
 14 30  1  0
 15 16  1  0
 15 17  1  0
 15 31  1  1
 16 17  1  0
 16 32  1  0
 16 33  1  0
 17 34  1  0
 17 35  1  0
M  END

