
     RDKit          3D

224248  0  0  0  0  0  0  0  0999 V2000
   10.3203   -0.0496    1.1678 C   0  0  0  0  0  0  0  0  0  0  0  0
    9.1860   -0.1414    0.1451 C   0  0  0  0  0  0  0  0  0  0  0  0
    8.9355   -1.5526   -0.4086 C   0  0  0  0  0  0  0  0  0  0  0  0
    8.4459   -2.5995    0.6048 C   0  0  0  0  0  0  0  0  0  0  0  0
    7.0521   -2.3158    1.1766 C   0  0  0  0  0  0  0  0  0  0  0  0
    6.4628   -3.4153    2.0738 C   0  0  0  0  0  0  0  0  0  0  0  0
    7.0830   -3.5489    3.3908 N   0  0  0  0  0  0  0  0  0  0  0  0
    6.7951   -2.7788    4.5155 C   0  0  0  0  0  0  0  0  0  0  0  0
    7.6906   -3.0975    5.5341 C   0  0  0  0  0  0  0  0  0  0  0  0
    8.6010   -4.0854    5.0026 C   0  0  0  0  0  0  0  0  0  0  0  0
    9.7572   -4.7242    5.4911 C   0  0  0  0  0  0  0  0  0  0  0  0
   10.4506   -5.6388    4.6886 C   0  0  0  0  0  0  0  0  0  0  0  0
   11.6573   -6.3441    5.2125 C   0  0  0  0  0  0  0  0  0  0  0  0
   11.5396   -7.0989    6.3922 C   0  0  0  0  0  0  0  0  0  0  0  0
   12.6102   -7.8116    6.9244 C   0  0  0  0  0  0  0  0  0  0  0  0
   13.8640   -7.8048    6.2910 C   0  0  0  0  0  0  0  0  0  0  0  0
   14.9854   -8.5454    6.8037 C   0  0  0  0  0  0  0  0  0  0  0  0
   16.1952   -8.5267    6.1749 C   0  0  0  0  0  0  0  0  0  0  0  0
   16.3975   -7.7599    4.9744 C   0  0  0  0  0  0  0  0  0  0  0  0
   17.6376   -7.7231    4.3105 C   0  0  0  0  0  0  0  0  0  0  0  0
   17.8059   -6.9663    3.1498 C   0  0  0  0  0  0  0  0  0  0  0  0
   16.7435   -6.2284    2.6265 C   0  0  0  0  0  0  0  0  0  0  0  0
   15.4847   -6.2352    3.2554 C   0  0  0  0  0  0  0  0  0  0  0  0
   14.3704   -5.4773    2.7566 C   0  0  0  0  0  0  0  0  0  0  0  0
   13.1546   -5.5012    3.3766 C   0  0  0  0  0  0  0  0  0  0  0  0
   12.9195   -6.2942    4.5576 C   0  0  0  0  0  0  0  0  0  0  0  0
   14.0243   -7.0359    5.0952 C   0  0  0  0  0  0  0  0  0  0  0  0
   15.2989   -7.0105    4.4426 C   0  0  0  0  0  0  0  0  0  0  0  0
    9.9624   -5.9226    3.3857 C   0  0  0  0  0  0  0  0  0  0  0  0
    8.8397   -5.2884    2.8666 C   0  0  0  0  0  0  0  0  0  0  0  0
    8.1736   -4.3520    3.6711 C   0  0  0  0  0  0  0  0  0  0  0  0
    7.6867   -2.4670    6.8611 C   0  0  0  0  0  0  0  0  0  0  0  0
    7.8748   -1.1195    7.1426 C   0  0  0  0  0  0  0  0  0  0  0  0
    7.7751   -0.9669    8.5751 C   0  0  0  0  0  0  0  0  0  0  0  0
    7.8535    0.1333    9.4481 C   0  0  0  0  0  0  0  0  0  0  0  0
    7.6993   -0.0461   10.8296 C   0  0  0  0  0  0  0  0  0  0  0  0
    7.8870    1.1067   11.7580 C   0  0  0  0  0  0  0  0  0  0  0  0
    9.0509    1.8854   11.6219 C   0  0  0  0  0  0  0  0  0  0  0  0
    9.3310    2.9546   12.4661 C   0  0  0  0  0  0  0  0  0  0  0  0
    8.4508    3.3001   13.5048 C   0  0  0  0  0  0  0  0  0  0  0  0
    8.7228    4.3849   14.4089 C   0  0  0  0  0  0  0  0  0  0  0  0
    7.8557    4.7080   15.4103 C   0  0  0  0  0  0  0  0  0  0  0  0
    6.6301    3.9780   15.5962 C   0  0  0  0  0  0  0  0  0  0  0  0
    5.7179    4.2976   16.6187 C   0  0  0  0  0  0  0  0  0  0  0  0
    4.5324    3.5769   16.7717 C   0  0  0  0  0  0  0  0  0  0  0  0
    4.2292    2.5238   15.9080 C   0  0  0  0  0  0  0  0  0  0  0  0
    5.1120    2.1666   14.8719 C   0  0  0  0  0  0  0  0  0  0  0  0
    4.8287    1.1006   13.9521 C   0  0  0  0  0  0  0  0  0  0  0  0
    5.7016    0.7621   12.9592 C   0  0  0  0  0  0  0  0  0  0  0  0
    6.9567    1.4489   12.7806 C   0  0  0  0  0  0  0  0  0  0  0  0
    7.2471    2.5434   13.6633 C   0  0  0  0  0  0  0  0  0  0  0  0
    6.3322    2.8942   14.7082 C   0  0  0  0  0  0  0  0  0  0  0  0
    7.4399   -1.3520   11.3227 C   0  0  0  0  0  0  0  0  0  0  0  0
    7.3381   -2.4548   10.4801 C   0  0  0  0  0  0  0  0  0  0  0  0
    7.5213   -2.2636    9.1024 C   0  0  0  0  0  0  0  0  0  0  0  0
    7.4760   -3.1675    8.0520 N   0  0  0  0  0  0  0  0  0  0  0  0
    6.9309   -4.5242    8.1474 C   0  0  0  0  0  0  0  0  0  0  0  0
    7.9134   -5.6581    8.4722 C   0  0  0  0  0  0  0  0  0  0  0  0
    8.5569   -5.6375    9.8614 C   0  0  0  0  0  0  0  0  0  0  0  0
    9.4942   -6.8232   10.1124 C   0  0  0  0  0  0  0  0  0  0  0  0
   10.1161   -6.8342   11.5125 C   0  0  0  0  0  0  0  0  0  0  0  0
   11.0610   -8.0125   11.7521 C   0  0  0  0  0  0  0  0  0  0  0  0
    8.0230   -0.0650    6.1333 C   0  0  0  0  0  0  0  0  0  0  0  0
    7.1187    0.2775    5.1281 C   0  0  0  0  0  0  0  0  0  0  0  0
    7.6675    1.4283    4.4480 C   0  0  0  0  0  0  0  0  0  0  0  0
    7.2373    2.2253    3.3703 C   0  0  0  0  0  0  0  0  0  0  0  0
    7.9939    3.3314    2.9663 C   0  0  0  0  0  0  0  0  0  0  0  0
    7.5398    4.1735    1.8206 C   0  0  0  0  0  0  0  0  0  0  0  0
    7.3064    3.5582    0.5786 C   0  0  0  0  0  0  0  0  0  0  0  0
    6.9083    4.2832   -0.5409 C   0  0  0  0  0  0  0  0  0  0  0  0
    6.7227    5.6737   -0.4690 C   0  0  0  0  0  0  0  0  0  0  0  0
    6.3311    6.4546   -1.6118 C   0  0  0  0  0  0  0  0  0  0  0  0
    6.1496    7.8030   -1.5213 C   0  0  0  0  0  0  0  0  0  0  0  0
    6.3366    8.4967   -0.2747 C   0  0  0  0  0  0  0  0  0  0  0  0
    6.1476    9.8859   -0.1559 C   0  0  0  0  0  0  0  0  0  0  0  0
    6.3289   10.5309    1.0687 C   0  0  0  0  0  0  0  0  0  0  0  0
    6.7002    9.8057    2.2016 C   0  0  0  0  0  0  0  0  0  0  0  0
    6.9027    8.4149    2.1309 C   0  0  0  0  0  0  0  0  0  0  0  0
    7.2698    7.6306    3.2774 C   0  0  0  0  0  0  0  0  0  0  0  0
    7.4706    6.2839    3.1873 C   0  0  0  0  0  0  0  0  0  0  0  0
    7.3308    5.5763    1.9388 C   0  0  0  0  0  0  0  0  0  0  0  0
    6.9296    6.3298    0.7854 C   0  0  0  0  0  0  0  0  0  0  0  0
    6.7248    7.7440    0.8804 C   0  0  0  0  0  0  0  0  0  0  0  0
    9.2145    3.6138    3.6361 C   0  0  0  0  0  0  0  0  0  0  0  0
    9.6773    2.8290    4.6873 C   0  0  0  0  0  0  0  0  0  0  0  0
    8.8963    1.7377    5.0959 C   0  0  0  0  0  0  0  0  0  0  0  0
    9.0980    0.8171    6.1092 N   0  0  0  0  0  0  0  0  0  0  0  0
   10.3035    0.7102    6.9277 C   0  0  0  0  0  0  0  0  0  0  0  0
   11.3763   -0.2529    6.3989 C   0  0  0  0  0  0  0  0  0  0  0  0
   12.0946    0.1850    5.1198 C   0  0  0  0  0  0  0  0  0  0  0  0
   13.2304   -0.7583    4.7112 C   0  0  0  0  0  0  0  0  0  0  0  0
   13.9733   -0.3169    3.4461 C   0  0  0  0  0  0  0  0  0  0  0  0
   15.1354   -1.2362    3.0681 C   0  0  0  0  0  0  0  0  0  0  0  0
    5.8708   -0.4346    4.8308 C   0  0  0  0  0  0  0  0  0  0  0  0
    5.7099   -1.7922    4.5494 C   0  0  0  0  0  0  0  0  0  0  0  0
    4.3100   -2.0025    4.2735 C   0  0  0  0  0  0  0  0  0  0  0  0
    3.5351   -3.1357    3.9647 C   0  0  0  0  0  0  0  0  0  0  0  0
    2.1677   -3.0023    3.6968 C   0  0  0  0  0  0  0  0  0  0  0  0
    1.3412   -4.2112    3.4105 C   0  0  0  0  0  0  0  0  0  0  0  0
    1.3313   -5.2567    4.3503 C   0  0  0  0  0  0  0  0  0  0  0  0
    0.5628   -6.4029    4.1707 C   0  0  0  0  0  0  0  0  0  0  0  0
   -0.2410   -6.5584    3.0291 C   0  0  0  0  0  0  0  0  0  0  0  0
   -1.0622   -7.7212    2.8228 C   0  0  0  0  0  0  0  0  0  0  0  0
   -1.8315   -7.8573    1.7051 C   0  0  0  0  0  0  0  0  0  0  0  0
   -1.8459   -6.8438    0.6841 C   0  0  0  0  0  0  0  0  0  0  0  0
   -2.6260   -6.9660   -0.4805 C   0  0  0  0  0  0  0  0  0  0  0  0
   -2.6140   -5.9696   -1.4580 C   0  0  0  0  0  0  0  0  0  0  0  0
   -1.8234   -4.8311   -1.2975 C   0  0  0  0  0  0  0  0  0  0  0  0
   -1.0282   -4.6638   -0.1486 C   0  0  0  0  0  0  0  0  0  0  0  0
   -0.1888   -3.5141    0.0467 C   0  0  0  0  0  0  0  0  0  0  0  0
    0.5685   -3.3651    1.1720 C   0  0  0  0  0  0  0  0  0  0  0  0
    0.5639   -4.3482    2.2267 C   0  0  0  0  0  0  0  0  0  0  0  0
   -0.2378   -5.5237    2.0411 C   0  0  0  0  0  0  0  0  0  0  0  0
   -1.0362   -5.6758    0.8620 C   0  0  0  0  0  0  0  0  0  0  0  0
    1.5773   -1.7122    3.7542 C   0  0  0  0  0  0  0  0  0  0  0  0
    2.3132   -0.5790    4.0867 C   0  0  0  0  0  0  0  0  0  0  0  0
    3.6812   -0.7299    4.3620 C   0  0  0  0  0  0  0  0  0  0  0  0
    4.6356    0.2046    4.7240 N   0  0  0  0  0  0  0  0  0  0  0  0
    4.3437    1.5909    5.0864 C   0  0  0  0  0  0  0  0  0  0  0  0
    3.3751    1.7654    6.2654 C   0  0  0  0  0  0  0  0  0  0  0  0
    3.7857    1.0718    7.5657 C   0  0  0  0  0  0  0  0  0  0  0  0
    2.7530    1.2765    8.6808 C   0  0  0  0  0  0  0  0  0  0  0  0
    3.0913    0.6027   10.0169 C   0  0  0  0  0  0  0  0  0  0  0  0
    3.1096   -0.9277    9.9772 C   0  0  0  0  0  0  0  0  0  0  0  0
   10.4754    0.9897    1.4971 H   0  0  0  0  0  0  0  0  0  0  0  0
   11.2710   -0.4127    0.7410 H   0  0  0  0  0  0  0  0  0  0  0  0
   10.1122   -0.6473    2.0695 H   0  0  0  0  0  0  0  0  0  0  0  0
    9.4119    0.5283   -0.7030 H   0  0  0  0  0  0  0  0  0  0  0  0
    8.2582    0.2535    0.5951 H   0  0  0  0  0  0  0  0  0  0  0  0
    9.8696   -1.9211   -0.8700 H   0  0  0  0  0  0  0  0  0  0  0  0
    8.2002   -1.4876   -1.2316 H   0  0  0  0  0  0  0  0  0  0  0  0
    9.1756   -2.7006    1.4254 H   0  0  0  0  0  0  0  0  0  0  0  0
    8.4268   -3.5825    0.1008 H   0  0  0  0  0  0  0  0  0  0  0  0
    6.3446   -2.1767    0.3387 H   0  0  0  0  0  0  0  0  0  0  0  0
    7.0453   -1.3684    1.7405 H   0  0  0  0  0  0  0  0  0  0  0  0
    6.5322   -4.3946    1.5746 H   0  0  0  0  0  0  0  0  0  0  0  0
    5.3949   -3.2181    2.2218 H   0  0  0  0  0  0  0  0  0  0  0  0
   10.1377   -4.4828    6.4860 H   0  0  0  0  0  0  0  0  0  0  0  0
   10.5668   -7.1471    6.8858 H   0  0  0  0  0  0  0  0  0  0  0  0
   12.4746   -8.3987    7.8369 H   0  0  0  0  0  0  0  0  0  0  0  0
   14.8454   -9.1302    7.7170 H   0  0  0  0  0  0  0  0  0  0  0  0
   17.0375   -9.0965    6.5765 H   0  0  0  0  0  0  0  0  0  0  0  0
   18.4743   -8.2974    4.7172 H   0  0  0  0  0  0  0  0  0  0  0  0
   18.7772   -6.9502    2.6487 H   0  0  0  0  0  0  0  0  0  0  0  0
   16.8813   -5.6336    1.7196 H   0  0  0  0  0  0  0  0  0  0  0  0
   14.5165   -4.8661    1.8616 H   0  0  0  0  0  0  0  0  0  0  0  0
   12.3351   -4.9022    2.9788 H   0  0  0  0  0  0  0  0  0  0  0  0
   10.4824   -6.6653    2.7768 H   0  0  0  0  0  0  0  0  0  0  0  0
    8.4996   -5.5179    1.8559 H   0  0  0  0  0  0  0  0  0  0  0  0
    8.0189    1.1373    9.0502 H   0  0  0  0  0  0  0  0  0  0  0  0
    9.7698    1.6169   10.8446 H   0  0  0  0  0  0  0  0  0  0  0  0
   10.2543    3.5256   12.3358 H   0  0  0  0  0  0  0  0  0  0  0  0
    9.6494    4.9499   14.2750 H   0  0  0  0  0  0  0  0  0  0  0  0
    8.0776    5.5345   16.0909 H   0  0  0  0  0  0  0  0  0  0  0  0
    5.9490    5.1238   17.2964 H   0  0  0  0  0  0  0  0  0  0  0  0
    3.8361    3.8409   17.5718 H   0  0  0  0  0  0  0  0  0  0  0  0
    3.2972    1.9649   16.0281 H   0  0  0  0  0  0  0  0  0  0  0  0
    3.8826    0.5622   14.0550 H   0  0  0  0  0  0  0  0  0  0  0  0
    5.4426   -0.0409   12.2699 H   0  0  0  0  0  0  0  0  0  0  0  0
    7.3455   -1.5030   12.3998 H   0  0  0  0  0  0  0  0  0  0  0  0
    7.1423   -3.4413   10.8988 H   0  0  0  0  0  0  0  0  0  0  0  0
    6.4539   -4.7386    7.1802 H   0  0  0  0  0  0  0  0  0  0  0  0
    6.1254   -4.5002    8.9007 H   0  0  0  0  0  0  0  0  0  0  0  0
    8.6959   -5.6833    7.6991 H   0  0  0  0  0  0  0  0  0  0  0  0
    7.3475   -6.6001    8.3538 H   0  0  0  0  0  0  0  0  0  0  0  0
    7.7650   -5.6378   10.6335 H   0  0  0  0  0  0  0  0  0  0  0  0
    9.1195   -4.6982   10.0004 H   0  0  0  0  0  0  0  0  0  0  0  0
   10.3020   -6.8138    9.3579 H   0  0  0  0  0  0  0  0  0  0  0  0
    8.9424   -7.7684    9.9508 H   0  0  0  0  0  0  0  0  0  0  0  0
    9.3092   -6.8489   12.2680 H   0  0  0  0  0  0  0  0  0  0  0  0
   10.6601   -5.8860   11.6746 H   0  0  0  0  0  0  0  0  0  0  0  0
   10.5390   -8.9769   11.6322 H   0  0  0  0  0  0  0  0  0  0  0  0
   11.4877   -7.9900   12.7675 H   0  0  0  0  0  0  0  0  0  0  0  0
   11.9023   -8.0025   11.0387 H   0  0  0  0  0  0  0  0  0  0  0  0
    6.3001    1.9974    2.8578 H   0  0  0  0  0  0  0  0  0  0  0  0
    7.4717    2.4826    0.4895 H   0  0  0  0  0  0  0  0  0  0  0  0
    6.7507    3.7714   -1.4941 H   0  0  0  0  0  0  0  0  0  0  0  0
    6.1810    5.9387   -2.5642 H   0  0  0  0  0  0  0  0  0  0  0  0
    5.8533    8.3827   -2.3998 H   0  0  0  0  0  0  0  0  0  0  0  0
    5.8536   10.4588   -1.0395 H   0  0  0  0  0  0  0  0  0  0  0  0
    6.1765   11.6108    1.1410 H   0  0  0  0  0  0  0  0  0  0  0  0
    6.8363   10.3144    3.1598 H   0  0  0  0  0  0  0  0  0  0  0  0
    7.3790    8.1372    4.2404 H   0  0  0  0  0  0  0  0  0  0  0  0
    7.7333    5.7182    4.0816 H   0  0  0  0  0  0  0  0  0  0  0  0
    9.8168    4.4609    3.3012 H   0  0  0  0  0  0  0  0  0  0  0  0
   10.6287    3.0628    5.1674 H   0  0  0  0  0  0  0  0  0  0  0  0
   10.0003    0.3866    7.9313 H   0  0  0  0  0  0  0  0  0  0  0  0
   10.7202    1.7240    7.0358 H   0  0  0  0  0  0  0  0  0  0  0  0
   10.9214   -1.2481    6.2563 H   0  0  0  0  0  0  0  0  0  0  0  0
   12.1203   -0.3727    7.2074 H   0  0  0  0  0  0  0  0  0  0  0  0
   12.5066    1.2014    5.2634 H   0  0  0  0  0  0  0  0  0  0  0  0
   11.3696    0.2669    4.2917 H   0  0  0  0  0  0  0  0  0  0  0  0
   12.8275   -1.7772    4.5630 H   0  0  0  0  0  0  0  0  0  0  0  0
   13.9520   -0.8423    5.5456 H   0  0  0  0  0  0  0  0  0  0  0  0
   14.3493    0.7131    3.5874 H   0  0  0  0  0  0  0  0  0  0  0  0
   13.2565   -0.2602    2.6072 H   0  0  0  0  0  0  0  0  0  0  0  0
   15.8953   -1.2709    3.8669 H   0  0  0  0  0  0  0  0  0  0  0  0
   15.6370   -0.8972    2.1473 H   0  0  0  0  0  0  0  0  0  0  0  0
   14.7914   -2.2705    2.9026 H   0  0  0  0  0  0  0  0  0  0  0  0
    3.9994   -4.1241    3.9217 H   0  0  0  0  0  0  0  0  0  0  0  0
    1.9274   -5.1465    5.2594 H   0  0  0  0  0  0  0  0  0  0  0  0
    0.5693   -7.1890    4.9307 H   0  0  0  0  0  0  0  0  0  0  0  0
   -1.0567   -8.5011    3.5892 H   0  0  0  0  0  0  0  0  0  0  0  0
   -2.4516   -8.7468    1.5641 H   0  0  0  0  0  0  0  0  0  0  0  0
   -3.2452   -7.8573   -0.6132 H   0  0  0  0  0  0  0  0  0  0  0  0
   -3.2266   -6.0832   -2.3561 H   0  0  0  0  0  0  0  0  0  0  0  0
   -1.8138   -4.0554   -2.0679 H   0  0  0  0  0  0  0  0  0  0  0  0
   -0.1601   -2.7523   -0.7375 H   0  0  0  0  0  0  0  0  0  0  0  0
    1.2057   -2.4869    1.2798 H   0  0  0  0  0  0  0  0  0  0  0  0
    0.5081   -1.6108    3.5568 H   0  0  0  0  0  0  0  0  0  0  0  0
    1.8248    0.3953    4.1288 H   0  0  0  0  0  0  0  0  0  0  0  0
    3.9415    2.1133    4.2010 H   0  0  0  0  0  0  0  0  0  0  0  0
    5.3019    2.0664    5.3267 H   0  0  0  0  0  0  0  0  0  0  0  0
    2.3667    1.4235    5.9817 H   0  0  0  0  0  0  0  0  0  0  0  0
    3.2814    2.8531    6.4356 H   0  0  0  0  0  0  0  0  0  0  0  0
    4.7709    1.4470    7.8978 H   0  0  0  0  0  0  0  0  0  0  0  0
    3.9213   -0.0055    7.3730 H   0  0  0  0  0  0  0  0  0  0  0  0
    1.7690    0.9112    8.3302 H   0  0  0  0  0  0  0  0  0  0  0  0
    2.6254    2.3608    8.8523 H   0  0  0  0  0  0  0  0  0  0  0  0
    2.3546    0.9335   10.7700 H   0  0  0  0  0  0  0  0  0  0  0  0
    4.0681    0.9741   10.3731 H   0  0  0  0  0  0  0  0  0  0  0  0
    2.1449   -1.3301    9.6231 H   0  0  0  0  0  0  0  0  0  0  0  0
    3.2956   -1.3495   10.9783 H   0  0  0  0  0  0  0  0  0  0  0  0
    3.8969   -1.3152    9.3114 H   0  0  0  0  0  0  0  0  0  0  0  0
  1  2  1  0
  1125  1  0
  1126  1  0
  1127  1  0
  2  3  1  0
  2128  1  0
  2129  1  0
  3  4  1  0
  3130  1  0
  3131  1  0
  4  5  1  0
  4132  1  0
  4133  1  0
  5  6  1  0
  5134  1  0
  5135  1  0
  6  7  1  0
  6136  1  0
  6137  1  0
  7  8  1  0
  7 31  1  0
  8  9  1  0
  8 95  2  0
  9 10  1  0
  9 32  2  0
 10 11  1  0
 10 31  2  0
 11 12  2  0
 11138  1  0
 12 13  1  0
 12 29  1  0
 13 14  2  0
 13 26  1  0
 14 15  1  0
 14139  1  0
 15 16  2  0
 15140  1  0
 16 17  1  0
 16 27  1  0
 17 18  2  0
 17141  1  0
 18 19  1  0
 18142  1  0
 19 20  2  0
 19 28  1  0
 20 21  1  0
 20143  1  0
 21 22  2  0
 21144  1  0
 22 23  1  0
 22145  1  0
 23 24  2  0
 23 28  1  0
 24 25  1  0
 24146  1  0
 25 26  2  0
 25147  1  0
 26 27  1  0
 27 28  2  0
 29 30  2  0
 29148  1  0
 30 31  1  0
 30149  1  0
 32 33  1  0
 32 56  1  0
 33 34  1  0
 33 63  2  0
 34 35  2  0
 34 55  1  0
 35 36  1  0
 35150  1  0
 36 37  1  0
 36 53  2  0
 37 38  2  0
 37 50  1  0
 38 39  1  0
 38151  1  0
 39 40  2  0
 39152  1  0
 40 41  1  0
 40 51  1  0
 41 42  2  0
 41153  1  0
 42 43  1  0
 42154  1  0
 43 44  2  0
 43 52  1  0
 44 45  1  0
 44155  1  0
 45 46  2  0
 45156  1  0
 46 47  1  0
 46157  1  0
 47 48  2  0
 47 52  1  0
 48 49  1  0
 48158  1  0
 49 50  2  0
 49159  1  0
 50 51  1  0
 51 52  2  0
 53 54  1  0
 53160  1  0
 54 55  2  0
 54161  1  0
 55 56  1  0
 56 57  1  0
 57 58  1  0
 57162  1  0
 57163  1  0
 58 59  1  0
 58164  1  0
 58165  1  0
 59 60  1  0
 59166  1  0
 59167  1  0
 60 61  1  0
 60168  1  0
 60169  1  0
 61 62  1  0
 61170  1  0
 61171  1  0
 62172  1  0
 62173  1  0
 62174  1  0
 63 64  1  0
 63 87  1  0
 64 65  1  0
 64 94  2  0
 65 66  2  0
 65 86  1  0
 66 67  1  0
 66175  1  0
 67 68  1  0
 67 84  2  0
 68 69  2  0
 68 81  1  0
 69 70  1  0
 69176  1  0
 70 71  2  0
 70177  1  0
 71 72  1  0
 71 82  1  0
 72 73  2  0
 72178  1  0
 73 74  1  0
 73179  1  0
 74 75  2  0
 74 83  1  0
 75 76  1  0
 75180  1  0
 76 77  2  0
 76181  1  0
 77 78  1  0
 77182  1  0
 78 79  2  0
 78 83  1  0
 79 80  1  0
 79183  1  0
 80 81  2  0
 80184  1  0
 81 82  1  0
 82 83  2  0
 84 85  1  0
 84185  1  0
 85 86  2  0
 85186  1  0
 86 87  1  0
 87 88  1  0
 88 89  1  0
 88187  1  0
 88188  1  0
 89 90  1  0
 89189  1  0
 89190  1  0
 90 91  1  0
 90191  1  0
 90192  1  0
 91 92  1  0
 91193  1  0
 91194  1  0
 92 93  1  0
 92195  1  0
 92196  1  0
 93197  1  0
 93198  1  0
 93199  1  0
 94 95  1  0
 94118  1  0
 95 96  1  0
 96 97  2  0
 96117  1  0
 97 98  1  0
 97200  1  0
 98 99  1  0
 98115  2  0
 99100  2  0
 99112  1  0
100101  1  0
100201  1  0
101102  2  0
101202  1  0
102103  1  0
102113  1  0
103104  2  0
103203  1  0
104105  1  0
104204  1  0
105106  2  0
105114  1  0
106107  1  0
106205  1  0
107108  2  0
107206  1  0
108109  1  0
108207  1  0
109110  2  0
109114  1  0
110111  1  0
110208  1  0
111112  2  0
111209  1  0
112113  1  0
113114  2  0
115116  1  0
115210  1  0
116117  2  0
116211  1  0
117118  1  0
118119  1  0
119120  1  0
119212  1  0
119213  1  0
120121  1  0
120214  1  0
120215  1  0
121122  1  0
121216  1  0
121217  1  0
122123  1  0
122218  1  0
122219  1  0
123124  1  0
123220  1  0
123221  1  0
124222  1  0
124223  1  0
124224  1  0
M  END

