
     RDKit          3D

 72 80  0  0  0  0  0  0  0  0999 V2000
   -0.4534    0.4720    2.7654 C   0  0  0  0  0  0  0  0  0  0  0  0
   -0.5996   -0.2833    1.5975 C   0  0  0  0  0  0  0  0  0  0  0  0
    0.4480   -0.3630    0.6775 C   0  0  0  0  0  0  0  0  0  0  0  0
    1.6424    0.3217    0.9248 C   0  0  0  0  0  0  0  0  0  0  0  0
    2.7390    0.1974    0.0084 N   0  0  0  0  0  0  0  0  0  0  0  0
    3.0826    0.9548   -1.1113 C   0  0  0  0  0  0  0  0  0  0  0  0
    2.3289    2.1230   -1.6039 C   0  0  0  0  0  0  0  0  0  0  0  0
    2.7935    2.7926   -2.7534 C   0  0  0  0  0  0  0  0  0  0  0  0
    2.0784    3.8943   -3.2129 C   0  0  0  0  0  0  0  0  0  0  0  0
    0.9304    4.2954   -2.5210 C   0  0  0  0  0  0  0  0  0  0  0  0
    0.5529    3.5643   -1.3912 C   0  0  0  0  0  0  0  0  0  0  0  0
    1.2303    2.5078   -0.9425 N   0  0  0  0  0  0  0  0  0  0  0  0
    4.1745    0.5175   -1.7023 N   0  0  0  0  0  0  0  0  0  0  0  0
    4.5949   -0.5674   -0.9733 C   0  0  0  0  0  0  0  0  0  0  0  0
    5.7049   -1.4095   -1.1591 C   0  0  0  0  0  0  0  0  0  0  0  0
    5.9108   -2.4594   -0.2606 C   0  0  0  0  0  0  0  0  0  0  0  0
    7.0833   -3.3810   -0.4221 C   0  0  0  0  0  0  0  0  0  0  0  0
    8.3230   -3.0636    0.1811 C   0  0  0  0  0  0  0  0  0  0  0  0
    8.5014   -1.8669    0.9532 C   0  0  0  0  0  0  0  0  0  0  0  0
    9.7050   -1.5637    1.5378 C   0  0  0  0  0  0  0  0  0  0  0  0
   10.8169   -2.4410    1.3884 C   0  0  0  0  0  0  0  0  0  0  0  0
   10.6930   -3.5963    0.6589 C   0  0  0  0  0  0  0  0  0  0  0  0
    9.4539   -3.9564    0.0301 C   0  0  0  0  0  0  0  0  0  0  0  0
    9.3194   -5.1473   -0.7208 C   0  0  0  0  0  0  0  0  0  0  0  0
   10.4864   -6.0759   -0.8691 C   0  0  0  0  0  0  0  0  0  0  0  0
   10.7021   -7.1118    0.0876 C   0  0  0  0  0  0  0  0  0  0  0  0
   11.7686   -7.9768   -0.0297 C   0  0  0  0  0  0  0  0  0  0  0  0
   12.6893   -7.8648   -1.1086 C   0  0  0  0  0  0  0  0  0  0  0  0
   13.8014   -8.7397   -1.2617 C   0  0  0  0  0  0  0  0  0  0  0  0
   14.6715   -8.5976   -2.3224 C   0  0  0  0  0  0  0  0  0  0  0  0
   14.4688   -7.5715   -3.2809 C   0  0  0  0  0  0  0  0  0  0  0  0
   13.4005   -6.7076   -3.1606 C   0  0  0  0  0  0  0  0  0  0  0  0
   12.4836   -6.8267   -2.0778 C   0  0  0  0  0  0  0  0  0  0  0  0
   11.3720   -5.9513   -1.9260 C   0  0  0  0  0  0  0  0  0  0  0  0
    8.0797   -5.4674   -1.3218 C   0  0  0  0  0  0  0  0  0  0  0  0
    7.8994   -6.6680   -2.0876 C   0  0  0  0  0  0  0  0  0  0  0  0
    6.6947   -6.9726   -2.6692 C   0  0  0  0  0  0  0  0  0  0  0  0
    5.5850   -6.0917   -2.5252 C   0  0  0  0  0  0  0  0  0  0  0  0
    5.7113   -4.9329   -1.8016 C   0  0  0  0  0  0  0  0  0  0  0  0
    6.9499   -4.5731   -1.1720 C   0  0  0  0  0  0  0  0  0  0  0  0
    5.0045   -2.6578    0.8158 C   0  0  0  0  0  0  0  0  0  0  0  0
    3.8977   -1.8366    1.0202 C   0  0  0  0  0  0  0  0  0  0  0  0
    3.7086   -0.7905    0.1100 C   0  0  0  0  0  0  0  0  0  0  0  0
    1.7975    1.0687    2.0970 C   0  0  0  0  0  0  0  0  0  0  0  0
    0.7469    1.1450    3.0142 C   0  0  0  0  0  0  0  0  0  0  0  0
   -1.2744    0.5331    3.4841 H   0  0  0  0  0  0  0  0  0  0  0  0
   -1.5344   -0.8140    1.4007 H   0  0  0  0  0  0  0  0  0  0  0  0
    0.3452   -0.9463   -0.2397 H   0  0  0  0  0  0  0  0  0  0  0  0
    3.6952    2.4309   -3.2479 H   0  0  0  0  0  0  0  0  0  0  0  0
    2.4114    4.4364   -4.1018 H   0  0  0  0  0  0  0  0  0  0  0  0
    0.3398    5.1544   -2.8472 H   0  0  0  0  0  0  0  0  0  0  0  0
   -0.3404    3.8470   -0.8217 H   0  0  0  0  0  0  0  0  0  0  0  0
    6.3876   -1.2378   -1.9936 H   0  0  0  0  0  0  0  0  0  0  0  0
    7.6532   -1.1913    1.0689 H   0  0  0  0  0  0  0  0  0  0  0  0
    9.8137   -0.6453    2.1205 H   0  0  0  0  0  0  0  0  0  0  0  0
   11.7720   -2.1904    1.8571 H   0  0  0  0  0  0  0  0  0  0  0  0
   11.5486   -4.2633    0.5464 H   0  0  0  0  0  0  0  0  0  0  0  0
   10.0043   -7.2118    0.9226 H   0  0  0  0  0  0  0  0  0  0  0  0
   11.9193   -8.7657    0.7126 H   0  0  0  0  0  0  0  0  0  0  0  0
   13.9553   -9.5299   -0.5214 H   0  0  0  0  0  0  0  0  0  0  0  0
   15.5218   -9.2761   -2.4286 H   0  0  0  0  0  0  0  0  0  0  0  0
   15.1649   -7.4684   -4.1173 H   0  0  0  0  0  0  0  0  0  0  0  0
   13.2430   -5.9162   -3.8987 H   0  0  0  0  0  0  0  0  0  0  0  0
   11.2203   -5.1622   -2.6677 H   0  0  0  0  0  0  0  0  0  0  0  0
    8.7466   -7.3450   -2.2041 H   0  0  0  0  0  0  0  0  0  0  0  0
    6.5844   -7.8937   -3.2473 H   0  0  0  0  0  0  0  0  0  0  0  0
    4.6302   -6.3415   -2.9951 H   0  0  0  0  0  0  0  0  0  0  0  0
    4.8594   -4.2601   -1.6962 H   0  0  0  0  0  0  0  0  0  0  0  0
    5.1881   -3.4858    1.5047 H   0  0  0  0  0  0  0  0  0  0  0  0
    3.2125   -2.0044    1.8530 H   0  0  0  0  0  0  0  0  0  0  0  0
    2.7381    1.5928    2.2777 H   0  0  0  0  0  0  0  0  0  0  0  0
    0.8670    1.7334    3.9272 H   0  0  0  0  0  0  0  0  0  0  0  0
  1  2  2  0
  1 45  1  0
  1 46  1  0
  2  3  1  0
  2 47  1  0
  3  4  2  0
  3 48  1  0
  4  5  1  0
  4 44  1  0
  5  6  1  0
  5 43  1  0
  6  7  1  0
  6 13  2  0
  7  8  2  0
  7 12  1  0
  8  9  1  0
  8 49  1  0
  9 10  2  0
  9 50  1  0
 10 11  1  0
 10 51  1  0
 11 12  2  0
 11 52  1  0
 13 14  1  0
 14 15  2  0
 14 43  1  0
 15 16  1  0
 15 53  1  0
 16 17  1  0
 16 41  2  0
 17 18  1  0
 17 40  2  0
 18 19  2  0
 18 23  1  0
 19 20  1  0
 19 54  1  0
 20 21  2  0
 20 55  1  0
 21 22  1  0
 21 56  1  0
 22 23  2  0
 22 57  1  0
 23 24  1  0
 24 25  1  0
 24 35  2  0
 25 26  2  0
 25 34  1  0
 26 27  1  0
 26 58  1  0
 27 28  2  0
 27 59  1  0
 28 29  1  0
 28 33  1  0
 29 30  2  0
 29 60  1  0
 30 31  1  0
 30 61  1  0
 31 32  2  0
 31 62  1  0
 32 33  1  0
 32 63  1  0
 33 34  2  0
 34 64  1  0
 35 36  1  0
 35 40  1  0
 36 37  2  0
 36 65  1  0
 37 38  1  0
 37 66  1  0
 38 39  2  0
 38 67  1  0
 39 40  1  0
 39 68  1  0
 41 42  1  0
 41 69  1  0
 42 43  2  0
 42 70  1  0
 44 45  2  0
 44 71  1  0
 45 72  1  0
M  END

