
     RDKit          3D

 45 45  0  0  0  0  0  0  0  0999 V2000
    2.8744    2.6533   -0.0671 C   0  0  0  0  0  0  0  0  0  0  0  0
    4.0539    1.7859   -0.5114 C   0  0  0  0  0  0  0  0  0  0  0  0
    3.6145    0.5301   -1.2714 C   0  0  0  0  0  0  0  0  0  0  0  0
    4.7630   -0.3293   -1.8345 C   0  0  1  0  0  0  0  0  0  0  0  0
    5.7264   -0.8695   -0.7587 C   0  0  0  0  0  0  0  0  0  0  0  0
    5.1114   -1.5107    0.3924 N   0  0  0  0  0  0  0  0  0  0  0  0
    4.9321   -2.8404    0.4894 C   0  0  0  0  0  0  0  0  0  0  0  0
    5.1734   -3.6317   -0.4291 O   0  0  0  0  0  0  0  0  0  0  0  0
    4.4049   -3.3145    1.8169 C   0  0  0  0  0  0  0  0  0  0  0  0
    4.1615   -4.6755    2.0248 C   0  0  0  0  0  0  0  0  0  0  0  0
    3.6732   -5.0727    3.2665 C   0  0  0  0  0  0  0  0  0  0  0  0
    3.4325   -4.1235    4.2759 C   0  0  0  0  0  0  0  0  0  0  0  0
    2.8915   -4.5530    5.6492 C   0  0  1  0  0  0  0  0  0  0  0  0
    3.8839   -5.5460    6.2982 C   0  0  0  0  0  0  0  0  0  0  0  0
    2.7075   -3.3575    6.6020 C   0  0  0  0  0  0  0  0  0  0  0  0
    1.5199   -5.2426    5.4608 C   0  0  0  0  0  0  0  0  0  0  0  0
    3.7148   -2.7851    3.9436 C   0  0  0  0  0  0  0  0  0  0  0  0
    4.1851   -2.3931    2.7585 N   0  0  0  0  0  0  0  0  0  0  0  0
    4.1970   -1.3372   -2.8674 C   0  0  0  0  0  0  0  0  0  0  0  0
    3.5083   -0.9251   -3.7696 O   0  0  0  0  0  0  0  0  0  0  0  0
    4.5226   -2.6250   -2.7924 O   0  0  0  0  0  0  0  0  0  0  0  0
    3.2128    3.5521    0.4725 H   0  0  0  0  0  0  0  0  0  0  0  0
    2.1980    2.0965    0.6028 H   0  0  0  0  0  0  0  0  0  0  0  0
    2.2781    2.9861   -0.9325 H   0  0  0  0  0  0  0  0  0  0  0  0
    4.6521    1.5137    0.3776 H   0  0  0  0  0  0  0  0  0  0  0  0
    4.7282    2.3815   -1.1539 H   0  0  0  0  0  0  0  0  0  0  0  0
    2.9849    0.8205   -2.1261 H   0  0  0  0  0  0  0  0  0  0  0  0
    2.9799   -0.0956   -0.6178 H   0  0  0  0  0  0  0  0  0  0  0  0
    5.3803    0.3317   -2.4707 H   0  0  0  0  0  0  0  0  0  0  0  0
    6.3308   -0.0315   -0.3803 H   0  0  0  0  0  0  0  0  0  0  0  0
    6.4295   -1.5870   -1.2094 H   0  0  0  0  0  0  0  0  0  0  0  0
    4.8663   -0.9797    1.2256 H   0  0  0  0  0  0  0  0  0  0  0  0
    4.3564   -5.3838    1.2185 H   0  0  0  0  0  0  0  0  0  0  0  0
    3.4771   -6.1321    3.4474 H   0  0  0  0  0  0  0  0  0  0  0  0
    4.8714   -5.0808    6.4462 H   0  0  0  0  0  0  0  0  0  0  0  0
    4.0259   -6.4486    5.6843 H   0  0  0  0  0  0  0  0  0  0  0  0
    3.5096   -5.8697    7.2827 H   0  0  0  0  0  0  0  0  0  0  0  0
    3.6574   -2.8364    6.7994 H   0  0  0  0  0  0  0  0  0  0  0  0
    2.3202   -3.7127    7.5695 H   0  0  0  0  0  0  0  0  0  0  0  0
    1.9871   -2.6231    6.2092 H   0  0  0  0  0  0  0  0  0  0  0  0
    1.5914   -6.1359    4.8215 H   0  0  0  0  0  0  0  0  0  0  0  0
    0.7907   -4.5572    5.0007 H   0  0  0  0  0  0  0  0  0  0  0  0
    1.1176   -5.5630    6.4354 H   0  0  0  0  0  0  0  0  0  0  0  0
    3.5538   -1.9860    4.6710 H   0  0  0  0  0  0  0  0  0  0  0  0
    4.9052   -2.9396   -1.9321 H   0  0  0  0  0  0  0  0  0  0  0  0
  1  2  1  0
  1 22  1  0
  1 23  1  0
  1 24  1  0
  2  3  1  0
  2 25  1  0
  2 26  1  0
  3  4  1  0
  3 27  1  0
  3 28  1  0
  4  5  1  0
  4 19  1  0
  4 29  1  6
  5  6  1  0
  5 30  1  0
  5 31  1  0
  6  7  1  0
  6 32  1  0
  7  8  2  0
  7  9  1  0
  9 10  2  0
  9 18  1  0
 10 11  1  0
 10 33  1  0
 11 12  2  0
 11 34  1  0
 12 13  1  0
 12 17  1  0
 13 14  1  1
 13 15  1  0
 13 16  1  0
 14 35  1  0
 14 36  1  0
 14 37  1  0
 15 38  1  0
 15 39  1  0
 15 40  1  0
 16 41  1  0
 16 42  1  0
 16 43  1  0
 17 18  2  0
 17 44  1  0
 19 20  2  0
 19 21  1  0
 21 45  1  0
M  END

