
     RDKit          3D

 53 55  0  0  0  0  0  0  0  0999 V2000
    1.3275    4.6789    0.8629 C   0  0  0  0  0  0  0  0  0  0  0  0
    2.7053    4.6730    0.4943 O   0  0  0  0  0  0  0  0  0  0  0  0
    3.0900    3.6407   -0.2663 C   0  0  0  0  0  0  0  0  0  0  0  0
    2.3980    2.7455   -0.6534 O   0  0  0  0  0  0  0  0  0  0  0  0
    4.4152    3.8269   -0.4977 O   0  0  0  0  0  0  0  0  0  0  0  0
    4.9793    2.8185   -1.3060 N   0  0  0  0  0  0  0  0  0  0  0  0
    6.2330    3.0063   -1.4782 C   0  0  0  0  0  0  0  0  0  0  0  0
    7.0893    4.1065   -0.9054 C   0  0  0  0  0  0  0  0  0  0  0  0
    8.3691    3.5201   -0.2848 C   0  0  0  0  0  0  0  0  0  0  0  0
    9.0491    2.6202   -1.2119 N   0  0  0  0  0  0  0  0  0  0  0  0
   10.4487    2.4951   -1.1129 C   0  0  0  0  0  0  0  0  0  0  0  0
   11.2839    3.6080   -1.3423 C   0  0  0  0  0  0  0  0  0  0  0  0
   12.6706    3.5522   -1.2566 C   0  0  0  0  0  0  0  0  0  0  0  0
   13.3089    2.3314   -0.9566 C   0  0  0  0  0  0  0  0  0  0  0  0
   14.7131    2.2082   -0.8673 N   0  0  0  0  0  0  0  0  0  0  0  0
   15.3627    0.9561   -0.5164 C   0  0  0  0  0  0  0  0  0  0  0  0
   16.8473    1.3625   -0.4444 C   0  0  2  0  0  0  0  0  0  0  0  0
   17.4000    1.4227    0.9780 C   0  0  0  0  0  0  0  0  0  0  0  0
   18.7446    1.9438    1.0192 N   0  0  0  0  0  0  0  0  0  0  0  0
   19.8120    1.1854    1.4313 C   0  0  0  0  0  0  0  0  0  0  0  0
   21.1624    1.8784    1.3739 C   0  0  0  0  0  0  0  0  0  0  0  0
   19.6871    0.0392    1.8264 O   0  0  0  0  0  0  0  0  0  0  0  0
   16.8914    2.6752   -1.0251 O   0  0  0  0  0  0  0  0  0  0  0  0
   15.6401    3.1863   -1.2017 C   0  0  0  0  0  0  0  0  0  0  0  0
   15.4477    4.3081   -1.5849 O   0  0  0  0  0  0  0  0  0  0  0  0
   12.5059    1.2015   -0.7336 C   0  0  0  0  0  0  0  0  0  0  0  0
   11.1184    1.3032   -0.7919 C   0  0  0  0  0  0  0  0  0  0  0  0
   10.4116    0.1870   -0.5216 F   0  0  0  0  0  0  0  0  0  0  0  0
    8.2259    1.4909   -1.6289 C   0  0  0  0  0  0  0  0  0  0  0  0
    6.9579    2.0007   -2.3347 C   0  0  0  0  0  0  0  0  0  0  0  0
    1.1820    5.5767    1.4764 H   0  0  0  0  0  0  0  0  0  0  0  0
    1.0709    3.7780    1.4409 H   0  0  0  0  0  0  0  0  0  0  0  0
    0.6822    4.7190   -0.0279 H   0  0  0  0  0  0  0  0  0  0  0  0
    6.5323    4.6942   -0.1656 H   0  0  0  0  0  0  0  0  0  0  0  0
    7.3737    4.7787   -1.7344 H   0  0  0  0  0  0  0  0  0  0  0  0
    8.1022    2.9872    0.6542 H   0  0  0  0  0  0  0  0  0  0  0  0
    9.0496    4.3354   -0.0044 H   0  0  0  0  0  0  0  0  0  0  0  0
   10.8117    4.5545   -1.6157 H   0  0  0  0  0  0  0  0  0  0  0  0
   13.2685    4.4392   -1.4490 H   0  0  0  0  0  0  0  0  0  0  0  0
   15.1780    0.1792   -1.2784 H   0  0  0  0  0  0  0  0  0  0  0  0
   14.9993    0.5722    0.4515 H   0  0  0  0  0  0  0  0  0  0  0  0
   17.4847    0.7108   -1.0603 H   0  0  0  0  0  0  0  0  0  0  0  0
   17.4354    0.4103    1.4079 H   0  0  0  0  0  0  0  0  0  0  0  0
   16.7202    2.0373    1.5973 H   0  0  0  0  0  0  0  0  0  0  0  0
   18.9002    2.8709    0.6415 H   0  0  0  0  0  0  0  0  0  0  0  0
   21.1216    2.9049    0.9815 H   0  0  0  0  0  0  0  0  0  0  0  0
   21.8397    1.2772    0.7487 H   0  0  0  0  0  0  0  0  0  0  0  0
   21.5906    1.8959    2.3876 H   0  0  0  0  0  0  0  0  0  0  0  0
   12.9177    0.2235   -0.4882 H   0  0  0  0  0  0  0  0  0  0  0  0
    7.9337    0.8518   -0.7711 H   0  0  0  0  0  0  0  0  0  0  0  0
    8.8022    0.8600   -2.3184 H   0  0  0  0  0  0  0  0  0  0  0  0
    6.2811    1.1698   -2.5800 H   0  0  0  0  0  0  0  0  0  0  0  0
    7.2549    2.4963   -3.2761 H   0  0  0  0  0  0  0  0  0  0  0  0
  1  2  1  0
  1 31  1  0
  1 32  1  0
  1 33  1  0
  2  3  1  0
  3  4  2  0
  3  5  1  0
  5  6  1  0
  6  7  2  0
  7  8  1  0
  7 30  1  0
  8  9  1  0
  8 34  1  0
  8 35  1  0
  9 10  1  0
  9 36  1  0
  9 37  1  0
 10 11  1  0
 10 29  1  0
 11 12  2  0
 11 27  1  0
 12 13  1  0
 12 38  1  0
 13 14  2  0
 13 39  1  0
 14 15  1  0
 14 26  1  0
 15 16  1  0
 15 24  1  0
 16 17  1  0
 16 40  1  0
 16 41  1  0
 17 18  1  0
 17 23  1  0
 17 42  1  6
 18 19  1  0
 18 43  1  0
 18 44  1  0
 19 20  1  0
 19 45  1  0
 20 21  1  0
 20 22  2  0
 21 46  1  0
 21 47  1  0
 21 48  1  0
 23 24  1  0
 24 25  2  0
 26 27  2  0
 26 49  1  0
 27 28  1  0
 29 30  1  0
 29 50  1  0
 29 51  1  0
 30 52  1  0
 30 53  1  0
M  END

