
     RDKit          3D

 40 41  0  0  0  0  0  0  0  0999 V2000
    2.2949   -3.3650    3.5229 C   0  0  0  0  0  0  0  0  0  0  0  0
    2.3054   -2.4780    2.2798 C   0  0  0  0  0  0  0  0  0  0  0  0
    2.5101   -3.2175    1.0457 N   0  0  0  0  0  0  0  0  0  0  0  0
    1.4378   -4.1121    0.6298 C   0  0  0  0  0  0  0  0  0  0  0  0
    1.7881   -4.4294   -0.8234 C   0  0  0  0  0  0  0  0  0  0  0  0
    2.2865   -3.0694   -1.3364 C   0  0  0  0  0  0  0  0  0  0  0  0
    2.9655   -2.4226   -0.1052 C   0  0  2  0  0  0  0  0  0  0  0  0
    4.5053   -2.4326   -0.1591 C   0  0  0  0  0  0  0  0  0  0  0  0
    5.0644   -1.5027   -1.1296 N   0  0  0  0  0  0  0  0  0  0  0  0
    5.2921   -0.1885   -0.8063 C   0  0  0  0  0  0  0  0  0  0  0  0
    5.0454    0.2519    0.3084 O   0  0  0  0  0  0  0  0  0  0  0  0
    5.8360    0.6676   -1.9128 C   0  0  0  0  0  0  0  0  0  0  0  0
    5.3943    0.4836   -3.1997 C   0  0  0  0  0  0  0  0  0  0  0  0
    5.8112    1.2740   -4.2191 N   0  0  0  0  0  0  0  0  0  0  0  0
    5.4548    1.1331   -5.1608 H   0  0  0  0  0  0  0  0  0  0  0  0
    6.7261    2.3438   -4.0888 C   0  0  0  0  0  0  0  0  0  0  0  0
    7.0485    2.9942   -5.0688 O   0  0  0  0  0  0  0  0  0  0  0  0
    7.1760    2.5316   -2.7196 C   0  0  0  0  0  0  0  0  0  0  0  0
    6.7609    1.7606   -1.6638 C   0  0  0  0  0  0  0  0  0  0  0  0
    7.2729    2.0390   -0.2757 C   0  0  0  0  0  0  0  0  0  0  0  0
    2.1998   -2.7519    4.4332 H   0  0  0  0  0  0  0  0  0  0  0  0
    3.2278   -3.9471    3.5901 H   0  0  0  0  0  0  0  0  0  0  0  0
    1.4527   -4.0753    3.5157 H   0  0  0  0  0  0  0  0  0  0  0  0
    3.1193   -1.7406    2.3715 H   0  0  0  0  0  0  0  0  0  0  0  0
    1.3594   -1.8864    2.2395 H   0  0  0  0  0  0  0  0  0  0  0  0
    0.4361   -3.6228    0.6872 H   0  0  0  0  0  0  0  0  0  0  0  0
    1.3921   -5.0130    1.2637 H   0  0  0  0  0  0  0  0  0  0  0  0
    0.9360   -4.8251   -1.3964 H   0  0  0  0  0  0  0  0  0  0  0  0
    2.5937   -5.1812   -0.8567 H   0  0  0  0  0  0  0  0  0  0  0  0
    1.4303   -2.4560   -1.6595 H   0  0  0  0  0  0  0  0  0  0  0  0
    2.9654   -3.1498   -2.2005 H   0  0  0  0  0  0  0  0  0  0  0  0
    2.6504   -1.3649   -0.0107 H   0  0  0  0  0  0  0  0  0  0  0  0
    4.8575   -3.4482   -0.3967 H   0  0  0  0  0  0  0  0  0  0  0  0
    4.8924   -2.1677    0.8358 H   0  0  0  0  0  0  0  0  0  0  0  0
    5.4652   -1.8665   -1.9837 H   0  0  0  0  0  0  0  0  0  0  0  0
    4.6625   -0.2848   -3.4584 H   0  0  0  0  0  0  0  0  0  0  0  0
    7.8817    3.3511   -2.5712 H   0  0  0  0  0  0  0  0  0  0  0  0
    8.0070    2.8565   -0.2888 H   0  0  0  0  0  0  0  0  0  0  0  0
    7.7463    1.1444    0.1600 H   0  0  0  0  0  0  0  0  0  0  0  0
    6.4424    2.2941    0.3975 H   0  0  0  0  0  0  0  0  0  0  0  0
  1  2  1  0
  1 21  1  0
  1 22  1  0
  1 23  1  0
  2  3  1  0
  2 24  1  0
  2 25  1  0
  3  4  1  0
  3  7  1  0
  4  5  1  0
  4 26  1  0
  4 27  1  0
  5  6  1  0
  5 28  1  0
  5 29  1  0
  6  7  1  0
  6 30  1  0
  6 31  1  0
  7  8  1  0
  7 32  1  1
  8  9  1  0
  8 33  1  0
  8 34  1  0
  9 10  1  0
  9 35  1  0
 10 11  2  0
 10 12  1  0
 12 13  2  0
 12 19  1  0
 13 14  1  0
 13 36  1  0
 14 15  1  0
 14 16  1  0
 16 17  2  0
 16 18  1  0
 18 19  2  0
 18 37  1  0
 19 20  1  0
 20 38  1  0
 20 39  1  0
 20 40  1  0
M  END

