
     RDKit          3D

 38 40  0  0  0  0  0  0  0  0999 V2000
    3.0446   -1.5141    0.0926 C   0  0  0  0  0  0  0  0  0  0  0  0
    2.7348   -0.0586   -0.3211 C   0  0  2  0  0  0  0  0  0  0  0  0
    1.6412    0.0683   -0.2491 H   0  0  0  0  0  0  0  0  0  0  0  0
    3.0810    0.2913   -1.6973 N   0  0  0  0  0  0  0  0  0  0  0  0
    2.2391   -0.2832   -2.7222 C   0  0  0  0  0  0  0  0  0  0  0  0
    2.7878    0.0243   -4.0784 C   0  0  0  0  0  0  0  0  0  0  0  0
    4.0304    0.1126   -4.4364 N   0  0  0  0  0  0  0  0  0  0  0  0
    3.9409    0.3577   -5.7923 C   0  0  0  0  0  0  0  0  0  0  0  0
    5.1145    0.5422   -6.6598 C   0  0  0  0  0  0  0  0  0  0  0  0
    6.4042    0.4859   -6.1072 C   0  0  0  0  0  0  0  0  0  0  0  0
    7.5239    0.6604   -6.9230 C   0  0  0  0  0  0  0  0  0  0  0  0
    7.3661    0.8916   -8.2928 C   0  0  0  0  0  0  0  0  0  0  0  0
    6.0816    0.9486   -8.8472 C   0  0  0  0  0  0  0  0  0  0  0  0
    4.9596    0.7754   -8.0380 C   0  0  0  0  0  0  0  0  0  0  0  0
    2.7045    0.4090   -6.2351 N   0  0  0  0  0  0  0  0  0  0  0  0
    1.9370    0.1904   -5.0971 O   0  0  0  0  0  0  0  0  0  0  0  0
    3.3235    0.9538    0.6614 C   0  0  0  0  0  0  0  0  0  0  0  0
    2.4545    1.6750    1.4969 C   0  0  0  0  0  0  0  0  0  0  0  0
    2.9015    2.6077    2.4329 C   0  0  0  0  0  0  0  0  0  0  0  0
    4.2724    2.8412    2.5486 C   0  0  0  0  0  0  0  0  0  0  0  0
    4.8681    4.0043    3.7071 Cl  0  0  0  0  0  0  0  0  0  0  0  0
    5.1776    2.1508    1.7417 C   0  0  0  0  0  0  0  0  0  0  0  0
    4.6967    1.2196    0.8171 C   0  0  0  0  0  0  0  0  0  0  0  0
    5.9124    0.3941   -0.1535 Cl  0  0  0  0  0  0  0  0  0  0  0  0
    4.1260   -1.7119    0.0794 H   0  0  0  0  0  0  0  0  0  0  0  0
    2.5569   -2.2276   -0.5907 H   0  0  0  0  0  0  0  0  0  0  0  0
    2.6705   -1.7194    1.1080 H   0  0  0  0  0  0  0  0  0  0  0  0
    4.0641    0.1187   -1.9011 H   0  0  0  0  0  0  0  0  0  0  0  0
    1.2162    0.1269   -2.6616 H   0  0  0  0  0  0  0  0  0  0  0  0
    2.1243   -1.3918   -2.6679 H   0  0  0  0  0  0  0  0  0  0  0  0
    6.5130    0.3060   -5.0364 H   0  0  0  0  0  0  0  0  0  0  0  0
    8.5250    0.6160   -6.4867 H   0  0  0  0  0  0  0  0  0  0  0  0
    8.2436    1.0280   -8.9301 H   0  0  0  0  0  0  0  0  0  0  0  0
    5.9552    1.1296   -9.9176 H   0  0  0  0  0  0  0  0  0  0  0  0
    3.9547    0.8188   -8.4622 H   0  0  0  0  0  0  0  0  0  0  0  0
    1.3793    1.4991    1.4053 H   0  0  0  0  0  0  0  0  0  0  0  0
    2.1970    3.1512    3.0638 H   0  0  0  0  0  0  0  0  0  0  0  0
    6.2486    2.3320    1.8285 H   0  0  0  0  0  0  0  0  0  0  0  0
  1  2  1  0
  1 25  1  0
  1 26  1  0
  1 27  1  0
  2  3  1  6
  2  4  1  0
  2 17  1  0
  4  5  1  0
  4 28  1  0
  5  6  1  0
  5 29  1  0
  5 30  1  0
  6  7  2  0
  6 16  1  0
  7  8  1  0
  8  9  1  0
  8 15  2  0
  9 10  2  0
  9 14  1  0
 10 11  1  0
 10 31  1  0
 11 12  2  0
 11 32  1  0
 12 13  1  0
 12 33  1  0
 13 14  2  0
 13 34  1  0
 14 35  1  0
 15 16  1  0
 17 18  2  0
 17 23  1  0
 18 19  1  0
 18 36  1  0
 19 20  2  0
 19 37  1  0
 20 21  1  0
 20 22  1  0
 22 23  2  0
 22 38  1  0
 23 24  1  0
M  END

