
     RDKit          3D

 44 47  0  0  0  0  0  0  0  0999 V2000
    8.2394    6.3739   -1.8406 C   0  0  0  0  0  0  0  0  0  0  0  0
    7.8381    4.9337   -1.6321 C   0  0  0  0  0  0  0  0  0  0  0  0
    6.5137    4.5069   -1.8133 C   0  0  0  0  0  0  0  0  0  0  0  0
    6.1412    3.1822   -1.5947 C   0  0  0  0  0  0  0  0  0  0  0  0
    7.0896    2.2277   -1.1838 C   0  0  0  0  0  0  0  0  0  0  0  0
    6.6413    0.9111   -0.9813 N   0  0  0  0  0  0  0  0  0  0  0  0
    7.3386   -0.2048   -0.6045 C   0  0  0  0  0  0  0  0  0  0  0  0
    8.6149   -0.2909   -0.3663 N   0  0  0  0  0  0  0  0  0  0  0  0
    8.9762   -1.5752   -0.0167 C   0  0  0  0  0  0  0  0  0  0  0  0
   10.4083   -1.8691    0.2987 C   0  0  0  0  0  0  0  0  0  0  0  0
   10.9164   -1.3996    2.0200 S   0  0  0  0  0  0  0  0  0  0  0  0
   10.3593   -2.8291    2.8537 C   0  0  0  0  0  0  0  0  0  0  0  0
    9.8366   -3.9227    2.3876 N   0  0  0  0  0  0  0  0  0  0  0  0
    9.6006   -4.7371    3.4893 N   0  0  0  0  0  0  0  0  0  0  0  0
    9.9949   -4.0851    4.5326 C   0  0  0  0  0  0  0  0  0  0  0  0
    9.9442   -4.4888    5.9639 C   0  0  0  0  0  0  0  0  0  0  0  0
    8.8373   -3.8219    6.7538 C   0  0  0  0  0  0  0  0  0  0  0  0
    7.5787   -3.5321    6.2919 C   0  0  0  0  0  0  0  0  0  0  0  0
    6.6400   -2.8141    7.5542 S   0  0  0  0  0  0  0  0  0  0  0  0
    8.0233   -2.9572    8.6317 C   0  0  0  0  0  0  0  0  0  0  0  0
    7.9692   -2.4884   10.0530 C   0  0  0  0  0  0  0  0  0  0  0  0
    9.0674   -3.4921    8.0682 N   0  0  0  0  0  0  0  0  0  0  0  0
   10.4902   -2.8531    4.2030 O   0  0  0  0  0  0  0  0  0  0  0  0
    7.9640   -2.4950    0.0158 C   0  0  0  0  0  0  0  0  0  0  0  0
    6.4568   -1.7364   -0.4123 S   0  0  0  0  0  0  0  0  0  0  0  0
    8.4223    2.6366   -1.0005 C   0  0  0  0  0  0  0  0  0  0  0  0
    8.7724    3.9688   -1.2257 C   0  0  0  0  0  0  0  0  0  0  0  0
    7.5041    6.9139   -2.4563 H   0  0  0  0  0  0  0  0  0  0  0  0
    9.2197    6.4531   -2.3370 H   0  0  0  0  0  0  0  0  0  0  0  0
    8.3208    6.9125   -0.8797 H   0  0  0  0  0  0  0  0  0  0  0  0
    5.7532    5.2246   -2.1348 H   0  0  0  0  0  0  0  0  0  0  0  0
    5.0998    2.8812   -1.7478 H   0  0  0  0  0  0  0  0  0  0  0  0
    5.6506    0.7720   -1.1368 H   0  0  0  0  0  0  0  0  0  0  0  0
   11.0684   -1.2620   -0.3362 H   0  0  0  0  0  0  0  0  0  0  0  0
   10.6482   -2.9314    0.1721 H   0  0  0  0  0  0  0  0  0  0  0  0
   10.8987   -4.2492    6.4555 H   0  0  0  0  0  0  0  0  0  0  0  0
    9.8253   -5.5836    5.9854 H   0  0  0  0  0  0  0  0  0  0  0  0
    7.1684   -3.7088    5.2992 H   0  0  0  0  0  0  0  0  0  0  0  0
    7.1799   -3.0058   10.6220 H   0  0  0  0  0  0  0  0  0  0  0  0
    7.7698   -1.4062   10.1157 H   0  0  0  0  0  0  0  0  0  0  0  0
    8.9391   -2.6958   10.5246 H   0  0  0  0  0  0  0  0  0  0  0  0
    8.0236   -3.5439    0.2969 H   0  0  0  0  0  0  0  0  0  0  0  0
    9.1645    1.9058   -0.6875 H   0  0  0  0  0  0  0  0  0  0  0  0
    9.8160    4.2636   -1.0789 H   0  0  0  0  0  0  0  0  0  0  0  0
  1  2  1  0
  1 28  1  0
  1 29  1  0
  1 30  1  0
  2  3  2  0
  2 27  1  0
  3  4  1  0
  3 31  1  0
  4  5  2  0
  4 32  1  0
  5  6  1  0
  5 26  1  0
  6  7  1  0
  6 33  1  0
  7  8  2  0
  7 25  1  0
  8  9  1  0
  9 10  1  0
  9 24  2  0
 10 11  1  0
 10 34  1  0
 10 35  1  0
 11 12  1  0
 12 13  2  0
 12 23  1  0
 13 14  1  0
 14 15  2  0
 15 16  1  0
 15 23  1  0
 16 17  1  0
 16 36  1  0
 16 37  1  0
 17 18  2  0
 17 22  1  0
 18 19  1  0
 18 38  1  0
 19 20  1  0
 20 21  1  0
 20 22  2  0
 21 39  1  0
 21 40  1  0
 21 41  1  0
 24 25  1  0
 24 42  1  0
 26 27  2  0
 26 43  1  0
 27 44  1  0
M  END

