
     RDKit          3D

 23 24  0  0  0  0  0  0  0  0999 V2000
    1.1353    0.3530   -0.1894 O   0  0  0  0  0  0  0  0  0  0  0  0
    2.3261    0.1876   -0.2536 C   0  0  0  0  0  0  0  0  0  0  0  0
    3.1213   -1.0544   -0.6528 C   0  0  0  0  0  0  0  0  0  0  0  0
    4.5236   -0.5638   -0.4731 C   0  0  0  0  0  0  0  0  0  0  0  0
    5.7579   -1.3905   -0.7005 C   0  0  1  0  0  0  0  0  0  0  0  0
    5.7399   -2.4770    0.0966 F   0  0  0  0  0  0  0  0  0  0  0  0
    5.7879   -1.8378   -1.9707 F   0  0  0  0  0  0  0  0  0  0  0  0
    6.8773   -0.7157   -0.4652 F   0  0  0  0  0  0  0  0  0  0  0  0
    4.5949    0.6566   -0.0834 N   0  0  0  0  0  0  0  0  0  0  0  0
    3.3164    1.1441    0.0463 N   0  0  0  0  0  0  0  0  0  0  0  0
    3.0940    2.4844    0.4380 C   0  0  0  0  0  0  0  0  0  0  0  0
    2.0929    2.7971    1.3696 C   0  0  0  0  0  0  0  0  0  0  0  0
    1.8677    4.1176    1.7355 C   0  0  0  0  0  0  0  0  0  0  0  0
    0.9134    4.4185    2.6177 F   0  0  0  0  0  0  0  0  0  0  0  0
    2.6478    5.1448    1.1934 C   0  0  0  0  0  0  0  0  0  0  0  0
    2.4258    6.4037    1.5659 F   0  0  0  0  0  0  0  0  0  0  0  0
    3.6434    4.8522    0.2674 C   0  0  0  0  0  0  0  0  0  0  0  0
    3.8489    3.5298   -0.1180 C   0  0  0  0  0  0  0  0  0  0  0  0
    4.7757    3.2660   -1.0391 F   0  0  0  0  0  0  0  0  0  0  0  0
    2.8895   -1.3481   -1.6900 H   0  0  0  0  0  0  0  0  0  0  0  0
    2.8695   -1.9112   -0.0065 H   0  0  0  0  0  0  0  0  0  0  0  0
    1.4711    2.0149    1.8031 H   0  0  0  0  0  0  0  0  0  0  0  0
    4.2457    5.6509   -0.1670 H   0  0  0  0  0  0  0  0  0  0  0  0
  1  2  2  0
  2  3  1  0
  2 10  1  0
  3  4  1  0
  3 20  1  0
  3 21  1  0
  4  5  1  0
  4  9  2  0
  5  6  1  1
  5  7  1  0
  5  8  1  0
  9 10  1  0
 10 11  1  0
 11 12  2  0
 11 18  1  0
 12 13  1  0
 12 22  1  0
 13 14  1  0
 13 15  2  0
 15 16  1  0
 15 17  1  0
 17 18  2  0
 17 23  1  0
 18 19  1  0
M  END

