
     RDKit          3D

 41 43  0  0  0  0  0  0  0  0999 V2000
    1.8758    4.3945   -0.9436 C   0  0  0  0  0  0  0  0  0  0  0  0
    3.2523    3.7640   -0.7738 C   0  0  0  0  0  0  0  0  0  0  0  0
    3.2883    2.1302   -1.6190 S   0  0  0  0  0  0  0  0  0  0  0  0
    4.9028    1.6126   -1.1502 C   0  0  0  0  0  0  0  0  0  0  0  0
    5.6905    2.1990   -0.2753 N   0  0  0  0  0  0  0  0  0  0  0  0
    6.8388    1.4672   -0.2114 N   0  0  0  0  0  0  0  0  0  0  0  0
    6.7275    0.4466   -1.0387 C   0  0  0  0  0  0  0  0  0  0  0  0
    7.8059   -0.5303   -1.2432 C   0  0  0  0  0  0  0  0  0  0  0  0
    9.1153   -0.0939   -1.2180 C   0  0  0  0  0  0  0  0  0  0  0  0
   10.1969   -1.0039   -1.3045 C   0  0  0  0  0  0  0  0  0  0  0  0
    9.9190   -2.3402   -1.3980 C   0  0  0  0  0  0  0  0  0  0  0  0
    8.6337   -2.8031   -1.4060 N   0  0  0  0  0  0  0  0  0  0  0  0
    8.3779   -4.2563   -1.4515 C   0  0  0  0  0  0  0  0  0  0  0  0
    8.2640   -4.8145   -2.8565 C   0  0  0  0  0  0  0  0  0  0  0  0
    7.0554   -4.6851   -3.5638 C   0  0  0  0  0  0  0  0  0  0  0  0
    6.8989   -5.1808   -4.8570 C   0  0  0  0  0  0  0  0  0  0  0  0
    7.9738   -5.8308   -5.4705 C   0  0  0  0  0  0  0  0  0  0  0  0
    7.8008   -6.4631   -7.0878 Cl  0  0  0  0  0  0  0  0  0  0  0  0
    9.1897   -5.9853   -4.8033 C   0  0  0  0  0  0  0  0  0  0  0  0
    9.3204   -5.4744   -3.5087 C   0  0  0  0  0  0  0  0  0  0  0  0
   10.8718   -5.7062   -2.7120 Cl  0  0  0  0  0  0  0  0  0  0  0  0
    7.5019   -1.9554   -1.3320 C   0  0  0  0  0  0  0  0  0  0  0  0
    6.3717   -2.4437   -1.3360 O   0  0  0  0  0  0  0  0  0  0  0  0
    5.5035    0.4984   -1.6802 N   0  0  0  0  0  0  0  0  0  0  0  0
    4.9758   -0.3319   -2.7499 C   0  0  0  0  0  0  0  0  0  0  0  0
    1.8532    5.3738   -0.4400 H   0  0  0  0  0  0  0  0  0  0  0  0
    1.0855    3.7684   -0.5002 H   0  0  0  0  0  0  0  0  0  0  0  0
    1.6286    4.5569   -2.0049 H   0  0  0  0  0  0  0  0  0  0  0  0
    3.5064    3.5932    0.2811 H   0  0  0  0  0  0  0  0  0  0  0  0
    4.0484    4.3871   -1.2062 H   0  0  0  0  0  0  0  0  0  0  0  0
    9.3008    0.9777   -1.1196 H   0  0  0  0  0  0  0  0  0  0  0  0
   11.2314   -0.6609   -1.2957 H   0  0  0  0  0  0  0  0  0  0  0  0
   10.6966   -3.1015   -1.4770 H   0  0  0  0  0  0  0  0  0  0  0  0
    7.4331   -4.4168   -0.9190 H   0  0  0  0  0  0  0  0  0  0  0  0
    9.1863   -4.7559   -0.9055 H   0  0  0  0  0  0  0  0  0  0  0  0
    6.2284   -4.1701   -3.0703 H   0  0  0  0  0  0  0  0  0  0  0  0
    5.9526   -5.0714   -5.3884 H   0  0  0  0  0  0  0  0  0  0  0  0
   10.0251   -6.4963   -5.2810 H   0  0  0  0  0  0  0  0  0  0  0  0
    5.8030   -0.7173   -3.3585 H   0  0  0  0  0  0  0  0  0  0  0  0
    4.3257    0.2878   -3.3848 H   0  0  0  0  0  0  0  0  0  0  0  0
    4.4148   -1.1867   -2.3503 H   0  0  0  0  0  0  0  0  0  0  0  0
  1  2  1  0
  1 26  1  0
  1 27  1  0
  1 28  1  0
  2  3  1  0
  2 29  1  0
  2 30  1  0
  3  4  1  0
  4  5  2  0
  4 24  1  0
  5  6  1  0
  6  7  2  0
  7  8  1  0
  7 24  1  0
  8  9  2  0
  8 22  1  0
  9 10  1  0
  9 31  1  0
 10 11  2  0
 10 32  1  0
 11 12  1  0
 11 33  1  0
 12 13  1  0
 12 22  1  0
 13 14  1  0
 13 34  1  0
 13 35  1  0
 14 15  2  0
 14 20  1  0
 15 16  1  0
 15 36  1  0
 16 17  2  0
 16 37  1  0
 17 18  1  0
 17 19  1  0
 19 20  2  0
 19 38  1  0
 20 21  1  0
 22 23  2  0
 24 25  1  0
 25 39  1  0
 25 40  1  0
 25 41  1  0
M  END

