
     RDKit          3D

 56 59  0  0  0  0  0  0  0  0999 V2000
    5.2411    1.4750   -1.1547 C   0  0  0  0  0  0  0  0  0  0  0  0
    6.3080    1.2247   -0.0885 C   0  0  0  0  0  0  0  0  0  0  0  0
    5.8417    0.3982    1.0129 N   0  0  0  0  0  0  0  0  0  0  0  0
    5.5502    0.9041    2.2481 C   0  0  0  0  0  0  0  0  0  0  0  0
    5.6894    2.0663    2.5739 O   0  0  0  0  0  0  0  0  0  0  0  0
    5.0313   -0.1773    3.1960 C   0  0  1  0  0  0  0  0  0  0  0  0
    5.8181   -0.9489    3.3210 H   0  0  0  0  0  0  0  0  0  0  0  0
    4.6776    0.3675    4.4543 O   0  0  0  0  0  0  0  0  0  0  0  0
    3.9661   -0.6549    5.0880 C   0  0  1  0  0  0  0  0  0  0  0  0
    4.6469   -1.4714    5.4097 H   0  0  0  0  0  0  0  0  0  0  0  0
    3.2845   -0.1262    6.2518 N   0  0  0  0  0  0  0  0  0  0  0  0
    3.4715    1.0745    6.9167 C   0  0  0  0  0  0  0  0  0  0  0  0
    2.7272    1.1912    7.9904 N   0  0  0  0  0  0  0  0  0  0  0  0
    2.0175    0.0132    8.0502 C   0  0  0  0  0  0  0  0  0  0  0  0
    1.0470   -0.4994    8.9479 C   0  0  0  0  0  0  0  0  0  0  0  0
    0.6327    0.1946   10.0268 N   0  0  0  0  0  0  0  0  0  0  0  0
    0.5276   -1.7138    8.7111 N   0  0  0  0  0  0  0  0  0  0  0  0
    0.9287   -2.4174    7.6391 C   0  0  0  0  0  0  0  0  0  0  0  0
    0.3202   -3.7063    7.4342 C   0  0  0  0  0  0  0  0  0  0  0  0
   -0.1759   -4.7961    7.2320 C   0  0  0  0  0  0  0  0  0  0  0  0
   -0.8092   -6.0928    6.9777 C   0  0  0  0  0  0  0  0  0  0  0  0
   -0.0839   -6.9044    6.0051 N   0  0  0  0  0  0  0  0  0  0  0  0
   -0.5103   -8.3009    5.9381 C   0  0  0  0  0  0  0  0  0  0  0  0
   -1.7469   -8.5038    5.0551 C   0  0  0  0  0  0  0  0  0  0  0  0
   -1.5362   -7.9642    3.7641 O   0  0  0  0  0  0  0  0  0  0  0  0
   -1.2141   -6.5844    3.8068 C   0  0  0  0  0  0  0  0  0  0  0  0
    0.0344   -6.3395    4.6594 C   0  0  0  0  0  0  0  0  0  0  0  0
    1.8410   -2.0374    6.7235 N   0  0  0  0  0  0  0  0  0  0  0  0
    2.3479   -0.8244    6.9777 C   0  0  0  0  0  0  0  0  0  0  0  0
    3.0117   -1.2521    4.0196 C   0  0  2  0  0  0  0  0  0  0  0  0
    2.0498   -0.7106    4.0589 H   0  0  0  0  0  0  0  0  0  0  0  0
    2.8430   -2.6334    4.1415 O   0  0  0  0  0  0  0  0  0  0  0  0
    3.7596   -0.9217    2.6949 C   0  0  2  0  0  0  0  0  0  0  0  0
    3.1505   -0.2317    2.0871 H   0  0  0  0  0  0  0  0  0  0  0  0
    4.0716   -2.0533    1.9308 O   0  0  0  0  0  0  0  0  0  0  0  0
    5.6497    2.0895   -1.9732 H   0  0  0  0  0  0  0  0  0  0  0  0
    4.3760    2.0058   -0.7273 H   0  0  0  0  0  0  0  0  0  0  0  0
    4.8795    0.5300   -1.5931 H   0  0  0  0  0  0  0  0  0  0  0  0
    6.6359    2.1752    0.3557 H   0  0  0  0  0  0  0  0  0  0  0  0
    7.1947    0.7489   -0.5430 H   0  0  0  0  0  0  0  0  0  0  0  0
    5.6195   -0.5782    0.8332 H   0  0  0  0  0  0  0  0  0  0  0  0
    4.1716    1.8146    6.5309 H   0  0  0  0  0  0  0  0  0  0  0  0
    1.0128    1.1125   10.2129 H   0  0  0  0  0  0  0  0  0  0  0  0
   -0.0649   -0.2097   10.6372 H   0  0  0  0  0  0  0  0  0  0  0  0
   -1.8753   -5.8972    6.7162 H   0  0  0  0  0  0  0  0  0  0  0  0
   -0.8407   -6.6555    7.9276 H   0  0  0  0  0  0  0  0  0  0  0  0
   -0.6928   -8.6829    6.9564 H   0  0  0  0  0  0  0  0  0  0  0  0
    0.3198   -8.8907    5.5087 H   0  0  0  0  0  0  0  0  0  0  0  0
   -2.6404   -8.0377    5.5239 H   0  0  0  0  0  0  0  0  0  0  0  0
   -1.9627   -9.5762    4.9239 H   0  0  0  0  0  0  0  0  0  0  0  0
   -2.0757   -6.0044    4.2014 H   0  0  0  0  0  0  0  0  0  0  0  0
   -1.0467   -6.2628    2.7668 H   0  0  0  0  0  0  0  0  0  0  0  0
    0.2601   -5.2637    4.7279 H   0  0  0  0  0  0  0  0  0  0  0  0
    0.8947   -6.8233    4.1630 H   0  0  0  0  0  0  0  0  0  0  0  0
    2.4092   -2.7792    5.0155 H   0  0  0  0  0  0  0  0  0  0  0  0
    3.7920   -2.8238    2.4579 H   0  0  0  0  0  0  0  0  0  0  0  0
  1  2  1  0
  1 36  1  0
  1 37  1  0
  1 38  1  0
  2  3  1  0
  2 39  1  0
  2 40  1  0
  3  4  1  0
  3 41  1  0
  4  5  2  0
  4  6  1  0
  6  7  1  1
  6  8  1  0
  6 33  1  0
  8  9  1  0
  9 10  1  1
  9 11  1  0
  9 30  1  0
 11 12  1  0
 11 29  1  0
 12 13  2  0
 12 42  1  0
 13 14  1  0
 14 15  1  0
 14 29  2  0
 15 16  1  0
 15 17  2  0
 16 43  1  0
 16 44  1  0
 17 18  1  0
 18 19  1  0
 18 28  2  0
 19 20  3  0
 20 21  1  0
 21 22  1  0
 21 45  1  0
 21 46  1  0
 22 23  1  0
 22 27  1  0
 23 24  1  0
 23 47  1  0
 23 48  1  0
 24 25  1  0
 24 49  1  0
 24 50  1  0
 25 26  1  0
 26 27  1  0
 26 51  1  0
 26 52  1  0
 27 53  1  0
 27 54  1  0
 28 29  1  0
 30 31  1  6
 30 32  1  0
 30 33  1  0
 32 55  1  0
 33 34  1  6
 33 35  1  0
 35 56  1  0
M  END

