
     RDKit          3D

 31 31  0  0  0  0  0  0  0  0999 V2000
    3.4209    2.3623   -2.3700 O   0  0  0  0  0  0  0  0  0  0  0  0
    3.4691    2.3501   -1.1660 C   0  0  0  0  0  0  0  0  0  0  0  0
    3.0212    3.4091   -0.4623 O   0  0  0  0  0  0  0  0  0  0  0  0
    4.0292    1.1964   -0.3457 C   0  0  0  0  0  0  0  0  0  0  0  0
    4.3865   -0.0229   -1.2049 C   0  0  0  0  0  0  0  0  0  0  0  0
    5.3856    0.2534   -2.2178 N   0  0  0  0  0  0  0  0  0  0  0  0
    6.7229    0.2304   -1.8826 C   0  0  0  0  0  0  0  0  0  0  0  0
    7.1260   -0.1436   -0.7925 O   0  0  0  0  0  0  0  0  0  0  0  0
    7.5496    0.6488   -2.9196 N   0  0  0  0  0  0  0  0  0  0  0  0
    8.9456    0.7766   -2.9206 C   0  0  0  0  0  0  0  0  0  0  0  0
    9.7615    0.4568   -1.8179 C   0  0  0  0  0  0  0  0  0  0  0  0
   11.1437    0.6244   -1.9074 C   0  0  0  0  0  0  0  0  0  0  0  0
   11.7486    1.0934   -3.0730 C   0  0  0  0  0  0  0  0  0  0  0  0
   13.1244    1.1775   -3.1642 O   0  0  0  0  0  0  0  0  0  0  0  0
   13.6746    2.4319   -3.2646 C   0  0  1  0  0  0  0  0  0  0  0  0
   13.5990    3.0738   -2.0733 F   0  0  0  0  0  0  0  0  0  0  0  0
   14.9671    2.2636   -3.5634 F   0  0  0  0  0  0  0  0  0  0  0  0
   10.9279    1.4007   -4.1639 C   0  0  0  0  0  0  0  0  0  0  0  0
   11.4883    1.8574   -5.2962 F   0  0  0  0  0  0  0  0  0  0  0  0
    9.5494    1.2557   -4.0993 C   0  0  0  0  0  0  0  0  0  0  0  0
    3.1246    3.2577    0.4885 H   0  0  0  0  0  0  0  0  0  0  0  0
    3.2915    0.9136    0.4271 H   0  0  0  0  0  0  0  0  0  0  0  0
    4.9274    1.5461    0.1940 H   0  0  0  0  0  0  0  0  0  0  0  0
    3.4819   -0.4001   -1.7058 H   0  0  0  0  0  0  0  0  0  0  0  0
    4.7757   -0.8170   -0.5543 H   0  0  0  0  0  0  0  0  0  0  0  0
    5.0683    0.8721   -2.9586 H   0  0  0  0  0  0  0  0  0  0  0  0
    7.0984    0.8522   -3.8034 H   0  0  0  0  0  0  0  0  0  0  0  0
    9.3013    0.0806   -0.9081 H   0  0  0  0  0  0  0  0  0  0  0  0
   11.7872    0.3799   -1.0601 H   0  0  0  0  0  0  0  0  0  0  0  0
   13.1895    3.0613   -4.0302 H   0  0  0  0  0  0  0  0  0  0  0  0
    8.9602    1.5180   -4.9812 H   0  0  0  0  0  0  0  0  0  0  0  0
  1  2  2  0
  2  3  1  0
  2  4  1  0
  3 21  1  0
  4  5  1  0
  4 22  1  0
  4 23  1  0
  5  6  1  0
  5 24  1  0
  5 25  1  0
  6  7  1  0
  6 26  1  0
  7  8  2  0
  7  9  1  0
  9 10  1  0
  9 27  1  0
 10 11  2  0
 10 20  1  0
 11 12  1  0
 11 28  1  0
 12 13  2  0
 12 29  1  0
 13 14  1  0
 13 18  1  0
 14 15  1  0
 15 16  1  0
 15 17  1  0
 15 30  1  6
 18 19  1  0
 18 20  2  0
 20 31  1  0
M  END

