
     RDKit          3D

 45 46  0  0  0  0  0  0  0  0999 V2000
    2.1758    3.8395   -1.9285 C   0  0  0  0  0  0  0  0  0  0  0  0
    2.7457    3.2216   -0.6514 C   0  0  0  0  0  0  0  0  0  0  0  0
    3.0933    1.8056   -0.7942 N   0  0  0  0  0  0  0  0  0  0  0  0
    2.1032    0.7940   -0.4457 C   0  0  0  0  0  0  0  0  0  0  0  0
    2.1588    0.3438    1.0165 C   0  0  0  0  0  0  0  0  0  0  0  0
    4.3284    1.4740   -1.2509 C   0  0  0  0  0  0  0  0  0  0  0  0
    5.2357    2.3562   -1.5888 N   0  0  0  0  0  0  0  0  0  0  0  0
    6.3914    1.7572   -2.0113 C   0  0  0  0  0  0  0  0  0  0  0  0
    7.4346    2.5401   -2.3650 N   0  0  0  0  0  0  0  0  0  0  0  0
    6.3985    0.3509   -2.0541 C   0  0  0  0  0  0  0  0  0  0  0  0
    7.6027   -0.4223   -2.3453 C   0  0  0  0  0  0  0  0  0  0  0  0
    8.6883    0.1716   -2.4648 O   0  0  0  0  0  0  0  0  0  0  0  0
    7.5694   -1.8044   -2.4533 N   0  0  0  0  0  0  0  0  0  0  0  0
    8.8392   -2.5231   -2.5508 C   0  0  0  0  0  0  0  0  0  0  0  0
    8.7972   -3.7892   -1.6885 C   0  0  0  0  0  0  0  0  0  0  0  0
    7.6079   -4.6873   -2.0417 C   0  0  2  0  0  0  0  0  0  0  0  0
    7.8622   -5.2312   -3.3317 O   0  0  0  0  0  0  0  0  0  0  0  0
    7.1399   -6.3882   -3.6571 C   0  0  0  0  0  0  0  0  0  0  0  0
    6.3029   -3.8715   -2.0158 C   0  0  0  0  0  0  0  0  0  0  0  0
    6.4299   -2.6103   -2.8758 C   0  0  0  0  0  0  0  0  0  0  0  0
    4.8258   -0.2113   -1.4356 S   0  0  0  0  0  0  0  0  0  0  0  0
    1.9098    4.8951   -1.7569 H   0  0  0  0  0  0  0  0  0  0  0  0
    1.2680    3.3128   -2.2652 H   0  0  0  0  0  0  0  0  0  0  0  0
    2.9213    3.8004   -2.7365 H   0  0  0  0  0  0  0  0  0  0  0  0
    2.0213    3.3028    0.1755 H   0  0  0  0  0  0  0  0  0  0  0  0
    3.6533    3.7628   -0.3494 H   0  0  0  0  0  0  0  0  0  0  0  0
    2.2349   -0.0717   -1.1165 H   0  0  0  0  0  0  0  0  0  0  0  0
    1.1075    1.2060   -0.6786 H   0  0  0  0  0  0  0  0  0  0  0  0
    3.1368   -0.1029    1.2521 H   0  0  0  0  0  0  0  0  0  0  0  0
    1.3802   -0.4101    1.2159 H   0  0  0  0  0  0  0  0  0  0  0  0
    1.9940    1.1904    1.7019 H   0  0  0  0  0  0  0  0  0  0  0  0
    7.3792    3.5254   -2.1475 H   0  0  0  0  0  0  0  0  0  0  0  0
    8.3231    2.0526   -2.4792 H   0  0  0  0  0  0  0  0  0  0  0  0
    9.6390   -1.8440   -2.2347 H   0  0  0  0  0  0  0  0  0  0  0  0
    9.0378   -2.8012   -3.6031 H   0  0  0  0  0  0  0  0  0  0  0  0
    8.7227   -3.5045   -0.6256 H   0  0  0  0  0  0  0  0  0  0  0  0
    9.7283   -4.3630   -1.8197 H   0  0  0  0  0  0  0  0  0  0  0  0
    7.5396   -5.5164   -1.3080 H   0  0  0  0  0  0  0  0  0  0  0  0
    7.4843   -6.7283   -4.6452 H   0  0  0  0  0  0  0  0  0  0  0  0
    6.0469   -6.2171   -3.7162 H   0  0  0  0  0  0  0  0  0  0  0  0
    7.3154   -7.2034   -2.9254 H   0  0  0  0  0  0  0  0  0  0  0  0
    6.0788   -3.5861   -0.9740 H   0  0  0  0  0  0  0  0  0  0  0  0
    5.4575   -4.4838   -2.3709 H   0  0  0  0  0  0  0  0  0  0  0  0
    5.5045   -2.0250   -2.8480 H   0  0  0  0  0  0  0  0  0  0  0  0
    6.5767   -2.9146   -3.9307 H   0  0  0  0  0  0  0  0  0  0  0  0
  1  2  1  0
  1 22  1  0
  1 23  1  0
  1 24  1  0
  2  3  1  0
  2 25  1  0
  2 26  1  0
  3  4  1  0
  3  6  1  0
  4  5  1  0
  4 27  1  0
  4 28  1  0
  5 29  1  0
  5 30  1  0
  5 31  1  0
  6  7  2  0
  6 21  1  0
  7  8  1  0
  8  9  1  0
  8 10  2  0
  9 32  1  0
  9 33  1  0
 10 11  1  0
 10 21  1  0
 11 12  2  0
 11 13  1  0
 13 14  1  0
 13 20  1  0
 14 15  1  0
 14 34  1  0
 14 35  1  0
 15 16  1  0
 15 36  1  0
 15 37  1  0
 16 17  1  0
 16 19  1  0
 16 38  1  1
 17 18  1  0
 18 39  1  0
 18 40  1  0
 18 41  1  0
 19 20  1  0
 19 42  1  0
 19 43  1  0
 20 44  1  0
 20 45  1  0
M  END

