
     RDKit          3D

 53 56  0  0  0  0  0  0  0  0999 V2000
    1.4879   -0.0461   -0.5666 C   0  0  0  0  0  0  0  0  0  0  0  0
    3.0123   -0.2179   -0.4590 C   0  0  1  0  0  0  0  0  0  0  0  0
    3.5311   -0.9335   -1.7299 C   0  0  0  0  0  0  0  0  0  0  0  0
    3.9830   -2.0463   -1.7469 O   0  0  0  0  0  0  0  0  0  0  0  0
    3.4236   -0.2331   -2.8793 O   0  0  0  0  0  0  0  0  0  0  0  0
    3.7739    1.1124   -0.2183 C   0  0  0  0  0  0  0  0  0  0  0  0
    5.1171    0.6794    0.3801 C   0  0  0  0  0  0  0  0  0  0  0  0
    4.7990   -0.5850    1.0464 N   0  0  0  0  0  0  0  0  0  0  0  0
    5.8295   -1.2913    1.6346 C   0  0  0  0  0  0  0  0  0  0  0  0
    6.9566   -0.8236    1.6887 O   0  0  0  0  0  0  0  0  0  0  0  0
    5.4635   -2.5307    2.1419 N   0  0  0  0  0  0  0  0  0  0  0  0
    6.2951   -3.5295    2.6845 C   0  0  0  0  0  0  0  0  0  0  0  0
    7.6157   -3.2563    3.0921 C   0  0  0  0  0  0  0  0  0  0  0  0
    8.4130   -4.2707    3.6194 C   0  0  0  0  0  0  0  0  0  0  0  0
    7.9181   -5.5697    3.7603 C   0  0  0  0  0  0  0  0  0  0  0  0
    6.6084   -5.8373    3.3647 C   0  0  0  0  0  0  0  0  0  0  0  0
    5.7788   -4.8427    2.8280 C   0  0  0  0  0  0  0  0  0  0  0  0
    4.3781   -5.2397    2.3956 C   0  0  0  0  0  0  0  0  0  0  0  0
    4.3317   -5.8712    1.0918 N   0  0  0  0  0  0  0  0  0  0  0  0
    4.9950   -5.2564   -0.0704 C   0  0  0  0  0  0  0  0  0  0  0  0
    4.5143   -6.1053   -1.2656 C   0  0  0  0  0  0  0  0  0  0  0  0
    3.2069   -6.6722   -0.7555 C   0  0  0  0  0  0  0  0  0  0  0  0
    2.1642   -7.3072   -1.4141 C   0  0  0  0  0  0  0  0  0  0  0  0
    1.0627   -7.7783   -0.6761 C   0  0  0  0  0  0  0  0  0  0  0  0
    1.0294   -7.6039    0.7090 C   0  0  0  0  0  0  0  0  0  0  0  0
    2.0765   -6.9629    1.3902 C   0  0  0  0  0  0  0  0  0  0  0  0
    3.1738   -6.5081    0.6479 C   0  0  0  0  0  0  0  0  0  0  0  0
    3.4395   -1.0345    0.7747 C   0  0  0  0  0  0  0  0  0  0  0  0
    1.2026    0.5806   -1.4268 H   0  0  0  0  0  0  0  0  0  0  0  0
    1.0932    0.4386    0.3397 H   0  0  0  0  0  0  0  0  0  0  0  0
    0.9844   -1.0185   -0.6839 H   0  0  0  0  0  0  0  0  0  0  0  0
    3.0481    0.6437   -2.7165 H   0  0  0  0  0  0  0  0  0  0  0  0
    3.2002    1.7146    0.5050 H   0  0  0  0  0  0  0  0  0  0  0  0
    3.9006    1.7310   -1.1207 H   0  0  0  0  0  0  0  0  0  0  0  0
    5.5268    1.4164    1.0879 H   0  0  0  0  0  0  0  0  0  0  0  0
    5.8884    0.5219   -0.3941 H   0  0  0  0  0  0  0  0  0  0  0  0
    4.5050   -2.8121    1.9960 H   0  0  0  0  0  0  0  0  0  0  0  0
    8.0002   -2.2469    2.9703 H   0  0  0  0  0  0  0  0  0  0  0  0
    9.4358   -4.0356    3.9258 H   0  0  0  0  0  0  0  0  0  0  0  0
    8.5428   -6.3640    4.1754 H   0  0  0  0  0  0  0  0  0  0  0  0
    6.2061   -6.8495    3.4646 H   0  0  0  0  0  0  0  0  0  0  0  0
    3.6704   -4.3790    2.4532 H   0  0  0  0  0  0  0  0  0  0  0  0
    3.9919   -5.9629    3.1304 H   0  0  0  0  0  0  0  0  0  0  0  0
    6.0873   -5.2556    0.0536 H   0  0  0  0  0  0  0  0  0  0  0  0
    4.6696   -4.2052   -0.2056 H   0  0  0  0  0  0  0  0  0  0  0  0
    5.2279   -6.9213   -1.4818 H   0  0  0  0  0  0  0  0  0  0  0  0
    4.4114   -5.5033   -2.1805 H   0  0  0  0  0  0  0  0  0  0  0  0
    2.1944   -7.4352   -2.5002 H   0  0  0  0  0  0  0  0  0  0  0  0
    0.2334   -8.2738   -1.1864 H   0  0  0  0  0  0  0  0  0  0  0  0
    0.1685   -7.9640    1.2792 H   0  0  0  0  0  0  0  0  0  0  0  0
    2.0231   -6.8289    2.4723 H   0  0  0  0  0  0  0  0  0  0  0  0
    2.7567   -0.8249    1.6210 H   0  0  0  0  0  0  0  0  0  0  0  0
    3.3946   -2.1086    0.5443 H   0  0  0  0  0  0  0  0  0  0  0  0
  1  2  1  0
  1 29  1  0
  1 30  1  0
  1 31  1  0
  2  3  1  6
  2  6  1  0
  2 28  1  0
  3  4  2  0
  3  5  1  0
  5 32  1  0
  6  7  1  0
  6 33  1  0
  6 34  1  0
  7  8  1  0
  7 35  1  0
  7 36  1  0
  8  9  1  0
  8 28  1  0
  9 10  2  0
  9 11  1  0
 11 12  1  0
 11 37  1  0
 12 13  2  0
 12 17  1  0
 13 14  1  0
 13 38  1  0
 14 15  2  0
 14 39  1  0
 15 16  1  0
 15 40  1  0
 16 17  2  0
 16 41  1  0
 17 18  1  0
 18 19  1  0
 18 42  1  0
 18 43  1  0
 19 20  1  0
 19 27  1  0
 20 21  1  0
 20 44  1  0
 20 45  1  0
 21 22  1  0
 21 46  1  0
 21 47  1  0
 22 23  1  0
 22 27  2  0
 23 24  2  0
 23 48  1  0
 24 25  1  0
 24 49  1  0
 25 26  2  0
 25 50  1  0
 26 27  1  0
 26 51  1  0
 28 52  1  0
 28 53  1  0
M  END

