
     RDKit          3D

 38 40  0  0  0  0  0  0  0  0999 V2000
    0.7804    0.2902    0.5265 C   0  0  0  0  0  0  0  0  0  0  0  0
    2.2536    0.2228    0.2095 C   0  0  0  0  0  0  0  0  0  0  0  0
    2.8894    1.2160   -0.5509 C   0  0  0  0  0  0  0  0  0  0  0  0
    4.2489    1.1425   -0.8535 C   0  0  0  0  0  0  0  0  0  0  0  0
    5.0378    0.0698   -0.3955 C   0  0  0  0  0  0  0  0  0  0  0  0
    6.4717    0.0083   -0.7057 C   0  0  0  0  0  0  0  0  0  0  0  0
    7.3276    1.0378   -1.0550 C   0  0  0  0  0  0  0  0  0  0  0  0
    8.6599    0.6160   -1.2913 C   0  0  0  0  0  0  0  0  0  0  0  0
    8.8517   -0.7441   -1.1260 C   0  0  0  0  0  0  0  0  0  0  0  0
   10.0846   -1.5220   -1.2805 C   0  0  0  0  0  0  0  0  0  0  0  0
   10.2178   -2.8128   -0.7241 C   0  0  0  0  0  0  0  0  0  0  0  0
   11.3928   -3.5457   -0.8729 C   0  0  0  0  0  0  0  0  0  0  0  0
   12.4584   -2.9925   -1.5879 C   0  0  0  0  0  0  0  0  0  0  0  0
   13.9848   -3.9276   -1.7720 S   0  0  1  0  0  0  0  0  0  0  0  0
   13.7598   -4.8600   -3.3053 C   0  0  0  0  0  0  0  0  0  0  0  0
   15.0753   -2.9704   -2.0072 O   0  0  0  0  0  0  0  0  0  0  0  0
   14.0491   -4.9076   -0.6785 O   0  0  0  0  0  0  0  0  0  0  0  0
   12.3660   -1.7087   -2.1346 C   0  0  0  0  0  0  0  0  0  0  0  0
   11.1845   -0.9873   -1.9877 C   0  0  0  0  0  0  0  0  0  0  0  0
    7.3409   -1.5065   -0.6834 S   0  0  0  0  0  0  0  0  0  0  0  0
    4.3994   -0.9270    0.3705 C   0  0  0  0  0  0  0  0  0  0  0  0
    3.0397   -0.8507    0.6614 C   0  0  0  0  0  0  0  0  0  0  0  0
    0.3358    1.2377    0.1883 H   0  0  0  0  0  0  0  0  0  0  0  0
    0.5983    0.1981    1.6100 H   0  0  0  0  0  0  0  0  0  0  0  0
    0.2287   -0.5314    0.0383 H   0  0  0  0  0  0  0  0  0  0  0  0
    2.3059    2.0624   -0.9241 H   0  0  0  0  0  0  0  0  0  0  0  0
    4.7002    1.9220   -1.4710 H   0  0  0  0  0  0  0  0  0  0  0  0
    7.0103    2.0796   -1.1096 H   0  0  0  0  0  0  0  0  0  0  0  0
    9.4666    1.3044   -1.5460 H   0  0  0  0  0  0  0  0  0  0  0  0
    9.3957   -3.2397   -0.1450 H   0  0  0  0  0  0  0  0  0  0  0  0
   11.5010   -4.5326   -0.4185 H   0  0  0  0  0  0  0  0  0  0  0  0
   13.6264   -4.1602   -4.1402 H   0  0  0  0  0  0  0  0  0  0  0  0
   12.8999   -5.5336   -3.1984 H   0  0  0  0  0  0  0  0  0  0  0  0
   14.6891   -5.4345   -3.4265 H   0  0  0  0  0  0  0  0  0  0  0  0
   13.2220   -1.2835   -2.6623 H   0  0  0  0  0  0  0  0  0  0  0  0
   11.1097    0.0047   -2.4366 H   0  0  0  0  0  0  0  0  0  0  0  0
    4.9821   -1.7658    0.7599 H   0  0  0  0  0  0  0  0  0  0  0  0
    2.5785   -1.6402    1.2622 H   0  0  0  0  0  0  0  0  0  0  0  0
  1  2  1  0
  1 23  1  0
  1 24  1  0
  1 25  1  0
  2  3  2  0
  2 22  1  0
  3  4  1  0
  3 26  1  0
  4  5  2  0
  4 27  1  0
  5  6  1  0
  5 21  1  0
  6  7  2  0
  6 20  1  0
  7  8  1  0
  7 28  1  0
  8  9  2  0
  8 29  1  0
  9 10  1  0
  9 20  1  0
 10 11  2  0
 10 19  1  0
 11 12  1  0
 11 30  1  0
 12 13  2  0
 12 31  1  0
 13 14  1  0
 13 18  1  0
 14 15  1  6
 14 16  2  0
 14 17  2  0
 15 32  1  0
 15 33  1  0
 15 34  1  0
 18 19  2  0
 18 35  1  0
 19 36  1  0
 21 22  2  0
 21 37  1  0
 22 38  1  0
M  END

