
     RDKit          3D

 47 50  0  0  0  0  0  0  0  0999 V2000
    0.8777    0.9517    0.7781 C   0  0  0  0  0  0  0  0  0  0  0  0
    2.3668    0.6760    0.7921 C   0  0  0  0  0  0  0  0  0  0  0  0
    3.0430    1.9298    0.6042 O   0  0  0  0  0  0  0  0  0  0  0  0
    4.3795    1.9369    0.5805 C   0  0  0  0  0  0  0  0  0  0  0  0
    5.0295    3.1823    0.3936 C   0  0  0  0  0  0  0  0  0  0  0  0
    6.4020    3.1784    0.3684 C   0  0  0  0  0  0  0  0  0  0  0  0
    7.0399    1.9230    0.5354 C   0  0  0  0  0  0  0  0  0  0  0  0
    8.4572    1.8512    0.5208 N   0  0  0  0  0  0  0  0  0  0  0  0
    9.1413    3.0252    0.4946 N   0  0  0  0  0  0  0  0  0  0  0  0
   10.4124    2.6877    0.4924 C   0  0  0  0  0  0  0  0  0  0  0  0
   10.5876    1.2741    0.5121 C   0  0  0  0  0  0  0  0  0  0  0  0
   11.8550    0.4944    0.4930 C   0  0  0  0  0  0  0  0  0  0  0  0
   11.9102   -0.6803    0.1568 O   0  0  0  0  0  0  0  0  0  0  0  0
   12.9586    1.2228    0.8873 N   0  0  0  0  0  0  0  0  0  0  0  0
   14.3111    0.8300    0.9415 C   0  0  0  0  0  0  0  0  0  0  0  0
   14.7696   -0.4442    0.5564 C   0  0  0  0  0  0  0  0  0  0  0  0
   16.1323   -0.7334    0.6287 C   0  0  0  0  0  0  0  0  0  0  0  0
   17.0569    0.2082    1.0842 C   0  0  0  0  0  0  0  0  0  0  0  0
   16.5952    1.4758    1.4895 C   0  0  0  0  0  0  0  0  0  0  0  0
   15.2357    1.7781    1.4101 C   0  0  0  0  0  0  0  0  0  0  0  0
   17.4499    2.4338    1.9608 O   0  0  0  0  0  0  0  0  0  0  0  0
   18.7353    1.9486    2.3189 C   0  0  0  0  0  0  0  0  0  0  0  0
   19.2542    0.9928    1.2569 C   0  0  0  0  0  0  0  0  0  0  0  0
   18.3863   -0.1204    1.1312 O   0  0  0  0  0  0  0  0  0  0  0  0
    9.2907    0.7523    0.5216 C   0  0  0  0  0  0  0  0  0  0  0  0
    8.8504   -0.6736    0.5289 C   0  0  0  0  0  0  0  0  0  0  0  0
    6.3728    0.7983    0.7107 N   0  0  0  0  0  0  0  0  0  0  0  0
    5.0435    0.8006    0.7297 N   0  0  0  0  0  0  0  0  0  0  0  0
    0.3218    0.0119    0.9194 H   0  0  0  0  0  0  0  0  0  0  0  0
    0.5676    1.3962   -0.1803 H   0  0  0  0  0  0  0  0  0  0  0  0
    0.5970    1.6446    1.5863 H   0  0  0  0  0  0  0  0  0  0  0  0
    2.6676   -0.0199   -0.0080 H   0  0  0  0  0  0  0  0  0  0  0  0
    2.6969    0.2266    1.7429 H   0  0  0  0  0  0  0  0  0  0  0  0
    4.4389    4.0923    0.2746 H   0  0  0  0  0  0  0  0  0  0  0  0
    6.9997    4.0777    0.2314 H   0  0  0  0  0  0  0  0  0  0  0  0
   11.1699    3.4717    0.4475 H   0  0  0  0  0  0  0  0  0  0  0  0
   12.7757    2.1553    1.2353 H   0  0  0  0  0  0  0  0  0  0  0  0
   14.0577   -1.1855    0.2044 H   0  0  0  0  0  0  0  0  0  0  0  0
   16.5076   -1.7127    0.3233 H   0  0  0  0  0  0  0  0  0  0  0  0
   14.9181    2.7738    1.7305 H   0  0  0  0  0  0  0  0  0  0  0  0
   18.6855    1.4305    3.2953 H   0  0  0  0  0  0  0  0  0  0  0  0
   19.3918    2.8254    2.4198 H   0  0  0  0  0  0  0  0  0  0  0  0
   20.2454    0.6006    1.5287 H   0  0  0  0  0  0  0  0  0  0  0  0
   19.3383    1.5222    0.2883 H   0  0  0  0  0  0  0  0  0  0  0  0
    9.7390   -1.3093    0.4459 H   0  0  0  0  0  0  0  0  0  0  0  0
    8.1681   -0.8805   -0.3084 H   0  0  0  0  0  0  0  0  0  0  0  0
    8.2872   -0.9124    1.4424 H   0  0  0  0  0  0  0  0  0  0  0  0
  1  2  1  0
  1 29  1  0
  1 30  1  0
  1 31  1  0
  2  3  1  0
  2 32  1  0
  2 33  1  0
  3  4  1  0
  4  5  2  0
  4 28  1  0
  5  6  1  0
  5 34  1  0
  6  7  2  0
  6 35  1  0
  7  8  1  0
  7 27  1  0
  8  9  1  0
  8 25  1  0
  9 10  2  0
 10 11  1  0
 10 36  1  0
 11 12  1  0
 11 25  2  0
 12 13  2  0
 12 14  1  0
 14 15  1  0
 14 37  1  0
 15 16  2  0
 15 20  1  0
 16 17  1  0
 16 38  1  0
 17 18  2  0
 17 39  1  0
 18 19  1  0
 18 24  1  0
 19 20  2  0
 19 21  1  0
 20 40  1  0
 21 22  1  0
 22 23  1  0
 22 41  1  0
 22 42  1  0
 23 24  1  0
 23 43  1  0
 23 44  1  0
 25 26  1  0
 26 45  1  0
 26 46  1  0
 26 47  1  0
 27 28  2  0
M  END

