
     RDKit          3D

 38 39  0  0  0  0  0  0  0  0999 V2000
    0.9322   -0.1789    0.2286 C   0  0  0  0  0  0  0  0  0  0  0  0
    2.4416   -0.1310    0.1671 C   0  0  0  0  0  0  0  0  0  0  0  0
    3.1508   -1.1417   -0.2249 N   0  0  0  0  0  0  0  0  0  0  0  0
    2.5440   -2.2710   -0.6016 N   0  0  0  0  0  0  0  0  0  0  0  0
    3.2701   -3.3669   -1.0566 C   0  0  0  0  0  0  0  0  0  0  0  0
    4.6592   -3.2752   -1.2646 C   0  0  0  0  0  0  0  0  0  0  0  0
    5.3770   -4.3727   -1.7314 C   0  0  0  0  0  0  0  0  0  0  0  0
    4.7378   -5.5862   -2.0078 C   0  0  0  0  0  0  0  0  0  0  0  0
    3.3636   -5.6891   -1.7986 C   0  0  0  0  0  0  0  0  0  0  0  0
    2.6222   -4.6006   -1.3241 C   0  0  0  0  0  0  0  0  0  0  0  0
    1.1537   -4.7711   -1.0438 C   0  0  1  0  0  0  0  0  0  0  0  0
    0.8702   -4.6431    0.2711 F   0  0  0  0  0  0  0  0  0  0  0  0
    0.4042   -3.8205   -1.6705 F   0  0  0  0  0  0  0  0  0  0  0  0
    0.6827   -5.9578   -1.4385 F   0  0  0  0  0  0  0  0  0  0  0  0
    3.1847    1.0917    0.5577 C   0  0  0  0  0  0  0  0  0  0  0  0
    4.5693    1.0271    0.8326 C   0  0  0  0  0  0  0  0  0  0  0  0
    5.2867    2.1631    1.1865 C   0  0  0  0  0  0  0  0  0  0  0  0
    4.6260    3.3957    1.2626 C   0  0  0  0  0  0  0  0  0  0  0  0
    5.5449    4.8634    1.7221 S   0  0  1  0  0  0  0  0  0  0  0  0
    6.2679    5.3448    0.2698 N   0  0  0  0  0  0  0  0  0  0  0  0
    4.5720    5.8890    2.1087 O   0  0  0  0  0  0  0  0  0  0  0  0
    6.6444    4.4531    2.5987 O   0  0  0  0  0  0  0  0  0  0  0  0
    3.2590    3.4926    1.0073 C   0  0  0  0  0  0  0  0  0  0  0  0
    2.5471    2.3432    0.6578 C   0  0  0  0  0  0  0  0  0  0  0  0
    0.5928   -1.1163    0.7025 H   0  0  0  0  0  0  0  0  0  0  0  0
    0.4783   -0.1367   -0.7781 H   0  0  0  0  0  0  0  0  0  0  0  0
    0.5138    0.6440    0.8190 H   0  0  0  0  0  0  0  0  0  0  0  0
    1.5291   -2.3179   -0.6331 H   0  0  0  0  0  0  0  0  0  0  0  0
    5.1511   -2.3260   -1.0590 H   0  0  0  0  0  0  0  0  0  0  0  0
    6.4544   -4.2746   -1.8878 H   0  0  0  0  0  0  0  0  0  0  0  0
    5.3028   -6.4436   -2.3782 H   0  0  0  0  0  0  0  0  0  0  0  0
    2.8466   -6.6285   -1.9982 H   0  0  0  0  0  0  0  0  0  0  0  0
    5.0686    0.0595    0.7779 H   0  0  0  0  0  0  0  0  0  0  0  0
    6.3504    2.1021    1.4235 H   0  0  0  0  0  0  0  0  0  0  0  0
    5.8250    6.1927   -0.0842 H   0  0  0  0  0  0  0  0  0  0  0  0
    7.2681    5.4756    0.4233 H   0  0  0  0  0  0  0  0  0  0  0  0
    2.7595    4.4589    1.0932 H   0  0  0  0  0  0  0  0  0  0  0  0
    1.4803    2.4380    0.4494 H   0  0  0  0  0  0  0  0  0  0  0  0
  1  2  1  0
  1 25  1  0
  1 26  1  0
  1 27  1  0
  2  3  2  0
  2 15  1  0
  3  4  1  0
  4  5  1  0
  4 28  1  0
  5  6  2  0
  5 10  1  0
  6  7  1  0
  6 29  1  0
  7  8  2  0
  7 30  1  0
  8  9  1  0
  8 31  1  0
  9 10  2  0
  9 32  1  0
 10 11  1  0
 11 12  1  1
 11 13  1  0
 11 14  1  0
 15 16  2  0
 15 24  1  0
 16 17  1  0
 16 33  1  0
 17 18  2  0
 17 34  1  0
 18 19  1  0
 18 23  1  0
 19 20  1  6
 19 21  2  0
 19 22  2  0
 20 35  1  0
 20 36  1  0
 23 24  2  0
 23 37  1  0
 24 38  1  0
M  END

