
     RDKit          3D

 34 35  0  0  0  0  0  0  0  0999 V2000
    3.7551   -4.4806   -1.3889 C   0  0  0  0  0  0  0  0  0  0  0  0
    2.4176   -4.0875   -0.7382 C   0  0  1  0  0  0  0  0  0  0  0  0
    1.5428   -5.2084   -0.3901 N   0  0  0  0  0  0  0  0  0  0  0  0
    2.6517   -3.2731    0.5161 C   0  0  0  0  0  0  0  0  0  0  0  0
    3.3824   -3.6681    1.5169 N   0  0  0  0  0  0  0  0  0  0  0  0
    3.3865   -2.7528    2.5434 C   0  0  0  0  0  0  0  0  0  0  0  0
    4.1604   -2.9963    3.8019 C   0  0  0  0  0  0  0  0  0  0  0  0
    4.1688   -2.1969    4.7272 O   0  0  0  0  0  0  0  0  0  0  0  0
    4.8400   -4.1777    3.8038 N   0  0  0  0  0  0  0  0  0  0  0  0
    5.6401   -4.6182    4.9344 C   0  0  1  0  0  0  0  0  0  0  0  0
    4.8717   -5.5732    5.8650 C   0  0  0  0  0  0  0  0  0  0  0  0
    4.4882   -6.8613    5.1297 C   0  0  0  0  0  0  0  0  0  0  0  0
    5.5975   -7.4770    4.2802 C   0  0  0  0  0  0  0  0  0  0  0  0
    5.5648   -8.6368    3.9116 O   0  0  0  0  0  0  0  0  0  0  0  0
    6.5983   -6.6221    3.8765 N   0  0  0  0  0  0  0  0  0  0  0  0
    6.9110   -5.3174    4.4511 C   0  0  0  0  0  0  0  0  0  0  0  0
    2.6410   -1.6213    2.3247 C   0  0  0  0  0  0  0  0  0  0  0  0
    1.8990   -1.7096    0.7733 S   0  0  0  0  0  0  0  0  0  0  0  0
    3.5717   -5.0783   -2.2964 H   0  0  0  0  0  0  0  0  0  0  0  0
    4.3578   -5.0809   -0.6898 H   0  0  0  0  0  0  0  0  0  0  0  0
    4.3450   -3.5948   -1.6754 H   0  0  0  0  0  0  0  0  0  0  0  0
    1.8611   -3.4496   -1.4462 H   0  0  0  0  0  0  0  0  0  0  0  0
    2.0141   -5.8063    0.2912 H   0  0  0  0  0  0  0  0  0  0  0  0
    1.3696   -5.7845   -1.2146 H   0  0  0  0  0  0  0  0  0  0  0  0
    4.7533   -4.7624    2.9775 H   0  0  0  0  0  0  0  0  0  0  0  0
    5.9143   -3.7104    5.4915 H   0  0  0  0  0  0  0  0  0  0  0  0
    3.9773   -5.0684    6.2604 H   0  0  0  0  0  0  0  0  0  0  0  0
    5.5163   -5.8055    6.7305 H   0  0  0  0  0  0  0  0  0  0  0  0
    3.6513   -6.6670    4.4356 H   0  0  0  0  0  0  0  0  0  0  0  0
    4.1346   -7.6454    5.8147 H   0  0  0  0  0  0  0  0  0  0  0  0
    7.3201   -7.0842    3.3300 H   0  0  0  0  0  0  0  0  0  0  0  0
    7.4110   -4.7013    3.6870 H   0  0  0  0  0  0  0  0  0  0  0  0
    7.6105   -5.4126    5.3039 H   0  0  0  0  0  0  0  0  0  0  0  0
    2.5177   -0.7786    3.0015 H   0  0  0  0  0  0  0  0  0  0  0  0
  1  2  1  0
  1 19  1  0
  1 20  1  0
  1 21  1  0
  2  3  1  0
  2  4  1  0
  2 22  1  6
  3 23  1  0
  3 24  1  0
  4  5  2  0
  4 18  1  0
  5  6  1  0
  6  7  1  0
  6 17  2  0
  7  8  2  0
  7  9  1  0
  9 10  1  0
  9 25  1  0
 10 11  1  0
 10 16  1  0
 10 26  1  1
 11 12  1  0
 11 27  1  0
 11 28  1  0
 12 13  1  0
 12 29  1  0
 12 30  1  0
 13 14  2  0
 13 15  1  0
 15 16  1  0
 15 31  1  0
 16 32  1  0
 16 33  1  0
 17 18  1  0
 17 34  1  0
M  END

