
     RDKit          3D

 73 76  0  0  0  0  0  0  0  0999 V2000
    7.9607    0.8545   -1.1938 C   0  0  0  0  0  0  0  0  0  0  0  0
    7.7849   -0.1772   -0.0969 C   0  0  0  0  0  0  0  0  0  0  0  0
    8.7357   -0.5875    0.5617 O   0  0  0  0  0  0  0  0  0  0  0  0
    6.5144   -0.6225    0.1180 N   0  0  0  0  0  0  0  0  0  0  0  0
    6.1524   -1.4341    1.2820 C   0  0  1  0  0  0  0  0  0  0  0  0
    6.8311   -1.1282    2.0966 H   0  0  0  0  0  0  0  0  0  0  0  0
    4.6923   -1.1910    1.6924 C   0  0  0  0  0  0  0  0  0  0  0  0
    4.3614    0.2584    1.9636 C   0  0  0  0  0  0  0  0  0  0  0  0
    3.5523    1.0142    1.1004 C   0  0  0  0  0  0  0  0  0  0  0  0
    3.2912    2.3520    1.3869 C   0  0  0  0  0  0  0  0  0  0  0  0
    3.8540    2.9193    2.5417 C   0  0  0  0  0  0  0  0  0  0  0  0
    3.5980    4.3784    2.8718 C   0  0  0  0  0  0  0  0  0  0  0  0
    2.1754    4.6364    3.0848 N   0  0  0  0  0  0  0  0  0  0  0  0
    1.6847    4.0739    4.3509 C   0  0  0  0  0  0  0  0  0  0  0  0
    2.2564    4.6923    5.6188 C   0  0  0  0  0  0  0  0  0  0  0  0
    3.3542    4.1206    6.2849 C   0  0  0  0  0  0  0  0  0  0  0  0
    3.8388    4.7350    7.4412 C   0  0  0  0  0  0  0  0  0  0  0  0
    3.2187    5.9006    7.8948 C   0  0  0  0  0  0  0  0  0  0  0  0
    2.1405    6.4018    7.1583 C   0  0  0  0  0  0  0  0  0  0  0  0
    1.6694    5.8177    6.0553 N   0  0  0  0  0  0  0  0  0  0  0  0
    1.6869    5.9794    2.7668 C   0  0  1  0  0  0  0  0  0  0  0  0
    2.2043    6.5065    1.4252 C   0  0  0  0  0  0  0  0  0  0  0  0
    2.6091    7.8459    1.3180 C   0  0  0  0  0  0  0  0  0  0  0  0
    2.9893    8.3420    0.0705 C   0  0  0  0  0  0  0  0  0  0  0  0
    2.9584    7.4863   -1.0318 C   0  0  0  0  0  0  0  0  0  0  0  0
    2.5451    6.1667   -0.8252 C   0  0  0  0  0  0  0  0  0  0  0  0
    2.1747    5.6885    0.3638 N   0  0  0  0  0  0  0  0  0  0  0  0
    0.1569    6.0319    2.6724 C   0  0  0  0  0  0  0  0  0  0  0  0
   -0.5835    4.9750    2.1209 C   0  0  0  0  0  0  0  0  0  0  0  0
   -1.9664    5.1145    2.0110 C   0  0  0  0  0  0  0  0  0  0  0  0
   -2.5623    6.3028    2.4422 C   0  0  0  0  0  0  0  0  0  0  0  0
   -1.7343    7.3023    2.9601 C   0  0  0  0  0  0  0  0  0  0  0  0
   -0.4105    7.1738    3.0725 N   0  0  0  0  0  0  0  0  0  0  0  0
    4.6121    2.2036    3.3823 N   0  0  0  0  0  0  0  0  0  0  0  0
    4.8533    0.9217    3.0976 C   0  0  0  0  0  0  0  0  0  0  0  0
    6.3983   -2.9465    1.0340 C   0  0  0  0  0  0  0  0  0  0  0  0
    5.4882   -3.7582    1.0346 O   0  0  0  0  0  0  0  0  0  0  0  0
    7.7088   -3.2639    0.8302 N   0  0  0  0  0  0  0  0  0  0  0  0
    8.1590   -4.6260    0.6413 C   0  0  0  0  0  0  0  0  0  0  0  0
    8.6735   -4.9901   -0.7594 C   0  0  0  0  0  0  0  0  0  0  0  0
    8.3320   -4.1283   -1.7555 N   0  0  0  0  0  0  0  0  0  0  0  0
    9.3233   -6.0026   -0.9350 O   0  0  0  0  0  0  0  0  0  0  0  0
    8.2875    1.7992   -0.7319 H   0  0  0  0  0  0  0  0  0  0  0  0
    7.0488    1.0416   -1.7790 H   0  0  0  0  0  0  0  0  0  0  0  0
    8.7685    0.5265   -1.8640 H   0  0  0  0  0  0  0  0  0  0  0  0
    5.7592   -0.2201   -0.4249 H   0  0  0  0  0  0  0  0  0  0  0  0
    4.4991   -1.8072    2.5833 H   0  0  0  0  0  0  0  0  0  0  0  0
    4.0334   -1.5994    0.9102 H   0  0  0  0  0  0  0  0  0  0  0  0
    3.1173    0.5470    0.2104 H   0  0  0  0  0  0  0  0  0  0  0  0
    2.6626    2.9736    0.7451 H   0  0  0  0  0  0  0  0  0  0  0  0
    3.9405    4.9832    2.0223 H   0  0  0  0  0  0  0  0  0  0  0  0
    4.2322    4.6508    3.7367 H   0  0  0  0  0  0  0  0  0  0  0  0
    1.9063    2.9951    4.3439 H   0  0  0  0  0  0  0  0  0  0  0  0
    0.5928    4.1883    4.3870 H   0  0  0  0  0  0  0  0  0  0  0  0
    3.8242    3.2183    5.8857 H   0  0  0  0  0  0  0  0  0  0  0  0
    4.6897    4.3090    7.9797 H   0  0  0  0  0  0  0  0  0  0  0  0
    3.5600    6.4143    8.7967 H   0  0  0  0  0  0  0  0  0  0  0  0
    1.6312    7.3187    7.4792 H   0  0  0  0  0  0  0  0  0  0  0  0
    1.9520    6.7259    3.5372 H   0  0  0  0  0  0  0  0  0  0  0  0
    2.6130    8.4842    2.2033 H   0  0  0  0  0  0  0  0  0  0  0  0
    3.3062    9.3826   -0.0382 H   0  0  0  0  0  0  0  0  0  0  0  0
    3.2464    7.8276   -2.0287 H   0  0  0  0  0  0  0  0  0  0  0  0
    2.5098    5.4634   -1.6662 H   0  0  0  0  0  0  0  0  0  0  0  0
   -0.0654    4.0729    1.7935 H   0  0  0  0  0  0  0  0  0  0  0  0
   -2.5731    4.3073    1.5913 H   0  0  0  0  0  0  0  0  0  0  0  0
   -3.6421    6.4556    2.3773 H   0  0  0  0  0  0  0  0  0  0  0  0
   -2.1628    8.2524    3.3017 H   0  0  0  0  0  0  0  0  0  0  0  0
    5.4712    0.3752    3.8223 H   0  0  0  0  0  0  0  0  0  0  0  0
    8.3875   -2.4992    0.8795 H   0  0  0  0  0  0  0  0  0  0  0  0
    7.3094   -5.2920    0.8575 H   0  0  0  0  0  0  0  0  0  0  0  0
    8.9675   -4.8802    1.3445 H   0  0  0  0  0  0  0  0  0  0  0  0
    7.7680   -3.3096   -1.5736 H   0  0  0  0  0  0  0  0  0  0  0  0
    8.6085   -4.3524   -2.7036 H   0  0  0  0  0  0  0  0  0  0  0  0
  1  2  1  0
  1 43  1  0
  1 44  1  0
  1 45  1  0
  2  3  2  0
  2  4  1  0
  4  5  1  0
  4 46  1  0
  5  6  1  1
  5  7  1  0
  5 36  1  0
  7  8  1  0
  7 47  1  0
  7 48  1  0
  8  9  2  0
  8 35  1  0
  9 10  1  0
  9 49  1  0
 10 11  2  0
 10 50  1  0
 11 12  1  0
 11 34  1  0
 12 13  1  0
 12 51  1  0
 12 52  1  0
 13 14  1  0
 13 21  1  0
 14 15  1  0
 14 53  1  0
 14 54  1  0
 15 16  2  0
 15 20  1  0
 16 17  1  0
 16 55  1  0
 17 18  2  0
 17 56  1  0
 18 19  1  0
 18 57  1  0
 19 20  2  0
 19 58  1  0
 21 22  1  0
 21 28  1  0
 21 59  1  1
 22 23  2  0
 22 27  1  0
 23 24  1  0
 23 60  1  0
 24 25  2  0
 24 61  1  0
 25 26  1  0
 25 62  1  0
 26 27  2  0
 26 63  1  0
 28 29  2  0
 28 33  1  0
 29 30  1  0
 29 64  1  0
 30 31  2  0
 30 65  1  0
 31 32  1  0
 31 66  1  0
 32 33  2  0
 32 67  1  0
 34 35  2  0
 35 68  1  0
 36 37  2  0
 36 38  1  0
 38 39  1  0
 38 69  1  0
 39 40  1  0
 39 70  1  0
 39 71  1  0
 40 41  1  0
 40 42  2  0
 41 72  1  0
 41 73  1  0
M  END

