
     RDKit          3D

 48 51  0  0  0  0  0  0  0  0999 V2000
    1.4001    0.9428   -0.2835 C   0  0  0  0  0  0  0  0  0  0  0  0
    2.5980    0.0789    0.0921 C   0  0  1  0  0  0  0  0  0  0  0  0
    2.5370   -0.3171    1.5670 C   0  0  0  0  0  0  0  0  0  0  0  0
    2.9094   -1.1970   -0.8529 C   0  0  1  0  0  0  0  0  0  0  0  0
    2.4269   -1.1066   -2.2157 N   0  0  0  0  0  0  0  0  0  0  0  0
    1.1704   -1.5878   -2.5230 C   0  0  0  0  0  0  0  0  0  0  0  0
    0.4116   -1.9910   -1.6468 O   0  0  0  0  0  0  0  0  0  0  0  0
    0.8126   -1.6005   -3.8628 N   0  0  0  0  0  0  0  0  0  0  0  0
    1.4330   -0.7897   -4.9106 C   0  0  0  0  0  0  0  0  0  0  0  0
    1.5801   -1.5879   -6.2079 C   0  0  0  0  0  0  0  0  0  0  0  0
    0.2224   -2.1395   -6.6544 C   0  0  0  0  0  0  0  0  0  0  0  0
   -0.4457   -2.9285   -5.5216 C   0  0  0  0  0  0  0  0  0  0  0  0
   -0.5106   -2.1623   -4.1861 C   0  0  2  0  0  0  0  0  0  0  0  0
   -1.5983   -1.1021   -4.1464 C   0  0  0  0  0  0  0  0  0  0  0  0
   -2.1679   -0.5591   -5.1857 N   0  0  0  0  0  0  0  0  0  0  0  0
   -3.1093    0.3701   -4.8256 C   0  0  0  0  0  0  0  0  0  0  0  0
   -3.2715    0.5520   -3.4779 C   0  0  0  0  0  0  0  0  0  0  0  0
   -2.1972   -0.4869   -2.6087 S   0  0  0  0  0  0  0  0  0  0  0  0
    4.4152   -0.8293   -0.6695 C   0  0  1  0  0  0  0  0  0  0  0  0
    5.7323   -0.6027   -1.4011 C   0  0  0  0  0  0  0  0  0  0  0  0
    6.2240    0.6574   -0.5656 C   0  0  0  0  0  0  0  0  0  0  0  0
    5.1051    1.2090    0.1713 O   0  0  0  0  0  0  0  0  0  0  0  0
    3.9886    0.5819   -0.4219 C   0  0  2  0  0  0  0  0  0  0  0  0
    0.4579    0.4029   -0.1064 H   0  0  0  0  0  0  0  0  0  0  0  0
    1.4262    1.2284   -1.3458 H   0  0  0  0  0  0  0  0  0  0  0  0
    1.3923    1.8678    0.3170 H   0  0  0  0  0  0  0  0  0  0  0  0
    1.6143   -0.8845    1.7681 H   0  0  0  0  0  0  0  0  0  0  0  0
    2.5304    0.5809    2.2053 H   0  0  0  0  0  0  0  0  0  0  0  0
    3.3883   -0.9382    1.8839 H   0  0  0  0  0  0  0  0  0  0  0  0
    2.5949   -2.1518   -0.4063 H   0  0  0  0  0  0  0  0  0  0  0  0
    3.1282   -1.0891   -2.9444 H   0  0  0  0  0  0  0  0  0  0  0  0
    2.4072   -0.4175   -4.5697 H   0  0  0  0  0  0  0  0  0  0  0  0
    0.8124    0.1080   -5.1009 H   0  0  0  0  0  0  0  0  0  0  0  0
    2.2914   -2.4166   -6.0394 H   0  0  0  0  0  0  0  0  0  0  0  0
    2.0142   -0.9398   -6.9874 H   0  0  0  0  0  0  0  0  0  0  0  0
    0.3442   -2.7878   -7.5379 H   0  0  0  0  0  0  0  0  0  0  0  0
   -0.4363   -1.3081   -6.9487 H   0  0  0  0  0  0  0  0  0  0  0  0
    0.1284   -3.8519   -5.3324 H   0  0  0  0  0  0  0  0  0  0  0  0
   -1.4636   -3.2306   -5.8104 H   0  0  0  0  0  0  0  0  0  0  0  0
   -0.7298   -2.8723   -3.3793 H   0  0  0  0  0  0  0  0  0  0  0  0
   -3.6654    0.9022   -5.5999 H   0  0  0  0  0  0  0  0  0  0  0  0
   -3.9529    1.2291   -2.9652 H   0  0  0  0  0  0  0  0  0  0  0  0
    4.6754   -1.2537    0.3119 H   0  0  0  0  0  0  0  0  0  0  0  0
    5.5950   -0.3291   -2.4601 H   0  0  0  0  0  0  0  0  0  0  0  0
    6.4586   -1.4280   -1.3516 H   0  0  0  0  0  0  0  0  0  0  0  0
    6.6423    1.4287   -1.2357 H   0  0  0  0  0  0  0  0  0  0  0  0
    7.0041    0.3798    0.1620 H   0  0  0  0  0  0  0  0  0  0  0  0
    3.7725    1.0789   -1.3920 H   0  0  0  0  0  0  0  0  0  0  0  0
  2  1  1  6
  1 24  1  0
  1 25  1  0
  1 26  1  0
  2  3  1  0
  2  4  1  0
  2 23  1  0
  3 27  1  0
  3 28  1  0
  3 29  1  0
  4  5  1  0
  4 19  1  0
  4 30  1  1
  5  6  1  0
  5 31  1  0
  6  7  2  0
  6  8  1  0
  8  9  1  0
  8 13  1  0
  9 10  1  0
  9 32  1  0
  9 33  1  0
 10 11  1  0
 10 34  1  0
 10 35  1  0
 11 12  1  0
 11 36  1  0
 11 37  1  0
 12 13  1  0
 12 38  1  0
 12 39  1  0
 13 14  1  0
 13 40  1  1
 14 15  2  0
 14 18  1  0
 15 16  1  0
 16 17  2  0
 16 41  1  0
 17 18  1  0
 17 42  1  0
 19 20  1  0
 19 23  1  0
 19 43  1  1
 20 21  1  0
 20 44  1  0
 20 45  1  0
 21 22  1  0
 21 46  1  0
 21 47  1  0
 22 23  1  0
 23 48  1  6
M  END

