
     RDKit          3D

 25 25  0  0  0  0  0  0  0  0999 V2000
    1.0593    0.0361    2.6704 C   0  0  0  0  0  0  0  0  0  0  0  0
    2.3968    0.6232    2.2274 C   0  0  0  0  0  0  0  0  0  0  0  0
    3.1480   -0.2306    1.3046 N   0  0  0  0  0  0  0  0  0  0  0  0
    2.5305   -0.3406   -0.0074 C   0  0  0  0  0  0  0  0  0  0  0  0
    4.5407    0.1719    1.2053 C   0  0  0  0  0  0  0  0  0  0  0  0
    5.3824   -0.0028    2.4749 C   0  0  0  0  0  0  0  0  0  0  0  0
    6.1599    0.8737    2.8121 O   0  0  0  0  0  0  0  0  0  0  0  0
    5.3040   -1.2641    3.2341 C   0  0  0  0  0  0  0  0  0  0  0  0
    4.5339   -2.4006    3.0598 C   0  0  0  0  0  0  0  0  0  0  0  0
    4.8073   -3.4162    4.0128 C   0  0  0  0  0  0  0  0  0  0  0  0
    5.7868   -3.0284    4.9022 C   0  0  0  0  0  0  0  0  0  0  0  0
    6.4590   -4.0520    6.3289 Br  0  0  0  0  0  0  0  0  0  0  0  0
    6.3889   -1.4355    4.5981 S   0  0  0  0  0  0  0  0  0  0  0  0
    0.5895    0.6944    3.4179 H   0  0  0  0  0  0  0  0  0  0  0  0
    1.2003   -0.9565    3.1262 H   0  0  0  0  0  0  0  0  0  0  0  0
    0.3473   -0.0682    1.8370 H   0  0  0  0  0  0  0  0  0  0  0  0
    3.0214    0.7790    3.1218 H   0  0  0  0  0  0  0  0  0  0  0  0
    2.2380    1.6352    1.7872 H   0  0  0  0  0  0  0  0  0  0  0  0
    1.5033   -0.7227    0.0775 H   0  0  0  0  0  0  0  0  0  0  0  0
    3.0962   -1.0497   -0.6320 H   0  0  0  0  0  0  0  0  0  0  0  0
    2.4876    0.6311   -0.5506 H   0  0  0  0  0  0  0  0  0  0  0  0
    4.6728    1.2340    0.9051 H   0  0  0  0  0  0  0  0  0  0  0  0
    5.0275   -0.4419    0.4261 H   0  0  0  0  0  0  0  0  0  0  0  0
    3.7814   -2.4693    2.2754 H   0  0  0  0  0  0  0  0  0  0  0  0
    4.3093   -4.3851    4.0501 H   0  0  0  0  0  0  0  0  0  0  0  0
  1  2  1  0
  1 14  1  0
  1 15  1  0
  1 16  1  0
  2  3  1  0
  2 17  1  0
  2 18  1  0
  3  4  1  0
  3  5  1  0
  4 19  1  0
  4 20  1  0
  4 21  1  0
  5  6  1  0
  5 22  1  0
  5 23  1  0
  6  7  2  0
  6  8  1  0
  8  9  2  0
  8 13  1  0
  9 10  1  0
  9 24  1  0
 10 11  2  0
 10 25  1  0
 11 12  1  0
 11 13  1  0
M  END

