
     RDKit          3D

 47 48  0  0  0  0  0  0  0  0999 V2000
    3.0833    1.7557    1.2153 C   0  0  0  0  0  0  0  0  0  0  0  0
    2.8982    0.4573    1.5360 C   0  0  0  0  0  0  0  0  0  0  0  0
    1.6820    0.0033    2.3089 C   0  0  0  0  0  0  0  0  0  0  0  0
    3.7453   -0.6028    1.2212 N   0  0  0  0  0  0  0  0  0  0  0  0
    5.0399   -0.6219    0.6833 C   0  0  0  0  0  0  0  0  0  0  0  0
    5.4341   -1.7945   -0.0232 C   0  0  0  0  0  0  0  0  0  0  0  0
    6.7090   -1.9428   -0.5486 C   0  0  0  0  0  0  0  0  0  0  0  0
    7.6460   -0.9019   -0.4002 C   0  0  0  0  0  0  0  0  0  0  0  0
    9.0090   -0.6932   -0.7995 C   0  0  0  0  0  0  0  0  0  0  0  0
    9.3967    0.5498   -0.3364 C   0  0  0  0  0  0  0  0  0  0  0  0
   10.6774    1.2729   -0.5140 C   0  0  0  0  0  0  0  0  0  0  0  0
   11.2295    1.2620   -1.7528 C   0  0  0  0  0  0  0  0  0  0  0  0
   11.2796    1.9804    0.6494 C   0  0  0  0  0  0  0  0  0  0  0  0
   10.9367    1.5454    1.9021 C   0  0  0  0  0  0  0  0  0  0  0  0
   11.2099    2.0240    3.1659 N   0  0  0  0  0  0  0  0  0  0  0  0
   11.7848    3.3182    3.4576 C   0  0  0  0  0  0  0  0  0  0  0  0
   11.1354    1.1044    4.2837 C   0  0  0  0  0  0  0  0  0  0  0  0
   12.3011    3.0627    0.3487 C   0  0  0  0  0  0  0  0  0  0  0  0
   11.7195    4.3706   -0.2098 C   0  0  0  0  0  0  0  0  0  0  0  0
    8.3194    1.1153    0.3413 N   0  0  0  0  0  0  0  0  0  0  0  0
    8.3346    2.0393    0.7515 H   0  0  0  0  0  0  0  0  0  0  0  0
    7.2405    0.2644    0.3118 C   0  0  0  0  0  0  0  0  0  0  0  0
    5.9588    0.4207    0.8583 C   0  0  0  0  0  0  0  0  0  0  0  0
    2.3448    2.4932    1.5315 H   0  0  0  0  0  0  0  0  0  0  0  0
    3.9270    2.1085    0.6249 H   0  0  0  0  0  0  0  0  0  0  0  0
    0.9982    0.8400    2.5010 H   0  0  0  0  0  0  0  0  0  0  0  0
    1.9707   -0.4440    3.2757 H   0  0  0  0  0  0  0  0  0  0  0  0
    1.1239   -0.7675    1.7470 H   0  0  0  0  0  0  0  0  0  0  0  0
    3.3160   -1.5173    1.2860 H   0  0  0  0  0  0  0  0  0  0  0  0
    4.6998   -2.5950   -0.1544 H   0  0  0  0  0  0  0  0  0  0  0  0
    6.9752   -2.8582   -1.0837 H   0  0  0  0  0  0  0  0  0  0  0  0
    9.6483   -1.3838   -1.3450 H   0  0  0  0  0  0  0  0  0  0  0  0
   10.7187    0.7706   -2.5825 H   0  0  0  0  0  0  0  0  0  0  0  0
   12.1896    1.7321   -1.9714 H   0  0  0  0  0  0  0  0  0  0  0  0
   10.3139    0.6474    1.9524 H   0  0  0  0  0  0  0  0  0  0  0  0
   11.4646    4.0593    2.7138 H   0  0  0  0  0  0  0  0  0  0  0  0
   12.8923    3.3179    3.4972 H   0  0  0  0  0  0  0  0  0  0  0  0
   11.4239    3.6549    4.4442 H   0  0  0  0  0  0  0  0  0  0  0  0
   10.4942    0.2486    4.0271 H   0  0  0  0  0  0  0  0  0  0  0  0
   10.7056    1.6047    5.1687 H   0  0  0  0  0  0  0  0  0  0  0  0
   12.1279    0.7039    4.5748 H   0  0  0  0  0  0  0  0  0  0  0  0
   13.0246    2.6618   -0.3813 H   0  0  0  0  0  0  0  0  0  0  0  0
   12.9051    3.2785    1.2389 H   0  0  0  0  0  0  0  0  0  0  0  0
   11.1246    4.1850   -1.1174 H   0  0  0  0  0  0  0  0  0  0  0  0
   12.5189    5.0836   -0.4711 H   0  0  0  0  0  0  0  0  0  0  0  0
   11.0573    4.8622    0.5226 H   0  0  0  0  0  0  0  0  0  0  0  0
    5.6967    1.3115    1.4270 H   0  0  0  0  0  0  0  0  0  0  0  0
  1  2  2  0
  1 24  1  0
  1 25  1  0
  2  3  1  0
  2  4  1  0
  3 26  1  0
  3 27  1  0
  3 28  1  0
  4  5  1  0
  4 29  1  0
  5  6  2  0
  5 23  1  0
  6  7  1  0
  6 30  1  0
  7  8  2  0
  7 31  1  0
  8  9  1  0
  8 22  1  0
  9 10  2  0
  9 32  1  0
 10 11  1  0
 10 20  1  0
 11 12  2  0
 11 13  1  0
 12 33  1  0
 12 34  1  0
 13 14  2  0
 13 18  1  0
 14 15  1  0
 14 35  1  0
 15 16  1  0
 15 17  1  0
 16 36  1  0
 16 37  1  0
 16 38  1  0
 17 39  1  0
 17 40  1  0
 17 41  1  0
 18 19  1  0
 18 42  1  0
 18 43  1  0
 19 44  1  0
 19 45  1  0
 19 46  1  0
 20 21  1  0
 20 22  1  0
 22 23  2  0
 23 47  1  0
M  END

