
     RDKit          3D

 18 19  0  0  0  0  0  0  0  0999 V2000
    1.2466   -0.0513    0.1780 N   0  0  0  0  0  0  0  0  0  0  0  0
    2.4037    0.0172    0.1221 C   0  0  0  0  0  0  0  0  0  0  0  0
    3.8305    0.0847    0.0525 C   0  0  0  0  0  0  0  0  0  0  0  0
    4.5607   -1.0655   -0.0014 C   0  0  0  0  0  0  0  0  0  0  0  0
    5.8909   -1.1104   -0.0680 O   0  0  0  0  0  0  0  0  0  0  0  0
    6.6158    0.0556   -0.0868 C   0  0  0  0  0  0  0  0  0  0  0  0
    8.0080   -0.0637   -0.1587 C   0  0  0  0  0  0  0  0  0  0  0  0
    8.7775    1.0952   -0.1801 C   0  0  0  0  0  0  0  0  0  0  0  0
    8.1677    2.3618   -0.1305 C   0  0  0  0  0  0  0  0  0  0  0  0
    6.7841    2.4645   -0.0591 C   0  0  0  0  0  0  0  0  0  0  0  0
    5.9832    1.3081   -0.0361 C   0  0  0  0  0  0  0  0  0  0  0  0
    4.5043    1.4088    0.0399 C   0  0  0  0  0  0  0  0  0  0  0  0
    3.9044    2.4663    0.0863 O   0  0  0  0  0  0  0  0  0  0  0  0
    4.1150   -2.0623    0.0059 H   0  0  0  0  0  0  0  0  0  0  0  0
    8.4566   -1.0579   -0.1963 H   0  0  0  0  0  0  0  0  0  0  0  0
    9.8657    1.0156   -0.2362 H   0  0  0  0  0  0  0  0  0  0  0  0
    8.7842    3.2632   -0.1481 H   0  0  0  0  0  0  0  0  0  0  0  0
    6.2761    3.4302   -0.0190 H   0  0  0  0  0  0  0  0  0  0  0  0
  1  2  3  0
  2  3  1  0
  3  4  2  0
  3 12  1  0
  4  5  1  0
  4 14  1  0
  5  6  1  0
  6  7  1  0
  6 11  2  0
  7  8  2  0
  7 15  1  0
  8  9  1  0
  8 16  1  0
  9 10  2  0
  9 17  1  0
 10 11  1  0
 10 18  1  0
 11 12  1  0
 12 13  2  0
M  END

