
     RDKit          3D

 50 52  0  0  0  0  0  0  0  0999 V2000
    4.8818   -0.3437   -5.6186 C   0  0  0  0  0  0  0  0  0  0  0  0
    4.8619   -0.9060   -4.1980 C   0  0  0  0  0  0  0  0  0  0  0  0
    4.1021   -0.0734   -3.2623 N   0  0  0  0  0  0  0  0  0  0  0  0
    4.5502    1.0855   -2.6799 C   0  0  0  0  0  0  0  0  0  0  0  0
    6.2191    1.6300   -2.8083 S   0  0  0  0  0  0  0  0  0  0  0  0
    6.2544    2.9182   -1.4919 C   0  0  0  0  0  0  0  0  0  0  0  0
    5.7977    4.3181   -1.9370 C   0  0  0  0  0  0  0  0  0  0  0  0
    6.6236    5.1916   -2.1477 O   0  0  0  0  0  0  0  0  0  0  0  0
    4.4457    4.4472   -2.0321 N   0  0  0  0  0  0  0  0  0  0  0  0
    3.6996    5.5742   -2.4313 C   0  0  0  0  0  0  0  0  0  0  0  0
    4.2610    6.8136   -2.7453 C   0  0  0  0  0  0  0  0  0  0  0  0
    3.4233    7.8729   -3.1290 C   0  0  0  0  0  0  0  0  0  0  0  0
    2.0391    7.7246   -3.2058 C   0  0  0  0  0  0  0  0  0  0  0  0
    1.1621    8.6980   -3.5664 O   0  0  0  0  0  0  0  0  0  0  0  0
    1.6621    9.9707   -3.8921 C   0  0  0  0  0  0  0  0  0  0  0  0
    1.4689    6.4616   -2.8852 C   0  0  0  0  0  0  0  0  0  0  0  0
    0.1181    6.3812   -2.9786 O   0  0  0  0  0  0  0  0  0  0  0  0
   -0.5161    5.1673   -2.6569 C   0  0  0  0  0  0  0  0  0  0  0  0
    2.2979    5.4085   -2.5057 C   0  0  0  0  0  0  0  0  0  0  0  0
    3.5674    1.6834   -2.0415 N   0  0  0  0  0  0  0  0  0  0  0  0
    2.4424    0.9252   -2.1957 N   0  0  0  0  0  0  0  0  0  0  0  0
    2.7562   -0.1216   -2.9255 C   0  0  0  0  0  0  0  0  0  0  0  0
    1.7943   -1.1680   -3.3172 C   0  0  0  0  0  0  0  0  0  0  0  0
    0.5150   -0.7783   -3.7557 C   0  0  0  0  0  0  0  0  0  0  0  0
   -0.4459   -1.7293   -4.0954 C   0  0  0  0  0  0  0  0  0  0  0  0
   -0.1232   -3.0816   -3.9930 C   0  0  0  0  0  0  0  0  0  0  0  0
   -1.0393   -3.9990   -4.3241 F   0  0  0  0  0  0  0  0  0  0  0  0
    1.1277   -3.5020   -3.5461 C   0  0  0  0  0  0  0  0  0  0  0  0
    2.0799   -2.5410   -3.2030 C   0  0  0  0  0  0  0  0  0  0  0  0
    5.4754   -1.0023   -6.2714 H   0  0  0  0  0  0  0  0  0  0  0  0
    5.3334    0.6596   -5.6454 H   0  0  0  0  0  0  0  0  0  0  0  0
    3.8634   -0.2785   -6.0315 H   0  0  0  0  0  0  0  0  0  0  0  0
    5.8838   -0.9956   -3.7964 H   0  0  0  0  0  0  0  0  0  0  0  0
    4.4232   -1.9109   -4.1892 H   0  0  0  0  0  0  0  0  0  0  0  0
    7.3151    2.9983   -1.2235 H   0  0  0  0  0  0  0  0  0  0  0  0
    5.6781    2.5382   -0.6362 H   0  0  0  0  0  0  0  0  0  0  0  0
    3.9089    3.5862   -1.8647 H   0  0  0  0  0  0  0  0  0  0  0  0
    5.3383    6.9479   -2.6918 H   0  0  0  0  0  0  0  0  0  0  0  0
    3.8814    8.8326   -3.3698 H   0  0  0  0  0  0  0  0  0  0  0  0
    0.7941   10.5936   -4.1485 H   0  0  0  0  0  0  0  0  0  0  0  0
    2.3465    9.9381   -4.7605 H   0  0  0  0  0  0  0  0  0  0  0  0
    2.1968   10.4363   -3.0431 H   0  0  0  0  0  0  0  0  0  0  0  0
   -1.5938    5.3308   -2.7942 H   0  0  0  0  0  0  0  0  0  0  0  0
   -0.3301    4.8678   -1.6091 H   0  0  0  0  0  0  0  0  0  0  0  0
   -0.1925    4.3424   -3.3184 H   0  0  0  0  0  0  0  0  0  0  0  0
    1.8712    4.4349   -2.2623 H   0  0  0  0  0  0  0  0  0  0  0  0
    0.2811    0.2854   -3.8230 H   0  0  0  0  0  0  0  0  0  0  0  0
   -1.4404   -1.4399   -4.4402 H   0  0  0  0  0  0  0  0  0  0  0  0
    1.3346   -4.5699   -3.4561 H   0  0  0  0  0  0  0  0  0  0  0  0
    3.0426   -2.8715   -2.8073 H   0  0  0  0  0  0  0  0  0  0  0  0
  1  2  1  0
  1 30  1  0
  1 31  1  0
  1 32  1  0
  2  3  1  0
  2 33  1  0
  2 34  1  0
  3  4  1  0
  3 22  1  0
  4  5  1  0
  4 20  2  0
  5  6  1  0
  6  7  1  0
  6 35  1  0
  6 36  1  0
  7  8  2  0
  7  9  1  0
  9 10  1  0
  9 37  1  0
 10 11  2  0
 10 19  1  0
 11 12  1  0
 11 38  1  0
 12 13  2  0
 12 39  1  0
 13 14  1  0
 13 16  1  0
 14 15  1  0
 15 40  1  0
 15 41  1  0
 15 42  1  0
 16 17  1  0
 16 19  2  0
 17 18  1  0
 18 43  1  0
 18 44  1  0
 18 45  1  0
 19 46  1  0
 20 21  1  0
 21 22  2  0
 22 23  1  0
 23 24  2  0
 23 29  1  0
 24 25  1  0
 24 47  1  0
 25 26  2  0
 25 48  1  0
 26 27  1  0
 26 28  1  0
 28 29  2  0
 28 49  1  0
 29 50  1  0
M  END

