
     RDKit          3D

 36 36  0  0  0  0  0  0  0  0999 V2000
    0.7304    0.0345    0.1838 C   0  0  0  0  0  0  0  0  0  0  0  0
    2.2531   -0.1272    0.2163 C   0  0  0  0  0  0  0  0  0  0  0  0
    2.9352    1.1279    0.7748 C   0  0  0  0  0  0  0  0  0  0  0  0
    4.4858    1.1511    0.8944 C   0  0  1  0  0  0  0  0  0  0  0  0
    4.8203    2.2048    1.9946 C   0  0  0  0  0  0  0  0  0  0  0  0
    4.1897    3.2168    2.1342 O   0  0  0  0  0  0  0  0  0  0  0  0
    5.9154    1.9577    2.7364 O   0  0  0  0  0  0  0  0  0  0  0  0
    5.0952   -0.1576    1.2343 N   0  0  0  0  0  0  0  0  0  0  0  0
    4.6246   -0.9175    2.2941 C   0  0  0  0  0  0  0  0  0  0  0  0
    5.1519   -2.1937    2.3786 N   0  0  0  0  0  0  0  0  0  0  0  0
    3.8538   -0.4699    3.1271 O   0  0  0  0  0  0  0  0  0  0  0  0
    6.1753   -0.5597    0.3322 C   0  0  0  0  0  0  0  0  0  0  0  0
    6.5956    0.7659   -0.2962 C   0  0  0  0  0  0  0  0  0  0  0  0
    5.2751    1.5595   -0.4419 C   0  0  1  0  0  0  0  0  0  0  0  0
    4.5573    1.0979   -1.7256 C   0  0  0  0  0  0  0  0  0  0  0  0
    5.5362    3.0690   -0.5658 C   0  0  0  0  0  0  0  0  0  0  0  0
    0.2373   -0.8755   -0.1938 H   0  0  0  0  0  0  0  0  0  0  0  0
    0.4274    0.8721   -0.4667 H   0  0  0  0  0  0  0  0  0  0  0  0
    0.3308    0.2387    1.1906 H   0  0  0  0  0  0  0  0  0  0  0  0
    2.6078   -0.3714   -0.7958 H   0  0  0  0  0  0  0  0  0  0  0  0
    2.4999   -0.9938    0.8498 H   0  0  0  0  0  0  0  0  0  0  0  0
    2.5281    1.2993    1.7796 H   0  0  0  0  0  0  0  0  0  0  0  0
    2.6405    2.0125    0.1877 H   0  0  0  0  0  0  0  0  0  0  0  0
    6.1830    1.0386    2.5757 H   0  0  0  0  0  0  0  0  0  0  0  0
    5.4335   -2.6881    1.5403 H   0  0  0  0  0  0  0  0  0  0  0  0
    4.7208   -2.7629    3.0981 H   0  0  0  0  0  0  0  0  0  0  0  0
    5.8281   -1.2796   -0.4351 H   0  0  0  0  0  0  0  0  0  0  0  0
    6.9901   -1.0442    0.8937 H   0  0  0  0  0  0  0  0  0  0  0  0
    7.1128    0.6360   -1.2588 H   0  0  0  0  0  0  0  0  0  0  0  0
    7.2825    1.2986    0.3808 H   0  0  0  0  0  0  0  0  0  0  0  0
    4.4076    0.0099   -1.7672 H   0  0  0  0  0  0  0  0  0  0  0  0
    5.1701    1.3793   -2.5966 H   0  0  0  0  0  0  0  0  0  0  0  0
    3.5772    1.5806   -1.8457 H   0  0  0  0  0  0  0  0  0  0  0  0
    6.1641    3.4546    0.2501 H   0  0  0  0  0  0  0  0  0  0  0  0
    4.5980    3.6428   -0.5589 H   0  0  0  0  0  0  0  0  0  0  0  0
    6.0571    3.2749   -1.5145 H   0  0  0  0  0  0  0  0  0  0  0  0
  1  2  1  0
  1 17  1  0
  1 18  1  0
  1 19  1  0
  2  3  1  0
  2 20  1  0
  2 21  1  0
  3  4  1  0
  3 22  1  0
  3 23  1  0
  4  5  1  1
  4  8  1  0
  4 14  1  0
  5  6  2  0
  5  7  1  0
  7 24  1  0
  8  9  1  0
  8 12  1  0
  9 10  1  0
  9 11  2  0
 10 25  1  0
 10 26  1  0
 12 13  1  0
 12 27  1  0
 12 28  1  0
 13 14  1  0
 13 29  1  0
 13 30  1  0
 14 15  1  6
 14 16  1  0
 15 31  1  0
 15 32  1  0
 15 33  1  0
 16 34  1  0
 16 35  1  0
 16 36  1  0
M  END

