
     RDKit          3D

 46 48  0  0  0  0  0  0  0  0999 V2000
    0.9376    0.0788   -1.1046 C   0  0  0  0  0  0  0  0  0  0  0  0
    2.2889   -0.1376   -0.3977 C   0  0  1  0  0  0  0  0  0  0  0  0
    3.1415    0.9504   -0.7106 O   0  0  0  0  0  0  0  0  0  0  0  0
    2.1352   -0.1586    1.1587 C   0  0  0  0  0  0  0  0  0  0  0  0
    1.9009    1.1909    1.6801 N   0  0  0  0  0  0  0  0  0  0  0  0
    0.5476    1.4715    2.1709 C   0  0  0  0  0  0  0  0  0  0  0  0
    0.3231    0.9750    3.6046 C   0  0  0  0  0  0  0  0  0  0  0  0
    1.3402    1.5509    4.4757 N   0  0  0  0  0  0  0  0  0  0  0  0
    2.6904    1.1978    4.0528 C   0  0  0  0  0  0  0  0  0  0  0  0
    2.9067    1.6984    2.6211 C   0  0  0  0  0  0  0  0  0  0  0  0
    2.9534   -1.4328   -0.8576 C   0  0  0  0  0  0  0  0  0  0  0  0
    4.2603   -1.4265   -1.3680 C   0  0  0  0  0  0  0  0  0  0  0  0
    4.8639   -2.6190   -1.7626 C   0  0  0  0  0  0  0  0  0  0  0  0
    4.2038   -3.8535   -1.6611 C   0  0  0  0  0  0  0  0  0  0  0  0
    2.8933   -3.8727   -1.1434 C   0  0  0  0  0  0  0  0  0  0  0  0
    2.2937   -2.6640   -0.7551 C   0  0  0  0  0  0  0  0  0  0  0  0
    2.1343   -5.1772   -0.9655 C   0  0  0  0  0  0  0  0  0  0  0  0
    2.7129   -6.3370   -1.7816 C   0  0  0  0  0  0  0  0  0  0  0  0
    4.2328   -6.4038   -1.6137 C   0  0  0  0  0  0  0  0  0  0  0  0
    4.8860   -5.1227   -2.1411 C   0  0  0  0  0  0  0  0  0  0  0  0
    0.4906    1.0312   -0.7781 H   0  0  0  0  0  0  0  0  0  0  0  0
    0.2182   -0.7294   -0.9010 H   0  0  0  0  0  0  0  0  0  0  0  0
    1.1002    0.1368   -2.1909 H   0  0  0  0  0  0  0  0  0  0  0  0
    2.8191    1.6606   -0.1248 H   0  0  0  0  0  0  0  0  0  0  0  0
    3.0731   -0.5589    1.5730 H   0  0  0  0  0  0  0  0  0  0  0  0
    1.3384   -0.8640    1.4523 H   0  0  0  0  0  0  0  0  0  0  0  0
   -0.1901    1.0237    1.4891 H   0  0  0  0  0  0  0  0  0  0  0  0
    0.3918    2.5646    2.1541 H   0  0  0  0  0  0  0  0  0  0  0  0
    0.3314   -0.1405    3.6080 H   0  0  0  0  0  0  0  0  0  0  0  0
   -0.6752    1.2905    3.9511 H   0  0  0  0  0  0  0  0  0  0  0  0
    1.1814    1.2823    5.4443 H   0  0  0  0  0  0  0  0  0  0  0  0
    2.8838    0.1000    4.0879 H   0  0  0  0  0  0  0  0  0  0  0  0
    3.4206    1.6768    4.7263 H   0  0  0  0  0  0  0  0  0  0  0  0
    3.9086    1.4289    2.2547 H   0  0  0  0  0  0  0  0  0  0  0  0
    2.8421    2.8010    2.6306 H   0  0  0  0  0  0  0  0  0  0  0  0
    4.7880   -0.4768   -1.4529 H   0  0  0  0  0  0  0  0  0  0  0  0
    5.8819   -2.5952   -2.1649 H   0  0  0  0  0  0  0  0  0  0  0  0
    1.2728   -2.7031   -0.3624 H   0  0  0  0  0  0  0  0  0  0  0  0
    1.0702   -5.0232   -1.2124 H   0  0  0  0  0  0  0  0  0  0  0  0
    2.1532   -5.4508    0.1070 H   0  0  0  0  0  0  0  0  0  0  0  0
    2.4716   -6.1978   -2.8513 H   0  0  0  0  0  0  0  0  0  0  0  0
    2.2411   -7.2851   -1.4749 H   0  0  0  0  0  0  0  0  0  0  0  0
    4.6479   -7.2812   -2.1365 H   0  0  0  0  0  0  0  0  0  0  0  0
    4.4744   -6.5333   -0.5428 H   0  0  0  0  0  0  0  0  0  0  0  0
    4.8611   -5.1379   -3.2476 H   0  0  0  0  0  0  0  0  0  0  0  0
    5.9550   -5.0925   -1.8706 H   0  0  0  0  0  0  0  0  0  0  0  0
  1  2  1  0
  1 21  1  0
  1 22  1  0
  1 23  1  0
  2  3  1  1
  2  4  1  0
  2 11  1  0
  3 24  1  0
  4  5  1  0
  4 25  1  0
  4 26  1  0
  5  6  1  0
  5 10  1  0
  6  7  1  0
  6 27  1  0
  6 28  1  0
  7  8  1  0
  7 29  1  0
  7 30  1  0
  8  9  1  0
  8 31  1  0
  9 10  1  0
  9 32  1  0
  9 33  1  0
 10 34  1  0
 10 35  1  0
 11 12  2  0
 11 16  1  0
 12 13  1  0
 12 36  1  0
 13 14  2  0
 13 37  1  0
 14 15  1  0
 14 20  1  0
 15 16  2  0
 15 17  1  0
 16 38  1  0
 17 18  1  0
 17 39  1  0
 17 40  1  0
 18 19  1  0
 18 41  1  0
 18 42  1  0
 19 20  1  0
 19 43  1  0
 19 44  1  0
 20 45  1  0
 20 46  1  0
M  END

