
     RDKit          3D

 33 34  0  0  0  0  0  0  0  0999 V2000
    3.3907   -1.7398   -1.4432 O   0  0  0  0  0  0  0  0  0  0  0  0
    2.9819   -1.6577   -0.3174 C   0  0  0  0  0  0  0  0  0  0  0  0
    2.3706   -2.6681    0.3091 O   0  0  0  0  0  0  0  0  0  0  0  0
    3.0874   -0.3505    0.5041 C   0  0  1  0  0  0  0  0  0  0  0  0
    2.5206   -0.5377    1.8563 N   0  0  0  0  0  0  0  0  0  0  0  0
    1.2637    0.4752    2.4041 S   0  0  1  0  0  0  0  0  0  0  0  0
    1.4650    0.6100    3.8421 O   0  0  0  0  0  0  0  0  0  0  0  0
    1.1885    1.6501    1.5281 O   0  0  0  0  0  0  0  0  0  0  0  0
   -0.2320   -0.4866    2.0824 C   0  0  0  0  0  0  0  0  0  0  0  0
   -1.1663    0.0958    1.2157 C   0  0  0  0  0  0  0  0  0  0  0  0
   -2.3746   -0.5474    0.9463 C   0  0  0  0  0  0  0  0  0  0  0  0
   -2.6529   -1.7770    1.5463 C   0  0  0  0  0  0  0  0  0  0  0  0
   -1.7285   -2.3639    2.4138 C   0  0  0  0  0  0  0  0  0  0  0  0
   -0.5177   -1.7218    2.6898 C   0  0  0  0  0  0  0  0  0  0  0  0
    0.6862   -2.5973    3.8776 Br  0  0  0  0  0  0  0  0  0  0  0  0
    4.4909    0.2423    0.5550 C   0  0  0  0  0  0  0  0  0  0  0  0
    4.6306    1.6011    0.8850 C   0  0  0  0  0  0  0  0  0  0  0  0
    5.8974    2.1753    1.0044 C   0  0  0  0  0  0  0  0  0  0  0  0
    7.0422    1.3989    0.7965 C   0  0  0  0  0  0  0  0  0  0  0  0
    6.9106    0.0477    0.4680 C   0  0  0  0  0  0  0  0  0  0  0  0
    5.6426   -0.5296    0.3474 C   0  0  0  0  0  0  0  0  0  0  0  0
    2.1455   -2.3592    1.2101 H   0  0  0  0  0  0  0  0  0  0  0  0
    2.4395    0.3680   -0.0230 H   0  0  0  0  0  0  0  0  0  0  0  0
    3.2097   -0.5954    2.6083 H   0  0  0  0  0  0  0  0  0  0  0  0
   -0.9255    1.0581    0.7624 H   0  0  0  0  0  0  0  0  0  0  0  0
   -3.0948   -0.0856    0.2678 H   0  0  0  0  0  0  0  0  0  0  0  0
   -3.5950   -2.2909    1.3412 H   0  0  0  0  0  0  0  0  0  0  0  0
   -1.9414   -3.3259    2.8826 H   0  0  0  0  0  0  0  0  0  0  0  0
    3.7358    2.2060    1.0547 H   0  0  0  0  0  0  0  0  0  0  0  0
    5.9901    3.2346    1.2571 H   0  0  0  0  0  0  0  0  0  0  0  0
    8.0345    1.8480    0.8868 H   0  0  0  0  0  0  0  0  0  0  0  0
    7.7998   -0.5646    0.2979 H   0  0  0  0  0  0  0  0  0  0  0  0
    5.5586   -1.5807    0.0648 H   0  0  0  0  0  0  0  0  0  0  0  0
  1  2  2  0
  2  3  1  0
  2  4  1  0
  3 22  1  0
  4  5  1  0
  4 16  1  0
  4 23  1  6
  6  5  1  6
  5 24  1  0
  6  7  2  0
  6  8  2  0
  6  9  1  0
  9 10  2  0
  9 14  1  0
 10 11  1  0
 10 25  1  0
 11 12  2  0
 11 26  1  0
 12 13  1  0
 12 27  1  0
 13 14  2  0
 13 28  1  0
 14 15  1  0
 16 17  2  0
 16 21  1  0
 17 18  1  0
 17 29  1  0
 18 19  2  0
 18 30  1  0
 19 20  1  0
 19 31  1  0
 20 21  2  0
 20 32  1  0
 21 33  1  0
M  END

