
     RDKit          3D

 67 77  0  0  0  0  0  0  0  0999 V2000
   -1.0397   -2.2521   -0.9520 C   0  0  0  0  0  0  0  0  0  0  0  0
   -0.8509   -1.1385   -1.7814 C   0  0  0  0  0  0  0  0  0  0  0  0
   -0.2248    0.0158   -1.2927 C   0  0  0  0  0  0  0  0  0  0  0  0
    0.2070    0.0378    0.0300 C   0  0  0  0  0  0  0  0  0  0  0  0
    0.0195   -1.0806    0.8678 C   0  0  0  0  0  0  0  0  0  0  0  0
   -0.6063   -2.2318    0.3775 C   0  0  0  0  0  0  0  0  0  0  0  0
    0.5680   -0.7708    2.1967 C   0  0  0  0  0  0  0  0  0  0  0  0
    0.6270   -1.5347    3.3674 C   0  0  0  0  0  0  0  0  0  0  0  0
    1.2134   -0.9790    4.5089 C   0  0  0  0  0  0  0  0  0  0  0  0
    1.7345    0.3216    4.4826 C   0  0  0  0  0  0  0  0  0  0  0  0
    1.6763    1.0888    3.3117 C   0  0  0  0  0  0  0  0  0  0  0  0
    1.0926    0.5375    2.1750 C   0  0  0  0  0  0  0  0  0  0  0  0
    0.8934    1.1756    0.7951 C   0  0  2  0  0  0  0  0  0  0  0  0
    0.0304    2.4633    0.8519 C   0  0  0  0  0  0  0  0  0  0  0  0
   -1.2564    2.6180    1.3484 C   0  0  0  0  0  0  0  0  0  0  0  0
   -1.8584    3.8870    1.3035 C   0  0  0  0  0  0  0  0  0  0  0  0
   -1.1744    4.9836    0.7667 C   0  0  0  0  0  0  0  0  0  0  0  0
    0.1244    4.8421    0.2619 C   0  0  0  0  0  0  0  0  0  0  0  0
    0.7214    3.5795    0.3073 C   0  0  0  0  0  0  0  0  0  0  0  0
    2.0065    3.0628   -0.1064 C   0  0  0  0  0  0  0  0  0  0  0  0
    3.1002    3.6206   -0.6889 O   0  0  0  0  0  0  0  0  0  0  0  0
    3.9724    2.5851   -0.8074 C   0  0  0  0  0  0  0  0  0  0  0  0
    3.4681    1.3974   -0.3206 C   0  0  0  0  0  0  0  0  0  0  0  0
    2.1584    1.7156    0.1460 C   0  0  0  0  0  0  0  0  0  0  0  0
    4.5048    0.2982   -0.4942 C   0  0  2  0  0  0  0  0  0  0  0  0
    4.0484   -0.8960   -1.3404 C   0  0  0  0  0  0  0  0  0  0  0  0
    3.5362   -0.8998   -2.6344 C   0  0  0  0  0  0  0  0  0  0  0  0
    3.1990   -2.1246   -3.2254 C   0  0  0  0  0  0  0  0  0  0  0  0
    3.3748   -3.3259   -2.5256 C   0  0  0  0  0  0  0  0  0  0  0  0
    3.8889   -3.3239   -1.2249 C   0  0  0  0  0  0  0  0  0  0  0  0
    4.2261   -2.1023   -0.6323 C   0  0  0  0  0  0  0  0  0  0  0  0
    4.7787   -1.7922    0.6949 C   0  0  0  0  0  0  0  0  0  0  0  0
    5.1328   -2.6267    1.7605 C   0  0  0  0  0  0  0  0  0  0  0  0
    5.6468   -2.0525    2.9276 C   0  0  0  0  0  0  0  0  0  0  0  0
    5.8048   -0.6639    3.0300 C   0  0  0  0  0  0  0  0  0  0  0  0
    5.4514    0.1740    1.9640 C   0  0  0  0  0  0  0  0  0  0  0  0
    4.9401   -0.3957    0.8018 C   0  0  0  0  0  0  0  0  0  0  0  0
    5.6570    1.0957   -1.1596 C   0  0  0  0  0  0  0  0  0  0  0  0
    6.9006    0.6351   -1.5692 C   0  0  0  0  0  0  0  0  0  0  0  0
    7.8046    1.5372   -2.1558 C   0  0  0  0  0  0  0  0  0  0  0  0
    7.4609    2.8830   -2.3271 C   0  0  0  0  0  0  0  0  0  0  0  0
    6.2095    3.3616   -1.9185 C   0  0  0  0  0  0  0  0  0  0  0  0
    5.3122    2.4629   -1.3357 C   0  0  0  0  0  0  0  0  0  0  0  0
   -1.5295   -3.1453   -1.3485 H   0  0  0  0  0  0  0  0  0  0  0  0
   -1.1943   -1.1707   -2.8185 H   0  0  0  0  0  0  0  0  0  0  0  0
   -0.0801    0.8840   -1.9407 H   0  0  0  0  0  0  0  0  0  0  0  0
   -0.7552   -3.1034    1.0200 H   0  0  0  0  0  0  0  0  0  0  0  0
    0.2229   -2.5499    3.3929 H   0  0  0  0  0  0  0  0  0  0  0  0
    1.2669   -1.5647    5.4303 H   0  0  0  0  0  0  0  0  0  0  0  0
    2.1909    0.7408    5.3828 H   0  0  0  0  0  0  0  0  0  0  0  0
    2.0817    2.1036    3.2935 H   0  0  0  0  0  0  0  0  0  0  0  0
   -1.7951    1.7652    1.7690 H   0  0  0  0  0  0  0  0  0  0  0  0
   -2.8713    4.0174    1.6924 H   0  0  0  0  0  0  0  0  0  0  0  0
   -1.6588    5.9630    0.7404 H   0  0  0  0  0  0  0  0  0  0  0  0
    0.6593    5.6970   -0.1576 H   0  0  0  0  0  0  0  0  0  0  0  0
    3.4001    0.0359   -3.1824 H   0  0  0  0  0  0  0  0  0  0  0  0
    2.7948   -2.1431   -4.2406 H   0  0  0  0  0  0  0  0  0  0  0  0
    3.1063   -4.2731   -3.0005 H   0  0  0  0  0  0  0  0  0  0  0  0
    4.0230   -4.2635   -0.6829 H   0  0  0  0  0  0  0  0  0  0  0  0
    5.0105   -3.7103    1.6859 H   0  0  0  0  0  0  0  0  0  0  0  0
    5.9268   -2.6924    3.7683 H   0  0  0  0  0  0  0  0  0  0  0  0
    6.2067   -0.2306    3.9493 H   0  0  0  0  0  0  0  0  0  0  0  0
    5.5775    1.2566    2.0451 H   0  0  0  0  0  0  0  0  0  0  0  0
    7.1745   -0.4147   -1.4379 H   0  0  0  0  0  0  0  0  0  0  0  0
    8.7857    1.1827   -2.4810 H   0  0  0  0  0  0  0  0  0  0  0  0
    8.1770    3.5699   -2.7853 H   0  0  0  0  0  0  0  0  0  0  0  0
    5.9398    4.4115   -2.0516 H   0  0  0  0  0  0  0  0  0  0  0  0
  1  2  2  0
  1  6  1  0
  1 44  1  0
  2  3  1  0
  2 45  1  0
  3  4  2  0
  3 46  1  0
  4  5  1  0
 13  4  1  6
  5  6  2  0
  5  7  1  0
  6 47  1  0
  7  8  2  0
  7 12  1  0
  8  9  1  0
  8 48  1  0
  9 10  2  0
  9 49  1  0
 10 11  1  0
 10 50  1  0
 11 12  2  0
 11 51  1  0
 12 13  1  0
 13 14  1  0
 13 24  1  0
 14 15  2  0
 14 19  1  0
 15 16  1  0
 15 52  1  0
 16 17  2  0
 16 53  1  0
 17 18  1  0
 17 54  1  0
 18 19  2  0
 18 55  1  0
 19 20  1  0
 20 21  1  0
 20 24  2  0
 21 22  1  0
 22 23  2  0
 22 43  1  0
 23 24  1  0
 25 23  1  1
 25 26  1  0
 25 37  1  0
 25 38  1  0
 26 27  2  0
 26 31  1  0
 27 28  1  0
 27 56  1  0
 28 29  2  0
 28 57  1  0
 29 30  1  0
 29 58  1  0
 30 31  2  0
 30 59  1  0
 31 32  1  0
 32 33  2  0
 32 37  1  0
 33 34  1  0
 33 60  1  0
 34 35  2  0
 34 61  1  0
 35 36  1  0
 35 62  1  0
 36 37  2  0
 36 63  1  0
 38 39  1  0
 38 43  2  0
 39 40  2  0
 39 64  1  0
 40 41  1  0
 40 65  1  0
 41 42  2  0
 41 66  1  0
 42 43  1  0
 42 67  1  0
M  END

