
     RDKit          3D

 44 47  0  0  0  0  0  0  0  0999 V2000
    4.8734    2.1093   -0.7525 N   0  0  0  0  0  0  0  0  0  0  0  0
    4.0047    1.1033   -0.1477 C   0  0  1  0  0  0  0  0  0  0  0  0
    3.5452    0.2078   -1.2770 C   0  0  0  0  0  0  0  0  0  0  0  0
    2.3005   -0.1278   -1.4933 N   0  0  0  0  0  0  0  0  0  0  0  0
    2.3744   -0.9654   -2.6053 O   0  0  0  0  0  0  0  0  0  0  0  0
    3.6679   -1.0458   -2.9521 C   0  0  0  0  0  0  0  0  0  0  0  0
    4.0365   -1.8998   -4.1173 C   0  0  0  0  0  0  0  0  0  0  0  0
    3.7695   -3.4057   -3.8753 C   0  0  0  0  0  0  0  0  0  0  0  0
    4.1421   -4.2618   -5.0654 C   0  0  0  0  0  0  0  0  0  0  0  0
    3.1971   -4.5719   -6.0577 C   0  0  0  0  0  0  0  0  0  0  0  0
    3.5557   -5.3216   -7.1784 C   0  0  0  0  0  0  0  0  0  0  0  0
    4.8653   -5.7844   -7.3308 C   0  0  0  0  0  0  0  0  0  0  0  0
    5.8183   -5.4991   -6.3318 C   0  0  0  0  0  0  0  0  0  0  0  0
    5.4508   -4.7385   -5.2186 C   0  0  0  0  0  0  0  0  0  0  0  0
    7.1050   -5.9527   -6.4221 O   0  0  0  0  0  0  0  0  0  0  0  0
    7.3000   -6.9838   -7.3779 C   0  0  0  0  0  0  0  0  0  0  0  0
    6.5824   -6.6436   -8.6734 C   0  0  0  0  0  0  0  0  0  0  0  0
    5.1886   -6.5109   -8.4432 O   0  0  0  0  0  0  0  0  0  0  0  0
    4.4372   -0.3513   -2.1674 N   0  0  0  0  0  0  0  0  0  0  0  0
    4.6379    0.2180    0.9686 C   0  0  0  0  0  0  0  0  0  0  0  0
    3.4415   -0.3695    1.7307 C   0  0  0  0  0  0  0  0  0  0  0  0
    2.3243    0.7108    1.6366 C   0  0  0  0  0  0  0  0  0  0  0  0
    2.8153    1.7488    0.6006 C   0  0  0  0  0  0  0  0  0  0  0  0
    5.5991    1.6498   -1.3041 H   0  0  0  0  0  0  0  0  0  0  0  0
    5.3435    2.6432   -0.0211 H   0  0  0  0  0  0  0  0  0  0  0  0
    5.1009   -1.7273   -4.3284 H   0  0  0  0  0  0  0  0  0  0  0  0
    3.4643   -1.5672   -4.9990 H   0  0  0  0  0  0  0  0  0  0  0  0
    2.7031   -3.5408   -3.6354 H   0  0  0  0  0  0  0  0  0  0  0  0
    4.3384   -3.7259   -2.9872 H   0  0  0  0  0  0  0  0  0  0  0  0
    2.1663   -4.2227   -5.9540 H   0  0  0  0  0  0  0  0  0  0  0  0
    2.8309   -5.5628   -7.9589 H   0  0  0  0  0  0  0  0  0  0  0  0
    6.2179   -4.5408   -4.4654 H   0  0  0  0  0  0  0  0  0  0  0  0
    6.9206   -7.9444   -6.9811 H   0  0  0  0  0  0  0  0  0  0  0  0
    8.3847   -7.0737   -7.5363 H   0  0  0  0  0  0  0  0  0  0  0  0
    6.7105   -7.4416   -9.4195 H   0  0  0  0  0  0  0  0  0  0  0  0
    6.9891   -5.7026   -9.0901 H   0  0  0  0  0  0  0  0  0  0  0  0
    5.2255    0.8896    1.6198 H   0  0  0  0  0  0  0  0  0  0  0  0
    5.3303   -0.5376    0.5654 H   0  0  0  0  0  0  0  0  0  0  0  0
    3.6959   -0.6306    2.7696 H   0  0  0  0  0  0  0  0  0  0  0  0
    3.1075   -1.3002    1.2452 H   0  0  0  0  0  0  0  0  0  0  0  0
    2.1407    1.1872    2.6124 H   0  0  0  0  0  0  0  0  0  0  0  0
    1.3741    0.2573    1.3199 H   0  0  0  0  0  0  0  0  0  0  0  0
    3.2057    2.6483    1.1044 H   0  0  0  0  0  0  0  0  0  0  0  0
    2.0311    2.0822   -0.0923 H   0  0  0  0  0  0  0  0  0  0  0  0
  2  1  1  6
  1 24  1  0
  1 25  1  0
  2  3  1  0
  2 20  1  0
  2 23  1  0
  3  4  2  0
  3 19  1  0
  4  5  1  0
  5  6  1  0
  6  7  1  0
  6 19  2  0
  7  8  1  0
  7 26  1  0
  7 27  1  0
  8  9  1  0
  8 28  1  0
  8 29  1  0
  9 10  2  0
  9 14  1  0
 10 11  1  0
 10 30  1  0
 11 12  2  0
 11 31  1  0
 12 13  1  0
 12 18  1  0
 13 14  2  0
 13 15  1  0
 14 32  1  0
 15 16  1  0
 16 17  1  0
 16 33  1  0
 16 34  1  0
 17 18  1  0
 17 35  1  0
 17 36  1  0
 20 21  1  0
 20 37  1  0
 20 38  1  0
 21 22  1  0
 21 39  1  0
 21 40  1  0
 22 23  1  0
 22 41  1  0
 22 42  1  0
 23 43  1  0
 23 44  1  0
M  END

