
     RDKit          3D

 34 34  0  0  0  0  0  0  0  0999 V2000
    0.8366   -0.2699    0.9270 C   0  0  0  0  0  0  0  0  0  0  0  0
    2.3388   -0.4525    1.0205 C   0  0  0  0  0  0  0  0  0  0  0  0
    2.9335    0.8355    0.8557 O   0  0  0  0  0  0  0  0  0  0  0  0
    4.2737    1.0316    0.8549 C   0  0  0  0  0  0  0  0  0  0  0  0
    4.7084    2.3509    0.6384 C   0  0  0  0  0  0  0  0  0  0  0  0
    6.0592    2.6891    0.6202 C   0  0  0  0  0  0  0  0  0  0  0  0
    7.0551    1.7168    0.8186 C   0  0  0  0  0  0  0  0  0  0  0  0
    8.5438    2.0308    0.7549 C   0  0  1  0  0  0  0  0  0  0  0  0
    9.0760    2.0198   -0.6966 C   0  0  0  0  0  0  0  0  0  0  0  0
    8.4982    3.0877   -1.5063 N   0  0  0  0  0  0  0  0  0  0  0  0
    8.9256    3.3295    1.4669 C   0  0  0  0  0  0  0  0  0  0  0  0
    8.5373    3.2505    2.8162 O   0  0  0  0  0  0  0  0  0  0  0  0
    8.7961    4.4149    3.5494 C   0  0  0  0  0  0  0  0  0  0  0  0
    6.6279    0.4015    1.0363 C   0  0  0  0  0  0  0  0  0  0  0  0
    5.2764    0.0667    1.0553 C   0  0  0  0  0  0  0  0  0  0  0  0
    4.9549   -1.2278    1.2817 F   0  0  0  0  0  0  0  0  0  0  0  0
    0.3285   -1.2390    1.0509 H   0  0  0  0  0  0  0  0  0  0  0  0
    0.5541    0.1499   -0.0508 H   0  0  0  0  0  0  0  0  0  0  0  0
    0.4776    0.4147    1.7110 H   0  0  0  0  0  0  0  0  0  0  0  0
    2.7031   -1.1404    0.2387 H   0  0  0  0  0  0  0  0  0  0  0  0
    2.6251   -0.8802    1.9958 H   0  0  0  0  0  0  0  0  0  0  0  0
    3.9360    3.1086    0.4892 H   0  0  0  0  0  0  0  0  0  0  0  0
    6.3375    3.7315    0.4557 H   0  0  0  0  0  0  0  0  0  0  0  0
    9.0672    1.2169    1.2851 H   0  0  0  0  0  0  0  0  0  0  0  0
    8.9161    1.0010   -1.1088 H   0  0  0  0  0  0  0  0  0  0  0  0
   10.1689    2.1722   -0.6636 H   0  0  0  0  0  0  0  0  0  0  0  0
    7.5212    2.8817   -1.7174 H   0  0  0  0  0  0  0  0  0  0  0  0
    8.9784    3.1537   -2.4030 H   0  0  0  0  0  0  0  0  0  0  0  0
    8.4619    4.2007    0.9651 H   0  0  0  0  0  0  0  0  0  0  0  0
   10.0246    3.4752    1.3854 H   0  0  0  0  0  0  0  0  0  0  0  0
    8.4470    4.2511    4.5798 H   0  0  0  0  0  0  0  0  0  0  0  0
    8.2654    5.2963    3.1336 H   0  0  0  0  0  0  0  0  0  0  0  0
    9.8788    4.6587    3.5799 H   0  0  0  0  0  0  0  0  0  0  0  0
    7.3452   -0.4047    1.2096 H   0  0  0  0  0  0  0  0  0  0  0  0
  1  2  1  0
  1 17  1  0
  1 18  1  0
  1 19  1  0
  2  3  1  0
  2 20  1  0
  2 21  1  0
  3  4  1  0
  4  5  2  0
  4 15  1  0
  5  6  1  0
  5 22  1  0
  6  7  2  0
  6 23  1  0
  7  8  1  0
  7 14  1  0
  8  9  1  0
  8 11  1  0
  8 24  1  1
  9 10  1  0
  9 25  1  0
  9 26  1  0
 10 27  1  0
 10 28  1  0
 11 12  1  0
 11 29  1  0
 11 30  1  0
 12 13  1  0
 13 31  1  0
 13 32  1  0
 13 33  1  0
 14 15  2  0
 14 34  1  0
 15 16  1  0
M  END

