
     RDKit          3D

 38 37  0  0  0  0  0  0  0  0999 V2000
    2.2300    0.9273   -0.1653 C   0  0  0  0  0  0  0  0  0  0  0  0
    2.8302   -0.3048    0.5195 C   0  0  1  0  0  0  0  0  0  0  0  0
    3.8600    0.0731    1.5893 C   0  0  0  0  0  0  0  0  0  0  0  0
    1.7305   -1.1876    1.1119 C   0  0  0  0  0  0  0  0  0  0  0  0
    3.4443   -1.1827   -0.4851 O   0  0  0  0  0  0  0  0  0  0  0  0
    4.4724   -0.7878   -1.2402 C   0  0  0  0  0  0  0  0  0  0  0  0
    5.0090    0.2974   -1.2101 O   0  0  0  0  0  0  0  0  0  0  0  0
    4.8155   -1.8279   -2.1311 N   0  0  0  0  0  0  0  0  0  0  0  0
    6.0546   -2.0406   -2.3354 C   0  0  0  0  0  0  0  0  0  0  0  0
    6.5521   -3.0550   -3.3173 C   0  0  0  0  0  0  0  0  0  0  0  0
    7.3995   -4.1656   -2.6667 C   0  0  0  0  0  0  0  0  0  0  0  0
    6.6026   -5.0953   -1.7463 C   0  0  0  0  0  0  0  0  0  0  0  0
    7.4609   -6.1895   -1.1079 C   0  0  0  0  0  0  0  0  0  0  0  0
    6.6660   -7.1239   -0.1990 C   0  0  0  0  0  0  0  0  0  0  0  0
    7.5164   -8.2113    0.4465 C   0  0  0  0  0  0  0  0  0  0  0  0
    8.6973   -8.3417    0.2818 O   0  0  0  0  0  0  0  0  0  0  0  0
    6.8413   -9.0644    1.2555 O   0  0  0  0  0  0  0  0  0  0  0  0
    1.6728    1.5253    0.5726 H   0  0  0  0  0  0  0  0  0  0  0  0
    1.5285    0.6214   -0.9570 H   0  0  0  0  0  0  0  0  0  0  0  0
    3.0128    1.5559   -0.6086 H   0  0  0  0  0  0  0  0  0  0  0  0
    3.3644    0.6328    2.3977 H   0  0  0  0  0  0  0  0  0  0  0  0
    4.6592    0.6973    1.1696 H   0  0  0  0  0  0  0  0  0  0  0  0
    4.3077   -0.8325    2.0282 H   0  0  0  0  0  0  0  0  0  0  0  0
    1.1788   -0.6394    1.8906 H   0  0  0  0  0  0  0  0  0  0  0  0
    2.1625   -2.0945    1.5615 H   0  0  0  0  0  0  0  0  0  0  0  0
    1.0204   -1.4965    0.3302 H   0  0  0  0  0  0  0  0  0  0  0  0
    6.8263   -1.4678   -1.7814 H   0  0  0  0  0  0  0  0  0  0  0  0
    7.1783   -2.5195   -4.0548 H   0  0  0  0  0  0  0  0  0  0  0  0
    5.6895   -3.4796   -3.8541 H   0  0  0  0  0  0  0  0  0  0  0  0
    8.2325   -3.7094   -2.1010 H   0  0  0  0  0  0  0  0  0  0  0  0
    7.8718   -4.7597   -3.4675 H   0  0  0  0  0  0  0  0  0  0  0  0
    5.7801   -5.5561   -2.3239 H   0  0  0  0  0  0  0  0  0  0  0  0
    6.1095   -4.5017   -0.9551 H   0  0  0  0  0  0  0  0  0  0  0  0
    8.2801   -5.7381   -0.5235 H   0  0  0  0  0  0  0  0  0  0  0  0
    7.9555   -6.7899   -1.8897 H   0  0  0  0  0  0  0  0  0  0  0  0
    5.8495   -7.6151   -0.7612 H   0  0  0  0  0  0  0  0  0  0  0  0
    6.1688   -6.5538    0.6085 H   0  0  0  0  0  0  0  0  0  0  0  0
    5.9023   -8.8320    1.2863 H   0  0  0  0  0  0  0  0  0  0  0  0
  1  2  1  0
  1 18  1  0
  1 19  1  0
  1 20  1  0
  2  3  1  0
  2  4  1  0
  2  5  1  6
  3 21  1  0
  3 22  1  0
  3 23  1  0
  4 24  1  0
  4 25  1  0
  4 26  1  0
  5  6  1  0
  6  7  2  0
  6  8  1  0
  8  9  2  0
  9 10  1  0
  9 27  1  0
 10 11  1  0
 10 28  1  0
 10 29  1  0
 11 12  1  0
 11 30  1  0
 11 31  1  0
 12 13  1  0
 12 32  1  0
 12 33  1  0
 13 14  1  0
 13 34  1  0
 13 35  1  0
 14 15  1  0
 14 36  1  0
 14 37  1  0
 15 16  2  0
 15 17  1  0
 17 38  1  0
M  END

