
     RDKit          3D

 40 41  0  0  0  0  0  0  0  0999 V2000
    3.3587   -1.6560    2.4544 C   0  0  0  0  0  0  0  0  0  0  0  0
    3.3394   -0.6983    1.2908 C   0  0  0  0  0  0  0  0  0  0  0  0
    4.0100    0.4495    1.4596 N   0  0  0  0  0  0  0  0  0  0  0  0
    4.0853    1.3244    0.4558 C   0  0  0  0  0  0  0  0  0  0  0  0
    3.4943    1.1129   -0.7906 C   0  0  0  0  0  0  0  0  0  0  0  0
    2.7728   -0.0663   -0.9731 C   0  0  0  0  0  0  0  0  0  0  0  0
    2.6708   -0.9899    0.0748 C   0  0  0  0  0  0  0  0  0  0  0  0
    2.0080   -2.3305   -0.1514 C   0  0  0  0  0  0  0  0  0  0  0  0
    2.6222   -3.3560    0.1193 O   0  0  0  0  0  0  0  0  0  0  0  0
    0.7643   -2.3558   -0.7405 N   0  0  0  0  0  0  0  0  0  0  0  0
   -0.2216   -1.2735   -0.6534 C   0  0  0  0  0  0  0  0  0  0  0  0
   -1.2374   -1.3952    0.5092 C   0  0  2  0  0  0  0  0  0  0  0  0
   -0.6400   -0.9131    1.8384 C   0  0  0  0  0  0  0  0  0  0  0  0
   -1.9050   -2.7859    0.6426 C   0  0  0  0  0  0  0  0  0  0  0  0
   -0.9709   -3.9575    1.0071 C   0  0  0  0  0  0  0  0  0  0  0  0
   -0.2213   -4.6143   -0.1655 C   0  0  0  0  0  0  0  0  0  0  0  0
    0.2349   -3.6383   -1.2644 C   0  0  2  0  0  0  0  0  0  0  0  0
    1.1682   -4.2963   -2.2858 C   0  0  0  0  0  0  0  0  0  0  0  0
    3.7590   -1.1379    3.3352 H   0  0  0  0  0  0  0  0  0  0  0  0
    3.9915   -2.5249    2.2181 H   0  0  0  0  0  0  0  0  0  0  0  0
    2.3598   -2.0579    2.6820 H   0  0  0  0  0  0  0  0  0  0  0  0
    4.6533    2.2423    0.6514 H   0  0  0  0  0  0  0  0  0  0  0  0
    3.5975    1.8474   -1.5925 H   0  0  0  0  0  0  0  0  0  0  0  0
    2.2982   -0.2819   -1.9341 H   0  0  0  0  0  0  0  0  0  0  0  0
   -0.7674   -1.2477   -1.6115 H   0  0  0  0  0  0  0  0  0  0  0  0
    0.2961   -0.3108   -0.5616 H   0  0  0  0  0  0  0  0  0  0  0  0
   -2.0461   -0.6870    0.2491 H   0  0  0  0  0  0  0  0  0  0  0  0
    0.2308   -1.5110    2.1472 H   0  0  0  0  0  0  0  0  0  0  0  0
   -1.3831   -0.9729    2.6499 H   0  0  0  0  0  0  0  0  0  0  0  0
   -0.3061    0.1341    1.7655 H   0  0  0  0  0  0  0  0  0  0  0  0
   -2.4596   -3.0224   -0.2838 H   0  0  0  0  0  0  0  0  0  0  0  0
   -2.6754   -2.6950    1.4271 H   0  0  0  0  0  0  0  0  0  0  0  0
   -1.5613   -4.7381    1.5148 H   0  0  0  0  0  0  0  0  0  0  0  0
   -0.2404   -3.6163    1.7582 H   0  0  0  0  0  0  0  0  0  0  0  0
   -0.8733   -5.3605   -0.6538 H   0  0  0  0  0  0  0  0  0  0  0  0
    0.6517   -5.1604    0.2223 H   0  0  0  0  0  0  0  0  0  0  0  0
   -0.6674   -3.3357   -1.8180 H   0  0  0  0  0  0  0  0  0  0  0  0
    2.0977   -4.6411   -1.8157 H   0  0  0  0  0  0  0  0  0  0  0  0
    1.4218   -3.5924   -3.0943 H   0  0  0  0  0  0  0  0  0  0  0  0
    0.6617   -5.1633   -2.7391 H   0  0  0  0  0  0  0  0  0  0  0  0
  1  2  1  0
  1 19  1  0
  1 20  1  0
  1 21  1  0
  2  3  2  0
  2  7  1  0
  3  4  1  0
  4  5  2  0
  4 22  1  0
  5  6  1  0
  5 23  1  0
  6  7  2  0
  6 24  1  0
  7  8  1  0
  8  9  2  0
  8 10  1  0
 10 11  1  0
 10 17  1  0
 11 12  1  0
 11 25  1  0
 11 26  1  0
 12 13  1  0
 12 14  1  0
 12 27  1  6
 13 28  1  0
 13 29  1  0
 13 30  1  0
 14 15  1  0
 14 31  1  0
 14 32  1  0
 15 16  1  0
 15 33  1  0
 15 34  1  0
 16 17  1  0
 16 35  1  0
 16 36  1  0
 17 18  1  0
 17 37  1  6
 18 38  1  0
 18 39  1  0
 18 40  1  0
M  END

