
     RDKit          3D

 30 31  0  0  0  0  0  0  0  0999 V2000
    3.0698    2.0434   -0.8178 C   0  0  0  0  0  0  0  0  0  0  0  0
    3.9659    0.9676   -0.5572 O   0  0  0  0  0  0  0  0  0  0  0  0
    3.6002   -0.2787   -0.9816 C   0  0  0  0  0  0  0  0  0  0  0  0
    4.4790   -0.9759   -1.8475 C   0  0  0  0  0  0  0  0  0  0  0  0
    5.6217   -0.3803   -2.2749 N   0  0  0  0  0  0  0  0  0  0  0  0
    4.2079   -2.2246   -2.2656 N   0  0  0  0  0  0  0  0  0  0  0  0
    3.0777   -2.7660   -1.8284 C   0  0  0  0  0  0  0  0  0  0  0  0
    2.1881   -2.2114   -1.0070 N   0  0  0  0  0  0  0  0  0  0  0  0
    2.4579   -0.9810   -0.5823 C   0  0  0  0  0  0  0  0  0  0  0  0
    1.6251   -0.3597    0.2943 O   0  0  0  0  0  0  0  0  0  0  0  0
    0.4031   -0.8870    0.6728 C   0  0  0  0  0  0  0  0  0  0  0  0
    0.1147   -0.8935    2.0382 C   0  0  0  0  0  0  0  0  0  0  0  0
   -1.1406   -1.3258    2.4750 C   0  0  0  0  0  0  0  0  0  0  0  0
   -2.1260   -1.7611    1.5793 C   0  0  0  0  0  0  0  0  0  0  0  0
   -3.4853   -2.2399    2.0155 C   0  0  0  0  0  0  0  0  0  0  0  0
   -1.7861   -1.7339    0.2198 C   0  0  0  0  0  0  0  0  0  0  0  0
   -2.7077   -2.1408   -0.6728 F   0  0  0  0  0  0  0  0  0  0  0  0
   -0.5533   -1.3060   -0.2571 C   0  0  0  0  0  0  0  0  0  0  0  0
    3.6000    2.9661   -0.5431 H   0  0  0  0  0  0  0  0  0  0  0  0
    2.1517    1.9593   -0.2167 H   0  0  0  0  0  0  0  0  0  0  0  0
    2.7998    2.0871   -1.8882 H   0  0  0  0  0  0  0  0  0  0  0  0
    5.9145    0.4805   -1.8338 H   0  0  0  0  0  0  0  0  0  0  0  0
    6.2941   -0.9488   -2.7720 H   0  0  0  0  0  0  0  0  0  0  0  0
    2.8532   -3.7819   -2.1758 H   0  0  0  0  0  0  0  0  0  0  0  0
    0.8764   -0.5569    2.7431 H   0  0  0  0  0  0  0  0  0  0  0  0
   -1.3621   -1.3287    3.5456 H   0  0  0  0  0  0  0  0  0  0  0  0
   -3.5875   -2.1916    3.1091 H   0  0  0  0  0  0  0  0  0  0  0  0
   -3.6646   -3.2808    1.6995 H   0  0  0  0  0  0  0  0  0  0  0  0
   -4.2889   -1.6320    1.5679 H   0  0  0  0  0  0  0  0  0  0  0  0
   -0.3528   -1.3193   -1.3269 H   0  0  0  0  0  0  0  0  0  0  0  0
  1  2  1  0
  1 19  1  0
  1 20  1  0
  1 21  1  0
  2  3  1  0
  3  4  2  0
  3  9  1  0
  4  5  1  0
  4  6  1  0
  5 22  1  0
  5 23  1  0
  6  7  2  0
  7  8  1  0
  7 24  1  0
  8  9  2  0
  9 10  1  0
 10 11  1  0
 11 12  2  0
 11 18  1  0
 12 13  1  0
 12 25  1  0
 13 14  2  0
 13 26  1  0
 14 15  1  0
 14 16  1  0
 15 27  1  0
 15 28  1  0
 15 29  1  0
 16 17  1  0
 16 18  2  0
 18 30  1  0
M  END

