
     RDKit          3D

 26 26  0  0  0  0  0  0  0  0999 V2000
    3.4303   -1.3628    0.2886 C   0  0  0  0  0  0  0  0  0  0  0  0
    2.7318   -0.0847   -0.1901 C   0  0  1  0  0  0  0  0  0  0  0  0
    1.2198   -0.2888   -0.3341 C   0  0  0  0  0  0  0  0  0  0  0  0
    3.0176    1.1168    0.7404 C   0  0  0  0  0  0  0  0  0  0  0  0
    4.4637    1.4261    0.9250 C   0  0  0  0  0  0  0  0  0  0  0  0
    5.1409    1.5399    2.0264 N   0  0  0  0  0  0  0  0  0  0  0  0
    6.4358    1.8174    1.6257 C   0  0  0  0  0  0  0  0  0  0  0  0
    6.4922    1.8580    0.2610 C   0  0  0  0  0  0  0  0  0  0  0  0
    7.5722    2.0249   -0.7461 C   0  0  0  0  0  0  0  0  0  0  0  0
    7.9958    0.7243   -1.4550 C   0  0  0  0  0  0  0  0  0  0  0  0
    8.4052    0.6980   -2.5801 O   0  0  0  0  0  0  0  0  0  0  0  0
    7.9150   -0.3938   -0.7063 O   0  0  0  0  0  0  0  0  0  0  0  0
    5.2233    1.6072   -0.1914 O   0  0  0  0  0  0  0  0  0  0  0  0
    3.2042   -2.2070   -0.3818 H   0  0  0  0  0  0  0  0  0  0  0  0
    3.1004   -1.6420    1.3039 H   0  0  0  0  0  0  0  0  0  0  0  0
    4.5257   -1.2471    0.3105 H   0  0  0  0  0  0  0  0  0  0  0  0
    3.1378    0.1710   -1.1852 H   0  0  0  0  0  0  0  0  0  0  0  0
    0.7606   -0.5486    0.6352 H   0  0  0  0  0  0  0  0  0  0  0  0
    0.9961   -1.1057   -1.0382 H   0  0  0  0  0  0  0  0  0  0  0  0
    0.7212    0.6209   -0.7063 H   0  0  0  0  0  0  0  0  0  0  0  0
    2.6034    0.9383    1.7446 H   0  0  0  0  0  0  0  0  0  0  0  0
    2.5101    2.0112    0.3365 H   0  0  0  0  0  0  0  0  0  0  0  0
    7.2425    1.9797    2.3399 H   0  0  0  0  0  0  0  0  0  0  0  0
    8.4675    2.4269   -0.2434 H   0  0  0  0  0  0  0  0  0  0  0  0
    7.2932    2.7401   -1.5334 H   0  0  0  0  0  0  0  0  0  0  0  0
    7.5492   -0.1799    0.1687 H   0  0  0  0  0  0  0  0  0  0  0  0
  1  2  1  0
  1 14  1  0
  1 15  1  0
  1 16  1  0
  2  3  1  0
  2  4  1  0
  2 17  1  6
  3 18  1  0
  3 19  1  0
  3 20  1  0
  4  5  1  0
  4 21  1  0
  4 22  1  0
  5  6  2  0
  5 13  1  0
  6  7  1  0
  7  8  2  0
  7 23  1  0
  8  9  1  0
  8 13  1  0
  9 10  1  0
  9 24  1  0
  9 25  1  0
 10 11  2  0
 10 12  1  0
 12 26  1  0
M  END

