
     RDKit          3D

 44 45  0  0  0  0  0  0  0  0999 V2000
    3.3723   -1.3262   -2.5541 N   0  0  0  0  0  0  0  0  0  0  0  0
    4.3459   -2.2733   -2.5791 C   0  0  0  0  0  0  0  0  0  0  0  0
    4.1498   -3.4422   -2.8521 O   0  0  0  0  0  0  0  0  0  0  0  0
    5.7730   -1.7732   -2.3065 C   0  0  0  0  0  0  0  0  0  0  0  0
    5.8983   -0.3255   -1.1843 S   0  0  0  0  0  0  0  0  0  0  0  0
    7.2689    0.5995   -1.9790 C   0  0  0  0  0  0  0  0  0  0  0  0
    7.5199    1.9019   -1.2259 C   0  0  0  0  0  0  0  0  0  0  0  0
    8.5374    2.7805   -1.9585 C   0  0  0  0  0  0  0  0  0  0  0  0
    8.6444    2.7632   -3.1761 O   0  0  0  0  0  0  0  0  0  0  0  0
    9.2711    3.6042   -1.1586 N   0  0  0  0  0  0  0  0  0  0  0  0
   10.2845    4.5152   -1.6877 C   0  0  0  0  0  0  0  0  0  0  0  0
   11.6928    3.9678   -1.6450 C   0  0  0  0  0  0  0  0  0  0  0  0
   12.1140    2.9357   -2.5066 C   0  0  0  0  0  0  0  0  0  0  0  0
   13.4078    2.4463   -2.4298 C   0  0  0  0  0  0  0  0  0  0  0  0
   14.2920    3.0053   -1.4643 C   0  0  0  0  0  0  0  0  0  0  0  0
   15.5803    2.5702   -1.3268 N   0  0  0  0  0  0  0  0  0  0  0  0
   16.1688    1.4789   -2.0934 C   0  0  0  0  0  0  0  0  0  0  0  0
   17.5207    1.2419   -1.4034 C   0  0  0  0  0  0  0  0  0  0  0  0
   17.8786    2.6265   -0.8446 C   0  0  0  0  0  0  0  0  0  0  0  0
   16.5237    3.1840   -0.3915 C   0  0  0  0  0  0  0  0  0  0  0  0
   13.8962    3.9957   -0.6449 N   0  0  0  0  0  0  0  0  0  0  0  0
   12.6474    4.4485   -0.7439 C   0  0  0  0  0  0  0  0  0  0  0  0
    2.4167   -1.6135   -2.7273 H   0  0  0  0  0  0  0  0  0  0  0  0
    3.5776   -0.3827   -2.2447 H   0  0  0  0  0  0  0  0  0  0  0  0
    6.2115   -1.4923   -3.2781 H   0  0  0  0  0  0  0  0  0  0  0  0
    6.3401   -2.6298   -1.9172 H   0  0  0  0  0  0  0  0  0  0  0  0
    7.0154    0.8278   -3.0244 H   0  0  0  0  0  0  0  0  0  0  0  0
    8.1759   -0.0255   -1.9785 H   0  0  0  0  0  0  0  0  0  0  0  0
    7.8419    1.7031   -0.1903 H   0  0  0  0  0  0  0  0  0  0  0  0
    6.5793    2.4780   -1.1579 H   0  0  0  0  0  0  0  0  0  0  0  0
    9.2239    3.4744   -0.1549 H   0  0  0  0  0  0  0  0  0  0  0  0
   10.2333    5.4591   -1.1211 H   0  0  0  0  0  0  0  0  0  0  0  0
    9.9872    4.7289   -2.7243 H   0  0  0  0  0  0  0  0  0  0  0  0
   11.4137    2.5279   -3.2413 H   0  0  0  0  0  0  0  0  0  0  0  0
   13.7389    1.6583   -3.1065 H   0  0  0  0  0  0  0  0  0  0  0  0
   16.3013    1.7594   -3.1579 H   0  0  0  0  0  0  0  0  0  0  0  0
   15.5292    0.5792   -2.0750 H   0  0  0  0  0  0  0  0  0  0  0  0
   18.2777    0.8336   -2.0893 H   0  0  0  0  0  0  0  0  0  0  0  0
   17.3973    0.5215   -0.5775 H   0  0  0  0  0  0  0  0  0  0  0  0
   18.2985    3.2603   -1.6439 H   0  0  0  0  0  0  0  0  0  0  0  0
   18.6158    2.5892   -0.0287 H   0  0  0  0  0  0  0  0  0  0  0  0
   16.4581    4.2810   -0.4371 H   0  0  0  0  0  0  0  0  0  0  0  0
   16.2885    2.8981    0.6516 H   0  0  0  0  0  0  0  0  0  0  0  0
   12.3793    5.2630   -0.0559 H   0  0  0  0  0  0  0  0  0  0  0  0
  1  2  1  0
  1 23  1  0
  1 24  1  0
  2  3  2  0
  2  4  1  0
  4  5  1  0
  4 25  1  0
  4 26  1  0
  5  6  1  0
  6  7  1  0
  6 27  1  0
  6 28  1  0
  7  8  1  0
  7 29  1  0
  7 30  1  0
  8  9  2  0
  8 10  1  0
 10 11  1  0
 10 31  1  0
 11 12  1  0
 11 32  1  0
 11 33  1  0
 12 13  2  0
 12 22  1  0
 13 14  1  0
 13 34  1  0
 14 15  2  0
 14 35  1  0
 15 16  1  0
 15 21  1  0
 16 17  1  0
 16 20  1  0
 17 18  1  0
 17 36  1  0
 17 37  1  0
 18 19  1  0
 18 38  1  0
 18 39  1  0
 19 20  1  0
 19 40  1  0
 19 41  1  0
 20 42  1  0
 20 43  1  0
 21 22  2  0
 22 44  1  0
M  END

