
     RDKit          3D

 44 45  0  0  0  0  0  0  0  0999 V2000
    0.3936   -0.9222   -0.2790 C   0  0  0  0  0  0  0  0  0  0  0  0
    1.8275   -0.4299   -0.0806 C   0  0  0  0  0  0  0  0  0  0  0  0
    2.5580   -0.1640   -1.4028 C   0  0  0  0  0  0  0  0  0  0  0  0
    3.9222    0.3167   -1.2129 N   0  0  0  0  0  0  0  0  0  0  0  0
    4.9210   -0.7167   -0.9599 C   0  0  0  0  0  0  0  0  0  0  0  0
    5.4353   -1.3999   -2.2402 C   0  0  0  0  0  0  0  0  0  0  0  0
    5.9476   -0.3578   -3.2438 C   0  0  0  0  0  0  0  0  0  0  0  0
    4.8663    0.6982   -3.5272 C   0  0  2  0  0  0  0  0  0  0  0  0
    5.2543    1.7864   -4.5102 C   0  0  0  0  0  0  0  0  0  0  0  0
    6.5880    2.1494   -4.7479 C   0  0  0  0  0  0  0  0  0  0  0  0
    6.9225    3.1808   -5.6402 C   0  0  0  0  0  0  0  0  0  0  0  0
    8.1980    3.5790   -5.9132 O   0  0  0  0  0  0  0  0  0  0  0  0
    9.2713    2.9356   -5.2716 C   0  0  0  0  0  0  0  0  0  0  0  0
    5.9008    3.8602   -6.3111 C   0  0  0  0  0  0  0  0  0  0  0  0
    4.5670    3.5155   -6.0901 C   0  0  0  0  0  0  0  0  0  0  0  0
    4.2362    2.4898   -5.1942 C   0  0  0  0  0  0  0  0  0  0  0  0
    2.9501    2.1051   -4.9247 O   0  0  0  0  0  0  0  0  0  0  0  0
    1.8875    2.7225   -5.6094 C   0  0  0  0  0  0  0  0  0  0  0  0
    4.3975    1.3030   -2.1706 C   0  0  0  0  0  0  0  0  0  0  0  0
   -0.1089   -1.1013    0.6847 H   0  0  0  0  0  0  0  0  0  0  0  0
    0.3651   -1.8671   -0.8478 H   0  0  0  0  0  0  0  0  0  0  0  0
   -0.2115   -0.1865   -0.8360 H   0  0  0  0  0  0  0  0  0  0  0  0
    2.3927   -1.1725    0.5098 H   0  0  0  0  0  0  0  0  0  0  0  0
    1.8391    0.5003    0.5126 H   0  0  0  0  0  0  0  0  0  0  0  0
    2.0021    0.6067   -1.9625 H   0  0  0  0  0  0  0  0  0  0  0  0
    2.5062   -1.0806   -2.0324 H   0  0  0  0  0  0  0  0  0  0  0  0
    4.5052   -1.4617   -0.2633 H   0  0  0  0  0  0  0  0  0  0  0  0
    5.7786   -0.2499   -0.4382 H   0  0  0  0  0  0  0  0  0  0  0  0
    4.6224   -1.9882   -2.7017 H   0  0  0  0  0  0  0  0  0  0  0  0
    6.2342   -2.1175   -1.9855 H   0  0  0  0  0  0  0  0  0  0  0  0
    6.2746   -0.8404   -4.1803 H   0  0  0  0  0  0  0  0  0  0  0  0
    6.8412    0.1295   -2.8117 H   0  0  0  0  0  0  0  0  0  0  0  0
    3.9914    0.1816   -3.9568 H   0  0  0  0  0  0  0  0  0  0  0  0
    7.3761    1.6086   -4.2272 H   0  0  0  0  0  0  0  0  0  0  0  0
   10.1899    3.4157   -5.6361 H   0  0  0  0  0  0  0  0  0  0  0  0
    9.3150    1.8573   -5.5136 H   0  0  0  0  0  0  0  0  0  0  0  0
    9.2257    3.0464   -4.1721 H   0  0  0  0  0  0  0  0  0  0  0  0
    6.1674    4.6585   -7.0064 H   0  0  0  0  0  0  0  0  0  0  0  0
    3.7885    4.0592   -6.6255 H   0  0  0  0  0  0  0  0  0  0  0  0
    0.9640    2.2441   -5.2550 H   0  0  0  0  0  0  0  0  0  0  0  0
    1.9637    2.5831   -6.7034 H   0  0  0  0  0  0  0  0  0  0  0  0
    1.8303    3.8059   -5.3962 H   0  0  0  0  0  0  0  0  0  0  0  0
    3.6055    2.0447   -2.3471 H   0  0  0  0  0  0  0  0  0  0  0  0
    5.2546    1.8436   -1.7251 H   0  0  0  0  0  0  0  0  0  0  0  0
  1  2  1  0
  1 20  1  0
  1 21  1  0
  1 22  1  0
  2  3  1  0
  2 23  1  0
  2 24  1  0
  3  4  1  0
  3 25  1  0
  3 26  1  0
  4  5  1  0
  4 19  1  0
  5  6  1  0
  5 27  1  0
  5 28  1  0
  6  7  1  0
  6 29  1  0
  6 30  1  0
  7  8  1  0
  7 31  1  0
  7 32  1  0
  8  9  1  0
  8 19  1  0
  8 33  1  6
  9 10  2  0
  9 16  1  0
 10 11  1  0
 10 34  1  0
 11 12  1  0
 11 14  2  0
 12 13  1  0
 13 35  1  0
 13 36  1  0
 13 37  1  0
 14 15  1  0
 14 38  1  0
 15 16  2  0
 15 39  1  0
 16 17  1  0
 17 18  1  0
 18 40  1  0
 18 41  1  0
 18 42  1  0
 19 43  1  0
 19 44  1  0
M  END

