
     RDKit          3D

 45 48  0  0  0  0  0  0  0  0999 V2000
   -5.3184   -7.6277   -5.8426 C   0  0  0  0  0  0  0  0  0  0  0  0
   -5.8485   -6.4813   -5.2139 O   0  0  0  0  0  0  0  0  0  0  0  0
   -5.2924   -6.0431   -4.0574 C   0  0  0  0  0  0  0  0  0  0  0  0
   -5.8718   -4.8907   -3.4909 C   0  0  0  0  0  0  0  0  0  0  0  0
   -5.3671   -4.3681   -2.3048 C   0  0  0  0  0  0  0  0  0  0  0  0
   -4.2836   -4.9752   -1.6592 C   0  0  0  0  0  0  0  0  0  0  0  0
   -3.7071   -6.1210   -2.2201 C   0  0  0  0  0  0  0  0  0  0  0  0
   -2.5670   -6.7683   -1.5522 C   0  0  0  0  0  0  0  0  0  0  0  0
   -1.9554   -7.8229   -2.0425 N   0  0  0  0  0  0  0  0  0  0  0  0
   -0.9640   -8.0942   -1.1071 O   0  0  0  0  0  0  0  0  0  0  0  0
   -1.0725   -7.1715   -0.1412 C   0  0  0  0  0  0  0  0  0  0  0  0
   -0.0777   -7.2121    0.9928 C   0  0  2  0  0  0  0  0  0  0  0  0
    0.8769   -6.8374    0.5914 H   0  0  0  0  0  0  0  0  0  0  0  0
    0.1155   -8.6231    1.5654 C   0  0  0  0  0  0  0  0  0  0  0  0
   -1.0649   -9.0472    2.4111 C   0  0  0  0  0  0  0  0  0  0  0  0
   -1.3471  -10.4073    2.6206 C   0  0  0  0  0  0  0  0  0  0  0  0
   -2.4257  -10.8070    3.4073 C   0  0  0  0  0  0  0  0  0  0  0  0
   -3.2497   -9.8399    3.9948 C   0  0  0  0  0  0  0  0  0  0  0  0
   -2.9821   -8.4882    3.7879 C   0  0  0  0  0  0  0  0  0  0  0  0
   -1.8915   -8.0777    3.0041 C   0  0  0  0  0  0  0  0  0  0  0  0
   -1.6566   -6.5896    2.8124 C   0  0  0  0  0  0  0  0  0  0  0  0
   -0.4511   -6.2869    2.0492 N   0  0  0  0  0  0  0  0  0  0  0  0
    0.2434   -5.0931    2.1346 C   0  0  0  0  0  0  0  0  0  0  0  0
   -0.2226   -4.0930    3.1785 C   0  0  0  0  0  0  0  0  0  0  0  0
    1.1960   -4.8565    1.4102 O   0  0  0  0  0  0  0  0  0  0  0  0
   -2.0372   -6.3314   -0.3536 N   0  0  0  0  0  0  0  0  0  0  0  0
   -4.2093   -6.6583   -3.4211 C   0  0  0  0  0  0  0  0  0  0  0  0
   -5.9158   -7.7909   -6.7496 H   0  0  0  0  0  0  0  0  0  0  0  0
   -5.3934   -8.5219   -5.1981 H   0  0  0  0  0  0  0  0  0  0  0  0
   -4.2610   -7.4869   -6.1302 H   0  0  0  0  0  0  0  0  0  0  0  0
   -6.7162   -4.4294   -4.0070 H   0  0  0  0  0  0  0  0  0  0  0  0
   -5.8228   -3.4725   -1.8749 H   0  0  0  0  0  0  0  0  0  0  0  0
   -3.8788   -4.5710   -0.7311 H   0  0  0  0  0  0  0  0  0  0  0  0
    1.0355   -8.6109    2.1746 H   0  0  0  0  0  0  0  0  0  0  0  0
    0.2839   -9.3414    0.7490 H   0  0  0  0  0  0  0  0  0  0  0  0
   -0.7072  -11.1603    2.1514 H   0  0  0  0  0  0  0  0  0  0  0  0
   -2.6296  -11.8700    3.5577 H   0  0  0  0  0  0  0  0  0  0  0  0
   -4.1013  -10.1407    4.6101 H   0  0  0  0  0  0  0  0  0  0  0  0
   -3.6299   -7.7317    4.2418 H   0  0  0  0  0  0  0  0  0  0  0  0
   -1.5767   -6.1231    3.8044 H   0  0  0  0  0  0  0  0  0  0  0  0
   -2.5443   -6.1494    2.3193 H   0  0  0  0  0  0  0  0  0  0  0  0
   -0.1275   -4.4967    4.1993 H   0  0  0  0  0  0  0  0  0  0  0  0
   -1.2754   -3.8081    3.0262 H   0  0  0  0  0  0  0  0  0  0  0  0
    0.4104   -3.2025    3.0879 H   0  0  0  0  0  0  0  0  0  0  0  0
   -3.7370   -7.5500   -3.8302 H   0  0  0  0  0  0  0  0  0  0  0  0
  1  2  1  0
  1 28  1  0
  1 29  1  0
  1 30  1  0
  2  3  1  0
  3  4  2  0
  3 27  1  0
  4  5  1  0
  4 31  1  0
  5  6  2  0
  5 32  1  0
  6  7  1  0
  6 33  1  0
  7  8  1  0
  7 27  2  0
  8  9  2  0
  8 26  1  0
  9 10  1  0
 10 11  1  0
 11 12  1  0
 11 26  2  0
 12 13  1  6
 12 14  1  0
 12 22  1  0
 14 15  1  0
 14 34  1  0
 14 35  1  0
 15 16  2  0
 15 20  1  0
 16 17  1  0
 16 36  1  0
 17 18  2  0
 17 37  1  0
 18 19  1  0
 18 38  1  0
 19 20  2  0
 19 39  1  0
 20 21  1  0
 21 22  1  0
 21 40  1  0
 21 41  1  0
 22 23  1  0
 23 24  1  0
 23 25  2  0
 24 42  1  0
 24 43  1  0
 24 44  1  0
 27 45  1  0
M  END

