
     RDKit          3D

 40 42  0  0  0  0  0  0  0  0999 V2000
   10.0932    2.9974    3.3402 C   0  0  0  0  0  0  0  0  0  0  0  0
    9.1033    2.2240    2.5130 C   0  0  0  0  0  0  0  0  0  0  0  0
    9.0705    2.4737    1.1968 N   0  0  0  0  0  0  0  0  0  0  0  0
    8.1921    1.7642    0.4876 C   0  0  0  0  0  0  0  0  0  0  0  0
    7.3334    0.8146    1.0321 C   0  0  0  0  0  0  0  0  0  0  0  0
    6.3378    0.0781    0.1807 C   0  0  0  0  0  0  0  0  0  0  0  0
    6.7620   -1.2860   -0.1776 N   0  0  0  0  0  0  0  0  0  0  0  0
    7.9233   -1.4598   -0.8288 N   0  0  0  0  0  0  0  0  0  0  0  0
    8.1093   -2.7344   -0.9921 N   0  0  0  0  0  0  0  0  0  0  0  0
    7.0600   -3.4200   -0.4676 C   0  0  0  0  0  0  0  0  0  0  0  0
    7.0079   -4.9096   -0.4782 C   0  0  0  0  0  0  0  0  0  0  0  0
    7.0081   -5.3643    0.8731 O   0  0  0  0  0  0  0  0  0  0  0  0
    7.0117   -6.6787    1.1455 C   0  0  0  0  0  0  0  0  0  0  0  0
    7.0546   -7.6861    0.1652 C   0  0  0  0  0  0  0  0  0  0  0  0
    7.0979   -9.0347    0.5278 C   0  0  0  0  0  0  0  0  0  0  0  0
    7.1160   -9.4201    1.8699 C   0  0  0  0  0  0  0  0  0  0  0  0
    7.0845   -8.4358    2.8572 C   0  0  0  0  0  0  0  0  0  0  0  0
    7.0123   -7.0890    2.5022 C   0  0  0  0  0  0  0  0  0  0  0  0
    6.9291   -6.1094    3.6019 N   0  0  0  0  0  0  0  0  0  0  0  0
    6.2632   -5.1030    3.4294 O   0  0  0  0  0  0  0  0  0  0  0  0
    7.5127   -6.3925    4.6376 O   0  0  0  0  0  0  0  0  0  0  0  0
    6.1769   -2.4937    0.0661 C   0  0  0  0  0  0  0  0  0  0  0  0
    4.3265   -2.7757    0.9876 I   0  0  0  0  0  0  0  0  0  0  0  0
    7.4655    0.6129    2.4329 C   0  0  0  0  0  0  0  0  0  0  0  0
    6.6976   -0.2685    3.1367 N   0  0  0  0  0  0  0  0  0  0  0  0
    8.3436    1.3286    3.1484 N   0  0  0  0  0  0  0  0  0  0  0  0
   10.3000    3.9709    2.8760 H   0  0  0  0  0  0  0  0  0  0  0  0
   11.0462    2.4430    3.3917 H   0  0  0  0  0  0  0  0  0  0  0  0
    9.7255    3.1238    4.3674 H   0  0  0  0  0  0  0  0  0  0  0  0
    8.1580    1.9626   -0.5916 H   0  0  0  0  0  0  0  0  0  0  0  0
    6.1693    0.6280   -0.7573 H   0  0  0  0  0  0  0  0  0  0  0  0
    5.3653   -0.0145    0.6864 H   0  0  0  0  0  0  0  0  0  0  0  0
    7.8898   -5.2802   -1.0259 H   0  0  0  0  0  0  0  0  0  0  0  0
    6.0967   -5.2746   -0.9870 H   0  0  0  0  0  0  0  0  0  0  0  0
    7.0656   -7.4201   -0.8913 H   0  0  0  0  0  0  0  0  0  0  0  0
    7.1263   -9.7922   -0.2592 H   0  0  0  0  0  0  0  0  0  0  0  0
    7.1549  -10.4751    2.1472 H   0  0  0  0  0  0  0  0  0  0  0  0
    7.1127   -8.6885    3.9171 H   0  0  0  0  0  0  0  0  0  0  0  0
    6.2121   -1.0304    2.6824 H   0  0  0  0  0  0  0  0  0  0  0  0
    6.9902   -0.4334    4.0940 H   0  0  0  0  0  0  0  0  0  0  0  0
  1  2  1  0
  1 27  1  0
  1 28  1  0
  1 29  1  0
  2  3  2  0
  2 26  1  0
  3  4  1  0
  4  5  2  0
  4 30  1  0
  5  6  1  0
  5 24  1  0
  6  7  1  0
  6 31  1  0
  6 32  1  0
  7  8  1  0
  7 22  1  0
  8  9  2  0
  9 10  1  0
 10 11  1  0
 10 22  2  0
 11 12  1  0
 11 33  1  0
 11 34  1  0
 12 13  1  0
 13 14  2  0
 13 18  1  0
 14 15  1  0
 14 35  1  0
 15 16  2  0
 15 36  1  0
 16 17  1  0
 16 37  1  0
 17 18  2  0
 17 38  1  0
 18 19  1  0
 19 20  2  0
 19 21  1  0
 22 23  1  0
 24 25  1  0
 24 26  2  0
 25 39  1  0
 25 40  1  0
M  CHG  2  19   1  21  -1
M  END

