
     RDKit          3D

 33 34  0  0  0  0  0  0  0  0999 V2000
    1.8430   -0.7086    1.1713 C   0  0  0  0  0  0  0  0  0  0  0  0
    2.5671    0.1347    0.1107 C   0  0  1  0  0  0  0  0  0  0  0  0
    3.0802    1.4296    0.7015 C   0  0  0  0  0  0  0  0  0  0  0  0
    2.7207    2.5851    0.2214 N   0  0  0  0  0  0  0  0  0  0  0  0
    3.3353    3.5012    1.0116 N   0  0  0  0  0  0  0  0  0  0  0  0
    3.2185    4.4950    0.8553 H   0  0  0  0  0  0  0  0  0  0  0  0
    4.0934    2.9704    2.0123 C   0  0  0  0  0  0  0  0  0  0  0  0
    4.9768    3.7795    3.1602 S   0  0  0  0  0  0  0  0  0  0  0  0
    3.9251    1.5929    1.8011 N   0  0  0  0  0  0  0  0  0  0  0  0
    4.5225    0.5912    2.6310 C   0  0  0  0  0  0  0  0  0  0  0  0
    4.2462    0.5846    4.0042 C   0  0  0  0  0  0  0  0  0  0  0  0
    4.8284   -0.3760    4.8305 C   0  0  0  0  0  0  0  0  0  0  0  0
    5.6931   -1.3262    4.2780 C   0  0  0  0  0  0  0  0  0  0  0  0
    6.4223   -2.5333    5.3095 Cl  0  0  0  0  0  0  0  0  0  0  0  0
    5.9820   -1.3197    2.9108 C   0  0  0  0  0  0  0  0  0  0  0  0
    5.4006   -0.3526    2.0885 C   0  0  0  0  0  0  0  0  0  0  0  0
    3.6409   -0.5821   -0.5984 N   0  0  0  0  0  0  0  0  0  0  0  0
    3.3364   -1.9634   -0.9355 C   0  0  0  0  0  0  0  0  0  0  0  0
    4.1030    0.1495   -1.7697 C   0  0  0  0  0  0  0  0  0  0  0  0
    1.1389   -0.0703    1.7256 H   0  0  0  0  0  0  0  0  0  0  0  0
    2.5405   -1.1577    1.8920 H   0  0  0  0  0  0  0  0  0  0  0  0
    1.2576   -1.5126    0.7046 H   0  0  0  0  0  0  0  0  0  0  0  0
    1.7971    0.4791   -0.6144 H   0  0  0  0  0  0  0  0  0  0  0  0
    3.5834    1.3395    4.4277 H   0  0  0  0  0  0  0  0  0  0  0  0
    4.6175   -0.3887    5.9007 H   0  0  0  0  0  0  0  0  0  0  0  0
    6.6635   -2.0635    2.4953 H   0  0  0  0  0  0  0  0  0  0  0  0
    5.5984   -0.3483    1.0175 H   0  0  0  0  0  0  0  0  0  0  0  0
    3.1641   -2.5693   -0.0358 H   0  0  0  0  0  0  0  0  0  0  0  0
    4.1991   -2.3997   -1.4619 H   0  0  0  0  0  0  0  0  0  0  0  0
    2.4512   -2.0714   -1.6033 H   0  0  0  0  0  0  0  0  0  0  0  0
    4.3902    1.1761   -1.5029 H   0  0  0  0  0  0  0  0  0  0  0  0
    3.3290    0.2186   -2.5672 H   0  0  0  0  0  0  0  0  0  0  0  0
    4.9858   -0.3509   -2.1966 H   0  0  0  0  0  0  0  0  0  0  0  0
  1  2  1  0
  1 20  1  0
  1 21  1  0
  1 22  1  0
  2  3  1  0
  2 17  1  0
  2 23  1  6
  3  4  2  0
  3  9  1  0
  4  5  1  0
  5  6  1  0
  5  7  1  0
  7  8  2  0
  7  9  1  0
  9 10  1  0
 10 11  2  0
 10 16  1  0
 11 12  1  0
 11 24  1  0
 12 13  2  0
 12 25  1  0
 13 14  1  0
 13 15  1  0
 15 16  2  0
 15 26  1  0
 16 27  1  0
 17 18  1  0
 17 19  1  0
 18 28  1  0
 18 29  1  0
 18 30  1  0
 19 31  1  0
 19 32  1  0
 19 33  1  0
M  END

