
     RDKit          3D

 48 51  0  0  0  0  0  0  0  0999 V2000
    4.7190    3.9815    2.9824 C   0  0  0  0  0  0  0  0  0  0  0  0
    4.5088    2.5417    2.5114 C   0  0  0  0  0  0  0  0  0  0  0  0
    4.9111    2.3163    1.1282 N   0  0  0  0  0  0  0  0  0  0  0  0
    4.1144    2.3570   -0.0027 C   0  0  0  0  0  0  0  0  0  0  0  0
    2.6336    2.6179    0.0331 C   0  0  0  0  0  0  0  0  0  0  0  0
    1.8925    1.6391    0.8272 N   0  0  0  0  0  0  0  0  0  0  0  0
    0.5304    2.0469    1.1725 C   0  0  0  0  0  0  0  0  0  0  0  0
   -0.4704    1.8982    0.0162 C   0  0  0  0  0  0  0  0  0  0  0  0
   -0.4523    0.4648   -0.5280 C   0  0  0  0  0  0  0  0  0  0  0  0
    0.9805    0.0178   -0.8898 C   0  0  2  0  0  0  0  0  0  0  0  0
    1.0275   -1.4211   -1.3071 C   0  0  0  0  0  0  0  0  0  0  0  0
    1.4155   -1.8108   -2.5138 N   0  0  0  0  0  0  0  0  0  0  0  0
    1.3056   -3.1536   -2.4348 N   0  0  0  0  0  0  0  0  0  0  0  0
    1.5457   -3.7328   -3.2313 H   0  0  0  0  0  0  0  0  0  0  0  0
    0.8653   -3.5315   -1.2093 C   0  0  0  0  0  0  0  0  0  0  0  0
    0.6378   -4.9488   -0.7982 C   0  0  0  0  0  0  0  0  0  0  0  0
    0.6802   -2.4494   -0.4739 N   0  0  0  0  0  0  0  0  0  0  0  0
    1.9286    0.2695    0.3125 C   0  0  0  0  0  0  0  0  0  0  0  0
    4.7841    2.1541   -1.1153 N   0  0  0  0  0  0  0  0  0  0  0  0
    6.0950    1.9750   -0.7297 C   0  0  0  0  0  0  0  0  0  0  0  0
    7.2357    1.7180   -1.5083 C   0  0  0  0  0  0  0  0  0  0  0  0
    8.4381    1.5730   -0.8316 C   0  0  0  0  0  0  0  0  0  0  0  0
    9.5588    1.3264   -1.5369 F   0  0  0  0  0  0  0  0  0  0  0  0
    8.5510    1.6704    0.5670 C   0  0  0  0  0  0  0  0  0  0  0  0
    7.4238    1.9250    1.3483 C   0  0  0  0  0  0  0  0  0  0  0  0
    6.2014    2.0748    0.6828 C   0  0  0  0  0  0  0  0  0  0  0  0
    4.4110    4.0841    4.0352 H   0  0  0  0  0  0  0  0  0  0  0  0
    4.1228    4.6886    2.3843 H   0  0  0  0  0  0  0  0  0  0  0  0
    5.7756    4.2822    2.9053 H   0  0  0  0  0  0  0  0  0  0  0  0
    3.4537    2.2436    2.5878 H   0  0  0  0  0  0  0  0  0  0  0  0
    5.0849    1.8455    3.1430 H   0  0  0  0  0  0  0  0  0  0  0  0
    2.3231    2.6871   -1.0273 H   0  0  0  0  0  0  0  0  0  0  0  0
    2.4494    3.6106    0.4807 H   0  0  0  0  0  0  0  0  0  0  0  0
    0.5533    3.0856    1.5422 H   0  0  0  0  0  0  0  0  0  0  0  0
    0.1957    1.4154    2.0161 H   0  0  0  0  0  0  0  0  0  0  0  0
   -0.2190    2.6100   -0.7903 H   0  0  0  0  0  0  0  0  0  0  0  0
   -1.4826    2.1664    0.3639 H   0  0  0  0  0  0  0  0  0  0  0  0
   -1.1081    0.3716   -1.4094 H   0  0  0  0  0  0  0  0  0  0  0  0
   -0.8491   -0.2282    0.2350 H   0  0  0  0  0  0  0  0  0  0  0  0
    1.3357    0.6033   -1.7532 H   0  0  0  0  0  0  0  0  0  0  0  0
    0.8960   -5.6512   -1.6042 H   0  0  0  0  0  0  0  0  0  0  0  0
   -0.4169   -5.1059   -0.5239 H   0  0  0  0  0  0  0  0  0  0  0  0
    1.2458   -5.1938    0.0861 H   0  0  0  0  0  0  0  0  0  0  0  0
    2.9616    0.0167    0.0293 H   0  0  0  0  0  0  0  0  0  0  0  0
    1.6387   -0.4158    1.1275 H   0  0  0  0  0  0  0  0  0  0  0  0
    7.1852    1.6338   -2.5944 H   0  0  0  0  0  0  0  0  0  0  0  0
    9.5363    1.5440    1.0195 H   0  0  0  0  0  0  0  0  0  0  0  0
    7.5089    2.0034    2.4341 H   0  0  0  0  0  0  0  0  0  0  0  0
  1  2  1  0
  1 27  1  0
  1 28  1  0
  1 29  1  0
  2  3  1  0
  2 30  1  0
  2 31  1  0
  3  4  1  0
  3 26  1  0
  4  5  1  0
  4 19  2  0
  5  6  1  0
  5 32  1  0
  5 33  1  0
  6  7  1  0
  6 18  1  0
  7  8  1  0
  7 34  1  0
  7 35  1  0
  8  9  1  0
  8 36  1  0
  8 37  1  0
  9 10  1  0
  9 38  1  0
  9 39  1  0
 10 11  1  0
 10 18  1  0
 10 40  1  6
 11 12  2  0
 11 17  1  0
 12 13  1  0
 13 14  1  0
 13 15  1  0
 15 16  1  0
 15 17  2  0
 16 41  1  0
 16 42  1  0
 16 43  1  0
 18 44  1  0
 18 45  1  0
 19 20  1  0
 20 21  1  0
 20 26  2  0
 21 22  2  0
 21 46  1  0
 22 23  1  0
 22 24  1  0
 24 25  2  0
 24 47  1  0
 25 26  1  0
 25 48  1  0
M  END

