
     RDKit          3D

 37 39  0  0  0  0  0  0  0  0999 V2000
    2.7804   -1.1770   -2.9494 C   0  0  0  0  0  0  0  0  0  0  0  0
    3.5129   -0.8226   -1.7040 C   0  0  0  0  0  0  0  0  0  0  0  0
    4.6864   -1.2294   -1.1956 C   0  0  0  0  0  0  0  0  0  0  0  0
    4.9075   -0.4566    0.0697 C   0  0  1  0  0  0  0  0  0  0  0  0
    5.0174   -1.3440    1.2246 N   0  0  0  0  0  0  0  0  0  0  0  0
    4.8235   -1.0056    2.5472 C   0  0  0  0  0  0  0  0  0  0  0  0
    4.4570   -1.9915    3.4947 C   0  0  0  0  0  0  0  0  0  0  0  0
    4.2863   -1.6735    4.7688 N   0  0  0  0  0  0  0  0  0  0  0  0
    4.4623   -0.4153    5.1631 C   0  0  0  0  0  0  0  0  0  0  0  0
    4.8418    0.5825    4.2352 C   0  0  0  0  0  0  0  0  0  0  0  0
    5.0161    1.9121    4.5308 N   0  0  0  0  0  0  0  0  0  0  0  0
    5.1011    2.5595    5.7780 C   0  0  0  0  0  0  0  0  0  0  0  0
    5.6988    1.9650    6.9030 C   0  0  0  0  0  0  0  0  0  0  0  0
    5.7802    2.6697    8.1061 C   0  0  0  0  0  0  0  0  0  0  0  0
    5.2927    3.9757    8.2053 C   0  0  0  0  0  0  0  0  0  0  0  0
    4.7188    4.5772    7.0809 C   0  0  0  0  0  0  0  0  0  0  0  0
    4.6157    3.8759    5.8798 C   0  0  0  0  0  0  0  0  0  0  0  0
    5.0228    0.2553    2.9413 N   0  0  0  0  0  0  0  0  0  0  0  0
    6.1080    0.5510   -0.1029 C   0  0  0  0  0  0  0  0  0  0  0  0
    6.6893    0.6321   -1.1539 O   0  0  0  0  0  0  0  0  0  0  0  0
    6.3930    1.2890    0.9497 O   0  0  0  0  0  0  0  0  0  0  0  0
    3.6452    0.3739    0.1735 N   0  0  0  0  0  0  0  0  0  0  0  0
    2.9173    0.1548   -0.8120 N   0  0  0  0  0  0  0  0  0  0  0  0
    3.3099   -1.9489   -3.5242 H   0  0  0  0  0  0  0  0  0  0  0  0
    2.6577   -0.2848   -3.5854 H   0  0  0  0  0  0  0  0  0  0  0  0
    1.7667   -1.5381   -2.7099 H   0  0  0  0  0  0  0  0  0  0  0  0
    5.4033   -1.9220   -1.6316 H   0  0  0  0  0  0  0  0  0  0  0  0
    4.7704   -2.3032    1.0121 H   0  0  0  0  0  0  0  0  0  0  0  0
    4.2921   -3.0315    3.1911 H   0  0  0  0  0  0  0  0  0  0  0  0
    4.2804   -0.1795    6.2126 H   0  0  0  0  0  0  0  0  0  0  0  0
    5.0449    2.5130    3.7129 H   0  0  0  0  0  0  0  0  0  0  0  0
    6.1236    0.9630    6.8334 H   0  0  0  0  0  0  0  0  0  0  0  0
    6.2476    2.1927    8.9714 H   0  0  0  0  0  0  0  0  0  0  0  0
    5.3650    4.5224    9.1482 H   0  0  0  0  0  0  0  0  0  0  0  0
    4.3375    5.5997    7.1392 H   0  0  0  0  0  0  0  0  0  0  0  0
    4.1505    4.3446    5.0083 H   0  0  0  0  0  0  0  0  0  0  0  0
    5.8245    1.0432    1.7473 H   0  0  0  0  0  0  0  0  0  0  0  0
  1  2  1  0
  1 24  1  0
  1 25  1  0
  1 26  1  0
  2  3  2  0
  2 23  1  0
  3  4  1  0
  3 27  1  0
  4  5  1  0
  4 19  1  6
  4 22  1  0
  5  6  1  0
  5 28  1  0
  6  7  2  0
  6 18  1  0
  7  8  1  0
  7 29  1  0
  8  9  2  0
  9 10  1  0
  9 30  1  0
 10 11  1  0
 10 18  2  0
 11 12  1  0
 11 31  1  0
 12 13  2  0
 12 17  1  0
 13 14  1  0
 13 32  1  0
 14 15  2  0
 14 33  1  0
 15 16  1  0
 15 34  1  0
 16 17  2  0
 16 35  1  0
 17 36  1  0
 19 20  2  0
 19 21  1  0
 21 37  1  0
 22 23  2  0
M  END

