
     RDKit          3D

 33 35  0  0  0  0  0  0  0  0999 V2000
    0.9843    0.0497    0.5417 N   0  0  0  0  0  0  0  0  0  0  0  0
    2.3447    0.0542    0.3844 C   0  0  0  0  0  0  0  0  0  0  0  0
    3.0843   -1.1272    0.4261 C   0  0  0  0  0  0  0  0  0  0  0  0
    4.4823   -1.0965    0.2081 C   0  0  0  0  0  0  0  0  0  0  0  0
    5.3005   -2.3757    0.2064 C   0  0  0  0  0  0  0  0  0  0  0  0
    6.3876   -2.4204   -0.3222 O   0  0  0  0  0  0  0  0  0  0  0  0
    4.7252   -3.6320    0.8783 C   0  0  0  0  0  0  0  0  0  0  0  0
    3.9459   -4.5159   -0.0784 C   0  0  0  0  0  0  0  0  0  0  0  0
    4.4729   -4.8861   -1.3248 C   0  0  0  0  0  0  0  0  0  0  0  0
    3.7213   -5.7161   -2.1605 C   0  0  0  0  0  0  0  0  0  0  0  0
    2.5125   -6.1915   -1.8454 N   0  0  0  0  0  0  0  0  0  0  0  0
    2.0115   -5.8434   -0.6592 C   0  0  0  0  0  0  0  0  0  0  0  0
    2.6785   -5.0157    0.2501 C   0  0  0  0  0  0  0  0  0  0  0  0
    5.1639    0.0118   -0.0174 N   0  0  0  0  0  0  0  0  0  0  0  0
    4.4829    1.1832   -0.0457 C   0  0  0  0  0  0  0  0  0  0  0  0
    5.2213    2.3808   -0.2766 C   0  0  0  0  0  0  0  0  0  0  0  0
    4.5903    3.6040   -0.3365 C   0  0  0  0  0  0  0  0  0  0  0  0
    3.1854    3.6909   -0.1728 C   0  0  0  0  0  0  0  0  0  0  0  0
    2.4400    2.5513    0.0560 C   0  0  0  0  0  0  0  0  0  0  0  0
    3.0617    1.2767    0.1364 C   0  0  0  0  0  0  0  0  0  0  0  0
    0.5398   -0.8010    0.8607 H   0  0  0  0  0  0  0  0  0  0  0  0
    0.5051    0.9059    0.7825 H   0  0  0  0  0  0  0  0  0  0  0  0
    2.5693   -2.0735    0.5974 H   0  0  0  0  0  0  0  0  0  0  0  0
    4.1016   -3.3753    1.7464 H   0  0  0  0  0  0  0  0  0  0  0  0
    5.6018   -4.1897    1.2445 H   0  0  0  0  0  0  0  0  0  0  0  0
    5.4569   -4.5291   -1.6372 H   0  0  0  0  0  0  0  0  0  0  0  0
    4.1225   -6.0106   -3.1377 H   0  0  0  0  0  0  0  0  0  0  0  0
    1.0209   -6.2429   -0.4084 H   0  0  0  0  0  0  0  0  0  0  0  0
    2.2139   -4.7744    1.2105 H   0  0  0  0  0  0  0  0  0  0  0  0
    6.3001    2.2779   -0.4074 H   0  0  0  0  0  0  0  0  0  0  0  0
    5.1705    4.5125   -0.5171 H   0  0  0  0  0  0  0  0  0  0  0  0
    2.6902    4.6630   -0.2338 H   0  0  0  0  0  0  0  0  0  0  0  0
    1.3561    2.6440    0.1602 H   0  0  0  0  0  0  0  0  0  0  0  0
  1  2  1  0
  1 21  1  0
  1 22  1  0
  2  3  2  0
  2 20  1  0
  3  4  1  0
  3 23  1  0
  4  5  1  0
  4 14  2  0
  5  6  2  0
  5  7  1  0
  7  8  1  0
  7 24  1  0
  7 25  1  0
  8  9  2  0
  8 13  1  0
  9 10  1  0
  9 26  1  0
 10 11  2  0
 10 27  1  0
 11 12  1  0
 12 13  2  0
 12 28  1  0
 13 29  1  0
 14 15  1  0
 15 16  1  0
 15 20  2  0
 16 17  2  0
 16 30  1  0
 17 18  1  0
 17 31  1  0
 18 19  2  0
 18 32  1  0
 19 20  1  0
 19 33  1  0
M  END

