
     RDKit          3D

 51 54  0  0  0  0  0  0  0  0999 V2000
    0.8034    3.9038   -4.4386 C   0  0  0  0  0  0  0  0  0  0  0  0
    1.7425    2.9464   -3.7775 C   0  0  0  0  0  0  0  0  0  0  0  0
    2.0221    1.7692   -4.3114 N   0  0  0  0  0  0  0  0  0  0  0  0
    2.8909    1.1292   -3.4921 N   0  0  0  0  0  0  0  0  0  0  0  0
    3.3780   -0.1950   -3.8061 C   0  0  0  0  0  0  0  0  0  0  0  0
    3.1935    1.8893   -2.4027 C   0  0  0  0  0  0  0  0  0  0  0  0
    4.0021    1.5574   -1.3923 N   0  0  0  0  0  0  0  0  0  0  0  0
    4.1235    2.4779   -0.4453 C   0  0  0  0  0  0  0  0  0  0  0  0
    3.4648    3.7342   -0.4858 C   0  0  0  0  0  0  0  0  0  0  0  0
    3.7209    4.9053    0.8488 S   0  0  1  0  0  0  0  0  0  0  0  0
    2.6013    5.8528    0.8002 O   0  0  0  0  0  0  0  0  0  0  0  0
    4.0148    4.1137    2.0478 O   0  0  0  0  0  0  0  0  0  0  0  0
    5.1070    5.7434    0.4397 N   0  0  0  0  0  0  0  0  0  0  0  0
    6.3988    5.3734    1.0380 C   0  0  0  0  0  0  0  0  0  0  0  0
    7.2788    6.6043    0.7193 C   0  0  2  0  0  0  0  0  0  0  0  0
    8.4907    6.6846    1.6491 C   0  0  0  0  0  0  0  0  0  0  0  0
    6.2387    7.7252    0.9336 C   0  0  0  0  0  0  0  0  0  0  0  0
    5.0762    7.1905    0.0908 C   0  0  1  0  0  0  0  0  0  0  0  0
    5.3353    7.4018   -1.4103 C   0  0  0  0  0  0  0  0  0  0  0  0
    6.8373    7.3023   -1.8391 C   0  0  1  0  0  0  0  0  0  0  0  0
    6.9336    6.5401   -3.1746 C   0  0  0  0  0  0  0  0  0  0  0  0
    7.4015    8.7228   -2.0739 C   0  0  0  0  0  0  0  0  0  0  0  0
    7.7240    6.5606   -0.7790 C   0  0  0  0  0  0  0  0  0  0  0  0
    2.6080    4.0627   -1.5337 C   0  0  0  0  0  0  0  0  0  0  0  0
    2.4622    3.1033   -2.5436 C   0  0  0  0  0  0  0  0  0  0  0  0
    0.4339    3.4714   -5.3785 H   0  0  0  0  0  0  0  0  0  0  0  0
    1.2989    4.8625   -4.6657 H   0  0  0  0  0  0  0  0  0  0  0  0
   -0.0620    4.1283   -3.7932 H   0  0  0  0  0  0  0  0  0  0  0  0
    2.5398   -0.9045   -3.8820 H   0  0  0  0  0  0  0  0  0  0  0  0
    4.0512   -0.5050   -2.9965 H   0  0  0  0  0  0  0  0  0  0  0  0
    3.9255   -0.1879   -4.7611 H   0  0  0  0  0  0  0  0  0  0  0  0
    4.7533    2.2345    0.4159 H   0  0  0  0  0  0  0  0  0  0  0  0
    6.8041    4.4468    0.5988 H   0  0  0  0  0  0  0  0  0  0  0  0
    6.3025    5.2203    2.1255 H   0  0  0  0  0  0  0  0  0  0  0  0
    8.1860    6.6844    2.7082 H   0  0  0  0  0  0  0  0  0  0  0  0
    9.0684    7.6040    1.4622 H   0  0  0  0  0  0  0  0  0  0  0  0
    9.1695    5.8294    1.4933 H   0  0  0  0  0  0  0  0  0  0  0  0
    6.5819    8.7201    0.6193 H   0  0  0  0  0  0  0  0  0  0  0  0
    5.9557    7.7849    1.9973 H   0  0  0  0  0  0  0  0  0  0  0  0
    4.1008    7.6057    0.3725 H   0  0  0  0  0  0  0  0  0  0  0  0
    4.9439    8.3917   -1.6998 H   0  0  0  0  0  0  0  0  0  0  0  0
    4.7309    6.6632   -1.9592 H   0  0  0  0  0  0  0  0  0  0  0  0
    6.3605    7.0521   -3.9656 H   0  0  0  0  0  0  0  0  0  0  0  0
    6.5346    5.5176   -3.0776 H   0  0  0  0  0  0  0  0  0  0  0  0
    7.9795    6.4643   -3.5164 H   0  0  0  0  0  0  0  0  0  0  0  0
    6.8170    9.2545   -2.8426 H   0  0  0  0  0  0  0  0  0  0  0  0
    8.4466    8.6762   -2.4218 H   0  0  0  0  0  0  0  0  0  0  0  0
    7.3857    9.3405   -1.1631 H   0  0  0  0  0  0  0  0  0  0  0  0
    8.7429    6.9740   -0.8571 H   0  0  0  0  0  0  0  0  0  0  0  0
    7.8198    5.5015   -1.0688 H   0  0  0  0  0  0  0  0  0  0  0  0
    2.0783    5.0177   -1.5350 H   0  0  0  0  0  0  0  0  0  0  0  0
  1  2  1  0
  1 26  1  0
  1 27  1  0
  1 28  1  0
  2  3  2  0
  2 25  1  0
  3  4  1  0
  4  5  1  0
  4  6  1  0
  5 29  1  0
  5 30  1  0
  5 31  1  0
  6  7  1  0
  6 25  2  0
  7  8  2  0
  8  9  1  0
  8 32  1  0
 10  9  1  6
  9 24  2  0
 10 11  2  0
 10 12  2  0
 10 13  1  0
 13 14  1  0
 13 18  1  0
 14 15  1  0
 14 33  1  0
 14 34  1  0
 15 16  1  1
 15 17  1  0
 15 23  1  0
 16 35  1  0
 16 36  1  0
 16 37  1  0
 17 18  1  0
 17 38  1  0
 17 39  1  0
 18 19  1  0
 18 40  1  1
 19 20  1  0
 19 41  1  0
 19 42  1  0
 20 21  1  6
 20 22  1  0
 20 23  1  0
 21 43  1  0
 21 44  1  0
 21 45  1  0
 22 46  1  0
 22 47  1  0
 22 48  1  0
 23 49  1  0
 23 50  1  0
 24 25  1  0
 24 51  1  0
M  END

