
     RDKit          3D

 71 75  0  0  0  0  0  0  0  0999 V2000
    2.2286    3.9808    0.3331 C   0  0  0  0  0  0  0  0  0  0  0  0
    3.2295    3.1057   -0.2359 N   0  0  0  0  0  0  0  0  0  0  0  0
    3.6226    3.2267   -1.5301 C   0  0  0  0  0  0  0  0  0  0  0  0
    4.5196    2.3952   -2.1596 C   0  0  0  0  0  0  0  0  0  0  0  0
    5.2161    1.4301   -1.2790 C   0  0  0  0  0  0  0  0  0  0  0  0
    6.4130    0.7607   -1.6049 N   0  0  0  0  0  0  0  0  0  0  0  0
    6.7236    0.1492   -0.8571 H   0  0  0  0  0  0  0  0  0  0  0  0
    7.2741    0.7648   -2.6106 N   0  0  0  0  0  0  0  0  0  0  0  0
    7.0808    1.3850   -3.7355 C   0  0  0  0  0  0  0  0  0  0  0  0
    8.0436    1.2772   -4.8358 C   0  0  0  0  0  0  0  0  0  0  0  0
    7.5472    1.9164   -5.9291 C   0  0  0  0  0  0  0  0  0  0  0  0
    6.2351    2.4766   -5.5960 C   0  0  0  0  0  0  0  0  0  0  0  0
    5.3261    3.1924   -6.3728 C   0  0  0  0  0  0  0  0  0  0  0  0
    4.1367    3.5726   -5.7468 C   0  0  0  0  0  0  0  0  0  0  0  0
    3.2123    4.2334   -6.4692 F   0  0  0  0  0  0  0  0  0  0  0  0
    3.8484    3.2916   -4.4158 C   0  0  0  0  0  0  0  0  0  0  0  0
    4.7792    2.6021   -3.5968 C   0  0  0  0  0  0  0  0  0  0  0  0
    5.9531    2.1714   -4.2329 C   0  0  0  0  0  0  0  0  0  0  0  0
    4.7390    1.2021   -0.0124 C   0  0  0  0  0  0  0  0  0  0  0  0
    5.4017    0.2895    0.9723 C   0  0  0  0  0  0  0  0  0  0  0  0
    5.2193   -1.0422    0.8775 C   0  0  0  0  0  0  0  0  0  0  0  0
    5.7893   -2.0608    1.8187 C   0  0  0  0  0  0  0  0  0  0  0  0
    6.4298   -1.4522    2.9702 N   0  0  0  0  0  0  0  0  0  0  0  0
    7.1034   -2.3855    3.8347 C   0  0  0  0  0  0  0  0  0  0  0  0
    6.1371   -3.2961    4.6128 C   0  0  0  0  0  0  0  0  0  0  0  0
    4.9236   -3.2108    4.4834 O   0  0  0  0  0  0  0  0  0  0  0  0
    6.7127   -4.2180    5.4521 N   0  0  0  0  0  0  0  0  0  0  0  0
    8.1498   -4.3720    5.6435 C   0  0  0  0  0  0  0  0  0  0  0  0
    5.8403   -5.2034    6.0858 C   0  0  0  0  0  0  0  0  0  0  0  0
    5.4808   -4.9098    7.5433 C   0  0  1  0  0  0  0  0  0  0  0  0
    6.6480   -4.9772    8.3393 O   0  0  0  0  0  0  0  0  0  0  0  0
    4.7986   -3.5584    7.7664 C   0  0  0  0  0  0  0  0  0  0  0  0
    4.6640   -3.3146    9.1626 O   0  0  0  0  0  0  0  0  0  0  0  0
    7.1962   -0.2729    2.6130 C   0  0  0  0  0  0  0  0  0  0  0  0
    6.2788    0.8650    2.1086 C   0  0  2  0  0  0  0  0  0  0  0  0
    5.4115    1.3597    3.2879 C   0  0  0  0  0  0  0  0  0  0  0  0
    7.1609    2.0210    1.6030 C   0  0  0  0  0  0  0  0  0  0  0  0
    3.4142    1.8066    0.3899 C   0  0  0  0  0  0  0  0  0  0  0  0
    2.1998    4.9316   -0.2173 H   0  0  0  0  0  0  0  0  0  0  0  0
    2.4658    4.2031    1.3866 H   0  0  0  0  0  0  0  0  0  0  0  0
    1.2166    3.5286    0.3033 H   0  0  0  0  0  0  0  0  0  0  0  0
    3.2097    4.0853   -2.0625 H   0  0  0  0  0  0  0  0  0  0  0  0
    8.9862    0.7381   -4.7479 H   0  0  0  0  0  0  0  0  0  0  0  0
    8.0239    2.0015   -6.9061 H   0  0  0  0  0  0  0  0  0  0  0  0
    5.5012    3.4405   -7.4210 H   0  0  0  0  0  0  0  0  0  0  0  0
    2.8719    3.5998   -4.0427 H   0  0  0  0  0  0  0  0  0  0  0  0
    4.6140   -1.4426    0.0567 H   0  0  0  0  0  0  0  0  0  0  0  0
    6.5023   -2.7091    1.2459 H   0  0  0  0  0  0  0  0  0  0  0  0
    4.9842   -2.7256    2.1695 H   0  0  0  0  0  0  0  0  0  0  0  0
    7.6975   -1.8155    4.5680 H   0  0  0  0  0  0  0  0  0  0  0  0
    7.8349   -3.0312    3.2909 H   0  0  0  0  0  0  0  0  0  0  0  0
    8.6624   -3.4008    5.6354 H   0  0  0  0  0  0  0  0  0  0  0  0
    8.6109   -5.0128    4.8682 H   0  0  0  0  0  0  0  0  0  0  0  0
    8.3211   -4.8205    6.6294 H   0  0  0  0  0  0  0  0  0  0  0  0
    6.3378   -6.1867    6.0495 H   0  0  0  0  0  0  0  0  0  0  0  0
    4.9150   -5.2610    5.4969 H   0  0  0  0  0  0  0  0  0  0  0  0
    4.7638   -5.7063    7.8514 H   0  0  0  0  0  0  0  0  0  0  0  0
    6.4346   -4.4874    9.1509 H   0  0  0  0  0  0  0  0  0  0  0  0
    3.8353   -3.5037    7.2305 H   0  0  0  0  0  0  0  0  0  0  0  0
    5.4412   -2.7542    7.3788 H   0  0  0  0  0  0  0  0  0  0  0  0
    3.9404   -3.8610    9.4986 H   0  0  0  0  0  0  0  0  0  0  0  0
    7.9665   -0.4903    1.8348 H   0  0  0  0  0  0  0  0  0  0  0  0
    7.7410    0.0782    3.5046 H   0  0  0  0  0  0  0  0  0  0  0  0
    4.8033    0.5378    3.6909 H   0  0  0  0  0  0  0  0  0  0  0  0
    4.7507    2.1877    2.9909 H   0  0  0  0  0  0  0  0  0  0  0  0
    6.0575    1.7383    4.0983 H   0  0  0  0  0  0  0  0  0  0  0  0
    7.8099    1.7117    0.7688 H   0  0  0  0  0  0  0  0  0  0  0  0
    7.8095    2.3886    2.4152 H   0  0  0  0  0  0  0  0  0  0  0  0
    6.5483    2.8645    1.2515 H   0  0  0  0  0  0  0  0  0  0  0  0
    3.3602    1.9278    1.4807 H   0  0  0  0  0  0  0  0  0  0  0  0
    2.5687    1.1267    0.1166 H   0  0  0  0  0  0  0  0  0  0  0  0
  1  2  1  0
  1 39  1  0
  1 40  1  0
  1 41  1  0
  2  3  1  0
  2 38  1  0
  3  4  2  0
  3 42  1  0
  4  5  1  0
  4 17  1  0
  5  6  1  0
  5 19  2  0
  6  7  1  0
  6  8  1  0
  8  9  2  0
  9 10  1  0
  9 18  1  0
 10 11  2  0
 10 43  1  0
 11 12  1  0
 11 44  1  0
 12 13  1  0
 12 18  2  0
 13 14  2  0
 13 45  1  0
 14 15  1  0
 14 16  1  0
 16 17  2  0
 16 46  1  0
 17 18  1  0
 19 20  1  0
 19 38  1  0
 20 21  2  0
 20 35  1  0
 21 22  1  0
 21 47  1  0
 22 23  1  0
 22 48  1  0
 22 49  1  0
 23 24  1  0
 23 34  1  0
 24 25  1  0
 24 50  1  0
 24 51  1  0
 25 26  2  0
 25 27  1  0
 27 28  1  0
 27 29  1  0
 28 52  1  0
 28 53  1  0
 28 54  1  0
 29 30  1  0
 29 55  1  0
 29 56  1  0
 30 31  1  0
 30 32  1  0
 30 57  1  1
 31 58  1  0
 32 33  1  0
 32 59  1  0
 32 60  1  0
 33 61  1  0
 34 35  1  0
 34 62  1  0
 34 63  1  0
 35 36  1  1
 35 37  1  0
 36 64  1  0
 36 65  1  0
 36 66  1  0
 37 67  1  0
 37 68  1  0
 37 69  1  0
 38 70  1  0
 38 71  1  0
M  END

