
     RDKit          3D

 45 47  0  0  0  0  0  0  0  0999 V2000
    1.1168   -0.7796   -0.6989 O   0  0  0  0  0  0  0  0  0  0  0  0
    1.4212   -0.2941    0.3738 C   0  0  0  0  0  0  0  0  0  0  0  0
    1.5335    1.0658    0.6038 N   0  0  0  0  0  0  0  0  0  0  0  0
    1.3131    2.1265   -0.2727 C   0  0  0  0  0  0  0  0  0  0  0  0
    0.9292    1.9415   -1.6187 C   0  0  0  0  0  0  0  0  0  0  0  0
    0.7213    3.0316   -2.4569 C   0  0  0  0  0  0  0  0  0  0  0  0
    0.8951    4.3227   -1.9604 C   0  0  0  0  0  0  0  0  0  0  0  0
    0.6772    5.4812   -2.8447 N   0  0  0  0  0  0  0  0  0  0  0  0
    0.3477    5.2536   -3.9975 O   0  0  0  0  0  0  0  0  0  0  0  0
    0.8402    6.5936   -2.3682 O   0  0  0  0  0  0  0  0  0  0  0  0
    1.2739    4.5499   -0.6375 C   0  0  0  0  0  0  0  0  0  0  0  0
    1.4796    3.4562    0.1938 C   0  0  0  0  0  0  0  0  0  0  0  0
    1.9993    3.7844    2.0061 Br  0  0  0  0  0  0  0  0  0  0  0  0
    1.6740   -1.1505    1.6108 C   0  0  1  0  0  0  0  0  0  0  0  0
    2.2504   -0.5813    2.3586 H   0  0  0  0  0  0  0  0  0  0  0  0
    0.3725   -1.6556    2.2640 C   0  0  0  0  0  0  0  0  0  0  0  0
    0.7554   -3.0123    2.8562 C   0  0  0  0  0  0  0  0  0  0  0  0
    0.1041   -3.6474    3.6608 O   0  0  0  0  0  0  0  0  0  0  0  0
    1.9466   -3.3992    2.2864 N   0  0  0  0  0  0  0  0  0  0  0  0
    2.4883   -4.7374    2.5524 C   0  0  1  0  0  0  0  0  0  0  0  0
    2.6589   -5.6033    1.2843 C   0  0  0  0  0  0  0  0  0  0  0  0
    3.9661   -5.3686    0.5104 C   0  0  0  0  0  0  0  0  0  0  0  0
    5.1922   -5.4549    1.4289 C   0  0  0  0  0  0  0  0  0  0  0  0
    5.0737   -4.4913    2.6168 C   0  0  0  0  0  0  0  0  0  0  0  0
    3.7775   -4.7293    3.4053 C   0  0  0  0  0  0  0  0  0  0  0  0
    2.4295   -2.4572    1.2833 C   0  0  0  0  0  0  0  0  0  0  0  0
    1.7998    1.3436    1.5442 H   0  0  0  0  0  0  0  0  0  0  0  0
    0.8008    0.9248   -1.9821 H   0  0  0  0  0  0  0  0  0  0  0  0
    0.4248    2.8942   -3.4963 H   0  0  0  0  0  0  0  0  0  0  0  0
    1.4006    5.5713   -0.2822 H   0  0  0  0  0  0  0  0  0  0  0  0
   -0.4139   -1.8287    1.5097 H   0  0  0  0  0  0  0  0  0  0  0  0
   -0.0398   -0.9928    3.0368 H   0  0  0  0  0  0  0  0  0  0  0  0
    1.6977   -5.1910    3.1677 H   0  0  0  0  0  0  0  0  0  0  0  0
    1.7820   -5.4746    0.6285 H   0  0  0  0  0  0  0  0  0  0  0  0
    2.6394   -6.6572    1.6139 H   0  0  0  0  0  0  0  0  0  0  0  0
    3.9510   -4.3829    0.0148 H   0  0  0  0  0  0  0  0  0  0  0  0
    4.0461   -6.1101   -0.3022 H   0  0  0  0  0  0  0  0  0  0  0  0
    6.1137   -5.2515    0.8582 H   0  0  0  0  0  0  0  0  0  0  0  0
    5.2868   -6.4883    1.8116 H   0  0  0  0  0  0  0  0  0  0  0  0
    5.1162   -3.4500    2.2507 H   0  0  0  0  0  0  0  0  0  0  0  0
    5.9399   -4.6069    3.2898 H   0  0  0  0  0  0  0  0  0  0  0  0
    3.6664   -3.9955    4.2197 H   0  0  0  0  0  0  0  0  0  0  0  0
    3.8476   -5.7193    3.8911 H   0  0  0  0  0  0  0  0  0  0  0  0
    2.1820   -2.7812    0.2576 H   0  0  0  0  0  0  0  0  0  0  0  0
    3.5186   -2.3187    1.3442 H   0  0  0  0  0  0  0  0  0  0  0  0
  1  2  2  0
  2  3  1  0
  2 14  1  0
  3  4  1  0
  3 27  1  0
  4  5  2  0
  4 12  1  0
  5  6  1  0
  5 28  1  0
  6  7  2  0
  6 29  1  0
  7  8  1  0
  7 11  1  0
  8  9  2  0
  8 10  1  0
 11 12  2  0
 11 30  1  0
 12 13  1  0
 14 15  1  1
 14 16  1  0
 14 26  1  0
 16 17  1  0
 16 31  1  0
 16 32  1  0
 17 18  2  0
 17 19  1  0
 19 20  1  0
 19 26  1  0
 20 21  1  0
 20 25  1  0
 20 33  1  1
 21 22  1  0
 21 34  1  0
 21 35  1  0
 22 23  1  0
 22 36  1  0
 22 37  1  0
 23 24  1  0
 23 38  1  0
 23 39  1  0
 24 25  1  0
 24 40  1  0
 24 41  1  0
 25 42  1  0
 25 43  1  0
 26 44  1  0
 26 45  1  0
M  CHG  2   8   1  10  -1
M  END

