
     RDKit          3D

 41 42  0  0  0  0  0  0  0  0999 V2000
   13.9230    3.0737  -10.0812 C   0  0  0  0  0  0  0  0  0  0  0  0
   13.1122    4.3039   -9.7135 C   0  0  0  0  0  0  0  0  0  0  0  0
   13.3463    4.7097   -8.3501 O   0  0  0  0  0  0  0  0  0  0  0  0
   12.6089    4.1145   -7.3970 C   0  0  0  0  0  0  0  0  0  0  0  0
   11.7563    3.2802   -7.5933 O   0  0  0  0  0  0  0  0  0  0  0  0
   12.9882    4.6207   -6.1657 N   0  0  0  0  0  0  0  0  0  0  0  0
   12.4999    4.3074   -4.9071 C   0  0  0  0  0  0  0  0  0  0  0  0
   11.4537    3.3491   -4.7102 C   0  0  0  0  0  0  0  0  0  0  0  0
   11.0617    3.1713   -3.4169 C   0  0  0  0  0  0  0  0  0  0  0  0
   11.6501    3.8320   -2.3809 N   0  0  0  0  0  0  0  0  0  0  0  0
   11.0929    3.6802   -1.0303 C   0  0  2  0  0  0  0  0  0  0  0  0
   10.3189    2.8997   -1.1285 H   0  0  0  0  0  0  0  0  0  0  0  0
   10.5236    4.8857   -0.6040 O   0  0  0  0  0  0  0  0  0  0  0  0
   10.9538    5.2463    0.7223 C   0  0  2  0  0  0  0  0  0  0  0  0
   10.1752    4.9323    1.4439 H   0  0  0  0  0  0  0  0  0  0  0  0
   11.1035    6.7560    0.7755 C   0  0  0  0  0  0  0  0  0  0  0  0
    9.8828    7.4174    0.5349 O   0  0  0  0  0  0  0  0  0  0  0  0
   12.2438    4.4469    0.9814 C   0  0  1  0  0  0  0  0  0  0  0  0
   13.1109    5.0040    0.6075 H   0  0  0  0  0  0  0  0  0  0  0  0
   12.4784    4.1393    2.3272 O   0  0  0  0  0  0  0  0  0  0  0  0
   12.0385    3.1984    0.1016 C   0  0  2  0  0  0  0  0  0  0  0  0
   13.2762    2.4173   -0.2670 C   0  0  0  0  0  0  0  0  0  0  0  0
   11.2152    2.3397    0.8799 F   0  0  0  0  0  0  0  0  0  0  0  0
   12.7101    4.7703   -2.6228 C   0  0  0  0  0  0  0  0  0  0  0  0
   13.2366    5.3282   -1.6771 O   0  0  0  0  0  0  0  0  0  0  0  0
   13.0717    4.9659   -3.9264 N   0  0  0  0  0  0  0  0  0  0  0  0
   13.7804    2.8397  -11.1483 H   0  0  0  0  0  0  0  0  0  0  0  0
   13.5989    2.2010   -9.4950 H   0  0  0  0  0  0  0  0  0  0  0  0
   14.9970    3.2418   -9.9067 H   0  0  0  0  0  0  0  0  0  0  0  0
   12.0355    4.1255   -9.8498 H   0  0  0  0  0  0  0  0  0  0  0  0
   13.4101    5.1759  -10.3130 H   0  0  0  0  0  0  0  0  0  0  0  0
   13.7226    5.3240   -6.1587 H   0  0  0  0  0  0  0  0  0  0  0  0
   10.9930    2.8218   -5.5398 H   0  0  0  0  0  0  0  0  0  0  0  0
   10.2521    2.4877   -3.1515 H   0  0  0  0  0  0  0  0  0  0  0  0
   11.8906    7.0527    0.0554 H   0  0  0  0  0  0  0  0  0  0  0  0
   11.4405    7.0373    1.7864 H   0  0  0  0  0  0  0  0  0  0  0  0
    9.5823    7.1335   -0.3396 H   0  0  0  0  0  0  0  0  0  0  0  0
   11.8248    3.4720    2.5849 H   0  0  0  0  0  0  0  0  0  0  0  0
   13.9701    3.0416   -0.8444 H   0  0  0  0  0  0  0  0  0  0  0  0
   13.0192    1.5164   -0.8451 H   0  0  0  0  0  0  0  0  0  0  0  0
   13.7774    2.1071    0.6619 H   0  0  0  0  0  0  0  0  0  0  0  0
  1  2  1  0
  1 27  1  0
  1 28  1  0
  1 29  1  0
  2  3  1  0
  2 30  1  0
  2 31  1  0
  3  4  1  0
  4  5  2  0
  4  6  1  0
  6  7  1  0
  6 32  1  0
  7  8  1  0
  7 26  2  0
  8  9  2  0
  8 33  1  0
  9 10  1  0
  9 34  1  0
 10 11  1  0
 10 24  1  0
 11 12  1  6
 11 13  1  0
 11 21  1  0
 13 14  1  0
 14 15  1  1
 14 16  1  0
 14 18  1  0
 16 17  1  0
 16 35  1  0
 16 36  1  0
 17 37  1  0
 18 19  1  6
 18 20  1  0
 18 21  1  0
 20 38  1  0
 21 22  1  0
 21 23  1  1
 22 39  1  0
 22 40  1  0
 22 41  1  0
 24 25  2  0
 24 26  1  0
M  END

