
     RDKit          3D

 52 55  0  0  0  0  0  0  0  0999 V2000
   -0.5207    0.2538    2.3578 C   0  0  0  0  0  0  0  0  0  0  0  0
    0.8585    0.0916    1.6952 C   0  0  1  0  0  0  0  0  0  0  0  0
    0.7245   -0.3026    0.2140 C   0  0  0  0  0  0  0  0  0  0  0  0
    1.7270    1.3295    1.8781 C   0  0  0  0  0  0  0  0  0  0  0  0
    2.9328    1.2644    2.5878 C   0  0  0  0  0  0  0  0  0  0  0  0
    3.7366    2.3976    2.7582 C   0  0  0  0  0  0  0  0  0  0  0  0
    3.3597    3.6322    2.2188 C   0  0  0  0  0  0  0  0  0  0  0  0
    4.2295    4.8679    2.4198 C   0  0  1  0  0  0  0  0  0  0  0  0
    4.5413    5.6728    1.1779 C   0  0  0  0  0  0  0  0  0  0  0  0
    5.1294    5.6768   -0.1231 C   0  0  0  0  0  0  0  0  0  0  0  0
    5.7927    4.6049   -0.8887 C   0  0  0  0  0  0  0  0  0  0  0  0
    6.3377    4.8759   -2.1589 C   0  0  0  0  0  0  0  0  0  0  0  0
    6.9743    3.8727   -2.8879 C   0  0  0  0  0  0  0  0  0  0  0  0
    7.0819    2.5779   -2.3666 C   0  0  0  0  0  0  0  0  0  0  0  0
    6.5436    2.2977   -1.1083 C   0  0  0  0  0  0  0  0  0  0  0  0
    5.9047    3.3013   -0.3757 C   0  0  0  0  0  0  0  0  0  0  0  0
    5.0250    6.9116   -0.6475 N   0  0  0  0  0  0  0  0  0  0  0  0
    4.4053    7.6707    0.2651 N   0  0  0  0  0  0  0  0  0  0  0  0
    4.2294    8.6507    0.0767 H   0  0  0  0  0  0  0  0  0  0  0  0
    4.1026    6.9600    1.3717 C   0  0  0  0  0  0  0  0  0  0  0  0
    3.4943    7.1504    2.7060 C   0  0  0  0  0  0  0  0  0  0  0  0
    3.0418    8.1635    3.2113 O   0  0  0  0  0  0  0  0  0  0  0  0
    3.5724    5.8909    3.2749 N   0  0  0  0  0  0  0  0  0  0  0  0
    3.1857    5.6027    4.6633 C   0  0  1  0  0  0  0  0  0  0  0  0
    4.0859    6.3463    5.6605 C   0  0  0  0  0  0  0  0  0  0  0  0
    1.6950    5.8718    4.9063 C   0  0  0  0  0  0  0  0  0  0  0  0
    2.1516    3.7055    1.5078 C   0  0  0  0  0  0  0  0  0  0  0  0
    1.3526    2.5762    1.3421 C   0  0  0  0  0  0  0  0  0  0  0  0
   -1.1052   -0.6768    2.2730 H   0  0  0  0  0  0  0  0  0  0  0  0
   -1.1054    1.0569    1.8796 H   0  0  0  0  0  0  0  0  0  0  0  0
   -0.4259    0.5007    3.4268 H   0  0  0  0  0  0  0  0  0  0  0  0
    1.3755   -0.7367    2.2105 H   0  0  0  0  0  0  0  0  0  0  0  0
    0.2014    0.4765   -0.3646 H   0  0  0  0  0  0  0  0  0  0  0  0
    0.1476   -1.2361    0.1102 H   0  0  0  0  0  0  0  0  0  0  0  0
    1.7106   -0.4575   -0.2509 H   0  0  0  0  0  0  0  0  0  0  0  0
    3.2522    0.3107    3.0181 H   0  0  0  0  0  0  0  0  0  0  0  0
    4.6731    2.3144    3.3184 H   0  0  0  0  0  0  0  0  0  0  0  0
    5.1663    4.5448    2.9119 H   0  0  0  0  0  0  0  0  0  0  0  0
    6.2526    5.8868   -2.5604 H   0  0  0  0  0  0  0  0  0  0  0  0
    7.3916    4.1020   -3.8720 H   0  0  0  0  0  0  0  0  0  0  0  0
    7.5818    1.7927   -2.9396 H   0  0  0  0  0  0  0  0  0  0  0  0
    6.6175    1.2899   -0.6914 H   0  0  0  0  0  0  0  0  0  0  0  0
    5.4796    3.0601    0.5994 H   0  0  0  0  0  0  0  0  0  0  0  0
    3.3541    4.5208    4.7872 H   0  0  0  0  0  0  0  0  0  0  0  0
    3.9578    7.4338    5.5586 H   0  0  0  0  0  0  0  0  0  0  0  0
    5.1474    6.1036    5.4923 H   0  0  0  0  0  0  0  0  0  0  0  0
    3.8309    6.0604    6.6933 H   0  0  0  0  0  0  0  0  0  0  0  0
    1.4668    6.9381    4.7689 H   0  0  0  0  0  0  0  0  0  0  0  0
    1.4216    5.5826    5.9335 H   0  0  0  0  0  0  0  0  0  0  0  0
    1.0758    5.2870    4.2090 H   0  0  0  0  0  0  0  0  0  0  0  0
    1.8376    4.6590    1.0752 H   0  0  0  0  0  0  0  0  0  0  0  0
    0.4197    2.6679    0.7795 H   0  0  0  0  0  0  0  0  0  0  0  0
  1  2  1  0
  1 29  1  0
  1 30  1  0
  1 31  1  0
  2  3  1  0
  2  4  1  0
  2 32  1  1
  3 33  1  0
  3 34  1  0
  3 35  1  0
  4  5  2  0
  4 28  1  0
  5  6  1  0
  5 36  1  0
  6  7  2  0
  6 37  1  0
  7  8  1  0
  7 27  1  0
  8  9  1  0
  8 23  1  0
  8 38  1  1
  9 10  1  0
  9 20  2  0
 10 11  1  0
 10 17  2  0
 11 12  2  0
 11 16  1  0
 12 13  1  0
 12 39  1  0
 13 14  2  0
 13 40  1  0
 14 15  1  0
 14 41  1  0
 15 16  2  0
 15 42  1  0
 16 43  1  0
 17 18  1  0
 18 19  1  0
 18 20  1  0
 20 21  1  0
 21 22  2  0
 21 23  1  0
 23 24  1  0
 24 25  1  0
 24 26  1  0
 24 44  1  1
 25 45  1  0
 25 46  1  0
 25 47  1  0
 26 48  1  0
 26 49  1  0
 26 50  1  0
 27 28  2  0
 27 51  1  0
 28 52  1  0
M  END

