
     RDKit          3D

 38 40  0  0  0  0  0  0  0  0999 V2000
    0.9487   -0.0706    1.3966 C   0  0  0  0  0  0  0  0  0  0  0  0
    2.3338   -0.0977    0.8059 C   0  0  0  0  0  0  0  0  0  0  0  0
    2.5817   -0.3131   -0.5580 C   0  0  0  0  0  0  0  0  0  0  0  0
    3.8791   -0.3183   -1.0764 C   0  0  0  0  0  0  0  0  0  0  0  0
    4.9905   -0.1128   -0.2453 C   0  0  0  0  0  0  0  0  0  0  0  0
    6.4078   -0.1306   -0.8238 C   0  0  1  0  0  0  0  0  0  0  0  0
    7.3584    0.7801   -0.1876 N   0  0  0  0  0  0  0  0  0  0  0  0
    7.0287   -1.5331   -0.8860 C   0  0  0  0  0  0  0  0  0  0  0  0
    8.3316   -1.6662   -1.4009 C   0  0  0  0  0  0  0  0  0  0  0  0
    8.9702   -2.9069   -1.4924 C   0  0  0  0  0  0  0  0  0  0  0  0
    8.2720   -4.0303   -1.0515 C   0  0  0  0  0  0  0  0  0  0  0  0
    6.9763   -3.9291   -0.5353 C   0  0  0  0  0  0  0  0  0  0  0  0
    6.3506   -2.6877   -0.4527 C   0  0  0  0  0  0  0  0  0  0  0  0
    6.5057   -5.3282   -0.2116 C   0  0  0  0  0  0  0  0  0  0  0  0
    7.8161   -6.1465   -0.3389 C   0  0  1  0  0  0  0  0  0  0  0  0
    7.6979   -7.4821   -1.0460 C   0  0  0  0  0  0  0  0  0  0  0  0
    8.7458   -5.3030   -1.0711 O   0  0  0  0  0  0  0  0  0  0  0  0
    4.7601    0.1091    1.1185 C   0  0  0  0  0  0  0  0  0  0  0  0
    3.4592    0.1108    1.6111 C   0  0  0  0  0  0  0  0  0  0  0  0
    3.2713    0.3288    2.9279 F   0  0  0  0  0  0  0  0  0  0  0  0
    0.1959   -0.3675    0.6522 H   0  0  0  0  0  0  0  0  0  0  0  0
    0.6877    0.9375    1.7604 H   0  0  0  0  0  0  0  0  0  0  0  0
    0.8674   -0.7494    2.2604 H   0  0  0  0  0  0  0  0  0  0  0  0
    1.7324   -0.4755   -1.2278 H   0  0  0  0  0  0  0  0  0  0  0  0
    4.0316   -0.4871   -2.1461 H   0  0  0  0  0  0  0  0  0  0  0  0
    6.3050    0.2163   -1.8696 H   0  0  0  0  0  0  0  0  0  0  0  0
    7.6222    0.4477    0.7396 H   0  0  0  0  0  0  0  0  0  0  0  0
    6.9599    1.7128   -0.0833 H   0  0  0  0  0  0  0  0  0  0  0  0
    8.8591   -0.7650   -1.7207 H   0  0  0  0  0  0  0  0  0  0  0  0
    9.9823   -3.0016   -1.8904 H   0  0  0  0  0  0  0  0  0  0  0  0
    5.3369   -2.6123   -0.0550 H   0  0  0  0  0  0  0  0  0  0  0  0
    5.7542   -5.6704   -0.9470 H   0  0  0  0  0  0  0  0  0  0  0  0
    6.0561   -5.4269    0.7885 H   0  0  0  0  0  0  0  0  0  0  0  0
    8.2549   -6.2910    0.6663 H   0  0  0  0  0  0  0  0  0  0  0  0
    7.2726   -7.3518   -2.0538 H   0  0  0  0  0  0  0  0  0  0  0  0
    7.0439   -8.1605   -0.4753 H   0  0  0  0  0  0  0  0  0  0  0  0
    8.6854   -7.9573   -1.1463 H   0  0  0  0  0  0  0  0  0  0  0  0
    5.5821    0.2862    1.8146 H   0  0  0  0  0  0  0  0  0  0  0  0
  1  2  1  0
  1 21  1  0
  1 22  1  0
  1 23  1  0
  2  3  2  0
  2 19  1  0
  3  4  1  0
  3 24  1  0
  4  5  2  0
  4 25  1  0
  5  6  1  0
  5 18  1  0
  6  7  1  0
  6  8  1  0
  6 26  1  6
  7 27  1  0
  7 28  1  0
  8  9  2  0
  8 13  1  0
  9 10  1  0
  9 29  1  0
 10 11  2  0
 10 30  1  0
 11 12  1  0
 11 17  1  0
 12 13  2  0
 12 14  1  0
 13 31  1  0
 14 15  1  0
 14 32  1  0
 14 33  1  0
 15 16  1  0
 15 17  1  0
 15 34  1  1
 16 35  1  0
 16 36  1  0
 16 37  1  0
 18 19  2  0
 18 38  1  0
 19 20  1  0
M  END

