
     RDKit          3D

 97101  0  0  0  0  0  0  0  0999 V2000
   16.7797   -7.7637   -4.6095 C   0  0  0  0  0  0  0  0  0  0  0  0
   15.5917   -8.3929   -5.0284 O   0  0  0  0  0  0  0  0  0  0  0  0
   14.4780   -8.2901   -4.2556 C   0  0  0  0  0  0  0  0  0  0  0  0
   13.3261   -8.9362   -4.7375 C   0  0  0  0  0  0  0  0  0  0  0  0
   12.1383   -8.8831   -4.0157 C   0  0  0  0  0  0  0  0  0  0  0  0
   12.0496   -8.1909   -2.7931 C   0  0  0  0  0  0  0  0  0  0  0  0
   10.7619   -8.1706   -2.0003 C   0  0  0  0  0  0  0  0  0  0  0  0
   10.5956   -9.3895   -1.0789 C   0  0  0  0  0  0  0  0  0  0  0  0
    9.2216   -9.4321   -0.4132 C   0  0  0  0  0  0  0  0  0  0  0  0
    8.2142   -9.0198   -0.9691 O   0  0  0  0  0  0  0  0  0  0  0  0
    9.1939   -9.9756    0.8406 N   0  0  0  0  0  0  0  0  0  0  0  0
    7.9439  -10.1901    1.5501 C   0  0  0  0  0  0  0  0  0  0  0  0
    7.2621  -11.5233    1.2119 C   0  0  0  0  0  0  0  0  0  0  0  0
    5.8883  -11.6394    1.8810 C   0  0  0  0  0  0  0  0  0  0  0  0
    4.9897  -12.8620    1.5140 C   0  0  1  0  0  0  0  0  0  0  0  0
    3.7310  -12.8225    2.4455 C   0  0  0  0  0  0  0  0  0  0  0  0
    2.7204  -11.6940    2.2031 C   0  0  0  0  0  0  0  0  0  0  0  0
    1.5623  -11.7346    3.2096 C   0  0  0  0  0  0  0  0  0  0  0  0
    0.4346  -10.7093    2.9783 C   0  0  1  0  0  0  0  0  0  0  0  0
   -0.7868  -11.0563    3.8437 C   0  0  0  0  0  0  0  0  0  0  0  0
   -2.0303  -10.1797    3.6122 C   0  0  0  0  0  0  0  0  0  0  0  0
   -1.9886   -8.7765    4.1736 C   0  0  0  0  0  0  0  0  0  0  0  0
   -2.9740   -8.3482    5.0848 C   0  0  0  0  0  0  0  0  0  0  0  0
   -3.0515   -7.0341    5.5444 C   0  0  0  0  0  0  0  0  0  0  0  0
   -3.9866   -6.5595    6.4122 O   0  0  0  0  0  0  0  0  0  0  0  0
   -4.9685   -7.4395    6.8959 C   0  0  0  0  0  0  0  0  0  0  0  0
   -2.0971   -6.0920    5.0807 C   0  0  0  0  0  0  0  0  0  0  0  0
   -2.2282   -4.8269    5.5554 O   0  0  0  0  0  0  0  0  0  0  0  0
   -1.3202   -3.8417    5.1311 C   0  0  0  0  0  0  0  0  0  0  0  0
   -1.0963   -6.5146    4.2062 C   0  0  0  0  0  0  0  0  0  0  0  0
   -1.0276   -7.8470    3.7441 C   0  0  0  0  0  0  0  0  0  0  0  0
   -0.0169   -8.2224    2.8357 N   0  0  0  0  0  0  0  0  0  0  0  0
    0.9316   -9.2733    3.2088 C   0  0  0  0  0  0  0  0  0  0  0  0
    4.4824  -12.8331    0.0559 C   0  0  0  0  0  0  0  0  0  0  0  0
    4.6124  -11.7200   -0.7894 C   0  0  0  0  0  0  0  0  0  0  0  0
    4.0700  -11.7207   -2.0812 C   0  0  0  0  0  0  0  0  0  0  0  0
    3.3771  -12.8336   -2.5572 C   0  0  0  0  0  0  0  0  0  0  0  0
    3.2324  -13.9505   -1.7271 C   0  0  0  0  0  0  0  0  0  0  0  0
    3.7786  -13.9467   -0.4433 C   0  0  0  0  0  0  0  0  0  0  0  0
    5.8111  -14.1480    1.7767 C   0  0  0  0  0  0  0  0  0  0  0  0
    5.8406  -14.7682    3.0379 C   0  0  0  0  0  0  0  0  0  0  0  0
    6.6396  -15.8910    3.2812 C   0  0  0  0  0  0  0  0  0  0  0  0
    7.4355  -16.4255    2.2669 C   0  0  0  0  0  0  0  0  0  0  0  0
    7.4240  -15.8206    1.0070 C   0  0  0  0  0  0  0  0  0  0  0  0
    6.6242  -14.7005    0.7690 C   0  0  0  0  0  0  0  0  0  0  0  0
   13.2054   -7.5518   -2.3301 C   0  0  0  0  0  0  0  0  0  0  0  0
   14.4113   -7.5916   -3.0418 C   0  0  0  0  0  0  0  0  0  0  0  0
   17.5363   -7.9777   -5.3766 H   0  0  0  0  0  0  0  0  0  0  0  0
   17.1356   -8.1561   -3.6390 H   0  0  0  0  0  0  0  0  0  0  0  0
   16.6593   -6.6682   -4.5236 H   0  0  0  0  0  0  0  0  0  0  0  0
   13.3906   -9.4688   -5.6887 H   0  0  0  0  0  0  0  0  0  0  0  0
   11.2516   -9.3859   -4.4138 H   0  0  0  0  0  0  0  0  0  0  0  0
    9.8915   -8.1409   -2.6733 H   0  0  0  0  0  0  0  0  0  0  0  0
   10.7111   -7.2523   -1.3920 H   0  0  0  0  0  0  0  0  0  0  0  0
   11.3998   -9.4219   -0.3246 H   0  0  0  0  0  0  0  0  0  0  0  0
   10.6954  -10.3141   -1.6760 H   0  0  0  0  0  0  0  0  0  0  0  0
   10.0467  -10.3689    1.2194 H   0  0  0  0  0  0  0  0  0  0  0  0
    7.2781   -9.3566    1.2790 H   0  0  0  0  0  0  0  0  0  0  0  0
    8.1384  -10.1182    2.6336 H   0  0  0  0  0  0  0  0  0  0  0  0
    7.9125  -12.3568    1.5223 H   0  0  0  0  0  0  0  0  0  0  0  0
    7.1701  -11.5888    0.1171 H   0  0  0  0  0  0  0  0  0  0  0  0
    5.3222  -10.7142    1.6844 H   0  0  0  0  0  0  0  0  0  0  0  0
    6.0349  -11.6684    2.9748 H   0  0  0  0  0  0  0  0  0  0  0  0
    4.0711  -12.7525    3.4920 H   0  0  0  0  0  0  0  0  0  0  0  0
    3.2058  -13.7889    2.3621 H   0  0  0  0  0  0  0  0  0  0  0  0
    2.3130  -11.7680    1.1815 H   0  0  0  0  0  0  0  0  0  0  0  0
    3.2311  -10.7185    2.2576 H   0  0  0  0  0  0  0  0  0  0  0  0
    1.9575  -11.6111    4.2361 H   0  0  0  0  0  0  0  0  0  0  0  0
    1.1172  -12.7453    3.1863 H   0  0  0  0  0  0  0  0  0  0  0  0
    0.1225  -10.7709    1.9187 H   0  0  0  0  0  0  0  0  0  0  0  0
   -0.5047  -11.0209    4.9123 H   0  0  0  0  0  0  0  0  0  0  0  0
   -1.0632  -12.1042    3.6334 H   0  0  0  0  0  0  0  0  0  0  0  0
   -2.9055  -10.6961    4.0377 H   0  0  0  0  0  0  0  0  0  0  0  0
   -2.2076  -10.1189    2.5217 H   0  0  0  0  0  0  0  0  0  0  0  0
   -3.7156   -9.0765    5.4158 H   0  0  0  0  0  0  0  0  0  0  0  0
   -5.6083   -6.8565    7.5730 H   0  0  0  0  0  0  0  0  0  0  0  0
   -4.5294   -8.2837    7.4605 H   0  0  0  0  0  0  0  0  0  0  0  0
   -5.5949   -7.8523    6.0827 H   0  0  0  0  0  0  0  0  0  0  0  0
   -1.6204   -2.9052    5.6210 H   0  0  0  0  0  0  0  0  0  0  0  0
   -1.3486   -3.6955    4.0352 H   0  0  0  0  0  0  0  0  0  0  0  0
   -0.2811   -4.0797    5.4263 H   0  0  0  0  0  0  0  0  0  0  0  0
   -0.3353   -5.8093    3.8690 H   0  0  0  0  0  0  0  0  0  0  0  0
    0.4738   -7.4079    2.4826 H   0  0  0  0  0  0  0  0  0  0  0  0
    1.2482   -9.1740    4.2698 H   0  0  0  0  0  0  0  0  0  0  0  0
    1.8307   -9.1117    2.5953 H   0  0  0  0  0  0  0  0  0  0  0  0
    5.1435  -10.8267   -0.4599 H   0  0  0  0  0  0  0  0  0  0  0  0
    4.1965  -10.8386   -2.7142 H   0  0  0  0  0  0  0  0  0  0  0  0
    2.9539  -12.8338   -3.5650 H   0  0  0  0  0  0  0  0  0  0  0  0
    2.6919  -14.8322   -2.0821 H   0  0  0  0  0  0  0  0  0  0  0  0
    3.6619  -14.8334    0.1845 H   0  0  0  0  0  0  0  0  0  0  0  0
    5.2352  -14.3795    3.8573 H   0  0  0  0  0  0  0  0  0  0  0  0
    6.6332  -16.3500    4.2736 H   0  0  0  0  0  0  0  0  0  0  0  0
    8.0567  -17.3051    2.4544 H   0  0  0  0  0  0  0  0  0  0  0  0
    8.0401  -16.2241    0.1987 H   0  0  0  0  0  0  0  0  0  0  0  0
    6.6277  -14.2501   -0.2250 H   0  0  0  0  0  0  0  0  0  0  0  0
   13.1708   -6.9963   -1.3877 H   0  0  0  0  0  0  0  0  0  0  0  0
   15.2831   -7.0724   -2.6427 H   0  0  0  0  0  0  0  0  0  0  0  0
  1  2  1  0
  1 48  1  0
  1 49  1  0
  1 50  1  0
  2  3  1  0
  3  4  2  0
  3 47  1  0
  4  5  1  0
  4 51  1  0
  5  6  2  0
  5 52  1  0
  6  7  1  0
  6 46  1  0
  7  8  1  0
  7 53  1  0
  7 54  1  0
  8  9  1  0
  8 55  1  0
  8 56  1  0
  9 10  2  0
  9 11  1  0
 11 12  1  0
 11 57  1  0
 12 13  1  0
 12 58  1  0
 12 59  1  0
 13 14  1  0
 13 60  1  0
 13 61  1  0
 15 14  1  1
 14 62  1  0
 14 63  1  0
 15 16  1  0
 15 34  1  0
 15 40  1  0
 16 17  1  0
 16 64  1  0
 16 65  1  0
 17 18  1  0
 17 66  1  0
 17 67  1  0
 18 19  1  0
 18 68  1  0
 18 69  1  0
 19 20  1  0
 19 33  1  0
 19 70  1  6
 20 21  1  0
 20 71  1  0
 20 72  1  0
 21 22  1  0
 21 73  1  0
 21 74  1  0
 22 23  1  0
 22 31  2  0
 23 24  2  0
 23 75  1  0
 24 25  1  0
 24 27  1  0
 25 26  1  0
 26 76  1  0
 26 77  1  0
 26 78  1  0
 27 28  1  0
 27 30  2  0
 28 29  1  0
 29 79  1  0
 29 80  1  0
 29 81  1  0
 30 31  1  0
 30 82  1  0
 31 32  1  0
 32 33  1  0
 32 83  1  0
 33 84  1  0
 33 85  1  0
 34 35  2  0
 34 39  1  0
 35 36  1  0
 35 86  1  0
 36 37  2  0
 36 87  1  0
 37 38  1  0
 37 88  1  0
 38 39  2  0
 38 89  1  0
 39 90  1  0
 40 41  2  0
 40 45  1  0
 41 42  1  0
 41 91  1  0
 42 43  2  0
 42 92  1  0
 43 44  1  0
 43 93  1  0
 44 45  2  0
 44 94  1  0
 45 95  1  0
 46 47  2  0
 46 96  1  0
 47 97  1  0
M  END

