
     RDKit          3D

 35 35  0  0  0  0  0  0  0  0999 V2000
    6.9875    3.9888   -0.8442 C   0  0  0  0  0  0  0  0  0  0  0  0
    6.5553    2.6781   -0.6039 O   0  0  0  0  0  0  0  0  0  0  0  0
    6.9218    1.7647   -1.6057 C   0  0  0  0  0  0  0  0  0  0  0  0
    6.3911    0.3956   -1.2164 C   0  0  0  0  0  0  0  0  0  0  0  0
    6.7602   -0.5164   -2.2167 O   0  0  0  0  0  0  0  0  0  0  0  0
    6.3226   -1.8315   -1.9895 C   0  0  0  0  0  0  0  0  0  0  0  0
    6.7985   -2.7462   -3.1068 C   0  0  0  0  0  0  0  0  0  0  0  0
    8.2364   -2.9149   -3.1097 N   0  0  0  0  0  0  0  0  0  0  0  0
    8.7559   -3.7503   -4.1717 C   0  0  0  0  0  0  0  0  0  0  0  0
   10.2776   -3.8504   -4.0932 C   0  0  1  0  0  0  0  0  0  0  0  0
   11.0410   -2.5265   -4.2218 C   0  0  0  0  0  0  0  0  0  0  0  0
   12.3131   -2.8111   -3.4162 C   0  0  0  0  0  0  0  0  0  0  0  0
   11.7760   -3.6921   -2.2812 C   0  0  0  0  0  0  0  0  0  0  0  0
   10.6370   -4.3709   -2.8058 O   0  0  0  0  0  0  0  0  0  0  0  0
    6.6498    4.6156   -0.0056 H   0  0  0  0  0  0  0  0  0  0  0  0
    6.5657    4.4011   -1.7841 H   0  0  0  0  0  0  0  0  0  0  0  0
    8.0929    4.0574   -0.9123 H   0  0  0  0  0  0  0  0  0  0  0  0
    8.0241    1.7114   -1.7244 H   0  0  0  0  0  0  0  0  0  0  0  0
    6.5041    2.0546   -2.5925 H   0  0  0  0  0  0  0  0  0  0  0  0
    5.2884    0.4486   -1.0981 H   0  0  0  0  0  0  0  0  0  0  0  0
    6.8076    0.1072   -0.2288 H   0  0  0  0  0  0  0  0  0  0  0  0
    5.2137   -1.8711   -1.9355 H   0  0  0  0  0  0  0  0  0  0  0  0
    6.6987   -2.2045   -1.0111 H   0  0  0  0  0  0  0  0  0  0  0  0
    6.4894   -2.3019   -4.0695 H   0  0  0  0  0  0  0  0  0  0  0  0
    6.2405   -3.7085   -3.0149 H   0  0  0  0  0  0  0  0  0  0  0  0
    8.5564   -3.2967   -2.2194 H   0  0  0  0  0  0  0  0  0  0  0  0
    8.4832   -3.3129   -5.1494 H   0  0  0  0  0  0  0  0  0  0  0  0
    8.3345   -4.7820   -4.1637 H   0  0  0  0  0  0  0  0  0  0  0  0
   10.6167   -4.5613   -4.8744 H   0  0  0  0  0  0  0  0  0  0  0  0
   10.4460   -1.7254   -3.7559 H   0  0  0  0  0  0  0  0  0  0  0  0
   11.2369   -2.2538   -5.2699 H   0  0  0  0  0  0  0  0  0  0  0  0
   12.8159   -1.9037   -3.0485 H   0  0  0  0  0  0  0  0  0  0  0  0
   13.0392   -3.3726   -4.0278 H   0  0  0  0  0  0  0  0  0  0  0  0
   11.4720   -3.0796   -1.4105 H   0  0  0  0  0  0  0  0  0  0  0  0
   12.5119   -4.4344   -1.9270 H   0  0  0  0  0  0  0  0  0  0  0  0
  1  2  1  0
  1 15  1  0
  1 16  1  0
  1 17  1  0
  2  3  1  0
  3  4  1  0
  3 18  1  0
  3 19  1  0
  4  5  1  0
  4 20  1  0
  4 21  1  0
  5  6  1  0
  6  7  1  0
  6 22  1  0
  6 23  1  0
  7  8  1  0
  7 24  1  0
  7 25  1  0
  8  9  1  0
  8 26  1  0
  9 10  1  0
  9 27  1  0
  9 28  1  0
 10 11  1  0
 10 14  1  0
 10 29  1  6
 11 12  1  0
 11 30  1  0
 11 31  1  0
 12 13  1  0
 12 32  1  0
 12 33  1  0
 13 14  1  0
 13 34  1  0
 13 35  1  0
M  END

