
     RDKit          3D

 28 29  0  0  0  0  0  0  0  0999 V2000
    2.2826    0.9895    0.9563 O   0  0  0  0  0  0  0  0  0  0  0  0
    2.8250    0.2781    0.1347 C   0  0  0  0  0  0  0  0  0  0  0  0
    3.1954    0.7275   -1.2239 C   0  0  0  0  0  0  0  0  0  0  0  0
    2.8949    2.0637   -1.5891 C   0  0  0  0  0  0  0  0  0  0  0  0
    3.2399    2.4822   -2.8516 C   0  0  0  0  0  0  0  0  0  0  0  0
    3.8686    1.6158   -3.7537 C   0  0  0  0  0  0  0  0  0  0  0  0
    4.1790    0.3026   -3.4403 C   0  0  0  0  0  0  0  0  0  0  0  0
    3.8311   -0.1413   -2.1448 C   0  0  0  0  0  0  0  0  0  0  0  0
    4.0876   -1.4049   -1.7169 O   0  0  0  0  0  0  0  0  0  0  0  0
    4.7075   -2.3397   -2.5823 C   0  0  0  0  0  0  0  0  0  0  0  0
    4.8200   -3.6469   -1.8071 C   0  0  0  0  0  0  0  0  0  0  0  0
    5.7334   -4.9520   -2.7085 S   0  0  0  0  0  0  0  0  0  0  0  0
    4.3926   -5.5885   -3.7643 C   0  0  1  0  0  0  0  0  0  0  0  0
    3.3285   -5.9922   -3.0577 F   0  0  0  0  0  0  0  0  0  0  0  0
    3.9422   -4.6804   -4.6485 F   0  0  0  0  0  0  0  0  0  0  0  0
    4.8682   -6.6295   -4.4470 F   0  0  0  0  0  0  0  0  0  0  0  0
    4.0874    2.2607   -4.9267 O   0  0  0  0  0  0  0  0  0  0  0  0
    3.6918    3.6226   -4.7200 C   0  0  0  0  0  0  0  0  0  0  0  0
    3.0438    3.6960   -3.4598 O   0  0  0  0  0  0  0  0  0  0  0  0
    3.0771   -0.7810    0.3724 H   0  0  0  0  0  0  0  0  0  0  0  0
    2.4005    2.7066   -0.8598 H   0  0  0  0  0  0  0  0  0  0  0  0
    4.6663   -0.3350   -4.1749 H   0  0  0  0  0  0  0  0  0  0  0  0
    5.7115   -1.9891   -2.8826 H   0  0  0  0  0  0  0  0  0  0  0  0
    4.1084   -2.4814   -3.4974 H   0  0  0  0  0  0  0  0  0  0  0  0
    3.8307   -4.0310   -1.5200 H   0  0  0  0  0  0  0  0  0  0  0  0
    5.3932   -3.4875   -0.8816 H   0  0  0  0  0  0  0  0  0  0  0  0
    2.9979    3.9270   -5.5208 H   0  0  0  0  0  0  0  0  0  0  0  0
    4.5925    4.2664   -4.7255 H   0  0  0  0  0  0  0  0  0  0  0  0
  1  2  2  0
  2  3  1  0
  2 20  1  0
  3  4  2  0
  3  8  1  0
  4  5  1  0
  4 21  1  0
  5  6  2  0
  5 19  1  0
  6  7  1  0
  6 17  1  0
  7  8  2  0
  7 22  1  0
  8  9  1  0
  9 10  1  0
 10 11  1  0
 10 23  1  0
 10 24  1  0
 11 12  1  0
 11 25  1  0
 11 26  1  0
 12 13  1  0
 13 14  1  1
 13 15  1  0
 13 16  1  0
 17 18  1  0
 18 19  1  0
 18 27  1  0
 18 28  1  0
M  END

