
     RDKit          3D

 38 38  0  0  0  0  0  0  0  0999 V2000
    1.0641    2.8188    1.7305 C   0  0  0  0  0  0  0  0  0  0  0  0
    2.5308    2.6451    1.3653 C   0  0  0  0  0  0  0  0  0  0  0  0
    3.0993    1.5694    1.4652 O   0  0  0  0  0  0  0  0  0  0  0  0
    3.1691    3.7664    0.9156 N   0  0  0  0  0  0  0  0  0  0  0  0
    4.5657    3.7446    0.5163 C   0  0  0  0  0  0  0  0  0  0  0  0
    5.5412    3.7187    1.7001 C   0  0  0  0  0  0  0  0  0  0  0  0
    6.9805    3.9151    1.2366 C   0  0  0  0  0  0  0  0  0  0  0  0
    7.2700    4.6856    0.3327 O   0  0  0  0  0  0  0  0  0  0  0  0
    7.9147    3.1814    1.9116 N   0  0  0  0  0  0  0  0  0  0  0  0
    9.3336    3.2980    1.6496 C   0  0  0  0  0  0  0  0  0  0  0  0
   10.0899    4.0897    2.7218 C   0  0  0  0  0  0  0  0  0  0  0  0
   10.0183    3.4400    4.0780 C   0  0  0  0  0  0  0  0  0  0  0  0
    9.3582    2.4968    4.4069 O   0  0  0  0  0  0  0  0  0  0  0  0
   10.8541    4.1108    4.9608 O   0  0  0  0  0  0  0  0  0  0  0  0
   10.8339    3.6044    6.2285 N   0  0  0  0  0  0  0  0  0  0  0  0
   11.7062    2.5814    6.6205 C   0  0  0  0  0  0  0  0  0  0  0  0
   12.5260    2.0638    5.9126 O   0  0  0  0  0  0  0  0  0  0  0  0
   11.3723    2.3050    8.0816 C   0  0  0  0  0  0  0  0  0  0  0  0
   10.1953    3.2344    8.4347 C   0  0  0  0  0  0  0  0  0  0  0  0
    9.8826    4.0205    7.1672 C   0  0  0  0  0  0  0  0  0  0  0  0
    9.0193    4.8297    6.9627 O   0  0  0  0  0  0  0  0  0  0  0  0
    0.4690    2.1104    1.1348 H   0  0  0  0  0  0  0  0  0  0  0  0
    0.6783    3.8366    1.5711 H   0  0  0  0  0  0  0  0  0  0  0  0
    0.9288    2.5433    2.7875 H   0  0  0  0  0  0  0  0  0  0  0  0
    2.6634    4.6417    0.8735 H   0  0  0  0  0  0  0  0  0  0  0  0
    4.7758    4.6287   -0.1012 H   0  0  0  0  0  0  0  0  0  0  0  0
    4.7349    2.8533   -0.1082 H   0  0  0  0  0  0  0  0  0  0  0  0
    5.4179    2.7819    2.2637 H   0  0  0  0  0  0  0  0  0  0  0  0
    5.3029    4.5514    2.3862 H   0  0  0  0  0  0  0  0  0  0  0  0
    7.6261    2.5816    2.6760 H   0  0  0  0  0  0  0  0  0  0  0  0
    9.4385    3.8123    0.6848 H   0  0  0  0  0  0  0  0  0  0  0  0
    9.7748    2.2923    1.5542 H   0  0  0  0  0  0  0  0  0  0  0  0
    9.6825    5.1107    2.8179 H   0  0  0  0  0  0  0  0  0  0  0  0
   11.1530    4.2088    2.4545 H   0  0  0  0  0  0  0  0  0  0  0  0
   12.2733    2.4869    8.6872 H   0  0  0  0  0  0  0  0  0  0  0  0
   11.1307    1.2362    8.1811 H   0  0  0  0  0  0  0  0  0  0  0  0
   10.4247    3.9475    9.2412 H   0  0  0  0  0  0  0  0  0  0  0  0
    9.2856    2.6934    8.7354 H   0  0  0  0  0  0  0  0  0  0  0  0
  1  2  1  0
  1 22  1  0
  1 23  1  0
  1 24  1  0
  2  3  2  0
  2  4  1  0
  4  5  1  0
  4 25  1  0
  5  6  1  0
  5 26  1  0
  5 27  1  0
  6  7  1  0
  6 28  1  0
  6 29  1  0
  7  8  2  0
  7  9  1  0
  9 10  1  0
  9 30  1  0
 10 11  1  0
 10 31  1  0
 10 32  1  0
 11 12  1  0
 11 33  1  0
 11 34  1  0
 12 13  2  0
 12 14  1  0
 14 15  1  0
 15 16  1  0
 15 20  1  0
 16 17  2  0
 16 18  1  0
 18 19  1  0
 18 35  1  0
 18 36  1  0
 19 20  1  0
 19 37  1  0
 19 38  1  0
 20 21  2  0
M  END

