
     RDKit          3D

 25 26  0  0  0  0  0  0  0  0999 V2000
    1.2521    0.1756    0.2937 N   0  0  0  0  0  0  0  0  0  0  0  0
    2.4135    0.1203    0.2519 C   0  0  0  0  0  0  0  0  0  0  0  0
    3.8345   -0.0167    0.1790 C   0  0  0  0  0  0  0  0  0  0  0  0
    4.6859    1.0717    0.4587 C   0  0  0  0  0  0  0  0  0  0  0  0
    6.0643    0.9467    0.3779 C   0  0  0  0  0  0  0  0  0  0  0  0
    6.6123   -0.3016    0.0259 C   0  0  0  0  0  0  0  0  0  0  0  0
    8.3687   -0.5213   -0.2190 S   0  0  0  0  0  0  0  0  0  0  0  0
    9.0973   -0.0916    1.3612 C   0  0  0  0  0  0  0  0  0  0  0  0
   10.5056   -0.0966    1.4233 C   0  0  0  0  0  0  0  0  0  0  0  0
   11.1060    0.2065    2.6409 C   0  0  0  0  0  0  0  0  0  0  0  0
   10.2989    0.5088    3.7452 C   0  0  0  0  0  0  0  0  0  0  0  0
    8.9154    0.4909    3.5668 C   0  0  0  0  0  0  0  0  0  0  0  0
    8.3279    0.1951    2.4024 N   0  0  0  0  0  0  0  0  0  0  0  0
    5.7891   -1.3918   -0.2490 C   0  0  0  0  0  0  0  0  0  0  0  0
    4.3819   -1.2789   -0.1874 C   0  0  0  0  0  0  0  0  0  0  0  0
    3.5777   -2.3480   -0.4536 N   0  0  0  0  0  0  0  0  0  0  0  0
    4.2368    2.0284    0.7333 H   0  0  0  0  0  0  0  0  0  0  0  0
    6.7131    1.7966    0.5849 H   0  0  0  0  0  0  0  0  0  0  0  0
   11.1017   -0.3318    0.5386 H   0  0  0  0  0  0  0  0  0  0  0  0
   12.1957    0.2108    2.7286 H   0  0  0  0  0  0  0  0  0  0  0  0
   10.7313    0.7543    4.7173 H   0  0  0  0  0  0  0  0  0  0  0  0
    8.2436    0.7241    4.4012 H   0  0  0  0  0  0  0  0  0  0  0  0
    6.2367   -2.3541   -0.5072 H   0  0  0  0  0  0  0  0  0  0  0  0
    3.9730   -3.2262   -0.7550 H   0  0  0  0  0  0  0  0  0  0  0  0
    2.5706   -2.2553   -0.4372 H   0  0  0  0  0  0  0  0  0  0  0  0
  1  2  3  0
  2  3  1  0
  3  4  2  0
  3 15  1  0
  4  5  1  0
  4 17  1  0
  5  6  2  0
  5 18  1  0
  6  7  1  0
  6 14  1  0
  7  8  1  0
  8  9  2  0
  8 13  1  0
  9 10  1  0
  9 19  1  0
 10 11  2  0
 10 20  1  0
 11 12  1  0
 11 21  1  0
 12 13  2  0
 12 22  1  0
 14 15  2  0
 14 23  1  0
 15 16  1  0
 16 24  1  0
 16 25  1  0
M  END

