
     RDKit          3D

 43 43  0  0  0  0  0  0  0  0999 V2000
    1.0616    0.9426   -0.0867 C   0  0  0  0  0  0  0  0  0  0  0  0
    2.4766    1.2197   -0.5545 C   0  0  0  0  0  0  0  0  0  0  0  0
    3.0139    0.0106   -1.0905 O   0  0  0  0  0  0  0  0  0  0  0  0
    4.2809   -0.0341   -1.5817 C   0  0  0  0  0  0  0  0  0  0  0  0
    5.1109    1.1007   -1.5921 C   0  0  0  0  0  0  0  0  0  0  0  0
    6.4070    1.0297   -2.0997 C   0  0  0  0  0  0  0  0  0  0  0  0
    6.8761   -0.1840   -2.5986 C   0  0  0  0  0  0  0  0  0  0  0  0
    8.5352   -0.2795   -3.2663 S   0  0  1  0  0  0  0  0  0  0  0  0
    9.4212   -1.0225   -2.0324 N   0  0  0  0  0  0  0  0  0  0  0  0
    8.5182   -1.2199   -4.3877 O   0  0  0  0  0  0  0  0  0  0  0  0
    9.0296    1.0948   -3.3981 O   0  0  0  0  0  0  0  0  0  0  0  0
    6.0602   -1.3136   -2.6044 C   0  0  0  0  0  0  0  0  0  0  0  0
    4.7573   -1.2709   -2.0966 C   0  0  0  0  0  0  0  0  0  0  0  0
    4.0100   -2.5962   -2.1679 C   0  0  0  0  0  0  0  0  0  0  0  0
    4.5850   -3.5906   -2.5916 O   0  0  0  0  0  0  0  0  0  0  0  0
    2.7136   -2.6104   -1.7562 N   0  0  0  0  0  0  0  0  0  0  0  0
    1.8844   -3.8109   -1.7675 C   0  0  1  0  0  0  0  0  0  0  0  0
    1.4349   -4.1880   -0.3436 C   0  0  0  0  0  0  0  0  0  0  0  0
    2.5816   -4.4613    0.6293 C   0  0  0  0  0  0  0  0  0  0  0  0
    0.6841   -3.6488   -2.7188 C   0  0  0  0  0  0  0  0  0  0  0  0
    1.0639   -3.3757   -4.1737 C   0  0  0  0  0  0  0  0  0  0  0  0
    0.6214    1.8583    0.3367 H   0  0  0  0  0  0  0  0  0  0  0  0
    1.0498    0.1635    0.6909 H   0  0  0  0  0  0  0  0  0  0  0  0
    0.4274    0.6123   -0.9238 H   0  0  0  0  0  0  0  0  0  0  0  0
    3.1085    1.5636    0.2835 H   0  0  0  0  0  0  0  0  0  0  0  0
    2.4883    2.0050   -1.3313 H   0  0  0  0  0  0  0  0  0  0  0  0
    4.7492    2.0532   -1.2078 H   0  0  0  0  0  0  0  0  0  0  0  0
    7.0497    1.9113   -2.1211 H   0  0  0  0  0  0  0  0  0  0  0  0
    9.8628   -1.8686   -2.3923 H   0  0  0  0  0  0  0  0  0  0  0  0
   10.1033   -0.3693   -1.6478 H   0  0  0  0  0  0  0  0  0  0  0  0
    6.4052   -2.2662   -3.0093 H   0  0  0  0  0  0  0  0  0  0  0  0
    2.3210   -1.7417   -1.4089 H   0  0  0  0  0  0  0  0  0  0  0  0
    2.5367   -4.6083   -2.1554 H   0  0  0  0  0  0  0  0  0  0  0  0
    0.7893   -5.0801   -0.4176 H   0  0  0  0  0  0  0  0  0  0  0  0
    0.7877   -3.3827    0.0536 H   0  0  0  0  0  0  0  0  0  0  0  0
    3.2261   -5.2787    0.2679 H   0  0  0  0  0  0  0  0  0  0  0  0
    2.2006   -4.7453    1.6231 H   0  0  0  0  0  0  0  0  0  0  0  0
    3.2194   -3.5725    0.7562 H   0  0  0  0  0  0  0  0  0  0  0  0
    0.0337   -2.8372   -2.3403 H   0  0  0  0  0  0  0  0  0  0  0  0
    0.0782   -4.5695   -2.6589 H   0  0  0  0  0  0  0  0  0  0  0  0
    1.6345   -2.4387   -4.2699 H   0  0  0  0  0  0  0  0  0  0  0  0
    0.1679   -3.2891   -4.8086 H   0  0  0  0  0  0  0  0  0  0  0  0
    1.6910   -4.1845   -4.5820 H   0  0  0  0  0  0  0  0  0  0  0  0
  1  2  1  0
  1 22  1  0
  1 23  1  0
  1 24  1  0
  2  3  1  0
  2 25  1  0
  2 26  1  0
  3  4  1  0
  4  5  2  0
  4 13  1  0
  5  6  1  0
  5 27  1  0
  6  7  2  0
  6 28  1  0
  7  8  1  0
  7 12  1  0
  8  9  1  1
  8 10  2  0
  8 11  2  0
  9 29  1  0
  9 30  1  0
 12 13  2  0
 12 31  1  0
 13 14  1  0
 14 15  2  0
 14 16  1  0
 16 17  1  0
 16 32  1  0
 17 18  1  0
 17 20  1  0
 17 33  1  6
 18 19  1  0
 18 34  1  0
 18 35  1  0
 19 36  1  0
 19 37  1  0
 19 38  1  0
 20 21  1  0
 20 39  1  0
 20 40  1  0
 21 41  1  0
 21 42  1  0
 21 43  1  0
M  END

