
     RDKit          3D

 32 32  0  0  0  0  0  0  0  0999 V2000
    1.1994   -0.2706    0.0269 C   0  0  0  0  0  0  0  0  0  0  0  0
    2.6826   -0.0369   -0.3055 C   0  0  1  0  0  0  0  0  0  0  0  0
    3.0635   -0.8336   -1.5621 C   0  0  0  0  0  0  0  0  0  0  0  0
    2.9889    1.4798   -0.4586 C   0  0  0  0  0  0  0  0  0  0  0  0
    2.3453    2.1872   -1.6593 C   0  0  0  0  0  0  0  0  0  0  0  0
    2.5958    3.6919   -1.7052 C   0  0  0  0  0  0  0  0  0  0  0  0
    1.7376    4.5049   -1.9099 O   0  0  0  0  0  0  0  0  0  0  0  0
    3.8781    4.0833   -1.5198 O   0  0  0  0  0  0  0  0  0  0  0  0
    3.4267   -0.5697    0.8701 N   0  0  0  0  0  0  0  0  0  0  0  0
    5.0924   -0.7552    0.9685 S   0  0  1  0  0  0  0  0  0  0  0  0
    5.7981    0.0527   -0.0364 O   0  0  0  0  0  0  0  0  0  0  0  0
    5.3889   -0.6167    2.3929 O   0  0  0  0  0  0  0  0  0  0  0  0
    5.3628   -2.4417    0.4873 C   0  0  0  0  0  0  0  0  0  0  0  0
    6.3317   -2.8599   -0.3923 C   0  0  0  0  0  0  0  0  0  0  0  0
    6.4080   -4.2784   -0.4892 C   0  0  0  0  0  0  0  0  0  0  0  0
    5.4957   -4.8980    0.3315 C   0  0  0  0  0  0  0  0  0  0  0  0
    5.2448   -6.5918    0.5067 Cl  0  0  0  0  0  0  0  0  0  0  0  0
    4.5259   -3.7712    1.2373 S   0  0  0  0  0  0  0  0  0  0  0  0
    0.5527    0.0878   -0.7872 H   0  0  0  0  0  0  0  0  0  0  0  0
    0.9083    0.2643    0.9460 H   0  0  0  0  0  0  0  0  0  0  0  0
    1.0045   -1.3428    0.1764 H   0  0  0  0  0  0  0  0  0  0  0  0
    2.4195   -0.5440   -2.4049 H   0  0  0  0  0  0  0  0  0  0  0  0
    2.9236   -1.9106   -1.3880 H   0  0  0  0  0  0  0  0  0  0  0  0
    4.1095   -0.6594   -1.8514 H   0  0  0  0  0  0  0  0  0  0  0  0
    4.0856    1.5729   -0.5049 H   0  0  0  0  0  0  0  0  0  0  0  0
    2.6710    1.9832    0.4716 H   0  0  0  0  0  0  0  0  0  0  0  0
    1.2540    2.0659   -1.6743 H   0  0  0  0  0  0  0  0  0  0  0  0
    2.7324    1.7641   -2.6032 H   0  0  0  0  0  0  0  0  0  0  0  0
    4.4536    3.3221   -1.3550 H   0  0  0  0  0  0  0  0  0  0  0  0
    3.1202   -0.1934    1.7676 H   0  0  0  0  0  0  0  0  0  0  0  0
    6.9614   -2.1608   -0.9431 H   0  0  0  0  0  0  0  0  0  0  0  0
    7.0982   -4.8230   -1.1330 H   0  0  0  0  0  0  0  0  0  0  0  0
  1  2  1  0
  1 19  1  0
  1 20  1  0
  1 21  1  0
  2  3  1  0
  2  4  1  0
  2  9  1  1
  3 22  1  0
  3 23  1  0
  3 24  1  0
  4  5  1  0
  4 25  1  0
  4 26  1  0
  5  6  1  0
  5 27  1  0
  5 28  1  0
  6  7  2  0
  6  8  1  0
  8 29  1  0
 10  9  1  1
  9 30  1  0
 10 11  2  0
 10 12  2  0
 10 13  1  0
 13 14  2  0
 13 18  1  0
 14 15  1  0
 14 31  1  0
 15 16  2  0
 15 32  1  0
 16 17  1  0
 16 18  1  0
M  END

