
     RDKit          3D

 33 33  0  0  0  0  0  0  0  0999 V2000
    1.1217   -2.1030    0.4979 C   0  0  0  0  0  0  0  0  0  0  0  0
    2.5113   -1.9023    0.4786 O   0  0  0  0  0  0  0  0  0  0  0  0
    2.9528   -0.8510    1.3007 C   0  0  0  0  0  0  0  0  0  0  0  0
    4.4667   -0.6990    1.0969 C   0  0  1  0  0  0  0  0  0  0  0  0
    4.8116   -0.2548   -0.3338 C   0  0  0  0  0  0  0  0  0  0  0  0
    4.4755    1.0953   -0.5665 O   0  0  0  0  0  0  0  0  0  0  0  0
    5.1847    1.9553    0.3051 C   0  0  0  0  0  0  0  0  0  0  0  0
    4.8533    1.6610    1.7626 C   0  0  0  0  0  0  0  0  0  0  0  0
    5.0519    0.2391    2.0586 N   0  0  0  0  0  0  0  0  0  0  0  0
    5.6788   -0.0996    3.2426 C   0  0  0  0  0  0  0  0  0  0  0  0
    6.1055    0.7601    3.9995 O   0  0  0  0  0  0  0  0  0  0  0  0
    5.8765   -1.5888    3.5716 C   0  0  1  0  0  0  0  0  0  0  0  0
    7.1861   -2.0839    2.9282 C   0  0  0  0  0  0  0  0  0  0  0  0
    5.8936   -1.7861    5.0909 C   0  0  0  0  0  0  0  0  0  0  0  0
    0.8934   -2.9388   -0.1794 H   0  0  0  0  0  0  0  0  0  0  0  0
    0.5695   -1.2059    0.1527 H   0  0  0  0  0  0  0  0  0  0  0  0
    0.7548   -2.3602    1.5121 H   0  0  0  0  0  0  0  0  0  0  0  0
    2.7445   -1.0654    2.3696 H   0  0  0  0  0  0  0  0  0  0  0  0
    2.4340    0.0938    1.0427 H   0  0  0  0  0  0  0  0  0  0  0  0
    4.9095   -1.6931    1.2365 H   0  0  0  0  0  0  0  0  0  0  0  0
    4.2424   -0.8657   -1.0478 H   0  0  0  0  0  0  0  0  0  0  0  0
    5.8953   -0.4159   -0.5087 H   0  0  0  0  0  0  0  0  0  0  0  0
    4.8985    2.9865    0.0482 H   0  0  0  0  0  0  0  0  0  0  0  0
    6.2768    1.8468    0.1400 H   0  0  0  0  0  0  0  0  0  0  0  0
    3.8063    1.9518    1.9680 H   0  0  0  0  0  0  0  0  0  0  0  0
    5.4959    2.2319    2.4448 H   0  0  0  0  0  0  0  0  0  0  0  0
    5.0415   -2.1775    3.1599 H   0  0  0  0  0  0  0  0  0  0  0  0
    8.0399   -1.5010    3.3087 H   0  0  0  0  0  0  0  0  0  0  0  0
    7.1757   -1.9856    1.8310 H   0  0  0  0  0  0  0  0  0  0  0  0
    7.3610   -3.1442    3.1707 H   0  0  0  0  0  0  0  0  0  0  0  0
    6.6884   -1.1795    5.5475 H   0  0  0  0  0  0  0  0  0  0  0  0
    6.0653   -2.8458    5.3380 H   0  0  0  0  0  0  0  0  0  0  0  0
    4.9403   -1.4774    5.5473 H   0  0  0  0  0  0  0  0  0  0  0  0
  1  2  1  0
  1 15  1  0
  1 16  1  0
  1 17  1  0
  2  3  1  0
  3  4  1  0
  3 18  1  0
  3 19  1  0
  4  5  1  0
  4  9  1  0
  4 20  1  1
  5  6  1  0
  5 21  1  0
  5 22  1  0
  6  7  1  0
  7  8  1  0
  7 23  1  0
  7 24  1  0
  8  9  1  0
  8 25  1  0
  8 26  1  0
  9 10  1  0
 10 11  2  0
 10 12  1  0
 12 13  1  0
 12 14  1  0
 12 27  1  6
 13 28  1  0
 13 29  1  0
 13 30  1  0
 14 31  1  0
 14 32  1  0
 14 33  1  0
M  END

