
     RDKit          3D

 56 56  0  0  0  0  0  0  0  0999 V2000
    0.5745    0.1994   -0.9815 C   0  0  0  0  0  0  0  0  0  0  0  0
    2.0312    0.0907   -0.5259 C   0  0  0  0  0  0  0  0  0  0  0  0
    2.9218    1.1935   -1.1097 C   0  0  0  0  0  0  0  0  0  0  0  0
    4.3775    1.2128   -0.5999 C   0  0  1  0  0  0  0  0  0  0  0  0
    5.1639   -0.0684   -0.9449 C   0  0  0  0  0  0  0  0  0  0  0  0
    5.3657   -0.2749   -2.3696 N   0  0  0  0  0  0  0  0  0  0  0  0
    6.6001   -0.4663   -2.9255 C   0  0  0  0  0  0  0  0  0  0  0  0
    6.6324   -0.5314   -4.4409 C   0  0  0  0  0  0  0  0  0  0  0  0
    7.6209   -0.5375   -2.2554 O   0  0  0  0  0  0  0  0  0  0  0  0
    5.0987    2.4805   -1.0829 C   0  0  1  0  0  0  0  0  0  0  0  0
    4.3284    3.6203   -0.6895 O   0  0  0  0  0  0  0  0  0  0  0  0
    5.1784    4.7327   -0.6019 C   0  0  2  0  0  0  0  0  0  0  0  0
    5.4330    5.4806   -1.9255 C   0  0  0  0  0  0  0  0  0  0  0  0
    6.2104    6.4063   -1.9752 O   0  0  0  0  0  0  0  0  0  0  0  0
    4.7003    5.0103   -2.9303 O   0  0  0  0  0  0  0  0  0  0  0  0
    4.8058    5.5423   -4.3015 C   0  0  1  0  0  0  0  0  0  0  0  0
    6.2434    5.3954   -4.8103 C   0  0  0  0  0  0  0  0  0  0  0  0
    3.8552    4.6383   -5.0875 C   0  0  0  0  0  0  0  0  0  0  0  0
    4.3225    6.9952   -4.3234 C   0  0  0  0  0  0  0  0  0  0  0  0
    6.4905    4.1897   -0.0044 C   0  0  0  0  0  0  0  0  0  0  0  0
    6.5251    2.7157   -0.5077 C   0  0  2  0  0  0  0  0  0  0  0  0
    7.6182    2.5086   -1.5452 C   0  0  0  0  0  0  0  0  0  0  0  0
    7.4886    2.6907   -2.7362 O   0  0  0  0  0  0  0  0  0  0  0  0
    8.7645    2.1402   -0.9692 O   0  0  0  0  0  0  0  0  0  0  0  0
    9.8582    1.8359   -1.8428 C   0  0  0  0  0  0  0  0  0  0  0  0
   -0.0473   -0.5984   -0.5452 H   0  0  0  0  0  0  0  0  0  0  0  0
    0.4905    0.1238   -2.0789 H   0  0  0  0  0  0  0  0  0  0  0  0
    0.1349    1.1664   -0.6859 H   0  0  0  0  0  0  0  0  0  0  0  0
    2.4192   -0.9071   -0.7975 H   0  0  0  0  0  0  0  0  0  0  0  0
    2.0755    0.1378    0.5774 H   0  0  0  0  0  0  0  0  0  0  0  0
    2.4776    2.1737   -0.8796 H   0  0  0  0  0  0  0  0  0  0  0  0
    2.9171    1.1281   -2.2154 H   0  0  0  0  0  0  0  0  0  0  0  0
    4.3412    1.2642    0.5046 H   0  0  0  0  0  0  0  0  0  0  0  0
    4.6466   -0.9379   -0.5035 H   0  0  0  0  0  0  0  0  0  0  0  0
    6.1686   -0.0505   -0.5008 H   0  0  0  0  0  0  0  0  0  0  0  0
    4.5602   -0.2520   -2.9820 H   0  0  0  0  0  0  0  0  0  0  0  0
    5.6537   -0.7417   -4.8979 H   0  0  0  0  0  0  0  0  0  0  0  0
    7.3563   -1.2977   -4.7503 H   0  0  0  0  0  0  0  0  0  0  0  0
    6.9949    0.4421   -4.8085 H   0  0  0  0  0  0  0  0  0  0  0  0
    5.1736    2.4664   -2.1832 H   0  0  0  0  0  0  0  0  0  0  0  0
    4.7037    5.4727    0.0635 H   0  0  0  0  0  0  0  0  0  0  0  0
    6.6079    4.3725   -4.6331 H   0  0  0  0  0  0  0  0  0  0  0  0
    6.9197    6.0945   -4.3028 H   0  0  0  0  0  0  0  0  0  0  0  0
    6.2705    5.5996   -5.8924 H   0  0  0  0  0  0  0  0  0  0  0  0
    4.2005    3.5939   -5.0552 H   0  0  0  0  0  0  0  0  0  0  0  0
    3.8093    4.9580   -6.1397 H   0  0  0  0  0  0  0  0  0  0  0  0
    2.8407    4.6811   -4.6630 H   0  0  0  0  0  0  0  0  0  0  0  0
    4.9828    7.6399   -3.7292 H   0  0  0  0  0  0  0  0  0  0  0  0
    3.2985    7.0682   -3.9245 H   0  0  0  0  0  0  0  0  0  0  0  0
    4.3118    7.3648   -5.3608 H   0  0  0  0  0  0  0  0  0  0  0  0
    6.4341    4.2070    1.0926 H   0  0  0  0  0  0  0  0  0  0  0  0
    7.3609    4.7862   -0.3079 H   0  0  0  0  0  0  0  0  0  0  0  0
    6.7385    2.0468    0.3367 H   0  0  0  0  0  0  0  0  0  0  0  0
   10.7256    1.6669   -1.1928 H   0  0  0  0  0  0  0  0  0  0  0  0
   10.0511    2.6702   -2.5331 H   0  0  0  0  0  0  0  0  0  0  0  0
    9.6212    0.9263   -2.4126 H   0  0  0  0  0  0  0  0  0  0  0  0
  1  2  1  0
  1 26  1  0
  1 27  1  0
  1 28  1  0
  2  3  1  0
  2 29  1  0
  2 30  1  0
  3  4  1  0
  3 31  1  0
  3 32  1  0
  4  5  1  0
  4 10  1  0
  4 33  1  1
  5  6  1  0
  5 34  1  0
  5 35  1  0
  6  7  1  0
  6 36  1  0
  7  8  1  0
  7  9  2  0
  8 37  1  0
  8 38  1  0
  8 39  1  0
 10 11  1  0
 10 21  1  0
 10 40  1  6
 11 12  1  0
 12 13  1  0
 12 20  1  0
 12 41  1  1
 13 14  2  0
 13 15  1  0
 16 15  1  1
 16 17  1  0
 16 18  1  0
 16 19  1  0
 17 42  1  0
 17 43  1  0
 17 44  1  0
 18 45  1  0
 18 46  1  0
 18 47  1  0
 19 48  1  0
 19 49  1  0
 19 50  1  0
 20 21  1  0
 20 51  1  0
 20 52  1  0
 21 22  1  0
 21 53  1  1
 22 23  2  0
 22 24  1  0
 24 25  1  0
 25 54  1  0
 25 55  1  0
 25 56  1  0
M  END

