
     RDKit          3D

 48 50  0  0  0  0  0  0  0  0999 V2000
    7.4409   -7.2317   -6.2788 C   0  0  0  0  0  0  0  0  0  0  0  0
    6.6802   -7.5290   -5.1430 O   0  0  0  0  0  0  0  0  0  0  0  0
    7.0360   -6.7802   -4.0104 C   0  0  0  0  0  0  0  0  0  0  0  0
    6.1573   -7.1766   -2.8307 C   0  0  1  0  0  0  0  0  0  0  0  0
    6.3433   -8.5242   -2.4410 O   0  0  0  0  0  0  0  0  0  0  0  0
    6.3737   -6.2533   -1.6184 C   0  0  0  0  0  0  0  0  0  0  0  0
    6.0625   -4.8470   -1.8456 N   0  0  0  0  0  0  0  0  0  0  0  0
    4.6336   -4.5860   -1.8823 C   0  0  0  0  0  0  0  0  0  0  0  0
    6.7513   -3.9575   -0.9077 C   0  0  0  0  0  0  0  0  0  0  0  0
    8.2359   -3.8998   -1.1258 C   0  0  0  0  0  0  0  0  0  0  0  0
    9.0780   -4.3495   -0.1967 N   0  0  0  0  0  0  0  0  0  0  0  0
   10.3354   -4.1520   -0.6746 N   0  0  0  0  0  0  0  0  0  0  0  0
   11.4524   -4.5515    0.1019 C   0  0  0  0  0  0  0  0  0  0  0  0
   11.2627   -5.4249    1.1850 C   0  0  0  0  0  0  0  0  0  0  0  0
   12.3565   -5.8252    1.9520 C   0  0  0  0  0  0  0  0  0  0  0  0
   13.6453   -5.3701    1.6527 C   0  0  0  0  0  0  0  0  0  0  0  0
   13.8281   -4.4971    0.5778 C   0  0  0  0  0  0  0  0  0  0  0  0
   12.7406   -4.0808   -0.1944 C   0  0  0  0  0  0  0  0  0  0  0  0
   10.2857   -3.5923   -1.9240 C   0  0  0  0  0  0  0  0  0  0  0  0
    8.9617   -3.4159   -2.2477 C   0  0  0  0  0  0  0  0  0  0  0  0
    8.8088   -2.7616   -3.5925 C   0  0  0  0  0  0  0  0  0  0  0  0
   10.2477   -2.9032   -4.1837 C   0  0  0  0  0  0  0  0  0  0  0  0
   11.2310   -3.1100   -2.9864 C   0  0  0  0  0  0  0  0  0  0  0  0
    7.0736   -7.8565   -7.1066 H   0  0  0  0  0  0  0  0  0  0  0  0
    8.5197   -7.4480   -6.1289 H   0  0  0  0  0  0  0  0  0  0  0  0
    7.3517   -6.1656   -6.5764 H   0  0  0  0  0  0  0  0  0  0  0  0
    6.9223   -5.6926   -4.1916 H   0  0  0  0  0  0  0  0  0  0  0  0
    8.1055   -6.9491   -3.7432 H   0  0  0  0  0  0  0  0  0  0  0  0
    5.1099   -7.1215   -3.1701 H   0  0  0  0  0  0  0  0  0  0  0  0
    7.2793   -8.6488   -2.2313 H   0  0  0  0  0  0  0  0  0  0  0  0
    7.4344   -6.3261   -1.3246 H   0  0  0  0  0  0  0  0  0  0  0  0
    5.7881   -6.6791   -0.7738 H   0  0  0  0  0  0  0  0  0  0  0  0
    4.1438   -5.2111   -2.6432 H   0  0  0  0  0  0  0  0  0  0  0  0
    4.4473   -3.5338   -2.1496 H   0  0  0  0  0  0  0  0  0  0  0  0
    4.1289   -4.7854   -0.9090 H   0  0  0  0  0  0  0  0  0  0  0  0
    6.5658   -4.2341    0.1526 H   0  0  0  0  0  0  0  0  0  0  0  0
    6.3340   -2.9465   -1.0505 H   0  0  0  0  0  0  0  0  0  0  0  0
   10.2537   -5.7687    1.4085 H   0  0  0  0  0  0  0  0  0  0  0  0
   12.1979   -6.5052    2.7930 H   0  0  0  0  0  0  0  0  0  0  0  0
   14.4985   -5.6900    2.2553 H   0  0  0  0  0  0  0  0  0  0  0  0
   14.8267   -4.1234    0.3375 H   0  0  0  0  0  0  0  0  0  0  0  0
   12.8995   -3.3799   -1.0129 H   0  0  0  0  0  0  0  0  0  0  0  0
    8.5154   -1.7004   -3.4919 H   0  0  0  0  0  0  0  0  0  0  0  0
    8.0507   -3.2368   -4.2344 H   0  0  0  0  0  0  0  0  0  0  0  0
   10.5357   -2.0475   -4.8127 H   0  0  0  0  0  0  0  0  0  0  0  0
   10.2829   -3.7991   -4.8240 H   0  0  0  0  0  0  0  0  0  0  0  0
   11.7179   -2.1619   -2.6919 H   0  0  0  0  0  0  0  0  0  0  0  0
   12.0375   -3.8199   -3.2296 H   0  0  0  0  0  0  0  0  0  0  0  0
  1  2  1  0
  1 24  1  0
  1 25  1  0
  1 26  1  0
  2  3  1  0
  3  4  1  0
  3 27  1  0
  3 28  1  0
  4  5  1  0
  4  6  1  0
  4 29  1  6
  5 30  1  0
  6  7  1  0
  6 31  1  0
  6 32  1  0
  7  8  1  0
  7  9  1  0
  8 33  1  0
  8 34  1  0
  8 35  1  0
  9 10  1  0
  9 36  1  0
  9 37  1  0
 10 11  2  0
 10 20  1  0
 11 12  1  0
 12 13  1  0
 12 19  1  0
 13 14  2  0
 13 18  1  0
 14 15  1  0
 14 38  1  0
 15 16  2  0
 15 39  1  0
 16 17  1  0
 16 40  1  0
 17 18  2  0
 17 41  1  0
 18 42  1  0
 19 20  2  0
 19 23  1  0
 20 21  1  0
 21 22  1  0
 21 43  1  0
 21 44  1  0
 22 23  1  0
 22 45  1  0
 22 46  1  0
 23 47  1  0
 23 48  1  0
M  END

