
     RDKit          3D

 52 55  0  0  0  0  0  0  0  0999 V2000
    3.6196   -0.9525   -1.1451 C   0  0  0  0  0  0  0  0  0  0  0  0
    2.9492    0.3694   -0.7546 C   0  0  0  0  0  0  0  0  0  0  0  0
    3.2192    0.8826    0.6080 N   0  0  0  0  0  0  0  0  0  0  0  0
    2.5314    0.0577    1.6267 C   0  0  0  0  0  0  0  0  0  0  0  0
    1.0221    0.2127    1.5949 C   0  0  0  0  0  0  0  0  0  0  0  0
    0.4195    1.4580    1.3028 C   0  0  0  0  0  0  0  0  0  0  0  0
    1.1643    2.5134    0.9428 O   0  0  0  0  0  0  0  0  0  0  0  0
   -0.9827    1.6126    1.3697 C   0  0  0  0  0  0  0  0  0  0  0  0
   -1.7864    0.5416    1.7198 C   0  0  0  0  0  0  0  0  0  0  0  0
   -1.2272   -0.7214    2.0069 C   0  0  0  0  0  0  0  0  0  0  0  0
   -1.9701   -1.8981    2.3694 C   0  0  0  0  0  0  0  0  0  0  0  0
   -1.3410   -3.0766    2.6459 C   0  0  0  0  0  0  0  0  0  0  0  0
    0.1017   -3.2110    2.5980 C   0  0  0  0  0  0  0  0  0  0  0  0
    0.7585   -4.1922    2.8357 O   0  0  0  0  0  0  0  0  0  0  0  0
    0.7824   -2.0450    2.2253 O   0  0  0  0  0  0  0  0  0  0  0  0
    0.1813   -0.8569    1.9398 C   0  0  0  0  0  0  0  0  0  0  0  0
   -2.3019   -4.1680    3.0390 C   0  0  0  0  0  0  0  0  0  0  0  0
   -3.6731   -3.5743    2.6248 C   0  0  0  0  0  0  0  0  0  0  0  0
   -3.4640   -2.0395    2.5447 C   0  0  0  0  0  0  0  0  0  0  0  0
    4.6584    1.1224    0.9134 C   0  0  1  0  0  0  0  0  0  0  0  0
    5.3623    1.9265   -0.2008 C   0  0  0  0  0  0  0  0  0  0  0  0
    4.8732    3.3788   -0.2959 C   0  0  0  0  0  0  0  0  0  0  0  0
    5.0452    4.1148    1.0395 C   0  0  0  0  0  0  0  0  0  0  0  0
    4.3985    3.3443    2.1980 C   0  0  0  0  0  0  0  0  0  0  0  0
    4.8748    1.8856    2.2411 C   0  0  0  0  0  0  0  0  0  0  0  0
    3.2950   -1.2412   -2.1574 H   0  0  0  0  0  0  0  0  0  0  0  0
    3.3439   -1.7757   -0.4682 H   0  0  0  0  0  0  0  0  0  0  0  0
    4.7182   -0.8805   -1.1607 H   0  0  0  0  0  0  0  0  0  0  0  0
    1.8576    0.2515   -0.8354 H   0  0  0  0  0  0  0  0  0  0  0  0
    3.2156    1.1521   -1.4800 H   0  0  0  0  0  0  0  0  0  0  0  0
    2.8813    0.3767    2.6187 H   0  0  0  0  0  0  0  0  0  0  0  0
    2.7972   -1.0096    1.5447 H   0  0  0  0  0  0  0  0  0  0  0  0
    2.0906    2.1585    0.7724 H   0  0  0  0  0  0  0  0  0  0  0  0
   -1.4018    2.5927    1.1357 H   0  0  0  0  0  0  0  0  0  0  0  0
   -2.8700    0.6694    1.7712 H   0  0  0  0  0  0  0  0  0  0  0  0
   -2.2423   -4.3612    4.1264 H   0  0  0  0  0  0  0  0  0  0  0  0
   -2.0777   -5.1272    2.5463 H   0  0  0  0  0  0  0  0  0  0  0  0
   -4.4866   -3.8546    3.3101 H   0  0  0  0  0  0  0  0  0  0  0  0
   -3.9472   -3.9533    1.6271 H   0  0  0  0  0  0  0  0  0  0  0  0
   -3.7748   -1.5288    3.4755 H   0  0  0  0  0  0  0  0  0  0  0  0
   -4.0381   -1.5702    1.7293 H   0  0  0  0  0  0  0  0  0  0  0  0
    5.1708    0.1428    1.0061 H   0  0  0  0  0  0  0  0  0  0  0  0
    5.2832    1.4232   -1.1752 H   0  0  0  0  0  0  0  0  0  0  0  0
    6.4390    1.9271    0.0427 H   0  0  0  0  0  0  0  0  0  0  0  0
    3.8101    3.3990   -0.5943 H   0  0  0  0  0  0  0  0  0  0  0  0
    5.4250    3.9032   -1.0941 H   0  0  0  0  0  0  0  0  0  0  0  0
    4.6264    5.1327    0.9742 H   0  0  0  0  0  0  0  0  0  0  0  0
    6.1254    4.2356    1.2442 H   0  0  0  0  0  0  0  0  0  0  0  0
    3.3008    3.3783    2.1001 H   0  0  0  0  0  0  0  0  0  0  0  0
    4.6333    3.8347    3.1576 H   0  0  0  0  0  0  0  0  0  0  0  0
    4.4216    1.3578    3.0934 H   0  0  0  0  0  0  0  0  0  0  0  0
    5.9615    1.8660    2.4362 H   0  0  0  0  0  0  0  0  0  0  0  0
  1  2  1  0
  1 26  1  0
  1 27  1  0
  1 28  1  0
  2  3  1  0
  2 29  1  0
  2 30  1  0
  3  4  1  0
  3 20  1  0
  4  5  1  0
  4 31  1  0
  4 32  1  0
  5  6  2  0
  5 16  1  0
  6  7  1  0
  6  8  1  0
  7 33  1  0
  8  9  2  0
  8 34  1  0
  9 10  1  0
  9 35  1  0
 10 11  1  0
 10 16  2  0
 11 12  2  0
 11 19  1  0
 12 13  1  0
 12 17  1  0
 13 14  2  0
 13 15  1  0
 15 16  1  0
 17 18  1  0
 17 36  1  0
 17 37  1  0
 18 19  1  0
 18 38  1  0
 18 39  1  0
 19 40  1  0
 19 41  1  0
 20 21  1  0
 20 25  1  0
 20 42  1  1
 21 22  1  0
 21 43  1  0
 21 44  1  0
 22 23  1  0
 22 45  1  0
 22 46  1  0
 23 24  1  0
 23 47  1  0
 23 48  1  0
 24 25  1  0
 24 49  1  0
 24 50  1  0
 25 51  1  0
 25 52  1  0
M  END

