
     RDKit          3D

 34 35  0  0  0  0  0  0  0  0999 V2000
    5.6364   -2.0607    0.2395 C   0  0  0  0  0  0  0  0  0  0  0  0
    4.7477   -2.3292    1.4286 C   0  0  0  0  0  0  0  0  0  0  0  0
    5.3107   -2.2545    2.7111 C   0  0  0  0  0  0  0  0  0  0  0  0
    4.5644   -2.5020    3.8656 C   0  0  0  0  0  0  0  0  0  0  0  0
    3.2122   -2.8301    3.7613 C   0  0  0  0  0  0  0  0  0  0  0  0
    2.6173   -2.8926    2.5020 C   0  0  0  0  0  0  0  0  0  0  0  0
    3.3612   -2.6495    1.3280 C   0  0  0  0  0  0  0  0  0  0  0  0
    2.6894   -2.7366   -0.0033 C   0  0  0  0  0  0  0  0  0  0  0  0
    3.3163   -2.7835   -1.0508 O   0  0  0  0  0  0  0  0  0  0  0  0
    1.1485   -2.7751   -0.1008 C   0  0  0  0  0  0  0  0  0  0  0  0
    0.6557   -4.1343   -0.3184 N   0  0  0  0  0  0  0  0  0  0  0  0
    0.8046   -4.6595   -1.6826 C   0  0  0  0  0  0  0  0  0  0  0  0
    0.5837   -6.1639   -1.7673 C   0  0  0  0  0  0  0  0  0  0  0  0
   -0.7080   -6.5487   -1.0501 C   0  0  0  0  0  0  0  0  0  0  0  0
   -0.6078   -6.1412    0.4192 C   0  0  0  0  0  0  0  0  0  0  0  0
   -0.0747   -4.7355    0.6788 C   0  0  0  0  0  0  0  0  0  0  0  0
   -0.2624   -4.1978    1.7641 O   0  0  0  0  0  0  0  0  0  0  0  0
    6.6316   -1.7338    0.5760 H   0  0  0  0  0  0  0  0  0  0  0  0
    5.2155   -1.2913   -0.4249 H   0  0  0  0  0  0  0  0  0  0  0  0
    5.7497   -2.9569   -0.3883 H   0  0  0  0  0  0  0  0  0  0  0  0
    6.3694   -1.9970    2.8032 H   0  0  0  0  0  0  0  0  0  0  0  0
    5.0441   -2.4379    4.8461 H   0  0  0  0  0  0  0  0  0  0  0  0
    2.6174   -3.0352    4.6544 H   0  0  0  0  0  0  0  0  0  0  0  0
    1.5629   -3.1700    2.4339 H   0  0  0  0  0  0  0  0  0  0  0  0
    0.8928   -2.1598   -0.9791 H   0  0  0  0  0  0  0  0  0  0  0  0
    0.6454   -2.3686    0.7815 H   0  0  0  0  0  0  0  0  0  0  0  0
    1.8094   -4.3896   -2.0388 H   0  0  0  0  0  0  0  0  0  0  0  0
    0.0850   -4.1357   -2.3441 H   0  0  0  0  0  0  0  0  0  0  0  0
    1.4371   -6.6929   -1.3072 H   0  0  0  0  0  0  0  0  0  0  0  0
    0.5610   -6.4578   -2.8290 H   0  0  0  0  0  0  0  0  0  0  0  0
   -0.9058   -7.6294   -1.1336 H   0  0  0  0  0  0  0  0  0  0  0  0
   -1.5614   -6.0353   -1.5284 H   0  0  0  0  0  0  0  0  0  0  0  0
    0.0767   -6.8222    0.9568 H   0  0  0  0  0  0  0  0  0  0  0  0
   -1.5712   -6.2063    0.9462 H   0  0  0  0  0  0  0  0  0  0  0  0
  1  2  1  0
  1 18  1  0
  1 19  1  0
  1 20  1  0
  2  3  2  0
  2  7  1  0
  3  4  1  0
  3 21  1  0
  4  5  2  0
  4 22  1  0
  5  6  1  0
  5 23  1  0
  6  7  2  0
  6 24  1  0
  7  8  1  0
  8  9  2  0
  8 10  1  0
 10 11  1  0
 10 25  1  0
 10 26  1  0
 11 12  1  0
 11 16  1  0
 12 13  1  0
 12 27  1  0
 12 28  1  0
 13 14  1  0
 13 29  1  0
 13 30  1  0
 14 15  1  0
 14 31  1  0
 14 32  1  0
 15 16  1  0
 15 33  1  0
 15 34  1  0
 16 17  2  0
M  END

