
     RDKit          3D

 45 47  0  0  0  0  0  0  0  0999 V2000
    3.5532    2.9960   -4.1274 C   0  0  0  0  0  0  0  0  0  0  0  0
    3.4467    3.0939   -2.6068 C   0  0  0  0  0  0  0  0  0  0  0  0
    3.1984    1.8322   -1.9089 N   0  0  0  0  0  0  0  0  0  0  0  0
    2.3537    0.8126   -2.5147 C   0  0  0  0  0  0  0  0  0  0  0  0
    0.8794    0.8129   -2.0592 C   0  0  1  0  0  0  0  0  0  0  0  0
    0.0764    2.0741   -2.4799 C   0  0  0  0  0  0  0  0  0  0  0  0
   -1.2947    1.5023   -2.8558 C   0  0  1  0  0  0  0  0  0  0  0  0
   -2.2663    2.3069   -3.7145 C   0  0  0  0  0  0  0  0  0  0  0  0
   -3.5042    1.4432   -4.0258 C   0  0  0  0  0  0  0  0  0  0  0  0
   -3.1418    0.0731   -4.6282 C   0  0  0  0  0  0  0  0  0  0  0  0
   -2.1144   -0.6996   -3.7798 C   0  0  0  0  0  0  0  0  0  0  0  0
   -0.8977    0.1902   -3.5393 C   0  0  2  0  0  0  0  0  0  0  0  0
    0.1256   -0.3230   -2.6370 N   0  0  0  0  0  0  0  0  0  0  0  0
    3.5544    1.7254   -0.5661 C   0  0  0  0  0  0  0  0  0  0  0  0
    4.0322    2.8380    0.1747 C   0  0  0  0  0  0  0  0  0  0  0  0
    4.4260    2.7006    1.5066 C   0  0  0  0  0  0  0  0  0  0  0  0
    4.3556    1.4762    2.1731 C   0  0  0  0  0  0  0  0  0  0  0  0
    3.8670    0.3935    1.4463 C   0  0  0  0  0  0  0  0  0  0  0  0
    3.7740   -0.8057    2.0478 F   0  0  0  0  0  0  0  0  0  0  0  0
    3.4670    0.4880    0.1202 C   0  0  0  0  0  0  0  0  0  0  0  0
    3.8932    3.9668   -4.5203 H   0  0  0  0  0  0  0  0  0  0  0  0
    2.5957    2.7683   -4.6191 H   0  0  0  0  0  0  0  0  0  0  0  0
    4.2883    2.2337   -4.4308 H   0  0  0  0  0  0  0  0  0  0  0  0
    2.6891    3.8604   -2.3417 H   0  0  0  0  0  0  0  0  0  0  0  0
    4.4095    3.4814   -2.2411 H   0  0  0  0  0  0  0  0  0  0  0  0
    2.7839   -0.1836   -2.3126 H   0  0  0  0  0  0  0  0  0  0  0  0
    2.3864    0.9265   -3.6064 H   0  0  0  0  0  0  0  0  0  0  0  0
    0.8719    0.7305   -0.9576 H   0  0  0  0  0  0  0  0  0  0  0  0
    0.5305    2.5481   -3.3677 H   0  0  0  0  0  0  0  0  0  0  0  0
    0.0366    2.8330   -1.6839 H   0  0  0  0  0  0  0  0  0  0  0  0
   -1.8143    1.2244   -1.9193 H   0  0  0  0  0  0  0  0  0  0  0  0
   -1.7707    2.6093   -4.6560 H   0  0  0  0  0  0  0  0  0  0  0  0
   -2.5695    3.2377   -3.2054 H   0  0  0  0  0  0  0  0  0  0  0  0
   -4.1846    1.9825   -4.7061 H   0  0  0  0  0  0  0  0  0  0  0  0
   -4.0677    1.2848   -3.0882 H   0  0  0  0  0  0  0  0  0  0  0  0
   -2.7263    0.2252   -5.6416 H   0  0  0  0  0  0  0  0  0  0  0  0
   -4.0553   -0.5300   -4.7608 H   0  0  0  0  0  0  0  0  0  0  0  0
   -1.8279   -1.6370   -4.2878 H   0  0  0  0  0  0  0  0  0  0  0  0
   -2.5448   -0.9843   -2.8038 H   0  0  0  0  0  0  0  0  0  0  0  0
   -0.4831    0.4530   -4.5424 H   0  0  0  0  0  0  0  0  0  0  0  0
    0.7238   -1.0309   -3.0565 H   0  0  0  0  0  0  0  0  0  0  0  0
    4.0834    3.8259   -0.2781 H   0  0  0  0  0  0  0  0  0  0  0  0
    4.7881    3.5826    2.0417 H   0  0  0  0  0  0  0  0  0  0  0  0
    4.6519    1.3521    3.2153 H   0  0  0  0  0  0  0  0  0  0  0  0
    3.1011   -0.4199   -0.3546 H   0  0  0  0  0  0  0  0  0  0  0  0
  1  2  1  0
  1 21  1  0
  1 22  1  0
  1 23  1  0
  2  3  1  0
  2 24  1  0
  2 25  1  0
  3  4  1  0
  3 14  1  0
  4  5  1  0
  4 26  1  0
  4 27  1  0
  5  6  1  0
  5 13  1  0
  5 28  1  1
  6  7  1  0
  6 29  1  0
  6 30  1  0
  7  8  1  0
  7 12  1  0
  7 31  1  1
  8  9  1  0
  8 32  1  0
  8 33  1  0
  9 10  1  0
  9 34  1  0
  9 35  1  0
 10 11  1  0
 10 36  1  0
 10 37  1  0
 11 12  1  0
 11 38  1  0
 11 39  1  0
 12 13  1  0
 12 40  1  6
 13 41  1  0
 14 15  2  0
 14 20  1  0
 15 16  1  0
 15 42  1  0
 16 17  2  0
 16 43  1  0
 17 18  1  0
 17 44  1  0
 18 19  1  0
 18 20  2  0
 20 45  1  0
M  END

