
     RDKit          3D

 35 36  0  0  0  0  0  0  0  0999 V2000
    1.7642   -0.8509    1.6827 C   0  0  0  0  0  0  0  0  0  0  0  0
    2.3560   -0.5077    0.3140 C   0  0  0  0  0  0  0  0  0  0  0  0
    3.1618    0.7023    0.3049 N   0  0  0  0  0  0  0  0  0  0  0  0
    4.4667    0.7630    0.6636 C   0  0  0  0  0  0  0  0  0  0  0  0
    5.0391    1.9847    0.6569 N   0  0  0  0  0  0  0  0  0  0  0  0
    6.3201    2.0658    0.9871 C   0  0  0  0  0  0  0  0  0  0  0  0
    6.9507    3.7201    0.9406 S   0  0  0  0  0  0  0  0  0  0  0  0
    8.7189    3.5198    1.4331 C   0  0  0  0  0  0  0  0  0  0  0  0
    9.3836    4.8731    1.4185 C   0  0  0  0  0  0  0  0  0  0  0  0
    9.9692    5.3759    0.2466 C   0  0  0  0  0  0  0  0  0  0  0  0
   10.5671    6.6345    0.2337 C   0  0  0  0  0  0  0  0  0  0  0  0
   10.5881    7.4212    1.3908 C   0  0  0  0  0  0  0  0  0  0  0  0
   11.3452    8.9856    1.3453 Cl  0  0  0  0  0  0  0  0  0  0  0  0
    9.9988    6.9309    2.5685 C   0  0  0  0  0  0  0  0  0  0  0  0
   10.0009    7.8700    4.0329 Cl  0  0  0  0  0  0  0  0  0  0  0  0
    9.4006    5.6671    2.5723 C   0  0  0  0  0  0  0  0  0  0  0  0
    7.0785    0.9262    1.3379 C   0  0  0  0  0  0  0  0  0  0  0  0
    6.3748   -0.2742    1.3119 C   0  0  0  0  0  0  0  0  0  0  0  0
    7.0566   -1.5869    1.6753 C   0  0  1  0  0  0  0  0  0  0  0  0
    8.3500   -1.3978    1.9971 F   0  0  0  0  0  0  0  0  0  0  0  0
    6.4596   -2.1654    2.7251 F   0  0  0  0  0  0  0  0  0  0  0  0
    7.0170   -2.4509    0.6533 F   0  0  0  0  0  0  0  0  0  0  0  0
    5.0930   -0.3839    0.9879 N   0  0  0  0  0  0  0  0  0  0  0  0
    1.1461   -1.7609    1.6161 H   0  0  0  0  0  0  0  0  0  0  0  0
    1.1289   -0.0340    2.0621 H   0  0  0  0  0  0  0  0  0  0  0  0
    2.5662   -1.0364    2.4133 H   0  0  0  0  0  0  0  0  0  0  0  0
    1.5530   -0.3733   -0.4289 H   0  0  0  0  0  0  0  0  0  0  0  0
    2.9887   -1.3369   -0.0349 H   0  0  0  0  0  0  0  0  0  0  0  0
    2.7245    1.5994    0.1303 H   0  0  0  0  0  0  0  0  0  0  0  0
    9.2107    2.8390    0.7230 H   0  0  0  0  0  0  0  0  0  0  0  0
    8.7617    3.0742    2.4375 H   0  0  0  0  0  0  0  0  0  0  0  0
    9.9596    4.7771   -0.6676 H   0  0  0  0  0  0  0  0  0  0  0  0
   11.0276    7.0244   -0.6755 H   0  0  0  0  0  0  0  0  0  0  0  0
    8.9461    5.3089    3.4980 H   0  0  0  0  0  0  0  0  0  0  0  0
    8.1277    0.9579    1.6153 H   0  0  0  0  0  0  0  0  0  0  0  0
  1  2  1  0
  1 24  1  0
  1 25  1  0
  1 26  1  0
  2  3  1  0
  2 27  1  0
  2 28  1  0
  3  4  1  0
  3 29  1  0
  4  5  2  0
  4 23  1  0
  5  6  1  0
  6  7  1  0
  6 17  2  0
  7  8  1  0
  8  9  1  0
  8 30  1  0
  8 31  1  0
  9 10  2  0
  9 16  1  0
 10 11  1  0
 10 32  1  0
 11 12  2  0
 11 33  1  0
 12 13  1  0
 12 14  1  0
 14 15  1  0
 14 16  2  0
 16 34  1  0
 17 18  1  0
 17 35  1  0
 18 19  1  0
 18 23  2  0
 19 20  1  1
 19 21  1  0
 19 22  1  0
M  END

