
     RDKit          3D

 49 50  0  0  0  0  0  0  0  0999 V2000
    4.0980    0.5227    2.6024 C   0  0  0  0  0  0  0  0  0  0  0  0
    4.3042   -0.9259    3.0117 C   0  0  0  0  0  0  0  0  0  0  0  0
    4.9818   -1.6802    1.9879 O   0  0  0  0  0  0  0  0  0  0  0  0
    4.2330   -2.2287    1.0122 C   0  0  0  0  0  0  0  0  0  0  0  0
    3.0308   -2.1166    0.9546 O   0  0  0  0  0  0  0  0  0  0  0  0
    5.0940   -3.0235    0.0324 C   0  0  1  0  0  0  0  0  0  0  0  0
    4.2477   -3.6411   -1.0923 C   0  0  0  0  0  0  0  0  0  0  0  0
    3.8176   -2.6025   -2.1348 C   0  0  0  0  0  0  0  0  0  0  0  0
    4.9770   -1.8640   -2.6494 N   0  0  0  0  0  0  0  0  0  0  0  0
    5.2129   -1.8747   -3.9864 C   0  0  0  0  0  0  0  0  0  0  0  0
    4.4785   -2.4480   -4.7900 O   0  0  0  0  0  0  0  0  0  0  0  0
    6.4686   -1.1516   -4.5672 C   0  0  0  0  0  0  0  0  0  0  0  0
    7.3992   -0.6888   -3.9188 O   0  0  0  0  0  0  0  0  0  0  0  0
    6.3922   -1.1182   -5.9149 N   0  0  0  0  0  0  0  0  0  0  0  0
    7.4428   -0.5738   -6.7491 C   0  0  0  0  0  0  0  0  0  0  0  0
    8.4878   -1.6233   -7.1858 C   0  0  0  0  0  0  0  0  0  0  0  0
    9.5801   -1.0319   -8.0476 C   0  0  0  0  0  0  0  0  0  0  0  0
   10.6933   -0.4020   -7.4708 C   0  0  0  0  0  0  0  0  0  0  0  0
   11.6875    0.1835   -8.2579 C   0  0  0  0  0  0  0  0  0  0  0  0
   11.5876    0.1528   -9.6558 C   0  0  0  0  0  0  0  0  0  0  0  0
   12.5242    0.7026  -10.4731 O   0  0  0  0  0  0  0  0  0  0  0  0
   10.4823   -0.4722  -10.2502 C   0  0  0  0  0  0  0  0  0  0  0  0
    9.4982   -1.0515   -9.4504 C   0  0  0  0  0  0  0  0  0  0  0  0
    5.7486   -1.1785   -1.6070 C   0  0  0  0  0  0  0  0  0  0  0  0
    6.2447   -2.1795   -0.5586 C   0  0  0  0  0  0  0  0  0  0  0  0
    3.6464    1.0858    3.4349 H   0  0  0  0  0  0  0  0  0  0  0  0
    3.4210    0.5923    1.7382 H   0  0  0  0  0  0  0  0  0  0  0  0
    5.0557    1.0013    2.3447 H   0  0  0  0  0  0  0  0  0  0  0  0
    3.3428   -1.4123    3.2335 H   0  0  0  0  0  0  0  0  0  0  0  0
    4.9582   -1.0028    3.8924 H   0  0  0  0  0  0  0  0  0  0  0  0
    5.5423   -3.8284    0.6415 H   0  0  0  0  0  0  0  0  0  0  0  0
    3.3503   -4.1203   -0.6736 H   0  0  0  0  0  0  0  0  0  0  0  0
    4.8426   -4.4247   -1.5903 H   0  0  0  0  0  0  0  0  0  0  0  0
    3.1166   -1.8856   -1.6743 H   0  0  0  0  0  0  0  0  0  0  0  0
    3.3155   -3.0762   -2.9856 H   0  0  0  0  0  0  0  0  0  0  0  0
    5.6007   -1.6228   -6.3091 H   0  0  0  0  0  0  0  0  0  0  0  0
    7.9434    0.2210   -6.1767 H   0  0  0  0  0  0  0  0  0  0  0  0
    6.9856   -0.1089   -7.6374 H   0  0  0  0  0  0  0  0  0  0  0  0
    7.9746   -2.4342   -7.7293 H   0  0  0  0  0  0  0  0  0  0  0  0
    8.9208   -2.0708   -6.2767 H   0  0  0  0  0  0  0  0  0  0  0  0
   10.7912   -0.3711   -6.3815 H   0  0  0  0  0  0  0  0  0  0  0  0
   12.5497    0.6644   -7.7841 H   0  0  0  0  0  0  0  0  0  0  0  0
   13.2267    1.0952   -9.9385 H   0  0  0  0  0  0  0  0  0  0  0  0
   10.4157   -0.4966  -11.3399 H   0  0  0  0  0  0  0  0  0  0  0  0
    8.6454   -1.5401   -9.9317 H   0  0  0  0  0  0  0  0  0  0  0  0
    5.0852   -0.4315   -1.1300 H   0  0  0  0  0  0  0  0  0  0  0  0
    6.5883   -0.6515   -2.0659 H   0  0  0  0  0  0  0  0  0  0  0  0
    6.7763   -1.6454    0.2425 H   0  0  0  0  0  0  0  0  0  0  0  0
    6.9702   -2.8570   -1.0385 H   0  0  0  0  0  0  0  0  0  0  0  0
  1  2  1  0
  1 26  1  0
  1 27  1  0
  1 28  1  0
  2  3  1  0
  2 29  1  0
  2 30  1  0
  3  4  1  0
  4  5  2  0
  4  6  1  0
  6  7  1  0
  6 25  1  0
  6 31  1  1
  7  8  1  0
  7 32  1  0
  7 33  1  0
  8  9  1  0
  8 34  1  0
  8 35  1  0
  9 10  1  0
  9 24  1  0
 10 11  2  0
 10 12  1  0
 12 13  2  0
 12 14  1  0
 14 15  1  0
 14 36  1  0
 15 16  1  0
 15 37  1  0
 15 38  1  0
 16 17  1  0
 16 39  1  0
 16 40  1  0
 17 18  2  0
 17 23  1  0
 18 19  1  0
 18 41  1  0
 19 20  2  0
 19 42  1  0
 20 21  1  0
 20 22  1  0
 21 43  1  0
 22 23  2  0
 22 44  1  0
 23 45  1  0
 24 25  1  0
 24 46  1  0
 24 47  1  0
 25 48  1  0
 25 49  1  0
M  END

