
     RDKit          3D

 45 48  0  0  0  0  0  0  0  0999 V2000
    2.8230   -0.5092    1.8684 C   0  0  0  0  0  0  0  0  0  0  0  0
    4.2849   -0.3761    1.5610 C   0  0  0  0  0  0  0  0  0  0  0  0
    4.7986    0.1344    0.3734 C   0  0  0  0  0  0  0  0  0  0  0  0
    6.2128    0.1051    0.4466 C   0  0  0  0  0  0  0  0  0  0  0  0
    7.1886    0.5525   -0.5902 C   0  0  0  0  0  0  0  0  0  0  0  0
    6.5821   -0.4049    1.6367 N   0  0  0  0  0  0  0  0  0  0  0  0
    5.4300   -0.7194    2.3657 C   0  0  0  0  0  0  0  0  0  0  0  0
    5.5300   -1.2731    3.6563 C   0  0  0  0  0  0  0  0  0  0  0  0
    4.2819   -1.6020    4.4132 C   0  0  0  0  0  0  0  0  0  0  0  0
    3.6886   -2.8679    4.2997 C   0  0  0  0  0  0  0  0  0  0  0  0
    2.5231   -3.1826    5.0045 C   0  0  0  0  0  0  0  0  0  0  0  0
    1.9415   -2.2195    5.8344 C   0  0  0  0  0  0  0  0  0  0  0  0
    0.1690   -2.6875    6.9113 I   0  0  0  0  0  0  0  0  0  0  0  0
    2.5159   -0.9513    5.9623 C   0  0  0  0  0  0  0  0  0  0  0  0
    3.6816   -0.6509    5.2514 C   0  0  0  0  0  0  0  0  0  0  0  0
    6.7827   -1.5234    4.2481 C   0  0  0  0  0  0  0  0  0  0  0  0
    7.1388   -2.0732    5.5315 C   0  0  0  0  0  0  0  0  0  0  0  0
    6.2581   -2.5541    6.6463 C   0  0  0  0  0  0  0  0  0  0  0  0
    8.5294   -2.0833    5.5641 C   0  0  0  0  0  0  0  0  0  0  0  0
    9.0111   -1.5568    4.3408 C   0  0  0  0  0  0  0  0  0  0  0  0
   10.4323   -1.3743    3.9238 C   0  0  0  0  0  0  0  0  0  0  0  0
    7.9648   -1.2250    3.5612 N   0  0  0  0  0  0  0  0  0  0  0  0
    8.1021   -0.5966    2.0966 B   0  0  1  0  0  0  0  0  0  0  0  0
    8.8057   -1.4786    1.2150 O   0  0  0  0  0  0  0  0  0  0  0  0
    8.7983    0.6542    2.1297 O   0  0  0  0  0  0  0  0  0  0  0  0
    2.5281    0.0712    2.7563 H   0  0  0  0  0  0  0  0  0  0  0  0
    2.5302   -1.5517    2.0664 H   0  0  0  0  0  0  0  0  0  0  0  0
    2.2277   -0.1477    1.0169 H   0  0  0  0  0  0  0  0  0  0  0  0
    4.2218    0.4974   -0.4762 H   0  0  0  0  0  0  0  0  0  0  0  0
    7.8576   -0.2762   -0.8683 H   0  0  0  0  0  0  0  0  0  0  0  0
    6.6655    0.9279   -1.4801 H   0  0  0  0  0  0  0  0  0  0  0  0
    7.8465    1.3356   -0.1829 H   0  0  0  0  0  0  0  0  0  0  0  0
    4.1435   -3.6206    3.6511 H   0  0  0  0  0  0  0  0  0  0  0  0
    2.0758   -4.1731    4.9037 H   0  0  0  0  0  0  0  0  0  0  0  0
    2.0631   -0.1985    6.6098 H   0  0  0  0  0  0  0  0  0  0  0  0
    4.1308    0.3402    5.3515 H   0  0  0  0  0  0  0  0  0  0  0  0
    5.6038   -3.3828    6.3348 H   0  0  0  0  0  0  0  0  0  0  0  0
    5.5970   -1.7610    7.0283 H   0  0  0  0  0  0  0  0  0  0  0  0
    6.8763   -2.9097    7.4838 H   0  0  0  0  0  0  0  0  0  0  0  0
    9.1535   -2.4341    6.3851 H   0  0  0  0  0  0  0  0  0  0  0  0
   11.1160   -1.7093    4.7155 H   0  0  0  0  0  0  0  0  0  0  0  0
   10.6268   -0.3184    3.6809 H   0  0  0  0  0  0  0  0  0  0  0  0
   10.6322   -1.9297    2.9946 H   0  0  0  0  0  0  0  0  0  0  0  0
    8.3708   -2.3358    1.1559 H   0  0  0  0  0  0  0  0  0  0  0  0
    8.3635    1.2824    2.7159 H   0  0  0  0  0  0  0  0  0  0  0  0
  1  2  1  0
  1 26  1  0
  1 27  1  0
  1 28  1  0
  2  3  1  0
  2  7  2  0
  3  4  2  0
  3 29  1  0
  4  5  1  0
  4  6  1  0
  5 30  1  0
  5 31  1  0
  5 32  1  0
  6  7  1  0
  6 23  1  0
  7  8  1  0
  8  9  1  0
  8 16  2  0
  9 10  2  0
  9 15  1  0
 10 11  1  0
 10 33  1  0
 11 12  2  0
 11 34  1  0
 12 13  1  0
 12 14  1  0
 14 15  2  0
 14 35  1  0
 15 36  1  0
 16 17  1  0
 16 22  1  0
 17 18  1  0
 17 19  2  0
 18 37  1  0
 18 38  1  0
 18 39  1  0
 19 20  1  0
 19 40  1  0
 20 21  1  0
 20 22  2  0
 21 41  1  0
 21 42  1  0
 21 43  1  0
 22 23  1  0
 23 24  1  6
 23 25  1  0
 24 44  1  0
 25 45  1  0
M  CHG  2  22   1  23  -1
M  END

