
     RDKit          3D

 56 58  0  0  0  0  0  0  0  0999 V2000
    2.0332    2.3119    1.1924 C   0  0  0  0  0  0  0  0  0  0  0  0
    2.9413    1.9734    0.0107 C   0  0  0  0  0  0  0  0  0  0  0  0
    2.9197    0.5526   -0.3516 N   0  0  0  0  0  0  0  0  0  0  0  0
    1.6767    0.0754   -0.8996 C   0  0  0  0  0  0  0  0  0  0  0  0
    1.2765    0.6042   -2.2892 C   0  0  0  0  0  0  0  0  0  0  0  0
    1.9386    1.3431   -2.9649 O   0  0  0  0  0  0  0  0  0  0  0  0
    0.0783    0.1565   -2.7380 O   0  0  0  0  0  0  0  0  0  0  0  0
    4.1056    0.0962   -1.0620 C   0  0  1  0  0  0  0  0  0  0  0  0
    5.4583    0.1681   -0.3076 C   0  0  0  0  0  0  0  0  0  0  0  0
    5.8150   -1.2436   -0.8580 C   0  0  2  0  0  0  0  0  0  0  0  0
    6.7134   -1.2539   -1.9893 N   0  0  0  0  0  0  0  0  0  0  0  0
    7.8108   -2.0919   -2.0424 C   0  0  0  0  0  0  0  0  0  0  0  0
    8.1038   -2.8655   -1.1394 O   0  0  0  0  0  0  0  0  0  0  0  0
    8.5669   -1.9990   -3.1910 N   0  0  0  0  0  0  0  0  0  0  0  0
    8.3463   -1.0945   -4.3158 C   0  0  0  0  0  0  0  0  0  0  0  0
    9.4049   -1.5292   -5.3382 C   0  0  0  0  0  0  0  0  0  0  0  0
   10.5484   -2.0759   -4.4628 C   0  0  2  0  0  0  0  0  0  0  0  0
   11.5463   -2.9921   -5.1695 C   0  0  0  0  0  0  0  0  0  0  0  0
   12.4848   -2.0434   -6.4213 S   0  0  0  0  0  0  0  0  0  0  0  0
   13.5750   -3.2473   -7.1451 C   0  0  0  0  0  0  0  0  0  0  0  0
   14.4229   -2.7811   -8.1688 C   0  0  0  0  0  0  0  0  0  0  0  0
   15.3154   -3.6482   -8.7968 C   0  0  0  0  0  0  0  0  0  0  0  0
   15.3820   -4.9949   -8.4199 C   0  0  0  0  0  0  0  0  0  0  0  0
   14.5430   -5.4598   -7.4059 C   0  0  0  0  0  0  0  0  0  0  0  0
   13.6433   -4.5983   -6.7679 C   0  0  0  0  0  0  0  0  0  0  0  0
    9.7910   -2.7825   -3.3244 C   0  0  0  0  0  0  0  0  0  0  0  0
    4.3070   -1.4357   -1.1992 C   0  0  0  0  0  0  0  0  0  0  0  0
    2.1660    3.3664    1.4816 H   0  0  0  0  0  0  0  0  0  0  0  0
    2.2711    1.6793    2.0622 H   0  0  0  0  0  0  0  0  0  0  0  0
    0.9644    2.1791    0.9579 H   0  0  0  0  0  0  0  0  0  0  0  0
    3.9780    2.2138    0.2923 H   0  0  0  0  0  0  0  0  0  0  0  0
    2.6989    2.6224   -0.8546 H   0  0  0  0  0  0  0  0  0  0  0  0
    0.8467    0.3045   -0.2069 H   0  0  0  0  0  0  0  0  0  0  0  0
    1.7027   -1.0275   -0.9722 H   0  0  0  0  0  0  0  0  0  0  0  0
   -0.3353   -0.4266   -2.0845 H   0  0  0  0  0  0  0  0  0  0  0  0
    4.1976    0.5809   -2.0549 H   0  0  0  0  0  0  0  0  0  0  0  0
    5.3059    0.1438    0.7822 H   0  0  0  0  0  0  0  0  0  0  0  0
    6.1503    0.9854   -0.5624 H   0  0  0  0  0  0  0  0  0  0  0  0
    6.2355   -1.9529   -0.1351 H   0  0  0  0  0  0  0  0  0  0  0  0
    6.5205   -0.6294   -2.7613 H   0  0  0  0  0  0  0  0  0  0  0  0
    8.4891   -0.0360   -4.0192 H   0  0  0  0  0  0  0  0  0  0  0  0
    7.3240   -1.1878   -4.7244 H   0  0  0  0  0  0  0  0  0  0  0  0
    9.7132   -0.7104   -6.0037 H   0  0  0  0  0  0  0  0  0  0  0  0
    9.0077   -2.3401   -5.9726 H   0  0  0  0  0  0  0  0  0  0  0  0
   11.0990   -1.2207   -4.0315 H   0  0  0  0  0  0  0  0  0  0  0  0
   11.0154   -3.8241   -5.6610 H   0  0  0  0  0  0  0  0  0  0  0  0
   12.2512   -3.4186   -4.4379 H   0  0  0  0  0  0  0  0  0  0  0  0
   14.3781   -1.7312   -8.4708 H   0  0  0  0  0  0  0  0  0  0  0  0
   15.9654   -3.2673   -9.5890 H   0  0  0  0  0  0  0  0  0  0  0  0
   16.0819   -5.6733   -8.9132 H   0  0  0  0  0  0  0  0  0  0  0  0
   14.5831   -6.5087   -7.0997 H   0  0  0  0  0  0  0  0  0  0  0  0
   13.0030   -4.9933   -5.9790 H   0  0  0  0  0  0  0  0  0  0  0  0
   10.3456   -2.8017   -2.3747 H   0  0  0  0  0  0  0  0  0  0  0  0
    9.5683   -3.8353   -3.5877 H   0  0  0  0  0  0  0  0  0  0  0  0
    3.7903   -1.9799   -0.3932 H   0  0  0  0  0  0  0  0  0  0  0  0
    4.0749   -1.9048   -2.1678 H   0  0  0  0  0  0  0  0  0  0  0  0
  1  2  1  0
  1 28  1  0
  1 29  1  0
  1 30  1  0
  2  3  1  0
  2 31  1  0
  2 32  1  0
  3  4  1  0
  3  8  1  0
  4  5  1  0
  4 33  1  0
  4 34  1  0
  5  6  2  0
  5  7  1  0
  7 35  1  0
  8  9  1  0
  8 27  1  0
  8 36  1  6
  9 10  1  0
  9 37  1  0
  9 38  1  0
 10 11  1  0
 10 27  1  0
 10 39  1  1
 11 12  1  0
 11 40  1  0
 12 13  2  0
 12 14  1  0
 14 15  1  0
 14 26  1  0
 15 16  1  0
 15 41  1  0
 15 42  1  0
 16 17  1  0
 16 43  1  0
 16 44  1  0
 17 18  1  0
 17 26  1  0
 17 45  1  1
 18 19  1  0
 18 46  1  0
 18 47  1  0
 19 20  1  0
 20 21  2  0
 20 25  1  0
 21 22  1  0
 21 48  1  0
 22 23  2  0
 22 49  1  0
 23 24  1  0
 23 50  1  0
 24 25  2  0
 24 51  1  0
 25 52  1  0
 26 53  1  0
 26 54  1  0
 27 55  1  0
 27 56  1  0
M  END

