
     RDKit          3D

 47 51  0  0  0  0  0  0  0  0999 V2000
    1.3342   -1.0227   -1.5832 N   0  0  0  0  0  0  0  0  0  0  0  0
    2.6485   -0.6961   -1.2640 C   0  0  0  0  0  0  0  0  0  0  0  0
    2.9233    0.4882   -0.5301 C   0  0  0  0  0  0  0  0  0  0  0  0
    4.2221    0.8961   -0.2299 C   0  0  0  0  0  0  0  0  0  0  0  0
    5.2786    0.1062   -0.6972 C   0  0  0  0  0  0  0  0  0  0  0  0
    5.0241   -1.1024   -1.3934 C   0  0  0  0  0  0  0  0  0  0  0  0
    3.7166   -1.5022   -1.6879 C   0  0  0  0  0  0  0  0  0  0  0  0
    6.2141   -1.7698   -1.6568 N   0  0  0  0  0  0  0  0  0  0  0  0
    7.1453   -1.0283   -1.1395 C   0  0  0  0  0  0  0  0  0  0  0  0
    6.6799    0.1499   -0.5593 N   0  0  0  0  0  0  0  0  0  0  0  0
    7.5637    1.0763    0.0715 C   0  0  0  0  0  0  0  0  0  0  0  0
    8.5844    0.6681    0.5867 O   0  0  0  0  0  0  0  0  0  0  0  0
    7.2237    2.5006    0.0032 C   0  0  0  0  0  0  0  0  0  0  0  0
    7.8028    3.5116    0.7539 C   0  0  0  0  0  0  0  0  0  0  0  0
    7.2446    4.7449    0.3083 C   0  0  0  0  0  0  0  0  0  0  0  0
    7.4151    6.1017    0.6722 C   0  0  0  0  0  0  0  0  0  0  0  0
    6.7015    7.0758    0.0042 C   0  0  0  0  0  0  0  0  0  0  0  0
    5.7955    6.7414   -1.0448 C   0  0  0  0  0  0  0  0  0  0  0  0
    5.1648    7.8017   -1.6090 O   0  0  0  0  0  0  0  0  0  0  0  0
    4.2618    7.5917   -2.6776 C   0  0  0  0  0  0  0  0  0  0  0  0
    3.7266    8.9167   -3.1684 C   0  0  0  0  0  0  0  0  0  0  0  0
    4.4876   10.0900   -3.0722 C   0  0  0  0  0  0  0  0  0  0  0  0
    3.9928   11.2959   -3.5764 C   0  0  0  0  0  0  0  0  0  0  0  0
    2.7360   11.3436   -4.1871 C   0  0  0  0  0  0  0  0  0  0  0  0
    1.9717   10.1773   -4.2856 C   0  0  0  0  0  0  0  0  0  0  0  0
    2.4632    8.9732   -3.7744 C   0  0  0  0  0  0  0  0  0  0  0  0
    5.5961    5.4160   -1.4306 C   0  0  0  0  0  0  0  0  0  0  0  0
    6.3295    4.4322   -0.7407 C   0  0  0  0  0  0  0  0  0  0  0  0
    6.3329    3.0727   -0.9022 N   0  0  0  0  0  0  0  0  0  0  0  0
    5.7915    2.5593   -1.5860 H   0  0  0  0  0  0  0  0  0  0  0  0
    0.6199   -0.6458   -0.9705 H   0  0  0  0  0  0  0  0  0  0  0  0
    1.1648   -1.9926   -1.8246 H   0  0  0  0  0  0  0  0  0  0  0  0
    2.0847    1.0971   -0.1809 H   0  0  0  0  0  0  0  0  0  0  0  0
    4.3847    1.7959    0.3639 H   0  0  0  0  0  0  0  0  0  0  0  0
    3.5459   -2.4372   -2.2260 H   0  0  0  0  0  0  0  0  0  0  0  0
    8.2150   -1.2376   -1.1428 H   0  0  0  0  0  0  0  0  0  0  0  0
    8.5468    3.3531    1.5310 H   0  0  0  0  0  0  0  0  0  0  0  0
    8.1063    6.3770    1.4724 H   0  0  0  0  0  0  0  0  0  0  0  0
    6.8072    8.1321    0.2576 H   0  0  0  0  0  0  0  0  0  0  0  0
    3.4270    6.9421   -2.3539 H   0  0  0  0  0  0  0  0  0  0  0  0
    4.7813    7.0643   -3.5030 H   0  0  0  0  0  0  0  0  0  0  0  0
    5.4658   10.0536   -2.5900 H   0  0  0  0  0  0  0  0  0  0  0  0
    4.5939   12.2050   -3.4908 H   0  0  0  0  0  0  0  0  0  0  0  0
    2.3511   12.2877   -4.5809 H   0  0  0  0  0  0  0  0  0  0  0  0
    0.9846   10.2056   -4.7542 H   0  0  0  0  0  0  0  0  0  0  0  0
    1.8538    8.0670   -3.8448 H   0  0  0  0  0  0  0  0  0  0  0  0
    4.9058    5.1378   -2.2258 H   0  0  0  0  0  0  0  0  0  0  0  0
  1  2  1  0
  1 31  1  0
  1 32  1  0
  2  3  2  0
  2  7  1  0
  3  4  1  0
  3 33  1  0
  4  5  2  0
  4 34  1  0
  5  6  1  0
  5 10  1  0
  6  7  2  0
  6  8  1  0
  7 35  1  0
  8  9  2  0
  9 10  1  0
  9 36  1  0
 10 11  1  0
 11 12  2  0
 11 13  1  0
 13 14  2  0
 13 29  1  0
 14 15  1  0
 14 37  1  0
 15 16  2  0
 15 28  1  0
 16 17  1  0
 16 38  1  0
 17 18  2  0
 17 39  1  0
 18 19  1  0
 18 27  1  0
 19 20  1  0
 20 21  1  0
 20 40  1  0
 20 41  1  0
 21 22  2  0
 21 26  1  0
 22 23  1  0
 22 42  1  0
 23 24  2  0
 23 43  1  0
 24 25  1  0
 24 44  1  0
 25 26  2  0
 25 45  1  0
 26 46  1  0
 27 28  2  0
 27 47  1  0
 28 29  1  0
 29 30  1  0
M  END

