
     RDKit          3D

 40 41  0  0  0  0  0  0  0  0999 V2000
    1.7978    0.4390    1.9089 C   0  0  0  0  0  0  0  0  0  0  0  0
    3.0027    0.1139    1.0664 C   0  0  0  0  0  0  0  0  0  0  0  0
    3.7504   -1.0576    1.2611 C   0  0  0  0  0  0  0  0  0  0  0  0
    4.8700   -1.3892    0.4975 C   0  0  0  0  0  0  0  0  0  0  0  0
    5.2913   -0.5201   -0.5240 C   0  0  0  0  0  0  0  0  0  0  0  0
    6.4068   -0.7543   -1.3445 N   0  0  0  0  0  0  0  0  0  0  0  0
    7.2686   -1.8458   -1.3361 C   0  0  0  0  0  0  0  0  0  0  0  0
    7.1432   -2.8116   -0.6023 O   0  0  0  0  0  0  0  0  0  0  0  0
    8.2813   -1.7461   -2.2690 N   0  0  0  0  0  0  0  0  0  0  0  0
    9.3313   -2.7490   -2.3289 C   0  0  0  0  0  0  0  0  0  0  0  0
   10.4768   -2.5167   -1.3220 C   0  0  0  0  0  0  0  0  0  0  0  0
   11.5796   -3.5447   -1.4161 C   0  0  0  0  0  0  0  0  0  0  0  0
   11.7876   -4.4563   -0.4506 C   0  0  0  0  0  0  0  0  0  0  0  0
   12.8642   -5.5147   -0.5202 C   0  0  0  0  0  0  0  0  0  0  0  0
   13.5205   -5.6374   -1.8176 N   0  0  0  0  0  0  0  0  0  0  0  0
   13.7491   -4.3409   -2.4417 C   0  0  0  0  0  0  0  0  0  0  0  0
   12.4592   -3.5301   -2.6532 C   0  0  0  0  0  0  0  0  0  0  0  0
    4.5634    0.6626   -0.7444 C   0  0  0  0  0  0  0  0  0  0  0  0
    3.4488    0.9600    0.0373 C   0  0  0  0  0  0  0  0  0  0  0  0
    2.5874    2.4548   -0.2953 Cl  0  0  0  0  0  0  0  0  0  0  0  0
    1.6176   -0.3486    2.6546 H   0  0  0  0  0  0  0  0  0  0  0  0
    0.8905    0.5435    1.2913 H   0  0  0  0  0  0  0  0  0  0  0  0
    1.9247    1.3960    2.4415 H   0  0  0  0  0  0  0  0  0  0  0  0
    3.4382   -1.7471    2.0507 H   0  0  0  0  0  0  0  0  0  0  0  0
    5.4191   -2.3102    0.6750 H   0  0  0  0  0  0  0  0  0  0  0  0
    6.5551   -0.0588   -2.0656 H   0  0  0  0  0  0  0  0  0  0  0  0
    8.4816   -0.8409   -2.6784 H   0  0  0  0  0  0  0  0  0  0  0  0
    9.7171   -2.7744   -3.3608 H   0  0  0  0  0  0  0  0  0  0  0  0
    8.8663   -3.7236   -2.1246 H   0  0  0  0  0  0  0  0  0  0  0  0
   10.0433   -2.5213   -0.3099 H   0  0  0  0  0  0  0  0  0  0  0  0
   10.8965   -1.5069   -1.4959 H   0  0  0  0  0  0  0  0  0  0  0  0
   11.1708   -4.4339    0.4560 H   0  0  0  0  0  0  0  0  0  0  0  0
   12.4451   -6.4975   -0.2421 H   0  0  0  0  0  0  0  0  0  0  0  0
   13.6276   -5.2995    0.2562 H   0  0  0  0  0  0  0  0  0  0  0  0
   12.9450   -6.2115   -2.4336 H   0  0  0  0  0  0  0  0  0  0  0  0
   14.2769   -4.4874   -3.3985 H   0  0  0  0  0  0  0  0  0  0  0  0
   14.4330   -3.7673   -1.7903 H   0  0  0  0  0  0  0  0  0  0  0  0
   11.9024   -3.9350   -3.5211 H   0  0  0  0  0  0  0  0  0  0  0  0
   12.7044   -2.4858   -2.9238 H   0  0  0  0  0  0  0  0  0  0  0  0
    4.8612    1.3625   -1.5286 H   0  0  0  0  0  0  0  0  0  0  0  0
  1  2  1  0
  1 21  1  0
  1 22  1  0
  1 23  1  0
  2  3  2  0
  2 19  1  0
  3  4  1  0
  3 24  1  0
  4  5  2  0
  4 25  1  0
  5  6  1  0
  5 18  1  0
  6  7  1  0
  6 26  1  0
  7  8  2  0
  7  9  1  0
  9 10  1  0
  9 27  1  0
 10 11  1  0
 10 28  1  0
 10 29  1  0
 11 12  1  0
 11 30  1  0
 11 31  1  0
 12 13  2  0
 12 17  1  0
 13 14  1  0
 13 32  1  0
 14 15  1  0
 14 33  1  0
 14 34  1  0
 15 16  1  0
 15 35  1  0
 16 17  1  0
 16 36  1  0
 16 37  1  0
 17 38  1  0
 17 39  1  0
 18 19  2  0
 18 40  1  0
 19 20  1  0
M  END

