
     RDKit          3D

 40 41  0  0  0  0  0  0  0  0999 V2000
    1.5839    0.5796    2.2177 C   0  0  0  0  0  0  0  0  0  0  0  0
    2.5040    1.8059    2.1624 C   0  0  2  0  0  0  0  0  0  0  0  0
    1.7056    3.0856    1.8880 C   0  0  0  0  0  0  0  0  0  0  0  0
    3.6415    1.6544    1.1018 C   0  0  2  0  0  0  0  0  0  0  0  0
    4.1596    2.6190    1.0727 H   0  0  0  0  0  0  0  0  0  0  0  0
    3.0969    1.3979   -0.2217 N   0  0  0  0  0  0  0  0  0  0  0  0
    4.6042    0.5254    1.5452 C   0  0  0  0  0  0  0  0  0  0  0  0
    4.4645   -0.5891    1.0655 O   0  0  0  0  0  0  0  0  0  0  0  0
    5.5262    0.7347    2.5714 N   0  0  0  0  0  0  0  0  0  0  0  0
    5.9835   -0.4452    3.3115 C   0  0  0  0  0  0  0  0  0  0  0  0
    5.3554   -0.3993    4.7011 C   0  0  0  0  0  0  0  0  0  0  0  0
    5.8042    0.8646    5.4444 C   0  0  0  0  0  0  0  0  0  0  0  0
    5.9402    2.1073    4.5690 C   0  0  0  0  0  0  0  0  0  0  0  0
    6.2044    3.3907    5.1114 C   0  0  0  0  0  0  0  0  0  0  0  0
    6.2279    3.7353    6.5865 C   0  0  0  0  0  0  0  0  0  0  0  0
    5.9036    4.8190    6.9936 O   0  0  0  0  0  0  0  0  0  0  0  0
    6.6564    2.7955    7.4583 O   0  0  0  0  0  0  0  0  0  0  0  0
    6.4080    4.4947    4.2688 C   0  0  0  0  0  0  0  0  0  0  0  0
    6.4332    4.3336    2.8870 C   0  0  0  0  0  0  0  0  0  0  0  0
    6.1760    3.0810    2.3371 C   0  0  0  0  0  0  0  0  0  0  0  0
    5.8575    1.9859    3.1573 C   0  0  0  0  0  0  0  0  0  0  0  0
    0.8327    0.6984    3.0147 H   0  0  0  0  0  0  0  0  0  0  0  0
    2.1368   -0.3534    2.4078 H   0  0  0  0  0  0  0  0  0  0  0  0
    1.0416    0.4592    1.2663 H   0  0  0  0  0  0  0  0  0  0  0  0
    2.9944    1.9154    3.1465 H   0  0  0  0  0  0  0  0  0  0  0  0
    1.2763    3.0525    0.8752 H   0  0  0  0  0  0  0  0  0  0  0  0
    2.3445    3.9811    1.9583 H   0  0  0  0  0  0  0  0  0  0  0  0
    0.8848    3.2015    2.6138 H   0  0  0  0  0  0  0  0  0  0  0  0
    2.9520    0.3909   -0.3191 H   0  0  0  0  0  0  0  0  0  0  0  0
    3.7835    1.6407   -0.9351 H   0  0  0  0  0  0  0  0  0  0  0  0
    7.0860   -0.4373    3.3721 H   0  0  0  0  0  0  0  0  0  0  0  0
    5.6771   -1.3300    2.7433 H   0  0  0  0  0  0  0  0  0  0  0  0
    5.6275   -1.2919    5.2865 H   0  0  0  0  0  0  0  0  0  0  0  0
    4.2586   -0.4124    4.5896 H   0  0  0  0  0  0  0  0  0  0  0  0
    6.8053    0.6409    5.8680 H   0  0  0  0  0  0  0  0  0  0  0  0
    5.1430    1.0591    6.3025 H   0  0  0  0  0  0  0  0  0  0  0  0
    6.9657    2.0062    6.9950 H   0  0  0  0  0  0  0  0  0  0  0  0
    6.5683    5.4709    4.7277 H   0  0  0  0  0  0  0  0  0  0  0  0
    6.6601    5.1807    2.2357 H   0  0  0  0  0  0  0  0  0  0  0  0
    6.2318    2.9349    1.2578 H   0  0  0  0  0  0  0  0  0  0  0  0
  1  2  1  0
  1 22  1  0
  1 23  1  0
  1 24  1  0
  2  3  1  0
  2  4  1  0
  2 25  1  1
  3 26  1  0
  3 27  1  0
  3 28  1  0
  4  5  1  6
  4  6  1  0
  4  7  1  0
  6 29  1  0
  6 30  1  0
  7  8  2  0
  7  9  1  0
  9 10  1  0
  9 21  1  0
 10 11  1  0
 10 31  1  0
 10 32  1  0
 11 12  1  0
 11 33  1  0
 11 34  1  0
 12 13  1  0
 12 35  1  0
 12 36  1  0
 13 14  1  0
 13 21  2  0
 14 15  1  0
 14 18  2  0
 15 16  2  0
 15 17  1  0
 17 37  1  0
 18 19  1  0
 18 38  1  0
 19 20  2  0
 19 39  1  0
 20 21  1  0
 20 40  1  0
M  END

