
     RDKit          3D

 44 44  0  0  0  0  0  0  0  0999 V2000
    4.4435    2.5339   -2.4321 C   0  0  0  0  0  0  0  0  0  0  0  0
    4.2267    1.1507   -2.5169 O   0  0  0  0  0  0  0  0  0  0  0  0
    4.4481    0.4602   -1.3107 C   0  0  0  0  0  0  0  0  0  0  0  0
    4.1730   -1.0220   -1.5222 C   0  0  0  0  0  0  0  0  0  0  0  0
    5.0251   -1.6701   -2.6192 C   0  0  1  0  0  0  0  0  0  0  0  0
    6.5319   -1.6553   -2.3282 C   0  0  0  0  0  0  0  0  0  0  0  0
    7.2495   -2.9991   -3.3523 S   0  0  0  0  0  0  0  0  0  0  0  0
    5.6535   -3.8766   -3.3795 C   0  0  0  0  0  0  0  0  0  0  0  0
    5.4059   -5.0156   -3.8721 N   0  0  0  0  0  0  0  0  0  0  0  0
    6.4418   -5.8381   -4.4486 C   0  0  0  0  0  0  0  0  0  0  0  0
    6.3094   -7.2970   -4.0005 C   0  0  0  0  0  0  0  0  0  0  0  0
    7.3326   -8.2306   -4.6503 C   0  0  0  0  0  0  0  0  0  0  0  0
    7.2042   -9.6896   -4.2020 C   0  0  0  0  0  0  0  0  0  0  0  0
    8.2276  -10.6240   -4.8566 C   0  0  0  0  0  0  0  0  0  0  0  0
    8.0888  -12.0762   -4.4001 C   0  0  0  0  0  0  0  0  0  0  0  0
    9.3407  -13.1332   -5.2210 S   0  0  0  0  0  0  0  0  0  0  0  0
    8.9163  -14.7420   -4.4846 C   0  0  0  0  0  0  0  0  0  0  0  0
    4.7029   -3.0833   -2.7631 N   0  0  0  0  0  0  0  0  0  0  0  0
    4.2437    2.9683   -3.4224 H   0  0  0  0  0  0  0  0  0  0  0  0
    5.4876    2.7748   -2.1453 H   0  0  0  0  0  0  0  0  0  0  0  0
    3.7700    3.0146   -1.6935 H   0  0  0  0  0  0  0  0  0  0  0  0
    3.7852    0.8502   -0.5097 H   0  0  0  0  0  0  0  0  0  0  0  0
    5.4903    0.6198   -0.9590 H   0  0  0  0  0  0  0  0  0  0  0  0
    3.1081   -1.1428   -1.7865 H   0  0  0  0  0  0  0  0  0  0  0  0
    4.3317   -1.5605   -0.5727 H   0  0  0  0  0  0  0  0  0  0  0  0
    4.8481   -1.1194   -3.5632 H   0  0  0  0  0  0  0  0  0  0  0  0
    6.7344   -1.8609   -1.2646 H   0  0  0  0  0  0  0  0  0  0  0  0
    6.9995   -0.7018   -2.6074 H   0  0  0  0  0  0  0  0  0  0  0  0
    7.4615   -5.4711   -4.2017 H   0  0  0  0  0  0  0  0  0  0  0  0
    6.3600   -5.7989   -5.5528 H   0  0  0  0  0  0  0  0  0  0  0  0
    5.2840   -7.6367   -4.2287 H   0  0  0  0  0  0  0  0  0  0  0  0
    6.4058   -7.3386   -2.9007 H   0  0  0  0  0  0  0  0  0  0  0  0
    8.3548   -7.8716   -4.4276 H   0  0  0  0  0  0  0  0  0  0  0  0
    7.2307   -8.1785   -5.7504 H   0  0  0  0  0  0  0  0  0  0  0  0
    6.1830  -10.0505   -4.4245 H   0  0  0  0  0  0  0  0  0  0  0  0
    7.3091   -9.7436   -3.1026 H   0  0  0  0  0  0  0  0  0  0  0  0
    9.2493  -10.2696   -4.6320 H   0  0  0  0  0  0  0  0  0  0  0  0
    8.1217  -10.5778   -5.9551 H   0  0  0  0  0  0  0  0  0  0  0  0
    7.0824  -12.4606   -4.6406 H   0  0  0  0  0  0  0  0  0  0  0  0
    8.2194  -12.1499   -3.3065 H   0  0  0  0  0  0  0  0  0  0  0  0
    9.6120  -15.4821   -4.9057 H   0  0  0  0  0  0  0  0  0  0  0  0
    7.8871  -15.0434   -4.7366 H   0  0  0  0  0  0  0  0  0  0  0  0
    9.0358  -14.7299   -3.3895 H   0  0  0  0  0  0  0  0  0  0  0  0
    3.7436   -3.3518   -2.9608 H   0  0  0  0  0  0  0  0  0  0  0  0
  1  2  1  0
  1 19  1  0
  1 20  1  0
  1 21  1  0
  2  3  1  0
  3  4  1  0
  3 22  1  0
  3 23  1  0
  4  5  1  0
  4 24  1  0
  4 25  1  0
  5  6  1  0
  5 18  1  0
  5 26  1  6
  6  7  1  0
  6 27  1  0
  6 28  1  0
  7  8  1  0
  8  9  2  0
  8 18  1  0
  9 10  1  0
 10 11  1  0
 10 29  1  0
 10 30  1  0
 11 12  1  0
 11 31  1  0
 11 32  1  0
 12 13  1  0
 12 33  1  0
 12 34  1  0
 13 14  1  0
 13 35  1  0
 13 36  1  0
 14 15  1  0
 14 37  1  0
 14 38  1  0
 15 16  1  0
 15 39  1  0
 15 40  1  0
 16 17  1  0
 17 41  1  0
 17 42  1  0
 17 43  1  0
 18 44  1  0
M  END

