
     RDKit          3D

 50 52  0  0  0  0  0  0  0  0999 V2000
    3.2539    2.7250    1.8262 C   0  0  0  0  0  0  0  0  0  0  0  0
    4.2726    1.7112    2.3529 C   0  0  1  0  0  0  0  0  0  0  0  0
    5.5377    2.4173    2.8536 C   0  0  0  0  0  0  0  0  0  0  0  0
    3.6726    0.7590    3.4208 C   0  0  0  0  0  0  0  0  0  0  0  0
    4.2713   -0.6044    3.0615 C   0  0  0  0  0  0  0  0  0  0  0  0
    4.3455   -0.5185    1.5320 C   0  0  2  0  0  0  0  0  0  0  0  0
    5.3984   -1.3920    0.8525 C   0  0  0  0  0  0  0  0  0  0  0  0
    5.1791   -2.9124    0.9396 C   0  0  1  0  0  0  0  0  0  0  0  0
    4.0269   -3.3787    0.0324 C   0  0  0  0  0  0  0  0  0  0  0  0
    3.6837   -4.7779    0.2525 N   0  0  0  0  0  0  0  0  0  0  0  0
    2.6936   -5.3090   -0.6387 C   0  0  1  0  0  0  0  0  0  0  0  0
    3.1606   -5.9151   -1.9386 C   0  0  0  0  0  0  0  0  0  0  0  0
    2.6484   -6.8011   -0.8304 C   0  0  0  0  0  0  0  0  0  0  0  0
    6.4743   -3.6949    0.6056 C   0  0  0  0  0  0  0  0  0  0  0  0
    7.5706   -3.5842    1.6414 C   0  0  0  0  0  0  0  0  0  0  0  0
    7.4775   -4.2884    2.8553 C   0  0  0  0  0  0  0  0  0  0  0  0
    8.4737   -4.1862    3.8289 C   0  0  0  0  0  0  0  0  0  0  0  0
    9.5925   -3.3759    3.6077 C   0  0  0  0  0  0  0  0  0  0  0  0
    9.7037   -2.6737    2.4051 C   0  0  0  0  0  0  0  0  0  0  0  0
    8.7019   -2.7786    1.4343 C   0  0  0  0  0  0  0  0  0  0  0  0
    4.6607    0.8466    1.2639 O   0  0  0  0  0  0  0  0  0  0  0  0
    2.9027    3.3905    2.6317 H   0  0  0  0  0  0  0  0  0  0  0  0
    2.3807    2.2078    1.3988 H   0  0  0  0  0  0  0  0  0  0  0  0
    3.7025    3.3460    1.0353 H   0  0  0  0  0  0  0  0  0  0  0  0
    5.2986    3.1643    3.6277 H   0  0  0  0  0  0  0  0  0  0  0  0
    6.0364    2.9297    2.0165 H   0  0  0  0  0  0  0  0  0  0  0  0
    6.2506    1.6929    3.2773 H   0  0  0  0  0  0  0  0  0  0  0  0
    2.5748    0.7271    3.3244 H   0  0  0  0  0  0  0  0  0  0  0  0
    3.9035    1.0831    4.4468 H   0  0  0  0  0  0  0  0  0  0  0  0
    3.6652   -1.4495    3.4212 H   0  0  0  0  0  0  0  0  0  0  0  0
    5.2860   -0.7162    3.4794 H   0  0  0  0  0  0  0  0  0  0  0  0
    3.3425   -0.7459    1.1129 H   0  0  0  0  0  0  0  0  0  0  0  0
    6.3712   -1.1311    1.3002 H   0  0  0  0  0  0  0  0  0  0  0  0
    5.4582   -1.0902   -0.2082 H   0  0  0  0  0  0  0  0  0  0  0  0
    4.9043   -3.1652    1.9820 H   0  0  0  0  0  0  0  0  0  0  0  0
    4.3338   -3.2672   -1.0228 H   0  0  0  0  0  0  0  0  0  0  0  0
    3.1518   -2.7065    0.1656 H   0  0  0  0  0  0  0  0  0  0  0  0
    3.3934   -4.9190    1.2205 H   0  0  0  0  0  0  0  0  0  0  0  0
    1.7229   -4.7839   -0.6807 H   0  0  0  0  0  0  0  0  0  0  0  0
    4.2384   -5.9121   -2.1217 H   0  0  0  0  0  0  0  0  0  0  0  0
    2.5405   -5.7770   -2.8288 H   0  0  0  0  0  0  0  0  0  0  0  0
    3.3860   -7.3869   -0.2752 H   0  0  0  0  0  0  0  0  0  0  0  0
    1.6728   -7.2809   -0.9488 H   0  0  0  0  0  0  0  0  0  0  0  0
    6.8509   -3.3467   -0.3717 H   0  0  0  0  0  0  0  0  0  0  0  0
    6.1915   -4.7515    0.4795 H   0  0  0  0  0  0  0  0  0  0  0  0
    6.6126   -4.9345    3.0347 H   0  0  0  0  0  0  0  0  0  0  0  0
    8.3804   -4.7472    4.7629 H   0  0  0  0  0  0  0  0  0  0  0  0
   10.3748   -3.2971    4.3671 H   0  0  0  0  0  0  0  0  0  0  0  0
   10.5759   -2.0414    2.2182 H   0  0  0  0  0  0  0  0  0  0  0  0
    8.8024   -2.2291    0.4939 H   0  0  0  0  0  0  0  0  0  0  0  0
  2  1  1  6
  1 22  1  0
  1 23  1  0
  1 24  1  0
  2  3  1  0
  2  4  1  0
  2 21  1  0
  3 25  1  0
  3 26  1  0
  3 27  1  0
  4  5  1  0
  4 28  1  0
  4 29  1  0
  5  6  1  0
  5 30  1  0
  5 31  1  0
  6  7  1  0
  6 21  1  0
  6 32  1  6
  7  8  1  0
  7 33  1  0
  7 34  1  0
  8  9  1  0
  8 14  1  0
  8 35  1  1
  9 10  1  0
  9 36  1  0
  9 37  1  0
 10 11  1  0
 10 38  1  0
 11 12  1  0
 11 13  1  0
 11 39  1  6
 12 13  1  0
 12 40  1  0
 12 41  1  0
 13 42  1  0
 13 43  1  0
 14 15  1  0
 14 44  1  0
 14 45  1  0
 15 16  2  0
 15 20  1  0
 16 17  1  0
 16 46  1  0
 17 18  2  0
 17 47  1  0
 18 19  1  0
 18 48  1  0
 19 20  2  0
 19 49  1  0
 20 50  1  0
M  END

