
     RDKit          3D

 26 29  0  0  0  0  0  0  0  0999 V2000
    3.2957    0.2310    0.2864 C   0  0  0  0  0  0  0  0  0  0  0  0
    2.7102    1.4379   -0.1499 C   0  0  0  0  0  0  0  0  0  0  0  0
    1.3349    1.5382   -0.3402 C   0  0  0  0  0  0  0  0  0  0  0  0
    0.5230    0.4159   -0.0918 C   0  0  0  0  0  0  0  0  0  0  0  0
    1.1352   -0.8083    0.3534 C   0  0  0  0  0  0  0  0  0  0  0  0
    2.5200   -0.8988    0.5415 C   0  0  0  0  0  0  0  0  0  0  0  0
    0.1570   -1.7702    0.5354 N   0  0  0  0  0  0  0  0  0  0  0  0
    0.3241   -2.7186    0.8385 H   0  0  0  0  0  0  0  0  0  0  0  0
   -1.0696   -1.2085    0.2206 C   0  0  0  0  0  0  0  0  0  0  0  0
   -2.4674   -1.5089    0.1504 C   0  0  0  0  0  0  0  0  0  0  0  0
   -3.2796   -2.6300    0.4029 C   0  0  0  0  0  0  0  0  0  0  0  0
   -4.6552   -2.5292    0.2146 C   0  0  0  0  0  0  0  0  0  0  0  0
   -5.2406   -1.3228   -0.2228 C   0  0  0  0  0  0  0  0  0  0  0  0
   -4.4647   -0.1937   -0.4808 C   0  0  0  0  0  0  0  0  0  0  0  0
   -3.0797   -0.2847   -0.2951 C   0  0  0  0  0  0  0  0  0  0  0  0
   -2.1014    0.6768   -0.4785 N   0  0  0  0  0  0  0  0  0  0  0  0
   -2.2697    1.6282   -0.7713 H   0  0  0  0  0  0  0  0  0  0  0  0
   -0.8749    0.1157   -0.1620 C   0  0  0  0  0  0  0  0  0  0  0  0
    4.3782    0.1793    0.4278 H   0  0  0  0  0  0  0  0  0  0  0  0
    3.3472    2.3049   -0.3406 H   0  0  0  0  0  0  0  0  0  0  0  0
    0.8928    2.4786   -0.6792 H   0  0  0  0  0  0  0  0  0  0  0  0
    2.9809   -1.8307    0.8794 H   0  0  0  0  0  0  0  0  0  0  0  0
   -2.8374   -3.5700    0.7428 H   0  0  0  0  0  0  0  0  0  0  0  0
   -5.2924   -3.3955    0.4080 H   0  0  0  0  0  0  0  0  0  0  0  0
   -6.3233   -1.2706   -0.3626 H   0  0  0  0  0  0  0  0  0  0  0  0
   -4.9256    0.7378   -0.8197 H   0  0  0  0  0  0  0  0  0  0  0  0
  1  2  2  0
  1  6  1  0
  1 19  1  0
  2  3  1  0
  2 20  1  0
  3  4  2  0
  3 21  1  0
  4  5  1  0
  4 18  1  0
  5  6  2  0
  5  7  1  0
  6 22  1  0
  7  8  1  0
  7  9  1  0
  9 10  1  0
  9 18  2  0
 10 11  2  0
 10 15  1  0
 11 12  1  0
 11 23  1  0
 12 13  2  0
 12 24  1  0
 13 14  1  0
 13 25  1  0
 14 15  2  0
 14 26  1  0
 15 16  1  0
 16 17  1  0
 16 18  1  0
M  END

