
     RDKit          3D

 58 56  0  0  0  0  0  0  0  0999 V2000
    1.4479   -0.5732    1.8657 C   0  0  0  0  0  0  0  0  0  0  0  0
    2.6331   -0.3269    0.9301 C   0  0  0  0  0  0  0  0  0  0  0  0
    3.4007    0.9545    1.2678 C   0  0  0  0  0  0  0  0  0  0  0  0
    4.6713    1.1798    0.4426 C   0  0  1  0  0  0  0  0  0  0  0  0
    4.4657    1.2975   -1.0759 C   0  0  0  0  0  0  0  0  0  0  0  0
    3.5173    2.4137   -1.5270 C   0  0  0  0  0  0  0  0  0  0  0  0
    3.4622    2.5662   -3.0480 C   0  0  0  0  0  0  0  0  0  0  0  0
    5.2583    2.3801    0.9664 O   0  0  0  0  0  0  0  0  0  0  0  0
    6.5921    2.6174    0.9034 C   0  0  0  0  0  0  0  0  0  0  0  0
    7.0187    3.8548    1.4193 C   0  0  0  0  0  0  0  0  0  0  0  0
    8.3684    4.1946    1.4249 C   0  0  0  0  0  0  0  0  0  0  0  0
    9.3524    3.3224    0.9155 C   0  0  0  0  0  0  0  0  0  0  0  0
   11.1691    3.6867    0.8153 P   0  0  0  0  0  0  0  0  0  0  0  0
   11.1546    5.5480    0.8250 C   0  0  0  0  0  0  0  0  0  0  0  0
   11.7916    3.1848    2.5915 C   0  0  0  0  0  0  0  0  0  0  0  0
   11.2137    4.0956    3.6876 C   0  0  0  0  0  0  0  0  0  0  0  0
   11.3000    1.7471    2.8472 C   0  0  0  0  0  0  0  0  0  0  0  0
   13.3747    3.2498    2.5697 C   0  0  1  0  0  0  0  0  0  0  0  0
   13.9933    3.0589    3.9676 C   0  0  0  0  0  0  0  0  0  0  0  0
   14.0000    2.2316    1.6081 C   0  0  0  0  0  0  0  0  0  0  0  0
   13.7937    4.5273    2.0690 O   0  0  0  0  0  0  0  0  0  0  0  0
    8.9037    2.1027    0.3826 C   0  0  0  0  0  0  0  0  0  0  0  0
    7.5532    1.7386    0.3774 C   0  0  0  0  0  0  0  0  0  0  0  0
    0.9090   -1.4964    1.6000 H   0  0  0  0  0  0  0  0  0  0  0  0
    0.7251    0.2586    1.8228 H   0  0  0  0  0  0  0  0  0  0  0  0
    1.7774   -0.6684    2.9137 H   0  0  0  0  0  0  0  0  0  0  0  0
    2.2694   -0.2856   -0.1114 H   0  0  0  0  0  0  0  0  0  0  0  0
    3.3216   -1.1908    0.9748 H   0  0  0  0  0  0  0  0  0  0  0  0
    3.7038    0.9344    2.3285 H   0  0  0  0  0  0  0  0  0  0  0  0
    2.7410    1.8322    1.1605 H   0  0  0  0  0  0  0  0  0  0  0  0
    5.3531    0.3324    0.6378 H   0  0  0  0  0  0  0  0  0  0  0  0
    4.1094    0.3233   -1.4551 H   0  0  0  0  0  0  0  0  0  0  0  0
    5.4525    1.4544   -1.5442 H   0  0  0  0  0  0  0  0  0  0  0  0
    3.8397    3.3632   -1.0678 H   0  0  0  0  0  0  0  0  0  0  0  0
    2.5000    2.2205   -1.1445 H   0  0  0  0  0  0  0  0  0  0  0  0
    4.4549    2.8084   -3.4631 H   0  0  0  0  0  0  0  0  0  0  0  0
    2.7719    3.3708   -3.3475 H   0  0  0  0  0  0  0  0  0  0  0  0
    3.1203    1.6371   -3.5347 H   0  0  0  0  0  0  0  0  0  0  0  0
    6.2623    4.5359    1.8155 H   0  0  0  0  0  0  0  0  0  0  0  0
    8.6520    5.1682    1.8306 H   0  0  0  0  0  0  0  0  0  0  0  0
   10.5742    5.8813   -0.0494 H   0  0  0  0  0  0  0  0  0  0  0  0
   12.1908    5.8914    0.7112 H   0  0  0  0  0  0  0  0  0  0  0  0
   10.7206    6.0108    1.7251 H   0  0  0  0  0  0  0  0  0  0  0  0
   10.1208    4.1786    3.5913 H   0  0  0  0  0  0  0  0  0  0  0  0
   11.6231    5.1184    3.6566 H   0  0  0  0  0  0  0  0  0  0  0  0
   11.4154    3.6910    4.6933 H   0  0  0  0  0  0  0  0  0  0  0  0
   10.2118    1.7275    3.0032 H   0  0  0  0  0  0  0  0  0  0  0  0
   11.7678    1.3282    3.7535 H   0  0  0  0  0  0  0  0  0  0  0  0
   11.5250    1.0685    2.0106 H   0  0  0  0  0  0  0  0  0  0  0  0
   13.7064    2.1010    4.4270 H   0  0  0  0  0  0  0  0  0  0  0  0
   13.7011    3.8644    4.6593 H   0  0  0  0  0  0  0  0  0  0  0  0
   15.0901    3.0790    3.8791 H   0  0  0  0  0  0  0  0  0  0  0  0
   13.8854    1.2030    1.9784 H   0  0  0  0  0  0  0  0  0  0  0  0
   15.0745    2.4493    1.5180 H   0  0  0  0  0  0  0  0  0  0  0  0
   13.5493    2.3005    0.6084 H   0  0  0  0  0  0  0  0  0  0  0  0
   13.5505    5.1992    2.7192 H   0  0  0  0  0  0  0  0  0  0  0  0
    9.6313    1.4132   -0.0555 H   0  0  0  0  0  0  0  0  0  0  0  0
    7.2660    0.7791   -0.0529 H   0  0  0  0  0  0  0  0  0  0  0  0
  1  2  1  0
  1 24  1  0
  1 25  1  0
  1 26  1  0
  2  3  1  0
  2 27  1  0
  2 28  1  0
  3  4  1  0
  3 29  1  0
  3 30  1  0
  4  5  1  0
  4  8  1  0
  4 31  1  6
  5  6  1  0
  5 32  1  0
  5 33  1  0
  6  7  1  0
  6 34  1  0
  6 35  1  0
  7 36  1  0
  7 37  1  0
  7 38  1  0
  8  9  2  0
  9 10  1  0
  9 23  1  0
 10 11  2  0
 10 39  1  0
 11 12  1  0
 11 40  1  0
 12 13  2  0
 12 22  1  0
 14 41  1  0
 14 42  1  0
 14 43  1  0
 15 16  1  0
 15 17  1  0
 15 18  1  0
 16 44  1  0
 16 45  1  0
 16 46  1  0
 17 47  1  0
 17 48  1  0
 17 49  1  0
 18 19  1  0
 18 20  1  0
 18 21  1  6
 19 50  1  0
 19 51  1  0
 19 52  1  0
 20 53  1  0
 20 54  1  0
 20 55  1  0
 21 56  1  0
 22 23  2  0
 22 57  1  0
 23 58  1  0
M  CHG  4   8   1  13  -1  14  -1  15   1
M  END

