
     RDKit          3D

 58 58  0  0  0  0  0  0  0  0999 V2000
   11.0701    0.9375   -2.0117 C   0  0  0  0  0  0  0  0  0  0  0  0
   10.7671   -0.2051   -1.0402 C   0  0  0  0  0  0  0  0  0  0  0  0
    9.6613    0.1498   -0.0388 C   0  0  0  0  0  0  0  0  0  0  0  0
    9.2540   -0.9388    0.9958 C   0  0  1  0  0  0  0  0  0  0  0  0
    8.7567   -2.1684    0.3617 N   0  0  0  0  0  0  0  0  0  0  0  0
   10.4711   -1.3340    1.8768 C   0  0  0  0  0  0  0  0  0  0  0  0
   11.3558   -2.2435    1.2445 O   0  0  0  0  0  0  0  0  0  0  0  0
    8.1447   -0.3323    1.8983 C   0  0  0  0  0  0  0  0  0  0  0  0
    7.1987   -1.2971    2.6489 C   0  0  0  0  0  0  0  0  0  0  0  0
    7.7905   -2.1537    3.7502 C   0  0  0  0  0  0  0  0  0  0  0  0
    8.0252   -1.6318    5.0279 C   0  0  0  0  0  0  0  0  0  0  0  0
    8.5731   -2.4063    6.0586 C   0  0  0  0  0  0  0  0  0  0  0  0
    8.8943   -3.7509    5.8212 C   0  0  0  0  0  0  0  0  0  0  0  0
    9.4248   -4.5944    6.7449 O   0  0  0  0  0  0  0  0  0  0  0  0
    9.6952   -4.1264    8.0540 C   0  0  0  0  0  0  0  0  0  0  0  0
   10.2840   -5.2747    8.8591 C   0  0  0  0  0  0  0  0  0  0  0  0
   10.6176   -4.8853   10.3020 C   0  0  0  0  0  0  0  0  0  0  0  0
   11.2086   -6.0424   11.1148 C   0  0  0  0  0  0  0  0  0  0  0  0
   11.6462   -5.6938   12.5501 C   0  0  1  0  0  0  0  0  0  0  0  0
   10.4740   -5.2530   13.4374 C   0  0  0  0  0  0  0  0  0  0  0  0
   12.3934   -6.8730   13.1868 C   0  0  0  0  0  0  0  0  0  0  0  0
    8.6562   -4.2939    4.5460 C   0  0  0  0  0  0  0  0  0  0  0  0
    8.1152   -3.5066    3.5341 C   0  0  0  0  0  0  0  0  0  0  0  0
   11.8551    0.6572   -2.7323 H   0  0  0  0  0  0  0  0  0  0  0  0
   11.4176    1.8377   -1.4769 H   0  0  0  0  0  0  0  0  0  0  0  0
   10.1754    1.2260   -2.5896 H   0  0  0  0  0  0  0  0  0  0  0  0
   11.6840   -0.4991   -0.5064 H   0  0  0  0  0  0  0  0  0  0  0  0
   10.4633   -1.0974   -1.6166 H   0  0  0  0  0  0  0  0  0  0  0  0
    8.7529    0.4312   -0.6056 H   0  0  0  0  0  0  0  0  0  0  0  0
    9.9575    1.0605    0.5151 H   0  0  0  0  0  0  0  0  0  0  0  0
    9.4864   -2.5460   -0.2425 H   0  0  0  0  0  0  0  0  0  0  0  0
    7.9638   -1.9569   -0.2465 H   0  0  0  0  0  0  0  0  0  0  0  0
   10.1176   -1.7469    2.8333 H   0  0  0  0  0  0  0  0  0  0  0  0
   11.0520   -0.4256    2.1079 H   0  0  0  0  0  0  0  0  0  0  0  0
   11.0020   -3.1307    1.3869 H   0  0  0  0  0  0  0  0  0  0  0  0
    7.5038    0.3068    1.2653 H   0  0  0  0  0  0  0  0  0  0  0  0
    8.6214    0.3572    2.6181 H   0  0  0  0  0  0  0  0  0  0  0  0
    6.7079   -1.9529    1.9148 H   0  0  0  0  0  0  0  0  0  0  0  0
    6.3997   -0.6746    3.0877 H   0  0  0  0  0  0  0  0  0  0  0  0
    7.7721   -0.5876    5.2378 H   0  0  0  0  0  0  0  0  0  0  0  0
    8.7354   -1.9536    7.0371 H   0  0  0  0  0  0  0  0  0  0  0  0
    8.7648   -3.7573    8.5281 H   0  0  0  0  0  0  0  0  0  0  0  0
   10.4033   -3.2755    8.0174 H   0  0  0  0  0  0  0  0  0  0  0  0
   11.1897   -5.6360    8.3419 H   0  0  0  0  0  0  0  0  0  0  0  0
    9.5665   -6.1134    8.8476 H   0  0  0  0  0  0  0  0  0  0  0  0
    9.7045   -4.5067   10.7943 H   0  0  0  0  0  0  0  0  0  0  0  0
   11.3328   -4.0415   10.3001 H   0  0  0  0  0  0  0  0  0  0  0  0
   12.0831   -6.4419   10.5698 H   0  0  0  0  0  0  0  0  0  0  0  0
   10.4772   -6.8720   11.1544 H   0  0  0  0  0  0  0  0  0  0  0  0
   12.3548   -4.8456   12.4825 H   0  0  0  0  0  0  0  0  0  0  0  0
    9.7188   -6.0544   13.5183 H   0  0  0  0  0  0  0  0  0  0  0  0
    9.9685   -4.3559   13.0474 H   0  0  0  0  0  0  0  0  0  0  0  0
   10.8173   -5.0178   14.4580 H   0  0  0  0  0  0  0  0  0  0  0  0
   11.7354   -7.7546   13.2772 H   0  0  0  0  0  0  0  0  0  0  0  0
   12.7529   -6.6228   14.1982 H   0  0  0  0  0  0  0  0  0  0  0  0
   13.2667   -7.1715   12.5841 H   0  0  0  0  0  0  0  0  0  0  0  0
    8.9048   -5.3442    4.3778 H   0  0  0  0  0  0  0  0  0  0  0  0
    7.9552   -3.9334    2.5410 H   0  0  0  0  0  0  0  0  0  0  0  0
  1  2  1  0
  1 24  1  0
  1 25  1  0
  1 26  1  0
  2  3  1  0
  2 27  1  0
  2 28  1  0
  3  4  1  0
  3 29  1  0
  3 30  1  0
  4  5  1  6
  4  6  1  0
  4  8  1  0
  5 31  1  0
  5 32  1  0
  6  7  1  0
  6 33  1  0
  6 34  1  0
  7 35  1  0
  8  9  1  0
  8 36  1  0
  8 37  1  0
  9 10  1  0
  9 38  1  0
  9 39  1  0
 10 11  2  0
 10 23  1  0
 11 12  1  0
 11 40  1  0
 12 13  2  0
 12 41  1  0
 13 14  1  0
 13 22  1  0
 14 15  1  0
 15 16  1  0
 15 42  1  0
 15 43  1  0
 16 17  1  0
 16 44  1  0
 16 45  1  0
 17 18  1  0
 17 46  1  0
 17 47  1  0
 18 19  1  0
 18 48  1  0
 18 49  1  0
 19 20  1  0
 19 21  1  0
 19 50  1  6
 20 51  1  0
 20 52  1  0
 20 53  1  0
 21 54  1  0
 21 55  1  0
 21 56  1  0
 22 23  2  0
 22 57  1  0
 23 58  1  0
M  END

