
     RDKit          3D

 39 41  0  0  0  0  0  0  0  0999 V2000
    1.1214    0.2788    0.5197 C   0  0  0  0  0  0  0  0  0  0  0  0
    2.5360    0.0623    0.2844 N   0  0  0  0  0  0  0  0  0  0  0  0
    3.5027    1.0358    0.2642 C   0  0  0  0  0  0  0  0  0  0  0  0
    4.6911    0.5136    0.1146 N   0  0  0  0  0  0  0  0  0  0  0  0
    4.5315   -0.8383    0.0273 N   0  0  0  0  0  0  0  0  0  0  0  0
    3.2424   -1.1157    0.1264 C   0  0  0  0  0  0  0  0  0  0  0  0
    2.6964   -2.4786    0.1105 C   0  0  0  0  0  0  0  0  0  0  0  0
    3.5303   -3.5369    0.5200 C   0  0  0  0  0  0  0  0  0  0  0  0
    3.0996   -4.8584    0.5078 C   0  0  0  0  0  0  0  0  0  0  0  0
    1.7959   -5.1931    0.0693 C   0  0  0  0  0  0  0  0  0  0  0  0
    1.3329   -6.4872    0.0196 N   0  0  0  0  0  0  0  0  0  0  0  0
    2.0468   -7.6749    0.4664 C   0  0  1  0  0  0  0  0  0  0  0  0
    2.0281   -7.8507    2.0036 C   0  0  0  0  0  0  0  0  0  0  0  0
    0.6327   -8.2110    2.5293 C   0  0  0  0  0  0  0  0  0  0  0  0
    0.0752   -9.4634    1.8395 C   0  0  0  0  0  0  0  0  0  0  0  0
    0.0724   -9.3080    0.3128 C   0  0  0  0  0  0  0  0  0  0  0  0
    1.4629   -8.9255   -0.2182 C   0  0  0  0  0  0  0  0  0  0  0  0
    0.9624   -4.1316   -0.3551 C   0  0  0  0  0  0  0  0  0  0  0  0
    1.4036   -2.8135   -0.3382 C   0  0  0  0  0  0  0  0  0  0  0  0
    0.9849    1.2626    0.9900 H   0  0  0  0  0  0  0  0  0  0  0  0
    0.7255   -0.4898    1.1980 H   0  0  0  0  0  0  0  0  0  0  0  0
    0.5403    0.2581   -0.4163 H   0  0  0  0  0  0  0  0  0  0  0  0
    3.2761    2.0969    0.3662 H   0  0  0  0  0  0  0  0  0  0  0  0
    4.5422   -3.2974    0.8516 H   0  0  0  0  0  0  0  0  0  0  0  0
    3.7843   -5.6371    0.8452 H   0  0  0  0  0  0  0  0  0  0  0  0
    0.3727   -6.6072   -0.2746 H   0  0  0  0  0  0  0  0  0  0  0  0
    3.0956   -7.5730    0.1391 H   0  0  0  0  0  0  0  0  0  0  0  0
    2.3971   -6.9319    2.4867 H   0  0  0  0  0  0  0  0  0  0  0  0
    2.7408   -8.6532    2.2676 H   0  0  0  0  0  0  0  0  0  0  0  0
   -0.0507   -7.3604    2.3540 H   0  0  0  0  0  0  0  0  0  0  0  0
    0.6670   -8.3565    3.6217 H   0  0  0  0  0  0  0  0  0  0  0  0
   -0.9420   -9.6849    2.2036 H   0  0  0  0  0  0  0  0  0  0  0  0
    0.6989  -10.3352    2.1113 H   0  0  0  0  0  0  0  0  0  0  0  0
   -0.6719   -8.5407    0.0260 H   0  0  0  0  0  0  0  0  0  0  0  0
   -0.2654  -10.2394   -0.1712 H   0  0  0  0  0  0  0  0  0  0  0  0
    1.4393   -8.7696   -1.3095 H   0  0  0  0  0  0  0  0  0  0  0  0
    2.1559   -9.7642   -0.0339 H   0  0  0  0  0  0  0  0  0  0  0  0
   -0.0442   -4.3572   -0.7200 H   0  0  0  0  0  0  0  0  0  0  0  0
    0.7292   -2.0433   -0.7152 H   0  0  0  0  0  0  0  0  0  0  0  0
  1  2  1  0
  1 20  1  0
  1 21  1  0
  1 22  1  0
  2  3  1  0
  2  6  1  0
  3  4  2  0
  3 23  1  0
  4  5  1  0
  5  6  2  0
  6  7  1  0
  7  8  2  0
  7 19  1  0
  8  9  1  0
  8 24  1  0
  9 10  2  0
  9 25  1  0
 10 11  1  0
 10 18  1  0
 11 12  1  0
 11 26  1  0
 12 13  1  0
 12 17  1  0
 12 27  1  6
 13 14  1  0
 13 28  1  0
 13 29  1  0
 14 15  1  0
 14 30  1  0
 14 31  1  0
 15 16  1  0
 15 32  1  0
 15 33  1  0
 16 17  1  0
 16 34  1  0
 16 35  1  0
 17 36  1  0
 17 37  1  0
 18 19  2  0
 18 38  1  0
 19 39  1  0
M  END

