
     RDKit          3D

 24 25  0  0  0  0  0  0  0  0999 V2000
    1.1857    0.0110    0.2463 C   0  0  0  0  0  0  0  0  0  0  0  0
    2.6780    0.0729    0.1541 C   0  0  0  0  0  0  0  0  0  0  0  0
    3.2681    1.2779    0.0985 N   0  0  0  0  0  0  0  0  0  0  0  0
    4.5748    1.3254    0.0189 N   0  0  0  0  0  0  0  0  0  0  0  0
    5.2581    0.1668   -0.0031 C   0  0  0  0  0  0  0  0  0  0  0  0
    6.7321    0.2186   -0.0894 C   0  0  0  0  0  0  0  0  0  0  0  0
    7.3991    1.4558   -0.1478 C   0  0  0  0  0  0  0  0  0  0  0  0
    8.7876    1.5011   -0.2293 C   0  0  0  0  0  0  0  0  0  0  0  0
    9.5492    0.3189   -0.2577 C   0  0  0  0  0  0  0  0  0  0  0  0
   11.0337    0.3715   -0.3639 C   0  0  0  0  0  0  0  0  0  0  0  0
   12.0417    0.4375    1.6192 I   0  0  0  0  0  0  0  0  0  0  0  0
    8.8756   -0.9142   -0.1970 C   0  0  0  0  0  0  0  0  0  0  0  0
    7.4873   -0.9678   -0.1155 C   0  0  0  0  0  0  0  0  0  0  0  0
    4.6612   -1.0417    0.0501 N   0  0  0  0  0  0  0  0  0  0  0  0
    3.3581   -1.0884    0.1294 N   0  0  0  0  0  0  0  0  0  0  0  0
    0.7691    1.0257    0.2671 H   0  0  0  0  0  0  0  0  0  0  0  0
    0.8814   -0.5332    1.1541 H   0  0  0  0  0  0  0  0  0  0  0  0
    0.7726   -0.5401   -0.6133 H   0  0  0  0  0  0  0  0  0  0  0  0
    6.8126    2.3750   -0.1295 H   0  0  0  0  0  0  0  0  0  0  0  0
    9.2936    2.4693   -0.2706 H   0  0  0  0  0  0  0  0  0  0  0  0
   11.3976    1.2772   -0.8612 H   0  0  0  0  0  0  0  0  0  0  0  0
   11.4631   -0.5194   -0.8348 H   0  0  0  0  0  0  0  0  0  0  0  0
    9.4507   -1.8439   -0.2129 H   0  0  0  0  0  0  0  0  0  0  0  0
    6.9693   -1.9265   -0.0722 H   0  0  0  0  0  0  0  0  0  0  0  0
  1  2  1  0
  1 16  1  0
  1 17  1  0
  1 18  1  0
  2  3  2  0
  2 15  1  0
  3  4  1  0
  4  5  2  0
  5  6  1  0
  5 14  1  0
  6  7  2  0
  6 13  1  0
  7  8  1  0
  7 19  1  0
  8  9  2  0
  8 20  1  0
  9 10  1  0
  9 12  1  0
 10 11  1  0
 10 21  1  0
 10 22  1  0
 12 13  2  0
 12 23  1  0
 13 24  1  0
 14 15  2  0
M  END

