
     RDKit          3D

 42 42  0  0  0  0  0  0  0  0999 V2000
    2.7189   -2.0094   -1.0208 C   0  0  0  0  0  0  0  0  0  0  0  0
    3.8612   -1.3402   -0.8358 C   0  0  0  0  0  0  0  0  0  0  0  0
    4.6009   -1.1971    0.4634 C   0  0  0  0  0  0  0  0  0  0  0  0
    4.8214    0.2728    0.9190 C   0  0  1  0  0  0  0  0  0  0  0  0
    3.4976    0.9642    1.2524 C   0  0  0  0  0  0  0  0  0  0  0  0
    5.7212    0.4084    2.0630 N   0  0  0  0  0  0  0  0  0  0  0  0
    7.1344    0.0533    1.9064 C   0  0  1  0  0  0  0  0  0  0  0  0
    7.8472    1.0398    0.9628 C   0  0  0  0  0  0  0  0  0  0  0  0
    7.8168    0.0389    3.2723 C   0  0  0  0  0  0  0  0  0  0  0  0
    7.4604    0.9987    4.2316 C   0  0  0  0  0  0  0  0  0  0  0  0
    8.0670    1.0774    5.4908 C   0  0  0  0  0  0  0  0  0  0  0  0
    7.6395    2.1321    6.4821 C   0  0  0  0  0  0  0  0  0  0  0  0
    9.0838    0.1513    5.8088 C   0  0  0  0  0  0  0  0  0  0  0  0
    9.7732    0.1840    7.1506 C   0  0  0  0  0  0  0  0  0  0  0  0
    9.4401   -0.8034    4.8489 C   0  0  0  0  0  0  0  0  0  0  0  0
    8.8361   -0.8860    3.5851 C   0  0  0  0  0  0  0  0  0  0  0  0
    9.2912   -1.9532    2.6146 C   0  0  0  0  0  0  0  0  0  0  0  0
    2.2437   -2.0712   -2.0040 H   0  0  0  0  0  0  0  0  0  0  0  0
    2.2169   -2.5259   -0.1954 H   0  0  0  0  0  0  0  0  0  0  0  0
    4.3215   -0.8406   -1.6998 H   0  0  0  0  0  0  0  0  0  0  0  0
    5.5920   -1.6738    0.3522 H   0  0  0  0  0  0  0  0  0  0  0  0
    4.0733   -1.7471    1.2636 H   0  0  0  0  0  0  0  0  0  0  0  0
    5.2807    0.8156    0.0746 H   0  0  0  0  0  0  0  0  0  0  0  0
    3.0109    0.4750    2.1146 H   0  0  0  0  0  0  0  0  0  0  0  0
    2.7952    0.9186    0.4068 H   0  0  0  0  0  0  0  0  0  0  0  0
    3.6733    2.0171    1.5179 H   0  0  0  0  0  0  0  0  0  0  0  0
    5.3326   -0.0887    2.8644 H   0  0  0  0  0  0  0  0  0  0  0  0
    7.2527   -0.9568    1.4649 H   0  0  0  0  0  0  0  0  0  0  0  0
    7.7460    2.0680    1.3431 H   0  0  0  0  0  0  0  0  0  0  0  0
    7.4325    1.0054   -0.0571 H   0  0  0  0  0  0  0  0  0  0  0  0
    8.9192    0.8009    0.8918 H   0  0  0  0  0  0  0  0  0  0  0  0
    6.6686    1.7072    3.9767 H   0  0  0  0  0  0  0  0  0  0  0  0
    6.8422    2.7677    6.0702 H   0  0  0  0  0  0  0  0  0  0  0  0
    8.4790    2.7895    6.7674 H   0  0  0  0  0  0  0  0  0  0  0  0
    7.2629    1.6850    7.4184 H   0  0  0  0  0  0  0  0  0  0  0  0
   10.2723    1.1521    7.3295 H   0  0  0  0  0  0  0  0  0  0  0  0
   10.5356   -0.6048    7.2299 H   0  0  0  0  0  0  0  0  0  0  0  0
    9.0588    0.0447    7.9803 H   0  0  0  0  0  0  0  0  0  0  0  0
   10.2278   -1.5222    5.0964 H   0  0  0  0  0  0  0  0  0  0  0  0
   10.0952   -2.5624    3.0530 H   0  0  0  0  0  0  0  0  0  0  0  0
    9.6768   -1.5260    1.6741 H   0  0  0  0  0  0  0  0  0  0  0  0
    8.4713   -2.6380    2.3386 H   0  0  0  0  0  0  0  0  0  0  0  0
  1  2  2  0
  1 18  1  0
  1 19  1  0
  2  3  1  0
  2 20  1  0
  3  4  1  0
  3 21  1  0
  3 22  1  0
  4  5  1  0
  4  6  1  0
  4 23  1  6
  5 24  1  0
  5 25  1  0
  5 26  1  0
  6  7  1  0
  6 27  1  0
  7  8  1  0
  7  9  1  0
  7 28  1  6
  8 29  1  0
  8 30  1  0
  8 31  1  0
  9 10  2  0
  9 16  1  0
 10 11  1  0
 10 32  1  0
 11 12  1  0
 11 13  2  0
 12 33  1  0
 12 34  1  0
 12 35  1  0
 13 14  1  0
 13 15  1  0
 14 36  1  0
 14 37  1  0
 14 38  1  0
 15 16  2  0
 15 39  1  0
 16 17  1  0
 17 40  1  0
 17 41  1  0
 17 42  1  0
M  END

