
     RDKit          3D

 68 72  0  0  0  0  0  0  0  0999 V2000
   10.3661    1.2904   -0.8796 C   0  0  0  0  0  0  0  0  0  0  0  0
    9.0942    0.5463   -1.2890 C   0  0  0  0  0  0  0  0  0  0  0  0
    8.2588    0.0686   -0.0977 C   0  0  0  0  0  0  0  0  0  0  0  0
    6.9742   -0.6789   -0.4782 C   0  0  0  0  0  0  0  0  0  0  0  0
    7.1965   -1.9210   -1.2056 N   0  0  0  0  0  0  0  0  0  0  0  0
    7.3160   -3.1256   -0.5756 C   0  0  0  0  0  0  0  0  0  0  0  0
    7.2162   -3.2534    0.6348 O   0  0  0  0  0  0  0  0  0  0  0  0
    7.6031   -4.3200   -1.4857 C   0  0  1  0  0  0  0  0  0  0  0  0
    7.4930   -4.0338   -2.5460 H   0  0  0  0  0  0  0  0  0  0  0  0
    9.0133   -4.9091   -1.2616 C   0  0  0  0  0  0  0  0  0  0  0  0
    8.9015   -6.3339   -1.8126 C   0  0  0  0  0  0  0  0  0  0  0  0
    7.5011   -6.6726   -1.5717 N   0  0  0  0  0  0  0  0  0  0  0  0
    7.0204   -7.9413   -1.6677 C   0  0  0  0  0  0  0  0  0  0  0  0
    5.7217   -8.1336   -1.3466 N   0  0  0  0  0  0  0  0  0  0  0  0
    5.1988   -9.3557   -1.4342 C   0  0  0  0  0  0  0  0  0  0  0  0
    3.8650   -9.4831   -1.0722 N   0  0  0  0  0  0  0  0  0  0  0  0
    3.0550   -8.2926   -0.8523 C   0  0  0  0  0  0  0  0  0  0  0  0
    2.9687   -7.9339    0.6324 C   0  0  0  0  0  0  0  0  0  0  0  0
    2.5999   -9.1475    1.3639 N   0  0  0  0  0  0  0  0  0  0  0  0
    2.7575  -10.4186    0.8883 C   0  0  0  0  0  0  0  0  0  0  0  0
    2.3507  -11.2995    1.7745 N   0  0  0  0  0  0  0  0  0  0  0  0
    1.9174  -10.6092    2.8694 N   0  0  0  0  0  0  0  0  0  0  0  0
    2.0746   -9.3336    2.6164 C   0  0  0  0  0  0  0  0  0  0  0  0
    1.7271   -8.2029    3.5373 C   0  0  1  0  0  0  0  0  0  0  0  0
    2.8007   -7.4162    3.7574 F   0  0  0  0  0  0  0  0  0  0  0  0
    0.7804   -7.4089    2.9867 F   0  0  0  0  0  0  0  0  0  0  0  0
    1.2772   -8.6393    4.7044 F   0  0  0  0  0  0  0  0  0  0  0  0
    3.3131  -10.6966   -0.4830 C   0  0  0  0  0  0  0  0  0  0  0  0
    5.9878  -10.4469   -1.9126 C   0  0  0  0  0  0  0  0  0  0  0  0
    5.7140  -11.8241   -2.2464 C   0  0  0  0  0  0  0  0  0  0  0  0
    6.8019  -12.5132   -2.7029 C   0  0  0  0  0  0  0  0  0  0  0  0
    6.8510  -13.9502   -3.1477 C   0  0  0  0  0  0  0  0  0  0  0  0
    6.6368  -14.1958   -4.6579 C   0  0  0  0  0  0  0  0  0  0  0  0
    7.7591  -13.6921   -5.5656 C   0  0  0  0  0  0  0  0  0  0  0  0
    8.2406  -11.4909   -2.7557 S   0  0  0  0  0  0  0  0  0  0  0  0
    7.3378  -10.1019   -2.1752 C   0  0  0  0  0  0  0  0  0  0  0  0
    7.8786   -8.8971   -2.0563 N   0  0  0  0  0  0  0  0  0  0  0  0
    6.6913   -5.5230   -1.1833 C   0  0  0  0  0  0  0  0  0  0  0  0
   10.9444    1.6181   -1.7581 H   0  0  0  0  0  0  0  0  0  0  0  0
   11.0231    0.6509   -0.2671 H   0  0  0  0  0  0  0  0  0  0  0  0
   10.1308    2.1871   -0.2824 H   0  0  0  0  0  0  0  0  0  0  0  0
    9.3673   -0.3230   -1.9143 H   0  0  0  0  0  0  0  0  0  0  0  0
    8.4741    1.2003   -1.9304 H   0  0  0  0  0  0  0  0  0  0  0  0
    7.9740    0.9370    0.5234 H   0  0  0  0  0  0  0  0  0  0  0  0
    8.8659   -0.5869    0.5507 H   0  0  0  0  0  0  0  0  0  0  0  0
    6.3259   -0.0320   -1.0938 H   0  0  0  0  0  0  0  0  0  0  0  0
    6.4191   -0.9403    0.4340 H   0  0  0  0  0  0  0  0  0  0  0  0
    7.3127   -1.8878   -2.2104 H   0  0  0  0  0  0  0  0  0  0  0  0
    9.2140   -4.9291   -0.1787 H   0  0  0  0  0  0  0  0  0  0  0  0
    9.8075   -4.3229   -1.7474 H   0  0  0  0  0  0  0  0  0  0  0  0
    9.5703   -7.0487   -1.3105 H   0  0  0  0  0  0  0  0  0  0  0  0
    9.1386   -6.3823   -2.8922 H   0  0  0  0  0  0  0  0  0  0  0  0
    2.0401   -8.4863   -1.2445 H   0  0  0  0  0  0  0  0  0  0  0  0
    3.4940   -7.4557   -1.4045 H   0  0  0  0  0  0  0  0  0  0  0  0
    2.2075   -7.1611    0.8124 H   0  0  0  0  0  0  0  0  0  0  0  0
    3.9397   -7.5637    0.9948 H   0  0  0  0  0  0  0  0  0  0  0  0
    2.5133  -11.1269   -1.1165 H   0  0  0  0  0  0  0  0  0  0  0  0
    4.0902  -11.4614   -0.3798 H   0  0  0  0  0  0  0  0  0  0  0  0
    4.7374  -12.3025   -2.1754 H   0  0  0  0  0  0  0  0  0  0  0  0
    6.0684  -14.4929   -2.5922 H   0  0  0  0  0  0  0  0  0  0  0  0
    7.8111  -14.4016   -2.8407 H   0  0  0  0  0  0  0  0  0  0  0  0
    5.6788  -13.7361   -4.9575 H   0  0  0  0  0  0  0  0  0  0  0  0
    6.5133  -15.2836   -4.8029 H   0  0  0  0  0  0  0  0  0  0  0  0
    7.8882  -12.6010   -5.4928 H   0  0  0  0  0  0  0  0  0  0  0  0
    7.5495  -13.9332   -6.6201 H   0  0  0  0  0  0  0  0  0  0  0  0
    8.7246  -14.1584   -5.3051 H   0  0  0  0  0  0  0  0  0  0  0  0
    6.4419   -5.5428   -0.1080 H   0  0  0  0  0  0  0  0  0  0  0  0
    5.7467   -5.4926   -1.7480 H   0  0  0  0  0  0  0  0  0  0  0  0
  1  2  1  0
  1 39  1  0
  1 40  1  0
  1 41  1  0
  2  3  1  0
  2 42  1  0
  2 43  1  0
  3  4  1  0
  3 44  1  0
  3 45  1  0
  4  5  1  0
  4 46  1  0
  4 47  1  0
  5  6  1  0
  5 48  1  0
  6  7  2  0
  6  8  1  0
  8  9  1  6
  8 10  1  0
  8 38  1  0
 10 11  1  0
 10 49  1  0
 10 50  1  0
 11 12  1  0
 11 51  1  0
 11 52  1  0
 12 13  1  0
 12 38  1  0
 13 14  2  0
 13 37  1  0
 14 15  1  0
 15 16  1  0
 15 29  2  0
 16 17  1  0
 16 28  1  0
 17 18  1  0
 17 53  1  0
 17 54  1  0
 18 19  1  0
 18 55  1  0
 18 56  1  0
 19 20  1  0
 19 23  1  0
 20 21  2  0
 20 28  1  0
 21 22  1  0
 22 23  2  0
 23 24  1  0
 24 25  1  1
 24 26  1  0
 24 27  1  0
 28 57  1  0
 28 58  1  0
 29 30  1  0
 29 36  1  0
 30 31  2  0
 30 59  1  0
 31 32  1  0
 31 35  1  0
 32 33  1  0
 32 60  1  0
 32 61  1  0
 33 34  1  0
 33 62  1  0
 33 63  1  0
 34 64  1  0
 34 65  1  0
 34 66  1  0
 35 36  1  0
 36 37  2  0
 38 67  1  0
 38 68  1  0
M  END

