
     RDKit          3D

 38 38  0  0  0  0  0  0  0  0999 V2000
    3.0599   -0.4250    3.1967 C   0  0  0  0  0  0  0  0  0  0  0  0
    4.5433   -0.0701    3.1164 C   0  0  1  0  0  0  0  0  0  0  0  0
    5.4415   -1.2089    3.6021 C   0  0  0  0  0  0  0  0  0  0  0  0
    5.0671    0.3398    1.3798 S   0  0  0  0  0  0  0  0  0  0  0  0
    4.2895    1.9720    1.1392 C   0  0  0  0  0  0  0  0  0  0  0  0
    4.9484    3.1868    1.7988 C   0  0  0  0  0  0  0  0  0  0  0  0
    4.2931    4.2288    1.9102 O   0  0  0  0  0  0  0  0  0  0  0  0
    6.2246    3.0452    2.1997 N   0  0  0  0  0  0  0  0  0  0  0  0
    7.1442    4.0972    2.6923 C   0  0  1  0  0  0  0  0  0  0  0  0
    6.6518    4.6719    4.0593 C   0  0  0  0  0  0  0  0  0  0  0  0
    7.3735    4.7247    5.0231 O   0  0  0  0  0  0  0  0  0  0  0  0
    5.4114    5.1482    4.0827 O   0  0  0  0  0  0  0  0  0  0  0  0
    8.5250    3.4422    2.8895 C   0  0  0  0  0  0  0  0  0  0  0  0
    9.1988    3.0279    1.5745 C   0  0  0  0  0  0  0  0  0  0  0  0
    9.3014    4.2052    0.5980 C   0  0  0  0  0  0  0  0  0  0  0  0
    7.9295    4.8460    0.3606 C   0  0  0  0  0  0  0  0  0  0  0  0
    7.2596    5.2657    1.6745 C   0  0  0  0  0  0  0  0  0  0  0  0
    2.7778   -0.6311    4.2430 H   0  0  0  0  0  0  0  0  0  0  0  0
    2.8377   -1.3216    2.5966 H   0  0  0  0  0  0  0  0  0  0  0  0
    2.4154    0.3926    2.8399 H   0  0  0  0  0  0  0  0  0  0  0  0
    4.7456    0.8294    3.7212 H   0  0  0  0  0  0  0  0  0  0  0  0
    5.3183   -2.1075    2.9752 H   0  0  0  0  0  0  0  0  0  0  0  0
    5.1740   -1.4827    4.6353 H   0  0  0  0  0  0  0  0  0  0  0  0
    6.5044   -0.9243    3.5879 H   0  0  0  0  0  0  0  0  0  0  0  0
    3.2354    1.9655    1.4514 H   0  0  0  0  0  0  0  0  0  0  0  0
    4.2881    2.1507    0.0514 H   0  0  0  0  0  0  0  0  0  0  0  0
    6.6060    2.1068    2.0784 H   0  0  0  0  0  0  0  0  0  0  0  0
    4.9236    4.9724    3.2316 H   0  0  0  0  0  0  0  0  0  0  0  0
    8.4242    2.5861    3.5769 H   0  0  0  0  0  0  0  0  0  0  0  0
    9.1514    4.1718    3.4219 H   0  0  0  0  0  0  0  0  0  0  0  0
    8.6402    2.2030    1.0941 H   0  0  0  0  0  0  0  0  0  0  0  0
   10.1991    2.6207    1.7955 H   0  0  0  0  0  0  0  0  0  0  0  0
    9.7438    3.8761   -0.3569 H   0  0  0  0  0  0  0  0  0  0  0  0
    9.9887    4.9633    1.0163 H   0  0  0  0  0  0  0  0  0  0  0  0
    7.2775    4.1323   -0.1744 H   0  0  0  0  0  0  0  0  0  0  0  0
    8.0214    5.7263   -0.2967 H   0  0  0  0  0  0  0  0  0  0  0  0
    6.2665    5.6951    1.4827 H   0  0  0  0  0  0  0  0  0  0  0  0
    7.8596    6.0544    2.1600 H   0  0  0  0  0  0  0  0  0  0  0  0
  1  2  1  0
  1 18  1  0
  1 19  1  0
  1 20  1  0
  2  3  1  0
  2  4  1  0
  2 21  1  1
  3 22  1  0
  3 23  1  0
  3 24  1  0
  4  5  1  0
  5  6  1  0
  5 25  1  0
  5 26  1  0
  6  7  2  0
  6  8  1  0
  8  9  1  0
  8 27  1  0
  9 10  1  1
  9 13  1  0
  9 17  1  0
 10 11  2  0
 10 12  1  0
 12 28  1  0
 13 14  1  0
 13 29  1  0
 13 30  1  0
 14 15  1  0
 14 31  1  0
 14 32  1  0
 15 16  1  0
 15 33  1  0
 15 34  1  0
 16 17  1  0
 16 35  1  0
 16 36  1  0
 17 37  1  0
 17 38  1  0
M  END

