
     RDKit          3D

 67 71  0  0  0  0  0  0  0  0999 V2000
    6.0520    6.7015   -0.8880 C   0  0  0  0  0  0  0  0  0  0  0  0
    5.8244    5.9233    0.4177 C   0  0  1  0  0  0  0  0  0  0  0  0
    7.1509    5.8047    1.1867 C   0  0  0  0  0  0  0  0  0  0  0  0
    7.1868    4.9112    2.4429 C   0  0  0  0  0  0  0  0  0  0  0  0
    6.3889    3.5881    2.3747 C   0  0  0  0  0  0  0  0  0  0  0  0
    5.0460    3.5825    3.1257 C   0  0  0  0  0  0  0  0  0  0  0  0
    3.8624    4.4513    2.6379 C   0  0  2  0  0  0  0  0  0  0  0  0
    3.1480    3.9018    1.3721 C   0  0  0  0  0  0  0  0  0  0  0  0
    2.5212    2.5408    1.5968 C   0  0  0  0  0  0  0  0  0  0  0  0
    3.0999    1.5025    1.3312 O   0  0  0  0  0  0  0  0  0  0  0  0
    1.1551    2.4848    2.1910 C   0  0  0  0  0  0  0  0  0  0  0  0
    0.4320    1.3114    2.5250 C   0  0  0  0  0  0  0  0  0  0  0  0
   -0.7752    1.7549    3.0344 C   0  0  0  0  0  0  0  0  0  0  0  0
   -1.9491    0.9608    3.4453 C   0  0  0  0  0  0  0  0  0  0  0  0
   -1.7758   -0.1579    4.2796 C   0  0  0  0  0  0  0  0  0  0  0  0
   -2.8631   -0.9565    4.6370 C   0  0  0  0  0  0  0  0  0  0  0  0
   -4.1577   -0.6690    4.1769 C   0  0  0  0  0  0  0  0  0  0  0  0
   -5.3186   -1.5541    4.5252 C   0  0  1  0  0  0  0  0  0  0  0  0
   -5.6486   -1.8990    5.9568 C   0  0  0  0  0  0  0  0  0  0  0  0
   -6.5686   -1.0021    5.1664 C   0  0  0  0  0  0  0  0  0  0  0  0
   -4.3256    0.4460    3.3387 C   0  0  0  0  0  0  0  0  0  0  0  0
   -3.2439    1.2471    2.9747 C   0  0  0  0  0  0  0  0  0  0  0  0
   -0.7079    3.1432    2.9975 N   0  0  0  0  0  0  0  0  0  0  0  0
   -1.6300    4.1093    3.4856 C   0  0  0  0  0  0  0  0  0  0  0  0
   -2.3262    3.9018    4.6847 C   0  0  0  0  0  0  0  0  0  0  0  0
   -3.2105    4.8716    5.1495 C   0  0  0  0  0  0  0  0  0  0  0  0
   -3.3993    6.0658    4.4294 C   0  0  0  0  0  0  0  0  0  0  0  0
   -4.3118    7.0646    4.9106 C   0  0  0  0  0  0  0  0  0  0  0  0
   -5.0515    7.8711    5.2990 N   0  0  0  0  0  0  0  0  0  0  0  0
   -2.6805    6.2744    3.2367 C   0  0  0  0  0  0  0  0  0  0  0  0
   -1.8031    5.3021    2.7679 C   0  0  0  0  0  0  0  0  0  0  0  0
    0.4535    3.5794    2.4795 N   0  0  0  0  0  0  0  0  0  0  0  0
    4.1648    5.9698    2.5255 C   0  0  0  0  0  0  0  0  0  0  0  0
    4.6498    6.5597    1.1857 C   0  0  0  0  0  0  0  0  0  0  0  0
    6.8339    6.2313   -1.5059 H   0  0  0  0  0  0  0  0  0  0  0  0
    6.3710    7.7377   -0.6808 H   0  0  0  0  0  0  0  0  0  0  0  0
    5.1324    6.7533   -1.4933 H   0  0  0  0  0  0  0  0  0  0  0  0
    5.5248    4.9027    0.1264 H   0  0  0  0  0  0  0  0  0  0  0  0
    7.5059    6.8173    1.4550 H   0  0  0  0  0  0  0  0  0  0  0  0
    7.8964    5.4141    0.4709 H   0  0  0  0  0  0  0  0  0  0  0  0
    6.8575    5.4811    3.3269 H   0  0  0  0  0  0  0  0  0  0  0  0
    8.2471    4.6793    2.6392 H   0  0  0  0  0  0  0  0  0  0  0  0
    6.9975    2.7901    2.8317 H   0  0  0  0  0  0  0  0  0  0  0  0
    6.2487    3.2680    1.3280 H   0  0  0  0  0  0  0  0  0  0  0  0
    5.2520    3.8826    4.1698 H   0  0  0  0  0  0  0  0  0  0  0  0
    4.6980    2.5380    3.1837 H   0  0  0  0  0  0  0  0  0  0  0  0
    3.1177    4.3745    3.4489 H   0  0  0  0  0  0  0  0  0  0  0  0
    3.8544    3.7885    0.5383 H   0  0  0  0  0  0  0  0  0  0  0  0
    2.3638    4.6151    1.0773 H   0  0  0  0  0  0  0  0  0  0  0  0
    0.7451    0.2841    2.3625 H   0  0  0  0  0  0  0  0  0  0  0  0
   -0.7786   -0.3946    4.6584 H   0  0  0  0  0  0  0  0  0  0  0  0
   -2.7065   -1.8187    5.2904 H   0  0  0  0  0  0  0  0  0  0  0  0
   -5.4833   -2.3616    3.7996 H   0  0  0  0  0  0  0  0  0  0  0  0
   -5.0450   -1.4373    6.7439 H   0  0  0  0  0  0  0  0  0  0  0  0
   -5.9761   -2.9176    6.1823 H   0  0  0  0  0  0  0  0  0  0  0  0
   -6.5819    0.0615    5.4225 H   0  0  0  0  0  0  0  0  0  0  0  0
   -7.5352   -1.3974    4.8425 H   0  0  0  0  0  0  0  0  0  0  0  0
   -5.3228    0.6842    2.9595 H   0  0  0  0  0  0  0  0  0  0  0  0
   -3.4045    2.0952    2.3055 H   0  0  0  0  0  0  0  0  0  0  0  0
   -2.1682    2.9900    5.2599 H   0  0  0  0  0  0  0  0  0  0  0  0
   -3.7514    4.7126    6.0840 H   0  0  0  0  0  0  0  0  0  0  0  0
   -2.8184    7.2016    2.6776 H   0  0  0  0  0  0  0  0  0  0  0  0
   -1.2372    5.4547    1.8489 H   0  0  0  0  0  0  0  0  0  0  0  0
    4.8627    6.2387    3.3344 H   0  0  0  0  0  0  0  0  0  0  0  0
    3.2310    6.5071    2.7661 H   0  0  0  0  0  0  0  0  0  0  0  0
    4.8947    7.6230    1.3684 H   0  0  0  0  0  0  0  0  0  0  0  0
    3.7910    6.5818    0.4916 H   0  0  0  0  0  0  0  0  0  0  0  0
  1  2  1  0
  1 35  1  0
  1 36  1  0
  1 37  1  0
  2  3  1  0
  2 34  1  0
  2 38  1  6
  3  4  1  0
  3 39  1  0
  3 40  1  0
  4  5  1  0
  4 41  1  0
  4 42  1  0
  5  6  1  0
  5 43  1  0
  5 44  1  0
  6  7  1  0
  6 45  1  0
  6 46  1  0
  7  8  1  0
  7 33  1  0
  7 47  1  1
  8  9  1  0
  8 48  1  0
  8 49  1  0
  9 10  2  0
  9 11  1  0
 11 12  1  0
 11 32  2  0
 12 13  2  0
 12 50  1  0
 13 14  1  0
 13 23  1  0
 14 15  2  0
 14 22  1  0
 15 16  1  0
 15 51  1  0
 16 17  2  0
 16 52  1  0
 17 18  1  0
 17 21  1  0
 18 19  1  0
 18 20  1  0
 18 53  1  6
 19 20  1  0
 19 54  1  0
 19 55  1  0
 20 56  1  0
 20 57  1  0
 21 22  2  0
 21 58  1  0
 22 59  1  0
 23 24  1  0
 23 32  1  0
 24 25  2  0
 24 31  1  0
 25 26  1  0
 25 60  1  0
 26 27  2  0
 26 61  1  0
 27 28  1  0
 27 30  1  0
 28 29  3  0
 30 31  2  0
 30 62  1  0
 31 63  1  0
 33 34  1  0
 33 64  1  0
 33 65  1  0
 34 66  1  0
 34 67  1  0
M  END

