
     RDKit          3D

 60 64  0  0  0  0  0  0  0  0999 V2000
   -0.2109    3.0384    0.8930 O   0  0  0  0  0  0  0  0  0  0  0  0
    0.5958    2.7125    0.0240 C   0  0  0  0  0  0  0  0  0  0  0  0
    1.8372    2.2406    0.3457 N   0  0  0  0  0  0  0  0  0  0  0  0
    2.3262    2.2290    1.7116 C   0  0  0  0  0  0  0  0  0  0  0  0
    3.1673    3.4827    2.0088 C   0  0  0  0  0  0  0  0  0  0  0  0
    4.2850    3.5531    1.5150 O   0  0  0  0  0  0  0  0  0  0  0  0
    2.6401    4.4769    2.7912 N   0  0  0  0  0  0  0  0  0  0  0  0
    3.4611    5.6510    3.0899 C   0  0  0  0  0  0  0  0  0  0  0  0
    2.7726    6.9308    2.6113 C   0  0  0  0  0  0  0  0  0  0  0  0
    1.4168    7.0166    3.1507 N   0  0  0  0  0  0  0  0  0  0  0  0
    1.1140    8.0183    4.0330 C   0  0  0  0  0  0  0  0  0  0  0  0
    1.9070    8.8789    4.3770 O   0  0  0  0  0  0  0  0  0  0  0  0
   -0.3166    8.0918    4.5406 C   0  0  0  0  0  0  0  0  0  0  0  0
   -1.3007    8.5747    3.6704 C   0  0  0  0  0  0  0  0  0  0  0  0
   -2.5951    8.7850    4.1398 C   0  0  0  0  0  0  0  0  0  0  0  0
   -3.5205    9.2534    3.2970 F   0  0  0  0  0  0  0  0  0  0  0  0
   -2.9490    8.5146    5.4584 C   0  0  0  0  0  0  0  0  0  0  0  0
   -1.9699    8.0235    6.3215 C   0  0  0  0  0  0  0  0  0  0  0  0
   -0.6578    7.8132    5.8794 C   0  0  0  0  0  0  0  0  0  0  0  0
    0.3719    7.3039    6.8638 C   0  0  1  0  0  0  0  0  0  0  0  0
    1.1693    6.3627    6.3052 F   0  0  0  0  0  0  0  0  0  0  0  0
    1.1711    8.2737    7.3220 F   0  0  0  0  0  0  0  0  0  0  0  0
   -0.2110    6.7326    7.9340 F   0  0  0  0  0  0  0  0  0  0  0  0
    0.5918    5.8457    2.8748 C   0  0  0  0  0  0  0  0  0  0  0  0
    1.2838    4.5511    3.3291 C   0  0  0  0  0  0  0  0  0  0  0  0
    0.2482    2.7804   -1.4345 C   0  0  0  0  0  0  0  0  0  0  0  0
    1.2084    2.7370   -2.4733 C   0  0  0  0  0  0  0  0  0  0  0  0
    0.8421    2.8133   -3.8146 C   0  0  0  0  0  0  0  0  0  0  0  0
   -0.5200    2.9338   -4.1169 C   0  0  0  0  0  0  0  0  0  0  0  0
   -1.1514    3.0254   -5.3394 N   0  0  0  0  0  0  0  0  0  0  0  0
   -0.6866    3.0124   -6.2371 H   0  0  0  0  0  0  0  0  0  0  0  0
   -2.5218    3.1404   -5.1527 C   0  0  0  0  0  0  0  0  0  0  0  0
   -3.5456    3.2587   -6.0992 C   0  0  0  0  0  0  0  0  0  0  0  0
   -4.8549    3.3600   -5.6275 C   0  0  0  0  0  0  0  0  0  0  0  0
   -5.1405    3.3439   -4.2486 C   0  0  0  0  0  0  0  0  0  0  0  0
   -4.1165    3.2257   -3.3094 C   0  0  0  0  0  0  0  0  0  0  0  0
   -2.7911    3.1224   -3.7559 C   0  0  0  0  0  0  0  0  0  0  0  0
   -1.5069    2.9901   -3.0893 C   0  0  0  0  0  0  0  0  0  0  0  0
   -1.1099    2.9199   -1.7525 C   0  0  0  0  0  0  0  0  0  0  0  0
    2.5089    2.0466   -0.3849 H   0  0  0  0  0  0  0  0  0  0  0  0
    3.0163    1.3815    1.8328 H   0  0  0  0  0  0  0  0  0  0  0  0
    1.4725    2.0800    2.3804 H   0  0  0  0  0  0  0  0  0  0  0  0
    4.4306    5.5173    2.5951 H   0  0  0  0  0  0  0  0  0  0  0  0
    3.6207    5.7105    4.1816 H   0  0  0  0  0  0  0  0  0  0  0  0
    2.7201    6.9336    1.5078 H   0  0  0  0  0  0  0  0  0  0  0  0
    3.3246    7.8185    2.9439 H   0  0  0  0  0  0  0  0  0  0  0  0
   -1.0685    8.8002    2.6277 H   0  0  0  0  0  0  0  0  0  0  0  0
   -3.9742    8.6856    5.7905 H   0  0  0  0  0  0  0  0  0  0  0  0
   -2.2293    7.7940    7.3557 H   0  0  0  0  0  0  0  0  0  0  0  0
    0.3926    5.7781    1.7907 H   0  0  0  0  0  0  0  0  0  0  0  0
   -0.3750    5.9375    3.3842 H   0  0  0  0  0  0  0  0  0  0  0  0
    0.6770    3.7151    2.9679 H   0  0  0  0  0  0  0  0  0  0  0  0
    1.3255    4.5316    4.4328 H   0  0  0  0  0  0  0  0  0  0  0  0
    2.2744    2.6721   -2.2416 H   0  0  0  0  0  0  0  0  0  0  0  0
    1.5995    2.7888   -4.6013 H   0  0  0  0  0  0  0  0  0  0  0  0
   -3.3304    3.2719   -7.1704 H   0  0  0  0  0  0  0  0  0  0  0  0
   -5.6744    3.4536   -6.3445 H   0  0  0  0  0  0  0  0  0  0  0  0
   -6.1772    3.4252   -3.9138 H   0  0  0  0  0  0  0  0  0  0  0  0
   -4.3425    3.2135   -2.2403 H   0  0  0  0  0  0  0  0  0  0  0  0
   -1.8300    2.9714   -0.9339 H   0  0  0  0  0  0  0  0  0  0  0  0
  1  2  2  0
  2  3  1  0
  2 26  1  0
  3  4  1  0
  3 40  1  0
  4  5  1  0
  4 41  1  0
  4 42  1  0
  5  6  2  0
  5  7  1  0
  7  8  1  0
  7 25  1  0
  8  9  1  0
  8 43  1  0
  8 44  1  0
  9 10  1  0
  9 45  1  0
  9 46  1  0
 10 11  1  0
 10 24  1  0
 11 12  2  0
 11 13  1  0
 13 14  2  0
 13 19  1  0
 14 15  1  0
 14 47  1  0
 15 16  1  0
 15 17  2  0
 17 18  1  0
 17 48  1  0
 18 19  2  0
 18 49  1  0
 19 20  1  0
 20 21  1  6
 20 22  1  0
 20 23  1  0
 24 25  1  0
 24 50  1  0
 24 51  1  0
 25 52  1  0
 25 53  1  0
 26 27  2  0
 26 39  1  0
 27 28  1  0
 27 54  1  0
 28 29  2  0
 28 55  1  0
 29 30  1  0
 29 38  1  0
 30 31  1  0
 30 32  1  0
 32 33  1  0
 32 37  2  0
 33 34  2  0
 33 56  1  0
 34 35  1  0
 34 57  1  0
 35 36  2  0
 35 58  1  0
 36 37  1  0
 36 59  1  0
 37 38  1  0
 38 39  2  0
 39 60  1  0
M  END

