
     RDKit          3D

 23 23  0  0  0  0  0  0  0  0999 V2000
    1.8450    0.7091   -1.8012 C   0  0  0  0  0  0  0  0  0  0  0  0
    2.7353    0.4404   -0.7404 O   0  0  0  0  0  0  0  0  0  0  0  0
    3.5001   -0.6713   -0.8623 C   0  0  0  0  0  0  0  0  0  0  0  0
    4.5320   -0.9335   -0.0491 C   0  0  0  0  0  0  0  0  0  0  0  0
    5.3520   -2.1923   -0.1246 C   0  0  0  0  0  0  0  0  0  0  0  0
    6.8390   -1.9680   -0.3600 C   0  0  0  0  0  0  0  0  0  0  0  0
    7.8008   -2.6549    0.3947 C   0  0  0  0  0  0  0  0  0  0  0  0
    9.1693   -2.4807    0.1670 C   0  0  0  0  0  0  0  0  0  0  0  0
    9.5864   -1.6010   -0.8334 C   0  0  0  0  0  0  0  0  0  0  0  0
   11.4521   -1.3497   -1.1555 Br  0  0  0  0  0  0  0  0  0  0  0  0
    8.6514   -0.8986   -1.5990 C   0  0  0  0  0  0  0  0  0  0  0  0
    7.2894   -1.0859   -1.3548 C   0  0  0  0  0  0  0  0  0  0  0  0
    1.2532    1.5890   -1.5144 H   0  0  0  0  0  0  0  0  0  0  0  0
    1.1556   -0.1370   -1.9820 H   0  0  0  0  0  0  0  0  0  0  0  0
    2.3818    0.9341   -2.7417 H   0  0  0  0  0  0  0  0  0  0  0  0
    3.2046   -1.3697   -1.6595 H   0  0  0  0  0  0  0  0  0  0  0  0
    4.7855   -0.1981    0.7219 H   0  0  0  0  0  0  0  0  0  0  0  0
    4.9538   -2.8375   -0.9295 H   0  0  0  0  0  0  0  0  0  0  0  0
    5.2366   -2.7736    0.8077 H   0  0  0  0  0  0  0  0  0  0  0  0
    7.4782   -3.3440    1.1808 H   0  0  0  0  0  0  0  0  0  0  0  0
    9.9041   -3.0223    0.7652 H   0  0  0  0  0  0  0  0  0  0  0  0
    8.9856   -0.2099   -2.3769 H   0  0  0  0  0  0  0  0  0  0  0  0
    6.5588   -0.5285   -1.9468 H   0  0  0  0  0  0  0  0  0  0  0  0
  1  2  1  0
  1 13  1  0
  1 14  1  0
  1 15  1  0
  2  3  1  0
  3  4  2  0
  3 16  1  0
  4  5  1  0
  4 17  1  0
  5  6  1  0
  5 18  1  0
  5 19  1  0
  6  7  2  0
  6 12  1  0
  7  8  1  0
  7 20  1  0
  8  9  2  0
  8 21  1  0
  9 10  1  0
  9 11  1  0
 11 12  2  0
 11 22  1  0
 12 23  1  0
M  END

