
     RDKit          3D

 42 45  0  0  0  0  0  0  0  0999 V2000
    2.2332   -0.4941    0.7052 O   0  0  0  0  0  0  0  0  0  0  0  0
    2.7716    0.0544   -0.2408 C   0  0  0  0  0  0  0  0  0  0  0  0
    3.0818    1.3911   -0.2430 N   0  0  0  0  0  0  0  0  0  0  0  0
    2.8450    2.2144    0.9075 C   0  0  1  0  0  0  0  0  0  0  0  0
    2.5553    3.6741    0.6801 C   0  0  0  0  0  0  0  0  0  0  0  0
    1.4611    2.7515    1.1537 C   0  0  0  0  0  0  0  0  0  0  0  0
    3.1401   -0.7123   -1.4903 C   0  0  0  0  0  0  0  0  0  0  0  0
    3.3443   -0.1060   -2.7407 C   0  0  0  0  0  0  0  0  0  0  0  0
    3.6670   -0.8743   -3.8603 C   0  0  0  0  0  0  0  0  0  0  0  0
    3.7902   -2.2606   -3.7207 C   0  0  0  0  0  0  0  0  0  0  0  0
    4.2513   -3.2612   -5.1443 S   0  0  1  0  0  0  0  0  0  0  0  0
    3.8647   -4.6392   -4.8507 O   0  0  0  0  0  0  0  0  0  0  0  0
    3.8071   -2.5624   -6.3477 O   0  0  0  0  0  0  0  0  0  0  0  0
    5.9381   -3.2737   -5.1684 N   0  0  0  0  0  0  0  0  0  0  0  0
    6.6567   -4.1004   -4.1676 C   0  0  0  0  0  0  0  0  0  0  0  0
    8.1413   -3.7317   -4.3742 C   0  0  0  0  0  0  0  0  0  0  0  0
    8.0768   -2.4168   -5.1178 C   0  0  0  0  0  0  0  0  0  0  0  0
    9.0857   -1.5071   -5.4171 C   0  0  0  0  0  0  0  0  0  0  0  0
    8.7893   -0.3854   -6.2049 C   0  0  0  0  0  0  0  0  0  0  0  0
    7.4941   -0.2030   -6.6983 C   0  0  0  0  0  0  0  0  0  0  0  0
    6.4672   -1.1128   -6.4119 C   0  0  0  0  0  0  0  0  0  0  0  0
    6.7712   -2.2107   -5.6007 C   0  0  0  0  0  0  0  0  0  0  0  0
    3.5594   -2.8877   -2.4901 C   0  0  0  0  0  0  0  0  0  0  0  0
    3.2309   -2.1083   -1.3818 C   0  0  0  0  0  0  0  0  0  0  0  0
    3.7423    1.7301   -0.9329 H   0  0  0  0  0  0  0  0  0  0  0  0
    3.4294    1.9437    1.7957 H   0  0  0  0  0  0  0  0  0  0  0  0
    2.5094    4.0241   -0.3557 H   0  0  0  0  0  0  0  0  0  0  0  0
    2.9830    4.3959    1.3810 H   0  0  0  0  0  0  0  0  0  0  0  0
    0.6854    2.4704    0.4372 H   0  0  0  0  0  0  0  0  0  0  0  0
    1.1223    2.8200    2.1904 H   0  0  0  0  0  0  0  0  0  0  0  0
    3.2159    0.9721   -2.8613 H   0  0  0  0  0  0  0  0  0  0  0  0
    3.7985   -0.4085   -4.8373 H   0  0  0  0  0  0  0  0  0  0  0  0
    6.4364   -5.1623   -4.3306 H   0  0  0  0  0  0  0  0  0  0  0  0
    6.3264   -3.8328   -3.1469 H   0  0  0  0  0  0  0  0  0  0  0  0
    8.6517   -4.4923   -4.9908 H   0  0  0  0  0  0  0  0  0  0  0  0
    8.6856   -3.6703   -3.4196 H   0  0  0  0  0  0  0  0  0  0  0  0
   10.1009   -1.6685   -5.0441 H   0  0  0  0  0  0  0  0  0  0  0  0
    9.5727    0.3381   -6.4423 H   0  0  0  0  0  0  0  0  0  0  0  0
    7.2715    0.6625   -7.3280 H   0  0  0  0  0  0  0  0  0  0  0  0
    5.4677   -0.9859   -6.8246 H   0  0  0  0  0  0  0  0  0  0  0  0
    3.6127   -3.9753   -2.4198 H   0  0  0  0  0  0  0  0  0  0  0  0
    3.0254   -2.5646   -0.4117 H   0  0  0  0  0  0  0  0  0  0  0  0
  1  2  2  0
  2  3  1  0
  2  7  1  0
  3  4  1  0
  3 25  1  0
  4  5  1  0
  4  6  1  0
  4 26  1  1
  5  6  1  0
  5 27  1  0
  5 28  1  0
  6 29  1  0
  6 30  1  0
  7  8  2  0
  7 24  1  0
  8  9  1  0
  8 31  1  0
  9 10  2  0
  9 32  1  0
 11 10  1  1
 10 23  1  0
 11 12  2  0
 11 13  2  0
 11 14  1  0
 14 15  1  0
 14 22  1  0
 15 16  1  0
 15 33  1  0
 15 34  1  0
 16 17  1  0
 16 35  1  0
 16 36  1  0
 17 18  1  0
 17 22  2  0
 18 19  2  0
 18 37  1  0
 19 20  1  0
 19 38  1  0
 20 21  2  0
 20 39  1  0
 21 22  1  0
 21 40  1  0
 23 24  2  0
 23 41  1  0
 24 42  1  0
M  END

