
     RDKit          3D

 60 63  0  0  0  0  0  0  0  0999 V2000
    9.9949   -6.5197    8.6989 C   0  0  0  0  0  0  0  0  0  0  0  0
   10.3324   -5.7539    7.4100 C   0  0  0  0  0  0  0  0  0  0  0  0
    9.8581   -4.3171    7.4244 C   0  0  0  0  0  0  0  0  0  0  0  0
   10.6498   -3.2920    7.9657 C   0  0  0  0  0  0  0  0  0  0  0  0
   10.2160   -1.9683    8.0209 C   0  0  0  0  0  0  0  0  0  0  0  0
    8.9432   -1.6228    7.5248 C   0  0  0  0  0  0  0  0  0  0  0  0
    8.4734   -0.2829    7.5417 N   0  0  0  0  0  0  0  0  0  0  0  0
    7.2278    0.0975    6.8680 C   0  0  0  0  0  0  0  0  0  0  0  0
    7.2268    1.6397    6.8958 C   0  0  2  0  0  0  0  0  0  0  0  0
    7.8157    2.3093    5.6422 C   0  0  0  0  0  0  0  0  0  0  0  0
    7.2708    3.2796    5.1463 O   0  0  0  0  0  0  0  0  0  0  0  0
    8.9795    1.7510    5.1725 N   0  0  0  0  0  0  0  0  0  0  0  0
    9.7719    2.1504    4.0727 C   0  0  0  0  0  0  0  0  0  0  0  0
    9.4674    3.2404    3.2478 C   0  0  0  0  0  0  0  0  0  0  0  0
   10.3094    3.5582    2.1743 C   0  0  0  0  0  0  0  0  0  0  0  0
   11.4569    2.8091    1.8988 C   0  0  0  0  0  0  0  0  0  0  0  0
   12.3139    3.0376    0.8649 O   0  0  0  0  0  0  0  0  0  0  0  0
   12.0460    4.1002   -0.0232 C   0  0  0  0  0  0  0  0  0  0  0  0
   11.7696    1.7141    2.7411 C   0  0  0  0  0  0  0  0  0  0  0  0
   12.8449    0.9114    2.4814 O   0  0  0  0  0  0  0  0  0  0  0  0
   14.1455    1.4681    2.6827 C   0  0  0  0  0  0  0  0  0  0  0  0
   15.1503    0.6745    1.8904 C   0  0  0  0  0  0  0  0  0  0  0  0
   14.9052    0.3328    0.5535 C   0  0  0  0  0  0  0  0  0  0  0  0
   15.8782   -0.3742   -0.1506 C   0  0  0  0  0  0  0  0  0  0  0  0
   17.0677   -0.7117    0.5064 C   0  0  0  0  0  0  0  0  0  0  0  0
   17.3134   -0.3975    1.7792 N   0  0  0  0  0  0  0  0  0  0  0  0
   16.3715    0.2723    2.4477 C   0  0  0  0  0  0  0  0  0  0  0  0
   10.9321    1.3992    3.8063 C   0  0  0  0  0  0  0  0  0  0  0  0
    8.0430    1.9510    8.1644 C   0  0  0  0  0  0  0  0  0  0  0  0
    8.9563    0.7442    8.3557 C   0  0  0  0  0  0  0  0  0  0  0  0
    9.9189    0.6933    9.0890 O   0  0  0  0  0  0  0  0  0  0  0  0
    8.1379   -2.6406    6.9818 C   0  0  0  0  0  0  0  0  0  0  0  0
    8.5950   -3.9592    6.9355 C   0  0  0  0  0  0  0  0  0  0  0  0
   10.3593   -7.5586    8.6495 H   0  0  0  0  0  0  0  0  0  0  0  0
    8.9068   -6.5492    8.8705 H   0  0  0  0  0  0  0  0  0  0  0  0
   10.4548   -6.0405    9.5781 H   0  0  0  0  0  0  0  0  0  0  0  0
    9.8846   -6.2772    6.5483 H   0  0  0  0  0  0  0  0  0  0  0  0
   11.4239   -5.7752    7.2509 H   0  0  0  0  0  0  0  0  0  0  0  0
   11.6447   -3.5308    8.3536 H   0  0  0  0  0  0  0  0  0  0  0  0
   10.8493   -1.1991    8.4553 H   0  0  0  0  0  0  0  0  0  0  0  0
    6.3505   -0.3047    7.4070 H   0  0  0  0  0  0  0  0  0  0  0  0
    7.1986   -0.3068    5.8448 H   0  0  0  0  0  0  0  0  0  0  0  0
    6.2052    2.0337    6.9571 H   0  0  0  0  0  0  0  0  0  0  0  0
    9.3336    0.9466    5.6801 H   0  0  0  0  0  0  0  0  0  0  0  0
    8.5761    3.8304    3.4447 H   0  0  0  0  0  0  0  0  0  0  0  0
   10.0432    4.4066    1.5432 H   0  0  0  0  0  0  0  0  0  0  0  0
   12.8499    4.0934   -0.7713 H   0  0  0  0  0  0  0  0  0  0  0  0
   12.0450    5.0772    0.4929 H   0  0  0  0  0  0  0  0  0  0  0  0
   11.0766    3.9692   -0.5367 H   0  0  0  0  0  0  0  0  0  0  0  0
   14.3988    1.4496    3.7588 H   0  0  0  0  0  0  0  0  0  0  0  0
   14.1557    2.5204    2.3514 H   0  0  0  0  0  0  0  0  0  0  0  0
   13.9579    0.6193    0.0911 H   0  0  0  0  0  0  0  0  0  0  0  0
   15.7234   -0.6621   -1.1934 H   0  0  0  0  0  0  0  0  0  0  0  0
   17.8529   -1.2652   -0.0230 H   0  0  0  0  0  0  0  0  0  0  0  0
   16.5930    0.5072    3.4973 H   0  0  0  0  0  0  0  0  0  0  0  0
   11.2035    0.5387    4.4233 H   0  0  0  0  0  0  0  0  0  0  0  0
    7.3925    2.0242    9.0529 H   0  0  0  0  0  0  0  0  0  0  0  0
    8.6339    2.8767    8.1208 H   0  0  0  0  0  0  0  0  0  0  0  0
    7.1445   -2.4191    6.5916 H   0  0  0  0  0  0  0  0  0  0  0  0
    7.9459   -4.7263    6.5028 H   0  0  0  0  0  0  0  0  0  0  0  0
  1  2  1  0
  1 34  1  0
  1 35  1  0
  1 36  1  0
  2  3  1  0
  2 37  1  0
  2 38  1  0
  3  4  2  0
  3 33  1  0
  4  5  1  0
  4 39  1  0
  5  6  2  0
  5 40  1  0
  6  7  1  0
  6 32  1  0
  7  8  1  0
  7 30  1  0
  8  9  1  0
  8 41  1  0
  8 42  1  0
  9 10  1  0
  9 29  1  0
  9 43  1  1
 10 11  2  0
 10 12  1  0
 12 13  1  0
 12 44  1  0
 13 14  2  0
 13 28  1  0
 14 15  1  0
 14 45  1  0
 15 16  2  0
 15 46  1  0
 16 17  1  0
 16 19  1  0
 17 18  1  0
 18 47  1  0
 18 48  1  0
 18 49  1  0
 19 20  1  0
 19 28  2  0
 20 21  1  0
 21 22  1  0
 21 50  1  0
 21 51  1  0
 22 23  2  0
 22 27  1  0
 23 24  1  0
 23 52  1  0
 24 25  2  0
 24 53  1  0
 25 26  1  0
 25 54  1  0
 26 27  2  0
 27 55  1  0
 28 56  1  0
 29 30  1  0
 29 57  1  0
 29 58  1  0
 30 31  2  0
 32 33  2  0
 32 59  1  0
 33 60  1  0
M  END

