
     RDKit          3D

 41 42  0  0  0  0  0  0  0  0999 V2000
    7.9781   -1.8881   -1.7010 C   0  0  0  0  0  0  0  0  0  0  0  0
    9.0222   -0.9712   -1.4705 O   0  0  0  0  0  0  0  0  0  0  0  0
    8.9609   -0.1537   -0.3830 C   0  0  0  0  0  0  0  0  0  0  0  0
    7.9261   -0.1618    0.5575 C   0  0  0  0  0  0  0  0  0  0  0  0
    7.8855    0.7281    1.6463 C   0  0  0  0  0  0  0  0  0  0  0  0
    6.7126    0.7101    2.5905 C   0  0  0  0  0  0  0  0  0  0  0  0
    8.9519    1.6336    1.7967 C   0  0  0  0  0  0  0  0  0  0  0  0
    8.9963    2.5892    2.8488 N   0  0  0  0  0  0  0  0  0  0  0  0
    9.0100    2.3019    4.1911 C   0  0  0  0  0  0  0  0  0  0  0  0
    8.8673    1.1841    4.6556 O   0  0  0  0  0  0  0  0  0  0  0  0
    9.1873    3.5265    5.0982 C   0  0  0  0  0  0  0  0  0  0  0  0
   10.3847    4.4328    4.7851 C   0  0  2  0  0  0  0  0  0  0  0  0
   11.3046    3.8215    4.7921 H   0  0  0  0  0  0  0  0  0  0  0  0
   10.5211    5.6364    5.7444 C   0  0  0  0  0  0  0  0  0  0  0  0
    9.9003    6.7944    4.9501 C   0  0  0  0  0  0  0  0  0  0  0  0
   10.3010    6.4305    3.5224 C   0  0  0  0  0  0  0  0  0  0  0  0
   10.2419    5.0073    3.4701 O   0  0  0  0  0  0  0  0  0  0  0  0
    9.9961    1.6431    0.8574 C   0  0  0  0  0  0  0  0  0  0  0  0
   10.0178    0.7751   -0.2299 C   0  0  0  0  0  0  0  0  0  0  0  0
   11.0312    0.8815   -1.1412 O   0  0  0  0  0  0  0  0  0  0  0  0
   11.9162   -0.2213   -1.2607 C   0  0  0  0  0  0  0  0  0  0  0  0
    8.2313   -2.4255   -2.6251 H   0  0  0  0  0  0  0  0  0  0  0  0
    7.0070   -1.3789   -1.8389 H   0  0  0  0  0  0  0  0  0  0  0  0
    7.8796   -2.6191   -0.8778 H   0  0  0  0  0  0  0  0  0  0  0  0
    7.0972   -0.8607    0.4406 H   0  0  0  0  0  0  0  0  0  0  0  0
    5.8711    0.1412    2.1682 H   0  0  0  0  0  0  0  0  0  0  0  0
    6.3650    1.7344    2.8031 H   0  0  0  0  0  0  0  0  0  0  0  0
    6.9979    0.2701    3.5586 H   0  0  0  0  0  0  0  0  0  0  0  0
    9.3191    3.5273    2.6098 H   0  0  0  0  0  0  0  0  0  0  0  0
    9.2920    3.1252    6.1160 H   0  0  0  0  0  0  0  0  0  0  0  0
    8.2624    4.1294    5.0678 H   0  0  0  0  0  0  0  0  0  0  0  0
   11.5848    5.8408    5.9452 H   0  0  0  0  0  0  0  0  0  0  0  0
   10.0301    5.4576    6.7121 H   0  0  0  0  0  0  0  0  0  0  0  0
   10.2687    7.7830    5.2621 H   0  0  0  0  0  0  0  0  0  0  0  0
    8.8027    6.7953    5.0508 H   0  0  0  0  0  0  0  0  0  0  0  0
   11.3284    6.7779    3.2957 H   0  0  0  0  0  0  0  0  0  0  0  0
    9.6274    6.8354    2.7512 H   0  0  0  0  0  0  0  0  0  0  0  0
   10.8253    2.3455    0.9660 H   0  0  0  0  0  0  0  0  0  0  0  0
   12.6896    0.0724   -1.9849 H   0  0  0  0  0  0  0  0  0  0  0  0
   11.4019   -1.1237   -1.6272 H   0  0  0  0  0  0  0  0  0  0  0  0
   12.4023   -0.4497   -0.2941 H   0  0  0  0  0  0  0  0  0  0  0  0
  1  2  1  0
  1 22  1  0
  1 23  1  0
  1 24  1  0
  2  3  1  0
  3  4  2  0
  3 19  1  0
  4  5  1  0
  4 25  1  0
  5  6  1  0
  5  7  2  0
  6 26  1  0
  6 27  1  0
  6 28  1  0
  7  8  1  0
  7 18  1  0
  8  9  1  0
  8 29  1  0
  9 10  2  0
  9 11  1  0
 11 12  1  0
 11 30  1  0
 11 31  1  0
 12 13  1  6
 12 14  1  0
 12 17  1  0
 14 15  1  0
 14 32  1  0
 14 33  1  0
 15 16  1  0
 15 34  1  0
 15 35  1  0
 16 17  1  0
 16 36  1  0
 16 37  1  0
 18 19  2  0
 18 38  1  0
 19 20  1  0
 20 21  1  0
 21 39  1  0
 21 40  1  0
 21 41  1  0
M  END

