
     RDKit          3D

 99109  0  0  0  0  0  0  0  0999 V2000
    4.1585    0.9476    3.0724 C   0  0  0  0  0  0  0  0  0  0  0  0
    4.0109    0.5384    1.6062 C   0  0  0  0  0  0  0  0  0  0  0  0
    4.5720    1.5741    0.6252 C   0  0  0  0  0  0  0  0  0  0  0  0
    4.4189    1.1536   -0.8388 C   0  0  0  0  0  0  0  0  0  0  0  0
    4.9607    2.1447   -1.9089 C   0  0  2  0  0  0  0  0  0  0  0  0
    4.7070    1.5280   -3.3148 C   0  0  0  0  0  0  0  0  0  0  0  0
    5.1712    2.3513   -4.5189 C   0  0  0  0  0  0  0  0  0  0  0  0
    4.8802    1.6664   -5.8591 C   0  0  0  0  0  0  0  0  0  0  0  0
    5.3403    2.4796   -7.0698 C   0  0  0  0  0  0  0  0  0  0  0  0
    6.4388    2.4708   -1.6876 C   0  0  0  0  0  0  0  0  0  0  0  0
    7.5256    1.6084   -1.6908 C   0  0  0  0  0  0  0  0  0  0  0  0
    8.8289    2.1164   -1.4615 C   0  0  0  0  0  0  0  0  0  0  0  0
    9.9529    1.2405   -1.4611 C   0  0  0  0  0  0  0  0  0  0  0  0
   10.9117    0.4827   -1.4613 C   0  0  0  0  0  0  0  0  0  0  0  0
   12.0080   -0.4252   -1.4671 C   0  0  0  0  0  0  0  0  0  0  0  0
   11.7700   -1.7963   -1.7111 C   0  0  0  0  0  0  0  0  0  0  0  0
   12.8067   -2.7187   -1.7257 C   0  0  0  0  0  0  0  0  0  0  0  0
   14.1377   -2.3186   -1.4968 C   0  0  0  0  0  0  0  0  0  0  0  0
   15.2302   -3.2514   -1.5057 C   0  0  0  0  0  0  0  0  0  0  0  0
   16.5135   -2.8437   -1.2813 C   0  0  0  0  0  0  0  0  0  0  0  0
   16.8234   -1.4625   -1.0267 C   0  0  0  0  0  0  0  0  0  0  0  0
   18.1383   -1.0190   -0.7926 C   0  0  0  0  0  0  0  0  0  0  0  0
   18.4054    0.3292   -0.5485 C   0  0  0  0  0  0  0  0  0  0  0  0
   17.3699    1.2646   -0.5322 C   0  0  0  0  0  0  0  0  0  0  0  0
   16.0386    0.8687   -0.7609 C   0  0  0  0  0  0  0  0  0  0  0  0
   14.9452    1.8013   -0.7522 C   0  0  0  0  0  0  0  0  0  0  0  0
   13.6610    1.3959   -0.9763 C   0  0  0  0  0  0  0  0  0  0  0  0
   13.3434    0.0182   -1.2312 C   0  0  0  0  0  0  0  0  0  0  0  0
   14.4088   -0.9360   -1.2470 C   0  0  0  0  0  0  0  0  0  0  0  0
   15.7547   -0.5103   -1.0119 C   0  0  0  0  0  0  0  0  0  0  0  0
    8.9970    3.5038   -1.2325 C   0  0  0  0  0  0  0  0  0  0  0  0
    7.9051    4.3686   -1.2296 C   0  0  0  0  0  0  0  0  0  0  0  0
    6.6223    3.8535   -1.4573 C   0  0  0  0  0  0  0  0  0  0  0  0
    5.3156    4.5111   -1.5099 C   0  0  0  0  0  0  0  0  0  0  0  0
    4.9525    5.8547   -1.3490 C   0  0  0  0  0  0  0  0  0  0  0  0
    3.6109    6.2148   -1.4502 C   0  0  0  0  0  0  0  0  0  0  0  0
    2.6125    5.2451   -1.7126 C   0  0  0  0  0  0  0  0  0  0  0  0
    1.2442    5.6301   -1.8123 C   0  0  0  0  0  0  0  0  0  0  0  0
    0.0721    5.9662   -1.8963 C   0  0  0  0  0  0  0  0  0  0  0  0
   -1.2840    6.3892   -1.9869 C   0  0  0  0  0  0  0  0  0  0  0  0
   -1.5971    7.7545   -1.8023 C   0  0  0  0  0  0  0  0  0  0  0  0
   -2.9044    8.2133   -1.8803 C   0  0  0  0  0  0  0  0  0  0  0  0
   -3.9691    7.3305   -2.1473 C   0  0  0  0  0  0  0  0  0  0  0  0
   -5.3316    7.7775   -2.2333 C   0  0  0  0  0  0  0  0  0  0  0  0
   -6.3496    6.9058   -2.4931 C   0  0  0  0  0  0  0  0  0  0  0  0
   -6.0983    5.5037   -2.6916 C   0  0  0  0  0  0  0  0  0  0  0  0
   -7.1313    4.5866   -2.9607 C   0  0  0  0  0  0  0  0  0  0  0  0
   -6.8536    3.2316   -3.1485 C   0  0  0  0  0  0  0  0  0  0  0  0
   -5.5422    2.7603   -3.0725 C   0  0  0  0  0  0  0  0  0  0  0  0
   -4.4758    3.6394   -2.8056 C   0  0  0  0  0  0  0  0  0  0  0  0
   -3.1125    3.1929   -2.7194 C   0  0  0  0  0  0  0  0  0  0  0  0
   -2.0930    4.0628   -2.4592 C   0  0  0  0  0  0  0  0  0  0  0  0
   -2.3358    5.4646   -2.2597 C   0  0  0  0  0  0  0  0  0  0  0  0
   -3.6817    5.9419   -2.3391 C   0  0  0  0  0  0  0  0  0  0  0  0
   -4.7500    5.0295   -2.6117 C   0  0  0  0  0  0  0  0  0  0  0  0
    2.9936    3.8894   -1.8735 C   0  0  0  0  0  0  0  0  0  0  0  0
    4.3303    3.5319   -1.7725 C   0  0  0  0  0  0  0  0  0  0  0  0
    3.7461    0.1829    3.7499 H   0  0  0  0  0  0  0  0  0  0  0  0
    3.6319    1.8944    3.2788 H   0  0  0  0  0  0  0  0  0  0  0  0
    5.2177    1.0953    3.3422 H   0  0  0  0  0  0  0  0  0  0  0  0
    2.9436    0.3614    1.3789 H   0  0  0  0  0  0  0  0  0  0  0  0
    4.5162   -0.4311    1.4417 H   0  0  0  0  0  0  0  0  0  0  0  0
    5.6382    1.7472    0.8530 H   0  0  0  0  0  0  0  0  0  0  0  0
    4.0640    2.5403    0.7900 H   0  0  0  0  0  0  0  0  0  0  0  0
    3.3507    0.9728   -1.0553 H   0  0  0  0  0  0  0  0  0  0  0  0
    4.9217    0.1819   -0.9925 H   0  0  0  0  0  0  0  0  0  0  0  0
    3.6241    1.3288   -3.4062 H   0  0  0  0  0  0  0  0  0  0  0  0
    5.1946    0.5370   -3.3423 H   0  0  0  0  0  0  0  0  0  0  0  0
    6.2549    2.5466   -4.4406 H   0  0  0  0  0  0  0  0  0  0  0  0
    4.6812    3.3405   -4.5047 H   0  0  0  0  0  0  0  0  0  0  0  0
    3.7956    1.4679   -5.9394 H   0  0  0  0  0  0  0  0  0  0  0  0
    5.3675    0.6742   -5.8751 H   0  0  0  0  0  0  0  0  0  0  0  0
    4.8426    3.4632   -7.1042 H   0  0  0  0  0  0  0  0  0  0  0  0
    5.1166    1.9603   -8.0154 H   0  0  0  0  0  0  0  0  0  0  0  0
    6.4275    2.6627   -7.0395 H   0  0  0  0  0  0  0  0  0  0  0  0
    7.3988    0.5378   -1.8671 H   0  0  0  0  0  0  0  0  0  0  0  0
   10.7442   -2.1242   -1.8904 H   0  0  0  0  0  0  0  0  0  0  0  0
   12.5931   -3.7736   -1.9172 H   0  0  0  0  0  0  0  0  0  0  0  0
   15.0107   -4.3051   -1.6978 H   0  0  0  0  0  0  0  0  0  0  0  0
   17.3331   -3.5673   -1.2916 H   0  0  0  0  0  0  0  0  0  0  0  0
   18.9542   -1.7467   -0.8039 H   0  0  0  0  0  0  0  0  0  0  0  0
   19.4333    0.6545   -0.3688 H   0  0  0  0  0  0  0  0  0  0  0  0
   17.5853    2.3192   -0.3405 H   0  0  0  0  0  0  0  0  0  0  0  0
   15.1624    2.8556   -0.5603 H   0  0  0  0  0  0  0  0  0  0  0  0
   12.8444    2.1198   -0.9653 H   0  0  0  0  0  0  0  0  0  0  0  0
   10.0024    3.8911   -1.0564 H   0  0  0  0  0  0  0  0  0  0  0  0
    8.0561    5.4361   -1.0506 H   0  0  0  0  0  0  0  0  0  0  0  0
    5.7076    6.6183   -1.1460 H   0  0  0  0  0  0  0  0  0  0  0  0
    3.3120    7.2576   -1.3271 H   0  0  0  0  0  0  0  0  0  0  0  0
   -0.7842    8.4529   -1.5942 H   0  0  0  0  0  0  0  0  0  0  0  0
   -3.1174    9.2754   -1.7329 H   0  0  0  0  0  0  0  0  0  0  0  0
   -5.5389    8.8407   -2.0848 H   0  0  0  0  0  0  0  0  0  0  0  0
   -7.3810    7.2633   -2.5551 H   0  0  0  0  0  0  0  0  0  0  0  0
   -8.1609    4.9492   -3.0216 H   0  0  0  0  0  0  0  0  0  0  0  0
   -7.6694    2.5346   -3.3567 H   0  0  0  0  0  0  0  0  0  0  0  0
   -5.3310    1.6979   -3.2205 H   0  0  0  0  0  0  0  0  0  0  0  0
   -2.9030    2.1301   -2.8678 H   0  0  0  0  0  0  0  0  0  0  0  0
   -1.0641    3.7041   -2.3977 H   0  0  0  0  0  0  0  0  0  0  0  0
    2.2224    3.1425   -2.0758 H   0  0  0  0  0  0  0  0  0  0  0  0
  1  2  1  0
  1 58  1  0
  1 59  1  0
  1 60  1  0
  2  3  1  0
  2 61  1  0
  2 62  1  0
  3  4  1  0
  3 63  1  0
  3 64  1  0
  5  4  1  1
  4 65  1  0
  4 66  1  0
  5  6  1  0
  5 10  1  0
  5 57  1  0
  6  7  1  0
  6 67  1  0
  6 68  1  0
  7  8  1  0
  7 69  1  0
  7 70  1  0
  8  9  1  0
  8 71  1  0
  8 72  1  0
  9 73  1  0
  9 74  1  0
  9 75  1  0
 10 11  2  0
 10 33  1  0
 11 12  1  0
 11 76  1  0
 12 13  1  0
 12 31  2  0
 13 14  3  0
 14 15  1  0
 15 16  2  0
 15 28  1  0
 16 17  1  0
 16 77  1  0
 17 18  2  0
 17 78  1  0
 18 19  1  0
 18 29  1  0
 19 20  2  0
 19 79  1  0
 20 21  1  0
 20 80  1  0
 21 22  2  0
 21 30  1  0
 22 23  1  0
 22 81  1  0
 23 24  2  0
 23 82  1  0
 24 25  1  0
 24 83  1  0
 25 26  2  0
 25 30  1  0
 26 27  1  0
 26 84  1  0
 27 28  2  0
 27 85  1  0
 28 29  1  0
 29 30  2  0
 31 32  1  0
 31 86  1  0
 32 33  2  0
 32 87  1  0
 33 34  1  0
 34 35  2  0
 34 57  1  0
 35 36  1  0
 35 88  1  0
 36 37  2  0
 36 89  1  0
 37 38  1  0
 37 56  1  0
 38 39  3  0
 39 40  1  0
 40 41  2  0
 40 53  1  0
 41 42  1  0
 41 90  1  0
 42 43  2  0
 42 91  1  0
 43 44  1  0
 43 54  1  0
 44 45  2  0
 44 92  1  0
 45 46  1  0
 45 93  1  0
 46 47  2  0
 46 55  1  0
 47 48  1  0
 47 94  1  0
 48 49  2  0
 48 95  1  0
 49 50  1  0
 49 96  1  0
 50 51  2  0
 50 55  1  0
 51 52  1  0
 51 97  1  0
 52 53  2  0
 52 98  1  0
 53 54  1  0
 54 55  2  0
 56 57  2  0
 56 99  1  0
M  END

