
     RDKit          3D

 49 50  0  0  0  0  0  0  0  0999 V2000
    2.7342   -1.5705   -1.7060 C   0  0  0  0  0  0  0  0  0  0  0  0
    4.0304   -2.3865   -1.5537 C   0  0  1  0  0  0  0  0  0  0  0  0
    4.4897   -2.3983   -0.0825 C   0  0  0  0  0  0  0  0  0  0  0  0
    3.7916   -3.8250   -2.0386 C   0  0  0  0  0  0  0  0  0  0  0  0
    5.0836   -1.8270   -2.4286 N   0  0  0  0  0  0  0  0  0  0  0  0
    5.6036   -0.5555   -2.3115 C   0  0  0  0  0  0  0  0  0  0  0  0
    5.1690    0.2886   -1.5355 O   0  0  0  0  0  0  0  0  0  0  0  0
    6.6688   -0.3022   -3.1566 N   0  0  0  0  0  0  0  0  0  0  0  0
    7.3037    0.9989   -3.2195 C   0  0  0  0  0  0  0  0  0  0  0  0
    6.9483    1.8364   -4.4690 C   0  0  1  0  0  0  0  0  0  0  0  0
    5.4352    2.0919   -4.6320 C   0  0  0  0  0  0  0  0  0  0  0  0
    4.9147    3.1534   -3.6461 C   0  0  0  0  0  0  0  0  0  0  0  0
    5.6393    4.4267   -3.7143 N   0  0  0  0  0  0  0  0  0  0  0  0
    5.3228    5.2716   -4.8571 C   0  0  1  0  0  0  0  0  0  0  0  0
    5.6263    4.8250   -5.8320 H   0  0  0  0  0  0  0  0  0  0  0  0
    3.8373    5.6568   -4.9587 C   0  0  0  0  0  0  0  0  0  0  0  0
    3.8808    6.9337   -5.8038 C   0  0  0  0  0  0  0  0  0  0  0  0
    5.1649    7.5139   -5.5951 O   0  0  0  0  0  0  0  0  0  0  0  0
    5.9548    6.6736   -4.7732 C   0  0  0  0  0  0  0  0  0  0  0  0
    7.0671    4.1981   -3.4859 C   0  0  0  0  0  0  0  0  0  0  0  0
    7.7038    3.1833   -4.4567 C   0  0  0  0  0  0  0  0  0  0  0  0
    1.9350   -2.0074   -1.0863 H   0  0  0  0  0  0  0  0  0  0  0  0
    2.3986   -1.5734   -2.7553 H   0  0  0  0  0  0  0  0  0  0  0  0
    2.8965   -0.5308   -1.3941 H   0  0  0  0  0  0  0  0  0  0  0  0
    3.7110   -2.8338    0.5640 H   0  0  0  0  0  0  0  0  0  0  0  0
    4.6989   -1.3752    0.2582 H   0  0  0  0  0  0  0  0  0  0  0  0
    5.4059   -3.0004    0.0337 H   0  0  0  0  0  0  0  0  0  0  0  0
    3.0077   -4.3069   -1.4357 H   0  0  0  0  0  0  0  0  0  0  0  0
    4.7059   -4.4359   -1.9444 H   0  0  0  0  0  0  0  0  0  0  0  0
    3.4697   -3.8396   -3.0924 H   0  0  0  0  0  0  0  0  0  0  0  0
    5.6583   -2.5114   -2.9066 H   0  0  0  0  0  0  0  0  0  0  0  0
    6.8722   -0.9631   -3.8972 H   0  0  0  0  0  0  0  0  0  0  0  0
    8.4007    0.8696   -3.1879 H   0  0  0  0  0  0  0  0  0  0  0  0
    7.0146    1.5200   -2.2969 H   0  0  0  0  0  0  0  0  0  0  0  0
    7.2951    1.2574   -5.3463 H   0  0  0  0  0  0  0  0  0  0  0  0
    4.8714    1.1540   -4.5011 H   0  0  0  0  0  0  0  0  0  0  0  0
    5.2440    2.4226   -5.6682 H   0  0  0  0  0  0  0  0  0  0  0  0
    4.9987    2.7618   -2.6185 H   0  0  0  0  0  0  0  0  0  0  0  0
    3.8427    3.3325   -3.8137 H   0  0  0  0  0  0  0  0  0  0  0  0
    3.4627    5.8619   -3.9423 H   0  0  0  0  0  0  0  0  0  0  0  0
    3.2027    4.8802   -5.4101 H   0  0  0  0  0  0  0  0  0  0  0  0
    3.0930    7.6535   -5.5193 H   0  0  0  0  0  0  0  0  0  0  0  0
    3.7534    6.7129   -6.8810 H   0  0  0  0  0  0  0  0  0  0  0  0
    5.9420    7.0093   -3.7159 H   0  0  0  0  0  0  0  0  0  0  0  0
    6.9943    6.7152   -5.1371 H   0  0  0  0  0  0  0  0  0  0  0  0
    7.1825    3.8386   -2.4481 H   0  0  0  0  0  0  0  0  0  0  0  0
    7.6094    5.1545   -3.5329 H   0  0  0  0  0  0  0  0  0  0  0  0
    8.7640    3.0288   -4.1881 H   0  0  0  0  0  0  0  0  0  0  0  0
    7.7050    3.6044   -5.4767 H   0  0  0  0  0  0  0  0  0  0  0  0
  1  2  1  0
  1 22  1  0
  1 23  1  0
  1 24  1  0
  2  3  1  0
  2  4  1  0
  2  5  1  6
  3 25  1  0
  3 26  1  0
  3 27  1  0
  4 28  1  0
  4 29  1  0
  4 30  1  0
  5  6  1  0
  5 31  1  0
  6  7  2  0
  6  8  1  0
  8  9  1  0
  8 32  1  0
  9 10  1  0
  9 33  1  0
  9 34  1  0
 10 11  1  0
 10 21  1  0
 10 35  1  6
 11 12  1  0
 11 36  1  0
 11 37  1  0
 12 13  1  0
 12 38  1  0
 12 39  1  0
 13 14  1  0
 13 20  1  0
 14 15  1  6
 14 16  1  0
 14 19  1  0
 16 17  1  0
 16 40  1  0
 16 41  1  0
 17 18  1  0
 17 42  1  0
 17 43  1  0
 18 19  1  0
 19 44  1  0
 19 45  1  0
 20 21  1  0
 20 46  1  0
 20 47  1  0
 21 48  1  0
 21 49  1  0
M  END

