
     RDKit          3D

 28 29  0  0  0  0  0  0  0  0999 V2000
    1.6942   -0.8841    1.2587 C   0  0  0  0  0  0  0  0  0  0  0  0
    2.4892   -0.1567    0.1712 C   0  0  0  0  0  0  0  0  0  0  0  0
    3.2466    0.9835    0.6522 N   0  0  0  0  0  0  0  0  0  0  0  0
    4.4839    0.8996    1.2159 C   0  0  0  0  0  0  0  0  0  0  0  0
    4.9876    2.0781    1.6853 N   0  0  0  0  0  0  0  0  0  0  0  0
    6.1872    2.0663    2.2194 C   0  0  0  0  0  0  0  0  0  0  0  0
    6.7286    3.2002    2.6954 O   0  0  0  0  0  0  0  0  0  0  0  0
    5.9606    4.3901    2.6111 C   0  0  0  0  0  0  0  0  0  0  0  0
    6.7866    5.4978    3.2295 C   0  0  1  0  0  0  0  0  0  0  0  0
    6.1306    6.6736    3.0380 F   0  0  0  0  0  0  0  0  0  0  0  0
    6.9205    5.3021    4.5641 F   0  0  0  0  0  0  0  0  0  0  0  0
    6.9375    0.8777    2.3063 C   0  0  0  0  0  0  0  0  0  0  0  0
    8.5263    0.5754    2.9562 S   0  0  0  0  0  0  0  0  0  0  0  0
    8.3744   -1.1112    2.5437 C   0  0  0  0  0  0  0  0  0  0  0  0
    7.1886   -1.4345    1.9492 C   0  0  0  0  0  0  0  0  0  0  0  0
    6.3264   -0.2899    1.7968 C   0  0  0  0  0  0  0  0  0  0  0  0
    5.0944   -0.2837    1.2539 N   0  0  0  0  0  0  0  0  0  0  0  0
    1.1300   -1.7268    0.8267 H   0  0  0  0  0  0  0  0  0  0  0  0
    0.9740   -0.2088    1.7494 H   0  0  0  0  0  0  0  0  0  0  0  0
    2.3726   -1.2847    2.0271 H   0  0  0  0  0  0  0  0  0  0  0  0
    1.8117    0.2027   -0.6212 H   0  0  0  0  0  0  0  0  0  0  0  0
    3.1987   -0.8549   -0.2967 H   0  0  0  0  0  0  0  0  0  0  0  0
    2.7987    1.8880    0.7280 H   0  0  0  0  0  0  0  0  0  0  0  0
    5.0086    4.2929    3.1570 H   0  0  0  0  0  0  0  0  0  0  0  0
    5.7296    4.6390    1.5633 H   0  0  0  0  0  0  0  0  0  0  0  0
    7.7955    5.5736    2.7865 H   0  0  0  0  0  0  0  0  0  0  0  0
    9.1998   -1.7845    2.7749 H   0  0  0  0  0  0  0  0  0  0  0  0
    6.9113   -2.4364    1.6220 H   0  0  0  0  0  0  0  0  0  0  0  0
  1  2  1  0
  1 18  1  0
  1 19  1  0
  1 20  1  0
  2  3  1  0
  2 21  1  0
  2 22  1  0
  3  4  1  0
  3 23  1  0
  4  5  2  0
  4 17  1  0
  5  6  1  0
  6  7  1  0
  6 12  2  0
  7  8  1  0
  8  9  1  0
  8 24  1  0
  8 25  1  0
  9 10  1  0
  9 11  1  0
  9 26  1  6
 12 13  1  0
 12 16  1  0
 13 14  1  0
 14 15  2  0
 14 27  1  0
 15 16  1  0
 15 28  1  0
 16 17  2  0
M  END

