
     RDKit          3D

 38 39  0  0  0  0  0  0  0  0999 V2000
    6.4512   -1.0678    1.2645 C   0  0  0  0  0  0  0  0  0  0  0  0
    5.1887   -0.3962    0.7568 C   0  0  0  0  0  0  0  0  0  0  0  0
    5.4708    0.2716   -0.4574 O   0  0  0  0  0  0  0  0  0  0  0  0
    4.3605    0.9839   -0.9934 C   0  0  0  0  0  0  0  0  0  0  0  0
    4.7397    1.7328   -2.2442 C   0  0  0  0  0  0  0  0  0  0  0  0
    4.4789    3.1015   -2.3452 C   0  0  0  0  0  0  0  0  0  0  0  0
    4.7201    3.8154   -3.5235 C   0  0  0  0  0  0  0  0  0  0  0  0
    5.2414    3.1317   -4.6227 C   0  0  0  0  0  0  0  0  0  0  0  0
    5.5296    1.7674   -4.5467 C   0  0  0  0  0  0  0  0  0  0  0  0
    5.2910    1.0395   -3.3612 C   0  0  0  0  0  0  0  0  0  0  0  0
    5.5327   -0.3202   -3.2497 N   0  0  0  0  0  0  0  0  0  0  0  0
    6.2355   -1.1095   -4.2509 C   0  0  1  0  0  0  0  0  0  0  0  0
    7.7646   -0.8657   -4.2688 C   0  0  0  0  0  0  0  0  0  0  0  0
    8.4280   -1.4747   -3.0333 C   0  0  0  0  0  0  0  0  0  0  0  0
    8.1486   -2.8596   -2.9146 O   0  0  0  0  0  0  0  0  0  0  0  0
    6.7671   -3.1311   -2.8030 C   0  0  0  0  0  0  0  0  0  0  0  0
    5.9815   -2.6096   -4.0092 C   0  0  0  0  0  0  0  0  0  0  0  0
    6.2566   -1.5803    2.2195 H   0  0  0  0  0  0  0  0  0  0  0  0
    7.2465   -0.3235    1.4239 H   0  0  0  0  0  0  0  0  0  0  0  0
    6.8209   -1.8133    0.5430 H   0  0  0  0  0  0  0  0  0  0  0  0
    4.8124    0.3323    1.5043 H   0  0  0  0  0  0  0  0  0  0  0  0
    4.3794   -1.1418    0.6068 H   0  0  0  0  0  0  0  0  0  0  0  0
    3.9698    1.6926   -0.2386 H   0  0  0  0  0  0  0  0  0  0  0  0
    3.5441    0.2616   -1.2153 H   0  0  0  0  0  0  0  0  0  0  0  0
    4.0634    3.6196   -1.4754 H   0  0  0  0  0  0  0  0  0  0  0  0
    4.5051    4.8846   -3.5784 H   0  0  0  0  0  0  0  0  0  0  0  0
    5.4395    3.6647   -5.5568 H   0  0  0  0  0  0  0  0  0  0  0  0
    5.9481    1.2667   -5.4202 H   0  0  0  0  0  0  0  0  0  0  0  0
    5.6582   -0.6185   -2.2861 H   0  0  0  0  0  0  0  0  0  0  0  0
    5.8166   -0.8465   -5.2351 H   0  0  0  0  0  0  0  0  0  0  0  0
    7.9819    0.2133   -4.3200 H   0  0  0  0  0  0  0  0  0  0  0  0
    8.1938   -1.3331   -5.1719 H   0  0  0  0  0  0  0  0  0  0  0  0
    8.0929   -0.9377   -2.1212 H   0  0  0  0  0  0  0  0  0  0  0  0
    9.5233   -1.3809   -3.0866 H   0  0  0  0  0  0  0  0  0  0  0  0
    6.3662   -2.6948   -1.8617 H   0  0  0  0  0  0  0  0  0  0  0  0
    6.6654   -4.2240   -2.7160 H   0  0  0  0  0  0  0  0  0  0  0  0
    4.9030   -2.7913   -3.8718 H   0  0  0  0  0  0  0  0  0  0  0  0
    6.3054   -3.1691   -4.9021 H   0  0  0  0  0  0  0  0  0  0  0  0
  1  2  1  0
  1 18  1  0
  1 19  1  0
  1 20  1  0
  2  3  1  0
  2 21  1  0
  2 22  1  0
  3  4  1  0
  4  5  1  0
  4 23  1  0
  4 24  1  0
  5  6  2  0
  5 10  1  0
  6  7  1  0
  6 25  1  0
  7  8  2  0
  7 26  1  0
  8  9  1  0
  8 27  1  0
  9 10  2  0
  9 28  1  0
 10 11  1  0
 11 12  1  0
 11 29  1  0
 12 13  1  0
 12 17  1  0
 12 30  1  6
 13 14  1  0
 13 31  1  0
 13 32  1  0
 14 15  1  0
 14 33  1  0
 14 34  1  0
 15 16  1  0
 16 17  1  0
 16 35  1  0
 16 36  1  0
 17 37  1  0
 17 38  1  0
M  END

