
     RDKit          3D

 44 46  0  0  0  0  0  0  0  0999 V2000
   -1.4834    0.1962   -5.3548 C   0  0  0  0  0  0  0  0  0  0  0  0
   -0.2923   -0.0160   -4.6336 O   0  0  0  0  0  0  0  0  0  0  0  0
    0.6726   -0.8130   -5.1647 C   0  0  0  0  0  0  0  0  0  0  0  0
    0.5786   -1.4546   -6.4074 C   0  0  0  0  0  0  0  0  0  0  0  0
    1.6464   -2.2484   -6.8463 C   0  0  0  0  0  0  0  0  0  0  0  0
    2.7932   -2.4100   -6.0727 C   0  0  0  0  0  0  0  0  0  0  0  0
    2.8937   -1.7683   -4.8241 C   0  0  0  0  0  0  0  0  0  0  0  0
    4.1204   -1.9463   -3.9550 C   0  0  0  0  0  0  0  0  0  0  0  0
    4.1342   -3.2460   -3.1459 C   0  0  2  0  0  0  0  0  0  0  0  0
    5.3020   -3.3121   -2.1614 C   0  0  0  0  0  0  0  0  0  0  0  0
    5.3146   -4.5908   -1.4726 N   0  0  0  0  0  0  0  0  0  0  0  0
    5.8815   -4.6636   -0.1396 C   0  0  0  0  0  0  0  0  0  0  0  0
    7.3800   -4.9906   -0.0927 C   0  0  0  0  0  0  0  0  0  0  0  0
    8.1648   -4.0391   -0.7813 O   0  0  0  0  0  0  0  0  0  0  0  0
    4.9106   -5.7228   -2.1762 C   0  0  0  0  0  0  0  0  0  0  0  0
    5.0084   -7.0312   -1.6562 C   0  0  0  0  0  0  0  0  0  0  0  0
    4.5872   -8.1434   -2.3978 C   0  0  0  0  0  0  0  0  0  0  0  0
    4.6790   -9.4115   -1.9048 O   0  0  0  0  0  0  0  0  0  0  0  0
    4.0616   -7.9775   -3.6831 C   0  0  0  0  0  0  0  0  0  0  0  0
    3.9487   -6.6869   -4.2022 C   0  0  0  0  0  0  0  0  0  0  0  0
    4.3614   -5.5723   -3.4761 C   0  0  0  0  0  0  0  0  0  0  0  0
    4.2355   -4.3320   -4.0561 O   0  0  0  0  0  0  0  0  0  0  0  0
    1.8309   -0.9756   -4.3846 C   0  0  0  0  0  0  0  0  0  0  0  0
   -2.1082    0.8596   -4.7412 H   0  0  0  0  0  0  0  0  0  0  0  0
   -2.0323   -0.7466   -5.5327 H   0  0  0  0  0  0  0  0  0  0  0  0
   -1.2955    0.6841   -6.3288 H   0  0  0  0  0  0  0  0  0  0  0  0
   -0.3054   -1.3443   -7.0355 H   0  0  0  0  0  0  0  0  0  0  0  0
    1.5719   -2.7475   -7.8163 H   0  0  0  0  0  0  0  0  0  0  0  0
    3.6128   -3.0390   -6.4239 H   0  0  0  0  0  0  0  0  0  0  0  0
    4.1941   -1.1067   -3.2454 H   0  0  0  0  0  0  0  0  0  0  0  0
    5.0315   -1.9279   -4.5762 H   0  0  0  0  0  0  0  0  0  0  0  0
    3.1881   -3.3387   -2.5772 H   0  0  0  0  0  0  0  0  0  0  0  0
    5.2041   -2.5092   -1.4135 H   0  0  0  0  0  0  0  0  0  0  0  0
    6.2416   -3.1162   -2.7168 H   0  0  0  0  0  0  0  0  0  0  0  0
    5.3246   -5.3993    0.4677 H   0  0  0  0  0  0  0  0  0  0  0  0
    5.7307   -3.6821    0.3393 H   0  0  0  0  0  0  0  0  0  0  0  0
    7.5594   -6.0133   -0.4757 H   0  0  0  0  0  0  0  0  0  0  0  0
    7.7084   -4.9787    0.9609 H   0  0  0  0  0  0  0  0  0  0  0  0
    8.0987   -4.2255   -1.7263 H   0  0  0  0  0  0  0  0  0  0  0  0
    5.4280   -7.1962   -0.6623 H   0  0  0  0  0  0  0  0  0  0  0  0
    5.0496   -9.3832   -1.0137 H   0  0  0  0  0  0  0  0  0  0  0  0
    3.7427   -8.8527   -4.2506 H   0  0  0  0  0  0  0  0  0  0  0  0
    3.5272   -6.5171   -5.1953 H   0  0  0  0  0  0  0  0  0  0  0  0
    1.8735   -0.4549   -3.4246 H   0  0  0  0  0  0  0  0  0  0  0  0
  1  2  1  0
  1 24  1  0
  1 25  1  0
  1 26  1  0
  2  3  1  0
  3  4  2  0
  3 23  1  0
  4  5  1  0
  4 27  1  0
  5  6  2  0
  5 28  1  0
  6  7  1  0
  6 29  1  0
  7  8  1  0
  7 23  2  0
  8  9  1  0
  8 30  1  0
  8 31  1  0
  9 10  1  0
  9 22  1  0
  9 32  1  1
 10 11  1  0
 10 33  1  0
 10 34  1  0
 11 12  1  0
 11 15  1  0
 12 13  1  0
 12 35  1  0
 12 36  1  0
 13 14  1  0
 13 37  1  0
 13 38  1  0
 14 39  1  0
 15 16  2  0
 15 21  1  0
 16 17  1  0
 16 40  1  0
 17 18  1  0
 17 19  2  0
 18 41  1  0
 19 20  1  0
 19 42  1  0
 20 21  2  0
 20 43  1  0
 21 22  1  0
 23 44  1  0
M  END

