
     RDKit          3D

 51 54  0  0  0  0  0  0  0  0999 V2000
    4.0968    0.0348    3.0175 O   0  0  0  0  0  0  0  0  0  0  0  0
    4.1897   -1.0439    2.4577 C   0  0  0  0  0  0  0  0  0  0  0  0
    3.2951   -1.3694    1.2461 C   0  0  0  0  0  0  0  0  0  0  0  0
    2.3400   -2.4133    1.4971 O   0  0  0  0  0  0  0  0  0  0  0  0
    2.7192   -3.6893    1.3087 C   0  0  0  0  0  0  0  0  0  0  0  0
    3.8661   -4.0030    1.0441 O   0  0  0  0  0  0  0  0  0  0  0  0
    1.6015   -4.6561    1.4602 C   0  0  0  0  0  0  0  0  0  0  0  0
    1.8759   -6.0241    1.2915 C   0  0  0  0  0  0  0  0  0  0  0  0
    0.8599   -6.9665    1.4241 C   0  0  0  0  0  0  0  0  0  0  0  0
   -0.4518   -6.5673    1.7292 C   0  0  0  0  0  0  0  0  0  0  0  0
   -1.5746   -7.5886    1.8191 C   0  0  0  0  0  0  0  0  0  0  0  0
   -1.1464   -8.8660    2.3669 N   0  0  0  0  0  0  0  0  0  0  0  0
   -0.8737   -8.8688    3.8072 C   0  0  0  0  0  0  0  0  0  0  0  0
   -2.1451   -9.0530    4.6417 C   0  0  0  0  0  0  0  0  0  0  0  0
   -2.8477  -10.2174    4.2456 O   0  0  0  0  0  0  0  0  0  0  0  0
   -3.1993  -10.1883    2.8750 C   0  0  0  0  0  0  0  0  0  0  0  0
   -1.9524  -10.0293    1.9991 C   0  0  0  0  0  0  0  0  0  0  0  0
   -0.7170   -5.2003    1.9045 C   0  0  0  0  0  0  0  0  0  0  0  0
    0.2934   -4.2490    1.7680 C   0  0  0  0  0  0  0  0  0  0  0  0
    5.0633   -2.0429    2.7842 N   0  0  0  0  0  0  0  0  0  0  0  0
    5.9934   -2.0937    3.8435 C   0  0  0  0  0  0  0  0  0  0  0  0
    6.1999   -1.0298    4.7365 C   0  0  0  0  0  0  0  0  0  0  0  0
    7.1449   -1.1345    5.7763 C   0  0  0  0  0  0  0  0  0  0  0  0
    7.8621   -2.3104    5.8846 C   0  0  0  0  0  0  0  0  0  0  0  0
    7.6562   -3.3681    4.9956 C   0  0  0  0  0  0  0  0  0  0  0  0
    6.7340   -3.2974    3.9712 C   0  0  0  0  0  0  0  0  0  0  0  0
    8.4657   -4.4145    5.3411 O   0  0  0  0  0  0  0  0  0  0  0  0
    9.3315   -3.9186    6.3603 C   0  0  0  0  0  0  0  0  0  0  0  0
    8.8060   -2.6764    6.8102 O   0  0  0  0  0  0  0  0  0  0  0  0
    3.9072   -1.6383    0.3707 H   0  0  0  0  0  0  0  0  0  0  0  0
    2.7050   -0.4700    1.0408 H   0  0  0  0  0  0  0  0  0  0  0  0
    2.8973   -6.3281    1.0547 H   0  0  0  0  0  0  0  0  0  0  0  0
    1.0669   -8.0317    1.3038 H   0  0  0  0  0  0  0  0  0  0  0  0
   -1.9409   -7.7773    0.7938 H   0  0  0  0  0  0  0  0  0  0  0  0
   -2.4289   -7.1226    2.3562 H   0  0  0  0  0  0  0  0  0  0  0  0
   -0.3544   -7.9387    4.0876 H   0  0  0  0  0  0  0  0  0  0  0  0
   -0.1880   -9.7065    4.0280 H   0  0  0  0  0  0  0  0  0  0  0  0
   -2.8025   -8.1622    4.5502 H   0  0  0  0  0  0  0  0  0  0  0  0
   -1.8981   -9.1748    5.7080 H   0  0  0  0  0  0  0  0  0  0  0  0
   -3.9167   -9.3621    2.6801 H   0  0  0  0  0  0  0  0  0  0  0  0
   -3.7148  -11.1368    2.6557 H   0  0  0  0  0  0  0  0  0  0  0  0
   -2.2302   -9.9655    0.9343 H   0  0  0  0  0  0  0  0  0  0  0  0
   -1.3279  -10.9327    2.1241 H   0  0  0  0  0  0  0  0  0  0  0  0
   -1.7314   -4.8756    2.1538 H   0  0  0  0  0  0  0  0  0  0  0  0
    0.0779   -3.1891    1.9077 H   0  0  0  0  0  0  0  0  0  0  0  0
    5.0114   -2.8707    2.1895 H   0  0  0  0  0  0  0  0  0  0  0  0
    5.6185   -0.1199    4.6122 H   0  0  0  0  0  0  0  0  0  0  0  0
    7.3027   -0.3106    6.4740 H   0  0  0  0  0  0  0  0  0  0  0  0
    6.5807   -4.1373    3.2909 H   0  0  0  0  0  0  0  0  0  0  0  0
   10.3473   -3.7678    5.9416 H   0  0  0  0  0  0  0  0  0  0  0  0
    9.3663   -4.6349    7.1972 H   0  0  0  0  0  0  0  0  0  0  0  0
  1  2  2  0
  2  3  1  0
  2 20  1  0
  3  4  1  0
  3 30  1  0
  3 31  1  0
  4  5  1  0
  5  6  2  0
  5  7  1  0
  7  8  2  0
  7 19  1  0
  8  9  1  0
  8 32  1  0
  9 10  2  0
  9 33  1  0
 10 11  1  0
 10 18  1  0
 11 12  1  0
 11 34  1  0
 11 35  1  0
 12 13  1  0
 12 17  1  0
 13 14  1  0
 13 36  1  0
 13 37  1  0
 14 15  1  0
 14 38  1  0
 14 39  1  0
 15 16  1  0
 16 17  1  0
 16 40  1  0
 16 41  1  0
 17 42  1  0
 17 43  1  0
 18 19  2  0
 18 44  1  0
 19 45  1  0
 20 21  1  0
 20 46  1  0
 21 22  2  0
 21 26  1  0
 22 23  1  0
 22 47  1  0
 23 24  2  0
 23 48  1  0
 24 25  1  0
 24 29  1  0
 25 26  2  0
 25 27  1  0
 26 49  1  0
 27 28  1  0
 28 29  1  0
 28 50  1  0
 28 51  1  0
M  END

