
     RDKit          3D

 31 31  0  0  0  0  0  0  0  0999 V2000
    1.8265    0.3579    1.3075 O   0  0  0  0  0  0  0  0  0  0  0  0
    2.8896    0.1774    0.7296 N   0  0  0  0  0  0  0  0  0  0  0  0
    3.6074   -0.7952    0.8776 O   0  0  0  0  0  0  0  0  0  0  0  0
    3.3326    1.2400   -0.1871 C   0  0  0  0  0  0  0  0  0  0  0  0
    2.8606    2.5363    0.0738 C   0  0  0  0  0  0  0  0  0  0  0  0
    3.2463    3.6082   -0.7103 C   0  0  0  0  0  0  0  0  0  0  0  0
    4.1101    3.3986   -1.8040 C   0  0  0  0  0  0  0  0  0  0  0  0
    4.4416    4.4880   -2.5208 O   0  0  0  0  0  0  0  0  0  0  0  0
    5.3174    4.3742   -3.6371 C   0  0  0  0  0  0  0  0  0  0  0  0
    5.4753    5.7605   -4.2438 C   0  0  0  0  0  0  0  0  0  0  0  0
    6.4071    5.7685   -5.4447 C   0  0  0  0  0  0  0  0  0  0  0  0
    5.8880    4.8939   -6.4262 O   0  0  0  0  0  0  0  0  0  0  0  0
    6.6635    4.7895   -7.5796 C   0  0  0  0  0  0  0  0  0  0  0  0
    6.0100    3.7882   -8.5163 C   0  0  1  0  0  0  0  0  0  0  0  0
    4.7838    4.1771   -8.8850 F   0  0  0  0  0  0  0  0  0  0  0  0
    6.7575    3.6648   -9.6272 F   0  0  0  0  0  0  0  0  0  0  0  0
    5.9067    2.5778   -7.9517 F   0  0  0  0  0  0  0  0  0  0  0  0
    4.5652    2.1024   -2.0880 C   0  0  0  0  0  0  0  0  0  0  0  0
    4.1866    1.0213   -1.2813 C   0  0  0  0  0  0  0  0  0  0  0  0
    4.7721   -0.5448   -1.7529 Cl  0  0  0  0  0  0  0  0  0  0  0  0
    2.1823    2.6695    0.9164 H   0  0  0  0  0  0  0  0  0  0  0  0
    2.8946    4.6202   -0.5043 H   0  0  0  0  0  0  0  0  0  0  0  0
    4.9033    3.6772   -4.3846 H   0  0  0  0  0  0  0  0  0  0  0  0
    6.2960    3.9771   -3.3069 H   0  0  0  0  0  0  0  0  0  0  0  0
    5.8671    6.4529   -3.4809 H   0  0  0  0  0  0  0  0  0  0  0  0
    4.4837    6.1347   -4.5453 H   0  0  0  0  0  0  0  0  0  0  0  0
    7.4286    5.4464   -5.1508 H   0  0  0  0  0  0  0  0  0  0  0  0
    6.4961    6.7966   -5.8493 H   0  0  0  0  0  0  0  0  0  0  0  0
    7.6896    4.4287   -7.3675 H   0  0  0  0  0  0  0  0  0  0  0  0
    6.7478    5.7526   -8.1213 H   0  0  0  0  0  0  0  0  0  0  0  0
    5.2109    1.8989   -2.9397 H   0  0  0  0  0  0  0  0  0  0  0  0
  1  2  2  0
  2  3  1  0
  2  4  1  0
  4  5  2  0
  4 19  1  0
  5  6  1  0
  5 21  1  0
  6  7  2  0
  6 22  1  0
  7  8  1  0
  7 18  1  0
  8  9  1  0
  9 10  1  0
  9 23  1  0
  9 24  1  0
 10 11  1  0
 10 25  1  0
 10 26  1  0
 11 12  1  0
 11 27  1  0
 11 28  1  0
 12 13  1  0
 13 14  1  0
 13 29  1  0
 13 30  1  0
 14 15  1  6
 14 16  1  0
 14 17  1  0
 18 19  2  0
 18 31  1  0
 19 20  1  0
M  CHG  2   2   1   3  -1
M  END

