
     RDKit          3D

 42 42  0  0  0  0  0  0  0  0999 V2000
    2.9081    4.0351   -1.7530 C   0  0  0  0  0  0  0  0  0  0  0  0
    3.6004    3.0054   -1.0459 O   0  0  0  0  0  0  0  0  0  0  0  0
    4.2412    3.3795    0.0768 C   0  0  0  0  0  0  0  0  0  0  0  0
    4.2519    4.5115    0.4924 O   0  0  0  0  0  0  0  0  0  0  0  0
    4.9306    2.1947    0.7253 C   0  0  0  0  0  0  0  0  0  0  0  0
    5.6643    2.5866    2.0030 C   0  0  0  0  0  0  0  0  0  0  0  0
    6.4589    1.0936    2.7009 S   0  0  0  0  0  0  0  0  0  0  0  0
    7.2363    1.7490    4.1642 C   0  0  0  0  0  0  0  0  0  0  0  0
    7.1663    3.0606    4.3774 N   0  0  0  0  0  0  0  0  0  0  0  0
    7.7423    3.5394    5.4893 C   0  0  0  0  0  0  0  0  0  0  0  0
    7.5814    5.0407    5.7610 C   0  0  1  0  0  0  0  0  0  0  0  0
    6.0740    5.3627    5.8588 C   0  0  0  0  0  0  0  0  0  0  0  0
    8.2812    5.4456    7.0669 C   0  0  0  0  0  0  0  0  0  0  0  0
    8.1961    5.8216    4.5786 C   0  0  0  0  0  0  0  0  0  0  0  0
    8.4488    2.8047    6.3384 N   0  0  0  0  0  0  0  0  0  0  0  0
    8.5567    1.4828    6.1095 C   0  0  0  0  0  0  0  0  0  0  0  0
    9.3374    0.8144    7.0372 N   0  0  0  0  0  0  0  0  0  0  0  0
   10.2038   -0.2368    6.7165 N   0  0  0  0  0  0  0  0  0  0  0  0
    7.8905    0.8504    5.0349 C   0  0  0  0  0  0  0  0  0  0  0  0
    7.8049   -0.6453    4.8615 C   0  0  0  0  0  0  0  0  0  0  0  0
    2.4504    3.5530   -2.6255 H   0  0  0  0  0  0  0  0  0  0  0  0
    3.6035    4.8253   -2.0749 H   0  0  0  0  0  0  0  0  0  0  0  0
    2.1330    4.4928   -1.1196 H   0  0  0  0  0  0  0  0  0  0  0  0
    5.6160    1.7543   -0.0189 H   0  0  0  0  0  0  0  0  0  0  0  0
    4.1664    1.4216    0.9147 H   0  0  0  0  0  0  0  0  0  0  0  0
    4.9763    3.0106    2.7461 H   0  0  0  0  0  0  0  0  0  0  0  0
    6.4326    3.3455    1.8077 H   0  0  0  0  0  0  0  0  0  0  0  0
    5.6062    4.8224    6.6980 H   0  0  0  0  0  0  0  0  0  0  0  0
    5.5502    5.0801    4.9343 H   0  0  0  0  0  0  0  0  0  0  0  0
    5.9257    6.4418    6.0270 H   0  0  0  0  0  0  0  0  0  0  0  0
    7.8702    4.9005    7.9294 H   0  0  0  0  0  0  0  0  0  0  0  0
    8.1472    6.5253    7.2423 H   0  0  0  0  0  0  0  0  0  0  0  0
    9.3590    5.2305    7.0295 H   0  0  0  0  0  0  0  0  0  0  0  0
    7.7136    5.5438    3.6306 H   0  0  0  0  0  0  0  0  0  0  0  0
    9.2756    5.6183    4.4877 H   0  0  0  0  0  0  0  0  0  0  0  0
    8.0677    6.9057    4.7308 H   0  0  0  0  0  0  0  0  0  0  0  0
    9.7355    1.4632    7.7122 H   0  0  0  0  0  0  0  0  0  0  0  0
   10.6193   -0.1116    5.7914 H   0  0  0  0  0  0  0  0  0  0  0  0
    9.7195   -1.1311    6.7354 H   0  0  0  0  0  0  0  0  0  0  0  0
    7.7296   -1.1476    5.8378 H   0  0  0  0  0  0  0  0  0  0  0  0
    8.6645   -1.0775    4.3216 H   0  0  0  0  0  0  0  0  0  0  0  0
    6.9017   -0.9118    4.2922 H   0  0  0  0  0  0  0  0  0  0  0  0
  1  2  1  0
  1 21  1  0
  1 22  1  0
  1 23  1  0
  2  3  1  0
  3  4  2  0
  3  5  1  0
  5  6  1  0
  5 24  1  0
  5 25  1  0
  6  7  1  0
  6 26  1  0
  6 27  1  0
  7  8  1  0
  8  9  2  0
  8 19  1  0
  9 10  1  0
 10 11  1  0
 10 15  2  0
 11 12  1  1
 11 13  1  0
 11 14  1  0
 12 28  1  0
 12 29  1  0
 12 30  1  0
 13 31  1  0
 13 32  1  0
 13 33  1  0
 14 34  1  0
 14 35  1  0
 14 36  1  0
 15 16  1  0
 16 17  1  0
 16 19  2  0
 17 18  1  0
 17 37  1  0
 18 38  1  0
 18 39  1  0
 19 20  1  0
 20 40  1  0
 20 41  1  0
 20 42  1  0
M  END

