
     RDKit          3D

 34 35  0  0  0  0  0  0  0  0999 V2000
    6.6585   -4.0668    1.9760 C   0  0  0  0  0  0  0  0  0  0  0  0
    5.0834   -3.8299    1.1047 S   0  0  0  0  0  0  0  0  0  0  0  0
    4.3269   -2.4541    1.9555 C   0  0  0  0  0  0  0  0  0  0  0  0
    4.9409   -1.8286    3.0550 C   0  0  0  0  0  0  0  0  0  0  0  0
    4.3116   -0.7582    3.6915 C   0  0  0  0  0  0  0  0  0  0  0  0
    5.1736    0.0706    5.1784 Br  0  0  0  0  0  0  0  0  0  0  0  0
    3.0690   -0.2894    3.2650 C   0  0  0  0  0  0  0  0  0  0  0  0
    2.4673   -0.9198    2.1755 C   0  0  0  0  0  0  0  0  0  0  0  0
    3.0675   -1.9923    1.5025 C   0  0  0  0  0  0  0  0  0  0  0  0
    2.3373   -2.6005    0.3183 C   0  0  0  0  0  0  0  0  0  0  0  0
    2.2852   -1.7039   -0.8385 N   0  0  0  0  0  0  0  0  0  0  0  0
    3.5702   -1.3931   -1.4893 C   0  0  0  0  0  0  0  0  0  0  0  0
    3.1552   -0.8919   -2.8725 C   0  0  0  0  0  0  0  0  0  0  0  0
    1.9989   -1.8374   -3.2271 C   0  0  0  0  0  0  0  0  0  0  0  0
    1.2845   -2.0522   -1.8723 C   0  0  2  0  0  0  0  0  0  0  0  0
    0.0369   -1.1499   -1.7256 C   0  0  0  0  0  0  0  0  0  0  0  0
   -0.9624   -1.3044   -2.3770 O   0  0  0  0  0  0  0  0  0  0  0  0
    0.2028   -0.1789   -0.8237 O   0  0  0  0  0  0  0  0  0  0  0  0
    7.1450   -4.9067    1.4603 H   0  0  0  0  0  0  0  0  0  0  0  0
    6.5064   -4.3396    3.0305 H   0  0  0  0  0  0  0  0  0  0  0  0
    7.3066   -3.1814    1.9015 H   0  0  0  0  0  0  0  0  0  0  0  0
    5.9076   -2.1628    3.4257 H   0  0  0  0  0  0  0  0  0  0  0  0
    2.5798    0.5422    3.7732 H   0  0  0  0  0  0  0  0  0  0  0  0
    1.4878   -0.5693    1.8370 H   0  0  0  0  0  0  0  0  0  0  0  0
    1.2986   -2.8072    0.6229 H   0  0  0  0  0  0  0  0  0  0  0  0
    2.7819   -3.5776    0.0450 H   0  0  0  0  0  0  0  0  0  0  0  0
    4.2033   -2.2994   -1.5755 H   0  0  0  0  0  0  0  0  0  0  0  0
    4.1359   -0.6530   -0.9023 H   0  0  0  0  0  0  0  0  0  0  0  0
    3.9802   -0.9221   -3.5993 H   0  0  0  0  0  0  0  0  0  0  0  0
    2.8007    0.1505   -2.8110 H   0  0  0  0  0  0  0  0  0  0  0  0
    2.3969   -2.7987   -3.5891 H   0  0  0  0  0  0  0  0  0  0  0  0
    1.3137   -1.4525   -3.9952 H   0  0  0  0  0  0  0  0  0  0  0  0
    0.9289   -3.0926   -1.7821 H   0  0  0  0  0  0  0  0  0  0  0  0
    1.1310   -0.3322   -0.5006 H   0  0  0  0  0  0  0  0  0  0  0  0
  1  2  1  0
  1 19  1  0
  1 20  1  0
  1 21  1  0
  2  3  1  0
  3  4  2  0
  3  9  1  0
  4  5  1  0
  4 22  1  0
  5  6  1  0
  5  7  2  0
  7  8  1  0
  7 23  1  0
  8  9  2  0
  8 24  1  0
  9 10  1  0
 10 11  1  0
 10 25  1  0
 10 26  1  0
 11 12  1  0
 11 15  1  0
 12 13  1  0
 12 27  1  0
 12 28  1  0
 13 14  1  0
 13 29  1  0
 13 30  1  0
 14 15  1  0
 14 31  1  0
 14 32  1  0
 15 16  1  0
 15 33  1  1
 16 17  2  0
 16 18  1  0
 18 34  1  0
M  END

