
     RDKit          3D

 31 30  0  0  0  0  0  0  0  0999 V2000
    1.5445   -2.4286   -1.8406 C   0  0  0  0  0  0  0  0  0  0  0  0
    2.9371   -1.7983   -1.7964 C   0  0  0  0  0  0  0  0  0  0  0  0
    2.9257   -0.3227   -1.3911 C   0  0  0  0  0  0  0  0  0  0  0  0
    4.3145    0.3389   -1.3504 C   0  0  0  0  0  0  0  0  0  0  0  0
    5.0352    0.3479   -2.6196 N   0  0  0  0  0  0  0  0  0  0  0  0
    4.4643    1.2463   -3.6076 C   0  0  0  0  0  0  0  0  0  0  0  0
    6.7281   -0.1414   -2.6943 Si  0  0  1  0  0  4  0  0  0  0  0  0
    7.8801    1.1428   -1.9044 C   0  0  0  0  0  0  0  0  0  0  0  0
    6.9493   -1.7819   -1.7819 C   0  0  0  0  0  0  0  0  0  0  0  0
    7.2238   -0.3694   -4.5039 C   0  0  0  0  0  0  0  0  0  0  0  0
    1.5885   -3.4893   -2.1360 H   0  0  0  0  0  0  0  0  0  0  0  0
    0.8924   -1.9101   -2.5638 H   0  0  0  0  0  0  0  0  0  0  0  0
    1.0467   -2.3785   -0.8572 H   0  0  0  0  0  0  0  0  0  0  0  0
    3.4227   -1.8928   -2.7825 H   0  0  0  0  0  0  0  0  0  0  0  0
    3.5762   -2.3625   -1.0923 H   0  0  0  0  0  0  0  0  0  0  0  0
    2.4730   -0.2146   -0.3882 H   0  0  0  0  0  0  0  0  0  0  0  0
    2.2633    0.2397   -2.0737 H   0  0  0  0  0  0  0  0  0  0  0  0
    4.9237   -0.1892   -0.5976 H   0  0  0  0  0  0  0  0  0  0  0  0
    4.1925    1.3760   -0.9676 H   0  0  0  0  0  0  0  0  0  0  0  0
    3.4365    0.9532   -3.8911 H   0  0  0  0  0  0  0  0  0  0  0  0
    5.0580    1.2424   -4.5329 H   0  0  0  0  0  0  0  0  0  0  0  0
    4.4112    2.2977   -3.2501 H   0  0  0  0  0  0  0  0  0  0  0  0
    7.6336    1.3011   -0.8410 H   0  0  0  0  0  0  0  0  0  0  0  0
    7.7984    2.1186   -2.4122 H   0  0  0  0  0  0  0  0  0  0  0  0
    8.9360    0.8263   -1.9568 H   0  0  0  0  0  0  0  0  0  0  0  0
    6.7263   -1.7042   -0.7056 H   0  0  0  0  0  0  0  0  0  0  0  0
    7.9956   -2.1198   -1.8727 H   0  0  0  0  0  0  0  0  0  0  0  0
    6.3012   -2.5662   -2.2051 H   0  0  0  0  0  0  0  0  0  0  0  0
    7.2532    0.5808   -5.0612 H   0  0  0  0  0  0  0  0  0  0  0  0
    6.5362   -1.0523   -5.0290 H   0  0  0  0  0  0  0  0  0  0  0  0
    8.2352   -0.8063   -4.5550 H   0  0  0  0  0  0  0  0  0  0  0  0
  1  2  1  0
  1 11  1  0
  1 12  1  0
  1 13  1  0
  2  3  1  0
  2 14  1  0
  2 15  1  0
  3  4  1  0
  3 16  1  0
  3 17  1  0
  4  5  1  0
  4 18  1  0
  4 19  1  0
  5  6  1  0
  7  5  1  6
  6 20  1  0
  6 21  1  0
  6 22  1  0
  7  8  1  0
  7  9  1  0
  7 10  1  0
  8 23  1  0
  8 24  1  0
  8 25  1  0
  9 26  1  0
  9 27  1  0
  9 28  1  0
 10 29  1  0
 10 30  1  0
 10 31  1  0
M  END

