
     RDKit          3D

 45 47  0  0  0  0  0  0  0  0999 V2000
    1.8898    1.2503    1.0006 C   0  0  0  0  0  0  0  0  0  0  0  0
    3.1065    0.7436    0.2627 C   0  0  0  0  0  0  0  0  0  0  0  0
    3.7816    1.5511   -0.6637 C   0  0  0  0  0  0  0  0  0  0  0  0
    4.9152    1.0940   -1.3508 C   0  0  0  0  0  0  0  0  0  0  0  0
    5.6290    1.9688   -2.3534 C   0  0  0  0  0  0  0  0  0  0  0  0
    5.3711   -0.2062   -1.0917 C   0  0  0  0  0  0  0  0  0  0  0  0
    4.7226   -1.0383   -0.1697 C   0  0  0  0  0  0  0  0  0  0  0  0
    5.3106   -2.4199    0.1118 C   0  0  1  0  0  0  0  0  0  0  0  0
    6.3674   -2.3519    1.2198 C   0  0  0  0  0  0  0  0  0  0  0  0
    6.0876   -1.8396    2.4958 C   0  0  0  0  0  0  0  0  0  0  0  0
    7.1035   -1.8171    3.4507 C   0  0  0  0  0  0  0  0  0  0  0  0
    8.3688   -2.2949    3.1021 C   0  0  0  0  0  0  0  0  0  0  0  0
    8.5526   -2.7812    1.8059 C   0  0  0  0  0  0  0  0  0  0  0  0
    7.5803   -2.8146    0.8903 N   0  0  0  0  0  0  0  0  0  0  0  0
    4.2681   -3.4256    0.3998 N   0  0  0  0  0  0  0  0  0  0  0  0
    3.3004   -3.6114   -0.7083 C   0  0  0  0  0  0  0  0  0  0  0  0
    2.8141   -5.0526   -0.5594 C   0  0  0  0  0  0  0  0  0  0  0  0
    4.0947   -5.7800   -0.1379 C   0  0  0  0  0  0  0  0  0  0  0  0
    4.7570   -4.7699    0.8204 C   0  0  2  0  0  0  0  0  0  0  0  0
    4.3520   -5.0538    2.2848 C   0  0  0  0  0  0  0  0  0  0  0  0
    4.6534   -6.0657    2.8620 O   0  0  0  0  0  0  0  0  0  0  0  0
    3.6160   -4.0781    2.8230 O   0  0  0  0  0  0  0  0  0  0  0  0
    3.5911   -0.5515    0.4988 C   0  0  0  0  0  0  0  0  0  0  0  0
    1.5650    2.2306    0.6220 H   0  0  0  0  0  0  0  0  0  0  0  0
    2.0940    1.3607    2.0793 H   0  0  0  0  0  0  0  0  0  0  0  0
    1.0416    0.5527    0.9056 H   0  0  0  0  0  0  0  0  0  0  0  0
    3.4110    2.5619   -0.8593 H   0  0  0  0  0  0  0  0  0  0  0  0
    5.1723    2.9672   -2.4186 H   0  0  0  0  0  0  0  0  0  0  0  0
    5.6062    1.5222   -3.3617 H   0  0  0  0  0  0  0  0  0  0  0  0
    6.6906    2.0998   -2.0857 H   0  0  0  0  0  0  0  0  0  0  0  0
    6.2541   -0.5808   -1.6189 H   0  0  0  0  0  0  0  0  0  0  0  0
    5.8785   -2.7287   -0.7862 H   0  0  0  0  0  0  0  0  0  0  0  0
    5.0942   -1.4603    2.7367 H   0  0  0  0  0  0  0  0  0  0  0  0
    6.9094   -1.4300    4.4541 H   0  0  0  0  0  0  0  0  0  0  0  0
    9.1946   -2.2946    3.8169 H   0  0  0  0  0  0  0  0  0  0  0  0
    9.5294   -3.1680    1.4924 H   0  0  0  0  0  0  0  0  0  0  0  0
    3.8068   -3.4802   -1.6859 H   0  0  0  0  0  0  0  0  0  0  0  0
    2.4926   -2.8668   -0.6599 H   0  0  0  0  0  0  0  0  0  0  0  0
    2.3695   -5.4420   -1.4874 H   0  0  0  0  0  0  0  0  0  0  0  0
    2.0494   -5.1232    0.2323 H   0  0  0  0  0  0  0  0  0  0  0  0
    4.7437   -5.9430   -1.0134 H   0  0  0  0  0  0  0  0  0  0  0  0
    3.9334   -6.7524    0.3475 H   0  0  0  0  0  0  0  0  0  0  0  0
    5.8532   -4.8423    0.7748 H   0  0  0  0  0  0  0  0  0  0  0  0
    3.5548   -3.4167    2.0841 H   0  0  0  0  0  0  0  0  0  0  0  0
    3.0650   -1.1936    1.2100 H   0  0  0  0  0  0  0  0  0  0  0  0
  1  2  1  0
  1 24  1  0
  1 25  1  0
  1 26  1  0
  2  3  2  0
  2 23  1  0
  3  4  1  0
  3 27  1  0
  4  5  1  0
  4  6  2  0
  5 28  1  0
  5 29  1  0
  5 30  1  0
  6  7  1  0
  6 31  1  0
  7  8  1  0
  7 23  2  0
  8  9  1  0
  8 15  1  0
  8 32  1  6
  9 10  2  0
  9 14  1  0
 10 11  1  0
 10 33  1  0
 11 12  2  0
 11 34  1  0
 12 13  1  0
 12 35  1  0
 13 14  2  0
 13 36  1  0
 15 16  1  0
 15 19  1  0
 16 17  1  0
 16 37  1  0
 16 38  1  0
 17 18  1  0
 17 39  1  0
 17 40  1  0
 18 19  1  0
 18 41  1  0
 18 42  1  0
 19 20  1  0
 19 43  1  1
 20 21  2  0
 20 22  1  0
 22 44  1  0
 23 45  1  0
M  END

