
     RDKit          3D

 54 56  0  0  0  0  0  0  0  0999 V2000
   -0.2896   -6.4822   -4.6665 C   0  0  0  0  0  0  0  0  0  0  0  0
    0.4719   -5.9870   -5.7458 O   0  0  0  0  0  0  0  0  0  0  0  0
    1.6688   -5.3982   -5.5078 C   0  0  0  0  0  0  0  0  0  0  0  0
    2.3693   -4.9409   -6.6383 C   0  0  0  0  0  0  0  0  0  0  0  0
    3.6034   -4.3188   -6.4767 C   0  0  0  0  0  0  0  0  0  0  0  0
    4.1635   -4.1423   -5.2060 C   0  0  0  0  0  0  0  0  0  0  0  0
    3.4643   -4.6030   -4.0843 C   0  0  0  0  0  0  0  0  0  0  0  0
    4.2673   -4.3470   -2.4914 S   0  0  0  0  0  0  0  0  0  0  0  0
    3.1833   -5.0774   -1.3209 C   0  0  0  0  0  0  0  0  0  0  0  0
    3.1781   -6.3917   -0.9304 C   0  0  0  0  0  0  0  0  0  0  0  0
    4.0229   -7.5263   -1.4114 C   0  0  0  0  0  0  0  0  0  0  0  0
    3.2756   -8.4308   -2.2869 N   0  0  0  0  0  0  0  0  0  0  0  0
    4.0554   -9.5684   -2.7508 C   0  0  0  0  0  0  0  0  0  0  0  0
    3.2560  -10.5109   -3.6258 C   0  0  0  0  0  0  0  0  0  0  0  0
    3.8639  -11.2165   -4.6725 C   0  0  0  0  0  0  0  0  0  0  0  0
    3.0991  -12.1067   -5.4323 C   0  0  0  0  0  0  0  0  0  0  0  0
    1.7988  -12.3272   -5.2248 N   0  0  0  0  0  0  0  0  0  0  0  0
    1.2166  -11.6508   -4.2312 C   0  0  0  0  0  0  0  0  0  0  0  0
    1.8903  -10.7416   -3.4103 C   0  0  0  0  0  0  0  0  0  0  0  0
    2.1597   -6.5474   -0.0017 N   0  0  0  0  0  0  0  0  0  0  0  0
    1.7892   -7.7606    0.6963 C   0  0  0  0  0  0  0  0  0  0  0  0
    1.5231   -5.3276    0.2299 C   0  0  0  0  0  0  0  0  0  0  0  0
    0.6069   -5.1169    1.0078 O   0  0  0  0  0  0  0  0  0  0  0  0
    2.1596   -4.4172   -0.6102 N   0  0  0  0  0  0  0  0  0  0  0  0
    1.8253   -2.9864   -0.5333 C   0  0  1  0  0  0  0  0  0  0  0  0
    2.9817   -2.1565    0.0367 C   0  0  0  0  0  0  0  0  0  0  0  0
    1.2863   -2.4320   -1.8556 C   0  0  0  0  0  0  0  0  0  0  0  0
    2.2171   -5.2300   -4.2257 C   0  0  0  0  0  0  0  0  0  0  0  0
   -1.2026   -6.9117   -5.0997 H   0  0  0  0  0  0  0  0  0  0  0  0
   -0.5716   -5.6819   -3.9592 H   0  0  0  0  0  0  0  0  0  0  0  0
    0.2479   -7.2732   -4.1127 H   0  0  0  0  0  0  0  0  0  0  0  0
    1.9214   -5.0851   -7.6229 H   0  0  0  0  0  0  0  0  0  0  0  0
    4.1460   -3.9633   -7.3566 H   0  0  0  0  0  0  0  0  0  0  0  0
    5.1343   -3.6544   -5.0913 H   0  0  0  0  0  0  0  0  0  0  0  0
    4.3800   -8.1137   -0.5463 H   0  0  0  0  0  0  0  0  0  0  0  0
    4.9230   -7.0968   -1.8949 H   0  0  0  0  0  0  0  0  0  0  0  0
    2.9287   -7.9036   -3.0893 H   0  0  0  0  0  0  0  0  0  0  0  0
    4.4011  -10.1257   -1.8589 H   0  0  0  0  0  0  0  0  0  0  0  0
    4.9808   -9.2727   -3.2921 H   0  0  0  0  0  0  0  0  0  0  0  0
    4.9238  -11.0738   -4.9009 H   0  0  0  0  0  0  0  0  0  0  0  0
    3.5656  -12.6638   -6.2539 H   0  0  0  0  0  0  0  0  0  0  0  0
    0.1478  -11.8405   -4.0725 H   0  0  0  0  0  0  0  0  0  0  0  0
    1.3640  -10.2138   -2.6131 H   0  0  0  0  0  0  0  0  0  0  0  0
    1.6830   -8.5889   -0.0186 H   0  0  0  0  0  0  0  0  0  0  0  0
    0.8331   -7.5693    1.2013 H   0  0  0  0  0  0  0  0  0  0  0  0
    2.5377   -8.0356    1.4588 H   0  0  0  0  0  0  0  0  0  0  0  0
    1.0041   -2.9750    0.1993 H   0  0  0  0  0  0  0  0  0  0  0  0
    3.8397   -2.1281   -0.6520 H   0  0  0  0  0  0  0  0  0  0  0  0
    3.3195   -2.5656    1.0013 H   0  0  0  0  0  0  0  0  0  0  0  0
    2.6485   -1.1204    0.2063 H   0  0  0  0  0  0  0  0  0  0  0  0
    2.0586   -2.4079   -2.6382 H   0  0  0  0  0  0  0  0  0  0  0  0
    0.9255   -1.4024   -1.7039 H   0  0  0  0  0  0  0  0  0  0  0  0
    0.4408   -3.0354   -2.2193 H   0  0  0  0  0  0  0  0  0  0  0  0
    1.6800   -5.5629   -3.3389 H   0  0  0  0  0  0  0  0  0  0  0  0
  1  2  1  0
  1 29  1  0
  1 30  1  0
  1 31  1  0
  2  3  1  0
  3  4  2  0
  3 28  1  0
  4  5  1  0
  4 32  1  0
  5  6  2  0
  5 33  1  0
  6  7  1  0
  6 34  1  0
  7  8  1  0
  7 28  2  0
  8  9  1  0
  9 10  2  0
  9 24  1  0
 10 11  1  0
 10 20  1  0
 11 12  1  0
 11 35  1  0
 11 36  1  0
 12 13  1  0
 12 37  1  0
 13 14  1  0
 13 38  1  0
 13 39  1  0
 14 15  2  0
 14 19  1  0
 15 16  1  0
 15 40  1  0
 16 17  2  0
 16 41  1  0
 17 18  1  0
 18 19  2  0
 18 42  1  0
 19 43  1  0
 20 21  1  0
 20 22  1  0
 21 44  1  0
 21 45  1  0
 21 46  1  0
 22 23  2  0
 22 24  1  0
 24 25  1  0
 25 26  1  0
 25 27  1  0
 25 47  1  1
 26 48  1  0
 26 49  1  0
 26 50  1  0
 27 51  1  0
 27 52  1  0
 27 53  1  0
 28 54  1  0
M  END

