
     RDKit          3D

 59 64  0  0  0  0  0  0  0  0999 V2000
    6.4527    1.9449    1.5478 C   0  0  0  0  0  0  0  0  0  0  0  0
    6.2477    2.4721    2.9705 C   0  0  2  0  0  0  0  0  0  0  0  0
    7.5980    3.0082    3.4711 C   0  0  0  0  0  0  0  0  0  0  0  0
    5.5447    1.5519    4.0306 C   0  0  2  0  0  0  0  0  0  0  0  0
    4.3843    0.7647    3.4002 C   0  0  0  0  0  0  0  0  0  0  0  0
    3.2947    1.7172    2.8381 C   0  0  0  0  0  0  0  0  0  0  0  0
    3.8239    3.1211    2.4341 C   0  0  1  0  0  0  0  0  0  0  0  0
    2.7235    4.2002    2.4828 C   0  0  0  0  0  0  0  0  0  0  0  0
    2.1929    4.5073    3.7994 N   0  0  0  0  0  0  0  0  0  0  0  0
    2.5311    5.6285    4.4938 C   0  0  0  0  0  0  0  0  0  0  0  0
    3.3085    6.4874    4.0872 O   0  0  0  0  0  0  0  0  0  0  0  0
    1.8862    5.7724    5.8280 C   0  0  0  0  0  0  0  0  0  0  0  0
    1.0997    4.8772    6.3246 N   0  0  0  0  0  0  0  0  0  0  0  0
    0.6067    5.2795    7.5117 N   0  0  0  0  0  0  0  0  0  0  0  0
   -0.1507    4.3842    8.2758 C   0  0  0  0  0  0  0  0  0  0  0  0
   -0.2410    3.0203    7.9295 C   0  0  0  0  0  0  0  0  0  0  0  0
   -1.0202    2.1265    8.6619 C   0  0  0  0  0  0  0  0  0  0  0  0
   -1.7188    2.5835    9.7765 C   0  0  0  0  0  0  0  0  0  0  0  0
   -2.4650    1.7316   10.4927 F   0  0  0  0  0  0  0  0  0  0  0  0
   -1.6540    3.9191   10.1621 C   0  0  0  0  0  0  0  0  0  0  0  0
   -0.8840    4.7948    9.4056 C   0  0  0  0  0  0  0  0  0  0  0  0
   -0.8447    6.0873    9.7935 F   0  0  0  0  0  0  0  0  0  0  0  0
    1.2208    6.5677    7.9609 C   0  0  1  0  0  0  0  0  0  0  0  0
    2.2673    6.4377    9.0435 C   0  0  0  0  0  0  0  0  0  0  0  0
    2.2637    6.0624   10.4236 C   0  0  0  0  0  0  0  0  0  0  0  0
    3.5248    6.1534   10.9559 C   0  0  0  0  0  0  0  0  0  0  0  0
    4.0002    5.7881   12.5751 Cl  0  0  0  0  0  0  0  0  0  0  0  0
    4.7191    6.7081    9.7966 S   0  0  0  0  0  0  0  0  0  0  0  0
    3.4994    6.8116    8.5725 C   0  0  0  0  0  0  0  0  0  0  0  0
    3.5155    7.2935    7.1536 C   0  0  0  0  0  0  0  0  0  0  0  0
    2.0495    6.9958    6.6985 C   0  0  1  0  0  0  0  0  0  0  0  0
    5.0738    3.4783    3.2669 C   0  0  1  0  0  0  0  0  0  0  0  0
    4.9858    2.8432    4.6862 C   0  0  0  0  0  0  0  0  0  0  0  0
    7.2298    1.1618    1.5400 H   0  0  0  0  0  0  0  0  0  0  0  0
    6.7998    2.7539    0.8827 H   0  0  0  0  0  0  0  0  0  0  0  0
    5.5522    1.5114    1.0925 H   0  0  0  0  0  0  0  0  0  0  0  0
    8.3570    2.2078    3.4690 H   0  0  0  0  0  0  0  0  0  0  0  0
    7.5507    3.4158    4.4908 H   0  0  0  0  0  0  0  0  0  0  0  0
    7.9621    3.8130    2.8108 H   0  0  0  0  0  0  0  0  0  0  0  0
    6.1966    0.8949    4.6315 H   0  0  0  0  0  0  0  0  0  0  0  0
    3.9306    0.1062    4.1602 H   0  0  0  0  0  0  0  0  0  0  0  0
    4.7710    0.0948    2.6151 H   0  0  0  0  0  0  0  0  0  0  0  0
    2.5307    1.8524    3.6211 H   0  0  0  0  0  0  0  0  0  0  0  0
    2.7668    1.2498    1.9906 H   0  0  0  0  0  0  0  0  0  0  0  0
    4.1272    3.0974    1.3735 H   0  0  0  0  0  0  0  0  0  0  0  0
    1.8876    3.8900    1.8307 H   0  0  0  0  0  0  0  0  0  0  0  0
    3.1237    5.1427    2.0824 H   0  0  0  0  0  0  0  0  0  0  0  0
    1.5185    3.8890    4.2357 H   0  0  0  0  0  0  0  0  0  0  0  0
    0.3174    2.6752    7.0611 H   0  0  0  0  0  0  0  0  0  0  0  0
   -1.0823    1.0736    8.3817 H   0  0  0  0  0  0  0  0  0  0  0  0
   -2.2015    4.2863   11.0307 H   0  0  0  0  0  0  0  0  0  0  0  0
    0.4207    7.2691    8.2297 H   0  0  0  0  0  0  0  0  0  0  0  0
    1.3946    5.7531   11.0008 H   0  0  0  0  0  0  0  0  0  0  0  0
    4.2467    6.7872    6.5070 H   0  0  0  0  0  0  0  0  0  0  0  0
    3.7348    8.3724    7.0892 H   0  0  0  0  0  0  0  0  0  0  0  0
    1.6247    7.8741    6.1885 H   0  0  0  0  0  0  0  0  0  0  0  0
    5.3040    4.5535    3.1962 H   0  0  0  0  0  0  0  0  0  0  0  0
    3.9997    2.7888    5.1699 H   0  0  0  0  0  0  0  0  0  0  0  0
    5.6864    3.3018    5.3953 H   0  0  0  0  0  0  0  0  0  0  0  0
  2  1  1  6
  1 34  1  0
  1 35  1  0
  1 36  1  0
  2  3  1  0
  2  4  1  0
  2 32  1  0
  3 37  1  0
  3 38  1  0
  3 39  1  0
  4  5  1  0
  4 33  1  0
  4 40  1  1
  5  6  1  0
  5 41  1  0
  5 42  1  0
  6  7  1  0
  6 43  1  0
  6 44  1  0
  7  8  1  0
  7 32  1  0
  7 45  1  6
  8  9  1  0
  8 46  1  0
  8 47  1  0
  9 10  1  0
  9 48  1  0
 10 11  2  0
 10 12  1  0
 12 13  2  0
 12 31  1  0
 13 14  1  0
 14 15  1  0
 14 23  1  0
 15 16  2  0
 15 21  1  0
 16 17  1  0
 16 49  1  0
 17 18  2  0
 17 50  1  0
 18 19  1  0
 18 20  1  0
 20 21  2  0
 20 51  1  0
 21 22  1  0
 23 24  1  0
 23 31  1  0
 23 52  1  1
 24 25  1  0
 24 29  2  0
 25 26  2  0
 25 53  1  0
 26 27  1  0
 26 28  1  0
 28 29  1  0
 29 30  1  0
 30 31  1  0
 30 54  1  0
 30 55  1  0
 31 56  1  6
 32 33  1  0
 32 57  1  1
 33 58  1  0
 33 59  1  0
M  END

