
     RDKit          3D

 27 27  0  0  0  0  0  0  0  0999 V2000
    1.4826   -0.6605   -0.9592 C   0  0  0  0  0  0  0  0  0  0  0  0
    2.2820   -0.0302   -0.0861 C   0  0  0  0  0  0  0  0  0  0  0  0
    2.4909    1.4634   -0.1496 C   0  0  0  0  0  0  0  0  0  0  0  0
    3.0236   -0.7398    1.0413 C   0  0  1  0  0  0  0  0  0  0  0  0
    2.5530   -2.1772    1.3207 C   0  0  0  0  0  0  0  0  0  0  0  0
    4.5398   -0.7055    0.8426 C   0  0  0  0  0  0  0  0  0  0  0  0
    5.1382   -0.8668   -0.4111 C   0  0  0  0  0  0  0  0  0  0  0  0
    6.5256   -0.8846   -0.5848 C   0  0  0  0  0  0  0  0  0  0  0  0
    7.3590   -0.7400    0.5305 C   0  0  0  0  0  0  0  0  0  0  0  0
    8.7156   -0.7430    0.4456 O   0  0  0  0  0  0  0  0  0  0  0  0
    6.7917   -0.5828    1.8012 C   0  0  0  0  0  0  0  0  0  0  0  0
    5.4017   -0.5711    1.9534 C   0  0  0  0  0  0  0  0  0  0  0  0
    4.8281   -0.4348    3.1821 O   0  0  0  0  0  0  0  0  0  0  0  0
    0.9630   -0.1070   -1.7471 H   0  0  0  0  0  0  0  0  0  0  0  0
    1.3080   -1.7379   -0.9237 H   0  0  0  0  0  0  0  0  0  0  0  0
    1.9472    1.9177   -0.9909 H   0  0  0  0  0  0  0  0  0  0  0  0
    3.5602    1.7130   -0.2522 H   0  0  0  0  0  0  0  0  0  0  0  0
    2.1464    1.9444    0.7829 H   0  0  0  0  0  0  0  0  0  0  0  0
    2.8223   -0.1554    1.9554 H   0  0  0  0  0  0  0  0  0  0  0  0
    2.7698   -2.8459    0.4728 H   0  0  0  0  0  0  0  0  0  0  0  0
    1.4703   -2.2121    1.5212 H   0  0  0  0  0  0  0  0  0  0  0  0
    3.0776   -2.5767    2.2014 H   0  0  0  0  0  0  0  0  0  0  0  0
    4.4925   -0.9753   -1.2865 H   0  0  0  0  0  0  0  0  0  0  0  0
    6.9574   -1.0079   -1.5826 H   0  0  0  0  0  0  0  0  0  0  0  0
    8.9755   -0.8615   -0.4773 H   0  0  0  0  0  0  0  0  0  0  0  0
    7.4532   -0.4740    2.6650 H   0  0  0  0  0  0  0  0  0  0  0  0
    5.5191   -0.3406    3.8504 H   0  0  0  0  0  0  0  0  0  0  0  0
  1  2  2  0
  1 14  1  0
  1 15  1  0
  2  3  1  0
  2  4  1  0
  3 16  1  0
  3 17  1  0
  3 18  1  0
  4  5  1  0
  4  6  1  0
  4 19  1  1
  5 20  1  0
  5 21  1  0
  5 22  1  0
  6  7  2  0
  6 12  1  0
  7  8  1  0
  7 23  1  0
  8  9  2  0
  8 24  1  0
  9 10  1  0
  9 11  1  0
 10 25  1  0
 11 12  2  0
 11 26  1  0
 12 13  1  0
 13 27  1  0
M  END

