
     RDKit          3D

 42 44  0  0  0  0  0  0  0  0999 V2000
    2.1697    1.3181    1.5225 O   0  0  0  0  0  0  0  0  0  0  0  0
    1.8890    1.5668    0.3831 C   0  0  0  0  0  0  0  0  0  0  0  0
    0.5964    1.7679    0.0267 O   0  0  0  0  0  0  0  0  0  0  0  0
    2.8979    1.6838   -0.7532 C   0  0  0  0  0  0  0  0  0  0  0  0
    4.3394    1.4439   -0.3145 C   0  0  0  0  0  0  0  0  0  0  0  0
    5.3364    1.5763   -1.4816 C   0  0  0  0  0  0  0  0  0  0  0  0
    6.7278    1.3323   -1.1681 N   0  0  0  0  0  0  0  0  0  0  0  0
    7.4339    2.2743   -0.3123 C   0  0  0  0  0  0  0  0  0  0  0  0
    8.7740    1.5795   -0.0762 C   0  0  0  0  0  0  0  0  0  0  0  0
    8.3517    0.1116    0.0768 C   0  0  0  0  0  0  0  0  0  0  0  0
    7.1555   -0.0463   -0.9108 C   0  0  2  0  0  0  0  0  0  0  0  0
    7.5183   -0.8090   -2.1875 C   0  0  0  0  0  0  0  0  0  0  0  0
    7.7730   -0.1280   -3.3637 C   0  0  0  0  0  0  0  0  0  0  0  0
    8.1339   -0.8052   -4.5546 C   0  0  0  0  0  0  0  0  0  0  0  0
    8.2375   -2.1772   -4.5686 C   0  0  0  0  0  0  0  0  0  0  0  0
    7.9861   -2.9297   -3.3870 C   0  0  0  0  0  0  0  0  0  0  0  0
    8.0895   -4.3490   -3.3808 C   0  0  0  0  0  0  0  0  0  0  0  0
    7.8516   -5.0776   -2.2349 C   0  0  0  0  0  0  0  0  0  0  0  0
    7.4977   -4.4094   -1.0382 C   0  0  0  0  0  0  0  0  0  0  0  0
    7.3882   -3.0334   -1.0103 C   0  0  0  0  0  0  0  0  0  0  0  0
    7.6232   -2.2441   -2.1749 C   0  0  0  0  0  0  0  0  0  0  0  0
    0.5307    1.9546   -0.9207 H   0  0  0  0  0  0  0  0  0  0  0  0
    2.7869    2.6882   -1.2050 H   0  0  0  0  0  0  0  0  0  0  0  0
    2.6049    0.9688   -1.5455 H   0  0  0  0  0  0  0  0  0  0  0  0
    4.4091    0.4418    0.1389 H   0  0  0  0  0  0  0  0  0  0  0  0
    4.5888    2.1550    0.4890 H   0  0  0  0  0  0  0  0  0  0  0  0
    5.2528    2.5929   -1.9107 H   0  0  0  0  0  0  0  0  0  0  0  0
    5.0420    0.8847   -2.2916 H   0  0  0  0  0  0  0  0  0  0  0  0
    6.9243    2.4555    0.6609 H   0  0  0  0  0  0  0  0  0  0  0  0
    7.5342    3.2559   -0.8093 H   0  0  0  0  0  0  0  0  0  0  0  0
    9.3138    1.9667    0.8010 H   0  0  0  0  0  0  0  0  0  0  0  0
    9.4228    1.7047   -0.9581 H   0  0  0  0  0  0  0  0  0  0  0  0
    8.0036   -0.0701    1.1071 H   0  0  0  0  0  0  0  0  0  0  0  0
    9.1635   -0.6004   -0.1281 H   0  0  0  0  0  0  0  0  0  0  0  0
    6.3532   -0.6151   -0.4038 H   0  0  0  0  0  0  0  0  0  0  0  0
    7.6820    0.9598   -3.3543 H   0  0  0  0  0  0  0  0  0  0  0  0
    8.3278   -0.2287   -5.4631 H   0  0  0  0  0  0  0  0  0  0  0  0
    8.5138   -2.7085   -5.4836 H   0  0  0  0  0  0  0  0  0  0  0  0
    8.3652   -4.8556   -4.3101 H   0  0  0  0  0  0  0  0  0  0  0  0
    7.9359   -6.1672   -2.2464 H   0  0  0  0  0  0  0  0  0  0  0  0
    7.3101   -4.9874   -0.1296 H   0  0  0  0  0  0  0  0  0  0  0  0
    7.1182   -2.5469   -0.0722 H   0  0  0  0  0  0  0  0  0  0  0  0
  1  2  2  0
  2  3  1  0
  2  4  1  0
  3 22  1  0
  4  5  1  0
  4 23  1  0
  4 24  1  0
  5  6  1  0
  5 25  1  0
  5 26  1  0
  6  7  1  0
  6 27  1  0
  6 28  1  0
  7  8  1  0
  7 11  1  0
  8  9  1  0
  8 29  1  0
  8 30  1  0
  9 10  1  0
  9 31  1  0
  9 32  1  0
 10 11  1  0
 10 33  1  0
 10 34  1  0
 11 12  1  0
 11 35  1  1
 12 13  2  0
 12 21  1  0
 13 14  1  0
 13 36  1  0
 14 15  2  0
 14 37  1  0
 15 16  1  0
 15 38  1  0
 16 17  1  0
 16 21  2  0
 17 18  2  0
 17 39  1  0
 18 19  1  0
 18 40  1  0
 19 20  2  0
 19 41  1  0
 20 21  1  0
 20 42  1  0
M  END

