
     RDKit          3D

 38 40  0  0  0  0  0  0  0  0999 V2000
    2.6007   -0.9814    3.6374 C   0  0  0  0  0  0  0  0  0  0  0  0
    2.3479   -2.4654    3.5361 C   0  0  0  0  0  0  0  0  0  0  0  0
    2.2042   -3.2255    4.7093 C   0  0  0  0  0  0  0  0  0  0  0  0
    1.9738   -4.6021    4.6729 C   0  0  0  0  0  0  0  0  0  0  0  0
    1.8895   -5.2632    3.4451 C   0  0  0  0  0  0  0  0  0  0  0  0
    2.0334   -4.5344    2.2632 C   0  0  0  0  0  0  0  0  0  0  0  0
    2.2450   -3.1452    2.2990 C   0  0  0  0  0  0  0  0  0  0  0  0
    2.4983   -2.3061    0.7257 S   0  0  0  0  0  0  0  0  0  0  0  0
    0.7727   -1.8677    0.1811 C   0  0  1  0  0  0  0  0  0  0  0  0
   -0.2269   -3.0199    0.3711 C   0  0  0  0  0  0  0  0  0  0  0  0
   -0.1614   -4.1288   -0.0937 O   0  0  0  0  0  0  0  0  0  0  0  0
   -1.2160   -2.5187    1.2065 N   0  0  0  0  0  0  0  0  0  0  0  0
   -2.3472   -3.2503    1.6560 C   0  0  0  0  0  0  0  0  0  0  0  0
   -2.2128   -4.3420    2.5203 C   0  0  0  0  0  0  0  0  0  0  0  0
   -3.3414   -5.0503    2.9380 C   0  0  0  0  0  0  0  0  0  0  0  0
   -4.6124   -4.6615    2.5026 C   0  0  0  0  0  0  0  0  0  0  0  0
   -4.7604   -3.5727    1.6396 C   0  0  0  0  0  0  0  0  0  0  0  0
   -3.6266   -2.8857    1.2169 C   0  0  0  0  0  0  0  0  0  0  0  0
   -3.7534   -1.8631    0.3659 F   0  0  0  0  0  0  0  0  0  0  0  0
   -1.0141   -1.1411    1.5061 C   0  0  0  0  0  0  0  0  0  0  0  0
   -1.7375   -0.4573    2.1863 O   0  0  0  0  0  0  0  0  0  0  0  0
    0.1475   -0.7729    0.8684 N   0  0  0  0  0  0  0  0  0  0  0  0
    0.6166    0.5928    0.8113 C   0  0  0  0  0  0  0  0  0  0  0  0
    2.8928   -0.7055    4.6610 H   0  0  0  0  0  0  0  0  0  0  0  0
    1.6959   -0.4050    3.3853 H   0  0  0  0  0  0  0  0  0  0  0  0
    3.3928   -0.6573    2.9468 H   0  0  0  0  0  0  0  0  0  0  0  0
    2.2809   -2.7193    5.6755 H   0  0  0  0  0  0  0  0  0  0  0  0
    1.8707   -5.1596    5.6075 H   0  0  0  0  0  0  0  0  0  0  0  0
    1.7234   -6.3425    3.4036 H   0  0  0  0  0  0  0  0  0  0  0  0
    1.9720   -5.0325    1.2944 H   0  0  0  0  0  0  0  0  0  0  0  0
    0.9100   -1.6718   -0.8968 H   0  0  0  0  0  0  0  0  0  0  0  0
   -1.2146   -4.6255    2.8583 H   0  0  0  0  0  0  0  0  0  0  0  0
   -3.2280   -5.9032    3.6104 H   0  0  0  0  0  0  0  0  0  0  0  0
   -5.4978   -5.2089    2.8345 H   0  0  0  0  0  0  0  0  0  0  0  0
   -5.7383   -3.2488    1.2785 H   0  0  0  0  0  0  0  0  0  0  0  0
    0.0101    1.1912    1.5035 H   0  0  0  0  0  0  0  0  0  0  0  0
    0.5128    1.0106   -0.2061 H   0  0  0  0  0  0  0  0  0  0  0  0
    1.6753    0.6482    1.1072 H   0  0  0  0  0  0  0  0  0  0  0  0
  1  2  1  0
  1 24  1  0
  1 25  1  0
  1 26  1  0
  2  3  2  0
  2  7  1  0
  3  4  1  0
  3 27  1  0
  4  5  2  0
  4 28  1  0
  5  6  1  0
  5 29  1  0
  6  7  2  0
  6 30  1  0
  7  8  1  0
  8  9  1  0
  9 10  1  0
  9 22  1  0
  9 31  1  6
 10 11  2  0
 10 12  1  0
 12 13  1  0
 12 20  1  0
 13 14  2  0
 13 18  1  0
 14 15  1  0
 14 32  1  0
 15 16  2  0
 15 33  1  0
 16 17  1  0
 16 34  1  0
 17 18  2  0
 17 35  1  0
 18 19  1  0
 20 21  2  0
 20 22  1  0
 22 23  1  0
 23 36  1  0
 23 37  1  0
 23 38  1  0
M  END

