
     RDKit          3D

 35 35  0  0  0  0  0  0  0  0999 V2000
    0.8304   -0.0600   -0.3510 C   0  0  0  0  0  0  0  0  0  0  0  0
    2.3311    0.0874   -0.3720 C   0  0  0  0  0  0  0  0  0  0  0  0
    2.9139    1.3561   -0.4730 C   0  0  0  0  0  0  0  0  0  0  0  0
    4.3113    1.5196   -0.4627 C   0  0  0  0  0  0  0  0  0  0  0  0
    4.9347    2.7718   -0.5480 N   0  0  0  0  0  0  0  0  0  0  0  0
    4.3795    4.0156   -0.6716 C   0  0  0  0  0  0  0  0  0  0  0  0
    3.1868    4.2626   -0.7246 O   0  0  0  0  0  0  0  0  0  0  0  0
    5.4389    5.1394   -0.7958 C   0  0  1  0  0  0  0  0  0  0  0  0
    4.9250    6.4350   -0.1637 C   0  0  0  0  0  0  0  0  0  0  0  0
    6.7494    4.6860   -0.3181 N   0  0  0  0  0  0  0  0  0  0  0  0
    5.1325    0.3824   -0.3642 C   0  0  0  0  0  0  0  0  0  0  0  0
    4.5596   -0.8828   -0.2859 C   0  0  0  0  0  0  0  0  0  0  0  0
    3.1688   -1.0461   -0.2809 C   0  0  0  0  0  0  0  0  0  0  0  0
    2.6362   -2.3728   -0.2095 N   0  0  0  0  0  0  0  0  0  0  0  0
    2.1649   -3.0419    1.2899 S   0  0  1  0  0  0  0  0  0  0  0  0
    3.6319   -3.9446    1.7981 C   0  0  0  0  0  0  0  0  0  0  0  0
    1.9425   -1.9881    2.2832 O   0  0  0  0  0  0  0  0  0  0  0  0
    1.1184   -4.0106    0.9556 O   0  0  0  0  0  0  0  0  0  0  0  0
    0.3378    0.9207   -0.4002 H   0  0  0  0  0  0  0  0  0  0  0  0
    0.5043   -0.5671    0.5706 H   0  0  0  0  0  0  0  0  0  0  0  0
    0.4631   -0.6582   -1.2037 H   0  0  0  0  0  0  0  0  0  0  0  0
    2.2864    2.2418   -0.5497 H   0  0  0  0  0  0  0  0  0  0  0  0
    5.9548    2.8074   -0.5082 H   0  0  0  0  0  0  0  0  0  0  0  0
    5.5356    5.2986   -1.8858 H   0  0  0  0  0  0  0  0  0  0  0  0
    4.8352    6.3262    0.9304 H   0  0  0  0  0  0  0  0  0  0  0  0
    3.9297    6.6856   -0.5552 H   0  0  0  0  0  0  0  0  0  0  0  0
    5.6143    7.2679   -0.3740 H   0  0  0  0  0  0  0  0  0  0  0  0
    6.8272    4.8235    0.6915 H   0  0  0  0  0  0  0  0  0  0  0  0
    7.5012    5.2268   -0.7430 H   0  0  0  0  0  0  0  0  0  0  0  0
    6.2203    0.4926   -0.3658 H   0  0  0  0  0  0  0  0  0  0  0  0
    5.1943   -1.7708   -0.2436 H   0  0  0  0  0  0  0  0  0  0  0  0
    1.8764   -2.5825   -0.8573 H   0  0  0  0  0  0  0  0  0  0  0  0
    4.4600   -3.2347    1.9187 H   0  0  0  0  0  0  0  0  0  0  0  0
    3.8550   -4.7033    1.0383 H   0  0  0  0  0  0  0  0  0  0  0  0
    3.3840   -4.4105    2.7616 H   0  0  0  0  0  0  0  0  0  0  0  0
  1  2  1  0
  1 19  1  0
  1 20  1  0
  1 21  1  0
  2  3  2  0
  2 13  1  0
  3  4  1  0
  3 22  1  0
  4  5  1  0
  4 11  2  0
  5  6  1  0
  5 23  1  0
  6  7  2  0
  6  8  1  0
  8  9  1  0
  8 10  1  0
  8 24  1  6
  9 25  1  0
  9 26  1  0
  9 27  1  0
 10 28  1  0
 10 29  1  0
 11 12  1  0
 11 30  1  0
 12 13  2  0
 12 31  1  0
 13 14  1  0
 15 14  1  6
 14 32  1  0
 15 16  1  0
 15 17  2  0
 15 18  2  0
 16 33  1  0
 16 34  1  0
 16 35  1  0
M  END

