
     RDKit          3D

 40 42  0  0  0  0  0  0  0  0999 V2000
    1.2381   -2.0742   -2.0741 C   0  0  0  0  0  0  0  0  0  0  0  0
    2.5572   -2.2146   -1.3626 C   0  0  0  0  0  0  0  0  0  0  0  0
    3.1723   -3.4945   -1.1920 C   0  0  0  0  0  0  0  0  0  0  0  0
    4.3723   -3.6162   -0.5450 C   0  0  0  0  0  0  0  0  0  0  0  0
    5.0503   -2.4733   -0.0180 C   0  0  0  0  0  0  0  0  0  0  0  0
    6.2111   -2.6027    0.6108 N   0  0  0  0  0  0  0  0  0  0  0  0
    6.8002   -1.4901    1.0955 C   0  0  0  0  0  0  0  0  0  0  0  0
    8.0847   -1.6817    1.8717 C   0  0  0  0  0  0  0  0  0  0  0  0
    8.7213   -2.8628    1.4095 O   0  0  0  0  0  0  0  0  0  0  0  0
    9.8405   -3.2763    2.0530 C   0  0  0  0  0  0  0  0  0  0  0  0
   10.3541   -2.6258    2.9323 O   0  0  0  0  0  0  0  0  0  0  0  0
   10.3368   -4.5813    1.5430 C   0  0  0  0  0  0  0  0  0  0  0  0
   11.5913   -4.9771    2.0265 C   0  0  0  0  0  0  0  0  0  0  0  0
   12.1655   -6.1752    1.6270 C   0  0  0  0  0  0  0  0  0  0  0  0
   13.4789   -6.5604    2.1408 N   0  0  0  0  0  0  0  0  0  0  0  0
   14.0370   -5.7979    2.9167 O   0  0  0  0  0  0  0  0  0  0  0  0
   13.9436   -7.6284    1.7616 O   0  0  0  0  0  0  0  0  0  0  0  0
   11.4939   -7.0240    0.7313 C   0  0  0  0  0  0  0  0  0  0  0  0
   10.2540   -6.6570    0.2529 C   0  0  0  0  0  0  0  0  0  0  0  0
    9.6238   -5.4353    0.6344 C   0  0  0  0  0  0  0  0  0  0  0  0
    8.3983   -5.1561    0.1346 N   0  0  0  0  0  0  0  0  0  0  0  0
    6.2712   -0.2208    0.9621 C   0  0  0  0  0  0  0  0  0  0  0  0
    5.0235    0.0027    0.3030 C   0  0  0  0  0  0  0  0  0  0  0  0
    4.4360    1.0498    0.1148 O   0  0  0  0  0  0  0  0  0  0  0  0
    4.4241   -1.2456   -0.1963 N   0  0  0  0  0  0  0  0  0  0  0  0
    3.2182   -1.1305   -0.8497 C   0  0  0  0  0  0  0  0  0  0  0  0
    0.4510   -2.6568   -1.5671 H   0  0  0  0  0  0  0  0  0  0  0  0
    1.3041   -2.4514   -3.1083 H   0  0  0  0  0  0  0  0  0  0  0  0
    0.9112   -1.0258   -2.1153 H   0  0  0  0  0  0  0  0  0  0  0  0
    2.6726   -4.3851   -1.5833 H   0  0  0  0  0  0  0  0  0  0  0  0
    4.8587   -4.5801   -0.3945 H   0  0  0  0  0  0  0  0  0  0  0  0
    7.8662   -1.7773    2.9503 H   0  0  0  0  0  0  0  0  0  0  0  0
    8.7519   -0.8130    1.7579 H   0  0  0  0  0  0  0  0  0  0  0  0
   12.1165   -4.3265    2.7250 H   0  0  0  0  0  0  0  0  0  0  0  0
   11.9659   -7.9598    0.4322 H   0  0  0  0  0  0  0  0  0  0  0  0
    9.7263   -7.3176   -0.4404 H   0  0  0  0  0  0  0  0  0  0  0  0
    7.9674   -5.8226   -0.4905 H   0  0  0  0  0  0  0  0  0  0  0  0
    7.8972   -4.3021    0.3729 H   0  0  0  0  0  0  0  0  0  0  0  0
    6.7819    0.6603    1.3524 H   0  0  0  0  0  0  0  0  0  0  0  0
    2.8602   -0.1020   -0.9092 H   0  0  0  0  0  0  0  0  0  0  0  0
  1  2  1  0
  1 27  1  0
  1 28  1  0
  1 29  1  0
  2  3  1  0
  2 26  2  0
  3  4  2  0
  3 30  1  0
  4  5  1  0
  4 31  1  0
  5  6  2  0
  5 25  1  0
  6  7  1  0
  7  8  1  0
  7 22  2  0
  8  9  1  0
  8 32  1  0
  8 33  1  0
  9 10  1  0
 10 11  2  0
 10 12  1  0
 12 13  2  0
 12 20  1  0
 13 14  1  0
 13 34  1  0
 14 15  1  0
 14 18  2  0
 15 16  2  0
 15 17  1  0
 18 19  1  0
 18 35  1  0
 19 20  2  0
 19 36  1  0
 20 21  1  0
 21 37  1  0
 21 38  1  0
 22 23  1  0
 22 39  1  0
 23 24  2  0
 23 25  1  0
 25 26  1  0
 26 40  1  0
M  CHG  2  15   1  17  -1
M  END

