
     RDKit          3D

 41 42  0  0  0  0  0  0  0  0999 V2000
    1.3102   -0.0710   -0.3483 O   0  0  0  0  0  0  0  0  0  0  0  0
    2.3803    0.3595    0.0571 C   0  0  0  0  0  0  0  0  0  0  0  0
    3.1365   -0.3289    1.1945 C   0  0  0  0  0  0  0  0  0  0  0  0
    2.3132   -1.4302    1.8635 C   0  0  0  0  0  0  0  0  0  0  0  0
    3.0411   -2.1546    3.0137 C   0  0  1  0  0  0  0  0  0  0  0  0
    2.0815   -3.0383    3.8411 C   0  0  0  0  0  0  0  0  0  0  0  0
    1.7043   -4.3343    3.1167 C   0  0  0  0  0  0  0  0  0  0  0  0
    2.9134   -5.0701    2.7647 N   0  0  0  0  0  0  0  0  0  0  0  0
    3.7896   -4.3198    1.8735 C   0  0  0  0  0  0  0  0  0  0  0  0
    4.2358   -3.0219    2.5548 C   0  0  0  0  0  0  0  0  0  0  0  0
    2.9689    1.4650   -0.5124 N   0  0  0  0  0  0  0  0  0  0  0  0
    2.4463    2.0085   -1.7694 C   0  0  0  0  0  0  0  0  0  0  0  0
    3.7174    2.2526   -2.5864 C   0  0  0  0  0  0  0  0  0  0  0  0
    4.7276    2.7231   -1.5276 C   0  0  0  0  0  0  0  0  0  0  0  0
    4.2971    2.0196   -0.2102 C   0  0  1  0  0  0  0  0  0  0  0  0
    5.0030    1.2118    0.0431 H   0  0  0  0  0  0  0  0  0  0  0  0
    4.2631    2.9949    0.9707 C   0  0  0  0  0  0  0  0  0  0  0  0
    5.5710    3.4963    1.1433 O   0  0  0  0  0  0  0  0  0  0  0  0
    3.4569    0.4150    1.9423 H   0  0  0  0  0  0  0  0  0  0  0  0
    4.0720   -0.7380    0.7721 H   0  0  0  0  0  0  0  0  0  0  0  0
    1.9768   -2.1364    1.0897 H   0  0  0  0  0  0  0  0  0  0  0  0
    1.3867   -0.9782    2.2554 H   0  0  0  0  0  0  0  0  0  0  0  0
    3.4349   -1.3727    3.6894 H   0  0  0  0  0  0  0  0  0  0  0  0
    1.1697   -2.4738    4.0997 H   0  0  0  0  0  0  0  0  0  0  0  0
    2.5766   -3.3115    4.7885 H   0  0  0  0  0  0  0  0  0  0  0  0
    1.0731   -4.0940    2.2304 H   0  0  0  0  0  0  0  0  0  0  0  0
    1.0871   -4.9630    3.7799 H   0  0  0  0  0  0  0  0  0  0  0  0
    2.6766   -5.9720    2.3564 H   0  0  0  0  0  0  0  0  0  0  0  0
    3.3069   -4.0796    0.8976 H   0  0  0  0  0  0  0  0  0  0  0  0
    4.6731   -4.9376    1.6412 H   0  0  0  0  0  0  0  0  0  0  0  0
    4.9023   -2.4575    1.8815 H   0  0  0  0  0  0  0  0  0  0  0  0
    4.8355   -3.2922    3.4405 H   0  0  0  0  0  0  0  0  0  0  0  0
    1.8958    2.9522   -1.5941 H   0  0  0  0  0  0  0  0  0  0  0  0
    1.7421    1.2899   -2.2071 H   0  0  0  0  0  0  0  0  0  0  0  0
    3.5756    2.9832   -3.3972 H   0  0  0  0  0  0  0  0  0  0  0  0
    4.0468    1.3050   -3.0442 H   0  0  0  0  0  0  0  0  0  0  0  0
    4.6677    3.8152   -1.3953 H   0  0  0  0  0  0  0  0  0  0  0  0
    5.7703    2.4963   -1.7902 H   0  0  0  0  0  0  0  0  0  0  0  0
    3.5329    3.7986    0.7426 H   0  0  0  0  0  0  0  0  0  0  0  0
    3.9019    2.4767    1.8800 H   0  0  0  0  0  0  0  0  0  0  0  0
    5.5637    4.1511    1.8516 H   0  0  0  0  0  0  0  0  0  0  0  0
  1  2  2  0
  2  3  1  0
  2 11  1  0
  3  4  1  0
  3 19  1  0
  3 20  1  0
  4  5  1  0
  4 21  1  0
  4 22  1  0
  5  6  1  0
  5 10  1  0
  5 23  1  1
  6  7  1  0
  6 24  1  0
  6 25  1  0
  7  8  1  0
  7 26  1  0
  7 27  1  0
  8  9  1  0
  8 28  1  0
  9 10  1  0
  9 29  1  0
  9 30  1  0
 10 31  1  0
 10 32  1  0
 11 12  1  0
 11 15  1  0
 12 13  1  0
 12 33  1  0
 12 34  1  0
 13 14  1  0
 13 35  1  0
 13 36  1  0
 14 15  1  0
 14 37  1  0
 14 38  1  0
 15 16  1  1
 15 17  1  0
 17 18  1  0
 17 39  1  0
 17 40  1  0
 18 41  1  0
M  END

