
     RDKit          3D

 50 56  0  0  0  0  0  0  0  0999 V2000
   -0.3494   -2.0947    1.7904 C   0  0  0  0  0  0  0  0  0  0  0  0
    0.0424   -1.1097    2.7071 C   0  0  0  0  0  0  0  0  0  0  0  0
    0.4587    0.1525    2.2629 C   0  0  0  0  0  0  0  0  0  0  0  0
    0.4769    0.4123    0.8951 C   0  0  0  0  0  0  0  0  0  0  0  0
    0.0831   -0.5765   -0.0302 C   0  0  0  0  0  0  0  0  0  0  0  0
   -0.3322   -1.8359    0.4159 C   0  0  0  0  0  0  0  0  0  0  0  0
    0.2032   -0.0235   -1.3882 C   0  0  0  0  0  0  0  0  0  0  0  0
   -0.0630   -0.5918   -2.6388 C   0  0  0  0  0  0  0  0  0  0  0  0
    0.1427    0.1772   -3.7888 C   0  0  0  0  0  0  0  0  0  0  0  0
    0.6077    1.4958   -3.6920 C   0  0  0  0  0  0  0  0  0  0  0  0
    0.8749    2.0674   -2.4409 C   0  0  0  0  0  0  0  0  0  0  0  0
    0.6712    1.3036   -1.2948 C   0  0  0  0  0  0  0  0  0  0  0  0
    0.8882    1.6994    0.1705 C   0  0  1  0  0  0  0  0  0  0  0  0
    0.0871    2.9335    0.6008 C   0  0  0  0  0  0  0  0  0  0  0  0
   -1.2902    3.1329    0.5624 C   0  0  0  0  0  0  0  0  0  0  0  0
   -1.8108    4.3535    1.0127 C   0  0  0  0  0  0  0  0  0  0  0  0
   -0.9605    5.3582    1.4949 C   0  0  0  0  0  0  0  0  0  0  0  0
    0.4232    5.1607    1.5354 C   0  0  0  0  0  0  0  0  0  0  0  0
    0.9456    3.9425    1.0864 C   0  0  0  0  0  0  0  0  0  0  0  0
    2.3296    3.4558    1.0095 C   0  0  0  0  0  0  0  0  0  0  0  0
    3.5437    4.0579    1.3557 C   0  0  0  0  0  0  0  0  0  0  0  0
    4.7320    3.3501    1.1683 C   0  0  0  0  0  0  0  0  0  0  0  0
    4.7365    2.0410    0.6425 C   0  0  0  0  0  0  0  0  0  0  0  0
    6.0116    1.3025    0.4558 C   0  0  0  0  0  0  0  0  0  0  0  0
    6.0942   -0.0903    0.6337 C   0  0  0  0  0  0  0  0  0  0  0  0
    7.3178   -0.7370    0.4464 C   0  0  0  0  0  0  0  0  0  0  0  0
    8.4453   -0.1097    0.1013 N   0  0  0  0  0  0  0  0  0  0  0  0
    8.3743    1.2129   -0.0697 C   0  0  0  0  0  0  0  0  0  0  0  0
    7.2028    1.9559    0.0917 C   0  0  0  0  0  0  0  0  0  0  0  0
    3.5045    1.4451    0.3001 C   0  0  0  0  0  0  0  0  0  0  0  0
    2.3208    2.1487    0.4809 C   0  0  0  0  0  0  0  0  0  0  0  0
   -0.6715   -3.0741    2.1533 H   0  0  0  0  0  0  0  0  0  0  0  0
    0.0227   -1.3275    3.7779 H   0  0  0  0  0  0  0  0  0  0  0  0
    0.7634    0.9187    2.9803 H   0  0  0  0  0  0  0  0  0  0  0  0
   -0.6390   -2.6074   -0.2950 H   0  0  0  0  0  0  0  0  0  0  0  0
   -0.4259   -1.6196   -2.7199 H   0  0  0  0  0  0  0  0  0  0  0  0
   -0.0608   -0.2538   -4.7724 H   0  0  0  0  0  0  0  0  0  0  0  0
    0.7636    2.0832   -4.6004 H   0  0  0  0  0  0  0  0  0  0  0  0
    1.2371    3.0960   -2.3684 H   0  0  0  0  0  0  0  0  0  0  0  0
   -1.9562    2.3517    0.1876 H   0  0  0  0  0  0  0  0  0  0  0  0
   -2.8901    4.5234    0.9881 H   0  0  0  0  0  0  0  0  0  0  0  0
   -1.3833    6.3042    1.8426 H   0  0  0  0  0  0  0  0  0  0  0  0
    1.0823    5.9470    1.9123 H   0  0  0  0  0  0  0  0  0  0  0  0
    3.5695    5.0669    1.7749 H   0  0  0  0  0  0  0  0  0  0  0  0
    5.6776    3.8118    1.4604 H   0  0  0  0  0  0  0  0  0  0  0  0
    5.2192   -0.6674    0.9400 H   0  0  0  0  0  0  0  0  0  0  0  0
    7.3860   -1.8223    0.5903 H   0  0  0  0  0  0  0  0  0  0  0  0
    9.3031    1.7194   -0.3594 H   0  0  0  0  0  0  0  0  0  0  0  0
    7.2165    3.0325   -0.0906 H   0  0  0  0  0  0  0  0  0  0  0  0
    3.4834    0.4410   -0.1294 H   0  0  0  0  0  0  0  0  0  0  0  0
  1  2  2  0
  1  6  1  0
  1 32  1  0
  2  3  1  0
  2 33  1  0
  3  4  2  0
  3 34  1  0
  4  5  1  0
 13  4  1  1
  5  6  2  0
  5  7  1  0
  6 35  1  0
  7  8  2  0
  7 12  1  0
  8  9  1  0
  8 36  1  0
  9 10  2  0
  9 37  1  0
 10 11  1  0
 10 38  1  0
 11 12  2  0
 11 39  1  0
 12 13  1  0
 13 14  1  0
 13 31  1  0
 14 15  2  0
 14 19  1  0
 15 16  1  0
 15 40  1  0
 16 17  2  0
 16 41  1  0
 17 18  1  0
 17 42  1  0
 18 19  2  0
 18 43  1  0
 19 20  1  0
 20 21  2  0
 20 31  1  0
 21 22  1  0
 21 44  1  0
 22 23  2  0
 22 45  1  0
 23 24  1  0
 23 30  1  0
 24 25  2  0
 24 29  1  0
 25 26  1  0
 25 46  1  0
 26 27  2  0
 26 47  1  0
 27 28  1  0
 28 29  2  0
 28 48  1  0
 29 49  1  0
 30 31  2  0
 30 50  1  0
M  END

