
     RDKit          3D

 40 41  0  0  0  0  0  0  0  0999 V2000
    1.4390   -1.3773   -5.9181 C   0  0  0  0  0  0  0  0  0  0  0  0
    2.9060   -1.1715   -5.5415 C   0  0  0  0  0  0  0  0  0  0  0  0
    3.1244   -0.9628   -4.0433 C   0  0  0  0  0  0  0  0  0  0  0  0
    4.5328   -0.8180   -3.7223 N   0  0  0  0  0  0  0  0  0  0  0  0
    4.8152   -0.6306   -2.3083 C   0  0  0  0  0  0  0  0  0  0  0  0
    6.2923   -0.5104   -2.0432 C   0  0  0  0  0  0  0  0  0  0  0  0
    6.9412    0.6477   -1.6787 C   0  0  0  0  0  0  0  0  0  0  0  0
    8.6375    0.3674   -1.4961 S   0  0  0  0  0  0  0  0  0  0  0  0
    8.3551   -1.3129   -1.9301 C   0  0  0  0  0  0  0  0  0  0  0  0
    9.4679   -2.2571   -1.9840 C   0  0  0  0  0  0  0  0  0  0  0  0
    9.3543   -3.5875   -2.3202 C   0  0  0  0  0  0  0  0  0  0  0  0
   10.9043   -4.3357   -2.2612 S   0  0  0  0  0  0  0  0  0  0  0  0
   11.6164   -2.7929   -1.7826 C   0  0  0  0  0  0  0  0  0  0  0  0
   13.1030   -2.6097   -1.5077 C   0  0  1  0  0  0  0  0  0  0  0  0
   13.8802   -3.9199   -1.7173 C   0  0  0  0  0  0  0  0  0  0  0  0
   13.6385   -1.5250   -2.4686 C   0  0  0  0  0  0  0  0  0  0  0  0
   13.2649   -2.1342   -0.0465 C   0  0  0  0  0  0  0  0  0  0  0  0
   10.7420   -1.8365   -1.6879 N   0  0  0  0  0  0  0  0  0  0  0  0
    7.1088   -1.6039   -2.1799 N   0  0  0  0  0  0  0  0  0  0  0  0
    1.3191   -1.5186   -7.0038 H   0  0  0  0  0  0  0  0  0  0  0  0
    0.8205   -0.5120   -5.6259 H   0  0  0  0  0  0  0  0  0  0  0  0
    1.0179   -2.2666   -5.4198 H   0  0  0  0  0  0  0  0  0  0  0  0
    3.3075   -0.2973   -6.0878 H   0  0  0  0  0  0  0  0  0  0  0  0
    3.5125   -2.0353   -5.8622 H   0  0  0  0  0  0  0  0  0  0  0  0
    2.7366   -1.8403   -3.4929 H   0  0  0  0  0  0  0  0  0  0  0  0
    2.5072   -0.0977   -3.6985 H   0  0  0  0  0  0  0  0  0  0  0  0
    4.9411   -0.0530   -4.2592 H   0  0  0  0  0  0  0  0  0  0  0  0
    4.4353   -1.5134   -1.7645 H   0  0  0  0  0  0  0  0  0  0  0  0
    4.3006    0.2540   -1.8680 H   0  0  0  0  0  0  0  0  0  0  0  0
    6.5069    1.6314   -1.5078 H   0  0  0  0  0  0  0  0  0  0  0  0
    8.4469   -4.1228   -2.5904 H   0  0  0  0  0  0  0  0  0  0  0  0
   13.7911   -4.2850   -2.7532 H   0  0  0  0  0  0  0  0  0  0  0  0
   13.5282   -4.7151   -1.0405 H   0  0  0  0  0  0  0  0  0  0  0  0
   14.9499   -3.7590   -1.5124 H   0  0  0  0  0  0  0  0  0  0  0  0
   13.5460   -1.8448   -3.5186 H   0  0  0  0  0  0  0  0  0  0  0  0
   14.7028   -1.3260   -2.2629 H   0  0  0  0  0  0  0  0  0  0  0  0
   13.0754   -0.5885   -2.3472 H   0  0  0  0  0  0  0  0  0  0  0  0
   12.8998   -2.8955    0.6610 H   0  0  0  0  0  0  0  0  0  0  0  0
   12.6954   -1.2094    0.1247 H   0  0  0  0  0  0  0  0  0  0  0  0
   14.3269   -1.9406    0.1756 H   0  0  0  0  0  0  0  0  0  0  0  0
  1  2  1  0
  1 20  1  0
  1 21  1  0
  1 22  1  0
  2  3  1  0
  2 23  1  0
  2 24  1  0
  3  4  1  0
  3 25  1  0
  3 26  1  0
  4  5  1  0
  4 27  1  0
  5  6  1  0
  5 28  1  0
  5 29  1  0
  6  7  2  0
  6 19  1  0
  7  8  1  0
  7 30  1  0
  8  9  1  0
  9 10  1  0
  9 19  2  0
 10 11  2  0
 10 18  1  0
 11 12  1  0
 11 31  1  0
 12 13  1  0
 13 14  1  0
 13 18  2  0
 14 15  1  1
 14 16  1  0
 14 17  1  0
 15 32  1  0
 15 33  1  0
 15 34  1  0
 16 35  1  0
 16 36  1  0
 16 37  1  0
 17 38  1  0
 17 39  1  0
 17 40  1  0
M  END

