
     RDKit          3D

 53 55  0  0  0  0  0  0  0  0999 V2000
    0.8224    0.2677   -0.3808 C   0  0  0  0  0  0  0  0  0  0  0  0
    2.3259    0.0072   -0.2003 C   0  0  1  0  0  0  0  0  0  0  0  0
    2.8618   -0.8031   -1.4154 C   0  0  0  0  0  0  0  0  0  0  0  0
    2.1406   -1.5680   -2.0387 O   0  0  0  0  0  0  0  0  0  0  0  0
    4.1844   -0.6211   -1.6665 N   0  0  0  0  0  0  0  0  0  0  0  0
    4.9121   -1.3421   -2.7029 C   0  0  1  0  0  0  0  0  0  0  0  0
    5.5909   -0.3773   -3.6954 C   0  0  0  0  0  0  0  0  0  0  0  0
    6.7858    0.3616   -3.0755 C   0  0  0  0  0  0  0  0  0  0  0  0
    7.8056   -0.6181   -2.4775 C   0  0  0  0  0  0  0  0  0  0  0  0
    7.1465   -1.5784   -1.4771 C   0  0  0  0  0  0  0  0  0  0  0  0
    5.9519   -2.3117   -2.1031 C   0  0  0  0  0  0  0  0  0  0  0  0
    3.1932    1.1424    0.1161 N   0  0  0  0  0  0  0  0  0  0  0  0
    3.0950    2.3420   -0.7170 C   0  0  0  0  0  0  0  0  0  0  0  0
    2.1263    3.4117   -0.1784 C   0  0  0  0  0  0  0  0  0  0  0  0
    2.4070    3.7478    1.2868 C   0  0  2  0  0  0  0  0  0  0  0  0
    3.6764    4.4399    1.3126 O   0  0  0  0  0  0  0  0  0  0  0  0
    3.9607    5.2787    2.3277 C   0  0  0  0  0  0  0  0  0  0  0  0
    5.2050    5.9443    2.2759 C   0  0  0  0  0  0  0  0  0  0  0  0
    5.5150    6.8211    3.3055 C   0  0  0  0  0  0  0  0  0  0  0  0
    4.5944    7.0145    4.3480 C   0  0  0  0  0  0  0  0  0  0  0  0
    3.3984    6.3045    4.2963 C   0  0  0  0  0  0  0  0  0  0  0  0
    3.0865    5.4522    3.3103 N   0  0  0  0  0  0  0  0  0  0  0  0
    2.4764    2.4712    2.1338 C   0  0  0  0  0  0  0  0  0  0  0  0
    3.4525    1.4543    1.5204 C   0  0  0  0  0  0  0  0  0  0  0  0
    0.3195   -0.6797   -0.6161 H   0  0  0  0  0  0  0  0  0  0  0  0
    0.6260    0.9525   -1.2201 H   0  0  0  0  0  0  0  0  0  0  0  0
    0.3776    0.6913    0.5317 H   0  0  0  0  0  0  0  0  0  0  0  0
    2.4348   -0.6955    0.6455 H   0  0  0  0  0  0  0  0  0  0  0  0
    4.6397    0.0544   -1.0579 H   0  0  0  0  0  0  0  0  0  0  0  0
    4.1420   -1.9243   -3.2296 H   0  0  0  0  0  0  0  0  0  0  0  0
    4.8455    0.3364   -4.0824 H   0  0  0  0  0  0  0  0  0  0  0  0
    5.9428   -0.9681   -4.5601 H   0  0  0  0  0  0  0  0  0  0  0  0
    6.4287    1.0474   -2.2843 H   0  0  0  0  0  0  0  0  0  0  0  0
    7.2671    1.0033   -3.8324 H   0  0  0  0  0  0  0  0  0  0  0  0
    8.6312   -0.0675   -1.9959 H   0  0  0  0  0  0  0  0  0  0  0  0
    8.2613   -1.2069   -3.2954 H   0  0  0  0  0  0  0  0  0  0  0  0
    6.8083   -1.0094   -0.5909 H   0  0  0  0  0  0  0  0  0  0  0  0
    7.8838   -2.3078   -1.1020 H   0  0  0  0  0  0  0  0  0  0  0  0
    5.4596   -2.9644   -1.3641 H   0  0  0  0  0  0  0  0  0  0  0  0
    6.3155   -2.9689   -2.9135 H   0  0  0  0  0  0  0  0  0  0  0  0
    2.8126    2.0489   -1.7396 H   0  0  0  0  0  0  0  0  0  0  0  0
    4.0992    2.7987   -0.7877 H   0  0  0  0  0  0  0  0  0  0  0  0
    1.0859    3.0593   -0.2514 H   0  0  0  0  0  0  0  0  0  0  0  0
    2.2047    4.3285   -0.7853 H   0  0  0  0  0  0  0  0  0  0  0  0
    1.6423    4.4259    1.6920 H   0  0  0  0  0  0  0  0  0  0  0  0
    5.8800    5.7590    1.4390 H   0  0  0  0  0  0  0  0  0  0  0  0
    6.4685    7.3561    3.3002 H   0  0  0  0  0  0  0  0  0  0  0  0
    4.8029    7.6956    5.1751 H   0  0  0  0  0  0  0  0  0  0  0  0
    2.6488    6.4205    5.0879 H   0  0  0  0  0  0  0  0  0  0  0  0
    1.4615    2.0426    2.1918 H   0  0  0  0  0  0  0  0  0  0  0  0
    2.7735    2.7278    3.1624 H   0  0  0  0  0  0  0  0  0  0  0  0
    3.4477    0.5182    2.1001 H   0  0  0  0  0  0  0  0  0  0  0  0
    4.4740    1.8699    1.6002 H   0  0  0  0  0  0  0  0  0  0  0  0
  1  2  1  0
  1 25  1  0
  1 26  1  0
  1 27  1  0
  2  3  1  0
  2 12  1  0
  2 28  1  1
  3  4  2  0
  3  5  1  0
  5  6  1  0
  5 29  1  0
  6  7  1  0
  6 11  1  0
  6 30  1  6
  7  8  1  0
  7 31  1  0
  7 32  1  0
  8  9  1  0
  8 33  1  0
  8 34  1  0
  9 10  1  0
  9 35  1  0
  9 36  1  0
 10 11  1  0
 10 37  1  0
 10 38  1  0
 11 39  1  0
 11 40  1  0
 12 13  1  0
 12 24  1  0
 13 14  1  0
 13 41  1  0
 13 42  1  0
 14 15  1  0
 14 43  1  0
 14 44  1  0
 15 16  1  0
 15 23  1  0
 15 45  1  1
 16 17  1  0
 17 18  2  0
 17 22  1  0
 18 19  1  0
 18 46  1  0
 19 20  2  0
 19 47  1  0
 20 21  1  0
 20 48  1  0
 21 22  2  0
 21 49  1  0
 23 24  1  0
 23 50  1  0
 23 51  1  0
 24 52  1  0
 24 53  1  0
M  END

