
     RDKit          3D

 58 61  0  0  0  0  0  0  0  0999 V2000
    4.8304   -3.2234    4.5992 C   0  0  0  0  0  0  0  0  0  0  0  0
    5.8243   -2.6538    3.7170 N   0  0  0  0  0  0  0  0  0  0  0  0
    7.0705   -2.2100    4.0253 C   0  0  0  0  0  0  0  0  0  0  0  0
    7.6532   -1.7617    2.8534 C   0  0  0  0  0  0  0  0  0  0  0  0
    6.6470   -1.9821    1.8715 C   0  0  0  0  0  0  0  0  0  0  0  0
    6.6462   -1.7097    0.4842 N   0  0  0  0  0  0  0  0  0  0  0  0
    5.4178   -2.1205   -0.2340 C   0  0  0  0  0  0  0  0  0  0  0  0
    5.3230   -1.5791   -1.6540 C   0  0  0  0  0  0  0  0  0  0  0  0
    6.6480   -1.7311   -2.3896 C   0  0  0  0  0  0  0  0  0  0  0  0
    7.6951   -0.9132   -1.6358 C   0  0  2  0  0  0  0  0  0  0  0  0
    9.0327   -1.0034   -2.1887 N   0  0  0  0  0  0  0  0  0  0  0  0
    9.3599   -0.1440   -3.2283 C   0  0  0  0  0  0  0  0  0  0  0  0
    8.5148    0.5609   -3.7705 O   0  0  0  0  0  0  0  0  0  0  0  0
   10.6868   -0.1343   -3.6130 N   0  0  0  0  0  0  0  0  0  0  0  0
   11.6965   -1.0887   -3.1782 C   0  0  0  0  0  0  0  0  0  0  0  0
   12.7544   -0.5129   -2.2287 C   0  0  0  0  0  0  0  0  0  0  0  0
   13.5015    0.7214   -2.7592 C   0  0  0  0  0  0  0  0  0  0  0  0
   12.7510    2.0869   -2.7917 C   0  0  2  0  0  0  0  0  0  0  0  0
   12.3756    2.5384   -1.3823 C   0  0  0  0  0  0  0  0  0  0  0  0
   13.2336    3.3973   -0.6747 C   0  0  0  0  0  0  0  0  0  0  0  0
   12.9486    3.7958    0.6346 C   0  0  0  0  0  0  0  0  0  0  0  0
   11.7931    3.3354    1.2720 C   0  0  0  0  0  0  0  0  0  0  0  0
   10.9271    2.4805    0.5846 C   0  0  0  0  0  0  0  0  0  0  0  0
   11.2134    2.0939   -0.7279 C   0  0  0  0  0  0  0  0  0  0  0  0
   11.5794    2.1969   -3.8232 C   0  0  0  0  0  0  0  0  0  0  0  0
   11.1199    0.9145   -4.5288 C   0  0  0  0  0  0  0  0  0  0  0  0
    7.7869   -1.2633   -0.1418 C   0  0  0  0  0  0  0  0  0  0  0  0
    8.8490   -1.0953    0.4459 O   0  0  0  0  0  0  0  0  0  0  0  0
    5.5519   -2.5236    2.4097 N   0  0  0  0  0  0  0  0  0  0  0  0
    5.2279   -3.2432    5.6226 H   0  0  0  0  0  0  0  0  0  0  0  0
    4.5826   -4.2504    4.2884 H   0  0  0  0  0  0  0  0  0  0  0  0
    3.9098   -2.6198    4.5813 H   0  0  0  0  0  0  0  0  0  0  0  0
    7.4542   -2.2448    5.0431 H   0  0  0  0  0  0  0  0  0  0  0  0
    8.6418   -1.3483    2.7061 H   0  0  0  0  0  0  0  0  0  0  0  0
    4.5600   -1.7993    0.3710 H   0  0  0  0  0  0  0  0  0  0  0  0
    5.3863   -3.2243   -0.2384 H   0  0  0  0  0  0  0  0  0  0  0  0
    5.0363   -0.5132   -1.6347 H   0  0  0  0  0  0  0  0  0  0  0  0
    4.5091   -2.1130   -2.1694 H   0  0  0  0  0  0  0  0  0  0  0  0
    6.5864   -1.3573   -3.4217 H   0  0  0  0  0  0  0  0  0  0  0  0
    6.9598   -2.7895   -2.4316 H   0  0  0  0  0  0  0  0  0  0  0  0
    7.3640    0.1438   -1.6769 H   0  0  0  0  0  0  0  0  0  0  0  0
    9.7314   -1.1546   -1.4638 H   0  0  0  0  0  0  0  0  0  0  0  0
   12.2040   -1.4755   -4.0829 H   0  0  0  0  0  0  0  0  0  0  0  0
   11.1976   -1.9541   -2.7202 H   0  0  0  0  0  0  0  0  0  0  0  0
   13.4940   -1.3108   -2.0386 H   0  0  0  0  0  0  0  0  0  0  0  0
   12.2997   -0.2838   -1.2511 H   0  0  0  0  0  0  0  0  0  0  0  0
   13.8855    0.5050   -3.7729 H   0  0  0  0  0  0  0  0  0  0  0  0
   14.3954    0.8703   -2.1311 H   0  0  0  0  0  0  0  0  0  0  0  0
   13.5206    2.8002   -3.1281 H   0  0  0  0  0  0  0  0  0  0  0  0
   14.1419    3.7652   -1.1623 H   0  0  0  0  0  0  0  0  0  0  0  0
   13.6319    4.4709    1.1571 H   0  0  0  0  0  0  0  0  0  0  0  0
   11.5681    3.6423    2.2967 H   0  0  0  0  0  0  0  0  0  0  0  0
   10.0234    2.1004    1.0679 H   0  0  0  0  0  0  0  0  0  0  0  0
   10.5162    1.4294   -1.2400 H   0  0  0  0  0  0  0  0  0  0  0  0
   11.8696    2.9127   -4.6114 H   0  0  0  0  0  0  0  0  0  0  0  0
   10.6976    2.6399   -3.3359 H   0  0  0  0  0  0  0  0  0  0  0  0
   11.9244    0.5009   -5.1589 H   0  0  0  0  0  0  0  0  0  0  0  0
   10.2755    1.1605   -5.1873 H   0  0  0  0  0  0  0  0  0  0  0  0
  1  2  1  0
  1 30  1  0
  1 31  1  0
  1 32  1  0
  2  3  1  0
  2 29  1  0
  3  4  2  0
  3 33  1  0
  4  5  1  0
  4 34  1  0
  5  6  1  0
  5 29  2  0
  6  7  1  0
  6 27  1  0
  7  8  1  0
  7 35  1  0
  7 36  1  0
  8  9  1  0
  8 37  1  0
  8 38  1  0
  9 10  1  0
  9 39  1  0
  9 40  1  0
 10 11  1  0
 10 27  1  0
 10 41  1  1
 11 12  1  0
 11 42  1  0
 12 13  2  0
 12 14  1  0
 14 15  1  0
 14 26  1  0
 15 16  1  0
 15 43  1  0
 15 44  1  0
 16 17  1  0
 16 45  1  0
 16 46  1  0
 17 18  1  0
 17 47  1  0
 17 48  1  0
 18 19  1  0
 18 25  1  0
 18 49  1  6
 19 20  2  0
 19 24  1  0
 20 21  1  0
 20 50  1  0
 21 22  2  0
 21 51  1  0
 22 23  1  0
 22 52  1  0
 23 24  2  0
 23 53  1  0
 24 54  1  0
 25 26  1  0
 25 55  1  0
 25 56  1  0
 26 57  1  0
 26 58  1  0
 27 28  2  0
M  END

