
     RDKit          3D

 38 39  0  0  0  0  0  0  0  0999 V2000
    1.0585    0.3059    0.2629 C   0  0  0  0  0  0  0  0  0  0  0  0
    2.5614    0.0599    0.0423 C   0  0  1  0  0  0  0  0  0  0  0  0
    2.8967   -1.4188   -0.2581 C   0  0  0  0  0  0  0  0  0  0  0  0
    2.5606   -1.8398   -1.6925 C   0  0  0  0  0  0  0  0  0  0  0  0
    3.2339   -0.8913   -2.6884 C   0  0  0  0  0  0  0  0  0  0  0  0
    2.8528    0.5599   -2.3947 C   0  0  0  0  0  0  0  0  0  0  0  0
    3.1236    0.9237   -1.0035 N   0  0  0  0  0  0  0  0  0  0  0  0
    3.8108    2.1059   -0.7677 C   0  0  0  0  0  0  0  0  0  0  0  0
    4.3591    2.7375   -1.6633 O   0  0  0  0  0  0  0  0  0  0  0  0
    3.8723    2.5368    0.5464 N   0  0  0  0  0  0  0  0  0  0  0  0
    4.5656    3.7716    0.8764 C   0  0  0  0  0  0  0  0  0  0  0  0
    3.7555    5.0419    0.5798 C   0  0  1  0  0  0  0  0  0  0  0  0
    2.4514    5.1805    1.3775 C   0  0  0  0  0  0  0  0  0  0  0  0
    2.0912    6.6677    1.4221 C   0  0  0  0  0  0  0  0  0  0  0  0
    3.3611    7.4090    1.8480 C   0  0  0  0  0  0  0  0  0  0  0  0
    4.7593    6.5563    0.9945 S   0  0  0  0  0  0  0  0  0  0  0  0
    0.6814   -0.3043    1.0991 H   0  0  0  0  0  0  0  0  0  0  0  0
    0.4641    0.0540   -0.6288 H   0  0  0  0  0  0  0  0  0  0  0  0
    0.8653    1.3648    0.4982 H   0  0  0  0  0  0  0  0  0  0  0  0
    3.0875    0.2993    0.9778 H   0  0  0  0  0  0  0  0  0  0  0  0
    2.3776   -2.0603    0.4734 H   0  0  0  0  0  0  0  0  0  0  0  0
    3.9789   -1.5598   -0.0941 H   0  0  0  0  0  0  0  0  0  0  0  0
    1.4668   -1.8253   -1.8495 H   0  0  0  0  0  0  0  0  0  0  0  0
    2.8811   -2.8810   -1.8619 H   0  0  0  0  0  0  0  0  0  0  0  0
    2.9500   -1.1408   -3.7244 H   0  0  0  0  0  0  0  0  0  0  0  0
    4.3309   -0.9973   -2.6192 H   0  0  0  0  0  0  0  0  0  0  0  0
    1.7775    0.7081   -2.6200 H   0  0  0  0  0  0  0  0  0  0  0  0
    3.4188    1.2593   -3.0209 H   0  0  0  0  0  0  0  0  0  0  0  0
    3.1991    2.1913    1.2163 H   0  0  0  0  0  0  0  0  0  0  0  0
    5.4986    3.7951    0.2965 H   0  0  0  0  0  0  0  0  0  0  0  0
    4.8342    3.7494    1.9453 H   0  0  0  0  0  0  0  0  0  0  0  0
    3.5488    5.0663   -0.5008 H   0  0  0  0  0  0  0  0  0  0  0  0
    2.6082    4.8104    2.4078 H   0  0  0  0  0  0  0  0  0  0  0  0
    1.6463    4.5758    0.9283 H   0  0  0  0  0  0  0  0  0  0  0  0
    1.2546    6.8740    2.1107 H   0  0  0  0  0  0  0  0  0  0  0  0
    1.7834    7.0044    0.4179 H   0  0  0  0  0  0  0  0  0  0  0  0
    3.5090    7.3573    2.9386 H   0  0  0  0  0  0  0  0  0  0  0  0
    3.3563    8.4686    1.5529 H   0  0  0  0  0  0  0  0  0  0  0  0
  1  2  1  0
  1 17  1  0
  1 18  1  0
  1 19  1  0
  2  3  1  0
  2  7  1  0
  2 20  1  1
  3  4  1  0
  3 21  1  0
  3 22  1  0
  4  5  1  0
  4 23  1  0
  4 24  1  0
  5  6  1  0
  5 25  1  0
  5 26  1  0
  6  7  1  0
  6 27  1  0
  6 28  1  0
  7  8  1  0
  8  9  2  0
  8 10  1  0
 10 11  1  0
 10 29  1  0
 11 12  1  0
 11 30  1  0
 11 31  1  0
 12 13  1  0
 12 16  1  0
 12 32  1  6
 13 14  1  0
 13 33  1  0
 13 34  1  0
 14 15  1  0
 14 35  1  0
 14 36  1  0
 15 16  1  0
 15 37  1  0
 15 38  1  0
M  END

