
     RDKit          3D

 53 57  0  0  0  0  0  0  0  0999 V2000
    1.0992   -0.9688   -2.4863 C   0  0  0  0  0  0  0  0  0  0  0  0
    2.5401   -1.3759   -2.2458 C   0  0  0  0  0  0  0  0  0  0  0  0
    3.2964   -0.1995   -2.0085 O   0  0  0  0  0  0  0  0  0  0  0  0
    4.6257   -0.2963   -1.7748 C   0  0  0  0  0  0  0  0  0  0  0  0
    5.3520   -1.4892   -1.7248 C   0  0  0  0  0  0  0  0  0  0  0  0
    6.7307   -1.4649   -1.4638 C   0  0  0  0  0  0  0  0  0  0  0  0
    7.3898   -0.2570   -1.2718 C   0  0  0  0  0  0  0  0  0  0  0  0
    6.6840    0.9586   -1.3338 C   0  0  0  0  0  0  0  0  0  0  0  0
    5.3026    0.9343   -1.5639 C   0  0  0  0  0  0  0  0  0  0  0  0
    4.5421    2.0628   -1.6037 O   0  0  0  0  0  0  0  0  0  0  0  0
    5.1261    3.2001   -0.9689 C   0  0  2  0  0  0  0  0  0  0  0  0
    5.2026    2.9705    0.1125 H   0  0  0  0  0  0  0  0  0  0  0  0
    4.2134    4.3950   -1.1589 C   0  0  0  0  0  0  0  0  0  0  0  0
    4.6461    5.6666   -0.7524 C   0  0  0  0  0  0  0  0  0  0  0  0
    3.8016    6.7664   -0.8683 C   0  0  0  0  0  0  0  0  0  0  0  0
    2.5080    6.6144   -1.3940 C   0  0  0  0  0  0  0  0  0  0  0  0
    1.6451    7.8272   -1.4957 C   0  0  0  0  0  0  0  0  0  0  0  0
    1.9782    8.9391   -1.1531 O   0  0  0  0  0  0  0  0  0  0  0  0
    0.4303    7.5578   -2.0174 O   0  0  0  0  0  0  0  0  0  0  0  0
   -0.4563    8.6657   -2.1490 C   0  0  0  0  0  0  0  0  0  0  0  0
    2.0767    5.3436   -1.8009 C   0  0  0  0  0  0  0  0  0  0  0  0
    2.9239    4.2403   -1.6818 C   0  0  0  0  0  0  0  0  0  0  0  0
    6.4768    3.4297   -1.4086 N   0  0  0  0  0  0  0  0  0  0  0  0
    6.6063    3.8714   -2.7128 N   0  0  0  0  0  0  0  0  0  0  0  0
    7.7140    3.4363   -3.2091 C   0  0  0  0  0  0  0  0  0  0  0  0
    8.1674    3.8113   -4.5376 C   0  0  0  0  0  0  0  0  0  0  0  0
    7.5690    4.6723   -5.4397 C   0  0  0  0  0  0  0  0  0  0  0  0
    8.2956    4.7971   -6.6551 C   0  0  0  0  0  0  0  0  0  0  0  0
    9.4412    4.0365   -6.6743 C   0  0  0  0  0  0  0  0  0  0  0  0
    9.6444    3.1548   -5.2030 S   0  0  0  0  0  0  0  0  0  0  0  0
    8.4868    2.5648   -2.2340 C   0  0  0  0  0  0  0  0  0  0  0  0
    7.4023    2.2932   -1.1678 C   0  0  2  0  0  0  0  0  0  0  0  0
    7.8199    2.3668   -0.1506 H   0  0  0  0  0  0  0  0  0  0  0  0
    0.4785   -1.8589   -2.6730 H   0  0  0  0  0  0  0  0  0  0  0  0
    1.0246   -0.3017   -3.3585 H   0  0  0  0  0  0  0  0  0  0  0  0
    0.6942   -0.4381   -1.6112 H   0  0  0  0  0  0  0  0  0  0  0  0
    2.9470   -1.9158   -3.1220 H   0  0  0  0  0  0  0  0  0  0  0  0
    2.6156   -2.0557   -1.3755 H   0  0  0  0  0  0  0  0  0  0  0  0
    4.8512   -2.4449   -1.8780 H   0  0  0  0  0  0  0  0  0  0  0  0
    7.2834   -2.4060   -1.4158 H   0  0  0  0  0  0  0  0  0  0  0  0
    8.4654   -0.2450   -1.0754 H   0  0  0  0  0  0  0  0  0  0  0  0
    5.6563    5.7888   -0.3564 H   0  0  0  0  0  0  0  0  0  0  0  0
    4.1260    7.7617   -0.5588 H   0  0  0  0  0  0  0  0  0  0  0  0
   -1.3816    8.2684   -2.5848 H   0  0  0  0  0  0  0  0  0  0  0  0
   -0.0262    9.4375   -2.8057 H   0  0  0  0  0  0  0  0  0  0  0  0
   -0.6621    9.1233   -1.1691 H   0  0  0  0  0  0  0  0  0  0  0  0
    1.0736    5.2238   -2.2117 H   0  0  0  0  0  0  0  0  0  0  0  0
    2.5935    3.2505   -1.9968 H   0  0  0  0  0  0  0  0  0  0  0  0
    6.6362    5.1884   -5.2121 H   0  0  0  0  0  0  0  0  0  0  0  0
    7.9843    5.4291   -7.4885 H   0  0  0  0  0  0  0  0  0  0  0  0
   10.1783    3.9450   -7.4706 H   0  0  0  0  0  0  0  0  0  0  0  0
    9.3370    3.1303   -1.8136 H   0  0  0  0  0  0  0  0  0  0  0  0
    8.8860    1.6468   -2.6889 H   0  0  0  0  0  0  0  0  0  0  0  0
  1  2  1  0
  1 34  1  0
  1 35  1  0
  1 36  1  0
  2  3  1  0
  2 37  1  0
  2 38  1  0
  3  4  1  0
  4  5  2  0
  4  9  1  0
  5  6  1  0
  5 39  1  0
  6  7  2  0
  6 40  1  0
  7  8  1  0
  7 41  1  0
  8  9  2  0
  8 32  1  0
  9 10  1  0
 10 11  1  0
 11 12  1  1
 11 13  1  0
 11 23  1  0
 13 14  2  0
 13 22  1  0
 14 15  1  0
 14 42  1  0
 15 16  2  0
 15 43  1  0
 16 17  1  0
 16 21  1  0
 17 18  2  0
 17 19  1  0
 19 20  1  0
 20 44  1  0
 20 45  1  0
 20 46  1  0
 21 22  2  0
 21 47  1  0
 22 48  1  0
 23 24  1  0
 23 32  1  0
 24 25  2  0
 25 26  1  0
 25 31  1  0
 26 27  2  0
 26 30  1  0
 27 28  1  0
 27 49  1  0
 28 29  2  0
 28 50  1  0
 29 30  1  0
 29 51  1  0
 31 32  1  0
 31 52  1  0
 31 53  1  0
 32 33  1  1
M  END

