
     RDKit          3D

 50 49  0  0  0  0  0  0  0  0999 V2000
    2.7274   -1.7056   -0.9734 C   0  0  0  0  0  0  0  0  0  0  0  0
    2.6666   -0.4556   -0.0941 C   0  0  0  0  0  0  0  0  0  0  0  0
    3.0558   -0.7078    1.3015 N   0  0  0  0  0  0  0  0  0  0  0  0
    2.0160   -1.0912    2.2507 C   0  0  0  0  0  0  0  0  0  0  0  0
    1.4017    0.0786    3.0746 C   0  0  1  0  0  0  0  0  0  0  0  0
    0.5981    1.0571    2.2065 C   0  0  0  0  0  0  0  0  0  0  0  0
    0.5204   -0.5077    4.1781 C   0  0  0  0  0  0  0  0  0  0  0  0
    2.4408    0.7936    3.7430 O   0  0  0  0  0  0  0  0  0  0  0  0
    4.4139   -0.7989    1.5556 C   0  0  0  0  0  0  0  0  0  0  0  0
    5.2304   -0.5239    0.6882 O   0  0  0  0  0  0  0  0  0  0  0  0
    4.8612   -1.2674    2.9407 C   0  0  0  0  0  0  0  0  0  0  0  0
    6.3766   -1.1938    3.1176 C   0  0  0  0  0  0  0  0  0  0  0  0
    6.8153   -1.6463    4.5136 C   0  0  0  0  0  0  0  0  0  0  0  0
    8.2540   -1.5986    4.7015 N   0  0  0  0  0  0  0  0  0  0  0  0
    9.0239   -2.7170    4.8786 C   0  0  0  0  0  0  0  0  0  0  0  0
    8.5399   -3.8361    4.9379 O   0  0  0  0  0  0  0  0  0  0  0  0
   10.5502   -2.4665    5.0103 C   0  0  1  0  0  0  0  0  0  0  0  0
   10.8259   -1.5623    6.2310 C   0  0  0  0  0  0  0  0  0  0  0  0
   11.2446   -3.8216    5.2085 C   0  0  0  0  0  0  0  0  0  0  0  0
   11.0833   -1.7973    3.7252 C   0  0  0  0  0  0  0  0  0  0  0  0
    2.4041   -1.4675   -1.9997 H   0  0  0  0  0  0  0  0  0  0  0  0
    2.0705   -2.5043   -0.5909 H   0  0  0  0  0  0  0  0  0  0  0  0
    3.7564   -2.0905   -1.0212 H   0  0  0  0  0  0  0  0  0  0  0  0
    1.6495   -0.0398   -0.0946 H   0  0  0  0  0  0  0  0  0  0  0  0
    3.3414    0.3116   -0.4984 H   0  0  0  0  0  0  0  0  0  0  0  0
    2.4184   -1.8240    2.9624 H   0  0  0  0  0  0  0  0  0  0  0  0
    1.2109   -1.6067    1.7011 H   0  0  0  0  0  0  0  0  0  0  0  0
   -0.2298    0.5556    1.6803 H   0  0  0  0  0  0  0  0  0  0  0  0
    1.2394    1.5394    1.4516 H   0  0  0  0  0  0  0  0  0  0  0  0
    0.1757    1.8507    2.8413 H   0  0  0  0  0  0  0  0  0  0  0  0
   -0.3070   -1.0980    3.7547 H   0  0  0  0  0  0  0  0  0  0  0  0
    0.0949    0.3016    4.7899 H   0  0  0  0  0  0  0  0  0  0  0  0
    1.1123   -1.1579    4.8402 H   0  0  0  0  0  0  0  0  0  0  0  0
    2.9878    1.2118    3.0625 H   0  0  0  0  0  0  0  0  0  0  0  0
    4.5204   -2.3102    3.0802 H   0  0  0  0  0  0  0  0  0  0  0  0
    4.3412   -0.6801    3.7139 H   0  0  0  0  0  0  0  0  0  0  0  0
    6.7146   -0.1601    2.9293 H   0  0  0  0  0  0  0  0  0  0  0  0
    6.8722   -1.8130    2.3542 H   0  0  0  0  0  0  0  0  0  0  0  0
    6.5199   -2.6901    4.6940 H   0  0  0  0  0  0  0  0  0  0  0  0
    6.3182   -1.0275    5.2838 H   0  0  0  0  0  0  0  0  0  0  0  0
    8.7118   -0.6991    4.6258 H   0  0  0  0  0  0  0  0  0  0  0  0
   10.4267   -2.0102    7.1549 H   0  0  0  0  0  0  0  0  0  0  0  0
   10.3794   -0.5607    6.1237 H   0  0  0  0  0  0  0  0  0  0  0  0
   11.9114   -1.4248    6.3643 H   0  0  0  0  0  0  0  0  0  0  0  0
   10.8726   -4.3287    6.1102 H   0  0  0  0  0  0  0  0  0  0  0  0
   12.3327   -3.6789    5.3073 H   0  0  0  0  0  0  0  0  0  0  0  0
   11.0534   -4.4922    4.3585 H   0  0  0  0  0  0  0  0  0  0  0  0
   10.6470   -0.7999    3.5549 H   0  0  0  0  0  0  0  0  0  0  0  0
   10.8680   -2.4130    2.8376 H   0  0  0  0  0  0  0  0  0  0  0  0
   12.1761   -1.6688    3.7898 H   0  0  0  0  0  0  0  0  0  0  0  0
  1  2  1  0
  1 21  1  0
  1 22  1  0
  1 23  1  0
  2  3  1  0
  2 24  1  0
  2 25  1  0
  3  4  1  0
  3  9  1  0
  4  5  1  0
  4 26  1  0
  4 27  1  0
  5  6  1  0
  5  7  1  0
  5  8  1  1
  6 28  1  0
  6 29  1  0
  6 30  1  0
  7 31  1  0
  7 32  1  0
  7 33  1  0
  8 34  1  0
  9 10  2  0
  9 11  1  0
 11 12  1  0
 11 35  1  0
 11 36  1  0
 12 13  1  0
 12 37  1  0
 12 38  1  0
 13 14  1  0
 13 39  1  0
 13 40  1  0
 14 15  1  0
 14 41  1  0
 15 16  2  0
 17 15  1  6
 17 18  1  0
 17 19  1  0
 17 20  1  0
 18 42  1  0
 18 43  1  0
 18 44  1  0
 19 45  1  0
 19 46  1  0
 19 47  1  0
 20 48  1  0
 20 49  1  0
 20 50  1  0
M  END

