
     RDKit          3D

 39 41  0  0  0  0  0  0  0  0999 V2000
    4.0342   -3.1813   -0.0308 N   0  0  0  0  0  0  0  0  0  0  0  0
    3.9135   -1.7352    0.0962 C   0  0  0  0  0  0  0  0  0  0  0  0
    4.6727   -1.2639    1.3299 C   0  0  0  0  0  0  0  0  0  0  0  0
    4.5273    0.1432    1.4203 O   0  0  0  0  0  0  0  0  0  0  0  0
    5.1113    0.8279    2.4321 C   0  0  0  0  0  0  0  0  0  0  0  0
    5.8933    0.2270    3.4405 C   0  0  0  0  0  0  0  0  0  0  0  0
    6.4605    1.0117    4.4494 C   0  0  0  0  0  0  0  0  0  0  0  0
    6.2405    2.3853    4.4392 C   0  0  0  0  0  0  0  0  0  0  0  0
    5.4655    2.9839    3.4374 C   0  0  0  0  0  0  0  0  0  0  0  0
    4.8936    2.2214    2.4289 C   0  0  0  0  0  0  0  0  0  0  0  0
    5.3969    4.4812    3.6837 C   0  0  1  0  0  0  0  0  0  0  0  0
    3.9541    5.0198    3.8450 C   0  0  0  0  0  0  0  0  0  0  0  0
    3.8987    6.4994    4.1562 C   0  0  0  0  0  0  0  0  0  0  0  0
    3.9290    7.4534    3.1251 C   0  0  0  0  0  0  0  0  0  0  0  0
    3.9202    8.8212    3.4102 C   0  0  0  0  0  0  0  0  0  0  0  0
    3.8813    9.2615    4.7370 C   0  0  0  0  0  0  0  0  0  0  0  0
    3.8486    8.3242    5.7733 C   0  0  0  0  0  0  0  0  0  0  0  0
    3.8571    6.9560    5.4841 C   0  0  0  0  0  0  0  0  0  0  0  0
    6.2006    4.6136    4.8895 N   0  0  0  0  0  0  0  0  0  0  0  0
    6.7268    3.4342    5.3810 C   0  0  0  0  0  0  0  0  0  0  0  0
    7.4297    3.3119    6.3646 O   0  0  0  0  0  0  0  0  0  0  0  0
    3.7391   -3.4872   -0.9565 H   0  0  0  0  0  0  0  0  0  0  0  0
    3.4229   -3.6558    0.6346 H   0  0  0  0  0  0  0  0  0  0  0  0
    2.8740   -1.3496    0.1582 H   0  0  0  0  0  0  0  0  0  0  0  0
    4.3690   -1.2598   -0.7878 H   0  0  0  0  0  0  0  0  0  0  0  0
    5.7356   -1.5510    1.2434 H   0  0  0  0  0  0  0  0  0  0  0  0
    4.2678   -1.7504    2.2388 H   0  0  0  0  0  0  0  0  0  0  0  0
    6.0632   -0.8495    3.4388 H   0  0  0  0  0  0  0  0  0  0  0  0
    7.0702    0.5610    5.2364 H   0  0  0  0  0  0  0  0  0  0  0  0
    4.2850    2.6497    1.6295 H   0  0  0  0  0  0  0  0  0  0  0  0
    5.8718    5.0231    2.8425 H   0  0  0  0  0  0  0  0  0  0  0  0
    3.4599    4.4417    4.6414 H   0  0  0  0  0  0  0  0  0  0  0  0
    3.4111    4.8157    2.9078 H   0  0  0  0  0  0  0  0  0  0  0  0
    3.9529    7.1195    2.0832 H   0  0  0  0  0  0  0  0  0  0  0  0
    3.9393    9.5467    2.5927 H   0  0  0  0  0  0  0  0  0  0  0  0
    3.8718   10.3311    4.9616 H   0  0  0  0  0  0  0  0  0  0  0  0
    3.8117    8.6584    6.8134 H   0  0  0  0  0  0  0  0  0  0  0  0
    3.8239    6.2296    6.3009 H   0  0  0  0  0  0  0  0  0  0  0  0
    6.4018    5.5045    5.3269 H   0  0  0  0  0  0  0  0  0  0  0  0
  1  2  1  0
  1 22  1  0
  1 23  1  0
  2  3  1  0
  2 24  1  0
  2 25  1  0
  3  4  1  0
  3 26  1  0
  3 27  1  0
  4  5  1  0
  5  6  2  0
  5 10  1  0
  6  7  1  0
  6 28  1  0
  7  8  2  0
  7 29  1  0
  8  9  1  0
  8 20  1  0
  9 10  2  0
  9 11  1  0
 10 30  1  0
 11 12  1  0
 11 19  1  0
 11 31  1  6
 12 13  1  0
 12 32  1  0
 12 33  1  0
 13 14  2  0
 13 18  1  0
 14 15  1  0
 14 34  1  0
 15 16  2  0
 15 35  1  0
 16 17  1  0
 16 36  1  0
 17 18  2  0
 17 37  1  0
 18 38  1  0
 19 20  1  0
 19 39  1  0
 20 21  2  0
M  END

