
     RDKit          3D

 42 42  0  0  0  0  0  0  0  0999 V2000
    2.0485   -0.4940   -1.1060 C   0  0  0  0  0  0  0  0  0  0  0  0
    1.4408    0.1919   -0.0378 O   0  0  0  0  0  0  0  0  0  0  0  0
    2.2351    1.2016    0.5542 C   0  0  1  0  0  0  0  0  0  0  0  0
    2.1894    2.5066   -0.2662 C   0  0  0  0  0  0  0  0  0  0  0  0
    3.1552    3.2353   -0.3092 O   0  0  0  0  0  0  0  0  0  0  0  0
    0.8818    2.8090   -1.0043 C   0  0  0  0  0  0  0  0  0  0  0  0
    0.6843    4.2550   -1.3991 C   0  0  0  0  0  0  0  0  0  0  0  0
    1.2680    4.7594   -2.5812 C   0  0  0  0  0  0  0  0  0  0  0  0
    2.1122    3.8825   -3.4766 C   0  0  0  0  0  0  0  0  0  0  0  0
    1.0669    6.1032   -2.9289 C   0  0  0  0  0  0  0  0  0  0  0  0
    0.3070    6.9695   -2.1374 C   0  0  0  0  0  0  0  0  0  0  0  0
    0.0968    8.4138   -2.5240 C   0  0  0  0  0  0  0  0  0  0  0  0
   -0.2574    6.4528   -0.9643 C   0  0  0  0  0  0  0  0  0  0  0  0
   -0.0822    5.1176   -0.5810 C   0  0  0  0  0  0  0  0  0  0  0  0
   -0.7141    4.6331    0.7049 C   0  0  0  0  0  0  0  0  0  0  0  0
    1.7473    1.4194    2.0077 C   0  0  1  0  0  0  0  0  0  0  0  0
    1.7492    0.0902    2.7735 C   0  0  0  0  0  0  0  0  0  0  0  0
    2.5743    2.4810    2.7436 C   0  0  0  0  0  0  0  0  0  0  0  0
    1.3357   -1.2528   -1.4603 H   0  0  0  0  0  0  0  0  0  0  0  0
    2.9799   -1.0019   -0.7891 H   0  0  0  0  0  0  0  0  0  0  0  0
    2.2977    0.1728   -1.9553 H   0  0  0  0  0  0  0  0  0  0  0  0
    3.2996    0.8942    0.5867 H   0  0  0  0  0  0  0  0  0  0  0  0
    0.0473    2.4211   -0.4036 H   0  0  0  0  0  0  0  0  0  0  0  0
    0.8924    2.1593   -1.8970 H   0  0  0  0  0  0  0  0  0  0  0  0
    1.5449    3.0166   -3.8604 H   0  0  0  0  0  0  0  0  0  0  0  0
    2.9868    3.4900   -2.9348 H   0  0  0  0  0  0  0  0  0  0  0  0
    2.4791    4.4448   -4.3474 H   0  0  0  0  0  0  0  0  0  0  0  0
    1.5239    6.4829   -3.8477 H   0  0  0  0  0  0  0  0  0  0  0  0
    0.6267    8.6651   -3.4547 H   0  0  0  0  0  0  0  0  0  0  0  0
    0.4575    9.0968   -1.7366 H   0  0  0  0  0  0  0  0  0  0  0  0
   -0.9729    8.6375   -2.6758 H   0  0  0  0  0  0  0  0  0  0  0  0
   -0.8532    7.1108   -0.3235 H   0  0  0  0  0  0  0  0  0  0  0  0
   -1.2610    5.4461    1.2040 H   0  0  0  0  0  0  0  0  0  0  0  0
    0.0384    4.2570    1.4181 H   0  0  0  0  0  0  0  0  0  0  0  0
   -1.4299    3.8114    0.5326 H   0  0  0  0  0  0  0  0  0  0  0  0
    0.7006    1.7701    1.9441 H   0  0  0  0  0  0  0  0  0  0  0  0
    2.7757   -0.3027    2.8734 H   0  0  0  0  0  0  0  0  0  0  0  0
    1.1420   -0.6664    2.2587 H   0  0  0  0  0  0  0  0  0  0  0  0
    1.3458    0.2302    3.7890 H   0  0  0  0  0  0  0  0  0  0  0  0
    3.6310    2.1749    2.8202 H   0  0  0  0  0  0  0  0  0  0  0  0
    2.1913    2.6147    3.7676 H   0  0  0  0  0  0  0  0  0  0  0  0
    2.5546    3.4600    2.2436 H   0  0  0  0  0  0  0  0  0  0  0  0
  1  2  1  0
  1 19  1  0
  1 20  1  0
  1 21  1  0
  2  3  1  0
  3  4  1  0
  3 16  1  0
  3 22  1  1
  4  5  2  0
  4  6  1  0
  6  7  1  0
  6 23  1  0
  6 24  1  0
  7  8  2  0
  7 14  1  0
  8  9  1  0
  8 10  1  0
  9 25  1  0
  9 26  1  0
  9 27  1  0
 10 11  2  0
 10 28  1  0
 11 12  1  0
 11 13  1  0
 12 29  1  0
 12 30  1  0
 12 31  1  0
 13 14  2  0
 13 32  1  0
 14 15  1  0
 15 33  1  0
 15 34  1  0
 15 35  1  0
 16 17  1  0
 16 18  1  0
 16 36  1  6
 17 37  1  0
 17 38  1  0
 17 39  1  0
 18 40  1  0
 18 41  1  0
 18 42  1  0
M  END

