
     RDKit          3D

 33 34  0  0  0  0  0  0  0  0999 V2000
    0.9329   -0.0300   -0.0494 C   0  0  0  0  0  0  0  0  0  0  0  0
    2.4397    0.0267   -0.0967 C   0  0  0  0  0  0  0  0  0  0  0  0
    3.1043    1.2541   -0.2149 C   0  0  0  0  0  0  0  0  0  0  0  0
    4.4941    1.3388   -0.2609 C   0  0  0  0  0  0  0  0  0  0  0  0
    5.2587    0.1676   -0.1984 C   0  0  0  0  0  0  0  0  0  0  0  0
    6.7572    0.3025   -0.2510 C   0  0  0  0  0  0  0  0  0  0  0  0
    7.3245    1.3572   -0.1285 O   0  0  0  0  0  0  0  0  0  0  0  0
    7.4627   -0.8308   -0.4547 O   0  0  0  0  0  0  0  0  0  0  0  0
    4.6216   -1.0728   -0.0675 C   0  0  0  0  0  0  0  0  0  0  0  0
    3.2199   -1.1554   -0.0193 C   0  0  0  0  0  0  0  0  0  0  0  0
    2.5506   -2.3838    0.1111 N   0  0  0  0  0  0  0  0  0  0  0  0
    3.0759   -3.6638    0.1544 C   0  0  0  0  0  0  0  0  0  0  0  0
    4.2729   -3.9100    0.0865 O   0  0  0  0  0  0  0  0  0  0  0  0
    2.0420   -4.7193    0.2920 C   0  0  0  0  0  0  0  0  0  0  0  0
    2.4090   -6.0182    0.3511 C   0  0  0  0  0  0  0  0  0  0  0  0
    1.5307   -7.1439    0.4823 C   0  0  0  0  0  0  0  0  0  0  0  0
    1.7710   -8.5005    0.5535 C   0  0  0  0  0  0  0  0  0  0  0  0
    0.5057   -9.1448    0.6796 C   0  0  0  0  0  0  0  0  0  0  0  0
   -0.4169   -8.1300    0.6753 C   0  0  0  0  0  0  0  0  0  0  0  0
   -2.2761   -8.1576    0.8008 Br  0  0  0  0  0  0  0  0  0  0  0  0
    0.1756   -6.9269    0.5582 O   0  0  0  0  0  0  0  0  0  0  0  0
    0.4989    0.9758   -0.1319 H   0  0  0  0  0  0  0  0  0  0  0  0
    0.5647   -0.4658    0.8970 H   0  0  0  0  0  0  0  0  0  0  0  0
    0.5157   -0.6343   -0.8749 H   0  0  0  0  0  0  0  0  0  0  0  0
    2.5074    2.1684   -0.2716 H   0  0  0  0  0  0  0  0  0  0  0  0
    5.0062    2.2982   -0.3467 H   0  0  0  0  0  0  0  0  0  0  0  0
    6.8709   -1.5784   -0.6210 H   0  0  0  0  0  0  0  0  0  0  0  0
    5.1714   -2.0083    0.0223 H   0  0  0  0  0  0  0  0  0  0  0  0
    1.5425   -2.3258    0.1722 H   0  0  0  0  0  0  0  0  0  0  0  0
    0.9856   -4.4400    0.3452 H   0  0  0  0  0  0  0  0  0  0  0  0
    3.4783   -6.2452    0.2944 H   0  0  0  0  0  0  0  0  0  0  0  0
    2.7502   -8.9739    0.5190 H   0  0  0  0  0  0  0  0  0  0  0  0
    0.2969  -10.2080    0.7622 H   0  0  0  0  0  0  0  0  0  0  0  0
  1  2  1  0
  1 22  1  0
  1 23  1  0
  1 24  1  0
  2  3  2  0
  2 10  1  0
  3  4  1  0
  3 25  1  0
  4  5  2  0
  4 26  1  0
  5  6  1  0
  5  9  1  0
  6  7  2  0
  6  8  1  0
  8 27  1  0
  9 10  2  0
  9 28  1  0
 10 11  1  0
 11 12  1  0
 11 29  1  0
 12 13  2  0
 12 14  1  0
 14 15  2  0
 14 30  1  0
 15 16  1  0
 15 31  1  0
 16 17  2  0
 16 21  1  0
 17 18  1  0
 17 32  1  0
 18 19  2  0
 18 33  1  0
 19 20  1  0
 19 21  1  0
M  END

