
     RDKit          3D

 30 30  0  0  0  0  0  0  0  0999 V2000
    0.9193   -0.0678   -0.1041 C   0  0  0  0  0  0  0  0  0  0  0  0
    2.3163    0.1133   -0.0406 O   0  0  0  0  0  0  0  0  0  0  0  0
    2.8160    0.5645    1.2089 C   0  0  1  0  0  0  0  0  0  0  0  0
    2.1746    0.2089    2.0365 H   0  0  0  0  0  0  0  0  0  0  0  0
    4.2066   -0.0706    1.3853 C   0  0  1  0  0  0  0  0  0  0  0  0
    4.1606   -1.4265    1.1478 O   0  0  0  0  0  0  0  0  0  0  0  0
    5.1419    0.5045    0.4727 O   0  0  0  0  0  0  0  0  0  0  0  0
    5.3261    1.9193    0.5302 C   0  0  2  0  0  0  0  0  0  0  0  0
    5.9590    2.1472   -0.3428 H   0  0  0  0  0  0  0  0  0  0  0  0
    6.1494    2.3015    1.7666 C   0  0  0  0  0  0  0  0  0  0  0  0
    7.3671    1.5934    1.7619 O   0  0  0  0  0  0  0  0  0  0  0  0
    3.9773    2.6346    0.3372 C   0  0  2  0  0  0  0  0  0  0  0  0
    3.6610    2.4576   -0.7062 H   0  0  0  0  0  0  0  0  0  0  0  0
    4.1646    4.0231    0.5791 O   0  0  0  0  0  0  0  0  0  0  0  0
    3.4129    4.8920   -0.2397 C   0  0  0  0  0  0  0  0  0  0  0  0
    2.8701    2.0956    1.2582 C   0  0  2  0  0  0  0  0  0  0  0  0
    1.8950    2.4885    0.9025 H   0  0  0  0  0  0  0  0  0  0  0  0
    3.0924    2.4817    2.5979 O   0  0  0  0  0  0  0  0  0  0  0  0
    0.6777   -0.4126   -1.1200 H   0  0  0  0  0  0  0  0  0  0  0  0
    0.3648    0.8704    0.0858 H   0  0  0  0  0  0  0  0  0  0  0  0
    0.5731   -0.8277    0.6225 H   0  0  0  0  0  0  0  0  0  0  0  0
    4.5429    0.0737    2.4264 H   0  0  0  0  0  0  0  0  0  0  0  0
    3.6831   -1.5237    0.3064 H   0  0  0  0  0  0  0  0  0  0  0  0
    5.5689    2.1261    2.6918 H   0  0  0  0  0  0  0  0  0  0  0  0
    6.3765    3.3773    1.7233 H   0  0  0  0  0  0  0  0  0  0  0  0
    7.1505    0.6822    1.5116 H   0  0  0  0  0  0  0  0  0  0  0  0
    3.6635    5.9211    0.0558 H   0  0  0  0  0  0  0  0  0  0  0  0
    2.3218    4.7501   -0.1214 H   0  0  0  0  0  0  0  0  0  0  0  0
    3.6656    4.7592   -1.3086 H   0  0  0  0  0  0  0  0  0  0  0  0
    3.4127    3.3968    2.5649 H   0  0  0  0  0  0  0  0  0  0  0  0
  1  2  1  0
  1 19  1  0
  1 20  1  0
  1 21  1  0
  2  3  1  0
  3  4  1  1
  3  5  1  0
  3 16  1  0
  5  6  1  0
  5  7  1  0
  5 22  1  1
  6 23  1  0
  7  8  1  0
  8  9  1  6
  8 10  1  0
  8 12  1  0
 10 11  1  0
 10 24  1  0
 10 25  1  0
 11 26  1  0
 12 13  1  6
 12 14  1  0
 12 16  1  0
 14 15  1  0
 15 27  1  0
 15 28  1  0
 15 29  1  0
 16 17  1  6
 16 18  1  0
 18 30  1  0
M  END

