
     RDKit          3D

 23 24  0  0  0  0  0  0  0  0999 V2000
    2.6317   -0.3828    0.8839 O   0  0  0  0  0  0  0  0  0  0  0  0
    2.6050    0.5982    0.1819 C   0  0  0  0  0  0  0  0  0  0  0  0
    3.1818    0.6513   -1.1742 C   0  0  0  0  0  0  0  0  0  0  0  0
    3.0821    1.8179   -1.8425 O   0  0  0  0  0  0  0  0  0  0  0  0
    3.6632    1.7065   -3.0675 N   0  0  0  0  0  0  0  0  0  0  0  0
    4.1316    0.4741   -3.1764 C   0  0  0  0  0  0  0  0  0  0  0  0
    4.8416    0.0755   -4.4090 C   0  0  0  0  0  0  0  0  0  0  0  0
    5.3784    1.0722   -5.2453 C   0  0  0  0  0  0  0  0  0  0  0  0
    6.0366    0.7247   -6.4220 C   0  0  0  0  0  0  0  0  0  0  0  0
    6.1785   -0.6165   -6.7975 C   0  0  0  0  0  0  0  0  0  0  0  0
    6.8926   -1.0123   -8.0690 C   0  0  1  0  0  0  0  0  0  0  0  0
    7.3409    0.0666   -8.7332 F   0  0  0  0  0  0  0  0  0  0  0  0
    7.9522   -1.7968   -7.8165 F   0  0  0  0  0  0  0  0  0  0  0  0
    6.0832   -1.6875   -8.9000 F   0  0  0  0  0  0  0  0  0  0  0  0
    5.6367   -1.5955   -5.9583 C   0  0  0  0  0  0  0  0  0  0  0  0
    5.7500   -2.8835   -6.2930 F   0  0  0  0  0  0  0  0  0  0  0  0
    4.9755   -1.2721   -4.7790 C   0  0  0  0  0  0  0  0  0  0  0  0
    3.8427   -0.2553   -1.9708 C   0  0  0  0  0  0  0  0  0  0  0  0
    4.2491   -1.8670   -1.5593 Cl  0  0  0  0  0  0  0  0  0  0  0  0
    2.1363    1.5614    0.5016 H   0  0  0  0  0  0  0  0  0  0  0  0
    5.2752    2.1199   -4.9622 H   0  0  0  0  0  0  0  0  0  0  0  0
    6.4538    1.5004   -7.0651 H   0  0  0  0  0  0  0  0  0  0  0  0
    4.5706   -2.0826   -4.1755 H   0  0  0  0  0  0  0  0  0  0  0  0
  1  2  2  0
  2  3  1  0
  2 20  1  0
  3  4  1  0
  3 18  2  0
  4  5  1  0
  5  6  2  0
  6  7  1  0
  6 18  1  0
  7  8  2  0
  7 17  1  0
  8  9  1  0
  8 21  1  0
  9 10  2  0
  9 22  1  0
 10 11  1  0
 10 15  1  0
 11 12  1  6
 11 13  1  0
 11 14  1  0
 15 16  1  0
 15 17  2  0
 17 23  1  0
 18 19  1  0
M  END

