
     RDKit          3D

 35 36  0  0  0  0  0  0  0  0999 V2000
   -0.1990    0.4271    0.9904 C   0  0  0  0  0  0  0  0  0  0  0  0
    0.7081   -0.6267    0.7568 O   0  0  0  0  0  0  0  0  0  0  0  0
    1.8101   -0.7517    1.5509 C   0  0  0  0  0  0  0  0  0  0  0  0
    2.1224    0.1174    2.6009 C   0  0  0  0  0  0  0  0  0  0  0  0
    3.2489   -0.1098    3.4036 C   0  0  0  0  0  0  0  0  0  0  0  0
    4.0695   -1.2067    3.1539 C   0  0  0  0  0  0  0  0  0  0  0  0
    3.7736   -2.0623    2.0867 C   0  0  0  0  0  0  0  0  0  0  0  0
    2.6542   -1.8607    1.2681 C   0  0  0  0  0  0  0  0  0  0  0  0
    2.3190   -2.7721    0.2484 N   0  0  0  0  0  0  0  0  0  0  0  0
    2.2074   -2.3372   -1.1529 C   0  0  1  0  0  0  0  0  0  0  0  0
    3.5284   -2.4202   -1.9206 C   0  0  0  0  0  0  0  0  0  0  0  0
    1.0880   -3.0935   -1.9034 C   0  0  0  0  0  0  0  0  0  0  0  0
    1.0421   -3.1167   -3.1222 O   0  0  0  0  0  0  0  0  0  0  0  0
    0.1607   -3.6789   -1.0957 N   0  0  0  0  0  0  0  0  0  0  0  0
   -1.0290   -4.2892   -1.6021 C   0  0  1  0  0  0  0  0  0  0  0  0
   -0.9681   -5.6867   -2.1614 C   0  0  0  0  0  0  0  0  0  0  0  0
   -1.6230   -5.4343   -0.8265 C   0  0  0  0  0  0  0  0  0  0  0  0
   -1.0030    0.3166    0.2504 H   0  0  0  0  0  0  0  0  0  0  0  0
    0.2757    1.4160    0.8583 H   0  0  0  0  0  0  0  0  0  0  0  0
   -0.6346    0.3754    2.0045 H   0  0  0  0  0  0  0  0  0  0  0  0
    1.4784    0.9707    2.8143 H   0  0  0  0  0  0  0  0  0  0  0  0
    3.4721    0.5765    4.2238 H   0  0  0  0  0  0  0  0  0  0  0  0
    4.9483   -1.3964    3.7745 H   0  0  0  0  0  0  0  0  0  0  0  0
    4.4253   -2.9154    1.8753 H   0  0  0  0  0  0  0  0  0  0  0  0
    2.8832   -3.6159    0.3169 H   0  0  0  0  0  0  0  0  0  0  0  0
    1.8689   -1.2910   -1.1383 H   0  0  0  0  0  0  0  0  0  0  0  0
    3.9160   -3.4534   -1.9287 H   0  0  0  0  0  0  0  0  0  0  0  0
    4.2865   -1.7666   -1.4624 H   0  0  0  0  0  0  0  0  0  0  0  0
    3.3736   -2.1191   -2.9656 H   0  0  0  0  0  0  0  0  0  0  0  0
    0.2660   -3.4962   -0.1012 H   0  0  0  0  0  0  0  0  0  0  0  0
   -1.7256   -3.6009   -2.0979 H   0  0  0  0  0  0  0  0  0  0  0  0
    0.0096   -6.1746   -2.1665 H   0  0  0  0  0  0  0  0  0  0  0  0
   -1.5982   -5.9177   -3.0243 H   0  0  0  0  0  0  0  0  0  0  0  0
   -1.0903   -5.7629    0.0711 H   0  0  0  0  0  0  0  0  0  0  0  0
   -2.7122   -5.4933   -0.7498 H   0  0  0  0  0  0  0  0  0  0  0  0
  1  2  1  0
  1 18  1  0
  1 19  1  0
  1 20  1  0
  2  3  1  0
  3  4  2  0
  3  8  1  0
  4  5  1  0
  4 21  1  0
  5  6  2  0
  5 22  1  0
  6  7  1  0
  6 23  1  0
  7  8  2  0
  7 24  1  0
  8  9  1  0
  9 10  1  0
  9 25  1  0
 10 11  1  0
 10 12  1  0
 10 26  1  1
 11 27  1  0
 11 28  1  0
 11 29  1  0
 12 13  2  0
 12 14  1  0
 14 15  1  0
 14 30  1  0
 15 16  1  0
 15 17  1  0
 15 31  1  6
 16 17  1  0
 16 32  1  0
 16 33  1  0
 17 34  1  0
 17 35  1  0
M  END

