
     RDKit          3D

 39 40  0  0  0  0  0  0  0  0999 V2000
    0.4651    1.8211   -0.7291 C   0  0  0  0  0  0  0  0  0  0  0  0
    1.8695    1.5778   -0.6296 O   0  0  0  0  0  0  0  0  0  0  0  0
    2.4546    1.0261   -1.7071 C   0  0  0  0  0  0  0  0  0  0  0  0
    1.8542    0.7257   -2.7102 O   0  0  0  0  0  0  0  0  0  0  0  0
    3.9529    0.8631   -1.5127 C   0  0  0  0  0  0  0  0  0  0  0  0
    4.7359    1.9615   -2.2125 C   0  0  0  0  0  0  0  0  0  0  0  0
    5.5686    2.8234   -1.4897 C   0  0  0  0  0  0  0  0  0  0  0  0
    6.3046    3.8368   -2.1155 C   0  0  0  0  0  0  0  0  0  0  0  0
    6.1905    3.9814   -3.5005 C   0  0  0  0  0  0  0  0  0  0  0  0
    6.8532    4.9331   -4.2700 O   0  0  0  0  0  0  0  0  0  0  0  0
    7.6976    5.8713   -3.8382 C   0  0  0  0  0  0  0  0  0  0  0  0
    8.0492    6.0751   -2.7046 O   0  0  0  0  0  0  0  0  0  0  0  0
    8.2198    6.7305   -4.9864 C   0  0  0  0  0  0  0  0  0  0  0  0
    7.6915    6.3133   -6.2188 O   0  0  0  0  0  0  0  0  0  0  0  0
    8.0163    6.9463   -7.3633 C   0  0  0  0  0  0  0  0  0  0  0  0
    8.8874    8.0394   -7.4586 C   0  0  0  0  0  0  0  0  0  0  0  0
    9.1479    8.6133   -8.7074 C   0  0  0  0  0  0  0  0  0  0  0  0
    8.5525    8.1142   -9.8685 C   0  0  0  0  0  0  0  0  0  0  0  0
    7.6842    7.0257   -9.7805 C   0  0  0  0  0  0  0  0  0  0  0  0
    7.4075    6.4333   -8.5378 C   0  0  0  0  0  0  0  0  0  0  0  0
    6.5161    5.3145   -8.4340 C   0  0  0  0  0  0  0  0  0  0  0  0
    5.7930    4.4091   -8.3577 N   0  0  0  0  0  0  0  0  0  0  0  0
    5.3608    3.1368   -4.2482 C   0  0  0  0  0  0  0  0  0  0  0  0
    4.6400    2.1350   -3.6046 C   0  0  0  0  0  0  0  0  0  0  0  0
    0.1630    2.2649    0.2275 H   0  0  0  0  0  0  0  0  0  0  0  0
   -0.0830    0.8832   -0.9057 H   0  0  0  0  0  0  0  0  0  0  0  0
    0.2465    2.5122   -1.5572 H   0  0  0  0  0  0  0  0  0  0  0  0
    4.2206   -0.1174   -1.9380 H   0  0  0  0  0  0  0  0  0  0  0  0
    4.1848    0.8552   -0.4397 H   0  0  0  0  0  0  0  0  0  0  0  0
    5.6544    2.7077   -0.4058 H   0  0  0  0  0  0  0  0  0  0  0  0
    6.9490    4.4969   -1.5411 H   0  0  0  0  0  0  0  0  0  0  0  0
    9.3233    6.6623   -4.9673 H   0  0  0  0  0  0  0  0  0  0  0  0
    7.9506    7.7781   -4.7570 H   0  0  0  0  0  0  0  0  0  0  0  0
    9.3652    8.4469   -6.5675 H   0  0  0  0  0  0  0  0  0  0  0  0
    9.8296    9.4654   -8.7668 H   0  0  0  0  0  0  0  0  0  0  0  0
    8.7629    8.5698  -10.8379 H   0  0  0  0  0  0  0  0  0  0  0  0
    7.2077    6.6193  -10.6746 H   0  0  0  0  0  0  0  0  0  0  0  0
    5.2982    3.2830   -5.3290 H   0  0  0  0  0  0  0  0  0  0  0  0
    3.9835    1.4823   -4.1845 H   0  0  0  0  0  0  0  0  0  0  0  0
  1  2  1  0
  1 25  1  0
  1 26  1  0
  1 27  1  0
  2  3  1  0
  3  4  2  0
  3  5  1  0
  5  6  1  0
  5 28  1  0
  5 29  1  0
  6  7  2  0
  6 24  1  0
  7  8  1  0
  7 30  1  0
  8  9  2  0
  8 31  1  0
  9 10  1  0
  9 23  1  0
 10 11  1  0
 11 12  2  0
 11 13  1  0
 13 14  1  0
 13 32  1  0
 13 33  1  0
 14 15  1  0
 15 16  2  0
 15 20  1  0
 16 17  1  0
 16 34  1  0
 17 18  2  0
 17 35  1  0
 18 19  1  0
 18 36  1  0
 19 20  2  0
 19 37  1  0
 20 21  1  0
 21 22  3  0
 23 24  2  0
 23 38  1  0
 24 39  1  0
M  END

