
     RDKit          3D

 46 47  0  0  0  0  0  0  0  0999 V2000
    3.2058   -3.0683   -1.5403 O   0  0  0  0  0  0  0  0  0  0  0  0
    3.1599   -2.0210   -0.9462 C   0  0  0  0  0  0  0  0  0  0  0  0
    1.9919   -1.3463   -0.8653 O   0  0  0  0  0  0  0  0  0  0  0  0
    4.3430   -1.3595   -0.2569 C   0  0  0  0  0  0  0  0  0  0  0  0
    5.6255   -2.1983   -0.3105 C   0  0  1  0  0  0  0  0  0  0  0  0
    6.0464   -2.4612   -1.6867 N   0  0  0  0  0  0  0  0  0  0  0  0
    6.4581   -1.4161   -2.5009 C   0  0  0  0  0  0  0  0  0  0  0  0
    6.5598   -0.2650   -2.0832 O   0  0  0  0  0  0  0  0  0  0  0  0
    6.7591   -1.7460   -3.8128 N   0  0  0  0  0  0  0  0  0  0  0  0
    6.9328   -3.1042   -4.3064 C   0  0  0  0  0  0  0  0  0  0  0  0
    8.3145   -3.3829   -4.9185 C   0  0  0  0  0  0  0  0  0  0  0  0
    8.6290   -2.5765   -6.1927 C   0  0  0  0  0  0  0  0  0  0  0  0
    9.1402   -1.2149   -6.0208 N   0  0  0  0  0  0  0  0  0  0  0  0
   10.5989   -1.1016   -6.0433 C   0  0  0  0  0  0  0  0  0  0  0  0
   11.1261   -1.1492   -7.4809 C   0  0  0  0  0  0  0  0  0  0  0  0
   10.4378   -0.2239   -8.2816 O   0  0  0  0  0  0  0  0  0  0  0  0
    8.5226   -0.3841   -4.9814 C   0  0  0  0  0  0  0  0  0  0  0  0
    7.0341   -0.6451   -4.7301 C   0  0  0  0  0  0  0  0  0  0  0  0
    6.8160   -1.7221    0.5749 C   0  0  0  0  0  0  0  0  0  0  0  0
    7.0506   -3.1862    1.0204 C   0  0  0  0  0  0  0  0  0  0  0  0
    5.6388   -3.5355    0.4905 C   0  0  0  0  0  0  0  0  0  0  0  0
    2.1135   -0.5191   -0.3771 H   0  0  0  0  0  0  0  0  0  0  0  0
    4.0648   -1.1504    0.7914 H   0  0  0  0  0  0  0  0  0  0  0  0
    4.5436   -0.3854   -0.7372 H   0  0  0  0  0  0  0  0  0  0  0  0
    5.4724   -3.1740   -2.1283 H   0  0  0  0  0  0  0  0  0  0  0  0
    6.1585   -3.3286   -5.0675 H   0  0  0  0  0  0  0  0  0  0  0  0
    6.7794   -3.8033   -3.4761 H   0  0  0  0  0  0  0  0  0  0  0  0
    8.3357   -4.4555   -5.1790 H   0  0  0  0  0  0  0  0  0  0  0  0
    9.1005   -3.2300   -4.1592 H   0  0  0  0  0  0  0  0  0  0  0  0
    7.7188   -2.5586   -6.8209 H   0  0  0  0  0  0  0  0  0  0  0  0
    9.3744   -3.1261   -6.7864 H   0  0  0  0  0  0  0  0  0  0  0  0
   11.1043   -1.8656   -5.4129 H   0  0  0  0  0  0  0  0  0  0  0  0
   10.8614   -0.1186   -5.6215 H   0  0  0  0  0  0  0  0  0  0  0  0
   11.0452   -2.1822   -7.8852 H   0  0  0  0  0  0  0  0  0  0  0  0
   12.1999   -0.8952   -7.4896 H   0  0  0  0  0  0  0  0  0  0  0  0
    9.5209   -0.2703   -7.9566 H   0  0  0  0  0  0  0  0  0  0  0  0
    8.6426    0.6715   -5.2823 H   0  0  0  0  0  0  0  0  0  0  0  0
    9.0382   -0.4858   -4.0039 H   0  0  0  0  0  0  0  0  0  0  0  0
    6.5053   -0.8215   -5.6833 H   0  0  0  0  0  0  0  0  0  0  0  0
    6.6104    0.2562   -4.2721 H   0  0  0  0  0  0  0  0  0  0  0  0
    6.4617   -1.0873    1.4019 H   0  0  0  0  0  0  0  0  0  0  0  0
    7.6213   -1.1912    0.0528 H   0  0  0  0  0  0  0  0  0  0  0  0
    7.2418   -3.3633    2.0894 H   0  0  0  0  0  0  0  0  0  0  0  0
    7.8454   -3.6746    0.4378 H   0  0  0  0  0  0  0  0  0  0  0  0
    4.8798   -3.5295    1.2879 H   0  0  0  0  0  0  0  0  0  0  0  0
    5.5140   -4.4574   -0.0959 H   0  0  0  0  0  0  0  0  0  0  0  0
  1  2  2  0
  2  3  1  0
  2  4  1  0
  3 22  1  0
  4  5  1  0
  4 23  1  0
  4 24  1  0
  5  6  1  6
  5 19  1  0
  5 21  1  0
  6  7  1  0
  6 25  1  0
  7  8  2  0
  7  9  1  0
  9 10  1  0
  9 18  1  0
 10 11  1  0
 10 26  1  0
 10 27  1  0
 11 12  1  0
 11 28  1  0
 11 29  1  0
 12 13  1  0
 12 30  1  0
 12 31  1  0
 13 14  1  0
 13 17  1  0
 14 15  1  0
 14 32  1  0
 14 33  1  0
 15 16  1  0
 15 34  1  0
 15 35  1  0
 16 36  1  0
 17 18  1  0
 17 37  1  0
 17 38  1  0
 18 39  1  0
 18 40  1  0
 19 20  1  0
 19 41  1  0
 19 42  1  0
 20 21  1  0
 20 43  1  0
 20 44  1  0
 21 45  1  0
 21 46  1  0
M  END

