
     RDKit          3D

 41 42  0  0  0  0  0  0  0  0999 V2000
    0.9286    0.6235   -0.7238 C   0  0  0  0  0  0  0  0  0  0  0  0
    2.4387    0.4936   -0.7456 C   0  0  0  0  0  0  0  0  0  0  0  0
    2.7690   -0.8746   -0.5325 O   0  0  0  0  0  0  0  0  0  0  0  0
    4.0672   -1.2485   -0.4683 C   0  0  0  0  0  0  0  0  0  0  0  0
    5.1527   -0.3845   -0.6427 C   0  0  0  0  0  0  0  0  0  0  0  0
    6.4733   -0.8620   -0.5560 C   0  0  0  0  0  0  0  0  0  0  0  0
    7.6267    0.1064   -0.7333 C   0  0  0  0  0  0  0  0  0  0  0  0
    7.7289    1.0764    0.3581 N   0  0  0  0  0  0  0  0  0  0  0  0
    8.1873    0.5529    1.6535 C   0  0  0  0  0  0  0  0  0  0  0  0
    8.6252    1.8070    2.4104 C   0  0  0  0  0  0  0  0  0  0  0  0
    9.3005    2.6344    1.3069 C   0  0  0  0  0  0  0  0  0  0  0  0
    8.4379    2.3388    0.0570 C   0  0  2  0  0  0  0  0  0  0  0  0
    7.4123    3.4638   -0.2196 C   0  0  0  0  0  0  0  0  0  0  0  0
    7.7272    4.5594   -0.6023 O   0  0  0  0  0  0  0  0  0  0  0  0
    6.1538    3.0906    0.0354 O   0  0  0  0  0  0  0  0  0  0  0  0
    6.7011   -2.2130   -0.3003 C   0  0  0  0  0  0  0  0  0  0  0  0
    5.6130   -3.0815   -0.1349 C   0  0  0  0  0  0  0  0  0  0  0  0
    5.9048   -4.7745    0.1747 Cl  0  0  0  0  0  0  0  0  0  0  0  0
    4.2919   -2.6261   -0.1992 C   0  0  0  0  0  0  0  0  0  0  0  0
    3.2525   -3.4656    0.0374 O   0  0  0  0  0  0  0  0  0  0  0  0
    2.5098   -3.9000   -1.0947 C   0  0  0  0  0  0  0  0  0  0  0  0
    0.6386    1.6750   -0.8730 H   0  0  0  0  0  0  0  0  0  0  0  0
    0.5230    0.2827    0.2408 H   0  0  0  0  0  0  0  0  0  0  0  0
    0.4711    0.0207   -1.5232 H   0  0  0  0  0  0  0  0  0  0  0  0
    2.8987    1.1157    0.0441 H   0  0  0  0  0  0  0  0  0  0  0  0
    2.8498    0.8329   -1.7146 H   0  0  0  0  0  0  0  0  0  0  0  0
    4.9827    0.6718   -0.8532 H   0  0  0  0  0  0  0  0  0  0  0  0
    7.4773    0.6720   -1.6672 H   0  0  0  0  0  0  0  0  0  0  0  0
    8.5730   -0.4616   -0.8498 H   0  0  0  0  0  0  0  0  0  0  0  0
    9.0464   -0.1390    1.5201 H   0  0  0  0  0  0  0  0  0  0  0  0
    7.3865   -0.0121    2.1551 H   0  0  0  0  0  0  0  0  0  0  0  0
    9.2929    1.5817    3.2550 H   0  0  0  0  0  0  0  0  0  0  0  0
    7.7453    2.3368    2.8116 H   0  0  0  0  0  0  0  0  0  0  0  0
   10.3268    2.2712    1.1387 H   0  0  0  0  0  0  0  0  0  0  0  0
    9.3618    3.7110    1.5183 H   0  0  0  0  0  0  0  0  0  0  0  0
    9.0711    2.2662   -0.8433 H   0  0  0  0  0  0  0  0  0  0  0  0
    6.2607    2.1504    0.3443 H   0  0  0  0  0  0  0  0  0  0  0  0
    7.7150   -2.6109   -0.2327 H   0  0  0  0  0  0  0  0  0  0  0  0
    1.7237   -4.5684   -0.7173 H   0  0  0  0  0  0  0  0  0  0  0  0
    3.1504   -4.4616   -1.7974 H   0  0  0  0  0  0  0  0  0  0  0  0
    2.0415   -3.0522   -1.6205 H   0  0  0  0  0  0  0  0  0  0  0  0
  1  2  1  0
  1 22  1  0
  1 23  1  0
  1 24  1  0
  2  3  1  0
  2 25  1  0
  2 26  1  0
  3  4  1  0
  4  5  2  0
  4 19  1  0
  5  6  1  0
  5 27  1  0
  6  7  1  0
  6 16  2  0
  7  8  1  0
  7 28  1  0
  7 29  1  0
  8  9  1  0
  8 12  1  0
  9 10  1  0
  9 30  1  0
  9 31  1  0
 10 11  1  0
 10 32  1  0
 10 33  1  0
 11 12  1  0
 11 34  1  0
 11 35  1  0
 12 13  1  0
 12 36  1  6
 13 14  2  0
 13 15  1  0
 15 37  1  0
 16 17  1  0
 16 38  1  0
 17 18  1  0
 17 19  2  0
 19 20  1  0
 20 21  1  0
 21 39  1  0
 21 40  1  0
 21 41  1  0
M  END

