
     RDKit          3D

 39 41  0  0  0  0  0  0  0  0999 V2000
   10.8562    3.5907   -1.4004 C   0  0  0  0  0  0  0  0  0  0  0  0
    9.8561    2.6256   -1.0837 O   0  0  0  0  0  0  0  0  0  0  0  0
    8.8025    3.0725   -0.3698 C   0  0  0  0  0  0  0  0  0  0  0  0
    8.6960    4.2216   -0.0075 O   0  0  0  0  0  0  0  0  0  0  0  0
    7.8024    1.9993   -0.0881 C   0  0  0  0  0  0  0  0  0  0  0  0
    6.6557    2.3403    0.6457 C   0  0  0  0  0  0  0  0  0  0  0  0
    5.7067    1.3581    0.9233 C   0  0  0  0  0  0  0  0  0  0  0  0
    5.8753    0.0420    0.4831 C   0  0  0  0  0  0  0  0  0  0  0  0
    7.0242   -0.3018   -0.2536 C   0  0  0  0  0  0  0  0  0  0  0  0
    7.2751   -1.5990   -0.7391 N   0  0  0  0  0  0  0  0  0  0  0  0
    6.5378   -2.7374   -0.5542 C   0  0  0  0  0  0  0  0  0  0  0  0
    5.4803   -2.8161    0.0448 O   0  0  0  0  0  0  0  0  0  0  0  0
    7.1690   -3.9802   -1.2156 C   0  0  0  0  0  0  0  0  0  0  0  0
    8.4644   -4.3505   -0.6741 N   0  0  0  0  0  0  0  0  0  0  0  0
    9.6382   -3.7191   -1.0737 C   0  0  0  0  0  0  0  0  0  0  0  0
    9.7201   -2.7654   -1.8369 O   0  0  0  0  0  0  0  0  0  0  0  0
   10.6609   -4.3765   -0.4161 N   0  0  0  0  0  0  0  0  0  0  0  0
   11.6279   -4.0951   -0.5130 H   0  0  0  0  0  0  0  0  0  0  0  0
   10.1569   -5.3822    0.4033 C   0  0  0  0  0  0  0  0  0  0  0  0
   10.7747   -6.2932    1.2543 C   0  0  0  0  0  0  0  0  0  0  0  0
    9.9530   -7.1892    1.9533 C   0  0  0  0  0  0  0  0  0  0  0  0
    8.5604   -7.1645    1.8019 C   0  0  0  0  0  0  0  0  0  0  0  0
    7.9364   -6.2459    0.9455 C   0  0  0  0  0  0  0  0  0  0  0  0
    8.7522   -5.3604    0.2461 C   0  0  0  0  0  0  0  0  0  0  0  0
    7.9845    0.6849   -0.5332 C   0  0  0  0  0  0  0  0  0  0  0  0
   11.6187    3.0615   -1.9854 H   0  0  0  0  0  0  0  0  0  0  0  0
   11.3006    4.0104   -0.4848 H   0  0  0  0  0  0  0  0  0  0  0  0
   10.4307    4.4188   -1.9876 H   0  0  0  0  0  0  0  0  0  0  0  0
    6.5329    3.3705    0.9833 H   0  0  0  0  0  0  0  0  0  0  0  0
    4.8104    1.6140    1.4942 H   0  0  0  0  0  0  0  0  0  0  0  0
    5.1344   -0.7242    0.7001 H   0  0  0  0  0  0  0  0  0  0  0  0
    8.1411   -1.7154   -1.2742 H   0  0  0  0  0  0  0  0  0  0  0  0
    7.2903   -3.7983   -2.2961 H   0  0  0  0  0  0  0  0  0  0  0  0
    6.4671   -4.8101   -1.0743 H   0  0  0  0  0  0  0  0  0  0  0  0
   11.8600   -6.3094    1.3749 H   0  0  0  0  0  0  0  0  0  0  0  0
   10.4094   -7.9151    2.6300 H   0  0  0  0  0  0  0  0  0  0  0  0
    7.9446   -7.8692    2.3651 H   0  0  0  0  0  0  0  0  0  0  0  0
    6.8500   -6.2177    0.8457 H   0  0  0  0  0  0  0  0  0  0  0  0
    8.8821    0.4286   -1.0986 H   0  0  0  0  0  0  0  0  0  0  0  0
  1  2  1  0
  1 26  1  0
  1 27  1  0
  1 28  1  0
  2  3  1  0
  3  4  2  0
  3  5  1  0
  5  6  2  0
  5 25  1  0
  6  7  1  0
  6 29  1  0
  7  8  2  0
  7 30  1  0
  8  9  1  0
  8 31  1  0
  9 10  1  0
  9 25  2  0
 10 11  1  0
 10 32  1  0
 11 12  2  0
 11 13  1  0
 13 14  1  0
 13 33  1  0
 13 34  1  0
 14 15  1  0
 14 24  1  0
 15 16  2  0
 15 17  1  0
 17 18  1  0
 17 19  1  0
 19 20  1  0
 19 24  2  0
 20 21  2  0
 20 35  1  0
 21 22  1  0
 21 36  1  0
 22 23  2  0
 22 37  1  0
 23 24  1  0
 23 38  1  0
 25 39  1  0
M  END

