
     RDKit          3D

 50 52  0  0  0  0  0  0  0  0999 V2000
    3.1978    0.5748    1.5716 C   0  0  0  0  0  0  0  0  0  0  0  0
    2.5736   -0.6439    0.8842 C   0  0  1  0  0  0  0  0  0  0  0  0
    1.1568   -0.9190    1.4032 C   0  0  0  0  0  0  0  0  0  0  0  0
    2.5249   -0.5233   -0.6518 C   0  0  0  0  0  0  0  0  0  0  0  0
    3.8349   -0.3424   -1.3008 N   0  0  0  0  0  0  0  0  0  0  0  0
    4.2752    0.8605   -1.8194 C   0  0  0  0  0  0  0  0  0  0  0  0
    3.1386    2.2519   -1.7152 S   0  0  0  0  0  0  0  0  0  0  0  0
    4.1903    3.5504   -2.4436 C   0  0  0  0  0  0  0  0  0  0  0  0
    4.4805    3.5207   -3.9519 C   0  0  0  0  0  0  0  0  0  0  0  0
    5.4187    4.1625   -4.3802 O   0  0  0  0  0  0  0  0  0  0  0  0
    3.5904    2.8105   -4.7148 N   0  0  0  0  0  0  0  0  0  0  0  0
    3.5715    2.6297   -6.1059 C   0  0  0  0  0  0  0  0  0  0  0  0
    2.5618    1.8082   -6.6432 C   0  0  0  0  0  0  0  0  0  0  0  0
    2.4802    1.5869   -8.0139 C   0  0  0  0  0  0  0  0  0  0  0  0
    3.4071    2.1822   -8.8782 C   0  0  0  0  0  0  0  0  0  0  0  0
    3.2889    1.9891  -10.3663 C   0  0  1  0  0  0  0  0  0  0  0  0
    2.7424    0.7980  -10.6753 F   0  0  0  0  0  0  0  0  0  0  0  0
    2.5082    2.9314  -10.9347 F   0  0  0  0  0  0  0  0  0  0  0  0
    4.4848    2.0569  -10.9787 F   0  0  0  0  0  0  0  0  0  0  0  0
    4.4139    2.9958   -8.3466 C   0  0  0  0  0  0  0  0  0  0  0  0
    4.5053    3.2251   -6.9744 C   0  0  0  0  0  0  0  0  0  0  0  0
    5.4165    1.0512   -2.3811 N   0  0  0  0  0  0  0  0  0  0  0  0
    6.2949   -0.0078   -2.4991 C   0  0  0  0  0  0  0  0  0  0  0  0
    7.5546    0.1924   -3.1021 C   0  0  0  0  0  0  0  0  0  0  0  0
    8.4350   -0.8732   -3.2327 C   0  0  0  0  0  0  0  0  0  0  0  0
    8.0866   -2.1583   -2.7712 C   0  0  0  0  0  0  0  0  0  0  0  0
    6.8492   -2.3696   -2.1775 C   0  0  0  0  0  0  0  0  0  0  0  0
    5.9487   -1.2981   -2.0365 C   0  0  0  0  0  0  0  0  0  0  0  0
    4.6390   -1.5105   -1.4090 C   0  0  0  0  0  0  0  0  0  0  0  0
    4.2242   -2.5774   -0.9928 O   0  0  0  0  0  0  0  0  0  0  0  0
    3.2445    0.4179    2.6610 H   0  0  0  0  0  0  0  0  0  0  0  0
    2.6096    1.4895    1.3893 H   0  0  0  0  0  0  0  0  0  0  0  0
    4.2262    0.7626    1.2249 H   0  0  0  0  0  0  0  0  0  0  0  0
    3.1935   -1.5275    1.1074 H   0  0  0  0  0  0  0  0  0  0  0  0
    0.4800   -0.0732    1.1901 H   0  0  0  0  0  0  0  0  0  0  0  0
    1.1624   -1.0705    2.4939 H   0  0  0  0  0  0  0  0  0  0  0  0
    0.7237   -1.8220    0.9435 H   0  0  0  0  0  0  0  0  0  0  0  0
    1.8717    0.3086   -0.9530 H   0  0  0  0  0  0  0  0  0  0  0  0
    2.0984   -1.4484   -1.0644 H   0  0  0  0  0  0  0  0  0  0  0  0
    5.1603    3.5658   -1.9330 H   0  0  0  0  0  0  0  0  0  0  0  0
    3.6590    4.4885   -2.2124 H   0  0  0  0  0  0  0  0  0  0  0  0
    2.8755    2.3115   -4.1918 H   0  0  0  0  0  0  0  0  0  0  0  0
    1.8358    1.3358   -5.9754 H   0  0  0  0  0  0  0  0  0  0  0  0
    1.6962    0.9416   -8.4143 H   0  0  0  0  0  0  0  0  0  0  0  0
    5.1461    3.4551   -9.0136 H   0  0  0  0  0  0  0  0  0  0  0  0
    5.2903    3.8544   -6.5624 H   0  0  0  0  0  0  0  0  0  0  0  0
    7.8039    1.1933   -3.4593 H   0  0  0  0  0  0  0  0  0  0  0  0
    9.4095   -0.7134   -3.7014 H   0  0  0  0  0  0  0  0  0  0  0  0
    8.7903   -2.9864   -2.8826 H   0  0  0  0  0  0  0  0  0  0  0  0
    6.5471   -3.3524   -1.8106 H   0  0  0  0  0  0  0  0  0  0  0  0
  1  2  1  0
  1 31  1  0
  1 32  1  0
  1 33  1  0
  2  3  1  0
  2  4  1  0
  2 34  1  6
  3 35  1  0
  3 36  1  0
  3 37  1  0
  4  5  1  0
  4 38  1  0
  4 39  1  0
  5  6  1  0
  5 29  1  0
  6  7  2  0
  6 22  1  0
  7  8  1  0
  8  9  1  0
  8 40  1  0
  8 41  1  0
  9 10  2  0
  9 11  1  0
 11 12  1  0
 11 42  1  0
 12 13  2  0
 12 21  1  0
 13 14  1  0
 13 43  1  0
 14 15  2  0
 14 44  1  0
 15 16  1  0
 15 20  1  0
 16 17  1  1
 16 18  1  0
 16 19  1  0
 20 21  2  0
 20 45  1  0
 21 46  1  0
 22 23  2  0
 23 24  1  0
 23 28  1  0
 24 25  2  0
 24 47  1  0
 25 26  1  0
 25 48  1  0
 26 27  2  0
 26 49  1  0
 27 28  1  0
 27 50  1  0
 28 29  2  0
 29 30  1  0
M  CHG  2   7   1  30  -1
M  END

