
     RDKit          3D

 32 34  0  0  0  0  0  0  0  0999 V2000
    4.0080    0.6466    0.4441 N   0  0  0  0  0  0  0  0  0  0  0  0
    2.7865    0.4127   -0.3225 C   0  0  0  0  0  0  0  0  0  0  0  0
    3.0205    0.6338   -1.8188 C   0  0  0  0  0  0  0  0  0  0  0  0
    4.0807   -0.3085   -2.3934 C   0  0  0  0  0  0  0  0  0  0  0  0
    4.4477    0.0051   -3.8006 C   0  0  0  0  0  0  0  0  0  0  0  0
    4.0770    0.9975   -4.5447 N   0  0  0  0  0  0  0  0  0  0  0  0
    4.7127    0.8409   -5.7696 N   0  0  0  0  0  0  0  0  0  0  0  0
    5.4226   -0.2379   -5.6832 C   0  0  0  0  0  0  0  0  0  0  0  0
    6.2923   -0.8554   -6.7163 C   0  0  1  0  0  0  0  0  0  0  0  0
    7.7744   -1.2484   -6.2936 C   0  0  0  0  0  0  0  0  0  0  0  0
    7.4210   -2.6680   -6.7052 C   0  0  0  0  0  0  0  0  0  0  0  0
    7.9137   -3.9621   -6.8299 C   0  0  0  0  0  0  0  0  0  0  0  0
    7.0037   -4.9236   -7.3038 C   0  0  0  0  0  0  0  0  0  0  0  0
    5.6787   -4.5912   -7.6326 C   0  0  0  0  0  0  0  0  0  0  0  0
    5.1947   -3.2770   -7.5090 C   0  0  0  0  0  0  0  0  0  0  0  0
    6.1077   -2.3404   -7.0402 C   0  0  0  0  0  0  0  0  0  0  0  0
    5.3046   -0.8247   -4.4593 O   0  0  0  0  0  0  0  0  0  0  0  0
    3.8830    0.3753    1.4188 H   0  0  0  0  0  0  0  0  0  0  0  0
    4.2373    1.6417    0.4503 H   0  0  0  0  0  0  0  0  0  0  0  0
    1.9264    1.0412   -0.0071 H   0  0  0  0  0  0  0  0  0  0  0  0
    2.4771   -0.6342   -0.1536 H   0  0  0  0  0  0  0  0  0  0  0  0
    3.3304    1.6779   -1.9959 H   0  0  0  0  0  0  0  0  0  0  0  0
    2.0699    0.5120   -2.3633 H   0  0  0  0  0  0  0  0  0  0  0  0
    3.7383   -1.3579   -2.3460 H   0  0  0  0  0  0  0  0  0  0  0  0
    4.9839   -0.2622   -1.7609 H   0  0  0  0  0  0  0  0  0  0  0  0
    6.2517   -0.1967   -7.5964 H   0  0  0  0  0  0  0  0  0  0  0  0
    7.9847   -1.1078   -5.2221 H   0  0  0  0  0  0  0  0  0  0  0  0
    8.5588   -0.7461   -6.8816 H   0  0  0  0  0  0  0  0  0  0  0  0
    8.9407   -4.2384   -6.5774 H   0  0  0  0  0  0  0  0  0  0  0  0
    7.3317   -5.9603   -7.4198 H   0  0  0  0  0  0  0  0  0  0  0  0
    5.0110   -5.3771   -7.9958 H   0  0  0  0  0  0  0  0  0  0  0  0
    4.1632   -3.0283   -7.7709 H   0  0  0  0  0  0  0  0  0  0  0  0
  1  2  1  0
  1 18  1  0
  1 19  1  0
  2  3  1  0
  2 20  1  0
  2 21  1  0
  3  4  1  0
  3 22  1  0
  3 23  1  0
  4  5  1  0
  4 24  1  0
  4 25  1  0
  5  6  2  0
  5 17  1  0
  6  7  1  0
  7  8  2  0
  8  9  1  0
  8 17  1  0
  9 10  1  0
  9 16  1  0
  9 26  1  6
 10 11  1  0
 10 27  1  0
 10 28  1  0
 11 12  2  0
 11 16  1  0
 12 13  1  0
 12 29  1  0
 13 14  2  0
 13 30  1  0
 14 15  1  0
 14 31  1  0
 15 16  2  0
 15 32  1  0
M  END

