
     RDKit          3D

 42 42  0  0  0  0  0  0  0  0999 V2000
    1.7084   -3.5570   -3.2221 C   0  0  0  0  0  0  0  0  0  0  0  0
    2.5493   -3.1774   -2.2554 C   0  0  0  0  0  0  0  0  0  0  0  0
    3.1674   -1.8145   -2.1155 C   0  0  0  0  0  0  0  0  0  0  0  0
    4.7050   -1.8311   -2.1678 C   0  0  0  0  0  0  0  0  0  0  0  0
    5.3283   -0.4415   -1.9953 C   0  0  0  0  0  0  0  0  0  0  0  0
    6.8622   -0.4093   -1.9487 C   0  0  0  0  0  0  0  0  0  0  0  0
    7.5855   -0.8808   -3.2307 C   0  0  1  0  0  0  0  0  0  0  0  0
    7.2608    0.0615   -4.4072 C   0  0  0  0  0  0  0  0  0  0  0  0
    6.9889    1.2375   -4.1958 O   0  0  0  0  0  0  0  0  0  0  0  0
    7.3109   -0.4488   -5.6826 N   0  0  0  0  0  0  0  0  0  0  0  0
    7.6649   -1.8119   -6.0321 C   0  0  0  0  0  0  0  0  0  0  0  0
    6.9522    0.4132   -6.7969 C   0  0  0  0  0  0  0  0  0  0  0  0
    9.0950   -0.9571   -3.0156 C   0  0  0  0  0  0  0  0  0  0  0  0
    9.7255   -2.1834   -2.7637 C   0  0  0  0  0  0  0  0  0  0  0  0
   11.1003   -2.2609   -2.5211 C   0  0  0  0  0  0  0  0  0  0  0  0
   11.8795   -1.0969   -2.5264 C   0  0  0  0  0  0  0  0  0  0  0  0
   13.2195   -1.1059   -2.3000 O   0  0  0  0  0  0  0  0  0  0  0  0
   11.2637    0.1387   -2.7763 C   0  0  0  0  0  0  0  0  0  0  0  0
    9.8928    0.2020   -3.0150 C   0  0  0  0  0  0  0  0  0  0  0  0
    1.3003   -4.5710   -3.2626 H   0  0  0  0  0  0  0  0  0  0  0  0
    1.3905   -2.8641   -4.0090 H   0  0  0  0  0  0  0  0  0  0  0  0
    2.8374   -3.9115   -1.4900 H   0  0  0  0  0  0  0  0  0  0  0  0
    2.8558   -1.3736   -1.1491 H   0  0  0  0  0  0  0  0  0  0  0  0
    2.7765   -1.1446   -2.9010 H   0  0  0  0  0  0  0  0  0  0  0  0
    5.0147   -2.2778   -3.1291 H   0  0  0  0  0  0  0  0  0  0  0  0
    5.0887   -2.5087   -1.3819 H   0  0  0  0  0  0  0  0  0  0  0  0
    4.9528   -0.0037   -1.0529 H   0  0  0  0  0  0  0  0  0  0  0  0
    4.9757    0.2301   -2.7960 H   0  0  0  0  0  0  0  0  0  0  0  0
    7.2197   -1.0402   -1.1163 H   0  0  0  0  0  0  0  0  0  0  0  0
    7.1890    0.6190   -1.7341 H   0  0  0  0  0  0  0  0  0  0  0  0
    7.2338   -1.8957   -3.4658 H   0  0  0  0  0  0  0  0  0  0  0  0
    8.2605   -2.2903   -5.2474 H   0  0  0  0  0  0  0  0  0  0  0  0
    8.2819   -1.8047   -6.9459 H   0  0  0  0  0  0  0  0  0  0  0  0
    6.7738   -2.4357   -6.2366 H   0  0  0  0  0  0  0  0  0  0  0  0
    6.6599    1.3927   -6.4023 H   0  0  0  0  0  0  0  0  0  0  0  0
    6.1113   -0.0184   -7.3689 H   0  0  0  0  0  0  0  0  0  0  0  0
    7.8053    0.5401   -7.4871 H   0  0  0  0  0  0  0  0  0  0  0  0
    9.1336   -3.1038   -2.7489 H   0  0  0  0  0  0  0  0  0  0  0  0
   11.5691   -3.2312   -2.3268 H   0  0  0  0  0  0  0  0  0  0  0  0
   13.5129   -2.0123   -2.1395 H   0  0  0  0  0  0  0  0  0  0  0  0
   11.8800    1.0403   -2.7788 H   0  0  0  0  0  0  0  0  0  0  0  0
    9.4259    1.1709   -3.2091 H   0  0  0  0  0  0  0  0  0  0  0  0
  1  2  2  0
  1 20  1  0
  1 21  1  0
  2  3  1  0
  2 22  1  0
  3  4  1  0
  3 23  1  0
  3 24  1  0
  4  5  1  0
  4 25  1  0
  4 26  1  0
  5  6  1  0
  5 27  1  0
  5 28  1  0
  6  7  1  0
  6 29  1  0
  6 30  1  0
  7  8  1  0
  7 13  1  0
  7 31  1  6
  8  9  2  0
  8 10  1  0
 10 11  1  0
 10 12  1  0
 11 32  1  0
 11 33  1  0
 11 34  1  0
 12 35  1  0
 12 36  1  0
 12 37  1  0
 13 14  2  0
 13 19  1  0
 14 15  1  0
 14 38  1  0
 15 16  2  0
 15 39  1  0
 16 17  1  0
 16 18  1  0
 17 40  1  0
 18 19  2  0
 18 41  1  0
 19 42  1  0
M  END

