
     RDKit          3D

 47 49  0  0  0  0  0  0  0  0999 V2000
    1.5650   -0.8773   -1.7651 O   0  0  0  0  0  0  0  0  0  0  0  0
    1.5138    0.0782   -0.9968 C   0  0  0  0  0  0  0  0  0  0  0  0
    0.4070    0.3399   -0.2412 N   0  0  0  0  0  0  0  0  0  0  0  0
   -0.7998   -0.4742   -0.3114 C   0  0  0  0  0  0  0  0  0  0  0  0
   -1.8668    0.0914   -1.2310 C   0  0  0  0  0  0  0  0  0  0  0  0
   -1.6786    0.0729   -2.6242 C   0  0  0  0  0  0  0  0  0  0  0  0
   -2.6423    0.6066   -3.4774 C   0  0  0  0  0  0  0  0  0  0  0  0
   -3.8152    1.1651   -2.9501 C   0  0  0  0  0  0  0  0  0  0  0  0
   -4.8779    1.6917   -3.8822 C   0  0  1  0  0  0  0  0  0  0  0  0
   -4.3420    2.2733   -4.9703 F   0  0  0  0  0  0  0  0  0  0  0  0
   -5.6825    0.7055   -4.3243 F   0  0  0  0  0  0  0  0  0  0  0  0
   -5.6662    2.6018   -3.2834 F   0  0  0  0  0  0  0  0  0  0  0  0
   -4.0142    1.1874   -1.5670 C   0  0  0  0  0  0  0  0  0  0  0  0
   -3.0426    0.6527   -0.7168 C   0  0  0  0  0  0  0  0  0  0  0  0
    2.6826    1.0448   -0.8069 C   0  0  1  0  0  0  0  0  0  0  0  0
    3.9289    0.3142   -0.2489 C   0  0  0  0  0  0  0  0  0  0  0  0
    4.6378   -0.5441   -1.3038 C   0  0  0  0  0  0  0  0  0  0  0  0
    4.9376    0.2280   -2.5198 N   0  0  0  0  0  0  0  0  0  0  0  0
    6.4159    1.0154   -2.5848 S   0  0  1  0  0  0  0  0  0  0  0  0
    6.3077    2.0490   -3.6146 O   0  0  0  0  0  0  0  0  0  0  0  0
    6.9018    1.3320   -1.2363 O   0  0  0  0  0  0  0  0  0  0  0  0
    7.5183   -0.2496   -3.1839 C   0  0  0  0  0  0  0  0  0  0  0  0
    8.6069   -0.7280   -2.5008 C   0  0  0  0  0  0  0  0  0  0  0  0
    9.3344   -1.6921   -3.2608 C   0  0  0  0  0  0  0  0  0  0  0  0
   10.8809   -2.5488   -2.6052 Br  0  0  0  0  0  0  0  0  0  0  0  0
    8.7819   -1.9162   -4.5042 C   0  0  0  0  0  0  0  0  0  0  0  0
    9.3836   -3.0844   -5.8374 Br  0  0  0  0  0  0  0  0  0  0  0  0
    7.3610   -0.9486   -4.7682 S   0  0  0  0  0  0  0  0  0  0  0  0
    3.7654    0.8750   -3.1301 C   0  0  0  0  0  0  0  0  0  0  0  0
    3.0291    1.7726   -2.1292 C   0  0  0  0  0  0  0  0  0  0  0  0
    0.3817    1.1915    0.3063 H   0  0  0  0  0  0  0  0  0  0  0  0
   -1.2050   -0.5949    0.7055 H   0  0  0  0  0  0  0  0  0  0  0  0
   -0.4822   -1.4630   -0.6720 H   0  0  0  0  0  0  0  0  0  0  0  0
   -0.7658   -0.3681   -3.0324 H   0  0  0  0  0  0  0  0  0  0  0  0
   -2.4862    0.5918   -4.5580 H   0  0  0  0  0  0  0  0  0  0  0  0
   -4.9245    1.6265   -1.1552 H   0  0  0  0  0  0  0  0  0  0  0  0
   -3.2067    0.6724    0.3645 H   0  0  0  0  0  0  0  0  0  0  0  0
    2.3825    1.8073   -0.0689 H   0  0  0  0  0  0  0  0  0  0  0  0
    3.6485   -0.3139    0.6132 H   0  0  0  0  0  0  0  0  0  0  0  0
    4.6419    1.0707    0.1155 H   0  0  0  0  0  0  0  0  0  0  0  0
    3.9999   -1.3880   -1.6054 H   0  0  0  0  0  0  0  0  0  0  0  0
    5.5733   -0.9535   -0.8972 H   0  0  0  0  0  0  0  0  0  0  0  0
    8.8754   -0.3949   -1.4989 H   0  0  0  0  0  0  0  0  0  0  0  0
    3.1033    0.0688   -3.4790 H   0  0  0  0  0  0  0  0  0  0  0  0
    4.0986    1.4559   -3.9986 H   0  0  0  0  0  0  0  0  0  0  0  0
    2.1141    2.1753   -2.5955 H   0  0  0  0  0  0  0  0  0  0  0  0
    3.6734    2.6362   -1.8919 H   0  0  0  0  0  0  0  0  0  0  0  0
  1  2  2  0
  2  3  1  0
  2 15  1  0
  3  4  1  0
  3 31  1  0
  4  5  1  0
  4 32  1  0
  4 33  1  0
  5  6  2  0
  5 14  1  0
  6  7  1  0
  6 34  1  0
  7  8  2  0
  7 35  1  0
  8  9  1  0
  8 13  1  0
  9 10  1  6
  9 11  1  0
  9 12  1  0
 13 14  2  0
 13 36  1  0
 14 37  1  0
 15 16  1  0
 15 30  1  0
 15 38  1  1
 16 17  1  0
 16 39  1  0
 16 40  1  0
 17 18  1  0
 17 41  1  0
 17 42  1  0
 18 19  1  0
 18 29  1  0
 19 20  2  0
 19 21  2  0
 19 22  1  6
 22 23  2  0
 22 28  1  0
 23 24  1  0
 23 43  1  0
 24 25  1  0
 24 26  2  0
 26 27  1  0
 26 28  1  0
 29 30  1  0
 29 44  1  0
 29 45  1  0
 30 46  1  0
 30 47  1  0
M  END

