
     RDKit          3D

 47 49  0  0  0  0  0  0  0  0999 V2000
    1.3039   -1.2000   -0.3519 C   0  0  0  0  0  0  0  0  0  0  0  0
    2.7279   -1.2625   -0.3297 O   0  0  0  0  0  0  0  0  0  0  0  0
    3.3229   -0.8766    0.8267 C   0  0  0  0  0  0  0  0  0  0  0  0
    2.6626   -0.5111    1.7805 O   0  0  0  0  0  0  0  0  0  0  0  0
    4.7876   -0.9593    0.7641 C   0  0  0  0  0  0  0  0  0  0  0  0
    5.6157   -0.6014    1.8144 C   0  0  0  0  0  0  0  0  0  0  0  0
    5.2618   -0.0990    3.1735 C   0  0  0  0  0  0  0  0  0  0  0  0
    6.9430   -0.7806    1.4627 N   0  0  0  0  0  0  0  0  0  0  0  0
    8.1271   -0.5157    2.2631 C   0  0  0  0  0  0  0  0  0  0  0  0
    8.7370    0.8782    2.0065 C   0  0  0  0  0  0  0  0  0  0  0  0
   10.0131    1.0937    2.7890 C   0  0  0  0  0  0  0  0  0  0  0  0
   11.2359    0.5959    2.3081 C   0  0  0  0  0  0  0  0  0  0  0  0
   12.4135    0.7557    3.0428 C   0  0  0  0  0  0  0  0  0  0  0  0
   12.3892    1.4175    4.2747 C   0  0  0  0  0  0  0  0  0  0  0  0
   11.1798    1.9180    4.7647 C   0  0  0  0  0  0  0  0  0  0  0  0
   10.0033    1.7552    4.0272 C   0  0  0  0  0  0  0  0  0  0  0  0
    7.0521   -1.2546    0.1440 C   0  0  0  0  0  0  0  0  0  0  0  0
    8.1105   -1.5353   -0.3795 O   0  0  0  0  0  0  0  0  0  0  0  0
    5.6444   -1.3717   -0.3589 C   0  0  0  0  0  0  0  0  0  0  0  0
    5.2991   -1.8587   -1.5803 C   0  0  0  0  0  0  0  0  0  0  0  0
    6.1648   -2.1978   -2.7166 C   0  0  0  0  0  0  0  0  0  0  0  0
    5.9040   -3.3722   -3.4549 C   0  0  0  0  0  0  0  0  0  0  0  0
    6.6759   -3.7347   -4.5571 C   0  0  0  0  0  0  0  0  0  0  0  0
    7.7203   -2.9030   -4.9766 C   0  0  0  0  0  0  0  0  0  0  0  0
    7.9762   -1.7111   -4.2963 C   0  0  0  0  0  0  0  0  0  0  0  0
    7.2017   -1.3722   -3.1903 C   0  0  0  0  0  0  0  0  0  0  0  0
    7.4278   -0.1924   -2.6044 F   0  0  0  0  0  0  0  0  0  0  0  0
    0.9991   -1.5393   -1.3500 H   0  0  0  0  0  0  0  0  0  0  0  0
    0.9521   -0.1722   -0.1755 H   0  0  0  0  0  0  0  0  0  0  0  0
    0.8680   -1.8502    0.4218 H   0  0  0  0  0  0  0  0  0  0  0  0
    4.1789    0.0353    3.2522 H   0  0  0  0  0  0  0  0  0  0  0  0
    5.7702    0.8566    3.3828 H   0  0  0  0  0  0  0  0  0  0  0  0
    5.5898   -0.8155    3.9464 H   0  0  0  0  0  0  0  0  0  0  0  0
    8.8677   -1.2851    2.0000 H   0  0  0  0  0  0  0  0  0  0  0  0
    7.8813   -0.6397    3.3271 H   0  0  0  0  0  0  0  0  0  0  0  0
    7.9981    1.6540    2.2655 H   0  0  0  0  0  0  0  0  0  0  0  0
    8.9360    0.9666    0.9270 H   0  0  0  0  0  0  0  0  0  0  0  0
   11.2634    0.0821    1.3425 H   0  0  0  0  0  0  0  0  0  0  0  0
   13.3559    0.3656    2.6493 H   0  0  0  0  0  0  0  0  0  0  0  0
   13.3107    1.5461    4.8483 H   0  0  0  0  0  0  0  0  0  0  0  0
   11.1517    2.4415    5.7241 H   0  0  0  0  0  0  0  0  0  0  0  0
    9.0623    2.1567    4.4157 H   0  0  0  0  0  0  0  0  0  0  0  0
    4.2355   -2.0493   -1.7381 H   0  0  0  0  0  0  0  0  0  0  0  0
    5.0832   -4.0171   -3.1297 H   0  0  0  0  0  0  0  0  0  0  0  0
    6.4606   -4.6619   -5.0929 H   0  0  0  0  0  0  0  0  0  0  0  0
    8.3293   -3.1740   -5.8424 H   0  0  0  0  0  0  0  0  0  0  0  0
    8.7658   -1.0257   -4.6100 H   0  0  0  0  0  0  0  0  0  0  0  0
  1  2  1  0
  1 28  1  0
  1 29  1  0
  1 30  1  0
  2  3  1  0
  3  4  2  0
  3  5  1  0
  5  6  2  0
  5 19  1  0
  6  7  1  0
  6  8  1  0
  7 31  1  0
  7 32  1  0
  7 33  1  0
  8  9  1  0
  8 17  1  0
  9 10  1  0
  9 34  1  0
  9 35  1  0
 10 11  1  0
 10 36  1  0
 10 37  1  0
 11 12  2  0
 11 16  1  0
 12 13  1  0
 12 38  1  0
 13 14  2  0
 13 39  1  0
 14 15  1  0
 14 40  1  0
 15 16  2  0
 15 41  1  0
 16 42  1  0
 17 18  2  0
 17 19  1  0
 19 20  2  0
 20 21  1  0
 20 43  1  0
 21 22  2  0
 21 26  1  0
 22 23  1  0
 22 44  1  0
 23 24  2  0
 23 45  1  0
 24 25  1  0
 24 46  1  0
 25 26  2  0
 25 47  1  0
 26 27  1  0
M  END

