
     RDKit          3D

 35 36  0  0  0  0  0  0  0  0999 V2000
    0.9252   -0.3253    0.3861 C   0  0  0  0  0  0  0  0  0  0  0  0
    2.2277   -0.2336   -0.1419 O   0  0  0  0  0  0  0  0  0  0  0  0
    2.8687   -1.3688   -0.5269 C   0  0  0  0  0  0  0  0  0  0  0  0
    4.1553   -1.1925   -1.0529 C   0  0  0  0  0  0  0  0  0  0  0  0
    4.8932   -2.3013   -1.4762 C   0  0  0  0  0  0  0  0  0  0  0  0
    6.1297   -2.0344   -1.9764 O   0  0  0  0  0  0  0  0  0  0  0  0
    6.9362   -3.0947   -2.4307 C   0  0  0  0  0  0  0  0  0  0  0  0
    4.3493   -3.5957   -1.3766 C   0  0  0  0  0  0  0  0  0  0  0  0
    3.0645   -3.7668   -0.8470 C   0  0  0  0  0  0  0  0  0  0  0  0
    2.4280   -5.1196   -0.7319 C   0  0  1  0  0  0  0  0  0  0  0  0
    3.1969   -6.4052   -0.5525 C   0  0  0  0  0  0  0  0  0  0  0  0
    2.3802   -5.8493    0.5873 C   0  0  2  0  0  0  0  0  0  0  0  0
    1.0876   -6.4933    1.0540 C   0  0  1  0  0  0  0  0  0  0  0  0
    1.3507   -7.5957    2.0913 C   0  0  0  0  0  0  0  0  0  0  0  0
    0.1719   -5.4418    1.5150 N   0  0  0  0  0  0  0  0  0  0  0  0
    2.3195   -2.6554   -0.4196 C   0  0  0  0  0  0  0  0  0  0  0  0
    0.6068    0.7012    0.6144 H   0  0  0  0  0  0  0  0  0  0  0  0
    0.8961   -0.9231    1.3153 H   0  0  0  0  0  0  0  0  0  0  0  0
    0.2159   -0.7677   -0.3366 H   0  0  0  0  0  0  0  0  0  0  0  0
    4.5797   -0.1914   -1.1331 H   0  0  0  0  0  0  0  0  0  0  0  0
    7.8756   -2.6458   -2.7819 H   0  0  0  0  0  0  0  0  0  0  0  0
    6.4684   -3.6421   -3.2694 H   0  0  0  0  0  0  0  0  0  0  0  0
    7.1663   -3.8159   -1.6251 H   0  0  0  0  0  0  0  0  0  0  0  0
    4.9053   -4.4668   -1.7195 H   0  0  0  0  0  0  0  0  0  0  0  0
    1.5011   -5.2102   -1.3112 H   0  0  0  0  0  0  0  0  0  0  0  0
    4.2857   -6.3601   -0.4645 H   0  0  0  0  0  0  0  0  0  0  0  0
    2.8279   -7.2949   -1.0722 H   0  0  0  0  0  0  0  0  0  0  0  0
    2.9630   -5.3893    1.3964 H   0  0  0  0  0  0  0  0  0  0  0  0
    0.6121   -6.9601    0.1714 H   0  0  0  0  0  0  0  0  0  0  0  0
    1.8367   -7.1763    2.9893 H   0  0  0  0  0  0  0  0  0  0  0  0
    2.0103   -8.3824    1.6897 H   0  0  0  0  0  0  0  0  0  0  0  0
    0.4092   -8.0731    2.4108 H   0  0  0  0  0  0  0  0  0  0  0  0
    0.5636   -4.9858    2.3422 H   0  0  0  0  0  0  0  0  0  0  0  0
   -0.7126   -5.8529    1.8175 H   0  0  0  0  0  0  0  0  0  0  0  0
    1.3287   -2.8258    0.0023 H   0  0  0  0  0  0  0  0  0  0  0  0
  1  2  1  0
  1 17  1  0
  1 18  1  0
  1 19  1  0
  2  3  1  0
  3  4  2  0
  3 16  1  0
  4  5  1  0
  4 20  1  0
  5  6  1  0
  5  8  2  0
  6  7  1  0
  7 21  1  0
  7 22  1  0
  7 23  1  0
  8  9  1  0
  8 24  1  0
  9 10  1  0
  9 16  2  0
 10 11  1  0
 10 12  1  0
 10 25  1  6
 11 12  1  0
 11 26  1  0
 11 27  1  0
 12 13  1  0
 12 28  1  1
 13 14  1  0
 13 15  1  0
 13 29  1  6
 14 30  1  0
 14 31  1  0
 14 32  1  0
 15 33  1  0
 15 34  1  0
 16 35  1  0
M  END

