
     RDKit          3D

 46 48  0  0  0  0  0  0  0  0999 V2000
    3.5799   -0.9739    0.6666 C   0  0  0  0  0  0  0  0  0  0  0  0
    4.6631   -0.5683   -0.1403 O   0  0  0  0  0  0  0  0  0  0  0  0
    4.4328    0.2282   -1.2123 C   0  0  0  0  0  0  0  0  0  0  0  0
    3.1655    0.6792   -1.6134 C   0  0  0  0  0  0  0  0  0  0  0  0
    3.0455    1.5056   -2.7348 C   0  0  0  0  0  0  0  0  0  0  0  0
    4.1638    1.9013   -3.4838 C   0  0  0  0  0  0  0  0  0  0  0  0
    4.0202    2.7780   -4.6820 C   0  0  0  0  0  0  0  0  0  0  0  0
    3.3813    3.9833   -4.6578 C   0  0  0  0  0  0  0  0  0  0  0  0
    2.8844    4.7817   -3.5302 C   0  0  0  0  0  0  0  0  0  0  0  0
    3.4150    4.7231   -2.2174 C   0  0  0  0  0  0  0  0  0  0  0  0
    2.9208    5.5395   -1.2097 C   0  0  0  0  0  0  0  0  0  0  0  0
    1.8764    6.4474   -1.4680 C   0  0  0  0  0  0  0  0  0  0  0  0
    1.3465    7.3108   -0.3906 C   0  0  0  0  0  0  0  0  0  0  0  0
    1.7348    7.3083    0.7569 O   0  0  0  0  0  0  0  0  0  0  0  0
    1.3538    6.5299   -2.7675 C   0  0  0  0  0  0  0  0  0  0  0  0
    1.8560    5.7185   -3.7808 C   0  0  0  0  0  0  0  0  0  0  0  0
    4.5648    2.2583   -5.9648 C   0  0  0  0  0  0  0  0  0  0  0  0
    5.0727    3.1220   -6.9618 C   0  0  0  0  0  0  0  0  0  0  0  0
    5.5507    2.6361   -8.1712 C   0  0  0  0  0  0  0  0  0  0  0  0
    5.5442    1.2543   -8.4360 C   0  0  0  0  0  0  0  0  0  0  0  0
    6.0312    0.8727   -9.6417 O   0  0  0  0  0  0  0  0  0  0  0  0
    6.0680   -0.4978   -9.9715 C   0  0  0  0  0  0  0  0  0  0  0  0
    5.0569    0.3752   -7.4565 C   0  0  0  0  0  0  0  0  0  0  0  0
    4.5841    0.8797   -6.2424 C   0  0  0  0  0  0  0  0  0  0  0  0
    5.4258    1.4175   -3.0796 C   0  0  0  0  0  0  0  0  0  0  0  0
    5.5634    0.6058   -1.9600 C   0  0  0  0  0  0  0  0  0  0  0  0
    4.0025   -1.5925    1.4697 H   0  0  0  0  0  0  0  0  0  0  0  0
    2.8472   -1.5765    0.0999 H   0  0  0  0  0  0  0  0  0  0  0  0
    3.0571   -0.1110    1.1171 H   0  0  0  0  0  0  0  0  0  0  0  0
    2.2675    0.3939   -1.0652 H   0  0  0  0  0  0  0  0  0  0  0  0
    2.0534    1.8499   -3.0356 H   0  0  0  0  0  0  0  0  0  0  0  0
    3.1910    4.4462   -5.6314 H   0  0  0  0  0  0  0  0  0  0  0  0
    4.2356    4.0400   -1.9990 H   0  0  0  0  0  0  0  0  0  0  0  0
    3.3347    5.5007   -0.1994 H   0  0  0  0  0  0  0  0  0  0  0  0
    0.5227    8.0007   -0.7161 H   0  0  0  0  0  0  0  0  0  0  0  0
    0.5494    7.2405   -2.9822 H   0  0  0  0  0  0  0  0  0  0  0  0
    1.4460    5.7974   -4.7913 H   0  0  0  0  0  0  0  0  0  0  0  0
    5.1177    4.1963   -6.7698 H   0  0  0  0  0  0  0  0  0  0  0  0
    5.9538    3.3075   -8.9322 H   0  0  0  0  0  0  0  0  0  0  0  0
    6.4979   -0.5658  -10.9798 H   0  0  0  0  0  0  0  0  0  0  0  0
    5.0578   -0.9456   -9.9828 H   0  0  0  0  0  0  0  0  0  0  0  0
    6.7027   -1.0722   -9.2727 H   0  0  0  0  0  0  0  0  0  0  0  0
    5.0384   -0.7015   -7.6265 H   0  0  0  0  0  0  0  0  0  0  0  0
    4.2039    0.1787   -5.4965 H   0  0  0  0  0  0  0  0  0  0  0  0
    6.3149    1.6967   -3.6503 H   0  0  0  0  0  0  0  0  0  0  0  0
    6.5419    0.2438   -1.6379 H   0  0  0  0  0  0  0  0  0  0  0  0
  1  2  1  0
  1 27  1  0
  1 28  1  0
  1 29  1  0
  2  3  1  0
  3  4  2  0
  3 26  1  0
  4  5  1  0
  4 30  1  0
  5  6  2  0
  5 31  1  0
  6  7  1  0
  6 25  1  0
  7  8  2  0
  7 17  1  0
  8  9  1  0
  8 32  1  0
  9 10  2  0
  9 16  1  0
 10 11  1  0
 10 33  1  0
 11 12  2  0
 11 34  1  0
 12 13  1  0
 12 15  1  0
 13 14  2  0
 13 35  1  0
 15 16  2  0
 15 36  1  0
 16 37  1  0
 17 18  2  0
 17 24  1  0
 18 19  1  0
 18 38  1  0
 19 20  2  0
 19 39  1  0
 20 21  1  0
 20 23  1  0
 21 22  1  0
 22 40  1  0
 22 41  1  0
 22 42  1  0
 23 24  2  0
 23 43  1  0
 24 44  1  0
 25 26  2  0
 25 45  1  0
 26 46  1  0
M  END

