
     RDKit          3D

 40 41  0  0  0  0  0  0  0  0999 V2000
    3.8135   -1.5236    0.8240 C   0  0  0  0  0  0  0  0  0  0  0  0
    3.0159   -0.4555    0.0733 C   0  0  0  0  0  0  0  0  0  0  0  0
    2.8291    0.8803    0.8296 C   0  0  1  0  0  0  0  0  0  0  0  0
    4.2084    1.4761    1.1964 C   0  0  0  0  0  0  0  0  0  0  0  0
    4.5881    1.6764    2.3171 O   0  0  0  0  0  0  0  0  0  0  0  0
    5.0141    1.7634    0.1489 O   0  0  0  0  0  0  0  0  0  0  0  0
    2.0009    1.9151    0.0189 C   0  0  0  0  0  0  0  0  0  0  0  0
    1.4552    2.8775    1.0761 C   0  0  0  0  0  0  0  0  0  0  0  0
    1.3080    2.0225    2.2520 N   0  0  0  0  0  0  0  0  0  0  0  0
    0.6927    2.5105    3.3798 C   0  0  0  0  0  0  0  0  0  0  0  0
    0.2232    3.6524    3.4001 O   0  0  0  0  0  0  0  0  0  0  0  0
    0.5982    1.6432    4.4368 N   0  0  0  0  0  0  0  0  0  0  0  0
    0.2045    2.0126    5.7929 C   0  0  0  0  0  0  0  0  0  0  0  0
   -1.1057    2.8170    5.9470 C   0  0  0  0  0  0  0  0  0  0  0  0
   -2.2752    2.3286    5.1525 C   0  0  0  0  0  0  0  0  0  0  0  0
   -3.3458    1.4996    5.4339 C   0  0  0  0  0  0  0  0  0  0  0  0
   -4.1630    1.3678    4.3383 N   0  0  0  0  0  0  0  0  0  0  0  0
   -3.6059    2.1031    3.4003 C   0  0  0  0  0  0  0  0  0  0  0  0
   -2.4653    2.7069    3.8411 N   0  0  0  0  0  0  0  0  0  0  0  0
   -1.8051    3.3007    3.3379 H   0  0  0  0  0  0  0  0  0  0  0  0
    1.9857    0.7383    2.1143 C   0  0  0  0  0  0  0  0  0  0  0  0
    3.8800   -2.4472    0.2287 H   0  0  0  0  0  0  0  0  0  0  0  0
    3.3401   -1.7837    1.7841 H   0  0  0  0  0  0  0  0  0  0  0  0
    4.8420   -1.1925    1.0393 H   0  0  0  0  0  0  0  0  0  0  0  0
    2.0114   -0.8400   -0.1726 H   0  0  0  0  0  0  0  0  0  0  0  0
    3.4957   -0.2580   -0.9032 H   0  0  0  0  0  0  0  0  0  0  0  0
    4.5843    1.5406   -0.6889 H   0  0  0  0  0  0  0  0  0  0  0  0
    1.1752    1.3855   -0.4842 H   0  0  0  0  0  0  0  0  0  0  0  0
    2.5795    2.4338   -0.7609 H   0  0  0  0  0  0  0  0  0  0  0  0
    0.4945    3.3310    0.7906 H   0  0  0  0  0  0  0  0  0  0  0  0
    2.1542    3.7090    1.2789 H   0  0  0  0  0  0  0  0  0  0  0  0
    0.9958    0.7201    4.3328 H   0  0  0  0  0  0  0  0  0  0  0  0
    1.0131    2.5825    6.2887 H   0  0  0  0  0  0  0  0  0  0  0  0
    0.1028    1.0622    6.3389 H   0  0  0  0  0  0  0  0  0  0  0  0
   -0.9062    3.8656    5.6847 H   0  0  0  0  0  0  0  0  0  0  0  0
   -1.3639    2.7964    7.0182 H   0  0  0  0  0  0  0  0  0  0  0  0
   -3.5688    1.0027    6.3787 H   0  0  0  0  0  0  0  0  0  0  0  0
   -3.9852    2.2403    2.3869 H   0  0  0  0  0  0  0  0  0  0  0  0
    1.2625   -0.0931    2.0020 H   0  0  0  0  0  0  0  0  0  0  0  0
    2.6341    0.5335    2.9796 H   0  0  0  0  0  0  0  0  0  0  0  0
  1  2  1  0
  1 22  1  0
  1 23  1  0
  1 24  1  0
  2  3  1  0
  2 25  1  0
  2 26  1  0
  3  4  1  1
  3  7  1  0
  3 21  1  0
  4  5  2  0
  4  6  1  0
  6 27  1  0
  7  8  1  0
  7 28  1  0
  7 29  1  0
  8  9  1  0
  8 30  1  0
  8 31  1  0
  9 10  1  0
  9 21  1  0
 10 11  2  0
 10 12  1  0
 12 13  1  0
 12 32  1  0
 13 14  1  0
 13 33  1  0
 13 34  1  0
 14 15  1  0
 14 35  1  0
 14 36  1  0
 15 16  2  0
 15 19  1  0
 16 17  1  0
 16 37  1  0
 17 18  2  0
 18 19  1  0
 18 38  1  0
 19 20  1  0
 21 39  1  0
 21 40  1  0
M  END

