
     RDKit          3D

 43 44  0  0  0  0  0  0  0  0999 V2000
    5.7169   -1.0362   -5.1440 C   0  0  0  0  0  0  0  0  0  0  0  0
    5.8844   -0.6458   -3.6930 C   0  0  0  0  0  0  0  0  0  0  0  0
    6.1337    0.6945   -3.3296 C   0  0  0  0  0  0  0  0  0  0  0  0
    6.2952    1.0900   -1.9990 C   0  0  0  0  0  0  0  0  0  0  0  0
    6.2074    0.1167   -0.9987 C   0  0  0  0  0  0  0  0  0  0  0  0
    6.2811    0.2366    0.3784 N   0  0  0  0  0  0  0  0  0  0  0  0
    6.1072   -0.9776    0.8333 C   0  0  0  0  0  0  0  0  0  0  0  0
    6.1421   -1.3092    2.1711 N   0  0  0  0  0  0  0  0  0  0  0  0
    5.9357   -1.9389   -0.1564 N   0  0  0  0  0  0  0  0  0  0  0  0
    5.6379   -3.3536    0.0123 C   0  0  0  0  0  0  0  0  0  0  0  0
    6.8288   -4.3536    0.0349 C   0  0  1  0  0  0  0  0  0  0  0  0
    6.2215   -5.7633    0.1448 C   0  0  0  0  0  0  0  0  0  0  0  0
    7.6577   -4.2598   -1.2556 C   0  0  0  0  0  0  0  0  0  0  0  0
    7.7375   -4.0710    1.2642 C   0  0  0  0  0  0  0  0  0  0  0  0
    8.8680   -4.9905    1.3978 N   0  0  0  0  0  0  0  0  0  0  0  0
   10.1691   -4.3566    1.2868 C   0  0  0  0  0  0  0  0  0  0  0  0
    8.7859   -5.8803    2.5398 C   0  0  0  0  0  0  0  0  0  0  0  0
    5.9723   -1.2340   -1.3644 C   0  0  0  0  0  0  0  0  0  0  0  0
    5.8020   -1.6280   -2.6905 C   0  0  0  0  0  0  0  0  0  0  0  0
    5.7328   -0.1547   -5.8021 H   0  0  0  0  0  0  0  0  0  0  0  0
    4.7631   -1.5634   -5.3159 H   0  0  0  0  0  0  0  0  0  0  0  0
    6.5217   -1.7136   -5.4784 H   0  0  0  0  0  0  0  0  0  0  0  0
    6.1979    1.4480   -4.1197 H   0  0  0  0  0  0  0  0  0  0  0  0
    6.4763    2.1338   -1.7340 H   0  0  0  0  0  0  0  0  0  0  0  0
    6.1012   -0.4867    2.7647 H   0  0  0  0  0  0  0  0  0  0  0  0
    5.5216   -2.0515    2.4769 H   0  0  0  0  0  0  0  0  0  0  0  0
    4.9563   -3.6402   -0.8049 H   0  0  0  0  0  0  0  0  0  0  0  0
    5.0544   -3.4765    0.9415 H   0  0  0  0  0  0  0  0  0  0  0  0
    5.5841   -5.9925   -0.7251 H   0  0  0  0  0  0  0  0  0  0  0  0
    5.6024   -5.8727    1.0519 H   0  0  0  0  0  0  0  0  0  0  0  0
    7.0216   -6.5166    0.1846 H   0  0  0  0  0  0  0  0  0  0  0  0
    7.0531   -4.5179   -2.1398 H   0  0  0  0  0  0  0  0  0  0  0  0
    8.4982   -4.9674   -1.2020 H   0  0  0  0  0  0  0  0  0  0  0  0
    8.0649   -3.2488   -1.4086 H   0  0  0  0  0  0  0  0  0  0  0  0
    7.1155   -4.1027    2.1788 H   0  0  0  0  0  0  0  0  0  0  0  0
    8.1044   -3.0338    1.2002 H   0  0  0  0  0  0  0  0  0  0  0  0
   10.2341   -3.7686    0.3592 H   0  0  0  0  0  0  0  0  0  0  0  0
   10.9597   -5.1238    1.2478 H   0  0  0  0  0  0  0  0  0  0  0  0
   10.4046   -3.6754    2.1372 H   0  0  0  0  0  0  0  0  0  0  0  0
    7.8287   -6.4228    2.5428 H   0  0  0  0  0  0  0  0  0  0  0  0
    8.8798   -5.3544    3.5191 H   0  0  0  0  0  0  0  0  0  0  0  0
    9.5899   -6.6329    2.4914 H   0  0  0  0  0  0  0  0  0  0  0  0
    5.6143   -2.6700   -2.9595 H   0  0  0  0  0  0  0  0  0  0  0  0
  1  2  1  0
  1 20  1  0
  1 21  1  0
  1 22  1  0
  2  3  2  0
  2 19  1  0
  3  4  1  0
  3 23  1  0
  4  5  2  0
  4 24  1  0
  5  6  1  0
  5 18  1  0
  6  7  2  0
  7  8  1  0
  7  9  1  0
  8 25  1  0
  8 26  1  0
  9 10  1  0
  9 18  1  0
 11 10  1  6
 10 27  1  0
 10 28  1  0
 11 12  1  0
 11 13  1  0
 11 14  1  0
 12 29  1  0
 12 30  1  0
 12 31  1  0
 13 32  1  0
 13 33  1  0
 13 34  1  0
 14 15  1  0
 14 35  1  0
 14 36  1  0
 15 16  1  0
 15 17  1  0
 16 37  1  0
 16 38  1  0
 16 39  1  0
 17 40  1  0
 17 41  1  0
 17 42  1  0
 18 19  2  0
 19 43  1  0
M  END

