
     RDKit          3D

 18 17  0  0  0  0  0  0  0  0999 V2000
    2.3162   -0.8148   -1.1767 C   0  0  0  0  0  0  0  0  0  0  0  0
    2.2433    0.2653   -0.2455 O   0  0  0  0  0  0  0  0  0  0  0  0
    2.8026    1.4327   -0.7375 N   0  0  0  0  0  0  0  0  0  0  0  0
    1.8883    2.4658   -1.0260 C   0  0  0  0  0  0  0  0  0  0  0  0
    0.4307    2.1054   -0.8376 C   0  0  0  0  0  0  0  0  0  0  0  0
    2.2610    3.5587   -1.3915 O   0  0  0  0  0  0  0  0  0  0  0  0
    4.2225    1.5057   -0.6402 C   0  0  0  0  0  0  0  0  0  0  0  0
    4.8912    2.8045   -1.0159 C   0  0  0  0  0  0  0  0  0  0  0  0
    4.8324    0.5253   -0.2832 O   0  0  0  0  0  0  0  0  0  0  0  0
    1.7734   -1.6414   -0.6977 H   0  0  0  0  0  0  0  0  0  0  0  0
    3.3599   -1.1127   -1.3524 H   0  0  0  0  0  0  0  0  0  0  0  0
    1.8245   -0.5559   -2.1311 H   0  0  0  0  0  0  0  0  0  0  0  0
    0.2363    1.7894    0.1978 H   0  0  0  0  0  0  0  0  0  0  0  0
    0.1353    1.2696   -1.4895 H   0  0  0  0  0  0  0  0  0  0  0  0
   -0.1630    2.9940   -1.0842 H   0  0  0  0  0  0  0  0  0  0  0  0
    4.5438    3.6316   -0.3809 H   0  0  0  0  0  0  0  0  0  0  0  0
    4.6524    3.0943   -2.0484 H   0  0  0  0  0  0  0  0  0  0  0  0
    5.9714    2.6522   -0.8957 H   0  0  0  0  0  0  0  0  0  0  0  0
  1  2  1  0
  1 10  1  0
  1 11  1  0
  1 12  1  0
  2  3  1  0
  3  4  1  0
  3  7  1  0
  4  5  1  0
  4  6  2  0
  5 13  1  0
  5 14  1  0
  5 15  1  0
  7  8  1  0
  7  9  2  0
  8 16  1  0
  8 17  1  0
  8 18  1  0
M  END

