
     RDKit          3D

 55 58  0  0  0  0  0  0  0  0999 V2000
    1.0040    3.0345    3.8482 C   0  0  0  0  0  0  0  0  0  0  0  0
    2.5231    2.8633    3.8089 C   0  0  0  0  0  0  0  0  0  0  0  0
    3.1130    2.9590    2.3983 C   0  0  0  0  0  0  0  0  0  0  0  0
    4.6342    2.7913    2.3537 C   0  0  0  0  0  0  0  0  0  0  0  0
    5.1974    2.8999    0.9304 C   0  0  0  0  0  0  0  0  0  0  0  0
    6.6408    2.7675    0.8556 N   0  0  0  0  0  0  0  0  0  0  0  0
    7.4616    3.8593    0.7233 C   0  0  0  0  0  0  0  0  0  0  0  0
    7.1232    5.0204    0.6286 O   0  0  0  0  0  0  0  0  0  0  0  0
    8.8812    3.3018    0.7230 C   0  0  0  0  0  0  0  0  0  0  0  0
    9.9072    3.9850    0.5871 O   0  0  0  0  0  0  0  0  0  0  0  0
    8.7986    1.8815    0.9050 C   0  0  0  0  0  0  0  0  0  0  0  0
    9.9863    1.1506    0.9577 C   0  0  0  0  0  0  0  0  0  0  0  0
   11.1217    1.8085    0.7933 O   0  0  0  0  0  0  0  0  0  0  0  0
   10.1620   -0.2968    1.1590 C   0  0  0  0  0  0  0  0  0  0  0  0
    9.1885   -1.1056    1.7792 C   0  0  0  0  0  0  0  0  0  0  0  0
    9.3892   -2.4705    1.9902 C   0  0  0  0  0  0  0  0  0  0  0  0
   10.5944   -3.0230    1.5567 C   0  0  0  0  0  0  0  0  0  0  0  0
   11.5859   -2.2432    0.9386 C   0  0  0  0  0  0  0  0  0  0  0  0
   11.3813   -0.8889    0.7442 C   0  0  0  0  0  0  0  0  0  0  0  0
   12.7208   -3.1669    0.5556 C   0  0  0  0  0  0  0  0  0  0  0  0
   12.3230   -4.4668    1.2944 C   0  0  0  0  0  0  0  0  0  0  0  0
   10.9358   -4.3221    1.6798 O   0  0  0  0  0  0  0  0  0  0  0  0
    7.3346    1.4719    0.9531 C   0  0  2  0  0  0  0  0  0  0  0  0
    6.8772    0.5142   -0.1495 C   0  0  0  0  0  0  0  0  0  0  0  0
    7.2200    0.7494   -1.4911 C   0  0  0  0  0  0  0  0  0  0  0  0
    6.7555   -0.1097   -2.4863 C   0  0  0  0  0  0  0  0  0  0  0  0
    5.9502   -1.2081   -2.1666 C   0  0  0  0  0  0  0  0  0  0  0  0
    5.6022   -1.4443   -0.8314 C   0  0  0  0  0  0  0  0  0  0  0  0
    4.8227   -2.4871   -0.4447 O   0  0  0  0  0  0  0  0  0  0  0  0
    6.0659   -0.5769    0.1705 C   0  0  0  0  0  0  0  0  0  0  0  0
    0.6148    2.9600    4.8762 H   0  0  0  0  0  0  0  0  0  0  0  0
    0.4973    2.2631    3.2440 H   0  0  0  0  0  0  0  0  0  0  0  0
    0.7010    4.0167    3.4484 H   0  0  0  0  0  0  0  0  0  0  0  0
    2.7964    1.8876    4.2510 H   0  0  0  0  0  0  0  0  0  0  0  0
    2.9978    3.6266    4.4518 H   0  0  0  0  0  0  0  0  0  0  0  0
    2.8415    3.9350    1.9551 H   0  0  0  0  0  0  0  0  0  0  0  0
    2.6400    2.1948    1.7532 H   0  0  0  0  0  0  0  0  0  0  0  0
    4.9064    1.8135    2.7914 H   0  0  0  0  0  0  0  0  0  0  0  0
    5.1145    3.5598    2.9838 H   0  0  0  0  0  0  0  0  0  0  0  0
    4.9605    3.8908    0.5138 H   0  0  0  0  0  0  0  0  0  0  0  0
    4.7331    2.1410    0.2782 H   0  0  0  0  0  0  0  0  0  0  0  0
   10.8939    2.7948    0.6650 H   0  0  0  0  0  0  0  0  0  0  0  0
    8.2642   -0.6602    2.1411 H   0  0  0  0  0  0  0  0  0  0  0  0
    8.6380   -3.0886    2.4838 H   0  0  0  0  0  0  0  0  0  0  0  0
   12.1394   -0.2633    0.2716 H   0  0  0  0  0  0  0  0  0  0  0  0
   13.7086   -2.7984    0.8716 H   0  0  0  0  0  0  0  0  0  0  0  0
   12.7594   -3.3129   -0.5376 H   0  0  0  0  0  0  0  0  0  0  0  0
   12.9144   -4.6122    2.2144 H   0  0  0  0  0  0  0  0  0  0  0  0
   12.4077   -5.3734    0.6788 H   0  0  0  0  0  0  0  0  0  0  0  0
    7.0745    1.0148    1.9253 H   0  0  0  0  0  0  0  0  0  0  0  0
    7.8499    1.6019   -1.7532 H   0  0  0  0  0  0  0  0  0  0  0  0
    7.0226    0.0718   -3.5305 H   0  0  0  0  0  0  0  0  0  0  0  0
    5.5923   -1.8805   -2.9527 H   0  0  0  0  0  0  0  0  0  0  0  0
    4.5666   -3.0045   -1.2195 H   0  0  0  0  0  0  0  0  0  0  0  0
    5.7744   -0.7818    1.2037 H   0  0  0  0  0  0  0  0  0  0  0  0
  1  2  1  0
  1 31  1  0
  1 32  1  0
  1 33  1  0
  2  3  1  0
  2 34  1  0
  2 35  1  0
  3  4  1  0
  3 36  1  0
  3 37  1  0
  4  5  1  0
  4 38  1  0
  4 39  1  0
  5  6  1  0
  5 40  1  0
  5 41  1  0
  6  7  1  0
  6 23  1  0
  7  8  2  0
  7  9  1  0
  9 10  2  0
  9 11  1  0
 11 12  2  0
 11 23  1  0
 12 13  1  0
 12 14  1  0
 13 42  1  0
 14 15  2  0
 14 19  1  0
 15 16  1  0
 15 43  1  0
 16 17  2  0
 16 44  1  0
 17 18  1  0
 17 22  1  0
 18 19  2  0
 18 20  1  0
 19 45  1  0
 20 21  1  0
 20 46  1  0
 20 47  1  0
 21 22  1  0
 21 48  1  0
 21 49  1  0
 23 24  1  0
 23 50  1  1
 24 25  2  0
 24 30  1  0
 25 26  1  0
 25 51  1  0
 26 27  2  0
 26 52  1  0
 27 28  1  0
 27 53  1  0
 28 29  1  0
 28 30  2  0
 29 54  1  0
 30 55  1  0
M  END

