
     RDKit          3D

 43 45  0  0  0  0  0  0  0  0999 V2000
    0.9553    0.1691   -0.2247 O   0  0  0  0  0  0  0  0  0  0  0  0
    2.1069    0.2351    0.1761 C   0  0  0  0  0  0  0  0  0  0  0  0
    3.0141   -0.7845    0.0953 N   0  0  0  0  0  0  0  0  0  0  0  0
    2.6931   -2.0809   -0.4651 C   0  0  0  0  0  0  0  0  0  0  0  0
    2.6951   -3.2064    0.5906 C   0  0  0  0  0  0  0  0  0  0  0  0
    2.4428   -4.5716   -0.0034 C   0  0  0  0  0  0  0  0  0  0  0  0
    3.4647   -5.5144   -0.1921 C   0  0  0  0  0  0  0  0  0  0  0  0
    3.2115   -6.7652   -0.7637 C   0  0  0  0  0  0  0  0  0  0  0  0
    1.9144   -7.0986   -1.1635 C   0  0  0  0  0  0  0  0  0  0  0  0
    0.8747   -6.1807   -0.9904 C   0  0  0  0  0  0  0  0  0  0  0  0
    1.1575   -4.9432   -0.4203 C   0  0  0  0  0  0  0  0  0  0  0  0
    0.1527   -4.0628   -0.2569 F   0  0  0  0  0  0  0  0  0  0  0  0
    2.6242    1.4799    0.7970 C   0  0  0  0  0  0  0  0  0  0  0  0
    2.0138    2.6890    1.0014 C   0  0  0  0  0  0  0  0  0  0  0  0
    2.9873    3.5232    1.6314 C   0  0  0  0  0  0  0  0  0  0  0  0
    4.1209    2.7644    1.7712 C   0  0  0  0  0  0  0  0  0  0  0  0
    5.4648    3.0449    2.3408 C   0  0  0  0  0  0  0  0  0  0  0  0
    6.4140    3.1355    1.2893 O   0  0  0  0  0  0  0  0  0  0  0  0
    7.7235    3.3515    1.5944 C   0  0  0  0  0  0  0  0  0  0  0  0
    8.2202    3.5369    2.8935 C   0  0  0  0  0  0  0  0  0  0  0  0
    9.5897    3.7549    3.0944 C   0  0  0  0  0  0  0  0  0  0  0  0
   10.4480    3.7873    2.0029 C   0  0  0  0  0  0  0  0  0  0  0  0
   11.7609    3.9965    2.1975 F   0  0  0  0  0  0  0  0  0  0  0  0
    9.9698    3.6065    0.7037 C   0  0  0  0  0  0  0  0  0  0  0  0
    8.6100    3.3889    0.5030 C   0  0  0  0  0  0  0  0  0  0  0  0
    3.9046    1.5194    1.2669 O   0  0  0  0  0  0  0  0  0  0  0  0
    3.9476   -0.6174    0.4537 H   0  0  0  0  0  0  0  0  0  0  0  0
    3.4082   -2.3283   -1.2692 H   0  0  0  0  0  0  0  0  0  0  0  0
    1.6952   -1.9927   -0.9156 H   0  0  0  0  0  0  0  0  0  0  0  0
    1.9263   -2.9722    1.3444 H   0  0  0  0  0  0  0  0  0  0  0  0
    3.6675   -3.2161    1.1106 H   0  0  0  0  0  0  0  0  0  0  0  0
    4.4801   -5.2590    0.1248 H   0  0  0  0  0  0  0  0  0  0  0  0
    4.0276   -7.4795   -0.8946 H   0  0  0  0  0  0  0  0  0  0  0  0
    1.7069   -8.0740   -1.6101 H   0  0  0  0  0  0  0  0  0  0  0  0
   -0.1514   -6.4046   -1.2887 H   0  0  0  0  0  0  0  0  0  0  0  0
    0.9912    2.9301    0.7231 H   0  0  0  0  0  0  0  0  0  0  0  0
    2.8699    4.5594    1.9417 H   0  0  0  0  0  0  0  0  0  0  0  0
    5.7530    2.2389    3.0423 H   0  0  0  0  0  0  0  0  0  0  0  0
    5.4160    3.9897    2.9113 H   0  0  0  0  0  0  0  0  0  0  0  0
    7.5600    3.5169    3.7605 H   0  0  0  0  0  0  0  0  0  0  0  0
    9.9936    3.9009    4.0982 H   0  0  0  0  0  0  0  0  0  0  0  0
   10.6690    3.6382   -0.1343 H   0  0  0  0  0  0  0  0  0  0  0  0
    8.2044    3.2441   -0.5001 H   0  0  0  0  0  0  0  0  0  0  0  0
  1  2  2  0
  2  3  1  0
  2 13  1  0
  3  4  1  0
  3 27  1  0
  4  5  1  0
  4 28  1  0
  4 29  1  0
  5  6  1  0
  5 30  1  0
  5 31  1  0
  6  7  2  0
  6 11  1  0
  7  8  1  0
  7 32  1  0
  8  9  2  0
  8 33  1  0
  9 10  1  0
  9 34  1  0
 10 11  2  0
 10 35  1  0
 11 12  1  0
 13 14  2  0
 13 26  1  0
 14 15  1  0
 14 36  1  0
 15 16  2  0
 15 37  1  0
 16 17  1  0
 16 26  1  0
 17 18  1  0
 17 38  1  0
 17 39  1  0
 18 19  1  0
 19 20  2  0
 19 25  1  0
 20 21  1  0
 20 40  1  0
 21 22  2  0
 21 41  1  0
 22 23  1  0
 22 24  1  0
 24 25  2  0
 24 42  1  0
 25 43  1  0
M  END

