
     RDKit          3D

 47 49  0  0  0  0  0  0  0  0999 V2000
    2.7519    2.1605    2.1470 O   0  0  0  0  0  0  0  0  0  0  0  0
    2.2703    1.2188    1.5620 C   0  0  0  0  0  0  0  0  0  0  0  0
    0.8149    0.9657    1.4733 C   0  0  0  0  0  0  0  0  0  0  0  0
    0.2688   -0.0929    0.8465 C   0  0  0  0  0  0  0  0  0  0  0  0
   -1.1758   -0.3812    0.8148 C   0  0  0  0  0  0  0  0  0  0  0  0
   -1.9909   -0.0108    1.9049 C   0  0  0  0  0  0  0  0  0  0  0  0
   -3.3554   -0.2915    1.9373 C   0  0  0  0  0  0  0  0  0  0  0  0
   -3.9590   -0.9805    0.8801 C   0  0  0  0  0  0  0  0  0  0  0  0
   -3.1839   -1.3813   -0.2051 C   0  0  0  0  0  0  0  0  0  0  0  0
   -1.8214   -1.0743   -0.2355 C   0  0  0  0  0  0  0  0  0  0  0  0
   -1.0899   -1.4890   -1.4528 N   0  0  0  0  0  0  0  0  0  0  0  0
   -0.0741   -0.8779   -1.7482 O   0  0  0  0  0  0  0  0  0  0  0  0
   -1.5587   -2.4099   -2.1017 O   0  0  0  0  0  0  0  0  0  0  0  0
    3.0086    0.2992    0.8958 O   0  0  0  0  0  0  0  0  0  0  0  0
    4.4117    0.3997    1.0275 C   0  0  0  0  0  0  0  0  0  0  0  0
    4.8931   -0.2282    2.3429 C   0  0  0  0  0  0  0  0  0  0  0  0
    4.0888   -0.6724    3.1357 O   0  0  0  0  0  0  0  0  0  0  0  0
    6.3627   -0.2676    2.5953 C   0  0  0  0  0  0  0  0  0  0  0  0
    7.3220    0.2527    1.7083 C   0  0  0  0  0  0  0  0  0  0  0  0
    8.6838    0.1917    1.9886 C   0  0  0  0  0  0  0  0  0  0  0  0
    9.1345   -0.4027    3.1878 C   0  0  0  0  0  0  0  0  0  0  0  0
   10.5006   -0.4754    3.5147 N   0  0  0  0  0  0  0  0  0  0  0  0
   10.9540   -0.9583    4.8244 C   0  0  0  0  0  0  0  0  0  0  0  0
   12.4449   -0.5898    4.8651 C   0  0  0  0  0  0  0  0  0  0  0  0
   12.8531   -0.5971    3.3924 C   0  0  0  0  0  0  0  0  0  0  0  0
   11.5715   -0.2451    2.6449 C   0  0  0  0  0  0  0  0  0  0  0  0
   11.5001    0.1379    1.4981 O   0  0  0  0  0  0  0  0  0  0  0  0
    8.1735   -0.9302    4.0798 C   0  0  0  0  0  0  0  0  0  0  0  0
    6.8179   -0.8598    3.7843 C   0  0  0  0  0  0  0  0  0  0  0  0
    0.2126    1.7350    1.9620 H   0  0  0  0  0  0  0  0  0  0  0  0
    0.9386   -0.7835    0.3343 H   0  0  0  0  0  0  0  0  0  0  0  0
   -1.5239    0.4838    2.7582 H   0  0  0  0  0  0  0  0  0  0  0  0
   -3.9487    0.0171    2.8013 H   0  0  0  0  0  0  0  0  0  0  0  0
   -5.0266   -1.2094    0.9023 H   0  0  0  0  0  0  0  0  0  0  0  0
   -3.6124   -1.9270   -1.0451 H   0  0  0  0  0  0  0  0  0  0  0  0
    4.7329    1.4529    0.9864 H   0  0  0  0  0  0  0  0  0  0  0  0
    4.8444   -0.1396    0.1716 H   0  0  0  0  0  0  0  0  0  0  0  0
    7.0171    0.7269    0.7730 H   0  0  0  0  0  0  0  0  0  0  0  0
    9.4104    0.5925    1.2875 H   0  0  0  0  0  0  0  0  0  0  0  0
   10.7983   -2.0499    4.9089 H   0  0  0  0  0  0  0  0  0  0  0  0
   10.3826   -0.4786    5.6327 H   0  0  0  0  0  0  0  0  0  0  0  0
   13.0229   -1.2826    5.4927 H   0  0  0  0  0  0  0  0  0  0  0  0
   12.5653    0.4209    5.2861 H   0  0  0  0  0  0  0  0  0  0  0  0
   13.1708   -1.5987    3.0520 H   0  0  0  0  0  0  0  0  0  0  0  0
   13.6528    0.1064    3.1232 H   0  0  0  0  0  0  0  0  0  0  0  0
    8.4814   -1.4077    5.0094 H   0  0  0  0  0  0  0  0  0  0  0  0
    6.0764   -1.2678    4.4741 H   0  0  0  0  0  0  0  0  0  0  0  0
  1  2  2  0
  2  3  1  0
  2 14  1  0
  3  4  2  0
  3 30  1  0
  4  5  1  0
  4 31  1  0
  5  6  2  0
  5 10  1  0
  6  7  1  0
  6 32  1  0
  7  8  2  0
  7 33  1  0
  8  9  1  0
  8 34  1  0
  9 10  2  0
  9 35  1  0
 10 11  1  0
 11 12  2  0
 11 13  1  0
 14 15  1  0
 15 16  1  0
 15 36  1  0
 15 37  1  0
 16 17  2  0
 16 18  1  0
 18 19  2  0
 18 29  1  0
 19 20  1  0
 19 38  1  0
 20 21  2  0
 20 39  1  0
 21 22  1  0
 21 28  1  0
 22 23  1  0
 22 26  1  0
 23 24  1  0
 23 40  1  0
 23 41  1  0
 24 25  1  0
 24 42  1  0
 24 43  1  0
 25 26  1  0
 25 44  1  0
 25 45  1  0
 26 27  2  0
 28 29  2  0
 28 46  1  0
 29 47  1  0
M  CHG  2  11   1  13  -1
M  END

