
     RDKit          3D

 40 42  0  0  0  0  0  0  0  0999 V2000
    1.0070    0.5650   -1.2759 O   0  0  0  0  0  0  0  0  0  0  0  0
    2.2724    0.3207   -0.7046 C   0  0  0  0  0  0  0  0  0  0  0  0
    2.8694    1.6771   -0.3683 C   0  0  0  0  0  0  0  0  0  0  0  0
    4.1413    1.4568    0.2050 O   0  0  0  0  0  0  0  0  0  0  0  0
    4.8988    2.5195    0.6098 C   0  0  0  0  0  0  0  0  0  0  0  0
    4.4794    3.8514    0.4759 C   0  0  0  0  0  0  0  0  0  0  0  0
    5.2819    4.9142    0.9015 C   0  0  0  0  0  0  0  0  0  0  0  0
    6.5266    4.6528    1.4719 C   0  0  0  0  0  0  0  0  0  0  0  0
    6.9545    3.3320    1.6099 C   0  0  0  0  0  0  0  0  0  0  0  0
    6.1668    2.2515    1.1904 C   0  0  0  0  0  0  0  0  0  0  0  0
    6.7303    1.0283    1.3964 O   0  0  0  0  0  0  0  0  0  0  0  0
    6.1303   -0.2098    1.0550 C   0  0  0  0  0  0  0  0  0  0  0  0
    7.0847   -1.2922    1.4464 C   0  0  0  0  0  0  0  0  0  0  0  0
    8.3190   -1.2021    2.0189 C   0  0  0  0  0  0  0  0  0  0  0  0
    8.7907   -2.4738    2.1785 O   0  0  0  0  0  0  0  0  0  0  0  0
    7.8156   -3.2821    1.6928 C   0  0  0  0  0  0  0  0  0  0  0  0
    8.0210   -4.7299    1.7216 C   0  0  0  0  0  0  0  0  0  0  0  0
    9.2011   -5.2898    2.2429 C   0  0  0  0  0  0  0  0  0  0  0  0
    9.3713   -6.6750    2.2583 C   0  0  0  0  0  0  0  0  0  0  0  0
    8.3713   -7.5141    1.7564 C   0  0  0  0  0  0  0  0  0  0  0  0
    7.1950   -6.9606    1.2368 C   0  0  0  0  0  0  0  0  0  0  0  0
    7.0176   -5.5780    1.2178 C   0  0  0  0  0  0  0  0  0  0  0  0
    6.7816   -2.6238    1.2467 N   0  0  0  0  0  0  0  0  0  0  0  0
    0.6005   -0.2806   -1.4988 H   0  0  0  0  0  0  0  0  0  0  0  0
    2.9549   -0.2101   -1.3981 H   0  0  0  0  0  0  0  0  0  0  0  0
    2.2091   -0.2836    0.2224 H   0  0  0  0  0  0  0  0  0  0  0  0
    2.2008    2.2098    0.3327 H   0  0  0  0  0  0  0  0  0  0  0  0
    2.9446    2.2841   -1.2892 H   0  0  0  0  0  0  0  0  0  0  0  0
    3.5078    4.0646    0.0309 H   0  0  0  0  0  0  0  0  0  0  0  0
    4.9252    5.9398    0.7827 H   0  0  0  0  0  0  0  0  0  0  0  0
    7.1682    5.4694    1.8107 H   0  0  0  0  0  0  0  0  0  0  0  0
    7.9244    3.0959    2.0527 H   0  0  0  0  0  0  0  0  0  0  0  0
    5.9184   -0.2718   -0.0253 H   0  0  0  0  0  0  0  0  0  0  0  0
    5.1704   -0.3517    1.5784 H   0  0  0  0  0  0  0  0  0  0  0  0
    8.9504   -0.3842    2.3472 H   0  0  0  0  0  0  0  0  0  0  0  0
    9.9804   -4.6334    2.6342 H   0  0  0  0  0  0  0  0  0  0  0  0
   10.2913   -7.1023    2.6651 H   0  0  0  0  0  0  0  0  0  0  0  0
    8.5078   -8.5985    1.7698 H   0  0  0  0  0  0  0  0  0  0  0  0
    6.4110   -7.6127    0.8436 H   0  0  0  0  0  0  0  0  0  0  0  0
    6.1063   -5.1314    0.8161 H   0  0  0  0  0  0  0  0  0  0  0  0
  1  2  1  0
  1 24  1  0
  2  3  1  0
  2 25  1  0
  2 26  1  0
  3  4  1  0
  3 27  1  0
  3 28  1  0
  4  5  1  0
  5  6  2  0
  5 10  1  0
  6  7  1  0
  6 29  1  0
  7  8  2  0
  7 30  1  0
  8  9  1  0
  8 31  1  0
  9 10  2  0
  9 32  1  0
 10 11  1  0
 11 12  1  0
 12 13  1  0
 12 33  1  0
 12 34  1  0
 13 14  2  0
 13 23  1  0
 14 15  1  0
 14 35  1  0
 15 16  1  0
 16 17  1  0
 16 23  2  0
 17 18  2  0
 17 22  1  0
 18 19  1  0
 18 36  1  0
 19 20  2  0
 19 37  1  0
 20 21  1  0
 20 38  1  0
 21 22  2  0
 21 39  1  0
 22 40  1  0
M  END

