
     RDKit          3D

 29 30  0  0  0  0  0  0  0  0999 V2000
    1.9630   -0.4930    1.1341 O   0  0  0  0  0  0  0  0  0  0  0  0
    2.3435   -0.0258    0.0843 C   0  0  0  0  0  0  0  0  0  0  0  0
    3.0780    1.2862   -0.0488 C   0  0  0  0  0  0  0  0  0  0  0  0
    2.1187    2.3555   -0.5866 C   0  0  0  0  0  0  0  0  0  0  0  0
    0.9425    2.0856   -0.7358 O   0  0  0  0  0  0  0  0  0  0  0  0
    2.6596    3.7151   -0.8930 C   0  0  0  0  0  0  0  0  0  0  0  0
    1.7642    4.6836   -1.3827 C   0  0  0  0  0  0  0  0  0  0  0  0
    2.2104    5.9690   -1.6816 C   0  0  0  0  0  0  0  0  0  0  0  0
    3.5571    6.3041   -1.4936 C   0  0  0  0  0  0  0  0  0  0  0  0
    4.4549    5.3494   -1.0064 C   0  0  0  0  0  0  0  0  0  0  0  0
    4.0095    4.0600   -0.7076 C   0  0  0  0  0  0  0  0  0  0  0  0
    2.0955   -0.7779   -1.2458 C   0  0  0  0  0  0  0  0  0  0  0  0
    2.5791   -0.4058   -2.2889 O   0  0  0  0  0  0  0  0  0  0  0  0
    1.2960   -1.8750   -1.0283 N   0  0  0  0  0  0  0  0  0  0  0  0
    0.8620   -2.8095   -1.9509 C   0  0  0  0  0  0  0  0  0  0  0  0
    1.2738   -2.9918   -3.1869 N   0  0  0  0  0  0  0  0  0  0  0  0
    0.5089   -4.0387   -3.6055 C   0  0  0  0  0  0  0  0  0  0  0  0
   -0.3394   -4.5154   -2.7131 N   0  0  0  0  0  0  0  0  0  0  0  0
   -0.1085   -3.7148   -1.6461 N   0  0  0  0  0  0  0  0  0  0  0  0
   -0.6445   -3.8301   -0.7934 H   0  0  0  0  0  0  0  0  0  0  0  0
    3.9260    1.1716   -0.7410 H   0  0  0  0  0  0  0  0  0  0  0  0
    3.4527    1.5857    0.9420 H   0  0  0  0  0  0  0  0  0  0  0  0
    0.7198    4.3978   -1.5210 H   0  0  0  0  0  0  0  0  0  0  0  0
    1.5092    6.7150   -2.0637 H   0  0  0  0  0  0  0  0  0  0  0  0
    3.9077    7.3124   -1.7285 H   0  0  0  0  0  0  0  0  0  0  0  0
    5.5060    5.6094   -0.8602 H   0  0  0  0  0  0  0  0  0  0  0  0
    4.7237    3.3258   -0.3300 H   0  0  0  0  0  0  0  0  0  0  0  0
    1.0236   -1.9817   -0.0520 H   0  0  0  0  0  0  0  0  0  0  0  0
    0.5862   -4.4646   -4.6054 H   0  0  0  0  0  0  0  0  0  0  0  0
  1  2  2  0
  2  3  1  0
  2 12  1  0
  3  4  1  0
  3 21  1  0
  3 22  1  0
  4  5  2  0
  4  6  1  0
  6  7  2  0
  6 11  1  0
  7  8  1  0
  7 23  1  0
  8  9  2  0
  8 24  1  0
  9 10  1  0
  9 25  1  0
 10 11  2  0
 10 26  1  0
 11 27  1  0
 12 13  2  0
 12 14  1  0
 14 15  1  0
 14 28  1  0
 15 16  2  0
 15 19  1  0
 16 17  1  0
 17 18  2  0
 17 29  1  0
 18 19  1  0
 19 20  1  0
M  END

