
     RDKit          3D

 57 60  0  0  0  0  0  0  0  0999 V2000
    1.2462   -0.4617   -1.4150 C   0  0  0  0  0  0  0  0  0  0  0  0
    2.5045   -0.1214   -0.6813 C   0  0  0  0  0  0  0  0  0  0  0  0
    3.0933    1.1067   -0.5086 C   0  0  0  0  0  0  0  0  0  0  0  0
    4.3396    0.9143    0.1791 C   0  0  0  0  0  0  0  0  0  0  0  0
    5.3043    1.9555    0.5550 C   0  0  0  0  0  0  0  0  0  0  0  0
    6.3623    1.7563    1.1252 O   0  0  0  0  0  0  0  0  0  0  0  0
    4.9066    3.3959    0.1840 C   0  0  0  0  0  0  0  0  0  0  0  0
    5.9340    4.3122    0.5115 O   0  0  0  0  0  0  0  0  0  0  0  0
    6.0138    4.6978    1.8035 C   0  0  0  0  0  0  0  0  0  0  0  0
    5.1830    4.4148    2.6340 O   0  0  0  0  0  0  0  0  0  0  0  0
    7.2150    5.5462    2.0678 C   0  0  0  0  0  0  0  0  0  0  0  0
    7.3703    6.0807    3.3552 C   0  0  0  0  0  0  0  0  0  0  0  0
    8.4695    6.8838    3.6530 C   0  0  0  0  0  0  0  0  0  0  0  0
    9.4319    7.1657    2.6690 C   0  0  0  0  0  0  0  0  0  0  0  0
   10.6527    8.0179    2.9176 C   0  0  0  0  0  0  0  0  0  0  0  0
   10.6069    8.8330    4.0162 N   0  0  0  0  0  0  0  0  0  0  0  0
   11.6252    7.9737    2.1837 O   0  0  0  0  0  0  0  0  0  0  0  0
    9.2844    6.6082    1.3898 C   0  0  0  0  0  0  0  0  0  0  0  0
    8.1834    5.8105    1.0862 C   0  0  0  0  0  0  0  0  0  0  0  0
    4.4737   -0.4598    0.4080 C   0  0  0  0  0  0  0  0  0  0  0  0
    5.6157   -1.2110    1.0108 C   0  0  0  0  0  0  0  0  0  0  0  0
    3.3493   -1.0751   -0.0992 N   0  0  0  0  0  0  0  0  0  0  0  0
    3.0910   -2.5078   -0.0683 C   0  0  0  0  0  0  0  0  0  0  0  0
    2.3815   -3.0636    1.1744 C   0  0  2  0  0  0  0  0  0  0  0  0
    1.0616   -2.3926    1.5477 C   0  0  0  0  0  0  0  0  0  0  0  0
    0.4761   -3.0421    2.6625 O   0  0  0  0  0  0  0  0  0  0  0  0
    1.3349   -3.3016    3.6941 C   0  0  0  0  0  0  0  0  0  0  0  0
    0.8111   -3.6140    4.9523 C   0  0  0  0  0  0  0  0  0  0  0  0
    1.6675   -3.8802    6.0217 C   0  0  0  0  0  0  0  0  0  0  0  0
    3.0546   -3.8289    5.8388 C   0  0  0  0  0  0  0  0  0  0  0  0
    3.5833   -3.5280    4.5824 C   0  0  0  0  0  0  0  0  0  0  0  0
    2.7289   -3.2703    3.5066 C   0  0  0  0  0  0  0  0  0  0  0  0
    3.2743   -2.9901    2.2787 O   0  0  0  0  0  0  0  0  0  0  0  0
    0.8294    0.4562   -1.8523 H   0  0  0  0  0  0  0  0  0  0  0  0
    0.4626   -0.8980   -0.7743 H   0  0  0  0  0  0  0  0  0  0  0  0
    1.4210   -1.1667   -2.2471 H   0  0  0  0  0  0  0  0  0  0  0  0
    2.6704    2.0466   -0.8573 H   0  0  0  0  0  0  0  0  0  0  0  0
    3.9695    3.6595    0.6995 H   0  0  0  0  0  0  0  0  0  0  0  0
    4.7542    3.4760   -0.9024 H   0  0  0  0  0  0  0  0  0  0  0  0
    6.6193    5.8465    4.1118 H   0  0  0  0  0  0  0  0  0  0  0  0
    8.5873    7.2645    4.6705 H   0  0  0  0  0  0  0  0  0  0  0  0
    9.7385    9.0499    4.4855 H   0  0  0  0  0  0  0  0  0  0  0  0
   11.3913    9.4601    4.1521 H   0  0  0  0  0  0  0  0  0  0  0  0
   10.0562    6.8151    0.6463 H   0  0  0  0  0  0  0  0  0  0  0  0
    8.0679    5.3794    0.0914 H   0  0  0  0  0  0  0  0  0  0  0  0
    6.3568   -0.4903    1.3731 H   0  0  0  0  0  0  0  0  0  0  0  0
    6.1054   -1.8578    0.2597 H   0  0  0  0  0  0  0  0  0  0  0  0
    5.2865   -1.8545    1.8378 H   0  0  0  0  0  0  0  0  0  0  0  0
    4.0477   -3.0408   -0.1636 H   0  0  0  0  0  0  0  0  0  0  0  0
    2.4892   -2.7724   -0.9497 H   0  0  0  0  0  0  0  0  0  0  0  0
    2.1676   -4.1305    0.9622 H   0  0  0  0  0  0  0  0  0  0  0  0
    0.3349   -2.4736    0.7277 H   0  0  0  0  0  0  0  0  0  0  0  0
    1.2344   -1.3240    1.7709 H   0  0  0  0  0  0  0  0  0  0  0  0
   -0.2748   -3.6347    5.0667 H   0  0  0  0  0  0  0  0  0  0  0  0
    1.2499   -4.1210    7.0019 H   0  0  0  0  0  0  0  0  0  0  0  0
    3.7287   -4.0287    6.6747 H   0  0  0  0  0  0  0  0  0  0  0  0
    4.6612   -3.4937    4.4104 H   0  0  0  0  0  0  0  0  0  0  0  0
  1  2  1  0
  1 34  1  0
  1 35  1  0
  1 36  1  0
  2  3  2  0
  2 22  1  0
  3  4  1  0
  3 37  1  0
  4  5  1  0
  4 20  2  0
  5  6  2  0
  5  7  1  0
  7  8  1  0
  7 38  1  0
  7 39  1  0
  8  9  1  0
  9 10  2  0
  9 11  1  0
 11 12  2  0
 11 19  1  0
 12 13  1  0
 12 40  1  0
 13 14  2  0
 13 41  1  0
 14 15  1  0
 14 18  1  0
 15 16  1  0
 15 17  2  0
 16 42  1  0
 16 43  1  0
 18 19  2  0
 18 44  1  0
 19 45  1  0
 20 21  1  0
 20 22  1  0
 21 46  1  0
 21 47  1  0
 21 48  1  0
 22 23  1  0
 23 24  1  0
 23 49  1  0
 23 50  1  0
 24 25  1  0
 24 33  1  0
 24 51  1  6
 25 26  1  0
 25 52  1  0
 25 53  1  0
 26 27  1  0
 27 28  2  0
 27 32  1  0
 28 29  1  0
 28 54  1  0
 29 30  2  0
 29 55  1  0
 30 31  1  0
 30 56  1  0
 31 32  2  0
 31 57  1  0
 32 33  1  0
M  END

