
     RDKit          3D

 43 44  0  0  0  0  0  0  0  0999 V2000
    6.5097    4.9167   -2.4005 O   0  0  0  0  0  0  0  0  0  0  0  0
    5.5593    4.0015   -2.9217 C   0  0  0  0  0  0  0  0  0  0  0  0
    4.9298    3.2068   -1.7722 C   0  0  1  0  0  0  0  0  0  0  0  0
    5.6064    2.3896   -1.4700 H   0  0  0  0  0  0  0  0  0  0  0  0
    4.6968    4.0465   -0.6430 O   0  0  0  0  0  0  0  0  0  0  0  0
    3.3601    3.9178   -0.1595 C   0  0  1  0  0  0  0  0  0  0  0  0
    3.2675    2.7952    0.8897 C   0  0  0  0  0  0  0  0  0  0  0  0
    4.4341    3.0296    2.2419 Cl  0  0  0  0  0  0  0  0  0  0  0  0
    2.9689    5.0595    0.5282 O   0  0  0  0  0  0  0  0  0  0  0  0
    2.7398    6.3974    0.0805 C   0  0  1  0  0  0  0  0  0  0  0  0
    1.8506    6.4309   -0.5654 H   0  0  0  0  0  0  0  0  0  0  0  0
    2.4273    7.1229    1.2323 O   0  0  0  0  0  0  0  0  0  0  0  0
    3.4690    7.1840    2.2174 C   0  0  2  0  0  0  0  0  0  0  0  0
    3.7209    6.1522    2.5196 H   0  0  0  0  0  0  0  0  0  0  0  0
    2.8515    7.8879    3.4206 C   0  0  0  0  0  0  0  0  0  0  0  0
    1.7507    7.1635    3.9107 O   0  0  0  0  0  0  0  0  0  0  0  0
    4.7500    7.7989    1.6457 C   0  0  2  0  0  0  0  0  0  0  0  0
    5.5607    7.6909    2.3815 H   0  0  0  0  0  0  0  0  0  0  0  0
    4.6024    9.5951    1.3693 Cl  0  0  0  0  0  0  0  0  0  0  0  0
    5.1367    7.0812    0.3376 C   0  0  2  0  0  0  0  0  0  0  0  0
    5.3581    6.0337    0.6084 H   0  0  0  0  0  0  0  0  0  0  0  0
    6.2311    7.6570   -0.3381 O   0  0  0  0  0  0  0  0  0  0  0  0
    3.9375    7.0779   -0.6136 C   0  0  1  0  0  0  0  0  0  0  0  0
    3.6273    8.1242   -0.7757 H   0  0  0  0  0  0  0  0  0  0  0  0
    4.2220    6.5006   -1.8715 O   0  0  0  0  0  0  0  0  0  0  0  0
    2.5636    3.5421   -1.4454 C   0  0  1  0  0  0  0  0  0  0  0  0
    1.6295    3.0079   -1.2047 H   0  0  0  0  0  0  0  0  0  0  0  0
    2.2313    4.6550   -2.2263 O   0  0  0  0  0  0  0  0  0  0  0  0
    3.5633    2.6097   -2.1788 C   0  0  2  0  0  0  0  0  0  0  0  0
    3.3855    2.6973   -3.2657 H   0  0  0  0  0  0  0  0  0  0  0  0
    3.5158    1.2572   -1.7656 O   0  0  0  0  0  0  0  0  0  0  0  0
    7.0002    5.3062   -3.1365 H   0  0  0  0  0  0  0  0  0  0  0  0
    6.0275    3.2766   -3.6138 H   0  0  0  0  0  0  0  0  0  0  0  0
    4.7759    4.5386   -3.4865 H   0  0  0  0  0  0  0  0  0  0  0  0
    2.2597    2.7880    1.3237 H   0  0  0  0  0  0  0  0  0  0  0  0
    3.4870    1.8250    0.4317 H   0  0  0  0  0  0  0  0  0  0  0  0
    2.5804    8.9201    3.1308 H   0  0  0  0  0  0  0  0  0  0  0  0
    3.5991    7.9514    4.2281 H   0  0  0  0  0  0  0  0  0  0  0  0
    1.1806    6.9946    3.1462 H   0  0  0  0  0  0  0  0  0  0  0  0
    7.0463    7.3266    0.0593 H   0  0  0  0  0  0  0  0  0  0  0  0
    5.1535    6.1995   -1.8823 H   0  0  0  0  0  0  0  0  0  0  0  0
    2.9820    5.2926   -2.2425 H   0  0  0  0  0  0  0  0  0  0  0  0
    2.6875    0.8691   -2.0786 H   0  0  0  0  0  0  0  0  0  0  0  0
  1  2  1  0
  1 32  1  0
  2  3  1  0
  2 33  1  0
  2 34  1  0
  3  4  1  1
  3  5  1  0
  3 29  1  0
  5  6  1  0
  6  7  1  0
  6  9  1  1
  6 26  1  0
  7  8  1  0
  7 35  1  0
  7 36  1  0
  9 10  1  0
 10 11  1  6
 10 12  1  0
 10 23  1  0
 12 13  1  0
 13 14  1  1
 13 15  1  0
 13 17  1  0
 15 16  1  0
 15 37  1  0
 15 38  1  0
 16 39  1  0
 17 18  1  1
 17 19  1  0
 17 20  1  0
 20 21  1  1
 20 22  1  0
 20 23  1  0
 22 40  1  0
 23 24  1  6
 23 25  1  0
 25 41  1  0
 26 27  1  1
 26 28  1  0
 26 29  1  0
 28 42  1  0
 29 30  1  6
 29 31  1  0
 31 43  1  0
M  END

