
     RDKit          3D

 29 31  0  0  0  0  0  0  0  0999 V2000
    5.6722   -0.1327    0.8092 Cl  0  0  0  0  0  0  0  0  0  0  0  0
    4.4049    0.2851   -0.4339 C   0  0  0  0  0  0  0  0  0  0  0  0
    4.1563    1.7477   -0.5288 C   0  0  0  0  0  0  0  0  0  0  0  0
    3.5377    2.6127    0.3582 C   0  0  0  0  0  0  0  0  0  0  0  0
    3.6165    3.8220   -0.2512 N   0  0  0  0  0  0  0  0  0  0  0  0
    3.1263    5.1149    0.1900 C   0  0  0  0  0  0  0  0  0  0  0  0
    1.6076    5.2258    0.1789 C   0  0  2  0  0  0  0  0  0  0  0  0
    1.0752    6.6360    0.5407 C   0  0  0  0  0  0  0  0  0  0  0  0
   -0.0554    6.3056    1.4864 C   0  0  0  0  0  0  0  0  0  0  0  0
   -1.0426    7.0964    2.0646 C   0  0  0  0  0  0  0  0  0  0  0  0
   -1.9352    6.4917    2.9628 C   0  0  0  0  0  0  0  0  0  0  0  0
   -3.1948    7.4605    3.6991 Cl  0  0  0  0  0  0  0  0  0  0  0  0
   -1.8379    5.1323    3.2801 C   0  0  0  0  0  0  0  0  0  0  0  0
   -0.8421    4.3374    2.6980 C   0  0  0  0  0  0  0  0  0  0  0  0
    0.0358    4.9460    1.8055 C   0  0  0  0  0  0  0  0  0  0  0  0
    1.0577    4.3149    1.1610 O   0  0  0  0  0  0  0  0  0  0  0  0
    4.2387    3.7156   -1.4440 N   0  0  0  0  0  0  0  0  0  0  0  0
    4.5665    2.4752   -1.6083 N   0  0  0  0  0  0  0  0  0  0  0  0
    3.5063   -0.2738   -0.1429 H   0  0  0  0  0  0  0  0  0  0  0  0
    4.7696   -0.0824   -1.4005 H   0  0  0  0  0  0  0  0  0  0  0  0
    3.0632    2.4750    1.3249 H   0  0  0  0  0  0  0  0  0  0  0  0
    3.5557    5.8503   -0.5047 H   0  0  0  0  0  0  0  0  0  0  0  0
    3.5033    5.3249    1.2036 H   0  0  0  0  0  0  0  0  0  0  0  0
    1.2301    4.9076   -0.8088 H   0  0  0  0  0  0  0  0  0  0  0  0
    0.7554    7.1904   -0.3543 H   0  0  0  0  0  0  0  0  0  0  0  0
    1.8487    7.2439    1.0445 H   0  0  0  0  0  0  0  0  0  0  0  0
   -1.1339    8.1599    1.8364 H   0  0  0  0  0  0  0  0  0  0  0  0
   -2.5494    4.6944    3.9820 H   0  0  0  0  0  0  0  0  0  0  0  0
   -0.7576    3.2749    2.9318 H   0  0  0  0  0  0  0  0  0  0  0  0
  1  2  1  0
  2  3  1  0
  2 19  1  0
  2 20  1  0
  3  4  2  0
  3 18  1  0
  4  5  1  0
  4 21  1  0
  5  6  1  0
  5 17  1  0
  6  7  1  0
  6 22  1  0
  6 23  1  0
  7  8  1  0
  7 16  1  0
  7 24  1  6
  8  9  1  0
  8 25  1  0
  8 26  1  0
  9 10  1  0
  9 15  2  0
 10 11  2  0
 10 27  1  0
 11 12  1  0
 11 13  1  0
 13 14  2  0
 13 28  1  0
 14 15  1  0
 14 29  1  0
 15 16  1  0
 17 18  2  0
M  END

