
     RDKit          3D

 58 60  0  0  0  0  0  0  0  0999 V2000
    9.4922    5.0537   -1.4806 C   0  0  0  0  0  0  0  0  0  0  0  0
    9.3885    3.8290   -0.5872 C   0  0  0  0  0  0  0  0  0  0  0  0
    8.2243    3.0394   -0.8991 O   0  0  0  0  0  0  0  0  0  0  0  0
    8.3311    2.1301   -1.8817 C   0  0  0  0  0  0  0  0  0  0  0  0
    9.3484    1.9206   -2.5003 O   0  0  0  0  0  0  0  0  0  0  0  0
    7.0055    1.4347   -2.1294 C   0  0  0  0  0  0  0  0  0  0  0  0
    7.1935    0.0832   -2.8355 C   0  0  1  0  0  0  0  0  0  0  0  0
    7.8371   -0.9099   -1.9635 N   0  0  0  0  0  0  0  0  0  0  0  0
    7.3938   -1.3029   -0.7396 C   0  0  0  0  0  0  0  0  0  0  0  0
    6.4285   -0.8291   -0.1552 O   0  0  0  0  0  0  0  0  0  0  0  0
    8.2032   -2.4642   -0.1286 C   0  0  0  0  0  0  0  0  0  0  0  0
    7.9034   -3.7392   -0.7512 N   0  0  0  0  0  0  0  0  0  0  0  0
    6.6858   -4.4871   -0.4918 C   0  0  0  0  0  0  0  0  0  0  0  0
    6.8522   -5.7004   -1.4229 C   0  0  0  0  0  0  0  0  0  0  0  0
    7.8223   -5.2352   -2.4143 N   0  0  0  0  0  0  0  0  0  0  0  0
    8.1674   -5.9976   -3.5449 C   0  0  0  0  0  0  0  0  0  0  0  0
    9.0807   -5.5321   -4.5161 C   0  0  0  0  0  0  0  0  0  0  0  0
    9.3826   -6.3179   -5.6233 C   0  0  0  0  0  0  0  0  0  0  0  0
    8.7979   -7.5801   -5.8220 C   0  0  0  0  0  0  0  0  0  0  0  0
    9.1608   -8.4116   -7.0133 C   0  0  0  0  0  0  0  0  0  0  0  0
   10.3102   -8.4433   -7.5825 N   0  0  0  0  0  0  0  0  0  0  0  0
    8.1500   -9.2386   -7.4755 N   0  0  0  0  0  0  0  0  0  0  0  0
    7.8872   -8.0329   -4.8566 C   0  0  0  0  0  0  0  0  0  0  0  0
    7.5791   -7.2638   -3.7343 C   0  0  0  0  0  0  0  0  0  0  0  0
    8.4591   -4.0783   -1.9650 C   0  0  0  0  0  0  0  0  0  0  0  0
    9.3434   -3.4462   -2.5261 O   0  0  0  0  0  0  0  0  0  0  0  0
    5.9242   -0.4403   -3.5018 C   0  0  0  0  0  0  0  0  0  0  0  0
    5.9244   -0.7432   -4.8695 C   0  0  0  0  0  0  0  0  0  0  0  0
    4.7597   -1.2243   -5.4698 C   0  0  0  0  0  0  0  0  0  0  0  0
    3.6244   -1.3882   -4.6723 C   0  0  0  0  0  0  0  0  0  0  0  0
    3.6021   -1.1058   -3.3673 N   0  0  0  0  0  0  0  0  0  0  0  0
    4.7193   -0.6425   -2.8009 C   0  0  0  0  0  0  0  0  0  0  0  0
   10.3441    5.6770   -1.1646 H   0  0  0  0  0  0  0  0  0  0  0  0
    8.5780    5.6647   -1.4195 H   0  0  0  0  0  0  0  0  0  0  0  0
    9.6548    4.7611   -2.5285 H   0  0  0  0  0  0  0  0  0  0  0  0
    9.2569    4.1130    0.4668 H   0  0  0  0  0  0  0  0  0  0  0  0
   10.2833    3.1961   -0.6810 H   0  0  0  0  0  0  0  0  0  0  0  0
    6.4105    2.1019   -2.7764 H   0  0  0  0  0  0  0  0  0  0  0  0
    6.4588    1.3306   -1.1840 H   0  0  0  0  0  0  0  0  0  0  0  0
    7.9286    0.2581   -3.6336 H   0  0  0  0  0  0  0  0  0  0  0  0
    8.6036   -1.4499   -2.3642 H   0  0  0  0  0  0  0  0  0  0  0  0
    7.9463   -2.5146    0.9380 H   0  0  0  0  0  0  0  0  0  0  0  0
    9.2828   -2.2816   -0.2345 H   0  0  0  0  0  0  0  0  0  0  0  0
    5.7870   -3.8951   -0.7460 H   0  0  0  0  0  0  0  0  0  0  0  0
    6.6082   -4.7805    0.5665 H   0  0  0  0  0  0  0  0  0  0  0  0
    5.9027   -5.9852   -1.8989 H   0  0  0  0  0  0  0  0  0  0  0  0
    7.2411   -6.5816   -0.8811 H   0  0  0  0  0  0  0  0  0  0  0  0
    9.5453   -4.5580   -4.3871 H   0  0  0  0  0  0  0  0  0  0  0  0
   10.0819   -5.9296   -6.3684 H   0  0  0  0  0  0  0  0  0  0  0  0
   10.9839   -7.8774   -7.0627 H   0  0  0  0  0  0  0  0  0  0  0  0
    7.2018   -8.8826   -7.4269 H   0  0  0  0  0  0  0  0  0  0  0  0
    8.3799   -9.7151   -8.3426 H   0  0  0  0  0  0  0  0  0  0  0  0
    7.4300   -9.0182   -4.9704 H   0  0  0  0  0  0  0  0  0  0  0  0
    6.8812   -7.6693   -3.0019 H   0  0  0  0  0  0  0  0  0  0  0  0
    6.8339   -0.6018   -5.4617 H   0  0  0  0  0  0  0  0  0  0  0  0
    4.7313   -1.4671   -6.5347 H   0  0  0  0  0  0  0  0  0  0  0  0
    2.6910   -1.7637   -5.1095 H   0  0  0  0  0  0  0  0  0  0  0  0
    4.6767   -0.4320   -1.7279 H   0  0  0  0  0  0  0  0  0  0  0  0
  1  2  1  0
  1 33  1  0
  1 34  1  0
  1 35  1  0
  2  3  1  0
  2 36  1  0
  2 37  1  0
  3  4  1  0
  4  5  2  0
  4  6  1  0
  6  7  1  0
  6 38  1  0
  6 39  1  0
  7  8  1  0
  7 27  1  0
  7 40  1  6
  8  9  1  0
  8 41  1  0
  9 10  2  0
  9 11  1  0
 11 12  1  0
 11 42  1  0
 11 43  1  0
 12 13  1  0
 12 25  1  0
 13 14  1  0
 13 44  1  0
 13 45  1  0
 14 15  1  0
 14 46  1  0
 14 47  1  0
 15 16  1  0
 15 25  1  0
 16 17  2  0
 16 24  1  0
 17 18  1  0
 17 48  1  0
 18 19  2  0
 18 49  1  0
 19 20  1  0
 19 23  1  0
 20 21  2  0
 20 22  1  0
 21 50  1  0
 22 51  1  0
 22 52  1  0
 23 24  2  0
 23 53  1  0
 24 54  1  0
 25 26  2  0
 27 28  2  0
 27 32  1  0
 28 29  1  0
 28 55  1  0
 29 30  2  0
 29 56  1  0
 30 31  1  0
 30 57  1  0
 31 32  2  0
 32 58  1  0
M  END

