
     RDKit          3D

 38 39  0  0  0  0  0  0  0  0999 V2000
    1.1827   -1.5321   -1.0710 C   0  0  0  0  0  0  0  0  0  0  0  0
    2.5307   -1.0653   -1.0057 O   0  0  0  0  0  0  0  0  0  0  0  0
    3.3574   -1.7464   -0.1899 C   0  0  0  0  0  0  0  0  0  0  0  0
    3.0085   -2.7021    0.4627 O   0  0  0  0  0  0  0  0  0  0  0  0
    4.7389   -1.1845   -0.1903 C   0  0  0  0  0  0  0  0  0  0  0  0
    5.1228   -0.0721   -0.9567 C   0  0  0  0  0  0  0  0  0  0  0  0
    6.4375    0.3722   -0.8829 C   0  0  0  0  0  0  0  0  0  0  0  0
    7.3410   -0.3057   -0.0465 C   0  0  0  0  0  0  0  0  0  0  0  0
    8.7884    0.1386    0.0425 C   0  0  0  0  0  0  0  0  0  0  0  0
    9.4919   -0.5871    1.0536 N   0  0  0  0  0  0  0  0  0  0  0  0
   10.8465   -0.4770    1.2890 C   0  0  0  0  0  0  0  0  0  0  0  0
   11.6304    0.4800    0.6115 C   0  0  0  0  0  0  0  0  0  0  0  0
   12.9952    0.5807    0.8769 C   0  0  0  0  0  0  0  0  0  0  0  0
   13.5990   -0.2605    1.8087 C   0  0  0  0  0  0  0  0  0  0  0  0
   12.8394   -1.2229    2.4982 C   0  0  0  0  0  0  0  0  0  0  0  0
   13.5321   -2.1180    3.5029 C   0  0  0  0  0  0  0  0  0  0  0  0
   11.4593   -1.3375    2.2457 C   0  0  0  0  0  0  0  0  0  0  0  0
   10.5878   -2.3453    2.9561 C   0  0  0  0  0  0  0  0  0  0  0  0
    6.9731   -1.3639    0.6824 N   0  0  0  0  0  0  0  0  0  0  0  0
    5.7116   -1.7912    0.6146 C   0  0  0  0  0  0  0  0  0  0  0  0
    0.6633   -0.8695   -1.7739 H   0  0  0  0  0  0  0  0  0  0  0  0
    0.7060   -1.4880   -0.0800 H   0  0  0  0  0  0  0  0  0  0  0  0
    1.1467   -2.5725   -1.4276 H   0  0  0  0  0  0  0  0  0  0  0  0
    4.3918    0.4276   -1.5941 H   0  0  0  0  0  0  0  0  0  0  0  0
    6.7701    1.2362   -1.4634 H   0  0  0  0  0  0  0  0  0  0  0  0
    8.8066    1.2319    0.2301 H   0  0  0  0  0  0  0  0  0  0  0  0
    9.2459    0.0106   -0.9642 H   0  0  0  0  0  0  0  0  0  0  0  0
    8.9667   -1.3626    1.4423 H   0  0  0  0  0  0  0  0  0  0  0  0
   11.1738    1.1476   -0.1205 H   0  0  0  0  0  0  0  0  0  0  0  0
   13.5926    1.3271    0.3459 H   0  0  0  0  0  0  0  0  0  0  0  0
   14.6699   -0.1765    2.0100 H   0  0  0  0  0  0  0  0  0  0  0  0
   14.6045   -1.8815    3.5607 H   0  0  0  0  0  0  0  0  0  0  0  0
   13.4430   -3.1851    3.2381 H   0  0  0  0  0  0  0  0  0  0  0  0
   13.1140   -2.0040    4.5173 H   0  0  0  0  0  0  0  0  0  0  0  0
   11.1406   -2.9346    3.6971 H   0  0  0  0  0  0  0  0  0  0  0  0
   10.1312   -3.0612    2.2476 H   0  0  0  0  0  0  0  0  0  0  0  0
    9.7519   -1.8528    3.4851 H   0  0  0  0  0  0  0  0  0  0  0  0
    5.4373   -2.6587    1.2230 H   0  0  0  0  0  0  0  0  0  0  0  0
  1  2  1  0
  1 21  1  0
  1 22  1  0
  1 23  1  0
  2  3  1  0
  3  4  2  0
  3  5  1  0
  5  6  2  0
  5 20  1  0
  6  7  1  0
  6 24  1  0
  7  8  2  0
  7 25  1  0
  8  9  1  0
  8 19  1  0
  9 10  1  0
  9 26  1  0
  9 27  1  0
 10 11  1  0
 10 28  1  0
 11 12  2  0
 11 17  1  0
 12 13  1  0
 12 29  1  0
 13 14  2  0
 13 30  1  0
 14 15  1  0
 14 31  1  0
 15 16  1  0
 15 17  2  0
 16 32  1  0
 16 33  1  0
 16 34  1  0
 17 18  1  0
 18 35  1  0
 18 36  1  0
 18 37  1  0
 19 20  2  0
 20 38  1  0
M  END

