
     RDKit          3D

 51 55  0  0  0  0  0  0  0  0999 V2000
    0.9387    0.8155    0.4351 C   0  0  0  0  0  0  0  0  0  0  0  0
    2.3414    0.2984    0.4911 C   0  0  0  0  0  0  0  0  0  0  0  0
    2.7100   -1.0001    0.6435 C   0  0  0  0  0  0  0  0  0  0  0  0
    4.1185   -1.4400    0.6905 C   0  0  0  0  0  0  0  0  0  0  0  0
    4.4436   -2.6018    0.8271 O   0  0  0  0  0  0  0  0  0  0  0  0
    5.0851   -0.4116    0.5651 N   0  0  0  0  0  0  0  0  0  0  0  0
    4.6914    0.7924    0.4240 C   0  0  0  0  0  0  0  0  0  0  0  0
    5.7277    2.2249    0.2502 S   0  0  0  0  0  0  0  0  0  0  0  0
    4.2645    3.2216    0.1387 C   0  0  0  0  0  0  0  0  0  0  0  0
    4.3106    4.6734   -0.0315 C   0  0  0  0  0  0  0  0  0  0  0  0
    3.0798    5.4108   -0.1033 C   0  0  0  0  0  0  0  0  0  0  0  0
    3.0841    6.7644   -0.2717 C   0  0  0  0  0  0  0  0  0  0  0  0
    4.2798    7.4402   -0.3830 N   0  0  0  0  0  0  0  0  0  0  0  0
    4.5785    8.7853   -0.5253 C   0  0  0  0  0  0  0  0  0  0  0  0
    3.5974    9.8674   -0.6816 C   0  0  0  0  0  0  0  0  0  0  0  0
    2.4824    9.7570   -1.5357 C   0  0  0  0  0  0  0  0  0  0  0  0
    1.6070   10.8348   -1.6728 C   0  0  0  0  0  0  0  0  0  0  0  0
    1.8075   12.0361   -0.9908 C   0  0  0  0  0  0  0  0  0  0  0  0
    2.9235   12.1635   -0.1433 C   0  0  0  0  0  0  0  0  0  0  0  0
    3.2150   13.3275    0.5886 N   0  0  0  0  0  0  0  0  0  0  0  0
    2.5121   14.5210    0.6175 C   0  0  0  0  0  0  0  0  0  0  0  0
    1.4971   14.7409   -0.0165 O   0  0  0  0  0  0  0  0  0  0  0  0
    3.1016   15.4783    1.4307 N   0  0  0  0  0  0  0  0  0  0  0  0
    2.4289   16.7197    1.7037 C   0  0  0  0  0  0  0  0  0  0  0  0
    1.8436   16.7641    3.1068 C   0  0  1  0  0  0  0  0  0  0  0  0
    2.8133   16.5831    4.0315 F   0  0  0  0  0  0  0  0  0  0  0  0
    1.2716   17.9518    3.3451 F   0  0  0  0  0  0  0  0  0  0  0  0
    0.9266   15.8088    3.3025 F   0  0  0  0  0  0  0  0  0  0  0  0
    3.8007   11.0755    0.0052 C   0  0  0  0  0  0  0  0  0  0  0  0
    5.9756    8.8321   -0.4974 C   0  0  0  0  0  0  0  0  0  0  0  0
    6.5340    7.6110   -0.3557 N   0  0  0  0  0  0  0  0  0  0  0  0
    5.5133    6.7621   -0.2817 C   0  0  0  0  0  0  0  0  0  0  0  0
    5.5097    5.3617   -0.1160 C   0  0  0  0  0  0  0  0  0  0  0  0
    3.1498    2.5607    0.2206 N   0  0  0  0  0  0  0  0  0  0  0  0
    3.3705    1.2334    0.3767 N   0  0  0  0  0  0  0  0  0  0  0  0
    0.2303   -0.0165    0.5361 H   0  0  0  0  0  0  0  0  0  0  0  0
    0.7496    1.3374   -0.5163 H   0  0  0  0  0  0  0  0  0  0  0  0
    0.7560    1.5449    1.2401 H   0  0  0  0  0  0  0  0  0  0  0  0
    1.9484   -1.7749    0.7381 H   0  0  0  0  0  0  0  0  0  0  0  0
    2.1317    4.8819   -0.0159 H   0  0  0  0  0  0  0  0  0  0  0  0
    2.1763    7.3646   -0.3148 H   0  0  0  0  0  0  0  0  0  0  0  0
    2.3216    8.8492   -2.1202 H   0  0  0  0  0  0  0  0  0  0  0  0
    0.7466   10.7467   -2.3411 H   0  0  0  0  0  0  0  0  0  0  0  0
    1.1225   12.8725   -1.1039 H   0  0  0  0  0  0  0  0  0  0  0  0
    4.0586   13.2746    1.1469 H   0  0  0  0  0  0  0  0  0  0  0  0
    3.8722   15.2273    2.0389 H   0  0  0  0  0  0  0  0  0  0  0  0
    1.6104   16.8277    0.9794 H   0  0  0  0  0  0  0  0  0  0  0  0
    3.1078   17.5824    1.6028 H   0  0  0  0  0  0  0  0  0  0  0  0
    4.6547   11.1594    0.6834 H   0  0  0  0  0  0  0  0  0  0  0  0
    6.5827    9.7313   -0.6074 H   0  0  0  0  0  0  0  0  0  0  0  0
    6.4811    4.8689   -0.0529 H   0  0  0  0  0  0  0  0  0  0  0  0
  1  2  1  0
  1 36  1  0
  1 37  1  0
  1 38  1  0
  2  3  2  0
  2 35  1  0
  3  4  1  0
  3 39  1  0
  4  5  2  0
  4  6  1  0
  6  7  2  0
  7  8  1  0
  7 35  1  0
  8  9  1  0
  9 10  1  0
  9 34  2  0
 10 11  1  0
 10 33  2  0
 11 12  2  0
 11 40  1  0
 12 13  1  0
 12 41  1  0
 13 14  1  0
 13 32  1  0
 14 15  1  0
 14 30  2  0
 15 16  2  0
 15 29  1  0
 16 17  1  0
 16 42  1  0
 17 18  2  0
 17 43  1  0
 18 19  1  0
 18 44  1  0
 19 20  1  0
 19 29  2  0
 20 21  1  0
 20 45  1  0
 21 22  2  0
 21 23  1  0
 23 24  1  0
 23 46  1  0
 24 25  1  0
 24 47  1  0
 24 48  1  0
 25 26  1  1
 25 27  1  0
 25 28  1  0
 29 49  1  0
 30 31  1  0
 30 50  1  0
 31 32  2  0
 32 33  1  0
 33 51  1  0
 34 35  1  0
M  END

