
     RDKit          3D

 44 44  0  0  0  0  0  0  0  0999 V2000
    6.8788   -1.6623   -2.1768 C   0  0  0  0  0  0  0  0  0  0  0  0
    6.2958   -1.7612   -0.7711 C   0  0  0  0  0  0  0  0  0  0  0  0
    4.9753   -1.1557   -0.7008 N   0  0  0  0  0  0  0  0  0  0  0  0
    4.3213   -1.1832    0.6106 C   0  0  1  0  0  0  0  0  0  0  0  0
    4.8443   -0.0130    1.4741 C   0  0  0  0  0  0  0  0  0  0  0  0
    4.5313    1.3876    0.9391 C   0  0  0  0  0  0  0  0  0  0  0  0
    5.2209    2.5061    1.7253 C   0  0  0  0  0  0  0  0  0  0  0  0
    4.9059    3.9141    1.1877 C   0  0  0  0  0  0  0  0  0  0  0  0
    5.5730    5.0268    1.9465 C   0  0  0  0  0  0  0  0  0  0  0  0
    5.1802    5.6135    3.1795 C   0  0  0  0  0  0  0  0  0  0  0  0
    6.0264    6.5598    3.5767 N   0  0  0  0  0  0  0  0  0  0  0  0
    6.9725    6.6054    2.6272 N   0  0  0  0  0  0  0  0  0  0  0  0
    8.0712    7.5416    2.7378 C   0  0  0  0  0  0  0  0  0  0  0  0
    6.7430    5.7045    1.6307 C   0  0  0  0  0  0  0  0  0  0  0  0
    2.7794   -1.2146    0.4402 C   0  0  1  0  0  0  0  0  0  0  0  0
    2.3093   -2.5134   -0.2370 C   0  0  0  0  0  0  0  0  0  0  0  0
    2.0340   -1.0409    1.7706 C   0  0  0  0  0  0  0  0  0  0  0  0
    7.8857   -2.1065   -2.2208 H   0  0  0  0  0  0  0  0  0  0  0  0
    6.9439   -0.6113   -2.4989 H   0  0  0  0  0  0  0  0  0  0  0  0
    6.2489   -2.1984   -2.9079 H   0  0  0  0  0  0  0  0  0  0  0  0
    6.9643   -1.2380   -0.0662 H   0  0  0  0  0  0  0  0  0  0  0  0
    6.2928   -2.8276   -0.4438 H   0  0  0  0  0  0  0  0  0  0  0  0
    4.3778   -1.5773   -1.4070 H   0  0  0  0  0  0  0  0  0  0  0  0
    4.5885   -2.1199    1.1546 H   0  0  0  0  0  0  0  0  0  0  0  0
    5.9401   -0.1210    1.5557 H   0  0  0  0  0  0  0  0  0  0  0  0
    4.4691   -0.1218    2.5056 H   0  0  0  0  0  0  0  0  0  0  0  0
    3.4403    1.5643    0.9497 H   0  0  0  0  0  0  0  0  0  0  0  0
    4.8359    1.4299   -0.1202 H   0  0  0  0  0  0  0  0  0  0  0  0
    6.3151    2.3530    1.7089 H   0  0  0  0  0  0  0  0  0  0  0  0
    4.9290    2.4532    2.7899 H   0  0  0  0  0  0  0  0  0  0  0  0
    3.8120    4.0656    1.2051 H   0  0  0  0  0  0  0  0  0  0  0  0
    5.1997    3.9653    0.1251 H   0  0  0  0  0  0  0  0  0  0  0  0
    4.3038    5.3805    3.7858 H   0  0  0  0  0  0  0  0  0  0  0  0
    7.9126    8.1244    3.6530 H   0  0  0  0  0  0  0  0  0  0  0  0
    8.0988    8.2250    1.8739 H   0  0  0  0  0  0  0  0  0  0  0  0
    9.0374    7.0161    2.8071 H   0  0  0  0  0  0  0  0  0  0  0  0
    7.4133    5.6142    0.7771 H   0  0  0  0  0  0  0  0  0  0  0  0
    2.5061   -0.3700   -0.2192 H   0  0  0  0  0  0  0  0  0  0  0  0
    2.5462   -3.3894    0.3908 H   0  0  0  0  0  0  0  0  0  0  0  0
    2.7695   -2.6823   -1.2234 H   0  0  0  0  0  0  0  0  0  0  0  0
    1.2187   -2.5007   -0.3922 H   0  0  0  0  0  0  0  0  0  0  0  0
    2.3344   -1.8150    2.4978 H   0  0  0  0  0  0  0  0  0  0  0  0
    0.9469   -1.1368    1.6190 H   0  0  0  0  0  0  0  0  0  0  0  0
    2.2143   -0.0597    2.2326 H   0  0  0  0  0  0  0  0  0  0  0  0
  1  2  1  0
  1 18  1  0
  1 19  1  0
  1 20  1  0
  2  3  1  0
  2 21  1  0
  2 22  1  0
  3  4  1  0
  3 23  1  0
  4  5  1  0
  4 15  1  0
  4 24  1  1
  5  6  1  0
  5 25  1  0
  5 26  1  0
  6  7  1  0
  6 27  1  0
  6 28  1  0
  7  8  1  0
  7 29  1  0
  7 30  1  0
  8  9  1  0
  8 31  1  0
  8 32  1  0
  9 10  1  0
  9 14  2  0
 10 11  2  0
 10 33  1  0
 11 12  1  0
 12 13  1  0
 12 14  1  0
 13 34  1  0
 13 35  1  0
 13 36  1  0
 14 37  1  0
 15 16  1  0
 15 17  1  0
 15 38  1  6
 16 39  1  0
 16 40  1  0
 16 41  1  0
 17 42  1  0
 17 43  1  0
 17 44  1  0
M  END

