
     RDKit          3D

 31 31  0  0  0  0  0  0  0  0999 V2000
    0.7929   -0.1916   -0.2515 P   0  0  0  0  0  0  0  0  0  0  0  0
    2.6399   -0.0927   -0.1884 C   0  0  0  0  0  0  0  0  0  0  0  0
    3.3355    1.1131   -0.3901 C   0  0  0  0  0  0  0  0  0  0  0  0
    4.7346    1.1483   -0.4267 C   0  0  0  0  0  0  0  0  0  0  0  0
    5.4795   -0.0235   -0.2599 C   0  0  0  0  0  0  0  0  0  0  0  0
    4.7984   -1.2277   -0.0746 C   0  0  0  0  0  0  0  0  0  0  0  0
    3.3965   -1.2686   -0.0408 C   0  0  0  0  0  0  0  0  0  0  0  0
    2.9093   -2.6846    0.1883 C   0  0  0  0  0  0  0  0  0  0  0  0
    4.1640   -3.5424   -0.0903 C   0  0  0  0  0  0  0  0  0  0  0  0
    5.3833   -2.6098    0.1563 C   0  0  2  0  0  0  0  0  0  0  0  0
    5.9613   -2.6901    1.4934 N   0  0  0  0  0  0  0  0  0  0  0  0
    6.8204   -3.6839    1.8364 C   0  0  0  0  0  0  0  0  0  0  0  0
    7.3012   -4.5891    1.0696 N   0  0  0  0  0  0  0  0  0  0  0  0
    8.2555   -5.3402    1.8783 C   0  0  0  0  0  0  0  0  0  0  0  0
    8.0411   -4.8176    3.3256 C   0  0  0  0  0  0  0  0  0  0  0  0
    7.2093   -3.6580    3.1456 O   0  0  0  0  0  0  0  0  0  0  0  0
    0.5345    1.1917   -0.0119 H   0  0  0  0  0  0  0  0  0  0  0  0
    0.5651   -0.5657    1.1117 H   0  0  0  0  0  0  0  0  0  0  0  0
    2.7776    2.0449   -0.5175 H   0  0  0  0  0  0  0  0  0  0  0  0
    5.2439    2.1027   -0.5841 H   0  0  0  0  0  0  0  0  0  0  0  0
    6.5721    0.0017   -0.2783 H   0  0  0  0  0  0  0  0  0  0  0  0
    2.0584   -2.9515   -0.4605 H   0  0  0  0  0  0  0  0  0  0  0  0
    2.5512   -2.8037    1.2283 H   0  0  0  0  0  0  0  0  0  0  0  0
    4.1693   -3.8472   -1.1491 H   0  0  0  0  0  0  0  0  0  0  0  0
    4.2262   -4.4597    0.5112 H   0  0  0  0  0  0  0  0  0  0  0  0
    6.1989   -2.8524   -0.5411 H   0  0  0  0  0  0  0  0  0  0  0  0
    5.5309   -2.1750    2.2516 H   0  0  0  0  0  0  0  0  0  0  0  0
    9.2899   -5.1624    1.5282 H   0  0  0  0  0  0  0  0  0  0  0  0
    8.0792   -6.4266    1.8027 H   0  0  0  0  0  0  0  0  0  0  0  0
    8.9660   -4.5109    3.8365 H   0  0  0  0  0  0  0  0  0  0  0  0
    7.5056   -5.5383    3.9671 H   0  0  0  0  0  0  0  0  0  0  0  0
  1  2  1  0
  2  3  2  0
  2  7  1  0
  3  4  1  0
  3 19  1  0
  4  5  2  0
  4 20  1  0
  5  6  1  0
  5 21  1  0
  6  7  2  0
  6 10  1  0
  7  8  1  0
  8  9  1  0
  8 22  1  0
  8 23  1  0
  9 10  1  0
  9 24  1  0
  9 25  1  0
 10 11  1  0
 10 26  1  6
 11 12  1  0
 11 27  1  0
 12 13  1  0
 12 16  2  0
 13 14  1  0
 14 15  1  0
 14 28  1  0
 14 29  1  0
 15 16  1  0
 15 30  1  0
 15 31  1  0
M  CHG  5   1  -2  13  -1  16   1  17   1  18   1
M  END

