
     RDKit          3D

 51 53  0  0  0  0  0  0  0  0999 V2000
    5.9878   -2.3433   -3.4257 C   0  0  0  0  0  0  0  0  0  0  0  0
    5.9627   -1.0532   -2.6722 C   0  0  0  0  0  0  0  0  0  0  0  0
    6.5745   -0.6713   -1.4891 C   0  0  0  0  0  0  0  0  0  0  0  0
    6.1747    0.6704   -1.2913 C   0  0  0  0  0  0  0  0  0  0  0  0
    6.5570    1.5555   -0.1540 C   0  0  0  0  0  0  0  0  0  0  0  0
    7.2997    1.1644    0.7388 O   0  0  0  0  0  0  0  0  0  0  0  0
    6.0244    2.8102   -0.2126 N   0  0  0  0  0  0  0  0  0  0  0  0
    6.1890    3.7879    0.8397 C   0  0  0  0  0  0  0  0  0  0  0  0
    6.6618    5.1973    0.3664 C   0  0  2  0  0  0  0  0  0  0  0  0
    7.9914    5.1638   -0.2681 N   0  0  0  0  0  0  0  0  0  0  0  0
    9.1763    4.8334    0.5093 C   0  0  0  0  0  0  0  0  0  0  0  0
    9.8160    3.4765    0.1796 C   0  0  0  0  0  0  0  0  0  0  0  0
   10.3328    3.3598   -1.5759 S   0  0  0  0  0  0  0  0  0  0  0  0
    8.7453    3.8961   -2.3141 C   0  0  0  0  0  0  0  0  0  0  0  0
    8.2349    5.2064   -1.6990 C   0  0  0  0  0  0  0  0  0  0  0  0
    6.6805    6.1066    1.6334 C   0  0  0  0  0  0  0  0  0  0  0  0
    6.9534    7.5789    1.3160 C   0  0  0  0  0  0  0  0  0  0  0  0
    5.8871    8.1413    0.3705 C   0  0  0  0  0  0  0  0  0  0  0  0
    5.7763    7.2909   -0.8996 C   0  0  0  0  0  0  0  0  0  0  0  0
    5.5864    5.8004   -0.5764 C   0  0  0  0  0  0  0  0  0  0  0  0
    5.3758    1.0876   -2.2760 N   0  0  0  0  0  0  0  0  0  0  0  0
    5.2556    0.0415   -3.1031 N   0  0  0  0  0  0  0  0  0  0  0  0
    4.4417    0.1463   -4.2966 C   0  0  0  0  0  0  0  0  0  0  0  0
    6.6117   -3.0745   -2.8945 H   0  0  0  0  0  0  0  0  0  0  0  0
    6.4046   -2.2210   -4.4401 H   0  0  0  0  0  0  0  0  0  0  0  0
    4.9796   -2.7782   -3.5352 H   0  0  0  0  0  0  0  0  0  0  0  0
    7.2233   -1.2610   -0.8475 H   0  0  0  0  0  0  0  0  0  0  0  0
    5.3618    2.9779   -0.9627 H   0  0  0  0  0  0  0  0  0  0  0  0
    6.9175    3.3656    1.5455 H   0  0  0  0  0  0  0  0  0  0  0  0
    5.2394    3.9056    1.3954 H   0  0  0  0  0  0  0  0  0  0  0  0
    8.9304    4.8387    1.5804 H   0  0  0  0  0  0  0  0  0  0  0  0
    9.9472    5.6179    0.3592 H   0  0  0  0  0  0  0  0  0  0  0  0
    9.1393    2.6423    0.4215 H   0  0  0  0  0  0  0  0  0  0  0  0
   10.7395    3.3466    0.7660 H   0  0  0  0  0  0  0  0  0  0  0  0
    7.9927    3.0996   -2.2079 H   0  0  0  0  0  0  0  0  0  0  0  0
    8.9487    4.0376   -3.3877 H   0  0  0  0  0  0  0  0  0  0  0  0
    7.3218    5.4957   -2.2325 H   0  0  0  0  0  0  0  0  0  0  0  0
    8.9909    5.9901   -1.9179 H   0  0  0  0  0  0  0  0  0  0  0  0
    7.4073    5.7287    2.3684 H   0  0  0  0  0  0  0  0  0  0  0  0
    5.6957    6.0215    2.1255 H   0  0  0  0  0  0  0  0  0  0  0  0
    7.9485    7.6718    0.8484 H   0  0  0  0  0  0  0  0  0  0  0  0
    6.9854    8.1637    2.2507 H   0  0  0  0  0  0  0  0  0  0  0  0
    6.1102    9.1895    0.1095 H   0  0  0  0  0  0  0  0  0  0  0  0
    4.9114    8.1513    0.8913 H   0  0  0  0  0  0  0  0  0  0  0  0
    6.6841    7.4347   -1.5077 H   0  0  0  0  0  0  0  0  0  0  0  0
    4.9318    7.6376   -1.5197 H   0  0  0  0  0  0  0  0  0  0  0  0
    5.5036    5.2158   -1.5068 H   0  0  0  0  0  0  0  0  0  0  0  0
    4.6169    5.6776   -0.0627 H   0  0  0  0  0  0  0  0  0  0  0  0
    4.0517    1.1698   -4.3403 H   0  0  0  0  0  0  0  0  0  0  0  0
    3.5974   -0.5612   -4.2666 H   0  0  0  0  0  0  0  0  0  0  0  0
    5.0376   -0.0527   -5.2014 H   0  0  0  0  0  0  0  0  0  0  0  0
  1  2  1  0
  1 24  1  0
  1 25  1  0
  1 26  1  0
  2  3  2  0
  2 22  1  0
  3  4  1  0
  3 27  1  0
  4  5  1  0
  4 21  2  0
  5  6  2  0
  5  7  1  0
  7  8  1  0
  7 28  1  0
  9  8  1  1
  8 29  1  0
  8 30  1  0
  9 10  1  0
  9 16  1  0
  9 20  1  0
 10 11  1  0
 10 15  1  0
 11 12  1  0
 11 31  1  0
 11 32  1  0
 12 13  1  0
 12 33  1  0
 12 34  1  0
 13 14  1  0
 14 15  1  0
 14 35  1  0
 14 36  1  0
 15 37  1  0
 15 38  1  0
 16 17  1  0
 16 39  1  0
 16 40  1  0
 17 18  1  0
 17 41  1  0
 17 42  1  0
 18 19  1  0
 18 43  1  0
 18 44  1  0
 19 20  1  0
 19 45  1  0
 19 46  1  0
 20 47  1  0
 20 48  1  0
 21 22  1  0
 22 23  1  0
 23 49  1  0
 23 50  1  0
 23 51  1  0
M  END

