
     RDKit          3D

 39 41  0  0  0  0  0  0  0  0999 V2000
    0.6157   -0.5052   -1.0109 C   0  0  0  0  0  0  0  0  0  0  0  0
    2.0879   -0.7324   -1.3018 C   0  0  0  0  0  0  0  0  0  0  0  0
    2.8123    0.4038   -0.8563 O   0  0  0  0  0  0  0  0  0  0  0  0
    4.2059    0.4182   -1.1106 C   0  0  1  0  0  0  0  0  0  0  0  0
    4.5471    0.4735   -2.6312 C   0  0  0  0  0  0  0  0  0  0  0  0
    5.5525   -0.1079   -3.0044 O   0  0  0  0  0  0  0  0  0  0  0  0
    3.7032    1.2651   -3.5924 C   0  0  0  0  0  0  0  0  0  0  0  0
    2.7851    2.2013   -3.1197 C   0  0  0  0  0  0  0  0  0  0  0  0
    2.0170    3.0002   -3.8966 N   0  0  0  0  0  0  0  0  0  0  0  0
    2.1297    2.8753   -5.1981 C   0  0  0  0  0  0  0  0  0  0  0  0
    3.0079    1.9598   -5.8407 C   0  0  0  0  0  0  0  0  0  0  0  0
    3.0632    1.8755   -7.2580 C   0  0  0  0  0  0  0  0  0  0  0  0
    3.9159    0.9838   -7.8701 C   0  0  0  0  0  0  0  0  0  0  0  0
    4.7390    0.1508   -7.0745 C   0  0  0  0  0  0  0  0  0  0  0  0
    4.7113    0.2133   -5.6942 C   0  0  0  0  0  0  0  0  0  0  0  0
    3.8399    1.1219   -5.0256 C   0  0  0  0  0  0  0  0  0  0  0  0
    4.8199    1.6574   -0.4072 C   0  0  0  0  0  0  0  0  0  0  0  0
    6.3070    1.3224   -0.2402 C   0  0  0  0  0  0  0  0  0  0  0  0
    6.3598   -0.2128   -0.0262 C   0  0  0  0  0  0  0  0  0  0  0  0
    4.9653   -0.7506   -0.4285 C   0  0  0  0  0  0  0  0  0  0  0  0
    0.0240   -1.3828   -1.3152 H   0  0  0  0  0  0  0  0  0  0  0  0
    0.2391    0.3745   -1.5554 H   0  0  0  0  0  0  0  0  0  0  0  0
    0.4582   -0.3349    0.0655 H   0  0  0  0  0  0  0  0  0  0  0  0
    2.2439   -0.8948   -2.3871 H   0  0  0  0  0  0  0  0  0  0  0  0
    2.4445   -1.6434   -0.7849 H   0  0  0  0  0  0  0  0  0  0  0  0
    2.6370    2.3208   -2.0470 H   0  0  0  0  0  0  0  0  0  0  0  0
    1.4987    3.5247   -5.8208 H   0  0  0  0  0  0  0  0  0  0  0  0
    2.4158    2.5294   -7.8488 H   0  0  0  0  0  0  0  0  0  0  0  0
    3.9601    0.9160   -8.9598 H   0  0  0  0  0  0  0  0  0  0  0  0
    5.4152   -0.5568   -7.5618 H   0  0  0  0  0  0  0  0  0  0  0  0
    5.3643   -0.4218   -5.1025 H   0  0  0  0  0  0  0  0  0  0  0  0
    4.3085    1.7317    0.5670 H   0  0  0  0  0  0  0  0  0  0  0  0
    4.6426    2.6009   -0.9440 H   0  0  0  0  0  0  0  0  0  0  0  0
    6.7632    1.8877    0.5870 H   0  0  0  0  0  0  0  0  0  0  0  0
    6.8584    1.5950   -1.1534 H   0  0  0  0  0  0  0  0  0  0  0  0
    6.5821   -0.4634    1.0230 H   0  0  0  0  0  0  0  0  0  0  0  0
    7.1514   -0.6643   -0.6401 H   0  0  0  0  0  0  0  0  0  0  0  0
    4.3803   -1.0144    0.4666 H   0  0  0  0  0  0  0  0  0  0  0  0
    5.0290   -1.6400   -1.0692 H   0  0  0  0  0  0  0  0  0  0  0  0
  1  2  1  0
  1 21  1  0
  1 22  1  0
  1 23  1  0
  2  3  1  0
  2 24  1  0
  2 25  1  0
  4  3  1  6
  4  5  1  0
  4 17  1  0
  4 20  1  0
  5  6  2  0
  5  7  1  0
  7  8  2  0
  7 16  1  0
  8  9  1  0
  8 26  1  0
  9 10  2  0
 10 11  1  0
 10 27  1  0
 11 12  1  0
 11 16  2  0
 12 13  2  0
 12 28  1  0
 13 14  1  0
 13 29  1  0
 14 15  2  0
 14 30  1  0
 15 16  1  0
 15 31  1  0
 17 18  1  0
 17 32  1  0
 17 33  1  0
 18 19  1  0
 18 34  1  0
 18 35  1  0
 19 20  1  0
 19 36  1  0
 19 37  1  0
 20 38  1  0
 20 39  1  0
M  END

