
     RDKit          3D

 87 92  0  0  0  0  0  0  0  0999 V2000
    8.5980    5.1560   -1.4826 C   0  0  0  0  0  0  0  0  0  0  0  0
    8.6990    3.7909   -1.0649 O   0  0  0  0  0  0  0  0  0  0  0  0
    8.1497    2.8687   -1.8780 C   0  0  0  0  0  0  0  0  0  0  0  0
    7.5628    3.1515   -2.8996 O   0  0  0  0  0  0  0  0  0  0  0  0
    8.3460    1.4751   -1.3810 C   0  0  0  0  0  0  0  0  0  0  0  0
    7.7055    0.4304   -2.0674 C   0  0  0  0  0  0  0  0  0  0  0  0
    7.8594   -0.8869   -1.6443 C   0  0  0  0  0  0  0  0  0  0  0  0
    8.6679   -1.2061   -0.5374 C   0  0  0  0  0  0  0  0  0  0  0  0
    8.8351   -2.6427   -0.0922 C   0  0  0  0  0  0  0  0  0  0  0  0
    9.5611   -3.5648   -1.1047 C   0  0  0  0  0  0  0  0  0  0  0  0
   11.0161   -3.2297   -1.3497 C   0  0  0  0  0  0  0  0  0  0  0  0
   12.0307   -3.7742   -0.5478 C   0  0  0  0  0  0  0  0  0  0  0  0
   13.3813   -3.4845   -0.7540 C   0  0  0  0  0  0  0  0  0  0  0  0
   13.7534   -2.6172   -1.7967 C   0  0  0  0  0  0  0  0  0  0  0  0
   15.0845   -2.2767   -2.0997 N   0  0  0  0  0  0  0  0  0  0  0  0
   16.2365   -2.7314   -1.5231 C   0  0  0  0  0  0  0  0  0  0  0  0
   16.2926   -3.5436   -0.6094 O   0  0  0  0  0  0  0  0  0  0  0  0
   17.4991   -2.1783   -2.1377 C   0  0  0  0  0  0  0  0  0  0  0  0
   17.7879   -0.8451   -2.3460 C   0  0  0  0  0  0  0  0  0  0  0  0
   17.0378    0.3126   -2.0485 N   0  0  0  0  0  0  0  0  0  0  0  0
   15.9461    0.7713   -2.7500 C   0  0  0  0  0  0  0  0  0  0  0  0
   15.3806    0.0997   -3.6043 O   0  0  0  0  0  0  0  0  0  0  0  0
   15.4654    2.1397   -2.3645 C   0  0  0  0  0  0  0  0  0  0  0  0
   16.3355    3.1559   -1.9407 C   0  0  0  0  0  0  0  0  0  0  0  0
   15.8255    4.4129   -1.6058 C   0  0  0  0  0  0  0  0  0  0  0  0
   14.4527    4.6531   -1.6818 C   0  0  0  0  0  0  0  0  0  0  0  0
   13.5631    3.6525   -2.1107 C   0  0  0  0  0  0  0  0  0  0  0  0
   12.0692    3.9374   -2.1976 C   0  0  0  0  0  0  0  0  0  0  0  0
   11.6302    4.7514   -3.3302 N   0  0  0  0  0  0  0  0  0  0  0  0
   11.7958    4.1753   -4.6616 C   0  0  1  0  0  0  0  0  0  0  0  0
   10.8447    3.0080   -4.9728 C   0  0  0  0  0  0  0  0  0  0  0  0
   10.9213    2.8865   -6.5044 C   0  0  0  0  0  0  0  0  0  0  0  0
   11.1352    4.3377   -7.0223 C   0  0  0  0  0  0  0  0  0  0  0  0
   11.4519    5.1882   -5.7672 C   0  0  0  0  0  0  0  0  0  0  0  0
   14.0900    2.4046   -2.4618 C   0  0  0  0  0  0  0  0  0  0  0  0
   19.3927   -0.6329   -3.0143 S   0  0  0  0  0  0  0  0  0  0  0  0
   19.6794   -2.3470   -2.9985 C   0  0  0  0  0  0  0  0  0  0  0  0
   18.5980   -3.0398   -2.5070 C   0  0  0  0  0  0  0  0  0  0  0  0
   18.6060   -4.5476   -2.4021 C   0  0  0  0  0  0  0  0  0  0  0  0
   20.0243   -5.1202   -2.5382 C   0  0  0  0  0  0  0  0  0  0  0  0
   20.7955   -4.4699   -3.6926 C   0  0  0  0  0  0  0  0  0  0  0  0
   20.9737   -2.9606   -3.4610 C   0  0  0  0  0  0  0  0  0  0  0  0
   12.7460   -2.0559   -2.6048 C   0  0  0  0  0  0  0  0  0  0  0  0
   11.4053   -2.3607   -2.3821 C   0  0  0  0  0  0  0  0  0  0  0  0
    9.3067   -0.1544    0.1378 C   0  0  0  0  0  0  0  0  0  0  0  0
    9.1442    1.1714   -0.2681 C   0  0  0  0  0  0  0  0  0  0  0  0
    8.8501    5.7619   -0.6024 H   0  0  0  0  0  0  0  0  0  0  0  0
    7.5789    5.3835   -1.8261 H   0  0  0  0  0  0  0  0  0  0  0  0
    9.3146    5.3489   -2.2967 H   0  0  0  0  0  0  0  0  0  0  0  0
    7.0840    0.6780   -2.9301 H   0  0  0  0  0  0  0  0  0  0  0  0
    7.3399   -1.6856   -2.1818 H   0  0  0  0  0  0  0  0  0  0  0  0
    7.8357   -3.0729    0.0983 H   0  0  0  0  0  0  0  0  0  0  0  0
    9.3750   -2.6684    0.8677 H   0  0  0  0  0  0  0  0  0  0  0  0
    9.0128   -3.5475   -2.0614 H   0  0  0  0  0  0  0  0  0  0  0  0
    9.4863   -4.5981   -0.7270 H   0  0  0  0  0  0  0  0  0  0  0  0
   11.7630   -4.4618    0.2609 H   0  0  0  0  0  0  0  0  0  0  0  0
   14.1532   -3.9295   -0.1305 H   0  0  0  0  0  0  0  0  0  0  0  0
   15.2000   -1.6066   -2.8669 H   0  0  0  0  0  0  0  0  0  0  0  0
   17.3761    0.8985   -1.2918 H   0  0  0  0  0  0  0  0  0  0  0  0
   17.4142    2.9842   -1.8986 H   0  0  0  0  0  0  0  0  0  0  0  0
   16.5035    5.2060   -1.2809 H   0  0  0  0  0  0  0  0  0  0  0  0
   14.0624    5.6353   -1.3966 H   0  0  0  0  0  0  0  0  0  0  0  0
   11.7541    4.4537   -1.2754 H   0  0  0  0  0  0  0  0  0  0  0  0
   11.5174    2.9858   -2.2174 H   0  0  0  0  0  0  0  0  0  0  0  0
   12.0832    5.6645   -3.2938 H   0  0  0  0  0  0  0  0  0  0  0  0
   12.8368    3.8184   -4.8295 H   0  0  0  0  0  0  0  0  0  0  0  0
    9.8276    3.2835   -4.6461 H   0  0  0  0  0  0  0  0  0  0  0  0
   11.1123    2.0692   -4.4624 H   0  0  0  0  0  0  0  0  0  0  0  0
   10.0249    2.4100   -6.9295 H   0  0  0  0  0  0  0  0  0  0  0  0
   11.7790    2.2544   -6.7872 H   0  0  0  0  0  0  0  0  0  0  0  0
   10.2420    4.7215   -7.5389 H   0  0  0  0  0  0  0  0  0  0  0  0
   11.9574    4.3767   -7.7539 H   0  0  0  0  0  0  0  0  0  0  0  0
   10.5597    5.7497   -5.4428 H   0  0  0  0  0  0  0  0  0  0  0  0
   12.2579    5.9213   -5.9352 H   0  0  0  0  0  0  0  0  0  0  0  0
   13.4292    1.6030   -2.7992 H   0  0  0  0  0  0  0  0  0  0  0  0
   17.9553   -4.9661   -3.1932 H   0  0  0  0  0  0  0  0  0  0  0  0
   18.1481   -4.8472   -1.4487 H   0  0  0  0  0  0  0  0  0  0  0  0
   19.9715   -6.2118   -2.6790 H   0  0  0  0  0  0  0  0  0  0  0  0
   20.5778   -4.9538   -1.5963 H   0  0  0  0  0  0  0  0  0  0  0  0
   20.2450   -4.6315   -4.6366 H   0  0  0  0  0  0  0  0  0  0  0  0
   21.7830   -4.9427   -3.8180 H   0  0  0  0  0  0  0  0  0  0  0  0
   21.3320   -2.4679   -4.3805 H   0  0  0  0  0  0  0  0  0  0  0  0
   21.7577   -2.7896   -2.6993 H   0  0  0  0  0  0  0  0  0  0  0  0
   13.0282   -1.3834   -3.4192 H   0  0  0  0  0  0  0  0  0  0  0  0
   10.6455   -1.9187   -3.0322 H   0  0  0  0  0  0  0  0  0  0  0  0
    9.9409   -0.3793    0.9995 H   0  0  0  0  0  0  0  0  0  0  0  0
    9.6390    1.9787    0.2735 H   0  0  0  0  0  0  0  0  0  0  0  0
  1  2  1  0
  1 47  1  0
  1 48  1  0
  1 49  1  0
  2  3  1  0
  3  4  2  0
  3  5  1  0
  5  6  2  0
  5 46  1  0
  6  7  1  0
  6 50  1  0
  7  8  2  0
  7 51  1  0
  8  9  1  0
  8 45  1  0
  9 10  1  0
  9 52  1  0
  9 53  1  0
 10 11  1  0
 10 54  1  0
 10 55  1  0
 11 12  2  0
 11 44  1  0
 12 13  1  0
 12 56  1  0
 13 14  2  0
 13 57  1  0
 14 15  1  0
 14 43  1  0
 15 16  1  0
 15 58  1  0
 16 17  2  0
 16 18  1  0
 18 19  2  0
 18 38  1  0
 19 20  1  0
 19 36  1  0
 20 21  1  0
 20 59  1  0
 21 22  2  0
 21 23  1  0
 23 24  2  0
 23 35  1  0
 24 25  1  0
 24 60  1  0
 25 26  2  0
 25 61  1  0
 26 27  1  0
 26 62  1  0
 27 28  1  0
 27 35  2  0
 28 29  1  0
 28 63  1  0
 28 64  1  0
 29 30  1  0
 29 65  1  0
 30 31  1  0
 30 34  1  0
 30 66  1  6
 31 32  1  0
 31 67  1  0
 31 68  1  0
 32 33  1  0
 32 69  1  0
 32 70  1  0
 33 34  1  0
 33 71  1  0
 33 72  1  0
 34 73  1  0
 34 74  1  0
 35 75  1  0
 36 37  1  0
 37 38  2  0
 37 42  1  0
 38 39  1  0
 39 40  1  0
 39 76  1  0
 39 77  1  0
 40 41  1  0
 40 78  1  0
 40 79  1  0
 41 42  1  0
 41 80  1  0
 41 81  1  0
 42 82  1  0
 42 83  1  0
 43 44  2  0
 43 84  1  0
 44 85  1  0
 45 46  2  0
 45 86  1  0
 46 87  1  0
M  END

