
     RDKit          3D

 54 57  0  0  0  0  0  0  0  0999 V2000
    1.7460    0.1621    0.9785 C   0  0  0  0  0  0  0  0  0  0  0  0
    3.0348    0.9677    0.8995 C   0  0  0  0  0  0  0  0  0  0  0  0
    3.2222    1.9473    1.6002 O   0  0  0  0  0  0  0  0  0  0  0  0
    3.9564    0.5108   -0.0055 N   0  0  0  0  0  0  0  0  0  0  0  0
    5.2173    1.1846   -0.2525 C   0  0  0  0  0  0  0  0  0  0  0  0
    5.2846    1.8674   -1.6232 C   0  0  0  0  0  0  0  0  0  0  0  0
    6.6276    2.5791   -1.8650 C   0  0  0  0  0  0  0  0  0  0  0  0
    6.7173    3.2465   -3.2188 C   0  0  0  0  0  0  0  0  0  0  0  0
    6.2406    4.5517   -3.4182 C   0  0  0  0  0  0  0  0  0  0  0  0
    6.2866    5.1580   -4.6732 C   0  0  0  0  0  0  0  0  0  0  0  0
    6.8161    4.4738   -5.7825 C   0  0  0  0  0  0  0  0  0  0  0  0
    6.8560    5.1419   -7.0993 C   0  0  0  0  0  0  0  0  0  0  0  0
    7.3414    4.6170   -8.2761 C   0  0  0  0  0  0  0  0  0  0  0  0
    7.1845    5.7627   -9.5700 S   0  0  0  0  0  0  0  0  0  0  0  0
    6.4624    6.8873   -8.4069 C   0  0  0  0  0  0  0  0  0  0  0  0
    6.0653    8.1377   -8.8495 N   0  0  0  0  0  0  0  0  0  0  0  0
    5.4782    9.1544   -8.1050 C   0  0  0  0  0  0  0  0  0  0  0  0
    5.2116    9.1103   -6.9258 O   0  0  0  0  0  0  0  0  0  0  0  0
    5.1926   10.3626   -8.9303 C   0  0  0  0  0  0  0  0  0  0  0  0
    4.6044   11.5774   -8.5137 C   0  0  0  0  0  0  0  0  0  0  0  0
    4.5340   12.3850   -9.5632 N   0  0  0  0  0  0  0  0  0  0  0  0
    5.0598   11.6777  -10.5645 N   0  0  0  0  0  0  0  0  0  0  0  0
    5.1710   12.1983  -11.8876 C   0  0  0  0  0  0  0  0  0  0  0  0
    4.7170   13.4960  -12.1535 C   0  0  0  0  0  0  0  0  0  0  0  0
    4.8279   14.0013  -13.4497 C   0  0  0  0  0  0  0  0  0  0  0  0
    5.3844   13.2249  -14.4712 C   0  0  0  0  0  0  0  0  0  0  0  0
    5.8333   11.9308  -14.1899 C   0  0  0  0  0  0  0  0  0  0  0  0
    5.7303   11.4089  -12.8995 C   0  0  0  0  0  0  0  0  0  0  0  0
    5.4675   10.4614  -10.2322 N   0  0  0  0  0  0  0  0  0  0  0  0
    6.3656    6.4280   -7.2052 N   0  0  0  0  0  0  0  0  0  0  0  0
    7.2964    3.1666   -5.5869 C   0  0  0  0  0  0  0  0  0  0  0  0
    7.2463    2.5678   -4.3293 C   0  0  0  0  0  0  0  0  0  0  0  0
    1.5864   -0.1417    2.0238 H   0  0  0  0  0  0  0  0  0  0  0  0
    1.7324   -0.7308    0.3359 H   0  0  0  0  0  0  0  0  0  0  0  0
    0.9053    0.8167    0.7016 H   0  0  0  0  0  0  0  0  0  0  0  0
    3.7184   -0.2898   -0.5778 H   0  0  0  0  0  0  0  0  0  0  0  0
    6.0492    0.4633   -0.1514 H   0  0  0  0  0  0  0  0  0  0  0  0
    5.3279    1.9285    0.5500 H   0  0  0  0  0  0  0  0  0  0  0  0
    4.4590    2.5943   -1.7043 H   0  0  0  0  0  0  0  0  0  0  0  0
    5.1198    1.1212   -2.4218 H   0  0  0  0  0  0  0  0  0  0  0  0
    7.4478    1.8474   -1.7608 H   0  0  0  0  0  0  0  0  0  0  0  0
    6.7798    3.3308   -1.0715 H   0  0  0  0  0  0  0  0  0  0  0  0
    5.8286    5.1087   -2.5713 H   0  0  0  0  0  0  0  0  0  0  0  0
    5.9167    6.1746   -4.8168 H   0  0  0  0  0  0  0  0  0  0  0  0
    7.7775    3.6388   -8.4616 H   0  0  0  0  0  0  0  0  0  0  0  0
    6.2140    8.3549   -9.8310 H   0  0  0  0  0  0  0  0  0  0  0  0
    4.2492   11.8693   -7.5285 H   0  0  0  0  0  0  0  0  0  0  0  0
    4.2862   14.0873  -11.3462 H   0  0  0  0  0  0  0  0  0  0  0  0
    4.4747   15.0135  -13.6606 H   0  0  0  0  0  0  0  0  0  0  0  0
    5.4680   13.6271  -15.4835 H   0  0  0  0  0  0  0  0  0  0  0  0
    6.2694   11.3171  -14.9818 H   0  0  0  0  0  0  0  0  0  0  0  0
    6.0766   10.4022  -12.6685 H   0  0  0  0  0  0  0  0  0  0  0  0
    7.7204    2.6051   -6.4227 H   0  0  0  0  0  0  0  0  0  0  0  0
    7.6327    1.5517   -4.2050 H   0  0  0  0  0  0  0  0  0  0  0  0
  1  2  1  0
  1 33  1  0
  1 34  1  0
  1 35  1  0
  2  3  2  0
  2  4  1  0
  4  5  1  0
  4 36  1  0
  5  6  1  0
  5 37  1  0
  5 38  1  0
  6  7  1  0
  6 39  1  0
  6 40  1  0
  7  8  1  0
  7 41  1  0
  7 42  1  0
  8  9  2  0
  8 32  1  0
  9 10  1  0
  9 43  1  0
 10 11  2  0
 10 44  1  0
 11 12  1  0
 11 31  1  0
 12 13  2  0
 12 30  1  0
 13 14  1  0
 13 45  1  0
 14 15  1  0
 15 16  1  0
 15 30  2  0
 16 17  1  0
 16 46  1  0
 17 18  2  0
 17 19  1  0
 19 20  1  0
 19 29  2  0
 20 21  2  0
 20 47  1  0
 21 22  1  0
 22 23  1  0
 22 29  1  0
 23 24  2  0
 23 28  1  0
 24 25  1  0
 24 48  1  0
 25 26  2  0
 25 49  1  0
 26 27  1  0
 26 50  1  0
 27 28  2  0
 27 51  1  0
 28 52  1  0
 31 32  2  0
 31 53  1  0
 32 54  1  0
M  END

