
     RDKit          3D

 24 25  0  0  0  0  0  0  0  0999 V2000
    2.0758   -1.0617    0.4440 O   0  0  0  0  0  0  0  0  0  0  0  0
    2.5906    0.2383    0.2486 C   0  0  0  0  0  0  0  0  0  0  0  0
    2.7308    0.4544   -1.2550 C   0  0  1  0  0  0  0  0  0  0  0  0
    1.3917    0.4879   -2.0013 C   0  0  0  0  0  0  0  0  0  0  0  0
    1.2766    1.9759   -2.2486 C   0  0  0  0  0  0  0  0  0  0  0  0
    0.0830    2.6549   -2.8144 C   0  0  0  0  0  0  0  0  0  0  0  0
   -0.9922    3.0481   -1.9957 C   0  0  0  0  0  0  0  0  0  0  0  0
   -0.9152    2.7489   -0.2724 Cl  0  0  0  0  0  0  0  0  0  0  0  0
   -2.1296    3.6732   -2.5113 C   0  0  0  0  0  0  0  0  0  0  0  0
   -2.2118    3.9107   -3.8839 C   0  0  0  0  0  0  0  0  0  0  0  0
   -1.1752    3.5224   -4.7330 C   0  0  0  0  0  0  0  0  0  0  0  0
   -0.0468    2.8976   -4.1954 C   0  0  0  0  0  0  0  0  0  0  0  0
    1.2247    2.3943   -5.2831 Cl  0  0  0  0  0  0  0  0  0  0  0  0
    2.3397    2.6286   -1.9634 N   0  0  0  0  0  0  0  0  0  0  0  0
    3.3035    1.7705   -1.4701 O   0  0  0  0  0  0  0  0  0  0  0  0
    1.9265   -1.1978    1.3872 H   0  0  0  0  0  0  0  0  0  0  0  0
    3.5854    0.3748    0.7148 H   0  0  0  0  0  0  0  0  0  0  0  0
    1.9196    1.0212    0.6551 H   0  0  0  0  0  0  0  0  0  0  0  0
    3.4323   -0.2865   -1.6676 H   0  0  0  0  0  0  0  0  0  0  0  0
    0.5647    0.0804   -1.4013 H   0  0  0  0  0  0  0  0  0  0  0  0
    1.4091   -0.0536   -2.9620 H   0  0  0  0  0  0  0  0  0  0  0  0
   -2.9343    3.9678   -1.8367 H   0  0  0  0  0  0  0  0  0  0  0  0
   -3.0964    4.4010   -4.2971 H   0  0  0  0  0  0  0  0  0  0  0  0
   -1.2303    3.6962   -5.8083 H   0  0  0  0  0  0  0  0  0  0  0  0
  1  2  1  0
  1 16  1  0
  2  3  1  0
  2 17  1  0
  2 18  1  0
  3  4  1  0
  3 15  1  0
  3 19  1  6
  4  5  1  0
  4 20  1  0
  4 21  1  0
  5  6  1  0
  5 14  2  0
  6  7  2  0
  6 12  1  0
  7  8  1  0
  7  9  1  0
  9 10  2  0
  9 22  1  0
 10 11  1  0
 10 23  1  0
 11 12  2  0
 11 24  1  0
 12 13  1  0
 14 15  1  0
M  END

