
     RDKit          3D

 49 51  0  0  0  0  0  0  0  0999 V2000
    4.4638    0.1509   -3.7165 C   0  0  0  0  0  0  0  0  0  0  0  0
    5.4918   -0.2770   -2.8340 O   0  0  0  0  0  0  0  0  0  0  0  0
    5.4384   -1.4432   -2.1597 C   0  0  0  0  0  0  0  0  0  0  0  0
    6.5311   -1.7266   -1.3211 C   0  0  0  0  0  0  0  0  0  0  0  0
    6.5918   -2.8972   -0.5750 C   0  0  0  0  0  0  0  0  0  0  0  0
    5.5582   -3.8552   -0.6252 C   0  0  0  0  0  0  0  0  0  0  0  0
    5.6678   -5.0706    0.1784 C   0  0  0  0  0  0  0  0  0  0  0  0
    4.7914   -6.0929    0.2655 C   0  0  0  0  0  0  0  0  0  0  0  0
    5.1041   -7.2409    1.1642 C   0  0  0  0  0  0  0  0  0  0  0  0
    6.1240   -7.2525    1.8446 O   0  0  0  0  0  0  0  0  0  0  0  0
    4.2102   -8.2981    1.2138 N   0  0  0  0  0  0  0  0  0  0  0  0
    2.9651   -8.4573    0.4831 C   0  0  0  0  0  0  0  0  0  0  0  0
    2.9364   -9.8029   -0.2467 C   0  0  0  0  0  0  0  0  0  0  0  0
    3.1950  -10.9126    0.6671 N   0  0  0  0  0  0  0  0  0  0  0  0
    2.7758  -12.2015    0.3069 C   0  0  0  0  0  0  0  0  0  0  0  0
    1.4965  -12.4163   -0.2582 C   0  0  0  0  0  0  0  0  0  0  0  0
    1.0606  -13.6956   -0.5904 C   0  0  0  0  0  0  0  0  0  0  0  0
    1.8693  -14.8141   -0.3674 C   0  0  0  0  0  0  0  0  0  0  0  0
    3.1323  -14.6171    0.1940 C   0  0  0  0  0  0  0  0  0  0  0  0
    4.0120  -15.8046    0.5002 C   0  0  1  0  0  0  0  0  0  0  0  0
    3.7784  -16.8330   -0.3336 F   0  0  0  0  0  0  0  0  0  0  0  0
    5.3208  -15.5014    0.4088 F   0  0  0  0  0  0  0  0  0  0  0  0
    3.8073  -16.2622    1.7519 F   0  0  0  0  0  0  0  0  0  0  0  0
    3.5890  -13.3344    0.5166 C   0  0  0  0  0  0  0  0  0  0  0  0
    4.4380  -10.7471    1.4118 C   0  0  0  0  0  0  0  0  0  0  0  0
    4.4671   -9.3984    2.1320 C   0  0  0  0  0  0  0  0  0  0  0  0
    4.4627   -3.5748   -1.4639 C   0  0  0  0  0  0  0  0  0  0  0  0
    4.4066   -2.4059   -2.2064 C   0  0  0  0  0  0  0  0  0  0  0  0
    3.3232   -2.2077   -2.9885 F   0  0  0  0  0  0  0  0  0  0  0  0
    4.7938    1.1243   -4.1032 H   0  0  0  0  0  0  0  0  0  0  0  0
    3.5019    0.2737   -3.1948 H   0  0  0  0  0  0  0  0  0  0  0  0
    4.3291   -0.5478   -4.5568 H   0  0  0  0  0  0  0  0  0  0  0  0
    7.3325   -0.9863   -1.2804 H   0  0  0  0  0  0  0  0  0  0  0  0
    7.4581   -3.0806    0.0651 H   0  0  0  0  0  0  0  0  0  0  0  0
    6.5724   -5.1664    0.7884 H   0  0  0  0  0  0  0  0  0  0  0  0
    3.8627   -6.0725   -0.3047 H   0  0  0  0  0  0  0  0  0  0  0  0
    2.8333   -7.6569   -0.2524 H   0  0  0  0  0  0  0  0  0  0  0  0
    2.1112   -8.4121    1.1869 H   0  0  0  0  0  0  0  0  0  0  0  0
    3.6960   -9.7837   -1.0582 H   0  0  0  0  0  0  0  0  0  0  0  0
    1.9550   -9.9242   -0.7212 H   0  0  0  0  0  0  0  0  0  0  0  0
    0.8228  -11.5732   -0.4173 H   0  0  0  0  0  0  0  0  0  0  0  0
    0.0649  -13.8240   -1.0225 H   0  0  0  0  0  0  0  0  0  0  0  0
    1.5276  -15.8166   -0.6272 H   0  0  0  0  0  0  0  0  0  0  0  0
    4.5967  -13.2295    0.9137 H   0  0  0  0  0  0  0  0  0  0  0  0
    5.3254  -10.8317    0.7485 H   0  0  0  0  0  0  0  0  0  0  0  0
    4.5123  -11.5399    2.1693 H   0  0  0  0  0  0  0  0  0  0  0  0
    5.4461   -9.2280    2.5951 H   0  0  0  0  0  0  0  0  0  0  0  0
    3.6961   -9.3996    2.9259 H   0  0  0  0  0  0  0  0  0  0  0  0
    3.6211   -4.2630   -1.5606 H   0  0  0  0  0  0  0  0  0  0  0  0
  1  2  1  0
  1 30  1  0
  1 31  1  0
  1 32  1  0
  2  3  1  0
  3  4  2  0
  3 28  1  0
  4  5  1  0
  4 33  1  0
  5  6  2  0
  5 34  1  0
  6  7  1  0
  6 27  1  0
  7  8  2  0
  7 35  1  0
  8  9  1  0
  8 36  1  0
  9 10  2  0
  9 11  1  0
 11 12  1  0
 11 26  1  0
 12 13  1  0
 12 37  1  0
 12 38  1  0
 13 14  1  0
 13 39  1  0
 13 40  1  0
 14 15  1  0
 14 25  1  0
 15 16  2  0
 15 24  1  0
 16 17  1  0
 16 41  1  0
 17 18  2  0
 17 42  1  0
 18 19  1  0
 18 43  1  0
 19 20  1  0
 19 24  2  0
 20 21  1  6
 20 22  1  0
 20 23  1  0
 24 44  1  0
 25 26  1  0
 25 45  1  0
 25 46  1  0
 26 47  1  0
 26 48  1  0
 27 28  2  0
 27 49  1  0
 28 29  1  0
M  END

