
     RDKit          3D

 44 47  0  0  0  0  0  0  0  0999 V2000
    1.1397   -0.9151   -0.8267 C   0  0  0  0  0  0  0  0  0  0  0  0
    2.4049   -0.4227   -0.2994 N   0  0  0  0  0  0  0  0  0  0  0  0
    3.0577    0.6477   -0.8795 C   0  0  0  0  0  0  0  0  0  0  0  0
    4.0831    1.1177   -0.4112 O   0  0  0  0  0  0  0  0  0  0  0  0
    2.4067    1.2448   -2.1366 C   0  0  0  0  0  0  0  0  0  0  0  0
    3.2603    2.2229   -2.8865 C   0  0  0  0  0  0  0  0  0  0  0  0
    3.6274    2.1062   -4.2104 C   0  0  0  0  0  0  0  0  0  0  0  0
    4.3570    3.2067   -4.6088 N   0  0  0  0  0  0  0  0  0  0  0  0
    4.7508    3.3734   -5.5254 H   0  0  0  0  0  0  0  0  0  0  0  0
    4.4784    4.0698   -3.5453 C   0  0  0  0  0  0  0  0  0  0  0  0
    5.1166    5.2354   -3.5683 N   0  0  0  0  0  0  0  0  0  0  0  0
    5.1075    5.9041   -2.4152 C   0  0  0  0  0  0  0  0  0  0  0  0
    4.4858    5.4376   -1.2377 C   0  0  0  0  0  0  0  0  0  0  0  0
    3.8278    4.2091   -1.2345 C   0  0  0  0  0  0  0  0  0  0  0  0
    3.8026    3.4814   -2.4344 C   0  0  0  0  0  0  0  0  0  0  0  0
    3.0111   -0.9927    0.9163 C   0  0  2  0  0  0  0  0  0  0  0  0
    3.0288   -2.5552    0.9756 C   0  0  0  0  0  0  0  0  0  0  0  0
    2.5947   -3.0488    2.2834 N   0  0  0  0  0  0  0  0  0  0  0  0
    3.4555   -2.4966    3.3343 C   0  0  0  0  0  0  0  0  0  0  0  0
    3.3719   -0.9370    3.3732 C   0  0  0  0  0  0  0  0  0  0  0  0
    2.4105   -0.4857    2.2543 C   0  0  2  0  0  0  0  0  0  0  0  0
    1.0303   -1.1109    2.5352 C   0  0  0  0  0  0  0  0  0  0  0  0
    1.2026   -2.6634    2.5321 C   0  0  0  0  0  0  0  0  0  0  0  0
    1.2361   -1.3045   -1.8544 H   0  0  0  0  0  0  0  0  0  0  0  0
    0.3576   -0.1373   -0.8334 H   0  0  0  0  0  0  0  0  0  0  0  0
    0.7719   -1.7387   -0.2068 H   0  0  0  0  0  0  0  0  0  0  0  0
    1.4641    1.7279   -1.8128 H   0  0  0  0  0  0  0  0  0  0  0  0
    2.0966    0.4387   -2.8194 H   0  0  0  0  0  0  0  0  0  0  0  0
    3.4094    1.3017   -4.9115 H   0  0  0  0  0  0  0  0  0  0  0  0
    5.6265    6.8698   -2.4078 H   0  0  0  0  0  0  0  0  0  0  0  0
    4.5376    6.0434   -0.3302 H   0  0  0  0  0  0  0  0  0  0  0  0
    3.3698    3.8149   -0.3255 H   0  0  0  0  0  0  0  0  0  0  0  0
    4.0413   -0.6185    0.8844 H   0  0  0  0  0  0  0  0  0  0  0  0
    4.0461   -2.9291    0.7788 H   0  0  0  0  0  0  0  0  0  0  0  0
    2.3803   -3.0004    0.2054 H   0  0  0  0  0  0  0  0  0  0  0  0
    4.4873   -2.8339    3.1455 H   0  0  0  0  0  0  0  0  0  0  0  0
    3.1491   -2.9363    4.2971 H   0  0  0  0  0  0  0  0  0  0  0  0
    4.3640   -0.4810    3.2256 H   0  0  0  0  0  0  0  0  0  0  0  0
    2.9990   -0.5815    4.3478 H   0  0  0  0  0  0  0  0  0  0  0  0
    2.3482    0.6128    2.2256 H   0  0  0  0  0  0  0  0  0  0  0  0
    0.2849   -0.7808    1.7957 H   0  0  0  0  0  0  0  0  0  0  0  0
    0.6648   -0.7571    3.5133 H   0  0  0  0  0  0  0  0  0  0  0  0
    0.5713   -3.1366    1.7613 H   0  0  0  0  0  0  0  0  0  0  0  0
    0.8934   -3.0979    3.4963 H   0  0  0  0  0  0  0  0  0  0  0  0
  1  2  1  0
  1 24  1  0
  1 25  1  0
  1 26  1  0
  2  3  1  0
  2 16  1  0
  3  4  2  0
  3  5  1  0
  5  6  1  0
  5 27  1  0
  5 28  1  0
  6  7  2  0
  6 15  1  0
  7  8  1  0
  7 29  1  0
  8  9  1  0
  8 10  1  0
 10 11  1  0
 10 15  2  0
 11 12  2  0
 12 13  1  0
 12 30  1  0
 13 14  2  0
 13 31  1  0
 14 15  1  0
 14 32  1  0
 16 17  1  0
 16 21  1  0
 16 33  1  1
 17 18  1  0
 17 34  1  0
 17 35  1  0
 18 19  1  0
 18 23  1  0
 19 20  1  0
 19 36  1  0
 19 37  1  0
 20 21  1  0
 20 38  1  0
 20 39  1  0
 21 22  1  0
 21 40  1  6
 22 23  1  0
 22 41  1  0
 22 42  1  0
 23 43  1  0
 23 44  1  0
M  END

