
     RDKit          3D

 52 54  0  0  0  0  0  0  0  0999 V2000
    1.6715    5.9171   -2.5817 C   0  0  0  0  0  0  0  0  0  0  0  0
    1.9316    6.2292   -4.0460 C   0  0  0  0  0  0  0  0  0  0  0  0
    2.6974    5.1907   -4.6850 O   0  0  0  0  0  0  0  0  0  0  0  0
    4.0395    5.2549   -4.5890 C   0  0  0  0  0  0  0  0  0  0  0  0
    4.6310    6.1356   -4.0120 O   0  0  0  0  0  0  0  0  0  0  0  0
    4.6903    4.0791   -5.2898 C   0  0  0  0  0  0  0  0  0  0  0  0
    6.2116    4.1842   -5.3648 C   0  0  0  0  0  0  0  0  0  0  0  0
    6.8634    2.9669   -6.0306 C   0  0  0  0  0  0  0  0  0  0  0  0
    8.3878    3.0584   -6.1830 C   0  0  0  0  0  0  0  0  0  0  0  0
    9.1512    3.0138   -4.8504 C   0  0  0  0  0  0  0  0  0  0  0  0
   10.6054    3.0580   -4.9925 N   0  0  0  0  0  0  0  0  0  0  0  0
   11.2646    4.2908   -4.9928 C   0  0  0  0  0  0  0  0  0  0  0  0
   10.5637    5.5208   -4.9364 C   0  0  0  0  0  0  0  0  0  0  0  0
   11.2343    6.7345   -4.9205 C   0  0  0  0  0  0  0  0  0  0  0  0
   12.6463    6.8072   -4.9604 C   0  0  0  0  0  0  0  0  0  0  0  0
   13.2956    8.0388   -4.9952 N   0  0  0  0  0  0  0  0  0  0  0  0
   13.3412    5.6005   -5.0262 C   0  0  0  0  0  0  0  0  0  0  0  0
   12.6804    4.3602   -5.0480 C   0  0  0  0  0  0  0  0  0  0  0  0
   13.5030    3.1386   -5.1277 C   0  0  0  0  0  0  0  0  0  0  0  0
   14.7320    3.1694   -5.1453 O   0  0  0  0  0  0  0  0  0  0  0  0
   12.7415    1.8772   -5.2021 C   0  0  0  0  0  0  0  0  0  0  0  0
   13.4629    0.6779   -5.3309 C   0  0  0  0  0  0  0  0  0  0  0  0
   12.8291   -0.5608   -5.4160 C   0  0  0  0  0  0  0  0  0  0  0  0
   13.5392   -1.7450   -5.6011 N   0  0  0  0  0  0  0  0  0  0  0  0
   11.4156   -0.5639   -5.3710 C   0  0  0  0  0  0  0  0  0  0  0  0
   10.6858    0.6081   -5.2394 C   0  0  0  0  0  0  0  0  0  0  0  0
   11.3242    1.8694   -5.1430 C   0  0  0  0  0  0  0  0  0  0  0  0
    1.0184    6.6888   -2.1437 H   0  0  0  0  0  0  0  0  0  0  0  0
    2.6126    5.9041   -2.0120 H   0  0  0  0  0  0  0  0  0  0  0  0
    1.1739    4.9412   -2.4688 H   0  0  0  0  0  0  0  0  0  0  0  0
    2.4658    7.1848   -4.1548 H   0  0  0  0  0  0  0  0  0  0  0  0
    0.9928    6.2754   -4.6169 H   0  0  0  0  0  0  0  0  0  0  0  0
    4.2363    3.9862   -6.2912 H   0  0  0  0  0  0  0  0  0  0  0  0
    4.3804    3.1667   -4.7486 H   0  0  0  0  0  0  0  0  0  0  0  0
    6.6011    4.3321   -4.3445 H   0  0  0  0  0  0  0  0  0  0  0  0
    6.4829    5.0993   -5.9193 H   0  0  0  0  0  0  0  0  0  0  0  0
    6.4200    2.8265   -7.0321 H   0  0  0  0  0  0  0  0  0  0  0  0
    6.6045    2.0538   -5.4615 H   0  0  0  0  0  0  0  0  0  0  0  0
    8.6541    3.9841   -6.7215 H   0  0  0  0  0  0  0  0  0  0  0  0
    8.7413    2.2282   -6.8163 H   0  0  0  0  0  0  0  0  0  0  0  0
    8.8847    2.1026   -4.2957 H   0  0  0  0  0  0  0  0  0  0  0  0
    8.8474    3.8428   -4.1987 H   0  0  0  0  0  0  0  0  0  0  0  0
    9.4757    5.5459   -4.9179 H   0  0  0  0  0  0  0  0  0  0  0  0
   10.6496    7.6586   -4.8865 H   0  0  0  0  0  0  0  0  0  0  0  0
   12.8011    8.8123   -4.5646 H   0  0  0  0  0  0  0  0  0  0  0  0
   14.2773    8.0216   -4.7418 H   0  0  0  0  0  0  0  0  0  0  0  0
   14.4326    5.5705   -5.0661 H   0  0  0  0  0  0  0  0  0  0  0  0
   14.5514    0.7669   -5.3632 H   0  0  0  0  0  0  0  0  0  0  0  0
   14.5202   -1.7085   -5.3472 H   0  0  0  0  0  0  0  0  0  0  0  0
   13.0876   -2.5887   -5.2656 H   0  0  0  0  0  0  0  0  0  0  0  0
   10.8781   -1.5133   -5.4531 H   0  0  0  0  0  0  0  0  0  0  0  0
    9.6001    0.5285   -5.2268 H   0  0  0  0  0  0  0  0  0  0  0  0
  1  2  1  0
  1 28  1  0
  1 29  1  0
  1 30  1  0
  2  3  1  0
  2 31  1  0
  2 32  1  0
  3  4  1  0
  4  5  2  0
  4  6  1  0
  6  7  1  0
  6 33  1  0
  6 34  1  0
  7  8  1  0
  7 35  1  0
  7 36  1  0
  8  9  1  0
  8 37  1  0
  8 38  1  0
  9 10  1  0
  9 39  1  0
  9 40  1  0
 10 11  1  0
 10 41  1  0
 10 42  1  0
 11 12  1  0
 11 27  1  0
 12 13  2  0
 12 18  1  0
 13 14  1  0
 13 43  1  0
 14 15  2  0
 14 44  1  0
 15 16  1  0
 15 17  1  0
 16 45  1  0
 16 46  1  0
 17 18  2  0
 17 47  1  0
 18 19  1  0
 19 20  2  0
 19 21  1  0
 21 22  1  0
 21 27  2  0
 22 23  2  0
 22 48  1  0
 23 24  1  0
 23 25  1  0
 24 49  1  0
 24 50  1  0
 25 26  2  0
 25 51  1  0
 26 27  1  0
 26 52  1  0
M  END

