
     RDKit          3D

 41 41  0  0  0  0  0  0  0  0999 V2000
    0.9443   -0.0435    0.0461 C   0  0  0  0  0  0  0  0  0  0  0  0
    2.4670    0.0951    0.0788 C   0  0  0  0  0  0  0  0  0  0  0  0
    3.1498   -0.9441    0.9719 C   0  0  0  0  0  0  0  0  0  0  0  0
    4.6644   -0.8085    1.0048 C   0  0  0  0  0  0  0  0  0  0  0  0
    5.1999   -1.8029    1.8490 O   0  0  0  0  0  0  0  0  0  0  0  0
    6.5978   -1.7835    1.9571 C   0  0  0  0  0  0  0  0  0  0  0  0
    7.0072   -2.9171    2.8824 C   0  0  0  0  0  0  0  0  0  0  0  0
    8.4142   -2.9138    2.9902 O   0  0  0  0  0  0  0  0  0  0  0  0
    8.9273   -3.9577    3.7831 C   0  0  0  0  0  0  0  0  0  0  0  0
   10.4563   -4.0282    3.7023 C   0  0  0  0  0  0  0  0  0  0  0  0
   10.9905   -5.0856    3.4082 O   0  0  0  0  0  0  0  0  0  0  0  0
   11.1761   -2.8936    3.9892 N   0  0  0  0  0  0  0  0  0  0  0  0
   10.6443   -1.6363    4.4974 C   0  0  0  0  0  0  0  0  0  0  0  0
   11.1762   -1.3485    5.9155 C   0  0  0  0  0  0  0  0  0  0  0  0
   12.6931   -1.4812    5.9970 C   0  0  0  0  0  0  0  0  0  0  0  0
   13.3876   -0.6689    6.5644 O   0  0  0  0  0  0  0  0  0  0  0  0
   13.2588   -2.7168    5.3106 C   0  0  0  0  0  0  0  0  0  0  0  0
   12.6322   -2.9413    3.9213 C   0  0  0  0  0  0  0  0  0  0  0  0
    0.4832    0.7170   -0.6039 H   0  0  0  0  0  0  0  0  0  0  0  0
    0.5101    0.0711    1.0534 H   0  0  0  0  0  0  0  0  0  0  0  0
    0.6406   -1.0340   -0.3320 H   0  0  0  0  0  0  0  0  0  0  0  0
    2.7360    1.1098    0.4252 H   0  0  0  0  0  0  0  0  0  0  0  0
    2.8653    0.0134   -0.9490 H   0  0  0  0  0  0  0  0  0  0  0  0
    2.8990   -1.9633    0.6291 H   0  0  0  0  0  0  0  0  0  0  0  0
    2.7704   -0.8647    2.0059 H   0  0  0  0  0  0  0  0  0  0  0  0
    4.9536    0.2013    1.3679 H   0  0  0  0  0  0  0  0  0  0  0  0
    5.0831   -0.9073   -0.0197 H   0  0  0  0  0  0  0  0  0  0  0  0
    6.9607   -0.8174    2.3665 H   0  0  0  0  0  0  0  0  0  0  0  0
    7.0872   -1.9207    0.9707 H   0  0  0  0  0  0  0  0  0  0  0  0
    6.6436   -3.8790    2.4708 H   0  0  0  0  0  0  0  0  0  0  0  0
    6.5276   -2.7822    3.8732 H   0  0  0  0  0  0  0  0  0  0  0  0
    8.5716   -4.9415    3.4315 H   0  0  0  0  0  0  0  0  0  0  0  0
    8.6095   -3.8475    4.8433 H   0  0  0  0  0  0  0  0  0  0  0  0
    9.5508   -1.6512    4.4751 H   0  0  0  0  0  0  0  0  0  0  0  0
   10.9558   -0.8203    3.8192 H   0  0  0  0  0  0  0  0  0  0  0  0
   10.7410   -2.0831    6.6176 H   0  0  0  0  0  0  0  0  0  0  0  0
   10.8933   -0.3420    6.2572 H   0  0  0  0  0  0  0  0  0  0  0  0
   13.0288   -3.5901    5.9478 H   0  0  0  0  0  0  0  0  0  0  0  0
   14.3525   -2.6178    5.2521 H   0  0  0  0  0  0  0  0  0  0  0  0
   12.9179   -3.9178    3.5136 H   0  0  0  0  0  0  0  0  0  0  0  0
   12.9828   -2.1568    3.2260 H   0  0  0  0  0  0  0  0  0  0  0  0
  1  2  1  0
  1 19  1  0
  1 20  1  0
  1 21  1  0
  2  3  1  0
  2 22  1  0
  2 23  1  0
  3  4  1  0
  3 24  1  0
  3 25  1  0
  4  5  1  0
  4 26  1  0
  4 27  1  0
  5  6  1  0
  6  7  1  0
  6 28  1  0
  6 29  1  0
  7  8  1  0
  7 30  1  0
  7 31  1  0
  8  9  1  0
  9 10  1  0
  9 32  1  0
  9 33  1  0
 10 11  2  0
 10 12  1  0
 12 13  1  0
 12 18  1  0
 13 14  1  0
 13 34  1  0
 13 35  1  0
 14 15  1  0
 14 36  1  0
 14 37  1  0
 15 16  2  0
 15 17  1  0
 17 18  1  0
 17 38  1  0
 17 39  1  0
 18 40  1  0
 18 41  1  0
M  END

