
     RDKit          3D

 70 74  0  0  0  0  0  0  0  0999 V2000
    0.2946    0.4608   -0.1634 C   0  0  0  0  0  0  0  0  0  0  0  0
    1.6176    0.6501    0.5530 C   0  0  0  0  0  0  0  0  0  0  0  0
    2.5333    1.2759   -0.3394 O   0  0  0  0  0  0  0  0  0  0  0  0
    3.8537    1.3787    0.1356 C   0  0  1  0  0  0  0  0  0  0  0  0
    3.8456    1.5727    1.2232 H   0  0  0  0  0  0  0  0  0  0  0  0
    4.6407    0.0526   -0.1505 C   0  0  2  0  0  0  0  0  0  0  0  0
    3.9059   -0.7563   -0.2809 H   0  0  0  0  0  0  0  0  0  0  0  0
    5.5495   -0.3567    0.9179 N   0  0  0  0  0  0  0  0  0  0  0  0
    5.1219   -1.1197    1.9689 C   0  0  0  0  0  0  0  0  0  0  0  0
    3.9544   -1.4658    2.0910 O   0  0  0  0  0  0  0  0  0  0  0  0
    6.1679   -1.5278    2.9719 C   0  0  0  0  0  0  0  0  0  0  0  0
    7.3977   -0.8802    3.1511 C   0  0  0  0  0  0  0  0  0  0  0  0
    8.2748   -1.3518    4.1281 C   0  0  0  0  0  0  0  0  0  0  0  0
    7.8871   -2.4563    4.8932 C   0  0  0  0  0  0  0  0  0  0  0  0
    6.7146   -3.0786    4.7422 N   0  0  0  0  0  0  0  0  0  0  0  0
    5.8794   -2.6188    3.8115 C   0  0  0  0  0  0  0  0  0  0  0  0
    5.3984    0.3552   -1.4214 C   0  0  0  0  0  0  0  0  0  0  0  0
    6.0716   -0.5442   -2.2525 C   0  0  0  0  0  0  0  0  0  0  0  0
    6.7292   -0.0578   -3.3873 C   0  0  0  0  0  0  0  0  0  0  0  0
    6.7099    1.3124   -3.6775 C   0  0  0  0  0  0  0  0  0  0  0  0
    6.0366    2.2095   -2.8404 C   0  0  0  0  0  0  0  0  0  0  0  0
    5.3757    1.7263   -1.7064 C   0  0  0  0  0  0  0  0  0  0  0  0
    4.6129    2.5130   -0.6453 C   0  0  2  0  0  0  0  0  0  0  0  0
    5.6169    3.2350    0.2979 C   0  0  0  0  0  0  0  0  0  0  0  0
    4.9384    4.1784    1.3011 C   0  0  0  0  0  0  0  0  0  0  0  0
    4.0568    5.1199    0.6283 N   0  0  0  0  0  0  0  0  0  0  0  0
    4.1052    6.4919    0.7115 C   0  0  0  0  0  0  0  0  0  0  0  0
    3.3012    7.2028    0.1248 O   0  0  0  0  0  0  0  0  0  0  0  0
    5.1860    7.1334    1.5942 C   0  0  0  0  0  0  0  0  0  0  0  0
    4.8317    7.1433    3.0685 C   0  0  0  0  0  0  0  0  0  0  0  0
    5.6931    6.7148    4.0080 C   0  0  0  0  0  0  0  0  0  0  0  0
    5.4101    6.7188    5.4893 C   0  0  0  0  0  0  0  0  0  0  0  0
    3.9263    6.9490    5.8032 C   0  0  0  0  0  0  0  0  0  0  0  0
    3.3491    8.0575    4.9183 C   0  0  0  0  0  0  0  0  0  0  0  0
    3.4674    7.6948    3.4334 C   0  0  0  0  0  0  0  0  0  0  0  0
    3.0346    4.4842   -0.2021 C   0  0  0  0  0  0  0  0  0  0  0  0
    3.6693    3.5727   -1.2545 C   0  0  0  0  0  0  0  0  0  0  0  0
   -0.4420   -0.0037    0.5107 H   0  0  0  0  0  0  0  0  0  0  0  0
    0.4185   -0.1898   -1.0431 H   0  0  0  0  0  0  0  0  0  0  0  0
   -0.1090    1.4263   -0.5067 H   0  0  0  0  0  0  0  0  0  0  0  0
    2.0202   -0.3149    0.9092 H   0  0  0  0  0  0  0  0  0  0  0  0
    1.4881    1.2895    1.4508 H   0  0  0  0  0  0  0  0  0  0  0  0
    6.5420   -0.2225    0.7696 H   0  0  0  0  0  0  0  0  0  0  0  0
    7.6685   -0.0025    2.5578 H   0  0  0  0  0  0  0  0  0  0  0  0
    9.2389   -0.8686    4.3015 H   0  0  0  0  0  0  0  0  0  0  0  0
    8.5550   -2.8511    5.6682 H   0  0  0  0  0  0  0  0  0  0  0  0
    4.9150   -3.1246    3.6997 H   0  0  0  0  0  0  0  0  0  0  0  0
    6.0769   -1.6140   -2.0252 H   0  0  0  0  0  0  0  0  0  0  0  0
    7.2529   -0.7484   -4.0531 H   0  0  0  0  0  0  0  0  0  0  0  0
    7.2221    1.6847   -4.5686 H   0  0  0  0  0  0  0  0  0  0  0  0
    6.0304    3.2756   -3.0812 H   0  0  0  0  0  0  0  0  0  0  0  0
    6.3187    3.8191   -0.3209 H   0  0  0  0  0  0  0  0  0  0  0  0
    6.2188    2.4922    0.8477 H   0  0  0  0  0  0  0  0  0  0  0  0
    5.6937    4.7141    1.8850 H   0  0  0  0  0  0  0  0  0  0  0  0
    4.3480    3.5909    2.0304 H   0  0  0  0  0  0  0  0  0  0  0  0
    5.2407    8.1704    1.2267 H   0  0  0  0  0  0  0  0  0  0  0  0
    6.1744    6.6746    1.4411 H   0  0  0  0  0  0  0  0  0  0  0  0
    6.6808    6.3516    3.6969 H   0  0  0  0  0  0  0  0  0  0  0  0
    6.0257    7.5033    5.9724 H   0  0  0  0  0  0  0  0  0  0  0  0
    5.7552    5.7691    5.9359 H   0  0  0  0  0  0  0  0  0  0  0  0
    3.7957    7.1902    6.8709 H   0  0  0  0  0  0  0  0  0  0  0  0
    3.3651    6.0143    5.6223 H   0  0  0  0  0  0  0  0  0  0  0  0
    3.8989    8.9969    5.1099 H   0  0  0  0  0  0  0  0  0  0  0  0
    2.2956    8.2545    5.1757 H   0  0  0  0  0  0  0  0  0  0  0  0
    3.2457    8.5680    2.7967 H   0  0  0  0  0  0  0  0  0  0  0  0
    2.6943    6.9509    3.1622 H   0  0  0  0  0  0  0  0  0  0  0  0
    2.4511    5.2852   -0.6712 H   0  0  0  0  0  0  0  0  0  0  0  0
    2.3527    3.8989    0.4412 H   0  0  0  0  0  0  0  0  0  0  0  0
    4.2516    4.2020   -1.9483 H   0  0  0  0  0  0  0  0  0  0  0  0
    2.8830    3.0743   -1.8363 H   0  0  0  0  0  0  0  0  0  0  0  0
  1  2  1  0
  1 38  1  0
  1 39  1  0
  1 40  1  0
  2  3  1  0
  2 41  1  0
  2 42  1  0
  3  4  1  0
  4  5  1  1
  4  6  1  0
  4 23  1  0
  6  7  1  6
  6  8  1  0
  6 17  1  0
  8  9  1  0
  8 43  1  0
  9 10  2  0
  9 11  1  0
 11 12  2  0
 11 16  1  0
 12 13  1  0
 12 44  1  0
 13 14  2  0
 13 45  1  0
 14 15  1  0
 14 46  1  0
 15 16  2  0
 16 47  1  0
 17 18  2  0
 17 22  1  0
 18 19  1  0
 18 48  1  0
 19 20  2  0
 19 49  1  0
 20 21  1  0
 20 50  1  0
 21 22  2  0
 21 51  1  0
 22 23  1  0
 23 24  1  1
 23 37  1  0
 24 25  1  0
 24 52  1  0
 24 53  1  0
 25 26  1  0
 25 54  1  0
 25 55  1  0
 26 27  1  0
 26 36  1  0
 27 28  2  0
 27 29  1  0
 29 30  1  0
 29 56  1  0
 29 57  1  0
 30 31  2  0
 30 35  1  0
 31 32  1  0
 31 58  1  0
 32 33  1  0
 32 59  1  0
 32 60  1  0
 33 34  1  0
 33 61  1  0
 33 62  1  0
 34 35  1  0
 34 63  1  0
 34 64  1  0
 35 65  1  0
 35 66  1  0
 36 37  1  0
 36 67  1  0
 36 68  1  0
 37 69  1  0
 37 70  1  0
M  END

