
     RDKit          3D

 73 74  0  0  0  0  0  0  0  0999 V2000
   10.0103    1.6859    0.9188 C   0  0  0  0  0  0  0  0  0  0  0  0
    9.0506    0.5459    1.2605 C   0  0  0  0  0  0  0  0  0  0  0  0
    7.6339    0.7068    0.6821 C   0  0  2  0  0  0  0  0  0  0  0  0
    7.2395    1.6928    0.9695 H   0  0  0  0  0  0  0  0  0  0  0  0
    6.6746   -0.3770    1.1874 C   0  0  0  0  0  0  0  0  0  0  0  0
    7.6728    0.7169   -0.7805 N   0  0  0  0  0  0  0  0  0  0  0  0
    7.2299    1.7395   -1.5511 C   0  0  0  0  0  0  0  0  0  0  0  0
    6.6836    2.7427   -1.1104 O   0  0  0  0  0  0  0  0  0  0  0  0
    7.3592    1.5620   -3.0889 C   0  0  2  0  0  0  0  0  0  0  0  0
    6.3150    1.4637   -3.4245 H   0  0  0  0  0  0  0  0  0  0  0  0
    8.1158    0.3241   -3.5832 C   0  0  0  0  0  0  0  0  0  0  0  0
    7.8392    2.8231   -3.6800 N   0  0  0  0  0  0  0  0  0  0  0  0
    6.8534    3.6689   -4.3393 C   0  0  0  0  0  0  0  0  0  0  0  0
    6.4854    3.2575   -5.7542 C   0  0  0  0  0  0  0  0  0  0  0  0
    7.3038    2.4725   -6.5772 C   0  0  0  0  0  0  0  0  0  0  0  0
    6.9325    2.1599   -7.8895 C   0  0  0  0  0  0  0  0  0  0  0  0
    5.7250    2.6351   -8.4075 C   0  0  0  0  0  0  0  0  0  0  0  0
    4.8928    3.4298   -7.6132 C   0  0  0  0  0  0  0  0  0  0  0  0
    5.2900    3.7257   -6.3138 C   0  0  0  0  0  0  0  0  0  0  0  0
    4.4933    4.5127   -5.5574 F   0  0  0  0  0  0  0  0  0  0  0  0
    9.0916    3.2547   -3.3212 C   0  0  0  0  0  0  0  0  0  0  0  0
    9.8065    2.5898   -2.5841 O   0  0  0  0  0  0  0  0  0  0  0  0
    9.6390    4.5654   -3.9195 C   0  0  0  0  0  0  0  0  0  0  0  0
    9.1755    5.7840   -3.2380 N   0  0  0  0  0  0  0  0  0  0  0  0
    9.4591    5.9475   -1.8289 C   0  0  0  0  0  0  0  0  0  0  0  0
    8.4735    5.5356   -0.9259 C   0  0  0  0  0  0  0  0  0  0  0  0
    8.6640    5.6145    0.4598 C   0  0  0  0  0  0  0  0  0  0  0  0
    7.5710    5.1839    1.4072 C   0  0  0  0  0  0  0  0  0  0  0  0
    9.8906    6.1174    0.9146 C   0  0  0  0  0  0  0  0  0  0  0  0
   10.8788    6.5230    0.0158 C   0  0  0  0  0  0  0  0  0  0  0  0
   10.6956    6.4522   -1.3727 C   0  0  0  0  0  0  0  0  0  0  0  0
   11.7682    6.9499   -2.3080 C   0  0  0  0  0  0  0  0  0  0  0  0
    9.0155    7.1632   -4.2059 S   0  0  1  0  0  0  0  0  0  0  0  0
    9.0142    8.3144   -3.3054 O   0  0  0  0  0  0  0  0  0  0  0  0
    9.9514    7.0824   -5.3297 O   0  0  0  0  0  0  0  0  0  0  0  0
    7.4697    6.9485   -4.8830 N   0  0  0  0  0  0  0  0  0  0  0  0
    6.3695    7.2672   -3.9723 C   0  0  0  0  0  0  0  0  0  0  0  0
    7.2973    7.4551   -6.2457 C   0  0  0  0  0  0  0  0  0  0  0  0
   11.0122    1.4925    1.3341 H   0  0  0  0  0  0  0  0  0  0  0  0
    9.6558    2.6421    1.3356 H   0  0  0  0  0  0  0  0  0  0  0  0
   10.1133    1.8263   -0.1680 H   0  0  0  0  0  0  0  0  0  0  0  0
    8.9579    0.4458    2.3560 H   0  0  0  0  0  0  0  0  0  0  0  0
    9.4654   -0.4196    0.9105 H   0  0  0  0  0  0  0  0  0  0  0  0
    5.6649   -0.2304    0.7745 H   0  0  0  0  0  0  0  0  0  0  0  0
    6.6028   -0.3545    2.2864 H   0  0  0  0  0  0  0  0  0  0  0  0
    7.0212   -1.3832    0.8952 H   0  0  0  0  0  0  0  0  0  0  0  0
    8.2057   -0.0189   -1.2280 H   0  0  0  0  0  0  0  0  0  0  0  0
    8.0741    0.2714   -4.6803 H   0  0  0  0  0  0  0  0  0  0  0  0
    7.6399   -0.5932   -3.2017 H   0  0  0  0  0  0  0  0  0  0  0  0
    9.1700    0.3471   -3.2763 H   0  0  0  0  0  0  0  0  0  0  0  0
    7.2205    4.7024   -4.3684 H   0  0  0  0  0  0  0  0  0  0  0  0
    5.9479    3.6994   -3.7141 H   0  0  0  0  0  0  0  0  0  0  0  0
    8.2493    2.1028   -6.1750 H   0  0  0  0  0  0  0  0  0  0  0  0
    7.5904    1.5447   -8.5075 H   0  0  0  0  0  0  0  0  0  0  0  0
    5.4278    2.3930   -9.4305 H   0  0  0  0  0  0  0  0  0  0  0  0
    3.9444    3.8251   -7.9823 H   0  0  0  0  0  0  0  0  0  0  0  0
    9.3866    4.6476   -4.9851 H   0  0  0  0  0  0  0  0  0  0  0  0
   10.7332    4.4659   -3.8406 H   0  0  0  0  0  0  0  0  0  0  0  0
    7.5461    5.1103   -1.3140 H   0  0  0  0  0  0  0  0  0  0  0  0
    6.9872    4.3571    0.9753 H   0  0  0  0  0  0  0  0  0  0  0  0
    6.8713    6.0143    1.6096 H   0  0  0  0  0  0  0  0  0  0  0  0
    7.9801    4.8619    2.3776 H   0  0  0  0  0  0  0  0  0  0  0  0
   10.0811    6.1887    1.9896 H   0  0  0  0  0  0  0  0  0  0  0  0
   11.8269    6.9085    0.4016 H   0  0  0  0  0  0  0  0  0  0  0  0
   12.7544    6.9277   -1.8214 H   0  0  0  0  0  0  0  0  0  0  0  0
   11.5598    7.9889   -2.6115 H   0  0  0  0  0  0  0  0  0  0  0  0
   11.8288    6.3627   -3.2356 H   0  0  0  0  0  0  0  0  0  0  0  0
    6.5640    6.8363   -2.9812 H   0  0  0  0  0  0  0  0  0  0  0  0
    5.4506    6.8112   -4.3708 H   0  0  0  0  0  0  0  0  0  0  0  0
    6.2212    8.3560   -3.8566 H   0  0  0  0  0  0  0  0  0  0  0  0
    8.1474    7.1516   -6.8668 H   0  0  0  0  0  0  0  0  0  0  0  0
    7.2014    8.5573   -6.2814 H   0  0  0  0  0  0  0  0  0  0  0  0
    6.3777    7.0109   -6.6568 H   0  0  0  0  0  0  0  0  0  0  0  0
  1  2  1  0
  1 39  1  0
  1 40  1  0
  1 41  1  0
  2  3  1  0
  2 42  1  0
  2 43  1  0
  3  4  1  1
  3  5  1  0
  3  6  1  0
  5 44  1  0
  5 45  1  0
  5 46  1  0
  6  7  1  0
  6 47  1  0
  7  8  2  0
  7  9  1  0
  9 10  1  6
  9 11  1  0
  9 12  1  0
 11 48  1  0
 11 49  1  0
 11 50  1  0
 12 13  1  0
 12 21  1  0
 13 14  1  0
 13 51  1  0
 13 52  1  0
 14 15  2  0
 14 19  1  0
 15 16  1  0
 15 53  1  0
 16 17  2  0
 16 54  1  0
 17 18  1  0
 17 55  1  0
 18 19  2  0
 18 56  1  0
 19 20  1  0
 21 22  2  0
 21 23  1  0
 23 24  1  0
 23 57  1  0
 23 58  1  0
 24 25  1  0
 33 24  1  1
 25 26  2  0
 25 31  1  0
 26 27  1  0
 26 59  1  0
 27 28  1  0
 27 29  2  0
 28 60  1  0
 28 61  1  0
 28 62  1  0
 29 30  1  0
 29 63  1  0
 30 31  2  0
 30 64  1  0
 31 32  1  0
 32 65  1  0
 32 66  1  0
 32 67  1  0
 33 34  2  0
 33 35  2  0
 33 36  1  0
 36 37  1  0
 36 38  1  0
 37 68  1  0
 37 69  1  0
 37 70  1  0
 38 71  1  0
 38 72  1  0
 38 73  1  0
M  END

