
     RDKit          3D

 68 70  0  0  0  0  0  0  0  0999 V2000
    8.4128   -0.1524    1.1537 C   0  0  0  0  0  0  0  0  0  0  0  0
    9.5974    0.1723    0.6259 C   0  0  0  0  0  0  0  0  0  0  0  0
   10.3471   -0.6410   -0.3916 C   0  0  0  0  0  0  0  0  0  0  0  0
   10.5285    0.0645   -1.7505 C   0  0  1  0  0  0  0  0  0  0  0  0
   10.9829    1.0558   -1.6014 H   0  0  0  0  0  0  0  0  0  0  0  0
   11.4225   -0.7233   -2.5949 N   0  0  0  0  0  0  0  0  0  0  0  0
   11.9190   -0.0701   -3.8018 C   0  0  0  0  0  0  0  0  0  0  0  0
   12.9993    0.9614   -3.5211 C   0  0  0  0  0  0  0  0  0  0  0  0
   14.0024    0.7064   -2.5724 C   0  0  0  0  0  0  0  0  0  0  0  0
   15.0224    1.6335   -2.3475 C   0  0  0  0  0  0  0  0  0  0  0  0
   15.0568    2.8328   -3.0679 C   0  0  0  0  0  0  0  0  0  0  0  0
   14.0608    3.0985   -4.0110 C   0  0  0  0  0  0  0  0  0  0  0  0
   13.0384    2.1695   -4.2311 C   0  0  0  0  0  0  0  0  0  0  0  0
    9.1630    0.2488   -2.4293 C   0  0  0  0  0  0  0  0  0  0  0  0
    8.4242   -0.6761   -2.6818 O   0  0  0  0  0  0  0  0  0  0  0  0
    8.9079    1.5278   -2.7519 O   0  0  0  0  0  0  0  0  0  0  0  0
    7.6819    1.8176   -3.4746 C   0  0  2  0  0  0  0  0  0  0  0  0
    6.9071    1.1340   -3.0960 H   0  0  0  0  0  0  0  0  0  0  0  0
    7.9303    1.5089   -4.9574 C   0  0  0  0  0  0  0  0  0  0  0  0
    6.7154    1.7989   -5.8471 C   0  0  2  0  0  0  0  0  0  0  0  0
    5.8921    1.1371   -5.5158 H   0  0  0  0  0  0  0  0  0  0  0  0
    7.0032    1.4923   -7.3186 C   0  0  0  0  0  0  0  0  0  0  0  0
    6.2649    3.2462   -5.6224 C   0  0  0  0  0  0  0  0  0  0  0  0
    6.0256    3.5478   -4.1406 C   0  0  0  0  0  0  0  0  0  0  0  0
    7.2630    3.2841   -3.2472 C   0  0  1  0  0  0  0  0  0  0  0  0
    8.0880    3.9076   -3.6361 H   0  0  0  0  0  0  0  0  0  0  0  0
    7.0234    3.7371   -1.7489 C   0  0  1  0  0  0  0  0  0  0  0  0
    6.0500    2.7787   -1.0364 C   0  0  0  0  0  0  0  0  0  0  0  0
    8.3408    3.7518   -0.9299 C   0  0  0  0  0  0  0  0  0  0  0  0
    6.4934    5.1899   -1.7595 C   0  0  0  0  0  0  0  0  0  0  0  0
    7.3006    6.2266   -2.2678 C   0  0  0  0  0  0  0  0  0  0  0  0
    6.8653    7.5527   -2.2847 C   0  0  0  0  0  0  0  0  0  0  0  0
    5.6024    7.8868   -1.7854 C   0  0  0  0  0  0  0  0  0  0  0  0
    4.7887    6.8757   -1.2739 C   0  0  0  0  0  0  0  0  0  0  0  0
    5.2295    5.5468   -1.2625 C   0  0  0  0  0  0  0  0  0  0  0  0
    7.9232    0.4852    1.8951 H   0  0  0  0  0  0  0  0  0  0  0  0
    7.8907   -1.0705    0.8643 H   0  0  0  0  0  0  0  0  0  0  0  0
   10.0812    1.1052    0.9444 H   0  0  0  0  0  0  0  0  0  0  0  0
    9.8319   -1.6005   -0.5640 H   0  0  0  0  0  0  0  0  0  0  0  0
   11.3614   -0.8695   -0.0233 H   0  0  0  0  0  0  0  0  0  0  0  0
   10.9710   -1.6067   -2.8283 H   0  0  0  0  0  0  0  0  0  0  0  0
   11.1229    0.4078   -4.4102 H   0  0  0  0  0  0  0  0  0  0  0  0
   12.3484   -0.8639   -4.4383 H   0  0  0  0  0  0  0  0  0  0  0  0
   13.9648   -0.2279   -2.0074 H   0  0  0  0  0  0  0  0  0  0  0  0
   15.7968    1.4197   -1.6057 H   0  0  0  0  0  0  0  0  0  0  0  0
   15.8549    3.5586   -2.8909 H   0  0  0  0  0  0  0  0  0  0  0  0
   14.0742    4.0357   -4.5738 H   0  0  0  0  0  0  0  0  0  0  0  0
   12.2567    2.3873   -4.9652 H   0  0  0  0  0  0  0  0  0  0  0  0
    8.2225    0.4515   -5.0477 H   0  0  0  0  0  0  0  0  0  0  0  0
    8.7879    2.1180   -5.2976 H   0  0  0  0  0  0  0  0  0  0  0  0
    7.3007    0.4406   -7.4604 H   0  0  0  0  0  0  0  0  0  0  0  0
    7.8217    2.1255   -7.7021 H   0  0  0  0  0  0  0  0  0  0  0  0
    6.1166    1.6786   -7.9462 H   0  0  0  0  0  0  0  0  0  0  0  0
    5.3461    3.4533   -6.1975 H   0  0  0  0  0  0  0  0  0  0  0  0
    7.0392    3.9301   -6.0185 H   0  0  0  0  0  0  0  0  0  0  0  0
    5.1806    2.9318   -3.7843 H   0  0  0  0  0  0  0  0  0  0  0  0
    5.7100    4.5936   -4.0264 H   0  0  0  0  0  0  0  0  0  0  0  0
    5.8588    3.1132   -0.0053 H   0  0  0  0  0  0  0  0  0  0  0  0
    6.4825    1.7701   -0.9676 H   0  0  0  0  0  0  0  0  0  0  0  0
    5.0779    2.6947   -1.5452 H   0  0  0  0  0  0  0  0  0  0  0  0
    8.1733    4.2672    0.0291 H   0  0  0  0  0  0  0  0  0  0  0  0
    9.1499    4.2789   -1.4568 H   0  0  0  0  0  0  0  0  0  0  0  0
    8.6918    2.7363   -0.7162 H   0  0  0  0  0  0  0  0  0  0  0  0
    8.2939    5.9986   -2.6612 H   0  0  0  0  0  0  0  0  0  0  0  0
    7.5192    8.3309   -2.6879 H   0  0  0  0  0  0  0  0  0  0  0  0
    5.2591    8.9244   -1.7948 H   0  0  0  0  0  0  0  0  0  0  0  0
    3.7982    7.1165   -0.8782 H   0  0  0  0  0  0  0  0  0  0  0  0
    4.5626    4.7846   -0.8589 H   0  0  0  0  0  0  0  0  0  0  0  0
  1  2  2  0
  1 36  1  0
  1 37  1  0
  2  3  1  0
  2 38  1  0
  3  4  1  0
  3 39  1  0
  3 40  1  0
  4  5  1  1
  4  6  1  0
  4 14  1  0
  6  7  1  0
  6 41  1  0
  7  8  1  0
  7 42  1  0
  7 43  1  0
  8  9  2  0
  8 13  1  0
  9 10  1  0
  9 44  1  0
 10 11  2  0
 10 45  1  0
 11 12  1  0
 11 46  1  0
 12 13  2  0
 12 47  1  0
 13 48  1  0
 14 15  2  0
 14 16  1  0
 16 17  1  0
 17 18  1  1
 17 19  1  0
 17 25  1  0
 19 20  1  0
 19 49  1  0
 19 50  1  0
 20 21  1  1
 20 22  1  0
 20 23  1  0
 22 51  1  0
 22 52  1  0
 22 53  1  0
 23 24  1  0
 23 54  1  0
 23 55  1  0
 24 25  1  0
 24 56  1  0
 24 57  1  0
 25 26  1  6
 25 27  1  0
 27 28  1  1
 27 29  1  0
 27 30  1  0
 28 58  1  0
 28 59  1  0
 28 60  1  0
 29 61  1  0
 29 62  1  0
 29 63  1  0
 30 31  2  0
 30 35  1  0
 31 32  1  0
 31 64  1  0
 32 33  2  0
 32 65  1  0
 33 34  1  0
 33 66  1  0
 34 35  2  0
 34 67  1  0
 35 68  1  0
M  END

