
     RDKit          3D

 45 47  0  0  0  0  0  0  0  0999 V2000
    2.0461   -6.0863    1.3966 C   0  0  0  0  0  0  0  0  0  0  0  0
    2.4059   -5.1439    0.5220 C   0  0  0  0  0  0  0  0  0  0  0  0
    3.6596   -4.3197    0.6266 C   0  0  0  0  0  0  0  0  0  0  0  0
    4.4632   -4.4396   -0.5761 N   0  0  0  0  0  0  0  0  0  0  0  0
    5.4269   -3.5538   -0.9541 C   0  0  0  0  0  0  0  0  0  0  0  0
    6.2756   -3.7671   -1.9174 N   0  0  0  0  0  0  0  0  0  0  0  0
    7.1129   -2.6874   -2.1139 C   0  0  0  0  0  0  0  0  0  0  0  0
    8.1335   -2.7586   -3.1795 C   0  0  0  0  0  0  0  0  0  0  0  0
    9.0207   -1.6956   -3.4392 C   0  0  0  0  0  0  0  0  0  0  0  0
    9.9751   -1.7860   -4.4494 C   0  0  0  0  0  0  0  0  0  0  0  0
   10.0596   -2.9552   -5.2149 C   0  0  0  0  0  0  0  0  0  0  0  0
   11.3185   -3.0927   -6.4948 S   0  0  1  0  0  0  0  0  0  0  0  0
   10.8264   -4.0712   -7.4678 O   0  0  0  0  0  0  0  0  0  0  0  0
   11.6829   -1.7254   -6.8754 O   0  0  0  0  0  0  0  0  0  0  0  0
   12.6772   -3.7656   -5.7949 N   0  0  0  0  0  0  0  0  0  0  0  0
   13.6502   -2.9447   -5.0750 C   0  0  0  0  0  0  0  0  0  0  0  0
   13.7102   -3.3171   -3.5885 C   0  0  0  0  0  0  0  0  0  0  0  0
   13.9245   -4.8265   -3.4078 C   0  0  0  0  0  0  0  0  0  0  0  0
   12.8673   -5.6315   -4.1766 C   0  0  0  0  0  0  0  0  0  0  0  0
   12.8236   -5.2136   -5.6515 C   0  0  0  0  0  0  0  0  0  0  0  0
    9.1754   -4.0154   -4.9919 C   0  0  0  0  0  0  0  0  0  0  0  0
    8.2244   -3.9152   -3.9773 C   0  0  0  0  0  0  0  0  0  0  0  0
    6.9007   -1.6257   -1.2668 C   0  0  0  0  0  0  0  0  0  0  0  0
    5.5999   -1.9763   -0.1647 S   0  0  0  0  0  0  0  0  0  0  0  0
    1.1135   -6.6452    1.2822 H   0  0  0  0  0  0  0  0  0  0  0  0
    2.6668   -6.3300    2.2655 H   0  0  0  0  0  0  0  0  0  0  0  0
    1.7691   -4.9246   -0.3437 H   0  0  0  0  0  0  0  0  0  0  0  0
    4.2244   -4.5969    1.5392 H   0  0  0  0  0  0  0  0  0  0  0  0
    3.3797   -3.2557    0.7382 H   0  0  0  0  0  0  0  0  0  0  0  0
    4.5632   -5.3616   -0.9893 H   0  0  0  0  0  0  0  0  0  0  0  0
    8.9623   -0.7760   -2.8535 H   0  0  0  0  0  0  0  0  0  0  0  0
   10.6408   -0.9488   -4.6656 H   0  0  0  0  0  0  0  0  0  0  0  0
   13.4012   -1.8870   -5.2297 H   0  0  0  0  0  0  0  0  0  0  0  0
   14.6429   -3.1058   -5.5390 H   0  0  0  0  0  0  0  0  0  0  0  0
   12.7660   -3.0153   -3.1021 H   0  0  0  0  0  0  0  0  0  0  0  0
   14.5198   -2.7480   -3.1012 H   0  0  0  0  0  0  0  0  0  0  0  0
   13.9093   -5.0927   -2.3382 H   0  0  0  0  0  0  0  0  0  0  0  0
   14.9298   -5.0973   -3.7820 H   0  0  0  0  0  0  0  0  0  0  0  0
   11.8736   -5.4664   -3.7245 H   0  0  0  0  0  0  0  0  0  0  0  0
   13.0761   -6.7126   -4.1087 H   0  0  0  0  0  0  0  0  0  0  0  0
   12.0100   -5.7056   -6.1998 H   0  0  0  0  0  0  0  0  0  0  0  0
   13.7660   -5.5127   -6.1507 H   0  0  0  0  0  0  0  0  0  0  0  0
    9.2221   -4.9020   -5.6267 H   0  0  0  0  0  0  0  0  0  0  0  0
    7.5242   -4.7298   -3.7897 H   0  0  0  0  0  0  0  0  0  0  0  0
    7.4174   -0.6710   -1.2149 H   0  0  0  0  0  0  0  0  0  0  0  0
  1  2  2  0
  1 25  1  0
  1 26  1  0
  2  3  1  0
  2 27  1  0
  3  4  1  0
  3 28  1  0
  3 29  1  0
  4  5  1  0
  4 30  1  0
  5  6  2  0
  5 24  1  0
  6  7  1  0
  7  8  1  0
  7 23  2  0
  8  9  2  0
  8 22  1  0
  9 10  1  0
  9 31  1  0
 10 11  2  0
 10 32  1  0
 12 11  1  1
 11 21  1  0
 12 13  2  0
 12 14  2  0
 12 15  1  0
 15 16  1  0
 15 20  1  0
 16 17  1  0
 16 33  1  0
 16 34  1  0
 17 18  1  0
 17 35  1  0
 17 36  1  0
 18 19  1  0
 18 37  1  0
 18 38  1  0
 19 20  1  0
 19 39  1  0
 19 40  1  0
 20 41  1  0
 20 42  1  0
 21 22  2  0
 21 43  1  0
 22 44  1  0
 23 24  1  0
 23 45  1  0
M  END

