
     RDKit          3D

 43 42  0  0  0  0  0  0  0  0999 V2000
    1.0098   -2.5883    0.4597 C   0  0  0  0  0  0  0  0  0  0  0  0
    2.5282   -2.5416    0.6591 C   0  0  0  0  0  0  0  0  0  0  0  0
    3.0939   -1.1214    0.8962 C   0  0  1  0  0  0  0  0  0  0  0  0
    2.7287   -0.6352    2.3067 C   0  0  0  0  0  0  0  0  0  0  0  0
    4.6385   -0.9966    0.5863 C   0  0  1  0  0  0  0  0  0  0  0  0
    4.8631   -1.2527   -0.9291 C   0  0  0  0  0  0  0  0  0  0  0  0
    5.0797    0.4496    0.8717 C   0  0  0  0  0  0  0  0  0  0  0  0
    5.3246   -1.9794    1.4513 N   0  0  0  0  0  0  0  0  0  0  0  0
    6.7659   -2.0745    1.7628 C   0  0  1  0  0  0  0  0  0  0  0  0
    7.7075   -2.0064    0.5331 C   0  0  0  0  0  0  0  0  0  0  0  0
    7.2053   -0.9623    2.7429 C   0  0  0  0  0  0  0  0  0  0  0  0
    6.9794   -3.4644    2.4797 C   0  0  1  0  0  0  0  0  0  0  0  0
    6.2125   -3.6044    3.8036 C   0  0  0  0  0  0  0  0  0  0  0  0
    6.6968   -4.6894    1.5924 C   0  0  0  0  0  0  0  0  0  0  0  0
    0.6628   -3.6215    0.2968 H   0  0  0  0  0  0  0  0  0  0  0  0
    0.7050   -1.9940   -0.4181 H   0  0  0  0  0  0  0  0  0  0  0  0
    0.4619   -2.1943    1.3303 H   0  0  0  0  0  0  0  0  0  0  0  0
    2.9973   -2.9938   -0.2297 H   0  0  0  0  0  0  0  0  0  0  0  0
    2.8007   -3.1869    1.5132 H   0  0  0  0  0  0  0  0  0  0  0  0
    2.5974   -0.4547    0.1661 H   0  0  0  0  0  0  0  0  0  0  0  0
    3.3501   -1.1501    3.0554 H   0  0  0  0  0  0  0  0  0  0  0  0
    1.6723   -0.8420    2.5367 H   0  0  0  0  0  0  0  0  0  0  0  0
    2.8734    0.4482    2.4286 H   0  0  0  0  0  0  0  0  0  0  0  0
    4.1852   -0.6311   -1.5375 H   0  0  0  0  0  0  0  0  0  0  0  0
    4.6858   -2.3042   -1.2016 H   0  0  0  0  0  0  0  0  0  0  0  0
    5.8907   -1.0072   -1.2289 H   0  0  0  0  0  0  0  0  0  0  0  0
    4.4187    1.1472    0.3329 H   0  0  0  0  0  0  0  0  0  0  0  0
    6.1036    0.6372    0.5179 H   0  0  0  0  0  0  0  0  0  0  0  0
    5.0380    0.6972    1.9394 H   0  0  0  0  0  0  0  0  0  0  0  0
    5.0002   -2.9007    1.1751 H   0  0  0  0  0  0  0  0  0  0  0  0
    7.7039   -1.0019    0.0852 H   0  0  0  0  0  0  0  0  0  0  0  0
    7.4230   -2.7211   -0.2519 H   0  0  0  0  0  0  0  0  0  0  0  0
    8.7472   -2.2248    0.8296 H   0  0  0  0  0  0  0  0  0  0  0  0
    7.3271    0.0050    2.2387 H   0  0  0  0  0  0  0  0  0  0  0  0
    8.1796   -1.2155    3.1919 H   0  0  0  0  0  0  0  0  0  0  0  0
    6.4738   -0.8304    3.5514 H   0  0  0  0  0  0  0  0  0  0  0  0
    8.0579   -3.4919    2.7181 H   0  0  0  0  0  0  0  0  0  0  0  0
    5.1255   -3.5424    3.6426 H   0  0  0  0  0  0  0  0  0  0  0  0
    6.4852   -2.8262    4.5305 H   0  0  0  0  0  0  0  0  0  0  0  0
    6.4319   -4.5791    4.2691 H   0  0  0  0  0  0  0  0  0  0  0  0
    5.6267   -4.7904    1.3412 H   0  0  0  0  0  0  0  0  0  0  0  0
    6.9755   -5.6110    2.1279 H   0  0  0  0  0  0  0  0  0  0  0  0
    7.2637   -4.6755    0.6504 H   0  0  0  0  0  0  0  0  0  0  0  0
  1  2  1  0
  1 15  1  0
  1 16  1  0
  1 17  1  0
  2  3  1  0
  2 18  1  0
  2 19  1  0
  3  4  1  0
  3  5  1  0
  3 20  1  6
  4 21  1  0
  4 22  1  0
  4 23  1  0
  5  6  1  0
  5  7  1  0
  5  8  1  1
  6 24  1  0
  6 25  1  0
  6 26  1  0
  7 27  1  0
  7 28  1  0
  7 29  1  0
  9  8  1  6
  8 30  1  0
  9 10  1  0
  9 11  1  0
  9 12  1  0
 10 31  1  0
 10 32  1  0
 10 33  1  0
 11 34  1  0
 11 35  1  0
 11 36  1  0
 12 13  1  0
 12 14  1  0
 12 37  1  1
 13 38  1  0
 13 39  1  0
 13 40  1  0
 14 41  1  0
 14 42  1  0
 14 43  1  0
M  END

