
     RDKit          3D

 48 50  0  0  0  0  0  0  0  0999 V2000
    1.3185    1.5397   -0.7036 C   0  0  0  0  0  0  0  0  0  0  0  0
    2.7259    1.0611   -0.4396 C   0  0  0  0  0  0  0  0  0  0  0  0
    2.9724   -0.1392    0.2482 C   0  0  0  0  0  0  0  0  0  0  0  0
    4.2739   -0.5763    0.4984 C   0  0  0  0  0  0  0  0  0  0  0  0
    5.3506    0.1872    0.0401 C   0  0  0  0  0  0  0  0  0  0  0  0
    7.0295   -0.3554    0.3808 S   0  0  1  0  0  0  0  0  0  0  0  0
    7.9243    0.7335   -0.0265 O   0  0  0  0  0  0  0  0  0  0  0  0
    7.0379   -0.8733    1.7529 O   0  0  0  0  0  0  0  0  0  0  0  0
    7.3371   -1.6715   -0.6202 N   0  0  0  0  0  0  0  0  0  0  0  0
    7.2551   -3.0194   -0.0393 C   0  0  0  0  0  0  0  0  0  0  0  0
    8.1137   -4.0206   -0.7544 C   0  0  0  0  0  0  0  0  0  0  0  0
    9.0471   -3.6890   -1.6536 C   0  0  0  0  0  0  0  0  0  0  0  0
    9.2585   -2.2545   -2.0571 C   0  0  0  0  0  0  0  0  0  0  0  0
    7.9546   -1.4413   -1.9313 C   0  0  1  0  0  0  0  0  0  0  0  0
    8.2155   -0.3748   -1.9605 H   0  0  0  0  0  0  0  0  0  0  0  0
    6.9959   -1.7058   -3.0957 C   0  0  0  0  0  0  0  0  0  0  0  0
    5.9133   -0.8073   -3.0076 O   0  0  0  0  0  0  0  0  0  0  0  0
    4.9001   -0.9961   -3.9703 C   0  0  0  0  0  0  0  0  0  0  0  0
    5.2876   -0.5733   -5.3786 C   0  0  0  0  0  0  0  0  0  0  0  0
    4.9292   -1.3450   -6.4926 C   0  0  0  0  0  0  0  0  0  0  0  0
    5.2506   -0.9253   -7.7885 C   0  0  0  0  0  0  0  0  0  0  0  0
    5.9477    0.2696   -7.9843 C   0  0  0  0  0  0  0  0  0  0  0  0
    6.3194    1.0423   -6.8779 C   0  0  0  0  0  0  0  0  0  0  0  0
    5.9898    0.6250   -5.5860 C   0  0  0  0  0  0  0  0  0  0  0  0
    5.1372    1.3900   -0.6345 C   0  0  0  0  0  0  0  0  0  0  0  0
    3.8302    1.8172   -0.8690 C   0  0  0  0  0  0  0  0  0  0  0  0
    0.5700    0.8545   -0.2787 H   0  0  0  0  0  0  0  0  0  0  0  0
    1.1218    1.6254   -1.7858 H   0  0  0  0  0  0  0  0  0  0  0  0
    1.1483    2.5387   -0.2681 H   0  0  0  0  0  0  0  0  0  0  0  0
    2.1289   -0.7350    0.6089 H   0  0  0  0  0  0  0  0  0  0  0  0
    4.4495   -1.4909    1.0692 H   0  0  0  0  0  0  0  0  0  0  0  0
    6.2082   -3.3840   -0.0138 H   0  0  0  0  0  0  0  0  0  0  0  0
    7.5749   -2.9639    1.0145 H   0  0  0  0  0  0  0  0  0  0  0  0
    7.9484   -5.0658   -0.4722 H   0  0  0  0  0  0  0  0  0  0  0  0
    9.6588   -4.4666   -2.1219 H   0  0  0  0  0  0  0  0  0  0  0  0
    9.6440   -2.1901   -3.0869 H   0  0  0  0  0  0  0  0  0  0  0  0
   10.0212   -1.7794   -1.4130 H   0  0  0  0  0  0  0  0  0  0  0  0
    7.5446   -1.5726   -4.0488 H   0  0  0  0  0  0  0  0  0  0  0  0
    6.6291   -2.7519   -3.0695 H   0  0  0  0  0  0  0  0  0  0  0  0
    4.0517   -0.3851   -3.6171 H   0  0  0  0  0  0  0  0  0  0  0  0
    4.5597   -2.0515   -3.9821 H   0  0  0  0  0  0  0  0  0  0  0  0
    4.3909   -2.2869   -6.3452 H   0  0  0  0  0  0  0  0  0  0  0  0
    4.9616   -1.5387   -8.6467 H   0  0  0  0  0  0  0  0  0  0  0  0
    6.2049    0.5969   -8.9954 H   0  0  0  0  0  0  0  0  0  0  0  0
    6.8678    1.9773   -7.0241 H   0  0  0  0  0  0  0  0  0  0  0  0
    6.2818    1.2251   -4.7203 H   0  0  0  0  0  0  0  0  0  0  0  0
    5.9947    1.9792   -0.9623 H   0  0  0  0  0  0  0  0  0  0  0  0
    3.6640    2.7631   -1.3935 H   0  0  0  0  0  0  0  0  0  0  0  0
  1  2  1  0
  1 27  1  0
  1 28  1  0
  1 29  1  0
  2  3  2  0
  2 26  1  0
  3  4  1  0
  3 30  1  0
  4  5  2  0
  4 31  1  0
  6  5  1  6
  5 25  1  0
  6  7  2  0
  6  8  2  0
  6  9  1  0
  9 10  1  0
  9 14  1  0
 10 11  1  0
 10 32  1  0
 10 33  1  0
 11 12  2  0
 11 34  1  0
 12 13  1  0
 12 35  1  0
 13 14  1  0
 13 36  1  0
 13 37  1  0
 14 15  1  1
 14 16  1  0
 16 17  1  0
 16 38  1  0
 16 39  1  0
 17 18  1  0
 18 19  1  0
 18 40  1  0
 18 41  1  0
 19 20  2  0
 19 24  1  0
 20 21  1  0
 20 42  1  0
 21 22  2  0
 21 43  1  0
 22 23  1  0
 22 44  1  0
 23 24  2  0
 23 45  1  0
 24 46  1  0
 25 26  2  0
 25 47  1  0
 26 48  1  0
M  END

