
     RDKit          3D

 40 41  0  0  0  0  0  0  0  0999 V2000
    1.7896    1.2203   -0.7619 C   0  0  0  0  0  0  0  0  0  0  0  0
    1.9797   -0.0425   -0.1617 O   0  0  0  0  0  0  0  0  0  0  0  0
    2.5874   -1.0289   -0.8675 C   0  0  0  0  0  0  0  0  0  0  0  0
    3.0803   -0.8855   -2.1696 C   0  0  0  0  0  0  0  0  0  0  0  0
    3.6633   -1.9735   -2.8328 C   0  0  0  0  0  0  0  0  0  0  0  0
    3.7602   -3.2256   -2.2181 C   0  0  0  0  0  0  0  0  0  0  0  0
    4.4322   -4.4032   -2.9353 C   0  0  1  0  0  0  0  0  0  0  0  0
    5.8200   -4.5166   -2.4738 N   0  0  0  0  0  0  0  0  0  0  0  0
    6.1761   -5.5197   -1.7840 C   0  0  0  0  0  0  0  0  0  0  0  0
    7.8216   -5.6879   -1.1155 S   0  0  0  0  0  0  0  0  0  0  0  0
    8.5443   -4.1170   -1.6693 C   0  0  0  0  0  0  0  0  0  0  0  0
    5.3617   -6.6048   -1.4827 N   0  0  0  0  0  0  0  0  0  0  0  0
    4.1254   -6.7488   -2.0975 C   0  0  0  0  0  0  0  0  0  0  0  0
    3.4773   -8.0888   -1.8894 C   0  0  0  0  0  0  0  0  0  0  0  0
    3.6354   -5.7087   -2.8303 C   0  0  0  0  0  0  0  0  0  0  0  0
    2.3581   -5.8476   -3.5771 C   0  0  0  0  0  0  0  0  0  0  0  0
    1.8174   -6.8985   -3.8386 O   0  0  0  0  0  0  0  0  0  0  0  0
    1.7935   -4.6908   -4.0022 O   0  0  0  0  0  0  0  0  0  0  0  0
    3.2722   -3.3599   -0.9067 C   0  0  0  0  0  0  0  0  0  0  0  0
    2.6976   -2.2911   -0.2236 C   0  0  0  0  0  0  0  0  0  0  0  0
    2.1898   -2.5110    1.0221 O   0  0  0  0  0  0  0  0  0  0  0  0
    2.7498   -1.7891    2.1098 C   0  0  0  0  0  0  0  0  0  0  0  0
    1.2670    1.8417   -0.0226 H   0  0  0  0  0  0  0  0  0  0  0  0
    1.1696    1.1494   -1.6732 H   0  0  0  0  0  0  0  0  0  0  0  0
    2.7498    1.7019   -1.0205 H   0  0  0  0  0  0  0  0  0  0  0  0
    3.0057    0.0727   -2.6839 H   0  0  0  0  0  0  0  0  0  0  0  0
    4.0488   -1.8352   -3.8470 H   0  0  0  0  0  0  0  0  0  0  0  0
    4.4855   -4.1153   -4.0014 H   0  0  0  0  0  0  0  0  0  0  0  0
    9.5668   -4.0977   -1.2675 H   0  0  0  0  0  0  0  0  0  0  0  0
    7.9604   -3.2733   -1.2796 H   0  0  0  0  0  0  0  0  0  0  0  0
    8.5619   -4.0704   -2.7656 H   0  0  0  0  0  0  0  0  0  0  0  0
    5.7477   -7.3884   -0.9701 H   0  0  0  0  0  0  0  0  0  0  0  0
    3.8471   -8.5524   -0.9604 H   0  0  0  0  0  0  0  0  0  0  0  0
    3.7092   -8.7608   -2.7317 H   0  0  0  0  0  0  0  0  0  0  0  0
    2.3856   -8.0082   -1.8550 H   0  0  0  0  0  0  0  0  0  0  0  0
    2.1972   -3.9198   -3.5694 H   0  0  0  0  0  0  0  0  0  0  0  0
    3.3196   -4.3190   -0.3865 H   0  0  0  0  0  0  0  0  0  0  0  0
    2.2802   -2.1843    3.0215 H   0  0  0  0  0  0  0  0  0  0  0  0
    2.5472   -0.7097    2.0360 H   0  0  0  0  0  0  0  0  0  0  0  0
    3.8416   -1.9500    2.1737 H   0  0  0  0  0  0  0  0  0  0  0  0
  1  2  1  0
  1 23  1  0
  1 24  1  0
  1 25  1  0
  2  3  1  0
  3  4  2  0
  3 20  1  0
  4  5  1  0
  4 26  1  0
  5  6  2  0
  5 27  1  0
  6  7  1  0
  6 19  1  0
  7  8  1  0
  7 15  1  0
  7 28  1  6
  8  9  2  0
  9 10  1  0
  9 12  1  0
 10 11  1  0
 11 29  1  0
 11 30  1  0
 11 31  1  0
 12 13  1  0
 12 32  1  0
 13 14  1  0
 13 15  2  0
 14 33  1  0
 14 34  1  0
 14 35  1  0
 15 16  1  0
 16 17  2  0
 16 18  1  0
 18 36  1  0
 19 20  2  0
 19 37  1  0
 20 21  1  0
 21 22  1  0
 22 38  1  0
 22 39  1  0
 22 40  1  0
M  END

