
     RDKit          3D

 41 43  0  0  0  0  0  0  0  0999 V2000
    3.7368   -1.0065    1.7308 N   0  0  0  0  0  0  0  0  0  0  0  0
    2.9046   -1.9329    1.1806 C   0  0  0  0  0  0  0  0  0  0  0  0
    1.9040   -2.3216    1.7911 O   0  0  0  0  0  0  0  0  0  0  0  0
    3.2586   -2.4465   -0.1648 C   0  0  0  0  0  0  0  0  0  0  0  0
    4.3968   -2.1014   -0.9616 C   0  0  0  0  0  0  0  0  0  0  0  0
    4.4466   -2.7334   -2.1806 C   0  0  0  0  0  0  0  0  0  0  0  0
    5.4636   -2.6147   -3.2353 C   0  0  0  0  0  0  0  0  0  0  0  0
    6.7783   -2.2107   -2.9226 C   0  0  0  0  0  0  0  0  0  0  0  0
    7.7443   -2.0765   -3.9196 C   0  0  0  0  0  0  0  0  0  0  0  0
    7.4284   -2.3560   -5.2534 C   0  0  0  0  0  0  0  0  0  0  0  0
    6.1330   -2.7689   -5.5781 C   0  0  0  0  0  0  0  0  0  0  0  0
    5.1616   -2.8932   -4.5838 C   0  0  0  0  0  0  0  0  0  0  0  0
    3.0616   -3.8053   -2.3846 S   0  0  0  0  0  0  0  0  0  0  0  0
    2.4425   -3.3692   -0.8197 C   0  0  0  0  0  0  0  0  0  0  0  0
    1.2797   -3.8867   -0.2963 N   0  0  0  0  0  0  0  0  0  0  0  0
    0.4653   -4.7831   -0.9263 C   0  0  0  0  0  0  0  0  0  0  0  0
    0.6819   -5.2340   -2.0372 O   0  0  0  0  0  0  0  0  0  0  0  0
   -0.7705   -5.2015   -0.1368 C   0  0  0  0  0  0  0  0  0  0  0  0
   -0.7929   -4.5435    1.1051 O   0  0  0  0  0  0  0  0  0  0  0  0
   -1.8036   -4.7576    1.9923 C   0  0  0  0  0  0  0  0  0  0  0  0
   -2.8825   -5.6216    1.7651 C   0  0  0  0  0  0  0  0  0  0  0  0
   -3.8712   -5.7703    2.7455 C   0  0  0  0  0  0  0  0  0  0  0  0
   -3.7802   -5.0606    3.9419 C   0  0  0  0  0  0  0  0  0  0  0  0
   -5.0184   -5.2495    5.1653 Cl  0  0  0  0  0  0  0  0  0  0  0  0
   -2.7021   -4.1956    4.1719 C   0  0  0  0  0  0  0  0  0  0  0  0
   -1.7181   -4.0452    3.2002 C   0  0  0  0  0  0  0  0  0  0  0  0
    3.4864   -0.6317    2.6375 H   0  0  0  0  0  0  0  0  0  0  0  0
    4.5305   -0.6189    1.2426 H   0  0  0  0  0  0  0  0  0  0  0  0
    5.1592   -1.3833   -0.6561 H   0  0  0  0  0  0  0  0  0  0  0  0
    7.0513   -2.0215   -1.8820 H   0  0  0  0  0  0  0  0  0  0  0  0
    8.7567   -1.7639   -3.6508 H   0  0  0  0  0  0  0  0  0  0  0  0
    8.1879   -2.2567   -6.0327 H   0  0  0  0  0  0  0  0  0  0  0  0
    5.8719   -2.9895   -6.6163 H   0  0  0  0  0  0  0  0  0  0  0  0
    4.1481   -3.1954   -4.8596 H   0  0  0  0  0  0  0  0  0  0  0  0
    1.0605   -3.5312    0.6469 H   0  0  0  0  0  0  0  0  0  0  0  0
   -0.7377   -6.3011   -0.0226 H   0  0  0  0  0  0  0  0  0  0  0  0
   -1.6573   -4.9581   -0.7511 H   0  0  0  0  0  0  0  0  0  0  0  0
   -2.9703   -6.1847    0.8355 H   0  0  0  0  0  0  0  0  0  0  0  0
   -4.7145   -6.4417    2.5752 H   0  0  0  0  0  0  0  0  0  0  0  0
   -2.6400   -3.6446    5.1118 H   0  0  0  0  0  0  0  0  0  0  0  0
   -0.8667   -3.3781    3.3520 H   0  0  0  0  0  0  0  0  0  0  0  0
  1  2  1  0
  1 27  1  0
  1 28  1  0
  2  3  2  0
  2  4  1  0
  4  5  1  0
  4 14  2  0
  5  6  2  0
  5 29  1  0
  6  7  1  0
  6 13  1  0
  7  8  2  0
  7 12  1  0
  8  9  1  0
  8 30  1  0
  9 10  2  0
  9 31  1  0
 10 11  1  0
 10 32  1  0
 11 12  2  0
 11 33  1  0
 12 34  1  0
 13 14  1  0
 14 15  1  0
 15 16  1  0
 15 35  1  0
 16 17  2  0
 16 18  1  0
 18 19  1  0
 18 36  1  0
 18 37  1  0
 19 20  1  0
 20 21  2  0
 20 26  1  0
 21 22  1  0
 21 38  1  0
 22 23  2  0
 22 39  1  0
 23 24  1  0
 23 25  1  0
 25 26  2  0
 25 40  1  0
 26 41  1  0
M  END

