
     RDKit          3D

 32 32  0  0  0  0  0  0  0  0999 V2000
    5.5789   -1.1760   -0.5687 C   0  0  0  0  0  0  0  0  0  0  0  0
    4.6174   -0.0965   -1.0334 C   0  0  0  0  0  0  0  0  0  0  0  0
    4.9777    1.1880   -0.4767 O   0  0  0  0  0  0  0  0  0  0  0  0
    4.4949    1.5080    0.7256 C   0  0  0  0  0  0  0  0  0  0  0  0
    3.6958    0.8689    1.3591 O   0  0  0  0  0  0  0  0  0  0  0  0
    5.0953    2.8193    1.2078 C   0  0  0  0  0  0  0  0  0  0  0  0
    6.9232    2.6632    1.3328 S   0  0  1  0  0  0  0  0  0  0  0  0
    7.2074    1.3348    1.9043 O   0  0  0  0  0  0  0  0  0  0  0  0
    7.5325    3.0838    0.0705 O   0  0  0  0  0  0  0  0  0  0  0  0
    7.3316    3.9097    2.6180 C   0  0  0  0  0  0  0  0  0  0  0  0
    8.8239    4.0991    2.7138 C   0  0  0  0  0  0  0  0  0  0  0  0
    9.6724    3.0388    3.0700 C   0  0  0  0  0  0  0  0  0  0  0  0
   11.0426    3.2798    3.1325 C   0  0  0  0  0  0  0  0  0  0  0  0
   11.5272    4.5640    2.8503 C   0  0  0  0  0  0  0  0  0  0  0  0
   12.9778    4.9520    2.9161 C   0  0  0  0  0  0  0  0  0  0  0  0
   13.3438    6.0872    3.0604 O   0  0  0  0  0  0  0  0  0  0  0  0
   13.8755    3.9474    2.8035 O   0  0  0  0  0  0  0  0  0  0  0  0
   10.5864    5.5571    2.5291 C   0  0  0  0  0  0  0  0  0  0  0  0
    9.2781    5.3303    2.4497 N   0  0  0  0  0  0  0  0  0  0  0  0
    5.3406   -2.1275   -1.0703 H   0  0  0  0  0  0  0  0  0  0  0  0
    5.5030   -1.3292    0.5178 H   0  0  0  0  0  0  0  0  0  0  0  0
    6.6173   -0.9026   -0.8085 H   0  0  0  0  0  0  0  0  0  0  0  0
    3.5809   -0.3269   -0.7474 H   0  0  0  0  0  0  0  0  0  0  0  0
    4.6689    0.0512   -2.1213 H   0  0  0  0  0  0  0  0  0  0  0  0
    4.6990    3.0460    2.2051 H   0  0  0  0  0  0  0  0  0  0  0  0
    4.9062    3.6400    0.5018 H   0  0  0  0  0  0  0  0  0  0  0  0
    6.8894    3.5269    3.5500 H   0  0  0  0  0  0  0  0  0  0  0  0
    6.8649    4.8582    2.3219 H   0  0  0  0  0  0  0  0  0  0  0  0
    9.2604    2.0496    3.2755 H   0  0  0  0  0  0  0  0  0  0  0  0
   11.7154    2.4689    3.4276 H   0  0  0  0  0  0  0  0  0  0  0  0
   13.4423    3.1232    2.5413 H   0  0  0  0  0  0  0  0  0  0  0  0
   10.9372    6.5740    2.3263 H   0  0  0  0  0  0  0  0  0  0  0  0
  1  2  1  0
  1 20  1  0
  1 21  1  0
  1 22  1  0
  2  3  1  0
  2 23  1  0
  2 24  1  0
  3  4  1  0
  4  5  2  0
  4  6  1  0
  7  6  1  6
  6 25  1  0
  6 26  1  0
  7  8  2  0
  7  9  2  0
  7 10  1  0
 10 11  1  0
 10 27  1  0
 10 28  1  0
 11 12  2  0
 11 19  1  0
 12 13  1  0
 12 29  1  0
 13 14  2  0
 13 30  1  0
 14 15  1  0
 14 18  1  0
 15 16  2  0
 15 17  1  0
 17 31  1  0
 18 19  2  0
 18 32  1  0
M  END

