
     RDKit          3D

 35 34  0  0  0  0  0  0  0  0999 V2000
    2.3296   -2.5653   -0.1709 C   0  0  0  0  0  0  0  0  0  0  0  0
    2.2586   -1.0415   -0.0254 C   0  0  1  0  0  0  0  0  0  0  0  0
    0.8171   -0.5603    0.1815 C   0  0  0  0  0  0  0  0  0  0  0  0
    3.1384   -0.5207    1.1283 C   0  0  0  0  0  0  0  0  0  0  0  0
    4.5629   -0.8407    1.0232 N   0  0  0  0  0  0  0  0  0  0  0  0
    5.3757   -0.0854    0.0840 C   0  0  0  0  0  0  0  0  0  0  0  0
    5.9978    1.2249    0.5961 C   0  0  0  0  0  0  0  0  0  0  0  0
    5.8224    1.4958    1.9175 N   0  0  0  0  0  0  0  0  0  0  0  0
    6.5985    1.9541   -0.1695 O   0  0  0  0  0  0  0  0  0  0  0  0
    5.0662   -1.8731    1.7819 C   0  0  0  0  0  0  0  0  0  0  0  0
    4.4126   -2.5370    2.5623 O   0  0  0  0  0  0  0  0  0  0  0  0
    6.3908   -2.0433    1.5687 O   0  0  0  0  0  0  0  0  0  0  0  0
    7.0551   -3.1087    2.2929 C   0  0  1  0  0  0  0  0  0  0  0  0
    6.8724   -4.4281    1.5527 C   0  0  0  0  0  0  0  0  0  0  0  0
    8.5079   -2.6826    2.4370 C   0  0  0  0  0  0  0  0  0  0  0  0
    1.6896   -2.9090   -0.9994 H   0  0  0  0  0  0  0  0  0  0  0  0
    1.9974   -3.0683    0.7516 H   0  0  0  0  0  0  0  0  0  0  0  0
    3.3552   -2.9056   -0.3816 H   0  0  0  0  0  0  0  0  0  0  0  0
    2.6278   -0.5907   -0.9662 H   0  0  0  0  0  0  0  0  0  0  0  0
    0.3892   -0.9818    1.1072 H   0  0  0  0  0  0  0  0  0  0  0  0
    0.1713   -0.8715   -0.6546 H   0  0  0  0  0  0  0  0  0  0  0  0
    0.7605    0.5382    0.2568 H   0  0  0  0  0  0  0  0  0  0  0  0
    2.7808   -0.9433    2.0781 H   0  0  0  0  0  0  0  0  0  0  0  0
    3.0397    0.5770    1.1933 H   0  0  0  0  0  0  0  0  0  0  0  0
    4.7723    0.1866   -0.7954 H   0  0  0  0  0  0  0  0  0  0  0  0
    6.2055   -0.7022   -0.2829 H   0  0  0  0  0  0  0  0  0  0  0  0
    5.3637    0.8424    2.5376 H   0  0  0  0  0  0  0  0  0  0  0  0
    6.2508    2.3313    2.2979 H   0  0  0  0  0  0  0  0  0  0  0  0
    6.5746   -3.1809    3.2807 H   0  0  0  0  0  0  0  0  0  0  0  0
    7.2946   -4.3681    0.5365 H   0  0  0  0  0  0  0  0  0  0  0  0
    5.8057   -4.6857    1.4836 H   0  0  0  0  0  0  0  0  0  0  0  0
    7.3846   -5.2407    2.0918 H   0  0  0  0  0  0  0  0  0  0  0  0
    8.9875   -2.5802    1.4505 H   0  0  0  0  0  0  0  0  0  0  0  0
    9.0680   -3.4323    3.0168 H   0  0  0  0  0  0  0  0  0  0  0  0
    8.5813   -1.7156    2.9570 H   0  0  0  0  0  0  0  0  0  0  0  0
  1  2  1  0
  1 16  1  0
  1 17  1  0
  1 18  1  0
  2  3  1  0
  2  4  1  0
  2 19  1  6
  3 20  1  0
  3 21  1  0
  3 22  1  0
  4  5  1  0
  4 23  1  0
  4 24  1  0
  5  6  1  0
  5 10  1  0
  6  7  1  0
  6 25  1  0
  6 26  1  0
  7  8  1  0
  7  9  2  0
  8 27  1  0
  8 28  1  0
 10 11  2  0
 10 12  1  0
 12 13  1  0
 13 14  1  0
 13 15  1  0
 13 29  1  1
 14 30  1  0
 14 31  1  0
 14 32  1  0
 15 33  1  0
 15 34  1  0
 15 35  1  0
M  END

