
     RDKit          3D

 31 32  0  0  0  0  0  0  0  0999 V2000
    5.8271   -1.2489   -0.6119 C   0  0  0  0  0  0  0  0  0  0  0  0
    4.7042   -0.6242    0.1582 C   0  0  0  0  0  0  0  0  0  0  0  0
    4.8577    0.6737    0.5792 N   0  0  0  0  0  0  0  0  0  0  0  0
    3.8191    1.1036    1.2383 C   0  0  0  0  0  0  0  0  0  0  0  0
    3.7385    2.3373    1.8090 N   0  0  0  0  0  0  0  0  0  0  0  0
    2.5220   -0.0734    1.4169 S   0  0  0  0  0  0  0  0  0  0  0  0
    3.5000   -1.2226    0.4874 C   0  0  0  0  0  0  0  0  0  0  0  0
    3.0240   -2.5870    0.1558 C   0  0  0  0  0  0  0  0  0  0  0  0
    3.7659   -3.4611   -0.2779 O   0  0  0  0  0  0  0  0  0  0  0  0
    1.6843   -2.8276    0.3770 N   0  0  0  0  0  0  0  0  0  0  0  0
    1.0423   -4.0909    0.0178 C   0  0  1  0  0  0  0  0  0  0  0  0
    1.4500   -5.1839    1.0177 C   0  0  0  0  0  0  0  0  0  0  0  0
    1.0584   -4.8690    2.3351 O   0  0  0  0  0  0  0  0  0  0  0  0
   -0.4979   -3.9907   -0.1403 C   0  0  0  0  0  0  0  0  0  0  0  0
   -0.3956   -4.8435   -1.4318 C   0  0  0  0  0  0  0  0  0  0  0  0
    1.1310   -4.5716   -1.4600 C   0  0  0  0  0  0  0  0  0  0  0  0
    6.0893   -0.6072   -1.4686 H   0  0  0  0  0  0  0  0  0  0  0  0
    5.5680   -2.2569   -0.9506 H   0  0  0  0  0  0  0  0  0  0  0  0
    6.7234   -1.3049    0.0285 H   0  0  0  0  0  0  0  0  0  0  0  0
    4.4642    2.9938    1.5434 H   0  0  0  0  0  0  0  0  0  0  0  0
    2.8357    2.7234    2.0510 H   0  0  0  0  0  0  0  0  0  0  0  0
    1.0701   -2.0310    0.5044 H   0  0  0  0  0  0  0  0  0  0  0  0
    2.5395   -5.3488    0.9303 H   0  0  0  0  0  0  0  0  0  0  0  0
    0.9457   -6.1266    0.7522 H   0  0  0  0  0  0  0  0  0  0  0  0
    1.4745   -4.0229    2.5527 H   0  0  0  0  0  0  0  0  0  0  0  0
   -0.8230   -2.9598   -0.3570 H   0  0  0  0  0  0  0  0  0  0  0  0
   -1.0880   -4.3766    0.7042 H   0  0  0  0  0  0  0  0  0  0  0  0
   -0.9779   -4.4950   -2.2975 H   0  0  0  0  0  0  0  0  0  0  0  0
   -0.6398   -5.9027   -1.2603 H   0  0  0  0  0  0  0  0  0  0  0  0
    1.3998   -3.7473   -2.1358 H   0  0  0  0  0  0  0  0  0  0  0  0
    1.8079   -5.4158   -1.6583 H   0  0  0  0  0  0  0  0  0  0  0  0
  1  2  1  0
  1 17  1  0
  1 18  1  0
  1 19  1  0
  2  3  2  0
  2  7  1  0
  3  4  1  0
  4  5  1  0
  4  6  2  0
  5 20  1  0
  5 21  1  0
  6  7  1  0
  7  8  2  0
  8  9  1  0
  8 10  1  0
 11 10  1  6
 10 22  1  0
 11 12  1  0
 11 14  1  0
 11 16  1  0
 12 13  1  0
 12 23  1  0
 12 24  1  0
 13 25  1  0
 14 15  1  0
 14 26  1  0
 14 27  1  0
 15 16  1  0
 15 28  1  0
 15 29  1  0
 16 30  1  0
 16 31  1  0
M  CHG  2   6   1   9  -1
M  END

