
     RDKit          3D

 50 51  0  0  0  0  0  0  0  0999 V2000
    7.1858    0.1726    3.7340 C   0  0  0  0  0  0  0  0  0  0  0  0
    5.9370    0.9419    4.1677 C   0  0  0  0  0  0  0  0  0  0  0  0
    4.9990    1.3267    3.0095 C   0  0  1  0  0  0  0  0  0  0  0  0
    3.7055    2.0260    3.4699 C   0  0  0  0  0  0  0  0  0  0  0  0
    2.7758    1.1661    4.3285 C   0  0  0  0  0  0  0  0  0  0  0  0
    5.6993    2.1602    2.0367 N   0  0  0  0  0  0  0  0  0  0  0  0
    5.9247    1.7874    0.7503 C   0  0  0  0  0  0  0  0  0  0  0  0
    5.5237    0.7561    0.2395 O   0  0  0  0  0  0  0  0  0  0  0  0
    6.7319    2.7761   -0.0978 C   0  0  0  0  0  0  0  0  0  0  0  0
    7.2533    3.8967    0.6191 O   0  0  0  0  0  0  0  0  0  0  0  0
    8.5053    3.7738    1.1491 C   0  0  0  0  0  0  0  0  0  0  0  0
    9.1405    2.7435    1.0759 O   0  0  0  0  0  0  0  0  0  0  0  0
    8.9437    5.0097    1.8010 C   0  0  0  0  0  0  0  0  0  0  0  0
    8.2891    6.2834    1.8962 C   0  0  0  0  0  0  0  0  0  0  0  0
    6.9730    6.7299    1.3399 C   0  0  0  0  0  0  0  0  0  0  0  0
    9.0350    7.1302    2.5822 N   0  0  0  0  0  0  0  0  0  0  0  0
   10.1635    6.4527    2.9314 N   0  0  0  0  0  0  0  0  0  0  0  0
   11.1430    7.1331    3.7122 C   0  0  0  0  0  0  0  0  0  0  0  0
   10.7134    7.9820    4.7424 C   0  0  0  0  0  0  0  0  0  0  0  0
   11.6544    8.6674    5.5106 C   0  0  0  0  0  0  0  0  0  0  0  0
   13.0225    8.5102    5.2627 C   0  0  0  0  0  0  0  0  0  0  0  0
   13.4449    7.6723    4.2277 C   0  0  0  0  0  0  0  0  0  0  0  0
   12.5104    6.9894    3.4441 C   0  0  0  0  0  0  0  0  0  0  0  0
   10.1536    5.1614    2.4924 C   0  0  0  0  0  0  0  0  0  0  0  0
   11.2219    4.1563    2.7759 C   0  0  0  0  0  0  0  0  0  0  0  0
    7.8100   -0.0882    4.6034 H   0  0  0  0  0  0  0  0  0  0  0  0
    7.8051    0.7619    3.0400 H   0  0  0  0  0  0  0  0  0  0  0  0
    6.9170   -0.7646    3.2200 H   0  0  0  0  0  0  0  0  0  0  0  0
    6.2288    1.8629    4.7085 H   0  0  0  0  0  0  0  0  0  0  0  0
    5.3665    0.3374    4.8918 H   0  0  0  0  0  0  0  0  0  0  0  0
    4.7254    0.4154    2.4535 H   0  0  0  0  0  0  0  0  0  0  0  0
    3.1662    2.3506    2.5644 H   0  0  0  0  0  0  0  0  0  0  0  0
    3.9706    2.9505    4.0174 H   0  0  0  0  0  0  0  0  0  0  0  0
    2.5189    0.2242    3.8156 H   0  0  0  0  0  0  0  0  0  0  0  0
    1.8336    1.6973    4.5363 H   0  0  0  0  0  0  0  0  0  0  0  0
    3.2235    0.9050    5.3002 H   0  0  0  0  0  0  0  0  0  0  0  0
    6.0592    3.0595    2.3371 H   0  0  0  0  0  0  0  0  0  0  0  0
    6.0683    3.1844   -0.8736 H   0  0  0  0  0  0  0  0  0  0  0  0
    7.5420    2.2077   -0.5739 H   0  0  0  0  0  0  0  0  0  0  0  0
    6.9384    6.6031    0.2472 H   0  0  0  0  0  0  0  0  0  0  0  0
    6.8180    7.7893    1.5857 H   0  0  0  0  0  0  0  0  0  0  0  0
    6.1391    6.1405    1.7512 H   0  0  0  0  0  0  0  0  0  0  0  0
    9.6438    8.0999    4.9174 H   0  0  0  0  0  0  0  0  0  0  0  0
   11.3153    9.3277    6.3127 H   0  0  0  0  0  0  0  0  0  0  0  0
   13.7563    9.0460    5.8694 H   0  0  0  0  0  0  0  0  0  0  0  0
   14.5103    7.5574    4.0137 H   0  0  0  0  0  0  0  0  0  0  0  0
   12.8455    6.3688    2.6130 H   0  0  0  0  0  0  0  0  0  0  0  0
   11.6844    4.3265    3.7588 H   0  0  0  0  0  0  0  0  0  0  0  0
   12.0210    4.1908    2.0162 H   0  0  0  0  0  0  0  0  0  0  0  0
   10.7918    3.1489    2.7310 H   0  0  0  0  0  0  0  0  0  0  0  0
  1  2  1  0
  1 26  1  0
  1 27  1  0
  1 28  1  0
  2  3  1  0
  2 29  1  0
  2 30  1  0
  3  4  1  0
  3  6  1  0
  3 31  1  6
  4  5  1  0
  4 32  1  0
  4 33  1  0
  5 34  1  0
  5 35  1  0
  5 36  1  0
  6  7  1  0
  6 37  1  0
  7  8  2  0
  7  9  1  0
  9 10  1  0
  9 38  1  0
  9 39  1  0
 10 11  1  0
 11 12  2  0
 11 13  1  0
 13 14  1  0
 13 24  2  0
 14 15  1  0
 14 16  2  0
 15 40  1  0
 15 41  1  0
 15 42  1  0
 16 17  1  0
 17 18  1  0
 17 24  1  0
 18 19  2  0
 18 23  1  0
 19 20  1  0
 19 43  1  0
 20 21  2  0
 20 44  1  0
 21 22  1  0
 21 45  1  0
 22 23  2  0
 22 46  1  0
 23 47  1  0
 24 25  1  0
 25 48  1  0
 25 49  1  0
 25 50  1  0
M  END

