
     RDKit          3D

  6  5  0  0  0  0  0  0  0  0999 V2000
    1.1148   -0.0027    0.0538 C   0  0  0  0  0  0  0  0  0  0  0  0
    2.9410    0.0979    0.0737 S   0  0  0  0  0  0  0  0  0  0  0  0
    0.7331   -0.6715    0.8391 H   0  0  0  0  0  0  0  0  0  0  0  0
    0.7332   -0.3224   -0.9269 H   0  0  0  0  0  0  0  0  0  0  0  0
    0.7468    1.0137    0.2546 H   0  0  0  0  0  0  0  0  0  0  0  0
    3.1796   -1.2088   -0.1847 H   0  0  0  0  0  0  0  0  0  0  0  0
  1  2  1  0
  1  3  1  0
  1  4  1  0
  1  5  1  0
  2  6  1  0
M  END

