
     RDKit          3D

 81 84  0  0  0  0  0  0  0  0999 V2000
    5.4678    1.6465    2.5452 C   0  0  0  0  0  0  0  0  0  0  0  0
    5.3570    0.3444    2.2646 C   0  0  0  0  0  0  0  0  0  0  0  0
    6.1229   -0.2921    1.1445 C   0  0  0  0  0  0  0  0  0  0  0  0
    6.9648    0.3140    0.4887 O   0  0  0  0  0  0  0  0  0  0  0  0
    5.7711   -1.5965    0.9434 N   0  0  0  0  0  0  0  0  0  0  0  0
    6.1860   -2.5259   -0.0227 C   0  0  0  0  0  0  0  0  0  0  0  0
    7.2447   -2.3123   -0.9228 C   0  0  0  0  0  0  0  0  0  0  0  0
    7.5822   -3.2979   -1.8579 C   0  0  0  0  0  0  0  0  0  0  0  0
    8.5799   -3.1892   -2.8214 N   0  0  0  0  0  0  0  0  0  0  0  0
    9.5137   -2.2243   -3.1018 C   0  0  0  0  0  0  0  0  0  0  0  0
   10.2272   -2.4897   -4.2227 N   0  0  0  0  0  0  0  0  0  0  0  0
   11.0407   -1.5276   -4.6154 C   0  0  0  0  0  0  0  0  0  0  0  0
   11.2148   -0.3154   -3.9212 C   0  0  0  0  0  0  0  0  0  0  0  0
   11.9855    0.7400   -4.6269 C   0  0  0  0  0  0  0  0  0  0  0  0
   12.8504    0.5170   -5.4476 O   0  0  0  0  0  0  0  0  0  0  0  0
   11.5665    1.9816   -4.3251 O   0  0  0  0  0  0  0  0  0  0  0  0
   12.2596    3.0548   -4.9575 C   0  0  0  0  0  0  0  0  0  0  0  0
   10.5734   -0.2272   -2.6560 C   0  0  0  0  0  0  0  0  0  0  0  0
   10.8581    0.7978   -1.6507 C   0  0  0  0  0  0  0  0  0  0  0  0
    9.9366    1.2178   -0.7036 C   0  0  0  0  0  0  0  0  0  0  0  0
   10.5151    2.1510    0.1219 N   0  0  0  0  0  0  0  0  0  0  0  0
    9.9225    2.8228    1.1896 N   0  0  0  0  0  0  0  0  0  0  0  0
    8.8148    3.6731    0.7685 C   0  0  0  0  0  0  0  0  0  0  0  0
    9.6124    1.9320    2.3059 C   0  0  0  0  0  0  0  0  0  0  0  0
   11.8419    2.3335   -0.2407 C   0  0  0  0  0  0  0  0  0  0  0  0
   12.8154    3.1485    0.3470 C   0  0  0  0  0  0  0  0  0  0  0  0
   14.0989    3.1000   -0.1899 C   0  0  0  0  0  0  0  0  0  0  0  0
   14.3971    2.2480   -1.2747 C   0  0  0  0  0  0  0  0  0  0  0  0
   13.4181    1.4459   -1.8568 C   0  0  0  0  0  0  0  0  0  0  0  0
   12.1020    1.4904   -1.3550 C   0  0  0  0  0  0  0  0  0  0  0  0
    9.6853   -1.1769   -2.2990 N   0  0  0  0  0  0  0  0  0  0  0  0
    6.8537   -4.5213   -1.8754 C   0  0  0  0  0  0  0  0  0  0  0  0
    7.2531   -5.4210   -2.8216 O   0  0  0  0  0  0  0  0  0  0  0  0
    6.5818   -6.6545   -2.9355 C   0  0  0  0  0  0  0  0  0  0  0  0
    5.8107   -4.7258   -0.9773 C   0  0  0  0  0  0  0  0  0  0  0  0
    5.4621   -3.7371   -0.0444 C   0  0  0  0  0  0  0  0  0  0  0  0
    4.3741   -3.9051    0.8810 N   0  0  0  0  0  0  0  0  0  0  0  0
    3.0671   -3.6627    0.2696 C   0  0  0  0  0  0  0  0  0  0  0  0
    4.4301   -5.1183    1.7022 C   0  0  0  0  0  0  0  0  0  0  0  0
    3.7933   -4.9179    3.0849 C   0  0  0  0  0  0  0  0  0  0  0  0
    3.7437   -6.1418    3.8686 N   0  0  0  0  0  0  0  0  0  0  0  0
    5.0384   -6.5692    4.3665 C   0  0  0  0  0  0  0  0  0  0  0  0
    2.7506   -6.0955    4.9246 C   0  0  0  0  0  0  0  0  0  0  0  0
    4.8989    2.1074    3.3563 H   0  0  0  0  0  0  0  0  0  0  0  0
    6.1365    2.2802    1.9572 H   0  0  0  0  0  0  0  0  0  0  0  0
    4.6808   -0.2912    2.8470 H   0  0  0  0  0  0  0  0  0  0  0  0
    5.0470   -2.0035    1.5368 H   0  0  0  0  0  0  0  0  0  0  0  0
    7.8085   -1.3872   -0.8969 H   0  0  0  0  0  0  0  0  0  0  0  0
    8.6174   -3.9648   -3.4757 H   0  0  0  0  0  0  0  0  0  0  0  0
   11.5969   -1.6809   -5.5472 H   0  0  0  0  0  0  0  0  0  0  0  0
   11.7714    3.9756   -4.6152 H   0  0  0  0  0  0  0  0  0  0  0  0
   12.1980    2.9705   -6.0531 H   0  0  0  0  0  0  0  0  0  0  0  0
   13.3203    3.0597   -4.6643 H   0  0  0  0  0  0  0  0  0  0  0  0
    8.9007    0.9114   -0.5658 H   0  0  0  0  0  0  0  0  0  0  0  0
    9.1552    4.3452   -0.0327 H   0  0  0  0  0  0  0  0  0  0  0  0
    8.5017    4.2911    1.6243 H   0  0  0  0  0  0  0  0  0  0  0  0
    7.9366    3.1013    0.4080 H   0  0  0  0  0  0  0  0  0  0  0  0
   10.5203    1.3807    2.5909 H   0  0  0  0  0  0  0  0  0  0  0  0
    8.8067    1.2101    2.0729 H   0  0  0  0  0  0  0  0  0  0  0  0
    9.3003    2.5445    3.1659 H   0  0  0  0  0  0  0  0  0  0  0  0
   12.5604    3.7822    1.1977 H   0  0  0  0  0  0  0  0  0  0  0  0
   14.8889    3.7201    0.2415 H   0  0  0  0  0  0  0  0  0  0  0  0
   15.4183    2.2128   -1.6628 H   0  0  0  0  0  0  0  0  0  0  0  0
   13.6856    0.7833   -2.6818 H   0  0  0  0  0  0  0  0  0  0  0  0
    7.0682   -7.2034   -3.7528 H   0  0  0  0  0  0  0  0  0  0  0  0
    5.5132   -6.5173   -3.1810 H   0  0  0  0  0  0  0  0  0  0  0  0
    6.6607   -7.2492   -2.0077 H   0  0  0  0  0  0  0  0  0  0  0  0
    5.2451   -5.6571   -0.9927 H   0  0  0  0  0  0  0  0  0  0  0  0
    3.0664   -2.6864   -0.2372 H   0  0  0  0  0  0  0  0  0  0  0  0
    2.2784   -3.6435    1.0375 H   0  0  0  0  0  0  0  0  0  0  0  0
    2.7956   -4.4366   -0.4789 H   0  0  0  0  0  0  0  0  0  0  0  0
    5.4891   -5.3893    1.8173 H   0  0  0  0  0  0  0  0  0  0  0  0
    3.9283   -5.9800    1.2140 H   0  0  0  0  0  0  0  0  0  0  0  0
    2.7575   -4.5685    2.9497 H   0  0  0  0  0  0  0  0  0  0  0  0
    4.3329   -4.0960    3.6129 H   0  0  0  0  0  0  0  0  0  0  0  0
    5.7559   -6.7010    3.5432 H   0  0  0  0  0  0  0  0  0  0  0  0
    4.9426   -7.5418    4.8745 H   0  0  0  0  0  0  0  0  0  0  0  0
    5.4862   -5.8509    5.0930 H   0  0  0  0  0  0  0  0  0  0  0  0
    1.7577   -5.8658    4.5064 H   0  0  0  0  0  0  0  0  0  0  0  0
    2.9721   -5.3352    5.7101 H   0  0  0  0  0  0  0  0  0  0  0  0
    2.6853   -7.0756    5.4238 H   0  0  0  0  0  0  0  0  0  0  0  0
  1  2  2  0
  1 44  1  0
  1 45  1  0
  2  3  1  0
  2 46  1  0
  3  4  2  0
  3  5  1  0
  5  6  1  0
  5 47  1  0
  6  7  2  0
  6 36  1  0
  7  8  1  0
  7 48  1  0
  8  9  1  0
  8 32  2  0
  9 10  1  0
  9 49  1  0
 10 11  2  0
 10 31  1  0
 11 12  1  0
 12 13  2  0
 12 50  1  0
 13 14  1  0
 13 18  1  0
 14 15  2  0
 14 16  1  0
 16 17  1  0
 17 51  1  0
 17 52  1  0
 17 53  1  0
 18 19  1  0
 18 31  2  0
 19 20  2  0
 19 30  1  0
 20 21  1  0
 20 54  1  0
 21 22  1  0
 21 25  1  0
 22 23  1  0
 22 24  1  0
 23 55  1  0
 23 56  1  0
 23 57  1  0
 24 58  1  0
 24 59  1  0
 24 60  1  0
 25 26  1  0
 25 30  2  0
 26 27  2  0
 26 61  1  0
 27 28  1  0
 27 62  1  0
 28 29  2  0
 28 63  1  0
 29 30  1  0
 29 64  1  0
 32 33  1  0
 32 35  1  0
 33 34  1  0
 34 65  1  0
 34 66  1  0
 34 67  1  0
 35 36  2  0
 35 68  1  0
 36 37  1  0
 37 38  1  0
 37 39  1  0
 38 69  1  0
 38 70  1  0
 38 71  1  0
 39 40  1  0
 39 72  1  0
 39 73  1  0
 40 41  1  0
 40 74  1  0
 40 75  1  0
 41 42  1  0
 41 43  1  0
 42 76  1  0
 42 77  1  0
 42 78  1  0
 43 79  1  0
 43 80  1  0
 43 81  1  0
M  END

