
     RDKit          3D

 31 32  0  0  0  0  0  0  0  0999 V2000
    6.0698   -1.3645   -0.8708 N   0  0  0  0  0  0  0  0  0  0  0  0
    5.2722   -0.2553   -0.7425 C   0  0  0  0  0  0  0  0  0  0  0  0
    5.5052    0.6128    0.0782 O   0  0  0  0  0  0  0  0  0  0  0  0
    4.1239   -0.1399   -1.7228 C   0  0  0  0  0  0  0  0  0  0  0  0
    3.9944    1.1186   -2.3327 C   0  0  0  0  0  0  0  0  0  0  0  0
    2.9976    1.3693   -3.2745 C   0  0  0  0  0  0  0  0  0  0  0  0
    2.0977    0.3535   -3.6028 C   0  0  0  0  0  0  0  0  0  0  0  0
    2.1977   -0.8883   -2.9729 C   0  0  0  0  0  0  0  0  0  0  0  0
    3.1962   -1.1659   -2.0237 C   0  0  0  0  0  0  0  0  0  0  0  0
    3.1638   -2.5133   -1.3091 C   0  0  0  0  0  0  0  0  0  0  0  0
    2.6116   -2.4442    0.1070 C   0  0  0  0  0  0  0  0  0  0  0  0
    3.3788   -2.7980    1.1616 C   0  0  0  0  0  0  0  0  0  0  0  0
    2.9875   -2.8039    2.5795 C   0  0  0  0  0  0  0  0  0  0  0  0
    2.0491   -2.0368    3.1634 C   0  0  0  0  0  0  0  0  0  0  0  0
    1.2039   -1.1170    2.5178 N   0  0  0  0  0  0  0  0  0  0  0  0
    0.6172   -1.4003    1.2739 C   0  0  0  0  0  0  0  0  0  0  0  0
    1.2020   -2.0029    0.2235 C   0  0  0  0  0  0  0  0  0  0  0  0
    6.9098   -1.3898   -0.3027 H   0  0  0  0  0  0  0  0  0  0  0  0
    6.0414   -1.9346   -1.7060 H   0  0  0  0  0  0  0  0  0  0  0  0
    4.6998    1.9030   -2.0499 H   0  0  0  0  0  0  0  0  0  0  0  0
    2.9232    2.3521   -3.7467 H   0  0  0  0  0  0  0  0  0  0  0  0
    1.3101    0.5282   -4.3405 H   0  0  0  0  0  0  0  0  0  0  0  0
    1.4747   -1.6715   -3.2181 H   0  0  0  0  0  0  0  0  0  0  0  0
    4.1586   -2.9745   -1.2735 H   0  0  0  0  0  0  0  0  0  0  0  0
    2.5228   -3.1886   -1.9027 H   0  0  0  0  0  0  0  0  0  0  0  0
    4.4061   -3.1192    0.9582 H   0  0  0  0  0  0  0  0  0  0  0  0
    3.5509   -3.4674    3.2416 H   0  0  0  0  0  0  0  0  0  0  0  0
    1.8952   -2.1055    4.2463 H   0  0  0  0  0  0  0  0  0  0  0  0
    0.6098   -0.5910    3.1444 H   0  0  0  0  0  0  0  0  0  0  0  0
   -0.4307   -1.0882    1.1907 H   0  0  0  0  0  0  0  0  0  0  0  0
    0.5688   -2.1473   -0.6566 H   0  0  0  0  0  0  0  0  0  0  0  0
  1  2  1  0
  1 18  1  0
  1 19  1  0
  2  3  2  0
  2  4  1  0
  4  5  2  0
  4  9  1  0
  5  6  1  0
  5 20  1  0
  6  7  2  0
  6 21  1  0
  7  8  1  0
  7 22  1  0
  8  9  2  0
  8 23  1  0
  9 10  1  0
 10 11  1  0
 10 24  1  0
 10 25  1  0
 11 12  2  0
 11 17  1  0
 12 13  1  0
 12 26  1  0
 13 14  2  0
 13 27  1  0
 14 15  1  0
 14 28  1  0
 15 16  1  0
 15 29  1  0
 16 17  2  0
 16 30  1  0
 17 31  1  0
M  END

