
     RDKit          3D

 38 38  0  0  0  0  0  0  0  0999 V2000
    1.2034   -1.7532    6.3757 C   0  0  0  0  0  0  0  0  0  0  0  0
    2.5735   -1.5872    6.1336 O   0  0  0  0  0  0  0  0  0  0  0  0
    2.9590   -0.2515    5.9100 C   0  0  0  0  0  0  0  0  0  0  0  0
    4.4591   -0.1947    5.6681 C   0  0  0  0  0  0  0  0  0  0  0  0
    4.9036   -1.0195    4.4692 C   0  0  0  0  0  0  0  0  0  0  0  0
    6.2958   -0.8576    4.3004 O   0  0  0  0  0  0  0  0  0  0  0  0
    6.8424   -1.6157    3.2580 C   0  0  0  0  0  0  0  0  0  0  0  0
    8.3463   -1.4503    3.2613 C   0  0  0  0  0  0  0  0  0  0  0  0
    8.8719   -2.1724    4.3675 O   0  0  0  0  0  0  0  0  0  0  0  0
   10.1769   -2.1317    4.6515 C   0  0  0  0  0  0  0  0  0  0  0  0
   11.1186   -1.3704    3.9312 C   0  0  0  0  0  0  0  0  0  0  0  0
   12.4586   -1.3415    4.3099 C   0  0  0  0  0  0  0  0  0  0  0  0
   12.9237   -2.0509    5.4283 C   0  0  0  0  0  0  0  0  0  0  0  0
   14.3613   -2.0120    5.8295 C   0  0  0  0  0  0  0  0  0  0  0  0
   15.4582   -3.3925    4.8914 Br  0  0  0  0  0  0  0  0  0  0  0  0
   11.9950   -2.8067    6.1519 C   0  0  0  0  0  0  0  0  0  0  0  0
   10.6578   -2.8615    5.7671 C   0  0  0  0  0  0  0  0  0  0  0  0
    9.7656   -3.7174    6.5696 N   0  0  0  0  0  0  0  0  0  0  0  0
    8.8515   -4.2853    6.0008 O   0  0  0  0  0  0  0  0  0  0  0  0
   10.0291   -3.8253    7.7593 O   0  0  0  0  0  0  0  0  0  0  0  0
    1.0158   -2.8247    6.5384 H   0  0  0  0  0  0  0  0  0  0  0  0
    0.5842   -1.4127    5.5200 H   0  0  0  0  0  0  0  0  0  0  0  0
    0.8698   -1.1969    7.2759 H   0  0  0  0  0  0  0  0  0  0  0  0
    2.6938    0.3822    6.7824 H   0  0  0  0  0  0  0  0  0  0  0  0
    2.4098    0.1662    5.0370 H   0  0  0  0  0  0  0  0  0  0  0  0
    4.9915   -0.5550    6.5635 H   0  0  0  0  0  0  0  0  0  0  0  0
    4.7580    0.8557    5.5140 H   0  0  0  0  0  0  0  0  0  0  0  0
    4.3631   -0.6905    3.5544 H   0  0  0  0  0  0  0  0  0  0  0  0
    4.6490   -2.0843    4.6296 H   0  0  0  0  0  0  0  0  0  0  0  0
    6.4566   -1.2824    2.2701 H   0  0  0  0  0  0  0  0  0  0  0  0
    6.5947   -2.6910    3.3644 H   0  0  0  0  0  0  0  0  0  0  0  0
    8.5928   -0.3775    3.3469 H   0  0  0  0  0  0  0  0  0  0  0  0
    8.7722   -1.8407    2.3193 H   0  0  0  0  0  0  0  0  0  0  0  0
   10.7983   -0.7884    3.0680 H   0  0  0  0  0  0  0  0  0  0  0  0
   13.1610   -0.7471    3.7193 H   0  0  0  0  0  0  0  0  0  0  0  0
   14.5036   -2.2217    6.8956 H   0  0  0  0  0  0  0  0  0  0  0  0
   14.8417   -1.0608    5.5735 H   0  0  0  0  0  0  0  0  0  0  0  0
   12.2926   -3.3735    7.0351 H   0  0  0  0  0  0  0  0  0  0  0  0
  1  2  1  0
  1 21  1  0
  1 22  1  0
  1 23  1  0
  2  3  1  0
  3  4  1  0
  3 24  1  0
  3 25  1  0
  4  5  1  0
  4 26  1  0
  4 27  1  0
  5  6  1  0
  5 28  1  0
  5 29  1  0
  6  7  1  0
  7  8  1  0
  7 30  1  0
  7 31  1  0
  8  9  1  0
  8 32  1  0
  8 33  1  0
  9 10  1  0
 10 11  2  0
 10 17  1  0
 11 12  1  0
 11 34  1  0
 12 13  2  0
 12 35  1  0
 13 14  1  0
 13 16  1  0
 14 15  1  0
 14 36  1  0
 14 37  1  0
 16 17  2  0
 16 38  1  0
 17 18  1  0
 18 19  2  0
 18 20  1  0
M  CHG  2  18   1  20  -1
M  END

