
     RDKit          3D

 52 54  0  0  0  0  0  0  0  0999 V2000
    0.2693   -0.8785   -0.0002 C   0  0  0  0  0  0  0  0  0  0  0  0
    1.7379   -1.0869   -0.2602 C   0  0  0  0  0  0  0  0  0  0  0  0
    2.5728   -1.3768    0.7650 C   0  0  0  0  0  0  0  0  0  0  0  0
    4.0433   -1.5655    0.6416 C   0  0  0  0  0  0  0  0  0  0  0  0
    4.6910   -1.1094   -0.2972 O   0  0  0  0  0  0  0  0  0  0  0  0
    4.6868   -2.2509    1.6622 N   0  0  0  0  0  0  0  0  0  0  0  0
    6.1378   -2.4005    1.6111 C   0  0  0  0  0  0  0  0  0  0  0  0
    6.7500   -2.0858    2.9756 C   0  0  0  0  0  0  0  0  0  0  0  0
    6.1200   -2.8692    4.0423 N   0  0  0  0  0  0  0  0  0  0  0  0
    6.8986   -3.7475    4.7583 C   0  0  0  0  0  0  0  0  0  0  0  0
    8.0574   -3.9996    4.4598 O   0  0  0  0  0  0  0  0  0  0  0  0
    6.3148   -4.3922    5.9808 C   0  0  0  0  0  0  0  0  0  0  0  0
    5.4821   -3.8924    6.9694 C   0  0  0  0  0  0  0  0  0  0  0  0
    5.2938   -4.7967    8.0439 C   0  0  0  0  0  0  0  0  0  0  0  0
    5.9960   -5.9614    7.8356 C   0  0  0  0  0  0  0  0  0  0  0  0
    6.0222   -7.1063    8.7184 N   0  0  0  0  0  0  0  0  0  0  0  0
    5.3609   -7.0385    9.7425 O   0  0  0  0  0  0  0  0  0  0  0  0
    6.7067   -8.0575    8.3673 O   0  0  0  0  0  0  0  0  0  0  0  0
    6.9140   -5.9752    6.3711 S   0  0  0  0  0  0  0  0  0  0  0  0
    4.6650   -2.7700    4.0733 C   0  0  0  0  0  0  0  0  0  0  0  0
    4.0683   -3.0713    2.6892 C   0  0  0  0  0  0  0  0  0  0  0  0
    2.1710   -0.9330   -1.6994 C   0  0  0  0  0  0  0  0  0  0  0  0
    2.5636    0.5255   -2.0500 C   0  0  0  0  0  0  0  0  0  0  0  0
    3.0896    0.6600   -3.4617 C   0  0  0  0  0  0  0  0  0  0  0  0
    2.2861    1.1518   -4.5013 C   0  0  0  0  0  0  0  0  0  0  0  0
    2.7783    1.2480   -5.8072 C   0  0  0  0  0  0  0  0  0  0  0  0
    4.0868    0.8500   -6.0936 C   0  0  0  0  0  0  0  0  0  0  0  0
    4.8982    0.3567   -5.0658 C   0  0  0  0  0  0  0  0  0  0  0  0
    4.4042    0.2623   -3.7627 C   0  0  0  0  0  0  0  0  0  0  0  0
    0.0163   -0.9194    1.0693 H   0  0  0  0  0  0  0  0  0  0  0  0
   -0.3275   -1.6419   -0.5296 H   0  0  0  0  0  0  0  0  0  0  0  0
   -0.0596    0.0974   -0.3979 H   0  0  0  0  0  0  0  0  0  0  0  0
    2.1316   -1.4512    1.7614 H   0  0  0  0  0  0  0  0  0  0  0  0
    6.5224   -1.7220    0.8404 H   0  0  0  0  0  0  0  0  0  0  0  0
    6.3999   -3.4349    1.3174 H   0  0  0  0  0  0  0  0  0  0  0  0
    6.6092   -1.0129    3.2000 H   0  0  0  0  0  0  0  0  0  0  0  0
    7.8223   -2.3138    2.9809 H   0  0  0  0  0  0  0  0  0  0  0  0
    5.0433   -2.8949    6.9395 H   0  0  0  0  0  0  0  0  0  0  0  0
    4.6868   -4.6242    8.9316 H   0  0  0  0  0  0  0  0  0  0  0  0
    4.3674   -1.7502    4.3816 H   0  0  0  0  0  0  0  0  0  0  0  0
    4.2548   -3.4818    4.7981 H   0  0  0  0  0  0  0  0  0  0  0  0
    2.9845   -2.9146    2.7182 H   0  0  0  0  0  0  0  0  0  0  0  0
    4.2366   -4.1424    2.4596 H   0  0  0  0  0  0  0  0  0  0  0  0
    1.3466   -1.2491   -2.3611 H   0  0  0  0  0  0  0  0  0  0  0  0
    3.0367   -1.5741   -1.9074 H   0  0  0  0  0  0  0  0  0  0  0  0
    3.3398    0.8391   -1.3369 H   0  0  0  0  0  0  0  0  0  0  0  0
    1.6950    1.1906   -1.9109 H   0  0  0  0  0  0  0  0  0  0  0  0
    1.2617    1.4705   -4.2847 H   0  0  0  0  0  0  0  0  0  0  0  0
    2.1374    1.6383   -6.6025 H   0  0  0  0  0  0  0  0  0  0  0  0
    4.4745    0.9263   -7.1128 H   0  0  0  0  0  0  0  0  0  0  0  0
    5.9246    0.0469   -5.2806 H   0  0  0  0  0  0  0  0  0  0  0  0
    5.0384   -0.1225   -2.9589 H   0  0  0  0  0  0  0  0  0  0  0  0
  1  2  1  0
  1 30  1  0
  1 31  1  0
  1 32  1  0
  2  3  2  0
  2 22  1  0
  3  4  1  0
  3 33  1  0
  4  5  2  0
  4  6  1  0
  6  7  1  0
  6 21  1  0
  7  8  1  0
  7 34  1  0
  7 35  1  0
  8  9  1  0
  8 36  1  0
  8 37  1  0
  9 10  1  0
  9 20  1  0
 10 11  2  0
 10 12  1  0
 12 13  2  0
 12 19  1  0
 13 14  1  0
 13 38  1  0
 14 15  2  0
 14 39  1  0
 15 16  1  0
 15 19  1  0
 16 17  2  0
 16 18  1  0
 20 21  1  0
 20 40  1  0
 20 41  1  0
 21 42  1  0
 21 43  1  0
 22 23  1  0
 22 44  1  0
 22 45  1  0
 23 24  1  0
 23 46  1  0
 23 47  1  0
 24 25  2  0
 24 29  1  0
 25 26  1  0
 25 48  1  0
 26 27  2  0
 26 49  1  0
 27 28  1  0
 27 50  1  0
 28 29  2  0
 28 51  1  0
 29 52  1  0
M  CHG  2  16   1  18  -1
M  END

