
     RDKit          3D

 40 41  0  0  0  0  0  0  0  0999 V2000
    4.1779   -1.6587    2.2765 C   0  0  0  0  0  0  0  0  0  0  0  0
    3.9966   -0.8783    1.0567 N   0  0  0  0  0  0  0  0  0  0  0  0
    4.6985    0.2802    0.8250 C   0  0  0  0  0  0  0  0  0  0  0  0
    4.5538    1.0193   -0.3010 C   0  0  0  0  0  0  0  0  0  0  0  0
    5.3118    2.3022   -0.5511 C   0  0  0  0  0  0  0  0  0  0  0  0
    6.4302    2.4632    0.3686 N   0  0  0  0  0  0  0  0  0  0  0  0
    7.0170    3.8000    0.5100 C   0  0  2  0  0  0  0  0  0  0  0  0
    6.1107    4.7434    1.3181 C   0  0  0  0  0  0  0  0  0  0  0  0
    6.7756    6.1074    1.5467 C   0  0  0  0  0  0  0  0  0  0  0  0
    7.2149    6.7574    0.2287 C   0  0  0  0  0  0  0  0  0  0  0  0
    8.1267    5.8305   -0.5834 C   0  0  2  0  0  0  0  0  0  0  0  0
    8.5569    6.4212   -1.7962 O   0  0  0  0  0  0  0  0  0  0  0  0
    7.4547    4.4697   -0.8105 C   0  0  0  0  0  0  0  0  0  0  0  0
    3.5975    0.5868   -1.3188 C   0  0  0  0  0  0  0  0  0  0  0  0
    3.3845    1.1969   -2.3547 O   0  0  0  0  0  0  0  0  0  0  0  0
    2.9115   -0.6150   -1.0214 N   0  0  0  0  0  0  0  0  0  0  0  0
    1.9389   -1.1262   -1.9860 C   0  0  0  0  0  0  0  0  0  0  0  0
    3.0723   -1.3719    0.1355 C   0  0  0  0  0  0  0  0  0  0  0  0
    2.4526   -2.3990    0.3412 O   0  0  0  0  0  0  0  0  0  0  0  0
    4.9212   -1.1571    2.9087 H   0  0  0  0  0  0  0  0  0  0  0  0
    4.5215   -2.6763    2.0384 H   0  0  0  0  0  0  0  0  0  0  0  0
    3.2278   -1.7476    2.8236 H   0  0  0  0  0  0  0  0  0  0  0  0
    5.3960    0.5974    1.6025 H   0  0  0  0  0  0  0  0  0  0  0  0
    4.6154    3.1489   -0.4229 H   0  0  0  0  0  0  0  0  0  0  0  0
    5.5909    2.3263   -1.6233 H   0  0  0  0  0  0  0  0  0  0  0  0
    7.1627    1.7981    0.1230 H   0  0  0  0  0  0  0  0  0  0  0  0
    7.9304    3.6475    1.1144 H   0  0  0  0  0  0  0  0  0  0  0  0
    5.8593    4.2624    2.2768 H   0  0  0  0  0  0  0  0  0  0  0  0
    5.1576    4.8938    0.7800 H   0  0  0  0  0  0  0  0  0  0  0  0
    7.6591    5.9778    2.1986 H   0  0  0  0  0  0  0  0  0  0  0  0
    6.0897    6.7767    2.0912 H   0  0  0  0  0  0  0  0  0  0  0  0
    7.7352    7.7121    0.4080 H   0  0  0  0  0  0  0  0  0  0  0  0
    6.3220    6.9920   -0.3833 H   0  0  0  0  0  0  0  0  0  0  0  0
    9.0555    5.6683   -0.0066 H   0  0  0  0  0  0  0  0  0  0  0  0
    7.7742    6.5824   -2.3414 H   0  0  0  0  0  0  0  0  0  0  0  0
    8.1455    3.8129   -1.3662 H   0  0  0  0  0  0  0  0  0  0  0  0
    6.5707    4.6240   -1.4578 H   0  0  0  0  0  0  0  0  0  0  0  0
    1.9284   -0.4389   -2.8380 H   0  0  0  0  0  0  0  0  0  0  0  0
    0.9414   -1.1847   -1.5266 H   0  0  0  0  0  0  0  0  0  0  0  0
    2.2211   -2.1386   -2.3091 H   0  0  0  0  0  0  0  0  0  0  0  0
  1  2  1  0
  1 20  1  0
  1 21  1  0
  1 22  1  0
  2  3  1  0
  2 18  1  0
  3  4  2  0
  3 23  1  0
  4  5  1  0
  4 14  1  0
  5  6  1  0
  5 24  1  0
  5 25  1  0
  6  7  1  0
  6 26  1  0
  7  8  1  0
  7 13  1  0
  7 27  1  1
  8  9  1  0
  8 28  1  0
  8 29  1  0
  9 10  1  0
  9 30  1  0
  9 31  1  0
 10 11  1  0
 10 32  1  0
 10 33  1  0
 11 12  1  0
 11 13  1  0
 11 34  1  1
 12 35  1  0
 13 36  1  0
 13 37  1  0
 14 15  2  0
 14 16  1  0
 16 17  1  0
 16 18  1  0
 17 38  1  0
 17 39  1  0
 17 40  1  0
 18 19  2  0
M  END

