
     RDKit          3D

 50 54  0  0  0  0  0  0  0  0999 V2000
    0.8431   -0.2225   -0.1523 C   0  0  0  0  0  0  0  0  0  0  0  0
    2.3610   -0.0599    0.0262 C   0  0  2  0  0  0  0  0  0  0  0  0
    2.6582    0.3220    1.4900 C   0  0  0  0  0  0  0  0  0  0  0  0
    2.8843    1.0323   -0.9300 C   0  0  0  0  0  0  0  0  0  0  0  0
    4.3968    1.1339   -1.0121 C   0  0  0  0  0  0  0  0  0  0  0  0
    4.9223    2.2048   -1.3188 O   0  0  0  0  0  0  0  0  0  0  0  0
    5.1882   -0.0737   -0.7876 C   0  0  0  0  0  0  0  0  0  0  0  0
    4.5474   -1.2426   -0.5172 C   0  0  0  0  0  0  0  0  0  0  0  0
    3.0658   -1.3851   -0.3388 C   0  0  0  0  0  0  0  0  0  0  0  0
    5.1934   -2.4217   -0.4111 O   0  0  0  0  0  0  0  0  0  0  0  0
    6.5238   -2.5094   -0.7878 C   0  0  0  0  0  0  0  0  0  0  0  0
    7.0498   -3.7977   -0.9088 C   0  0  0  0  0  0  0  0  0  0  0  0
    8.3775   -3.9658   -1.2930 C   0  0  0  0  0  0  0  0  0  0  0  0
    9.1602   -2.8344   -1.5547 C   0  0  0  0  0  0  0  0  0  0  0  0
   10.8249   -3.0338   -2.0456 Cl  0  0  0  0  0  0  0  0  0  0  0  0
    8.6276   -1.5511   -1.4258 C   0  0  0  0  0  0  0  0  0  0  0  0
    7.2955   -1.3696   -1.0327 C   0  0  0  0  0  0  0  0  0  0  0  0
    6.7020    0.0230   -0.8618 C   0  0  2  0  0  0  0  0  0  0  0  0
    7.2968    0.7589    0.3291 C   0  0  0  0  0  0  0  0  0  0  0  0
    7.9303    1.9971    0.3089 C   0  0  0  0  0  0  0  0  0  0  0  0
    8.2210    2.9980   -0.7586 C   0  0  0  0  0  0  0  0  0  0  0  0
    9.1626    3.7516   -0.6444 O   0  0  0  0  0  0  0  0  0  0  0  0
    7.4120    3.0208   -1.8158 O   0  0  0  0  0  0  0  0  0  0  0  0
    8.4259    2.2805    1.5626 N   0  0  0  0  0  0  0  0  0  0  0  0
    8.9871    3.1052    1.7421 H   0  0  0  0  0  0  0  0  0  0  0  0
    8.1116    1.2691    2.4287 C   0  0  0  0  0  0  0  0  0  0  0  0
    8.3896    1.1275    3.7977 C   0  0  0  0  0  0  0  0  0  0  0  0
    7.9349   -0.0220    4.4320 C   0  0  0  0  0  0  0  0  0  0  0  0
    7.2148   -1.0116    3.7240 C   0  0  0  0  0  0  0  0  0  0  0  0
    6.9409   -0.8725    2.3688 C   0  0  0  0  0  0  0  0  0  0  0  0
    7.3891    0.2825    1.6897 C   0  0  0  0  0  0  0  0  0  0  0  0
    0.3166    0.7118    0.0998 H   0  0  0  0  0  0  0  0  0  0  0  0
    0.4513   -1.0156    0.5050 H   0  0  0  0  0  0  0  0  0  0  0  0
    0.5836   -0.4855   -1.1908 H   0  0  0  0  0  0  0  0  0  0  0  0
    2.1739    1.2780    1.7452 H   0  0  0  0  0  0  0  0  0  0  0  0
    3.7359    0.4303    1.6863 H   0  0  0  0  0  0  0  0  0  0  0  0
    2.2680   -0.4447    2.1786 H   0  0  0  0  0  0  0  0  0  0  0  0
    2.4957    2.0282   -0.6680 H   0  0  0  0  0  0  0  0  0  0  0  0
    2.5328    0.8233   -1.9584 H   0  0  0  0  0  0  0  0  0  0  0  0
    2.8830   -2.1583    0.4257 H   0  0  0  0  0  0  0  0  0  0  0  0
    2.6493   -1.7895   -1.2810 H   0  0  0  0  0  0  0  0  0  0  0  0
    6.4066   -4.6554   -0.7034 H   0  0  0  0  0  0  0  0  0  0  0  0
    8.8076   -4.9631   -1.3946 H   0  0  0  0  0  0  0  0  0  0  0  0
    9.2575   -0.6807   -1.6194 H   0  0  0  0  0  0  0  0  0  0  0  0
    6.9624    0.6052   -1.7579 H   0  0  0  0  0  0  0  0  0  0  0  0
    6.5171    2.6363   -1.6146 H   0  0  0  0  0  0  0  0  0  0  0  0
    8.9448    1.8948    4.3424 H   0  0  0  0  0  0  0  0  0  0  0  0
    8.1362   -0.1637    5.4968 H   0  0  0  0  0  0  0  0  0  0  0  0
    6.8698   -1.9025    4.2545 H   0  0  0  0  0  0  0  0  0  0  0  0
    6.3836   -1.6510    1.8459 H   0  0  0  0  0  0  0  0  0  0  0  0
  2  1  1  1
  1 32  1  0
  1 33  1  0
  1 34  1  0
  2  3  1  0
  2  4  1  0
  2  9  1  0
  3 35  1  0
  3 36  1  0
  3 37  1  0
  4  5  1  0
  4 38  1  0
  4 39  1  0
  5  6  2  0
  5  7  1  0
  7  8  2  0
  7 18  1  0
  8  9  1  0
  8 10  1  0
  9 40  1  0
  9 41  1  0
 10 11  1  0
 11 12  2  0
 11 17  1  0
 12 13  1  0
 12 42  1  0
 13 14  2  0
 13 43  1  0
 14 15  1  0
 14 16  1  0
 16 17  2  0
 16 44  1  0
 17 18  1  0
 18 19  1  0
 18 45  1  6
 19 20  2  0
 19 31  1  0
 20 21  1  0
 20 24  1  0
 21 22  2  0
 21 23  1  0
 23 46  1  0
 24 25  1  0
 24 26  1  0
 26 27  1  0
 26 31  2  0
 27 28  2  0
 27 47  1  0
 28 29  1  0
 28 48  1  0
 29 30  2  0
 29 49  1  0
 30 31  1  0
 30 50  1  0
M  END

