
     RDKit          3D

 37 38  0  0  0  0  0  0  0  0999 V2000
    2.9267    0.3980   -1.5298 C   0  0  0  0  0  0  0  0  0  0  0  0
    2.3937    0.2120   -0.1034 C   0  0  1  0  0  0  0  0  0  0  0  0
    2.3482   -1.2727    0.2838 C   0  0  0  0  0  0  0  0  0  0  0  0
    3.0980    1.1960    0.9031 C   0  0  1  0  0  0  0  0  0  0  0  0
    2.4475    1.1560    2.2911 C   0  0  0  0  0  0  0  0  0  0  0  0
    2.9983    0.5068    3.4062 C   0  0  0  0  0  0  0  0  0  0  0  0
    2.3276    0.4868    4.6346 C   0  0  0  0  0  0  0  0  0  0  0  0
    1.0911    1.1190    4.7763 C   0  0  0  0  0  0  0  0  0  0  0  0
    0.5328    1.7798    3.6775 C   0  0  0  0  0  0  0  0  0  0  0  0
    1.2067    1.7985    2.4554 C   0  0  0  0  0  0  0  0  0  0  0  0
    4.6254    1.1379    0.9250 C   0  0  0  0  0  0  0  0  0  0  0  0
    5.3052   -0.0711    1.1552 C   0  0  0  0  0  0  0  0  0  0  0  0
    6.6996   -0.1492    1.1829 C   0  0  0  0  0  0  0  0  0  0  0  0
    7.4669    0.9969    0.9812 C   0  0  0  0  0  0  0  0  0  0  0  0
    6.8232    2.2131    0.7566 C   0  0  0  0  0  0  0  0  0  0  0  0
    5.4241    2.2921    0.7284 C   0  0  0  0  0  0  0  0  0  0  0  0
    4.8063    3.6540    0.4818 C   0  0  1  0  0  0  0  0  0  0  0  0
    3.9629    4.0179    1.4667 F   0  0  0  0  0  0  0  0  0  0  0  0
    5.7322    4.6229    0.3867 F   0  0  0  0  0  0  0  0  0  0  0  0
    4.0967    3.6907   -0.6709 F   0  0  0  0  0  0  0  0  0  0  0  0
    2.3130   -0.1667   -2.2503 H   0  0  0  0  0  0  0  0  0  0  0  0
    3.9634    0.0352   -1.6223 H   0  0  0  0  0  0  0  0  0  0  0  0
    2.9181    1.4568   -1.8321 H   0  0  0  0  0  0  0  0  0  0  0  0
    1.3449    0.5582   -0.0997 H   0  0  0  0  0  0  0  0  0  0  0  0
    3.3053   -1.7850    0.1006 H   0  0  0  0  0  0  0  0  0  0  0  0
    1.5934   -1.7917   -0.3291 H   0  0  0  0  0  0  0  0  0  0  0  0
    2.0722   -1.4176    1.3396 H   0  0  0  0  0  0  0  0  0  0  0  0
    2.8244    2.1767    0.5010 H   0  0  0  0  0  0  0  0  0  0  0  0
    3.9710    0.0190    3.3309 H   0  0  0  0  0  0  0  0  0  0  0  0
    2.7825   -0.0243    5.4873 H   0  0  0  0  0  0  0  0  0  0  0  0
    0.5697    1.1057    5.7368 H   0  0  0  0  0  0  0  0  0  0  0  0
   -0.4281    2.2920    3.7745 H   0  0  0  0  0  0  0  0  0  0  0  0
    0.7644    2.3334    1.6095 H   0  0  0  0  0  0  0  0  0  0  0  0
    4.7309   -0.9808    1.3209 H   0  0  0  0  0  0  0  0  0  0  0  0
    7.1830   -1.1126    1.3645 H   0  0  0  0  0  0  0  0  0  0  0  0
    8.5581    0.9499    0.9997 H   0  0  0  0  0  0  0  0  0  0  0  0
    7.4103    3.1183    0.6014 H   0  0  0  0  0  0  0  0  0  0  0  0
  1  2  1  0
  1 21  1  0
  1 22  1  0
  1 23  1  0
  2  3  1  0
  2  4  1  0
  2 24  1  6
  3 25  1  0
  3 26  1  0
  3 27  1  0
  4  5  1  0
  4 11  1  0
  4 28  1  6
  5  6  2  0
  5 10  1  0
  6  7  1  0
  6 29  1  0
  7  8  2  0
  7 30  1  0
  8  9  1  0
  8 31  1  0
  9 10  2  0
  9 32  1  0
 10 33  1  0
 11 12  2  0
 11 16  1  0
 12 13  1  0
 12 34  1  0
 13 14  2  0
 13 35  1  0
 14 15  1  0
 14 36  1  0
 15 16  2  0
 15 37  1  0
 16 17  1  0
 17 18  1  1
 17 19  1  0
 17 20  1  0
M  END

