
     RDKit          3D

 25 25  0  0  0  0  0  0  0  0999 V2000
    1.9653   -3.0224   -2.6617 C   0  0  0  0  0  0  0  0  0  0  0  0
    2.6867   -2.3366   -1.7710 C   0  0  0  0  0  0  0  0  0  0  0  0
    3.5299   -2.9435   -0.6832 C   0  0  0  0  0  0  0  0  0  0  0  0
    5.0036   -2.5811   -0.8289 C   0  0  0  0  0  0  0  0  0  0  0  0
    5.7058   -3.1281    0.2954 O   0  0  0  0  0  0  0  0  0  0  0  0
    7.0304   -2.8645    0.3641 C   0  0  0  0  0  0  0  0  0  0  0  0
    7.6005   -2.1877   -0.4550 O   0  0  0  0  0  0  0  0  0  0  0  0
    7.6578   -3.5286    1.5542 C   0  0  0  0  0  0  0  0  0  0  0  0
    6.9692   -4.5722    2.2037 C   0  0  0  0  0  0  0  0  0  0  0  0
    7.5178   -5.2471    3.2909 C   0  0  0  0  0  0  0  0  0  0  0  0
    8.7803   -4.8786    3.7644 C   0  0  0  0  0  0  0  0  0  0  0  0
    9.4798   -3.8419    3.1488 C   0  0  0  0  0  0  0  0  0  0  0  0
    8.9311   -3.1690    2.0494 C   0  0  0  0  0  0  0  0  0  0  0  0
    9.8837   -1.8747    1.3748 Cl  0  0  0  0  0  0  0  0  0  0  0  0
    1.3714   -2.5164   -3.4278 H   0  0  0  0  0  0  0  0  0  0  0  0
    1.9364   -4.1174   -2.6554 H   0  0  0  0  0  0  0  0  0  0  0  0
    2.6834   -1.2394   -1.8196 H   0  0  0  0  0  0  0  0  0  0  0  0
    3.4196   -4.0403   -0.6786 H   0  0  0  0  0  0  0  0  0  0  0  0
    3.1868   -2.5805    0.3028 H   0  0  0  0  0  0  0  0  0  0  0  0
    5.1554   -1.4894   -0.8542 H   0  0  0  0  0  0  0  0  0  0  0  0
    5.4311   -2.9855   -1.7609 H   0  0  0  0  0  0  0  0  0  0  0  0
    5.9846   -4.8479    1.8272 H   0  0  0  0  0  0  0  0  0  0  0  0
    6.9617   -6.0571    3.7681 H   0  0  0  0  0  0  0  0  0  0  0  0
    9.2250   -5.3960    4.6182 H   0  0  0  0  0  0  0  0  0  0  0  0
   10.4624   -3.5367    3.5117 H   0  0  0  0  0  0  0  0  0  0  0  0
  1  2  2  0
  1 15  1  0
  1 16  1  0
  2  3  1  0
  2 17  1  0
  3  4  1  0
  3 18  1  0
  3 19  1  0
  4  5  1  0
  4 20  1  0
  4 21  1  0
  5  6  1  0
  6  7  2  0
  6  8  1  0
  8  9  2  0
  8 13  1  0
  9 10  1  0
  9 22  1  0
 10 11  2  0
 10 23  1  0
 11 12  1  0
 11 24  1  0
 12 13  2  0
 12 25  1  0
 13 14  1  0
M  END

