
     RDKit          3D

 38 40  0  0  0  0  0  0  0  0999 V2000
    8.6675    4.9809    0.8946 C   0  0  0  0  0  0  0  0  0  0  0  0
    8.2372    3.5393    0.7922 C   0  0  0  0  0  0  0  0  0  0  0  0
    7.7906    2.8275    1.9193 C   0  0  0  0  0  0  0  0  0  0  0  0
    7.4035    1.4946    1.8179 C   0  0  0  0  0  0  0  0  0  0  0  0
    7.4574    0.8211    0.5836 C   0  0  0  0  0  0  0  0  0  0  0  0
    6.9832   -0.5958    0.5592 C   0  0  0  0  0  0  0  0  0  0  0  0
    6.4186   -1.0978    1.5109 O   0  0  0  0  0  0  0  0  0  0  0  0
    7.1095   -1.4616   -0.7070 C   0  0  0  0  0  0  0  0  0  0  0  0
    8.2717   -1.2478   -1.5101 O   0  0  0  0  0  0  0  0  0  0  0  0
    9.4273   -1.7487   -1.0572 C   0  0  0  0  0  0  0  0  0  0  0  0
    9.5286   -2.3920   -0.0384 O   0  0  0  0  0  0  0  0  0  0  0  0
   10.5897   -1.4730   -1.9637 C   0  0  0  0  0  0  0  0  0  0  0  0
   11.7281   -2.1897   -1.7353 C   0  0  0  0  0  0  0  0  0  0  0  0
   12.8954   -2.0410   -2.5552 C   0  0  0  0  0  0  0  0  0  0  0  0
   14.0868   -2.7729   -2.3623 C   0  0  0  0  0  0  0  0  0  0  0  0
   15.1611   -2.5744   -3.2188 C   0  0  0  0  0  0  0  0  0  0  0  0
   16.7723   -3.5562   -2.9654 Br  0  0  0  0  0  0  0  0  0  0  0  0
   15.0734   -1.6524   -4.2787 C   0  0  0  0  0  0  0  0  0  0  0  0
   13.9050   -0.9243   -4.4797 C   0  0  0  0  0  0  0  0  0  0  0  0
   12.8186   -1.1165   -3.6177 C   0  0  0  0  0  0  0  0  0  0  0  0
   11.6981   -0.3913   -3.8270 O   0  0  0  0  0  0  0  0  0  0  0  0
   10.5434   -0.4640   -3.0415 C   0  0  0  0  0  0  0  0  0  0  0  0
    9.6590    0.2999   -3.3077 O   0  0  0  0  0  0  0  0  0  0  0  0
    7.9036    1.5269   -0.5509 C   0  0  0  0  0  0  0  0  0  0  0  0
    8.2814    2.8648   -0.4392 C   0  0  0  0  0  0  0  0  0  0  0  0
    8.4605    5.3978    1.8911 H   0  0  0  0  0  0  0  0  0  0  0  0
    8.1511    5.6062    0.1480 H   0  0  0  0  0  0  0  0  0  0  0  0
    9.7496    5.0851    0.7049 H   0  0  0  0  0  0  0  0  0  0  0  0
    7.7437    3.3311    2.8890 H   0  0  0  0  0  0  0  0  0  0  0  0
    7.0455    0.9446    2.6904 H   0  0  0  0  0  0  0  0  0  0  0  0
    6.2614   -1.2338   -1.3708 H   0  0  0  0  0  0  0  0  0  0  0  0
    7.0493   -2.5070   -0.3768 H   0  0  0  0  0  0  0  0  0  0  0  0
   11.7298   -2.8998   -0.9038 H   0  0  0  0  0  0  0  0  0  0  0  0
   14.1509   -3.4892   -1.5413 H   0  0  0  0  0  0  0  0  0  0  0  0
   15.9267   -1.5090   -4.9436 H   0  0  0  0  0  0  0  0  0  0  0  0
   13.8170   -0.2036   -5.2941 H   0  0  0  0  0  0  0  0  0  0  0  0
    7.9730    1.0428   -1.5253 H   0  0  0  0  0  0  0  0  0  0  0  0
    8.6230    3.3946   -1.3332 H   0  0  0  0  0  0  0  0  0  0  0  0
  1  2  1  0
  1 26  1  0
  1 27  1  0
  1 28  1  0
  2  3  2  0
  2 25  1  0
  3  4  1  0
  3 29  1  0
  4  5  2  0
  4 30  1  0
  5  6  1  0
  5 24  1  0
  6  7  2  0
  6  8  1  0
  8  9  1  0
  8 31  1  0
  8 32  1  0
  9 10  1  0
 10 11  2  0
 10 12  1  0
 12 13  2  0
 12 22  1  0
 13 14  1  0
 13 33  1  0
 14 15  2  0
 14 20  1  0
 15 16  1  0
 15 34  1  0
 16 17  1  0
 16 18  2  0
 18 19  1  0
 18 35  1  0
 19 20  2  0
 19 36  1  0
 20 21  1  0
 21 22  1  0
 22 23  2  0
 24 25  2  0
 24 37  1  0
 25 38  1  0
M  END

