
     RDKit          3D

 24 25  0  0  0  0  0  0  0  0999 V2000
    0.9697    0.1378   -0.0249 C   0  0  0  0  0  0  0  0  0  0  0  0
    0.3445    1.2635   -0.0351 N   0  0  0  0  0  0  0  0  0  0  0  0
   -0.9782    1.2709   -0.2008 N   0  0  0  0  0  0  0  0  0  0  0  0
   -1.7272    2.4451   -0.2245 C   0  0  0  0  0  0  0  0  0  0  0  0
   -3.1210    2.3588   -0.4024 C   0  0  0  0  0  0  0  0  0  0  0  0
   -3.8984    3.5165   -0.4311 C   0  0  0  0  0  0  0  0  0  0  0  0
   -3.3070    4.7753   -0.2841 C   0  0  0  0  0  0  0  0  0  0  0  0
   -1.9211    4.8572   -0.1072 C   0  0  0  0  0  0  0  0  0  0  0  0
   -1.1286    3.7098   -0.0761 C   0  0  0  0  0  0  0  0  0  0  0  0
    2.4133    0.0558    0.1520 C   0  0  0  0  0  0  0  0  0  0  0  0
    3.2877    1.1849    0.3328 C   0  0  0  0  0  0  0  0  0  0  0  0
    4.5983    0.8236    0.4751 C   0  0  0  0  0  0  0  0  0  0  0  0
    4.8070   -0.8968    0.3944 S   0  0  0  0  0  0  0  0  0  0  0  0
    3.1126   -1.1370    0.1657 C   0  0  0  0  0  0  0  0  0  0  0  0
    0.4232   -0.8157   -0.1519 H   0  0  0  0  0  0  0  0  0  0  0  0
   -1.4745    0.3860   -0.3177 H   0  0  0  0  0  0  0  0  0  0  0  0
   -3.5936    1.3786   -0.5180 H   0  0  0  0  0  0  0  0  0  0  0  0
   -4.9794    3.4307   -0.5702 H   0  0  0  0  0  0  0  0  0  0  0  0
   -3.9178    5.6805   -0.3070 H   0  0  0  0  0  0  0  0  0  0  0  0
   -1.4439    5.8341    0.0093 H   0  0  0  0  0  0  0  0  0  0  0  0
   -0.0496    3.7713    0.0615 H   0  0  0  0  0  0  0  0  0  0  0  0
    2.9292    2.2138    0.3519 H   0  0  0  0  0  0  0  0  0  0  0  0
    5.4614    1.4712    0.6242 H   0  0  0  0  0  0  0  0  0  0  0  0
    2.7107   -2.1433    0.0522 H   0  0  0  0  0  0  0  0  0  0  0  0
  1  2  2  0
  1 10  1  0
  1 15  1  0
  2  3  1  0
  3  4  1  0
  3 16  1  0
  4  5  2  0
  4  9  1  0
  5  6  1  0
  5 17  1  0
  6  7  2  0
  6 18  1  0
  7  8  1  0
  7 19  1  0
  8  9  2  0
  8 20  1  0
  9 21  1  0
 10 11  1  0
 10 14  2  0
 11 12  2  0
 11 22  1  0
 12 13  1  0
 12 23  1  0
 13 14  1  0
 14 24  1  0
M  END

