
     RDKit          3D

 48 49  0  0  0  0  0  0  0  0999 V2000
    1.1429    2.2981    0.1369 C   0  0  0  0  0  0  0  0  0  0  0  0
    2.5460    2.8871    0.0932 C   0  0  0  0  0  0  0  0  0  0  0  0
    2.7403    4.0852    0.2057 O   0  0  0  0  0  0  0  0  0  0  0  0
    3.5561    1.9781   -0.0760 N   0  0  0  0  0  0  0  0  0  0  0  0
    4.9539    2.3548   -0.1767 C   0  0  0  0  0  0  0  0  0  0  0  0
    5.5879    1.9484   -1.5096 C   0  0  0  0  0  0  0  0  0  0  0  0
    7.0607    2.3421   -1.6140 C   0  0  0  0  0  0  0  0  0  0  0  0
    7.6484    1.8334   -2.8474 N   0  0  0  0  0  0  0  0  0  0  0  0
    9.0538    2.1509   -3.0373 C   0  0  1  0  0  0  0  0  0  0  0  0
    9.6550    1.2388   -4.1215 C   0  0  0  0  0  0  0  0  0  0  0  0
    9.2653    3.6298   -3.4501 C   0  0  0  0  0  0  0  0  0  0  0  0
    8.3515    4.2064   -4.0168 O   0  0  0  0  0  0  0  0  0  0  0  0
   10.5706    4.3119   -3.2037 C   0  0  0  0  0  0  0  0  0  0  0  0
   10.7339    5.6222   -3.6893 C   0  0  0  0  0  0  0  0  0  0  0  0
   11.9255    6.3064   -3.4755 C   0  0  0  0  0  0  0  0  0  0  0  0
   12.9774    5.7022   -2.7792 C   0  0  0  0  0  0  0  0  0  0  0  0
   12.8430    4.3795   -2.2884 C   0  0  0  0  0  0  0  0  0  0  0  0
   11.6339    3.7076   -2.5080 C   0  0  0  0  0  0  0  0  0  0  0  0
   13.9038    3.8114   -1.5861 N   0  0  0  0  0  0  0  0  0  0  0  0
   15.2090    4.4136   -1.7579 C   0  0  0  0  0  0  0  0  0  0  0  0
   15.0659    5.9314   -1.6369 C   0  0  1  0  0  0  0  0  0  0  0  0
   16.3625    6.6867   -1.8616 C   0  0  0  0  0  0  0  0  0  0  0  0
   14.1269    6.4103   -2.6081 O   0  0  0  0  0  0  0  0  0  0  0  0
    0.6713    2.5850    1.0889 H   0  0  0  0  0  0  0  0  0  0  0  0
    1.1095    1.2032    0.0333 H   0  0  0  0  0  0  0  0  0  0  0  0
    0.5466    2.7544   -0.6677 H   0  0  0  0  0  0  0  0  0  0  0  0
    3.3162    0.9993   -0.1751 H   0  0  0  0  0  0  0  0  0  0  0  0
    5.5248    1.9083    0.6594 H   0  0  0  0  0  0  0  0  0  0  0  0
    4.9840    3.4462   -0.0443 H   0  0  0  0  0  0  0  0  0  0  0  0
    5.0191    2.4163   -2.3325 H   0  0  0  0  0  0  0  0  0  0  0  0
    5.5107    0.8559   -1.6547 H   0  0  0  0  0  0  0  0  0  0  0  0
    7.6152    1.9034   -0.7636 H   0  0  0  0  0  0  0  0  0  0  0  0
    7.1489    3.4454   -1.5066 H   0  0  0  0  0  0  0  0  0  0  0  0
    7.1396    2.2336   -3.6387 H   0  0  0  0  0  0  0  0  0  0  0  0
    9.5733    1.9569   -2.0847 H   0  0  0  0  0  0  0  0  0  0  0  0
    9.1456    1.4103   -5.0836 H   0  0  0  0  0  0  0  0  0  0  0  0
    9.5063    0.1861   -3.8397 H   0  0  0  0  0  0  0  0  0  0  0  0
   10.7293    1.4262   -4.2719 H   0  0  0  0  0  0  0  0  0  0  0  0
    9.9048    6.0838   -4.2272 H   0  0  0  0  0  0  0  0  0  0  0  0
   12.0731    7.3254   -3.8396 H   0  0  0  0  0  0  0  0  0  0  0  0
   11.5394    2.6911   -2.1198 H   0  0  0  0  0  0  0  0  0  0  0  0
   13.8820    2.8019   -1.5016 H   0  0  0  0  0  0  0  0  0  0  0  0
   15.6721    4.1798   -2.7402 H   0  0  0  0  0  0  0  0  0  0  0  0
   15.8894    4.0477   -0.9727 H   0  0  0  0  0  0  0  0  0  0  0  0
   14.6635    6.1567   -0.6312 H   0  0  0  0  0  0  0  0  0  0  0  0
   16.7790    6.4591   -2.8553 H   0  0  0  0  0  0  0  0  0  0  0  0
   17.1056    6.4178   -1.0952 H   0  0  0  0  0  0  0  0  0  0  0  0
   16.1818    7.7701   -1.8062 H   0  0  0  0  0  0  0  0  0  0  0  0
  1  2  1  0
  1 24  1  0
  1 25  1  0
  1 26  1  0
  2  3  2  0
  2  4  1  0
  4  5  1  0
  4 27  1  0
  5  6  1  0
  5 28  1  0
  5 29  1  0
  6  7  1  0
  6 30  1  0
  6 31  1  0
  7  8  1  0
  7 32  1  0
  7 33  1  0
  8  9  1  0
  8 34  1  0
  9 10  1  0
  9 11  1  0
  9 35  1  1
 10 36  1  0
 10 37  1  0
 10 38  1  0
 11 12  2  0
 11 13  1  0
 13 14  2  0
 13 18  1  0
 14 15  1  0
 14 39  1  0
 15 16  2  0
 15 40  1  0
 16 17  1  0
 16 23  1  0
 17 18  2  0
 17 19  1  0
 18 41  1  0
 19 20  1  0
 19 42  1  0
 20 21  1  0
 20 43  1  0
 20 44  1  0
 21 22  1  0
 21 23  1  0
 21 45  1  1
 22 46  1  0
 22 47  1  0
 22 48  1  0
M  END

