
     RDKit          3D

 44 46  0  0  0  0  0  0  0  0999 V2000
    1.6675    0.4211    0.2030 C   0  0  0  0  0  0  0  0  0  0  0  0
    2.9938   -0.1958   -0.0477 C   0  0  0  0  0  0  0  0  0  0  0  0
    4.0666    0.6452    0.0656 O   0  0  0  0  0  0  0  0  0  0  0  0
    5.2009   -0.0398   -0.1915 C   0  0  0  0  0  0  0  0  0  0  0  0
    6.3697    0.6849   -0.1146 N   0  0  0  0  0  0  0  0  0  0  0  0
    7.6619    0.2011   -0.3228 C   0  0  0  0  0  0  0  0  0  0  0  0
    8.5331    1.2460   -0.1502 C   0  0  0  0  0  0  0  0  0  0  0  0
    7.7628    2.4110    0.1742 C   0  0  0  0  0  0  0  0  0  0  0  0
    6.4417    2.0456    0.1907 C   0  0  0  0  0  0  0  0  0  0  0  0
    4.9011   -1.3558   -0.4817 C   0  0  0  0  0  0  0  0  0  0  0  0
    5.8227   -2.3836   -0.8132 C   0  0  0  0  0  0  0  0  0  0  0  0
    6.6254   -3.1800   -1.0814 N   0  0  0  0  0  0  0  0  0  0  0  0
    3.4489   -1.4475   -0.3830 C   0  0  0  0  0  0  0  0  0  0  0  0
    2.6972   -2.6920   -0.6179 C   0  0  0  0  0  0  0  0  0  0  0  0
    3.2338   -3.7471   -0.8947 O   0  0  0  0  0  0  0  0  0  0  0  0
    1.3666   -2.5460   -0.5056 O   0  0  0  0  0  0  0  0  0  0  0  0
    0.5247   -3.7312   -0.6025 C   0  0  1  0  0  0  0  0  0  0  0  0
    1.1085   -4.5799   -0.2144 H   0  0  0  0  0  0  0  0  0  0  0  0
   -0.7099   -3.4780    0.2351 C   0  0  0  0  0  0  0  0  0  0  0  0
    0.1673   -3.9970   -2.0891 C   0  0  0  0  0  0  0  0  0  0  0  0
   -0.9557   -3.7858   -2.5122 O   0  0  0  0  0  0  0  0  0  0  0  0
    1.2143   -4.4824   -2.8199 N   0  0  0  0  0  0  0  0  0  0  0  0
    1.2625   -4.7881   -4.1959 C   0  0  0  0  0  0  0  0  0  0  0  0
    0.1431   -4.7170   -5.0449 C   0  0  0  0  0  0  0  0  0  0  0  0
    0.2743   -5.0416   -6.3971 C   0  0  0  0  0  0  0  0  0  0  0  0
    1.5114   -5.4346   -6.8992 C   0  0  0  0  0  0  0  0  0  0  0  0
    1.6288   -5.7457   -8.2001 F   0  0  0  0  0  0  0  0  0  0  0  0
    2.6325   -5.5109   -6.0755 C   0  0  0  0  0  0  0  0  0  0  0  0
    2.5038   -5.1861   -4.7263 C   0  0  0  0  0  0  0  0  0  0  0  0
    1.5005    1.2651   -0.4866 H   0  0  0  0  0  0  0  0  0  0  0  0
    1.6140    0.8201    1.2298 H   0  0  0  0  0  0  0  0  0  0  0  0
    0.8739   -0.3187    0.0623 H   0  0  0  0  0  0  0  0  0  0  0  0
    7.8381   -0.8403   -0.5746 H   0  0  0  0  0  0  0  0  0  0  0  0
    9.6153    1.1845   -0.2462 H   0  0  0  0  0  0  0  0  0  0  0  0
    8.1441    3.4107    0.3733 H   0  0  0  0  0  0  0  0  0  0  0  0
    5.5385    2.6140    0.3883 H   0  0  0  0  0  0  0  0  0  0  0  0
   -0.4248   -3.2472    1.2718 H   0  0  0  0  0  0  0  0  0  0  0  0
   -1.3494   -4.3723    0.2333 H   0  0  0  0  0  0  0  0  0  0  0  0
   -1.2975   -2.6498   -0.1843 H   0  0  0  0  0  0  0  0  0  0  0  0
    2.0934   -4.5787   -2.3110 H   0  0  0  0  0  0  0  0  0  0  0  0
   -0.8165   -4.4066   -4.6384 H   0  0  0  0  0  0  0  0  0  0  0  0
   -0.5840   -4.9921   -7.0701 H   0  0  0  0  0  0  0  0  0  0  0  0
    3.5915   -5.8203   -6.4954 H   0  0  0  0  0  0  0  0  0  0  0  0
    3.3799   -5.2383   -4.0739 H   0  0  0  0  0  0  0  0  0  0  0  0
  1  2  1  0
  1 30  1  0
  1 31  1  0
  1 32  1  0
  2  3  1  0
  2 13  2  0
  3  4  1  0
  4  5  1  0
  4 10  2  0
  5  6  1  0
  5  9  1  0
  6  7  2  0
  6 33  1  0
  7  8  1  0
  7 34  1  0
  8  9  2  0
  8 35  1  0
  9 36  1  0
 10 11  1  0
 10 13  1  0
 11 12  3  0
 13 14  1  0
 14 15  2  0
 14 16  1  0
 16 17  1  0
 17 18  1  1
 17 19  1  0
 17 20  1  0
 19 37  1  0
 19 38  1  0
 19 39  1  0
 20 21  2  0
 20 22  1  0
 22 23  1  0
 22 40  1  0
 23 24  2  0
 23 29  1  0
 24 25  1  0
 24 41  1  0
 25 26  2  0
 25 42  1  0
 26 27  1  0
 26 28  1  0
 28 29  2  0
 28 43  1  0
 29 44  1  0
M  END

