
     RDKit          3D

 58 61  0  0  0  0  0  0  0  0999 V2000
    2.5151    1.1982    2.2514 C   0  0  0  0  0  0  0  0  0  0  0  0
    2.6215    0.7342    0.7996 C   0  0  0  0  0  0  0  0  0  0  0  0
    2.9492    1.8508   -0.1907 C   0  0  2  0  0  0  0  0  0  0  0  0
    2.9944    1.3312   -1.6391 C   0  0  0  0  0  0  0  0  0  0  0  0
    3.2191    2.3230   -2.6774 N   0  0  0  0  0  0  0  0  0  0  0  0
    2.0700    3.1340   -3.0453 C   0  0  0  0  0  0  0  0  0  0  0  0
    1.1681    2.4053   -4.0586 C   0  0  0  0  0  0  0  0  0  0  0  0
   -0.0166    3.1622   -4.4151 N   0  0  0  0  0  0  0  0  0  0  0  0
   -1.2261    2.9434   -3.8286 C   0  0  0  0  0  0  0  0  0  0  0  0
   -1.4432    2.0794   -2.9890 O   0  0  0  0  0  0  0  0  0  0  0  0
   -2.3195    3.8379   -4.2918 C   0  0  0  0  0  0  0  0  0  0  0  0
   -2.0477    4.7971   -5.2077 O   0  0  0  0  0  0  0  0  0  0  0  0
   -3.1992    5.5068   -5.4943 N   0  0  0  0  0  0  0  0  0  0  0  0
   -4.1404    4.9658   -4.7552 C   0  0  0  0  0  0  0  0  0  0  0  0
   -3.6449    3.8864   -3.9551 C   0  0  0  0  0  0  0  0  0  0  0  0
   -4.4929    3.1110   -2.9921 C   0  0  0  0  0  0  0  0  0  0  0  0
   -5.9862    3.3575   -3.2772 C   0  0  0  0  0  0  0  0  0  0  0  0
   -6.2955    4.8459   -3.5091 C   0  0  0  0  0  0  0  0  0  0  0  0
   -5.5796    5.3945   -4.7575 C   0  0  0  0  0  0  0  0  0  0  0  0
    4.5031    3.0072   -2.6121 C   0  0  0  0  0  0  0  0  0  0  0  0
    4.6559    4.0606   -1.5258 C   0  0  0  0  0  0  0  0  0  0  0  0
    4.9851    5.3801   -1.8363 C   0  0  0  0  0  0  0  0  0  0  0  0
    5.1808    6.3461   -0.8338 C   0  0  0  0  0  0  0  0  0  0  0  0
    5.5030    7.5963   -1.2638 O   0  0  0  0  0  0  0  0  0  0  0  0
    5.7182    8.6128   -0.3140 C   0  0  0  0  0  0  0  0  0  0  0  0
    5.0407    5.9756    0.5100 C   0  0  0  0  0  0  0  0  0  0  0  0
    4.6970    4.6558    0.8286 C   0  0  0  0  0  0  0  0  0  0  0  0
    4.5005    3.7013   -0.1690 C   0  0  0  0  0  0  0  0  0  0  0  0
    4.2160    2.4088    0.1975 O   0  0  0  0  0  0  0  0  0  0  0  0
    2.2785    0.3564    2.9210 H   0  0  0  0  0  0  0  0  0  0  0  0
    1.7220    1.9550    2.3731 H   0  0  0  0  0  0  0  0  0  0  0  0
    3.4621    1.6459    2.5871 H   0  0  0  0  0  0  0  0  0  0  0  0
    1.6738    0.2666    0.4817 H   0  0  0  0  0  0  0  0  0  0  0  0
    3.3999   -0.0444    0.7100 H   0  0  0  0  0  0  0  0  0  0  0  0
    2.1823    2.6448   -0.1078 H   0  0  0  0  0  0  0  0  0  0  0  0
    2.0466    0.8081   -1.8475 H   0  0  0  0  0  0  0  0  0  0  0  0
    3.7944    0.5714   -1.6971 H   0  0  0  0  0  0  0  0  0  0  0  0
    2.4288    4.0729   -3.4974 H   0  0  0  0  0  0  0  0  0  0  0  0
    1.4506    3.4375   -2.1767 H   0  0  0  0  0  0  0  0  0  0  0  0
    0.8230    1.4523   -3.6346 H   0  0  0  0  0  0  0  0  0  0  0  0
    1.7502    2.1777   -4.9658 H   0  0  0  0  0  0  0  0  0  0  0  0
    0.0573    3.9291   -5.0749 H   0  0  0  0  0  0  0  0  0  0  0  0
   -4.2496    3.4325   -1.9632 H   0  0  0  0  0  0  0  0  0  0  0  0
   -4.2376    2.0416   -3.0308 H   0  0  0  0  0  0  0  0  0  0  0  0
   -6.5894    2.9706   -2.4406 H   0  0  0  0  0  0  0  0  0  0  0  0
   -6.2901    2.7833   -4.1714 H   0  0  0  0  0  0  0  0  0  0  0  0
   -5.9822    5.4245   -2.6212 H   0  0  0  0  0  0  0  0  0  0  0  0
   -7.3815    4.9986   -3.6124 H   0  0  0  0  0  0  0  0  0  0  0  0
   -5.6512    6.4915   -4.8205 H   0  0  0  0  0  0  0  0  0  0  0  0
   -6.0645    4.9992   -5.6681 H   0  0  0  0  0  0  0  0  0  0  0  0
    4.7078    3.4739   -3.5897 H   0  0  0  0  0  0  0  0  0  0  0  0
    5.2781    2.2348   -2.4621 H   0  0  0  0  0  0  0  0  0  0  0  0
    5.1143    5.6895   -2.8767 H   0  0  0  0  0  0  0  0  0  0  0  0
    5.9640    9.5234   -0.8774 H   0  0  0  0  0  0  0  0  0  0  0  0
    6.5593    8.3750    0.3630 H   0  0  0  0  0  0  0  0  0  0  0  0
    4.8175    8.8049    0.2977 H   0  0  0  0  0  0  0  0  0  0  0  0
    5.1884    6.6962    1.3145 H   0  0  0  0  0  0  0  0  0  0  0  0
    4.5828    4.3519    1.8713 H   0  0  0  0  0  0  0  0  0  0  0  0
  1  2  1  0
  1 30  1  0
  1 31  1  0
  1 32  1  0
  2  3  1  0
  2 33  1  0
  2 34  1  0
  3  4  1  0
  3 29  1  0
  3 35  1  6
  4  5  1  0
  4 36  1  0
  4 37  1  0
  5  6  1  0
  5 20  1  0
  6  7  1  0
  6 38  1  0
  6 39  1  0
  7  8  1  0
  7 40  1  0
  7 41  1  0
  8  9  1  0
  8 42  1  0
  9 10  2  0
  9 11  1  0
 11 12  1  0
 11 15  2  0
 12 13  1  0
 13 14  2  0
 14 15  1  0
 14 19  1  0
 15 16  1  0
 16 17  1  0
 16 43  1  0
 16 44  1  0
 17 18  1  0
 17 45  1  0
 17 46  1  0
 18 19  1  0
 18 47  1  0
 18 48  1  0
 19 49  1  0
 19 50  1  0
 20 21  1  0
 20 51  1  0
 20 52  1  0
 21 22  2  0
 21 28  1  0
 22 23  1  0
 22 53  1  0
 23 24  1  0
 23 26  2  0
 24 25  1  0
 25 54  1  0
 25 55  1  0
 25 56  1  0
 26 27  1  0
 26 57  1  0
 27 28  2  0
 27 58  1  0
 28 29  1  0
M  END

