
     RDKit          3D

 45 46  0  0  0  0  0  0  0  0999 V2000
    0.8596    0.7077   -0.6511 C   0  0  0  0  0  0  0  0  0  0  0  0
    2.3577    0.8931   -0.8181 C   0  0  0  0  0  0  0  0  0  0  0  0
    2.9372   -0.3724   -1.0923 O   0  0  0  0  0  0  0  0  0  0  0  0
    4.3622   -0.4702   -1.0851 C   0  0  1  0  0  0  0  0  0  0  0  0
    4.9604   -0.1838    0.3250 C   0  0  0  0  0  0  0  0  0  0  0  0
    5.9942    0.4546    0.4039 O   0  0  0  0  0  0  0  0  0  0  0  0
    4.3313   -0.7333    1.5839 C   0  0  0  0  0  0  0  0  0  0  0  0
    3.1531   -1.4843    1.6113 C   0  0  0  0  0  0  0  0  0  0  0  0
    2.6575   -1.9642    2.8392 C   0  0  0  0  0  0  0  0  0  0  0  0
    1.5040   -2.6773    2.7675 O   0  0  0  0  0  0  0  0  0  0  0  0
    0.9403   -3.1957    3.9505 C   0  0  0  0  0  0  0  0  0  0  0  0
    3.3370   -1.6939    4.0274 C   0  0  0  0  0  0  0  0  0  0  0  0
    4.5253   -0.9358    3.9942 C   0  0  0  0  0  0  0  0  0  0  0  0
    5.1110   -0.7281    5.2009 O   0  0  0  0  0  0  0  0  0  0  0  0
    6.3072    0.0180    5.2615 C   0  0  0  0  0  0  0  0  0  0  0  0
    5.0224   -0.4556    2.7839 C   0  0  0  0  0  0  0  0  0  0  0  0
    4.6851   -1.9366   -1.4638 C   0  0  0  0  0  0  0  0  0  0  0  0
    4.2360   -2.2755   -2.8916 C   0  0  0  0  0  0  0  0  0  0  0  0
    4.8381   -1.3132   -3.9211 C   0  0  0  0  0  0  0  0  0  0  0  0
    4.5423    0.1461   -3.5541 C   0  0  0  0  0  0  0  0  0  0  0  0
    5.0039    0.4699   -2.1287 C   0  0  0  0  0  0  0  0  0  0  0  0
    0.3700    1.6800   -0.4836 H   0  0  0  0  0  0  0  0  0  0  0  0
    0.6353    0.0535    0.2051 H   0  0  0  0  0  0  0  0  0  0  0  0
    0.4252    0.2519   -1.5546 H   0  0  0  0  0  0  0  0  0  0  0  0
    2.7937    1.3329    0.1005 H   0  0  0  0  0  0  0  0  0  0  0  0
    2.5601    1.6018   -1.6430 H   0  0  0  0  0  0  0  0  0  0  0  0
    2.5916   -1.6989    0.7059 H   0  0  0  0  0  0  0  0  0  0  0  0
    0.0273   -3.7300    3.6549 H   0  0  0  0  0  0  0  0  0  0  0  0
    0.6712   -2.3955    4.6638 H   0  0  0  0  0  0  0  0  0  0  0  0
    1.6217   -3.9043    4.4553 H   0  0  0  0  0  0  0  0  0  0  0  0
    2.9884   -2.0449    4.9977 H   0  0  0  0  0  0  0  0  0  0  0  0
    6.5976    0.0569    6.3200 H   0  0  0  0  0  0  0  0  0  0  0  0
    6.1676    1.0484    4.8888 H   0  0  0  0  0  0  0  0  0  0  0  0
    7.1183   -0.4591    4.6831 H   0  0  0  0  0  0  0  0  0  0  0  0
    5.9369    0.1300    2.7163 H   0  0  0  0  0  0  0  0  0  0  0  0
    4.2103   -2.6165   -0.7411 H   0  0  0  0  0  0  0  0  0  0  0  0
    5.7755   -2.0772   -1.3683 H   0  0  0  0  0  0  0  0  0  0  0  0
    3.1358   -2.2238   -2.9371 H   0  0  0  0  0  0  0  0  0  0  0  0
    4.5163   -3.3167   -3.1242 H   0  0  0  0  0  0  0  0  0  0  0  0
    4.4545   -1.5424   -4.9297 H   0  0  0  0  0  0  0  0  0  0  0  0
    5.9335   -1.4609   -3.9629 H   0  0  0  0  0  0  0  0  0  0  0  0
    3.4578    0.3308   -3.6447 H   0  0  0  0  0  0  0  0  0  0  0  0
    5.0370    0.8289   -4.2652 H   0  0  0  0  0  0  0  0  0  0  0  0
    4.7964    1.5201   -1.8712 H   0  0  0  0  0  0  0  0  0  0  0  0
    6.0956    0.3630   -2.0486 H   0  0  0  0  0  0  0  0  0  0  0  0
  1  2  1  0
  1 22  1  0
  1 23  1  0
  1 24  1  0
  2  3  1  0
  2 25  1  0
  2 26  1  0
  4  3  1  1
  4  5  1  0
  4 17  1  0
  4 21  1  0
  5  6  2  0
  5  7  1  0
  7  8  2  0
  7 16  1  0
  8  9  1  0
  8 27  1  0
  9 10  1  0
  9 12  2  0
 10 11  1  0
 11 28  1  0
 11 29  1  0
 11 30  1  0
 12 13  1  0
 12 31  1  0
 13 14  1  0
 13 16  2  0
 14 15  1  0
 15 32  1  0
 15 33  1  0
 15 34  1  0
 16 35  1  0
 17 18  1  0
 17 36  1  0
 17 37  1  0
 18 19  1  0
 18 38  1  0
 18 39  1  0
 19 20  1  0
 19 40  1  0
 19 41  1  0
 20 21  1  0
 20 42  1  0
 20 43  1  0
 21 44  1  0
 21 45  1  0
M  END

