
     RDKit          3D

 46 47  0  0  0  0  0  0  0  0999 V2000
    2.8385    0.7687   -0.9331 C   0  0  0  0  0  0  0  0  0  0  0  0
    2.1587   -0.0868   -0.0447 O   0  0  0  0  0  0  0  0  0  0  0  0
    2.8735   -0.8411    0.8310 C   0  0  0  0  0  0  0  0  0  0  0  0
    2.1336   -1.6602    1.6922 C   0  0  0  0  0  0  0  0  0  0  0  0
    2.7529   -2.4867    2.6324 C   0  0  0  0  0  0  0  0  0  0  0  0
    1.8595   -3.3061    3.5370 C   0  0  0  0  0  0  0  0  0  0  0  0
    4.1749   -2.5013    2.7255 C   0  0  0  0  0  0  0  0  0  0  0  0
    4.9188   -3.3294    3.6954 C   0  0  0  0  0  0  0  0  0  0  0  0
    4.6599   -4.6057    4.0589 C   0  0  0  0  0  0  0  0  0  0  0  0
    5.4101   -5.4383    5.0200 C   0  0  0  0  0  0  0  0  0  0  0  0
    5.9259   -4.9439    6.2531 C   0  0  0  0  0  0  0  0  0  0  0  0
    5.7368   -3.5149    6.7112 C   0  0  0  0  0  0  0  0  0  0  0  0
    6.6118   -5.8094    7.1080 C   0  0  0  0  0  0  0  0  0  0  0  0
    6.8111   -7.1574    6.7865 C   0  0  0  0  0  0  0  0  0  0  0  0
    7.4993   -7.8977    7.6949 O   0  0  0  0  0  0  0  0  0  0  0  0
    7.7274   -9.2639    7.4406 C   0  0  0  0  0  0  0  0  0  0  0  0
    6.2941   -7.6539    5.5844 C   0  0  0  0  0  0  0  0  0  0  0  0
    5.5936   -6.8119    4.7102 C   0  0  0  0  0  0  0  0  0  0  0  0
    5.0598   -7.3963    3.4216 C   0  0  0  0  0  0  0  0  0  0  0  0
    4.9194   -1.6502    1.8666 C   0  0  0  0  0  0  0  0  0  0  0  0
    6.4301   -1.6146    1.9261 C   0  0  0  0  0  0  0  0  0  0  0  0
    4.2699   -0.8383    0.9271 C   0  0  0  0  0  0  0  0  0  0  0  0
    2.0694    1.2700   -1.5367 H   0  0  0  0  0  0  0  0  0  0  0  0
    3.5139    0.2119   -1.6081 H   0  0  0  0  0  0  0  0  0  0  0  0
    3.4282    1.5359   -0.3989 H   0  0  0  0  0  0  0  0  0  0  0  0
    1.0444   -1.6269    1.6162 H   0  0  0  0  0  0  0  0  0  0  0  0
    0.8549   -2.8607    3.5892 H   0  0  0  0  0  0  0  0  0  0  0  0
    2.2619   -3.3791    4.5578 H   0  0  0  0  0  0  0  0  0  0  0  0
    1.7346   -4.3386    3.1691 H   0  0  0  0  0  0  0  0  0  0  0  0
    5.8106   -2.8571    4.1157 H   0  0  0  0  0  0  0  0  0  0  0  0
    3.8367   -5.1159    3.5520 H   0  0  0  0  0  0  0  0  0  0  0  0
    6.4941   -2.8387    6.2798 H   0  0  0  0  0  0  0  0  0  0  0  0
    5.8323   -3.4472    7.8051 H   0  0  0  0  0  0  0  0  0  0  0  0
    4.7536   -3.1160    6.4217 H   0  0  0  0  0  0  0  0  0  0  0  0
    7.0025   -5.4502    8.0628 H   0  0  0  0  0  0  0  0  0  0  0  0
    8.2946   -9.6525    8.2975 H   0  0  0  0  0  0  0  0  0  0  0  0
    8.3202   -9.4201    6.5208 H   0  0  0  0  0  0  0  0  0  0  0  0
    6.7831   -9.8316    7.3518 H   0  0  0  0  0  0  0  0  0  0  0  0
    6.4286   -8.7000    5.3080 H   0  0  0  0  0  0  0  0  0  0  0  0
    5.3534   -8.4505    3.3142 H   0  0  0  0  0  0  0  0  0  0  0  0
    5.4302   -6.8488    2.5399 H   0  0  0  0  0  0  0  0  0  0  0  0
    3.9577   -7.3558    3.3778 H   0  0  0  0  0  0  0  0  0  0  0  0
    6.8684   -2.6165    1.7907 H   0  0  0  0  0  0  0  0  0  0  0  0
    6.7943   -1.2402    2.8984 H   0  0  0  0  0  0  0  0  0  0  0  0
    6.8409   -0.9564    1.1469 H   0  0  0  0  0  0  0  0  0  0  0  0
    4.8737   -0.2079    0.2738 H   0  0  0  0  0  0  0  0  0  0  0  0
  1  2  1  0
  1 23  1  0
  1 24  1  0
  1 25  1  0
  2  3  1  0
  3  4  2  0
  3 22  1  0
  4  5  1  0
  4 26  1  0
  5  6  1  0
  5  7  2  0
  6 27  1  0
  6 28  1  0
  6 29  1  0
  7  8  1  0
  7 20  1  0
  8  9  2  0
  8 30  1  0
  9 10  1  0
  9 31  1  0
 10 11  2  0
 10 18  1  0
 11 12  1  0
 11 13  1  0
 12 32  1  0
 12 33  1  0
 12 34  1  0
 13 14  2  0
 13 35  1  0
 14 15  1  0
 14 17  1  0
 15 16  1  0
 16 36  1  0
 16 37  1  0
 16 38  1  0
 17 18  2  0
 17 39  1  0
 18 19  1  0
 19 40  1  0
 19 41  1  0
 19 42  1  0
 20 21  1  0
 20 22  2  0
 21 43  1  0
 21 44  1  0
 21 45  1  0
 22 46  1  0
M  END

