
     RDKit          3D

 32 34  0  0  0  0  0  0  0  0999 V2000
    0.9358    0.8639   -0.0987 C   0  0  0  0  0  0  0  0  0  0  0  0
    2.4128    0.5522   -0.1196 C   0  0  0  0  0  0  0  0  0  0  0  0
    3.3791    1.5382    0.1285 C   0  0  0  0  0  0  0  0  0  0  0  0
    4.7412    1.2457    0.0950 C   0  0  0  0  0  0  0  0  0  0  0  0
    5.1959   -0.0561   -0.1898 C   0  0  0  0  0  0  0  0  0  0  0  0
    6.5812   -0.2619   -0.2021 N   0  0  0  0  0  0  0  0  0  0  0  0
    7.3631   -1.3662   -0.4333 C   0  0  0  0  0  0  0  0  0  0  0  0
    8.6892   -1.1132   -0.3436 N   0  0  0  0  0  0  0  0  0  0  0  0
    9.4989   -2.1422   -0.5558 C   0  0  0  0  0  0  0  0  0  0  0  0
    9.0398   -3.4264   -0.8572 C   0  0  0  0  0  0  0  0  0  0  0  0
    7.6462   -3.5806   -0.9275 C   0  0  0  0  0  0  0  0  0  0  0  0
    7.0347   -4.8680   -1.2353 C   0  0  0  0  0  0  0  0  0  0  0  0
    5.7263   -5.2707   -1.3635 C   0  0  0  0  0  0  0  0  0  0  0  0
    5.7619   -6.6631   -1.6782 C   0  0  0  0  0  0  0  0  0  0  0  0
    7.0865   -7.0062   -1.7183 C   0  0  0  0  0  0  0  0  0  0  0  0
    7.8623   -5.9317   -1.4526 O   0  0  0  0  0  0  0  0  0  0  0  0
    6.8112   -2.5500   -0.7152 N   0  0  0  0  0  0  0  0  0  0  0  0
    4.2371   -1.0559   -0.4390 C   0  0  0  0  0  0  0  0  0  0  0  0
    2.8783   -0.7417   -0.4004 C   0  0  0  0  0  0  0  0  0  0  0  0
    0.7435    1.8832    0.2688 H   0  0  0  0  0  0  0  0  0  0  0  0
    0.3832    0.1634    0.5493 H   0  0  0  0  0  0  0  0  0  0  0  0
    0.4920    0.7860   -1.1065 H   0  0  0  0  0  0  0  0  0  0  0  0
    3.0626    2.5606    0.3544 H   0  0  0  0  0  0  0  0  0  0  0  0
    5.4690    2.0384    0.2945 H   0  0  0  0  0  0  0  0  0  0  0  0
    7.1500    0.5542   -0.0036 H   0  0  0  0  0  0  0  0  0  0  0  0
   10.5749   -1.9407   -0.4841 H   0  0  0  0  0  0  0  0  0  0  0  0
    9.7177   -4.2611   -1.0283 H   0  0  0  0  0  0  0  0  0  0  0  0
    4.8544   -4.6337   -1.2441 H   0  0  0  0  0  0  0  0  0  0  0  0
    4.9161   -7.3249   -1.8522 H   0  0  0  0  0  0  0  0  0  0  0  0
    7.6096   -7.9387   -1.9147 H   0  0  0  0  0  0  0  0  0  0  0  0
    4.5727   -2.0658   -0.6577 H   0  0  0  0  0  0  0  0  0  0  0  0
    2.1543   -1.5390   -0.5967 H   0  0  0  0  0  0  0  0  0  0  0  0
  1  2  1  0
  1 20  1  0
  1 21  1  0
  1 22  1  0
  2  3  2  0
  2 19  1  0
  3  4  1  0
  3 23  1  0
  4  5  2  0
  4 24  1  0
  5  6  1  0
  5 18  1  0
  6  7  1  0
  6 25  1  0
  7  8  2  0
  7 17  1  0
  8  9  1  0
  9 10  2  0
  9 26  1  0
 10 11  1  0
 10 27  1  0
 11 12  1  0
 11 17  2  0
 12 13  2  0
 12 16  1  0
 13 14  1  0
 13 28  1  0
 14 15  2  0
 14 29  1  0
 15 16  1  0
 15 30  1  0
 18 19  2  0
 18 31  1  0
 19 32  1  0
M  END

