
     RDKit          3D

 65 68  0  0  0  0  0  0  0  0999 V2000
    1.4955   -0.8799    0.2833 C   0  0  0  0  0  0  0  0  0  0  0  0
    2.4937   -0.0411   -0.2592 O   0  0  0  0  0  0  0  0  0  0  0  0
    3.1283    0.8394    0.5403 C   0  0  0  0  0  0  0  0  0  0  0  0
    2.8525    1.0224    1.9050 C   0  0  0  0  0  0  0  0  0  0  0  0
    3.5459    1.9733    2.6564 C   0  0  0  0  0  0  0  0  0  0  0  0
    4.5497    2.7520    2.0679 C   0  0  0  0  0  0  0  0  0  0  0  0
    5.2321    3.7619    2.8142 N   0  0  0  0  0  0  0  0  0  0  0  0
    4.8681    5.1637    2.6330 C   0  0  0  0  0  0  0  0  0  0  0  0
    5.3573    5.7124    1.2840 C   0  0  0  0  0  0  0  0  0  0  0  0
    6.5430    5.9025    1.0689 O   0  0  0  0  0  0  0  0  0  0  0  0
    4.3635    5.9165    0.3626 N   0  0  0  0  0  0  0  0  0  0  0  0
    4.5004    6.2311   -1.0089 C   0  0  0  0  0  0  0  0  0  0  0  0
    5.6344    6.8568   -1.5457 C   0  0  0  0  0  0  0  0  0  0  0  0
    5.6824    7.1044   -2.9175 C   0  0  0  0  0  0  0  0  0  0  0  0
    4.6521    6.7493   -3.8012 C   0  0  0  0  0  0  0  0  0  0  0  0
    4.7983    6.9870   -5.2803 C   0  0  0  0  0  0  0  0  0  0  0  0
    3.5083    6.1365   -3.2398 C   0  0  0  0  0  0  0  0  0  0  0  0
    2.4290    5.6948   -4.0538 N   0  0  0  0  0  0  0  0  0  0  0  0
    1.8350    4.3629   -3.9006 C   0  0  0  0  0  0  0  0  0  0  0  0
    0.9892    4.2132   -5.1749 C   0  0  0  0  0  0  0  0  0  0  0  0
    0.5626    5.6531   -5.4787 C   0  0  0  0  0  0  0  0  0  0  0  0
    1.6781    6.5147   -4.8839 C   0  0  0  0  0  0  0  0  0  0  0  0
    1.8591    7.6984   -5.0717 O   0  0  0  0  0  0  0  0  0  0  0  0
    3.4457    5.8859   -1.8637 C   0  0  0  0  0  0  0  0  0  0  0  0
    6.3072    3.3125    4.0553 S   0  0  1  0  0  0  0  0  0  0  0  0
    6.6254    4.5535    4.7656 O   0  0  0  0  0  0  0  0  0  0  0  0
    5.7296    2.1670    4.7641 O   0  0  0  0  0  0  0  0  0  0  0  0
    7.7785    2.7313    3.2132 C   0  0  0  0  0  0  0  0  0  0  0  0
    8.5056    3.6096    2.3995 C   0  0  0  0  0  0  0  0  0  0  0  0
    9.6743    3.1493    1.7975 C   0  0  0  0  0  0  0  0  0  0  0  0
   10.1356    1.8339    1.9966 C   0  0  0  0  0  0  0  0  0  0  0  0
   11.4086    1.3650    1.3375 C   0  0  0  0  0  0  0  0  0  0  0  0
    9.3827    0.9819    2.8175 C   0  0  0  0  0  0  0  0  0  0  0  0
    8.2048    1.4205    3.4290 C   0  0  0  0  0  0  0  0  0  0  0  0
    4.8537    2.5582    0.7088 C   0  0  0  0  0  0  0  0  0  0  0  0
    4.1410    1.6322   -0.0469 C   0  0  0  0  0  0  0  0  0  0  0  0
    4.5049    1.4301   -1.7433 Cl  0  0  0  0  0  0  0  0  0  0  0  0
    1.1402   -1.5107   -0.5420 H   0  0  0  0  0  0  0  0  0  0  0  0
    0.6451   -0.2995    0.6836 H   0  0  0  0  0  0  0  0  0  0  0  0
    1.8957   -1.5269    1.0837 H   0  0  0  0  0  0  0  0  0  0  0  0
    2.0837    0.4228    2.3923 H   0  0  0  0  0  0  0  0  0  0  0  0
    3.3255    2.1032    3.7161 H   0  0  0  0  0  0  0  0  0  0  0  0
    5.3607    5.7434    3.4250 H   0  0  0  0  0  0  0  0  0  0  0  0
    3.7754    5.2809    2.7490 H   0  0  0  0  0  0  0  0  0  0  0  0
    3.4317    5.6404    0.6492 H   0  0  0  0  0  0  0  0  0  0  0  0
    6.4689    7.1178   -0.8996 H   0  0  0  0  0  0  0  0  0  0  0  0
    6.5777    7.5788   -3.3287 H   0  0  0  0  0  0  0  0  0  0  0  0
    5.8437    7.2083   -5.5392 H   0  0  0  0  0  0  0  0  0  0  0  0
    4.1619    7.8230   -5.6089 H   0  0  0  0  0  0  0  0  0  0  0  0
    4.4794    6.1039   -5.8579 H   0  0  0  0  0  0  0  0  0  0  0  0
    1.1951    4.3104   -2.9982 H   0  0  0  0  0  0  0  0  0  0  0  0
    2.6181    3.5978   -3.7908 H   0  0  0  0  0  0  0  0  0  0  0  0
    0.1484    3.5178   -5.0385 H   0  0  0  0  0  0  0  0  0  0  0  0
    1.6181    3.8231   -5.9912 H   0  0  0  0  0  0  0  0  0  0  0  0
   -0.3769    5.9265   -4.9667 H   0  0  0  0  0  0  0  0  0  0  0  0
    0.4287    5.8864   -6.5444 H   0  0  0  0  0  0  0  0  0  0  0  0
    2.5583    5.4005   -1.4506 H   0  0  0  0  0  0  0  0  0  0  0  0
    8.1461    4.6245    2.2153 H   0  0  0  0  0  0  0  0  0  0  0  0
   10.2429    3.8276    1.1549 H   0  0  0  0  0  0  0  0  0  0  0  0
   11.3535    1.4759    0.2418 H   0  0  0  0  0  0  0  0  0  0  0  0
   11.6177    0.3089    1.5614 H   0  0  0  0  0  0  0  0  0  0  0  0
   12.2729    1.9605    1.6764 H   0  0  0  0  0  0  0  0  0  0  0  0
    9.7209   -0.0444    2.9843 H   0  0  0  0  0  0  0  0  0  0  0  0
    7.6178    0.7612    4.0697 H   0  0  0  0  0  0  0  0  0  0  0  0
    5.6515    3.1315    0.2358 H   0  0  0  0  0  0  0  0  0  0  0  0
  1  2  1  0
  1 38  1  0
  1 39  1  0
  1 40  1  0
  2  3  1  0
  3  4  2  0
  3 36  1  0
  4  5  1  0
  4 41  1  0
  5  6  2  0
  5 42  1  0
  6  7  1  0
  6 35  1  0
  7  8  1  0
 25  7  1  6
  8  9  1  0
  8 43  1  0
  8 44  1  0
  9 10  2  0
  9 11  1  0
 11 12  1  0
 11 45  1  0
 12 13  2  0
 12 24  1  0
 13 14  1  0
 13 46  1  0
 14 15  2  0
 14 47  1  0
 15 16  1  0
 15 17  1  0
 16 48  1  0
 16 49  1  0
 16 50  1  0
 17 18  1  0
 17 24  2  0
 18 19  1  0
 18 22  1  0
 19 20  1  0
 19 51  1  0
 19 52  1  0
 20 21  1  0
 20 53  1  0
 20 54  1  0
 21 22  1  0
 21 55  1  0
 21 56  1  0
 22 23  2  0
 24 57  1  0
 25 26  2  0
 25 27  2  0
 25 28  1  0
 28 29  2  0
 28 34  1  0
 29 30  1  0
 29 58  1  0
 30 31  2  0
 30 59  1  0
 31 32  1  0
 31 33  1  0
 32 60  1  0
 32 61  1  0
 32 62  1  0
 33 34  2  0
 33 63  1  0
 34 64  1  0
 35 36  2  0
 35 65  1  0
 36 37  1  0
M  END

