
     RDKit          3D

 57 58  0  0  0  0  0  0  0  0999 V2000
    1.6302    1.4854    2.1459 C   0  0  0  0  0  0  0  0  0  0  0  0
    2.9820    1.0849    1.5653 C   0  0  0  0  0  0  0  0  0  0  0  0
    3.4291   -0.1941    2.0929 N   0  0  0  0  0  0  0  0  0  0  0  0
    4.7098   -0.6487    1.5794 C   0  0  0  0  0  0  0  0  0  0  0  0
    5.1840   -1.9501    2.2502 C   0  0  1  0  0  0  0  0  0  0  0  0
    4.2826   -3.1716    1.9676 C   0  0  0  0  0  0  0  0  0  0  0  0
    4.4399   -3.7069    0.5394 C   0  0  0  0  0  0  0  0  0  0  0  0
    5.8411   -4.0000    0.2411 N   0  0  0  0  0  0  0  0  0  0  0  0
    6.2150   -5.2984    0.0368 C   0  0  0  0  0  0  0  0  0  0  0  0
    5.4329   -6.2341   -0.0040 O   0  0  0  0  0  0  0  0  0  0  0  0
    7.6728   -5.5668   -0.3090 C   0  0  0  0  0  0  0  0  0  0  0  0
    8.0341   -5.4775   -1.6648 C   0  0  0  0  0  0  0  0  0  0  0  0
    9.2947   -5.8699   -2.1215 C   0  0  0  0  0  0  0  0  0  0  0  0
    9.7027   -5.8070   -3.4007 O   0  0  0  0  0  0  0  0  0  0  0  0
    8.8158   -5.3307   -4.3928 C   0  0  0  0  0  0  0  0  0  0  0  0
   10.2486   -6.3869   -1.1935 C   0  0  0  0  0  0  0  0  0  0  0  0
   11.4407   -6.7467   -1.7114 O   0  0  0  0  0  0  0  0  0  0  0  0
   12.4347   -7.2822   -0.8564 C   0  0  0  0  0  0  0  0  0  0  0  0
   13.6449   -7.6027   -1.7171 C   0  0  0  0  0  0  0  0  0  0  0  0
   14.6340   -8.1240   -0.8719 O   0  0  0  0  0  0  0  0  0  0  0  0
   15.8212   -8.4774   -1.5312 C   0  0  0  0  0  0  0  0  0  0  0  0
    9.9000   -6.4824    0.1468 C   0  0  0  0  0  0  0  0  0  0  0  0
    8.6268   -6.0718    0.5764 C   0  0  0  0  0  0  0  0  0  0  0  0
    8.3452   -6.1726    2.0132 N   0  0  0  0  0  0  0  0  0  0  0  0
    7.3370   -5.6213    2.4381 O   0  0  0  0  0  0  0  0  0  0  0  0
    9.1371   -6.7873    2.7109 O   0  0  0  0  0  0  0  0  0  0  0  0
    6.7603   -2.8860    0.4489 C   0  0  0  0  0  0  0  0  0  0  0  0
    6.6348   -2.3089    1.8682 C   0  0  0  0  0  0  0  0  0  0  0  0
    1.3164    2.4739    1.7754 H   0  0  0  0  0  0  0  0  0  0  0  0
    1.6762    1.5199    3.2454 H   0  0  0  0  0  0  0  0  0  0  0  0
    0.8451    0.7625    1.8644 H   0  0  0  0  0  0  0  0  0  0  0  0
    3.7374    1.8467    1.8315 H   0  0  0  0  0  0  0  0  0  0  0  0
    2.9257    1.0967    0.4508 H   0  0  0  0  0  0  0  0  0  0  0  0
    2.7117   -0.8980    1.9217 H   0  0  0  0  0  0  0  0  0  0  0  0
    5.4545    0.1376    1.7988 H   0  0  0  0  0  0  0  0  0  0  0  0
    4.7120   -0.7534    0.4688 H   0  0  0  0  0  0  0  0  0  0  0  0
    5.1526   -1.7525    3.3348 H   0  0  0  0  0  0  0  0  0  0  0  0
    3.2216   -2.9387    2.1597 H   0  0  0  0  0  0  0  0  0  0  0  0
    4.5504   -3.9786    2.6691 H   0  0  0  0  0  0  0  0  0  0  0  0
    4.0690   -2.9706   -0.1979 H   0  0  0  0  0  0  0  0  0  0  0  0
    3.8748   -4.6367    0.4006 H   0  0  0  0  0  0  0  0  0  0  0  0
    7.2928   -5.1050   -2.3714 H   0  0  0  0  0  0  0  0  0  0  0  0
    9.3620   -5.3782   -5.3438 H   0  0  0  0  0  0  0  0  0  0  0  0
    8.5147   -4.2855   -4.2021 H   0  0  0  0  0  0  0  0  0  0  0  0
    7.9105   -5.9584   -4.4645 H   0  0  0  0  0  0  0  0  0  0  0  0
   12.0756   -8.1999   -0.3568 H   0  0  0  0  0  0  0  0  0  0  0  0
   12.7152   -6.5567   -0.0713 H   0  0  0  0  0  0  0  0  0  0  0  0
   13.9882   -6.6809   -2.2313 H   0  0  0  0  0  0  0  0  0  0  0  0
   13.3562   -8.3268   -2.5070 H   0  0  0  0  0  0  0  0  0  0  0  0
   16.5190   -8.8711   -0.7781 H   0  0  0  0  0  0  0  0  0  0  0  0
   16.2935   -7.6067   -2.0300 H   0  0  0  0  0  0  0  0  0  0  0  0
   15.6520   -9.2591   -2.2993 H   0  0  0  0  0  0  0  0  0  0  0  0
   10.5862   -6.8720    0.8946 H   0  0  0  0  0  0  0  0  0  0  0  0
    6.5459   -2.1048   -0.3045 H   0  0  0  0  0  0  0  0  0  0  0  0
    7.7882   -3.2262    0.2673 H   0  0  0  0  0  0  0  0  0  0  0  0
    7.2870   -1.4230    1.9555 H   0  0  0  0  0  0  0  0  0  0  0  0
    7.0126   -3.0640    2.5751 H   0  0  0  0  0  0  0  0  0  0  0  0
  1  2  1  0
  1 29  1  0
  1 30  1  0
  1 31  1  0
  2  3  1  0
  2 32  1  0
  2 33  1  0
  3  4  1  0
  3 34  1  0
  4  5  1  0
  4 35  1  0
  4 36  1  0
  5  6  1  0
  5 28  1  0
  5 37  1  1
  6  7  1  0
  6 38  1  0
  6 39  1  0
  7  8  1  0
  7 40  1  0
  7 41  1  0
  8  9  1  0
  8 27  1  0
  9 10  2  0
  9 11  1  0
 11 12  2  0
 11 23  1  0
 12 13  1  0
 12 42  1  0
 13 14  1  0
 13 16  2  0
 14 15  1  0
 15 43  1  0
 15 44  1  0
 15 45  1  0
 16 17  1  0
 16 22  1  0
 17 18  1  0
 18 19  1  0
 18 46  1  0
 18 47  1  0
 19 20  1  0
 19 48  1  0
 19 49  1  0
 20 21  1  0
 21 50  1  0
 21 51  1  0
 21 52  1  0
 22 23  2  0
 22 53  1  0
 23 24  1  0
 24 25  2  0
 24 26  1  0
 27 28  1  0
 27 54  1  0
 27 55  1  0
 28 56  1  0
 28 57  1  0
M  CHG  2  24   1  26  -1
M  END

