
     RDKit          3D

 76 84  0  0  0  0  0  0  0  0999 V2000
    5.0906   -1.8815   -1.2568 C   0  0  0  0  0  0  0  0  0  0  0  0
    6.3529   -1.2875   -1.3328 C   0  0  0  0  0  0  0  0  0  0  0  0
    7.0895   -1.0258   -0.1753 C   0  0  0  0  0  0  0  0  0  0  0  0
    6.5777   -1.3699    1.0891 C   0  0  0  0  0  0  0  0  0  0  0  0
    7.3343   -1.1371    2.2657 N   0  0  0  0  0  0  0  0  0  0  0  0
    6.7137   -0.6875    3.4620 C   0  0  0  0  0  0  0  0  0  0  0  0
    7.2060   -1.1169    4.7090 C   0  0  0  0  0  0  0  0  0  0  0  0
    6.6218   -0.6676    5.8937 C   0  0  0  0  0  0  0  0  0  0  0  0
    5.5292    0.2053    5.8623 C   0  0  0  0  0  0  0  0  0  0  0  0
    5.0343    0.6321    4.6262 C   0  0  0  0  0  0  0  0  0  0  0  0
    5.6220    0.2003    3.4355 C   0  0  0  0  0  0  0  0  0  0  0  0
    8.7591   -1.1206    2.1981 C   0  0  0  0  0  0  0  0  0  0  0  0
    9.4505    0.0490    2.4701 C   0  0  0  0  0  0  0  0  0  0  0  0
   10.8512    0.0945    2.4116 C   0  0  0  0  0  0  0  0  0  0  0  0
   11.6148   -1.0190    2.0639 C   0  0  0  0  0  0  0  0  0  0  0  0
   13.0886   -0.9672    1.9966 C   0  0  0  0  0  0  0  0  0  0  0  0
   13.8022    0.1776    2.3486 C   0  0  0  0  0  0  0  0  0  0  0  0
   15.2053    0.2263    2.2727 C   0  0  0  0  0  0  0  0  0  0  0  0
   15.9209   -0.8631    1.8225 C   0  0  0  0  0  0  0  0  0  0  0  0
   15.2503   -2.0557    1.4430 C   0  0  0  0  0  0  0  0  0  0  0  0
   15.9732   -3.2023    0.9720 C   0  0  0  0  0  0  0  0  0  0  0  0
   17.3900   -3.1590    0.8116 N   0  0  0  0  0  0  0  0  0  0  0  0
   18.1697   -4.1458    1.4729 C   0  0  0  0  0  0  0  0  0  0  0  0
   19.1969   -4.8393    0.8063 C   0  0  0  0  0  0  0  0  0  0  0  0
   19.9440   -5.8095    1.4772 C   0  0  0  0  0  0  0  0  0  0  0  0
   19.6740   -6.1205    2.8135 C   0  0  0  0  0  0  0  0  0  0  0  0
   18.6457   -5.4423    3.4764 C   0  0  0  0  0  0  0  0  0  0  0  0
   17.9040   -4.4602    2.8191 C   0  0  0  0  0  0  0  0  0  0  0  0
   17.9613   -2.3050   -0.1654 C   0  0  0  0  0  0  0  0  0  0  0  0
   17.2386   -1.9450   -1.3176 C   0  0  0  0  0  0  0  0  0  0  0  0
   17.7949   -1.0776   -2.2604 C   0  0  0  0  0  0  0  0  0  0  0  0
   19.0820   -0.5629   -2.0857 C   0  0  0  0  0  0  0  0  0  0  0  0
   19.8067   -0.9210   -0.9432 C   0  0  0  0  0  0  0  0  0  0  0  0
   19.2547   -1.7735    0.0125 C   0  0  0  0  0  0  0  0  0  0  0  0
   15.2809   -4.3682    0.6869 C   0  0  0  0  0  0  0  0  0  0  0  0
   13.8880   -4.4398    0.8353 C   0  0  0  0  0  0  0  0  0  0  0  0
   13.1307   -3.3479    1.2576 C   0  0  0  0  0  0  0  0  0  0  0  0
   11.6640   -3.4235    1.4069 C   0  0  0  0  0  0  0  0  0  0  0  0
   10.9631   -4.6115    1.2041 C   0  0  0  0  0  0  0  0  0  0  0  0
    9.5652   -4.6769    1.3380 C   0  0  0  0  0  0  0  0  0  0  0  0
    8.8381   -3.5491    1.6559 C   0  0  0  0  0  0  0  0  0  0  0  0
    9.4941   -2.3077    1.8670 C   0  0  0  0  0  0  0  0  0  0  0  0
   10.9297   -2.2447    1.7723 C   0  0  0  0  0  0  0  0  0  0  0  0
   13.8165   -2.1248    1.5579 C   0  0  0  0  0  0  0  0  0  0  0  0
    5.3091   -1.9803    1.1598 C   0  0  0  0  0  0  0  0  0  0  0  0
    4.5752   -2.2223   -0.0011 C   0  0  0  0  0  0  0  0  0  0  0  0
    4.5152   -2.0796   -2.1641 H   0  0  0  0  0  0  0  0  0  0  0  0
    6.7714   -1.0126   -2.3046 H   0  0  0  0  0  0  0  0  0  0  0  0
    8.0695   -0.5516   -0.2481 H   0  0  0  0  0  0  0  0  0  0  0  0
    8.0507   -1.8078    4.7409 H   0  0  0  0  0  0  0  0  0  0  0  0
    7.0189   -1.0142    6.8514 H   0  0  0  0  0  0  0  0  0  0  0  0
    5.0694    0.5501    6.7914 H   0  0  0  0  0  0  0  0  0  0  0  0
    4.1875    1.3224    4.5843 H   0  0  0  0  0  0  0  0  0  0  0  0
    5.2365    0.5531    2.4775 H   0  0  0  0  0  0  0  0  0  0  0  0
    8.8909    0.9503    2.7281 H   0  0  0  0  0  0  0  0  0  0  0  0
   11.3350    1.0468    2.6274 H   0  0  0  0  0  0  0  0  0  0  0  0
   13.2765    1.0635    2.7042 H   0  0  0  0  0  0  0  0  0  0  0  0
   15.7278    1.1376    2.5737 H   0  0  0  0  0  0  0  0  0  0  0  0
   17.0077   -0.8214    1.7635 H   0  0  0  0  0  0  0  0  0  0  0  0
   19.4066   -4.6164   -0.2412 H   0  0  0  0  0  0  0  0  0  0  0  0
   20.7376   -6.3378    0.9420 H   0  0  0  0  0  0  0  0  0  0  0  0
   20.2579   -6.8843    3.3324 H   0  0  0  0  0  0  0  0  0  0  0  0
   18.4239   -5.6703    4.5223 H   0  0  0  0  0  0  0  0  0  0  0  0
   17.1111   -3.9260    3.3461 H   0  0  0  0  0  0  0  0  0  0  0  0
   16.2366   -2.3482   -1.4723 H   0  0  0  0  0  0  0  0  0  0  0  0
   17.2140   -0.8109   -3.1473 H   0  0  0  0  0  0  0  0  0  0  0  0
   19.5156    0.1109   -2.8283 H   0  0  0  0  0  0  0  0  0  0  0  0
   20.8119   -0.5212   -0.7847 H   0  0  0  0  0  0  0  0  0  0  0  0
   19.8241   -2.0312    0.9073 H   0  0  0  0  0  0  0  0  0  0  0  0
   15.8327   -5.2421    0.3349 H   0  0  0  0  0  0  0  0  0  0  0  0
   13.4014   -5.3825    0.5861 H   0  0  0  0  0  0  0  0  0  0  0  0
   11.4971   -5.5255    0.9448 H   0  0  0  0  0  0  0  0  0  0  0  0
    9.0555   -5.6318    1.1873 H   0  0  0  0  0  0  0  0  0  0  0  0
    7.7550   -3.6033    1.7571 H   0  0  0  0  0  0  0  0  0  0  0  0
    4.9029   -2.2664    2.1316 H   0  0  0  0  0  0  0  0  0  0  0  0
    3.5930   -2.6963    0.0773 H   0  0  0  0  0  0  0  0  0  0  0  0
  1  2  2  0
  1 46  1  0
  1 47  1  0
  2  3  1  0
  2 48  1  0
  3  4  2  0
  3 49  1  0
  4  5  1  0
  4 45  1  0
  5  6  1  0
  5 12  1  0
  6  7  2  0
  6 11  1  0
  7  8  1  0
  7 50  1  0
  8  9  2  0
  8 51  1  0
  9 10  1  0
  9 52  1  0
 10 11  2  0
 10 53  1  0
 11 54  1  0
 12 13  2  0
 12 42  1  0
 13 14  1  0
 13 55  1  0
 14 15  2  0
 14 56  1  0
 15 16  1  0
 15 43  1  0
 16 17  2  0
 16 44  1  0
 17 18  1  0
 17 57  1  0
 18 19  2  0
 18 58  1  0
 19 20  1  0
 19 59  1  0
 20 21  1  0
 20 44  2  0
 21 22  1  0
 21 35  2  0
 22 23  1  0
 22 29  1  0
 23 24  2  0
 23 28  1  0
 24 25  1  0
 24 60  1  0
 25 26  2  0
 25 61  1  0
 26 27  1  0
 26 62  1  0
 27 28  2  0
 27 63  1  0
 28 64  1  0
 29 30  2  0
 29 34  1  0
 30 31  1  0
 30 65  1  0
 31 32  2  0
 31 66  1  0
 32 33  1  0
 32 67  1  0
 33 34  2  0
 33 68  1  0
 34 69  1  0
 35 36  1  0
 35 70  1  0
 36 37  2  0
 36 71  1  0
 37 38  1  0
 37 44  1  0
 38 39  1  0
 38 43  2  0
 39 40  2  0
 39 72  1  0
 40 41  1  0
 40 73  1  0
 41 42  2  0
 41 74  1  0
 42 43  1  0
 45 46  2  0
 45 75  1  0
 46 76  1  0
M  END

