
     RDKit          3D

 53 56  0  0  0  0  0  0  0  0999 V2000
    1.8144    5.1951    2.9630 C   0  0  0  0  0  0  0  0  0  0  0  0
    2.9028    4.2121    3.3024 C   0  0  0  0  0  0  0  0  0  0  0  0
    3.7315    4.3224    4.4010 C   0  0  0  0  0  0  0  0  0  0  0  0
    3.7582    5.4649    5.3603 C   0  0  0  0  0  0  0  0  0  0  0  0
    3.2811    6.5566    5.0777 O   0  0  0  0  0  0  0  0  0  0  0  0
    4.3457    5.2211    6.5742 N   0  0  0  0  0  0  0  0  0  0  0  0
    4.4928    6.2613    7.5814 C   0  0  0  0  0  0  0  0  0  0  0  0
    3.2962    6.3489    8.5318 C   0  0  0  0  0  0  0  0  0  0  0  0
    3.0660    5.1391    9.2241 O   0  0  0  0  0  0  0  0  0  0  0  0
    4.7816    2.9217    4.6344 S   0  0  0  0  0  0  0  0  0  0  0  0
    4.0661    2.1215    3.2583 C   0  0  0  0  0  0  0  0  0  0  0  0
    4.3522    0.8654    2.9288 N   0  0  0  0  0  0  0  0  0  0  0  0
    3.6462    0.4017    1.9011 C   0  0  0  0  0  0  0  0  0  0  0  0
    2.8099    1.0991    1.1302 N   0  0  0  0  0  0  0  0  0  0  0  0
    2.5958    2.3906    1.4063 C   0  0  0  0  0  0  0  0  0  0  0  0
    1.8116    3.0579    0.4839 N   0  0  0  0  0  0  0  0  0  0  0  0
    2.0618    4.2911   -0.1352 C   0  0  0  0  0  0  0  0  0  0  0  0
    3.2195    5.0548    0.0043 C   0  0  0  0  0  0  0  0  0  0  0  0
    3.3318    6.2695   -0.6883 C   0  0  0  0  0  0  0  0  0  0  0  0
    2.2869    6.6661   -1.5146 C   0  0  0  0  0  0  0  0  0  0  0  0
    1.1830    5.9219   -1.6853 N   0  0  0  0  0  0  0  0  0  0  0  0
    1.0697    4.7880   -1.0280 C   0  0  0  0  0  0  0  0  0  0  0  0
   -0.0163    3.9960   -1.1877 O   0  0  0  0  0  0  0  0  0  0  0  0
   -1.0867    4.4190   -2.0478 C   0  0  2  0  0  0  0  0  0  0  0  0
   -1.1792    5.5141   -1.9883 H   0  0  0  0  0  0  0  0  0  0  0  0
   -2.3631    3.7361   -1.5652 C   0  0  0  0  0  0  0  0  0  0  0  0
   -3.5048    3.9918   -2.5583 C   0  0  0  0  0  0  0  0  0  0  0  0
   -3.0628    3.6404   -3.9790 C   0  0  0  0  0  0  0  0  0  0  0  0
   -1.8836    4.3348   -4.3400 O   0  0  0  0  0  0  0  0  0  0  0  0
   -0.7871    4.0369   -3.5046 C   0  0  0  0  0  0  0  0  0  0  0  0
    3.1372    2.9674    2.5953 C   0  0  0  0  0  0  0  0  0  0  0  0
    1.3966    5.6380    3.8753 H   0  0  0  0  0  0  0  0  0  0  0  0
    1.0163    4.7057    2.3897 H   0  0  0  0  0  0  0  0  0  0  0  0
    2.1999    6.0353    2.3667 H   0  0  0  0  0  0  0  0  0  0  0  0
    4.6503    4.2832    6.8063 H   0  0  0  0  0  0  0  0  0  0  0  0
    4.6224    7.2232    7.0626 H   0  0  0  0  0  0  0  0  0  0  0  0
    5.4055    6.0480    8.1606 H   0  0  0  0  0  0  0  0  0  0  0  0
    2.4047    6.6756    7.9633 H   0  0  0  0  0  0  0  0  0  0  0  0
    3.5026    7.1199    9.2923 H   0  0  0  0  0  0  0  0  0  0  0  0
    2.6903    4.5090    8.5957 H   0  0  0  0  0  0  0  0  0  0  0  0
    3.7827   -0.6550    1.6427 H   0  0  0  0  0  0  0  0  0  0  0  0
    1.2820    2.4152   -0.1018 H   0  0  0  0  0  0  0  0  0  0  0  0
    4.0290    4.7125    0.6506 H   0  0  0  0  0  0  0  0  0  0  0  0
    4.2263    6.8866   -0.5853 H   0  0  0  0  0  0  0  0  0  0  0  0
    2.3309    7.6087   -2.0698 H   0  0  0  0  0  0  0  0  0  0  0  0
   -2.6212    4.0886   -0.5536 H   0  0  0  0  0  0  0  0  0  0  0  0
   -2.1679    2.6513   -1.4883 H   0  0  0  0  0  0  0  0  0  0  0  0
   -3.7952    5.0563   -2.5309 H   0  0  0  0  0  0  0  0  0  0  0  0
   -4.3971    3.4052   -2.2829 H   0  0  0  0  0  0  0  0  0  0  0  0
   -3.8289    3.9220   -4.7174 H   0  0  0  0  0  0  0  0  0  0  0  0
   -2.8999    2.5442   -4.0631 H   0  0  0  0  0  0  0  0  0  0  0  0
    0.0726    4.6092   -3.8799 H   0  0  0  0  0  0  0  0  0  0  0  0
   -0.5365    2.9551   -3.5442 H   0  0  0  0  0  0  0  0  0  0  0  0
  1  2  1  0
  1 32  1  0
  1 33  1  0
  1 34  1  0
  2  3  2  0
  2 31  1  0
  3  4  1  0
  3 10  1  0
  4  5  2  0
  4  6  1  0
  6  7  1  0
  6 35  1  0
  7  8  1  0
  7 36  1  0
  7 37  1  0
  8  9  1  0
  8 38  1  0
  8 39  1  0
  9 40  1  0
 10 11  1  0
 11 12  1  0
 11 31  2  0
 12 13  2  0
 13 14  1  0
 13 41  1  0
 14 15  2  0
 15 16  1  0
 15 31  1  0
 16 17  1  0
 16 42  1  0
 17 18  2  0
 17 22  1  0
 18 19  1  0
 18 43  1  0
 19 20  2  0
 19 44  1  0
 20 21  1  0
 20 45  1  0
 21 22  2  0
 22 23  1  0
 23 24  1  0
 24 25  1  6
 24 26  1  0
 24 30  1  0
 26 27  1  0
 26 46  1  0
 26 47  1  0
 27 28  1  0
 27 48  1  0
 27 49  1  0
 28 29  1  0
 28 50  1  0
 28 51  1  0
 29 30  1  0
 30 52  1  0
 30 53  1  0
M  END

