
     RDKit          3D

 59 63  0  0  0  0  0  0  0  0999 V2000
    6.5077    5.9070   -2.5249 C   0  0  0  0  0  0  0  0  0  0  0  0
    5.1157    5.2841   -2.3335 C   0  0  1  0  0  0  0  0  0  0  0  0
    4.6668    5.1909   -3.3312 H   0  0  0  0  0  0  0  0  0  0  0  0
    5.0963    3.9635   -1.7284 N   0  0  0  0  0  0  0  0  0  0  0  0
    5.9657    3.7006   -0.6014 C   0  0  0  0  0  0  0  0  0  0  0  0
    5.4229    2.5789    0.1322 N   0  0  0  0  0  0  0  0  0  0  0  0
    5.4391    2.4760    1.5938 C   0  0  2  0  0  0  0  0  0  0  0  0
    6.4055    2.0521    1.9307 H   0  0  0  0  0  0  0  0  0  0  0  0
    4.3760    1.5306    2.1625 C   0  0  0  0  0  0  0  0  0  0  0  0
    4.7777    0.5166    3.0450 C   0  0  0  0  0  0  0  0  0  0  0  0
    3.8633   -0.3964    3.5739 C   0  0  0  0  0  0  0  0  0  0  0  0
    2.5142   -0.3054    3.2232 C   0  0  0  0  0  0  0  0  0  0  0  0
    2.0880    0.7228    2.3807 C   0  0  0  0  0  0  0  0  0  0  0  0
    3.0049    1.6496    1.8624 C   0  0  0  0  0  0  0  0  0  0  0  0
    2.4130    2.9714    0.8273 S   0  0  0  0  0  0  0  0  0  0  0  0
    2.8590    4.4218    1.8417 C   0  0  0  0  0  0  0  0  0  0  0  0
    4.2697    4.7063    2.3397 C   0  0  0  0  0  0  0  0  0  0  0  0
    4.4492    5.9393    3.0114 C   0  0  0  0  0  0  0  0  0  0  0  0
    2.9862    7.1595    3.2301 Br  0  0  0  0  0  0  0  0  0  0  0  0
    5.6673    6.3484    3.5542 C   0  0  0  0  0  0  0  0  0  0  0  0
    6.7724    5.5094    3.4466 C   0  0  0  0  0  0  0  0  0  0  0  0
    6.6315    4.2850    2.8006 C   0  0  0  0  0  0  0  0  0  0  0  0
    5.4090    3.8664    2.2458 C   0  0  0  0  0  0  0  0  0  0  0  0
    5.5568    1.4105   -0.6330 N   0  0  0  0  0  0  0  0  0  0  0  0
    6.0554    0.2572   -0.1179 C   0  0  0  0  0  0  0  0  0  0  0  0
    6.1189   -0.9150   -0.8346 C   0  0  0  0  0  0  0  0  0  0  0  0
    5.6649   -0.9557   -2.1872 C   0  0  0  0  0  0  0  0  0  0  0  0
    5.6394   -1.9259   -2.9684 O   0  0  0  0  0  0  0  0  0  0  0  0
    5.2033    0.3373   -2.7216 C   0  0  0  0  0  0  0  0  0  0  0  0
    4.8431    0.2497   -4.0051 O   0  0  0  0  0  0  0  0  0  0  0  0
    5.1651    1.4954   -1.9760 C   0  0  0  0  0  0  0  0  0  0  0  0
    4.7879    2.8433   -2.6229 C   0  0  1  0  0  0  0  0  0  0  0  0
    3.3036    2.8483   -3.0132 C   0  0  0  0  0  0  0  0  0  0  0  0
    5.5045    2.9764   -3.8536 O   0  0  0  0  0  0  0  0  0  0  0  0
    4.1858    6.2390   -1.5765 C   0  0  1  0  0  0  0  0  0  0  0  0
    4.0928    7.4245   -2.2065 F   0  0  0  0  0  0  0  0  0  0  0  0
    2.9417    5.7506   -1.4586 F   0  0  0  0  0  0  0  0  0  0  0  0
    4.6290    6.4961   -0.3222 F   0  0  0  0  0  0  0  0  0  0  0  0
    7.1133    5.2397   -3.1530 H   0  0  0  0  0  0  0  0  0  0  0  0
    7.0288    6.0661   -1.5692 H   0  0  0  0  0  0  0  0  0  0  0  0
    6.4295    6.8807   -3.0296 H   0  0  0  0  0  0  0  0  0  0  0  0
    5.9766    4.5773    0.0516 H   0  0  0  0  0  0  0  0  0  0  0  0
    7.0206    3.4826   -0.8986 H   0  0  0  0  0  0  0  0  0  0  0  0
    5.8357    0.4308    3.3129 H   0  0  0  0  0  0  0  0  0  0  0  0
    4.2071   -1.1817    4.2513 H   0  0  0  0  0  0  0  0  0  0  0  0
    1.7901   -1.0214    3.6195 H   0  0  0  0  0  0  0  0  0  0  0  0
    1.0307    0.8329    2.1295 H   0  0  0  0  0  0  0  0  0  0  0  0
    2.1878    4.4328    2.7149 H   0  0  0  0  0  0  0  0  0  0  0  0
    2.5418    5.2633    1.2074 H   0  0  0  0  0  0  0  0  0  0  0  0
    5.7396    7.3142    4.0561 H   0  0  0  0  0  0  0  0  0  0  0  0
    7.7349    5.8081    3.8678 H   0  0  0  0  0  0  0  0  0  0  0  0
    7.4976    3.6238    2.7182 H   0  0  0  0  0  0  0  0  0  0  0  0
    6.3921    0.2974    0.9126 H   0  0  0  0  0  0  0  0  0  0  0  0
    6.5109   -1.8178   -0.3651 H   0  0  0  0  0  0  0  0  0  0  0  0
    4.9977   -0.7188   -4.1806 H   0  0  0  0  0  0  0  0  0  0  0  0
    2.6822    2.7824   -2.1117 H   0  0  0  0  0  0  0  0  0  0  0  0
    3.0989    2.0045   -3.6844 H   0  0  0  0  0  0  0  0  0  0  0  0
    3.0533    3.7770   -3.5465 H   0  0  0  0  0  0  0  0  0  0  0  0
    6.3832    2.5865   -3.7522 H   0  0  0  0  0  0  0  0  0  0  0  0
  1  2  1  0
  1 39  1  0
  1 40  1  0
  1 41  1  0
  2  3  1  6
  2  4  1  0
  2 35  1  0
  4  5  1  0
  4 32  1  0
  5  6  1  0
  5 42  1  0
  5 43  1  0
  6  7  1  0
  6 24  1  0
  7  8  1  6
  7  9  1  0
  7 23  1  0
  9 10  2  0
  9 14  1  0
 10 11  1  0
 10 44  1  0
 11 12  2  0
 11 45  1  0
 12 13  1  0
 12 46  1  0
 13 14  2  0
 13 47  1  0
 14 15  1  0
 15 16  1  0
 16 17  1  0
 16 48  1  0
 16 49  1  0
 17 18  1  0
 17 23  2  0
 18 19  1  0
 18 20  2  0
 20 21  1  0
 20 50  1  0
 21 22  2  0
 21 51  1  0
 22 23  1  0
 22 52  1  0
 24 25  1  0
 24 31  1  0
 25 26  2  0
 25 53  1  0
 26 27  1  0
 26 54  1  0
 27 28  2  0
 27 29  1  0
 29 30  1  0
 29 31  2  0
 30 55  1  0
 31 32  1  0
 32 33  1  0
 32 34  1  6
 33 56  1  0
 33 57  1  0
 33 58  1  0
 34 59  1  0
 35 36  1  6
 35 37  1  0
 35 38  1  0
M  END

