
     RDKit          3D

 37 36  0  0  0  0  0  0  0  0999 V2000
    0.7616   -2.8453    1.3559 C   0  0  0  0  0  0  0  0  0  0  0  0
    2.1539   -2.7457    1.2319 O   0  0  0  0  0  0  0  0  0  0  0  0
    2.5912   -1.5587    0.6091 C   0  0  0  0  0  0  0  0  0  0  0  0
    4.1117   -1.5436    0.5613 C   0  0  0  0  0  0  0  0  0  0  0  0
    4.7437   -2.7709   -0.1116 C   0  0  1  0  0  0  0  0  0  0  0  0
    4.2949   -2.9585   -1.5763 C   0  0  0  0  0  0  0  0  0  0  0  0
    6.2698   -2.6824   -0.0942 C   0  0  0  0  0  0  0  0  0  0  0  0
    6.8421   -1.6094   -0.0944 O   0  0  0  0  0  0  0  0  0  0  0  0
    7.0882   -3.9877   -0.1642 C   0  0  1  0  0  0  0  0  0  0  0  0
    8.1957   -3.8662   -1.1110 N   0  0  0  0  0  0  0  0  0  0  0  0
    7.6092   -4.4421    1.2507 C   0  0  1  0  0  0  0  0  0  0  0  0
    6.4570   -4.4819    2.2710 C   0  0  0  0  0  0  0  0  0  0  0  0
    8.1961   -5.8574    1.0983 C   0  0  0  0  0  0  0  0  0  0  0  0
    8.7062   -3.4870    1.7570 C   0  0  0  0  0  0  0  0  0  0  0  0
    0.5322   -3.8025    1.8471 H   0  0  0  0  0  0  0  0  0  0  0  0
    0.2522   -2.8244    0.3702 H   0  0  0  0  0  0  0  0  0  0  0  0
    0.3390   -2.0243    1.9707 H   0  0  0  0  0  0  0  0  0  0  0  0
    2.2293   -0.6711    1.1697 H   0  0  0  0  0  0  0  0  0  0  0  0
    2.1592   -1.4804   -0.4114 H   0  0  0  0  0  0  0  0  0  0  0  0
    4.4940   -1.4707    1.5932 H   0  0  0  0  0  0  0  0  0  0  0  0
    4.4476   -0.6293    0.0460 H   0  0  0  0  0  0  0  0  0  0  0  0
    4.4412   -3.6717    0.4448 H   0  0  0  0  0  0  0  0  0  0  0  0
    4.5138   -2.0581   -2.1733 H   0  0  0  0  0  0  0  0  0  0  0  0
    3.2141   -3.1568   -1.6299 H   0  0  0  0  0  0  0  0  0  0  0  0
    4.8036   -3.8119   -2.0526 H   0  0  0  0  0  0  0  0  0  0  0  0
    6.4215   -4.7922   -0.5176 H   0  0  0  0  0  0  0  0  0  0  0  0
    8.6116   -2.9390   -1.0005 H   0  0  0  0  0  0  0  0  0  0  0  0
    7.8400   -3.8957   -2.0665 H   0  0  0  0  0  0  0  0  0  0  0  0
    5.6322   -5.1308    1.9331 H   0  0  0  0  0  0  0  0  0  0  0  0
    6.0421   -3.4817    2.4757 H   0  0  0  0  0  0  0  0  0  0  0  0
    6.8183   -4.8840    3.2313 H   0  0  0  0  0  0  0  0  0  0  0  0
    7.4142   -6.5847    0.8215 H   0  0  0  0  0  0  0  0  0  0  0  0
    8.6468   -6.1947    2.0461 H   0  0  0  0  0  0  0  0  0  0  0  0
    8.9670   -5.8706    0.3151 H   0  0  0  0  0  0  0  0  0  0  0  0
    8.3432   -2.4518    1.8433 H   0  0  0  0  0  0  0  0  0  0  0  0
    9.5744   -3.4901    1.0808 H   0  0  0  0  0  0  0  0  0  0  0  0
    9.0582   -3.8103    2.7501 H   0  0  0  0  0  0  0  0  0  0  0  0
  1  2  1  0
  1 15  1  0
  1 16  1  0
  1 17  1  0
  2  3  1  0
  3  4  1  0
  3 18  1  0
  3 19  1  0
  4  5  1  0
  4 20  1  0
  4 21  1  0
  5  6  1  0
  5  7  1  0
  5 22  1  1
  6 23  1  0
  6 24  1  0
  6 25  1  0
  7  8  2  0
  7  9  1  0
  9 10  1  0
  9 11  1  0
  9 26  1  6
 10 27  1  0
 10 28  1  0
 11 12  1  1
 11 13  1  0
 11 14  1  0
 12 29  1  0
 12 30  1  0
 12 31  1  0
 13 32  1  0
 13 33  1  0
 13 34  1  0
 14 35  1  0
 14 36  1  0
 14 37  1  0
M  END

