
     RDKit          3D

 39 40  0  0  0  0  0  0  0  0999 V2000
    2.7639    0.2743   -1.6877 C   0  0  0  0  0  0  0  0  0  0  0  0
    2.5026   -0.0423   -0.2182 C   0  0  0  0  0  0  0  0  0  0  0  0
    2.7958   -1.4364    0.1207 N   0  0  0  0  0  0  0  0  0  0  0  0
    4.0382   -1.7530    0.4966 N   0  0  0  0  0  0  0  0  0  0  0  0
    4.0541   -3.0725    0.7056 C   0  0  0  0  0  0  0  0  0  0  0  0
    5.3071   -3.7685    1.1417 C   0  0  0  0  0  0  0  0  0  0  0  0
    2.7759   -3.6197    0.4549 C   0  0  0  0  0  0  0  0  0  0  0  0
    1.9824   -2.5371    0.0757 C   0  0  0  0  0  0  0  0  0  0  0  0
    0.5573   -2.4795   -0.3387 C   0  0  0  0  0  0  0  0  0  0  0  0
    0.0731   -1.5236   -0.9351 O   0  0  0  0  0  0  0  0  0  0  0  0
   -0.1745   -3.5911   -0.0162 N   0  0  0  0  0  0  0  0  0  0  0  0
   -1.5760   -3.7219   -0.3454 C   0  0  0  0  0  0  0  0  0  0  0  0
   -2.4781   -3.6703    0.8822 C   0  0  1  0  0  0  0  0  0  0  0  0
   -3.9663   -3.9075    0.6081 C   0  0  0  0  0  0  0  0  0  0  0  0
   -4.4528   -4.5493    1.9114 C   0  0  0  0  0  0  0  0  0  0  0  0
   -3.2404   -5.4015    2.3219 C   0  0  2  0  0  0  0  0  0  0  0  0
   -3.1016   -5.5655    3.8396 C   0  0  0  0  0  0  0  0  0  0  0  0
   -3.9233   -6.1413    4.4997 O   0  0  0  0  0  0  0  0  0  0  0  0
   -2.0037   -4.9981    4.3500 O   0  0  0  0  0  0  0  0  0  0  0  0
   -2.0911   -4.7301    1.7891 O   0  0  0  0  0  0  0  0  0  0  0  0
    2.5919    1.3460   -1.8753 H   0  0  0  0  0  0  0  0  0  0  0  0
    2.0804   -0.3002   -2.3293 H   0  0  0  0  0  0  0  0  0  0  0  0
    3.8042    0.0377   -1.9591 H   0  0  0  0  0  0  0  0  0  0  0  0
    1.4536    0.1538    0.0333 H   0  0  0  0  0  0  0  0  0  0  0  0
    3.1498    0.5590    0.4359 H   0  0  0  0  0  0  0  0  0  0  0  0
    6.1198   -3.0364    1.2461 H   0  0  0  0  0  0  0  0  0  0  0  0
    5.6208   -4.5320    0.4109 H   0  0  0  0  0  0  0  0  0  0  0  0
    5.1725   -4.2773    2.1103 H   0  0  0  0  0  0  0  0  0  0  0  0
    2.4838   -4.6664    0.5146 H   0  0  0  0  0  0  0  0  0  0  0  0
    0.2323   -4.2947    0.5877 H   0  0  0  0  0  0  0  0  0  0  0  0
   -1.7514   -4.6750   -0.8756 H   0  0  0  0  0  0  0  0  0  0  0  0
   -1.8289   -2.8946   -1.0237 H   0  0  0  0  0  0  0  0  0  0  0  0
   -2.3251   -2.7047    1.3989 H   0  0  0  0  0  0  0  0  0  0  0  0
   -4.0869   -4.6071   -0.2365 H   0  0  0  0  0  0  0  0  0  0  0  0
   -4.4972   -2.9782    0.3557 H   0  0  0  0  0  0  0  0  0  0  0  0
   -5.3637   -5.1528    1.8033 H   0  0  0  0  0  0  0  0  0  0  0  0
   -4.6513   -3.7785    2.6733 H   0  0  0  0  0  0  0  0  0  0  0  0
   -3.3086   -6.4156    1.8887 H   0  0  0  0  0  0  0  0  0  0  0  0
   -1.5156   -4.6184    3.5914 H   0  0  0  0  0  0  0  0  0  0  0  0
  1  2  1  0
  1 21  1  0
  1 22  1  0
  1 23  1  0
  2  3  1  0
  2 24  1  0
  2 25  1  0
  3  4  1  0
  3  8  1  0
  4  5  2  0
  5  6  1  0
  5  7  1  0
  6 26  1  0
  6 27  1  0
  6 28  1  0
  7  8  2  0
  7 29  1  0
  8  9  1  0
  9 10  2  0
  9 11  1  0
 11 12  1  0
 11 30  1  0
 12 13  1  0
 12 31  1  0
 12 32  1  0
 13 14  1  0
 13 20  1  0
 13 33  1  1
 14 15  1  0
 14 34  1  0
 14 35  1  0
 15 16  1  0
 15 36  1  0
 15 37  1  0
 16 17  1  0
 16 20  1  0
 16 38  1  6
 17 18  2  0
 17 19  1  0
 19 39  1  0
M  END

