
     RDKit          3D

 65 68  0  0  0  0  0  0  0  0999 V2000
   10.7227   -1.2770   -0.1621 C   0  0  0  0  0  0  0  0  0  0  0  0
   11.2620   -0.8718    1.0765 O   0  0  0  0  0  0  0  0  0  0  0  0
   10.6260    0.0803    1.8006 C   0  0  0  0  0  0  0  0  0  0  0  0
    9.4367    0.7184    1.4101 C   0  0  0  0  0  0  0  0  0  0  0  0
    8.8651    1.6881    2.2342 C   0  0  0  0  0  0  0  0  0  0  0  0
    9.4532    2.0483    3.4583 C   0  0  0  0  0  0  0  0  0  0  0  0
    8.8152    3.0757    4.2907 C   0  0  0  0  0  0  0  0  0  0  0  0
    7.7052    3.6937    3.9787 N   0  0  0  0  0  0  0  0  0  0  0  0
    7.3326    4.6004    4.9327 C   0  0  0  0  0  0  0  0  0  0  0  0
    6.0803    5.3998    4.6833 C   0  0  0  0  0  0  0  0  0  0  0  0
    5.6151    6.0382    5.8791 O   0  0  0  0  0  0  0  0  0  0  0  0
    6.0163    7.2944    6.1216 C   0  0  0  0  0  0  0  0  0  0  0  0
    6.6896    7.9677    5.3863 O   0  0  0  0  0  0  0  0  0  0  0  0
    5.4890    7.7680    7.4750 C   0  0  0  0  0  0  0  0  0  0  0  0
    6.4011    8.7125    8.0642 N   0  0  0  0  0  0  0  0  0  0  0  0
    7.7096    8.3444    8.4448 C   0  0  0  0  0  0  0  0  0  0  0  0
    8.1457    7.2130    8.4097 O   0  0  0  0  0  0  0  0  0  0  0  0
    8.3275    9.4920    8.8446 N   0  0  0  0  0  0  0  0  0  0  0  0
    7.5233   10.6957    8.6221 C   0  0  2  0  0  0  0  0  0  0  0  0
    8.1132   11.6168    7.5325 C   0  0  0  0  0  0  0  0  0  0  0  0
    9.3807   12.3490    8.0000 C   0  0  0  0  0  0  0  0  0  0  0  0
    9.2517   13.1284    9.3349 C   0  0  1  0  0  0  0  0  0  0  0  0
    8.7265   14.6109    9.2180 C   0  0  1  0  0  0  0  0  0  0  0  0
    7.3847   14.7665    8.4740 C   0  0  0  0  0  0  0  0  0  0  0  0
    8.5748   15.2228   10.6266 C   0  0  0  0  0  0  0  0  0  0  0  0
    9.7897   15.4429    8.4666 C   0  0  0  0  0  0  0  0  0  0  0  0
    8.5660   12.2116   10.3804 C   0  0  0  0  0  0  0  0  0  0  0  0
    7.2878   11.5044    9.9120 C   0  0  0  0  0  0  0  0  0  0  0  0
    6.2088   10.0788    8.1130 C   0  0  0  0  0  0  0  0  0  0  0  0
    5.2007   10.6740    7.8121 O   0  0  0  0  0  0  0  0  0  0  0  0
    8.1619    4.6962    6.0224 C   0  0  0  0  0  0  0  0  0  0  0  0
    9.4827    3.5957    5.8369 S   0  0  0  0  0  0  0  0  0  0  0  0
   10.6462    1.3986    3.8358 C   0  0  0  0  0  0  0  0  0  0  0  0
   11.2244    0.4321    3.0245 C   0  0  0  0  0  0  0  0  0  0  0  0
   11.3983   -2.0456   -0.5607 H   0  0  0  0  0  0  0  0  0  0  0  0
   10.6695   -0.4398   -0.8812 H   0  0  0  0  0  0  0  0  0  0  0  0
    9.7134   -1.7121   -0.0486 H   0  0  0  0  0  0  0  0  0  0  0  0
    8.9486    0.4684    0.4679 H   0  0  0  0  0  0  0  0  0  0  0  0
    7.9416    2.1875    1.9363 H   0  0  0  0  0  0  0  0  0  0  0  0
    5.2733    4.7299    4.3543 H   0  0  0  0  0  0  0  0  0  0  0  0
    6.2561    6.1582    3.9047 H   0  0  0  0  0  0  0  0  0  0  0  0
    5.3298    6.9043    8.1344 H   0  0  0  0  0  0  0  0  0  0  0  0
    4.5296    8.2874    7.3237 H   0  0  0  0  0  0  0  0  0  0  0  0
    9.3203    9.4880    9.0399 H   0  0  0  0  0  0  0  0  0  0  0  0
    7.3225   12.3272    7.2536 H   0  0  0  0  0  0  0  0  0  0  0  0
    8.3313   11.0157    6.6348 H   0  0  0  0  0  0  0  0  0  0  0  0
    9.7312   13.0085    7.1917 H   0  0  0  0  0  0  0  0  0  0  0  0
   10.1854   11.6012    8.1242 H   0  0  0  0  0  0  0  0  0  0  0  0
   10.2831   13.2604    9.7062 H   0  0  0  0  0  0  0  0  0  0  0  0
    6.5711   14.1961    8.9457 H   0  0  0  0  0  0  0  0  0  0  0  0
    7.4548   14.4543    7.4212 H   0  0  0  0  0  0  0  0  0  0  0  0
    7.0790   15.8257    8.4738 H   0  0  0  0  0  0  0  0  0  0  0  0
    7.7283   14.7912   11.1824 H   0  0  0  0  0  0  0  0  0  0  0  0
    8.3926   16.3069   10.5527 H   0  0  0  0  0  0  0  0  0  0  0  0
    9.4861   15.0804   11.2312 H   0  0  0  0  0  0  0  0  0  0  0  0
    9.9546   15.0818    7.4398 H   0  0  0  0  0  0  0  0  0  0  0  0
   10.7596   15.4216    8.9906 H   0  0  0  0  0  0  0  0  0  0  0  0
    9.4740   16.4960    8.3927 H   0  0  0  0  0  0  0  0  0  0  0  0
    8.3626   12.7580   11.3120 H   0  0  0  0  0  0  0  0  0  0  0  0
    9.2970   11.4317   10.6621 H   0  0  0  0  0  0  0  0  0  0  0  0
    6.4794   12.2224    9.7080 H   0  0  0  0  0  0  0  0  0  0  0  0
    6.9225   10.8266   10.7008 H   0  0  0  0  0  0  0  0  0  0  0  0
    8.0911    5.3528    6.8898 H   0  0  0  0  0  0  0  0  0  0  0  0
   11.1323    1.6524    4.7816 H   0  0  0  0  0  0  0  0  0  0  0  0
   12.1480   -0.0726    3.3142 H   0  0  0  0  0  0  0  0  0  0  0  0
  1  2  1  0
  1 35  1  0
  1 36  1  0
  1 37  1  0
  2  3  1  0
  3  4  2  0
  3 34  1  0
  4  5  1  0
  4 38  1  0
  5  6  2  0
  5 39  1  0
  6  7  1  0
  6 33  1  0
  7  8  2  0
  7 32  1  0
  8  9  1  0
  9 10  1  0
  9 31  2  0
 10 11  1  0
 10 40  1  0
 10 41  1  0
 11 12  1  0
 12 13  2  0
 12 14  1  0
 14 15  1  0
 14 42  1  0
 14 43  1  0
 15 16  1  0
 15 29  1  0
 16 17  2  0
 16 18  1  0
 18 19  1  0
 18 44  1  0
 19 20  1  0
 19 28  1  0
 19 29  1  6
 20 21  1  0
 20 45  1  0
 20 46  1  0
 21 22  1  0
 21 47  1  0
 21 48  1  0
 22 23  1  0
 22 27  1  0
 22 49  1  1
 23 24  1  6
 23 25  1  0
 23 26  1  0
 24 50  1  0
 24 51  1  0
 24 52  1  0
 25 53  1  0
 25 54  1  0
 25 55  1  0
 26 56  1  0
 26 57  1  0
 26 58  1  0
 27 28  1  0
 27 59  1  0
 27 60  1  0
 28 61  1  0
 28 62  1  0
 29 30  2  0
 31 32  1  0
 31 63  1  0
 33 34  2  0
 33 64  1  0
 34 65  1  0
M  END

