
     RDKit          3D

 49 50  0  0  0  0  0  0  0  0999 V2000
    6.0538   -2.5011   -7.8382 C   0  0  0  0  0  0  0  0  0  0  0  0
    6.7755   -3.4867   -7.1484 O   0  0  0  0  0  0  0  0  0  0  0  0
    7.6680   -4.2063   -7.9525 C   0  0  0  0  0  0  0  0  0  0  0  0
    8.3894   -5.2590   -7.1405 C   0  0  0  0  0  0  0  0  0  0  0  0
    9.3803   -6.0489   -7.7443 C   0  0  0  0  0  0  0  0  0  0  0  0
   10.0551   -7.0324   -7.0168 C   0  0  0  0  0  0  0  0  0  0  0  0
    9.7491   -7.2397   -5.6719 C   0  0  0  0  0  0  0  0  0  0  0  0
    8.7616   -6.4543   -5.0582 C   0  0  0  0  0  0  0  0  0  0  0  0
    8.4684   -6.7053   -3.6224 C   0  0  0  0  0  0  0  0  0  0  0  0
    9.0423   -7.5273   -2.9351 O   0  0  0  0  0  0  0  0  0  0  0  0
    7.4801   -5.9233   -3.1407 O   0  0  0  0  0  0  0  0  0  0  0  0
    7.2070   -5.9698   -1.7361 C   0  0  0  0  0  0  0  0  0  0  0  0
    6.1937   -7.0564   -1.3483 C   0  0  0  0  0  0  0  0  0  0  0  0
    5.1079   -6.7429   -0.8801 O   0  0  0  0  0  0  0  0  0  0  0  0
    6.6177   -8.3409   -1.5441 N   0  0  0  0  0  0  0  0  0  0  0  0
    5.9242   -9.5672   -1.2966 C   0  0  0  0  0  0  0  0  0  0  0  0
    6.4984  -10.6173   -1.5165 O   0  0  0  0  0  0  0  0  0  0  0  0
    4.6595   -9.4297   -0.8360 N   0  0  0  0  0  0  0  0  0  0  0  0
    3.8330  -10.5884   -0.5037 C   0  0  1  0  0  0  0  0  0  0  0  0
    4.0152  -11.0236    0.9659 C   0  0  0  0  0  0  0  0  0  0  0  0
    3.4281  -10.0030    1.9492 C   0  0  0  0  0  0  0  0  0  0  0  0
    1.9499   -9.7188    1.6467 C   0  0  0  0  0  0  0  0  0  0  0  0
    1.7474   -9.2755    0.1906 C   0  0  0  0  0  0  0  0  0  0  0  0
    2.3535  -10.2843   -0.7977 C   0  0  0  0  0  0  0  0  0  0  0  0
    8.0842   -5.4666   -5.7931 C   0  0  0  0  0  0  0  0  0  0  0  0
    5.3895   -2.0053   -7.1162 H   0  0  0  0  0  0  0  0  0  0  0  0
    5.4345   -2.9333   -8.6502 H   0  0  0  0  0  0  0  0  0  0  0  0
    6.7208   -1.7377   -8.2879 H   0  0  0  0  0  0  0  0  0  0  0  0
    8.4135   -3.5261   -8.4199 H   0  0  0  0  0  0  0  0  0  0  0  0
    7.1303   -4.6962   -8.7940 H   0  0  0  0  0  0  0  0  0  0  0  0
    9.6281   -5.8931   -8.7991 H   0  0  0  0  0  0  0  0  0  0  0  0
   10.8229   -7.6393   -7.5025 H   0  0  0  0  0  0  0  0  0  0  0  0
   10.2612   -8.0020   -5.0823 H   0  0  0  0  0  0  0  0  0  0  0  0
    6.7509   -5.0064   -1.4832 H   0  0  0  0  0  0  0  0  0  0  0  0
    8.1465   -6.1130   -1.1790 H   0  0  0  0  0  0  0  0  0  0  0  0
    7.5645   -8.4771   -1.9045 H   0  0  0  0  0  0  0  0  0  0  0  0
    4.3351   -8.4777   -0.6655 H   0  0  0  0  0  0  0  0  0  0  0  0
    4.1795  -11.4052   -1.1536 H   0  0  0  0  0  0  0  0  0  0  0  0
    5.0858  -11.1960    1.1604 H   0  0  0  0  0  0  0  0  0  0  0  0
    3.5099  -11.9972    1.1003 H   0  0  0  0  0  0  0  0  0  0  0  0
    4.0027   -9.0611    1.8831 H   0  0  0  0  0  0  0  0  0  0  0  0
    3.5465  -10.3625    2.9850 H   0  0  0  0  0  0  0  0  0  0  0  0
    1.5552   -8.9543    2.3369 H   0  0  0  0  0  0  0  0  0  0  0  0
    1.3605  -10.6367    1.8300 H   0  0  0  0  0  0  0  0  0  0  0  0
    2.2068   -8.2802    0.0439 H   0  0  0  0  0  0  0  0  0  0  0  0
    0.6742   -9.1416   -0.0253 H   0  0  0  0  0  0  0  0  0  0  0  0
    2.2481   -9.9282   -1.8358 H   0  0  0  0  0  0  0  0  0  0  0  0
    1.7946  -11.2340   -0.7296 H   0  0  0  0  0  0  0  0  0  0  0  0
    7.3174   -4.8559   -5.3202 H   0  0  0  0  0  0  0  0  0  0  0  0
  1  2  1  0
  1 26  1  0
  1 27  1  0
  1 28  1  0
  2  3  1  0
  3  4  1  0
  3 29  1  0
  3 30  1  0
  4  5  2  0
  4 25  1  0
  5  6  1  0
  5 31  1  0
  6  7  2  0
  6 32  1  0
  7  8  1  0
  7 33  1  0
  8  9  1  0
  8 25  2  0
  9 10  2  0
  9 11  1  0
 11 12  1  0
 12 13  1  0
 12 34  1  0
 12 35  1  0
 13 14  2  0
 13 15  1  0
 15 16  1  0
 15 36  1  0
 16 17  2  0
 16 18  1  0
 18 19  1  0
 18 37  1  0
 19 20  1  0
 19 24  1  0
 19 38  1  6
 20 21  1  0
 20 39  1  0
 20 40  1  0
 21 22  1  0
 21 41  1  0
 21 42  1  0
 22 23  1  0
 22 43  1  0
 22 44  1  0
 23 24  1  0
 23 45  1  0
 23 46  1  0
 24 47  1  0
 24 48  1  0
 25 49  1  0
M  END

