
     RDKit          3D

 49 51  0  0  0  0  0  0  0  0999 V2000
    1.9232    2.3807    0.9777 C   0  0  0  0  0  0  0  0  0  0  0  0
    2.8445    1.3386    0.5670 N   0  0  0  0  0  0  0  0  0  0  0  0
    3.7497    0.8187    1.4111 C   0  0  0  0  0  0  0  0  0  0  0  0
    3.8537    1.1341    2.5948 O   0  0  0  0  0  0  0  0  0  0  0  0
    4.6461   -0.1822    0.8823 N   0  0  0  0  0  0  0  0  0  0  0  0
    4.9165   -0.3372   -0.4641 C   0  0  0  0  0  0  0  0  0  0  0  0
    4.2116    0.1898   -1.3466 O   0  0  0  0  0  0  0  0  0  0  0  0
    6.1113   -1.0939   -0.8646 C   0  0  0  0  0  0  0  0  0  0  0  0
    6.5674   -1.0294   -2.1789 C   0  0  0  0  0  0  0  0  0  0  0  0
    5.9312   -0.3936   -3.1416 O   0  0  0  0  0  0  0  0  0  0  0  0
    7.8585   -1.6606   -2.5784 C   0  0  0  0  0  0  0  0  0  0  0  0
    8.2474   -1.5702   -3.7459 O   0  0  0  0  0  0  0  0  0  0  0  0
    8.5545   -2.3376   -1.4968 C   0  0  0  0  0  0  0  0  0  0  0  0
    9.8777   -3.0397   -1.6532 C   0  0  0  0  0  0  0  0  0  0  0  0
   10.4185   -3.5865   -0.6919 O   0  0  0  0  0  0  0  0  0  0  0  0
   10.3940   -3.0243   -2.9039 N   0  0  0  0  0  0  0  0  0  0  0  0
   11.6649   -3.6545   -3.2243 C   0  0  0  0  0  0  0  0  0  0  0  0
   12.8611   -2.7210   -3.1423 C   0  0  0  0  0  0  0  0  0  0  0  0
   13.3447   -2.2985   -1.8911 C   0  0  0  0  0  0  0  0  0  0  0  0
   14.4333   -1.4303   -1.7996 C   0  0  0  0  0  0  0  0  0  0  0  0
   15.0427   -0.9846   -2.9720 C   0  0  0  0  0  0  0  0  0  0  0  0
   16.0924   -0.1512   -2.8879 F   0  0  0  0  0  0  0  0  0  0  0  0
   14.5911   -1.3848   -4.2258 C   0  0  0  0  0  0  0  0  0  0  0  0
   13.4974   -2.2535   -4.3001 C   0  0  0  0  0  0  0  0  0  0  0  0
    8.0024   -2.3899   -0.2363 C   0  0  0  0  0  0  0  0  0  0  0  0
    6.8396   -1.7971    0.0946 N   0  0  0  0  0  0  0  0  0  0  0  0
    6.1739   -2.0974    1.3664 C   0  0  2  0  0  0  0  0  0  0  0  0
    5.1893   -3.2633    1.2387 C   0  0  0  0  0  0  0  0  0  0  0  0
    5.5420   -0.8155    1.9188 C   0  0  2  0  0  0  0  0  0  0  0  0
    4.8485   -1.1698    3.0535 O   0  0  0  0  0  0  0  0  0  0  0  0
    0.9121    2.1577    0.6039 H   0  0  0  0  0  0  0  0  0  0  0  0
    2.2290    3.3679    0.5906 H   0  0  0  0  0  0  0  0  0  0  0  0
    1.9006    2.4280    2.0732 H   0  0  0  0  0  0  0  0  0  0  0  0
    2.9329    1.0737   -0.4144 H   0  0  0  0  0  0  0  0  0  0  0  0
    5.0967   -0.0318   -2.7481 H   0  0  0  0  0  0  0  0  0  0  0  0
    9.8690   -2.4947   -3.6063 H   0  0  0  0  0  0  0  0  0  0  0  0
   11.5935   -4.0755   -4.2392 H   0  0  0  0  0  0  0  0  0  0  0  0
   11.7987   -4.4882   -2.5194 H   0  0  0  0  0  0  0  0  0  0  0  0
   12.8525   -2.6586   -0.9842 H   0  0  0  0  0  0  0  0  0  0  0  0
   14.8212   -1.0963   -0.8350 H   0  0  0  0  0  0  0  0  0  0  0  0
   15.0947   -1.0163   -5.1216 H   0  0  0  0  0  0  0  0  0  0  0  0
   13.1372   -2.5727   -5.2824 H   0  0  0  0  0  0  0  0  0  0  0  0
    8.5275   -2.9453    0.5447 H   0  0  0  0  0  0  0  0  0  0  0  0
    6.9625   -2.3695    2.0819 H   0  0  0  0  0  0  0  0  0  0  0  0
    4.3840   -3.0419    0.5222 H   0  0  0  0  0  0  0  0  0  0  0  0
    4.7318   -3.4647    2.2156 H   0  0  0  0  0  0  0  0  0  0  0  0
    5.7189   -4.1645    0.8958 H   0  0  0  0  0  0  0  0  0  0  0  0
    6.3375   -0.0749    2.1327 H   0  0  0  0  0  0  0  0  0  0  0  0
    4.4474   -0.3364    3.3795 H   0  0  0  0  0  0  0  0  0  0  0  0
  1  2  1  0
  1 31  1  0
  1 32  1  0
  1 33  1  0
  2  3  1  0
  2 34  1  0
  3  4  2  0
  3  5  1  0
  5  6  1  0
  5 29  1  0
  6  7  2  0
  6  8  1  0
  8  9  2  0
  8 26  1  0
  9 10  1  0
  9 11  1  0
 10 35  1  0
 11 12  2  0
 11 13  1  0
 13 14  1  0
 13 25  2  0
 14 15  2  0
 14 16  1  0
 16 17  1  0
 16 36  1  0
 17 18  1  0
 17 37  1  0
 17 38  1  0
 18 19  2  0
 18 24  1  0
 19 20  1  0
 19 39  1  0
 20 21  2  0
 20 40  1  0
 21 22  1  0
 21 23  1  0
 23 24  2  0
 23 41  1  0
 24 42  1  0
 25 26  1  0
 25 43  1  0
 26 27  1  0
 27 28  1  0
 27 29  1  0
 27 44  1  1
 28 45  1  0
 28 46  1  0
 28 47  1  0
 29 30  1  0
 29 48  1  1
 30 49  1  0
M  END

