
     RDKit          3D

 44 45  0  0  0  0  0  0  0  0999 V2000
    1.8448   -0.5500   -3.3894 C   0  0  0  0  0  0  0  0  0  0  0  0
    1.8019   -0.7537   -1.8749 C   0  0  0  0  0  0  0  0  0  0  0  0
    3.1033   -1.2778   -1.2512 C   0  0  0  0  0  0  0  0  0  0  0  0
    4.2694   -0.3986   -1.3954 N   0  0  0  0  0  0  0  0  0  0  0  0
    4.6684    0.5408   -0.4669 C   0  0  0  0  0  0  0  0  0  0  0  0
    5.7139    1.1580   -0.6518 O   0  0  0  0  0  0  0  0  0  0  0  0
    3.8202    0.7529    0.7860 C   0  0  1  0  0  0  0  0  0  0  0  0
    4.3093   -0.1884    1.9219 C   0  0  0  0  0  0  0  0  0  0  0  0
    5.6347    0.2669    2.5453 C   0  0  0  0  0  0  0  0  0  0  0  0
    5.5430    1.7089    3.0591 C   0  0  0  0  0  0  0  0  0  0  0  0
    5.1249    2.6736    1.9427 C   0  0  0  0  0  0  0  0  0  0  0  0
    3.8249    2.2256    1.2585 C   0  0  0  0  0  0  0  0  0  0  0  0
    5.2122   -0.6539   -2.4785 C   0  0  1  0  0  0  0  0  0  0  0  0
    5.5161    0.4819   -3.4718 C   0  0  0  0  0  0  0  0  0  0  0  0
    7.0243    0.4354   -3.6743 C   0  0  0  0  0  0  0  0  0  0  0  0
    7.6766    1.0605   -4.4746 O   0  0  0  0  0  0  0  0  0  0  0  0
    7.5553   -0.4750   -2.7573 N   0  0  0  0  0  0  0  0  0  0  0  0
    8.9784   -0.6947   -2.5868 C   0  0  0  0  0  0  0  0  0  0  0  0
    6.6012   -1.0700   -1.9482 C   0  0  0  0  0  0  0  0  0  0  0  0
    6.8265   -1.8328   -1.0402 O   0  0  0  0  0  0  0  0  0  0  0  0
    2.5836    0.2150   -3.6748 H   0  0  0  0  0  0  0  0  0  0  0  0
    0.8668   -0.2171   -3.7704 H   0  0  0  0  0  0  0  0  0  0  0  0
    2.1038   -1.4840   -3.9165 H   0  0  0  0  0  0  0  0  0  0  0  0
    1.0050   -1.4753   -1.6211 H   0  0  0  0  0  0  0  0  0  0  0  0
    1.5220    0.1938   -1.3823 H   0  0  0  0  0  0  0  0  0  0  0  0
    3.3653   -2.2473   -1.7046 H   0  0  0  0  0  0  0  0  0  0  0  0
    2.9402   -1.4909   -0.1864 H   0  0  0  0  0  0  0  0  0  0  0  0
    2.7782    0.4902    0.5544 H   0  0  0  0  0  0  0  0  0  0  0  0
    4.4035   -1.2219    1.5489 H   0  0  0  0  0  0  0  0  0  0  0  0
    3.5269   -0.2037    2.7021 H   0  0  0  0  0  0  0  0  0  0  0  0
    6.4386    0.1900    1.7944 H   0  0  0  0  0  0  0  0  0  0  0  0
    5.9042   -0.4187    3.3664 H   0  0  0  0  0  0  0  0  0  0  0  0
    6.5087    2.0227    3.4898 H   0  0  0  0  0  0  0  0  0  0  0  0
    4.8064    1.7534    3.8843 H   0  0  0  0  0  0  0  0  0  0  0  0
    5.9243    2.7287    1.1894 H   0  0  0  0  0  0  0  0  0  0  0  0
    4.9879    3.6903    2.3492 H   0  0  0  0  0  0  0  0  0  0  0  0
    3.5932    2.8898    0.4095 H   0  0  0  0  0  0  0  0  0  0  0  0
    2.9889    2.3338    1.9735 H   0  0  0  0  0  0  0  0  0  0  0  0
    4.8334   -1.5277   -3.0290 H   0  0  0  0  0  0  0  0  0  0  0  0
    5.2704    1.4663   -3.0515 H   0  0  0  0  0  0  0  0  0  0  0  0
    5.0092    0.3809   -4.4421 H   0  0  0  0  0  0  0  0  0  0  0  0
    9.4923   -0.2855   -3.4658 H   0  0  0  0  0  0  0  0  0  0  0  0
    9.1796   -1.7706   -2.4869 H   0  0  0  0  0  0  0  0  0  0  0  0
    9.3429   -0.1868   -1.6799 H   0  0  0  0  0  0  0  0  0  0  0  0
  1  2  1  0
  1 21  1  0
  1 22  1  0
  1 23  1  0
  2  3  1  0
  2 24  1  0
  2 25  1  0
  3  4  1  0
  3 26  1  0
  3 27  1  0
  4  5  1  0
  4 13  1  0
  5  6  2  0
  5  7  1  0
  7  8  1  0
  7 12  1  0
  7 28  1  6
  8  9  1  0
  8 29  1  0
  8 30  1  0
  9 10  1  0
  9 31  1  0
  9 32  1  0
 10 11  1  0
 10 33  1  0
 10 34  1  0
 11 12  1  0
 11 35  1  0
 11 36  1  0
 12 37  1  0
 12 38  1  0
 13 14  1  0
 13 19  1  0
 13 39  1  6
 14 15  1  0
 14 40  1  0
 14 41  1  0
 15 16  2  0
 15 17  1  0
 17 18  1  0
 17 19  1  0
 18 42  1  0
 18 43  1  0
 18 44  1  0
 19 20  2  0
M  END

