
     RDKit          3D

 36 37  0  0  0  0  0  0  0  0999 V2000
    1.1102   -0.0698    1.6225 C   0  0  0  0  0  0  0  0  0  0  0  0
    2.4288   -0.0810    0.8891 C   0  0  0  0  0  0  0  0  0  0  0  0
    3.2070    0.9981    1.0683 N   0  0  0  0  0  0  0  0  0  0  0  0
    4.3934    1.0605    0.4684 C   0  0  0  0  0  0  0  0  0  0  0  0
    4.9000    0.0368   -0.3379 C   0  0  0  0  0  0  0  0  0  0  0  0
    4.1085   -1.0930   -0.5249 C   0  0  0  0  0  0  0  0  0  0  0  0
    2.8399   -1.1563    0.0686 C   0  0  0  0  0  0  0  0  0  0  0  0
    2.0621   -2.4456   -0.0802 C   0  0  0  0  0  0  0  0  0  0  0  0
    2.5108   -3.4669    0.4287 O   0  0  0  0  0  0  0  0  0  0  0  0
    0.9055   -2.4374   -0.8190 N   0  0  0  0  0  0  0  0  0  0  0  0
    0.3132   -1.2513   -1.4307 C   0  0  0  0  0  0  0  0  0  0  0  0
   -0.1003   -1.5189   -2.8816 C   0  0  0  0  0  0  0  0  0  0  0  0
   -1.0153   -2.7429   -2.9763 C   0  0  0  0  0  0  0  0  0  0  0  0
   -0.3479   -3.9562   -2.3170 C   0  0  0  0  0  0  0  0  0  0  0  0
    0.1217   -3.6804   -0.8776 C   0  0  2  0  0  0  0  0  0  0  0  0
   -1.0310   -3.6926    0.1475 C   0  0  0  0  0  0  0  0  0  0  0  0
   -0.5629   -3.3065    1.4696 N   0  0  0  0  0  0  0  0  0  0  0  0
    1.2776    0.2790    2.6528 H   0  0  0  0  0  0  0  0  0  0  0  0
    0.6094   -1.0487    1.6425 H   0  0  0  0  0  0  0  0  0  0  0  0
    0.4283    0.6615    1.1548 H   0  0  0  0  0  0  0  0  0  0  0  0
    4.9824    1.9697    0.6432 H   0  0  0  0  0  0  0  0  0  0  0  0
    5.8885    0.1214   -0.7947 H   0  0  0  0  0  0  0  0  0  0  0  0
    4.4649   -1.9345   -1.1245 H   0  0  0  0  0  0  0  0  0  0  0  0
    1.0391   -0.4304   -1.3881 H   0  0  0  0  0  0  0  0  0  0  0  0
   -0.5703   -0.9302   -0.8467 H   0  0  0  0  0  0  0  0  0  0  0  0
    0.8076   -1.6865   -3.4878 H   0  0  0  0  0  0  0  0  0  0  0  0
   -0.5973   -0.6217   -3.2864 H   0  0  0  0  0  0  0  0  0  0  0  0
   -1.2548   -2.9677   -4.0286 H   0  0  0  0  0  0  0  0  0  0  0  0
   -1.9782   -2.5201   -2.4828 H   0  0  0  0  0  0  0  0  0  0  0  0
    0.5326   -4.2475   -2.9147 H   0  0  0  0  0  0  0  0  0  0  0  0
   -1.0273   -4.8247   -2.3156 H   0  0  0  0  0  0  0  0  0  0  0  0
    0.8232   -4.4715   -0.5796 H   0  0  0  0  0  0  0  0  0  0  0  0
   -1.4823   -4.7074    0.0963 H   0  0  0  0  0  0  0  0  0  0  0  0
   -1.8288   -2.9914   -0.1546 H   0  0  0  0  0  0  0  0  0  0  0  0
    0.2140   -3.8955    1.7716 H   0  0  0  0  0  0  0  0  0  0  0  0
   -1.3035   -3.3859    2.1642 H   0  0  0  0  0  0  0  0  0  0  0  0
  1  2  1  0
  1 18  1  0
  1 19  1  0
  1 20  1  0
  2  3  2  0
  2  7  1  0
  3  4  1  0
  4  5  2  0
  4 21  1  0
  5  6  1  0
  5 22  1  0
  6  7  2  0
  6 23  1  0
  7  8  1  0
  8  9  2  0
  8 10  1  0
 10 11  1  0
 10 15  1  0
 11 12  1  0
 11 24  1  0
 11 25  1  0
 12 13  1  0
 12 26  1  0
 12 27  1  0
 13 14  1  0
 13 28  1  0
 13 29  1  0
 14 15  1  0
 14 30  1  0
 14 31  1  0
 15 16  1  0
 15 32  1  1
 16 17  1  0
 16 33  1  0
 16 34  1  0
 17 35  1  0
 17 36  1  0
M  END

