
     RDKit          3D

 32 34  0  0  0  0  0  0  0  0999 V2000
    2.2457    0.9353    2.4062 C   0  0  0  0  0  0  0  0  0  0  0  0
    3.0572    0.1994    1.3896 C   0  0  0  0  0  0  0  0  0  0  0  0
    2.7119    0.1483    0.1051 N   0  0  0  0  0  0  0  0  0  0  0  0
    3.6507   -0.5818   -0.5199 N   0  0  0  0  0  0  0  0  0  0  0  0
    3.5197   -0.8402   -1.9403 C   0  0  0  0  0  0  0  0  0  0  0  0
    4.6185   -1.0303    0.3337 C   0  0  0  0  0  0  0  0  0  0  0  0
    5.8116   -1.8527   -0.0580 C   0  0  0  0  0  0  0  0  0  0  0  0
    5.5138   -3.1767   -0.5881 N   0  0  0  0  0  0  0  0  0  0  0  0
    5.7492   -3.5895   -1.8908 C   0  0  0  0  0  0  0  0  0  0  0  0
    5.3679   -4.8974   -2.0541 C   0  0  0  0  0  0  0  0  0  0  0  0
    4.8691   -5.3448   -0.7829 C   0  0  0  0  0  0  0  0  0  0  0  0
    4.3529   -6.5633   -0.3032 C   0  0  0  0  0  0  0  0  0  0  0  0
    3.9666   -6.6669    1.0281 C   0  0  0  0  0  0  0  0  0  0  0  0
    4.0942   -5.5570    1.8904 C   0  0  0  0  0  0  0  0  0  0  0  0
    3.5564   -5.7504    3.7152 Br  0  0  0  0  0  0  0  0  0  0  0  0
    4.5955   -4.3314    1.4632 C   0  0  0  0  0  0  0  0  0  0  0  0
    4.9778   -4.2420    0.1154 C   0  0  0  0  0  0  0  0  0  0  0  0
    4.2559   -0.5328    1.5797 C   0  0  0  0  0  0  0  0  0  0  0  0
    5.1048   -0.7684    3.0723 Cl  0  0  0  0  0  0  0  0  0  0  0  0
    1.3760    1.3987    1.9210 H   0  0  0  0  0  0  0  0  0  0  0  0
    2.8377    1.7246    2.8976 H   0  0  0  0  0  0  0  0  0  0  0  0
    1.8876    0.2576    3.1982 H   0  0  0  0  0  0  0  0  0  0  0  0
    2.7085   -0.2006   -2.3075 H   0  0  0  0  0  0  0  0  0  0  0  0
    3.2739   -1.8950   -2.1380 H   0  0  0  0  0  0  0  0  0  0  0  0
    4.4489   -0.5854   -2.4733 H   0  0  0  0  0  0  0  0  0  0  0  0
    6.4512   -1.9456    0.8338 H   0  0  0  0  0  0  0  0  0  0  0  0
    6.4087   -1.3299   -0.8220 H   0  0  0  0  0  0  0  0  0  0  0  0
    6.1878   -2.8981   -2.6087 H   0  0  0  0  0  0  0  0  0  0  0  0
    5.4433   -5.4773   -2.9716 H   0  0  0  0  0  0  0  0  0  0  0  0
    4.2577   -7.4255   -0.9681 H   0  0  0  0  0  0  0  0  0  0  0  0
    3.5651   -7.6039    1.4164 H   0  0  0  0  0  0  0  0  0  0  0  0
    4.6831   -3.4913    2.1521 H   0  0  0  0  0  0  0  0  0  0  0  0
  1  2  1  0
  1 20  1  0
  1 21  1  0
  1 22  1  0
  2  3  2  0
  2 18  1  0
  3  4  1  0
  4  5  1  0
  4  6  1  0
  5 23  1  0
  5 24  1  0
  5 25  1  0
  6  7  1  0
  6 18  2  0
  7  8  1  0
  7 26  1  0
  7 27  1  0
  8  9  1  0
  8 17  1  0
  9 10  2  0
  9 28  1  0
 10 11  1  0
 10 29  1  0
 11 12  1  0
 11 17  2  0
 12 13  2  0
 12 30  1  0
 13 14  1  0
 13 31  1  0
 14 15  1  0
 14 16  2  0
 16 17  1  0
 16 32  1  0
 18 19  1  0
M  END

