
     RDKit          3D

 53 55  0  0  0  0  0  0  0  0999 V2000
    0.9672   -0.6889   -3.1222 C   0  0  0  0  0  0  0  0  0  0  0  0
    2.4908   -0.6022   -3.0253 C   0  0  0  0  0  0  0  0  0  0  0  0
    3.0256   -0.9411   -1.6189 C   0  0  0  0  0  0  0  0  0  0  0  0
    4.5336   -0.8742   -1.5063 C   0  0  0  0  0  0  0  0  0  0  0  0
    5.2691   -2.0427   -1.6724 C   0  0  0  0  0  0  0  0  0  0  0  0
    6.6921   -2.0402   -1.5835 C   0  0  0  0  0  0  0  0  0  0  0  0
    7.4505   -3.1892   -1.7325 N   0  0  0  0  0  0  0  0  0  0  0  0
    8.9095   -3.1278   -1.7196 C   0  0  0  0  0  0  0  0  0  0  0  0
    9.4928   -4.2355   -0.8383 C   0  0  0  0  0  0  0  0  0  0  0  0
    8.9741   -5.6253   -1.2307 C   0  0  2  0  0  0  0  0  0  0  0  0
    9.5190   -6.1220   -2.5108 N   0  0  0  0  0  0  0  0  0  0  0  0
   10.8510   -7.1821   -2.4831 S   0  0  1  0  0  0  0  0  0  0  0  0
   10.0685   -8.7864   -2.6922 C   0  0  0  0  0  0  0  0  0  0  0  0
   11.6185   -6.8740   -3.6894 O   0  0  0  0  0  0  0  0  0  0  0  0
   11.4655   -7.1684   -1.1532 O   0  0  0  0  0  0  0  0  0  0  0  0
    7.4342   -5.6320   -1.3225 C   0  0  2  0  0  0  0  0  0  0  0  0
    6.9584   -6.8617   -1.8124 O   0  0  0  0  0  0  0  0  0  0  0  0
    6.9199   -4.4628   -2.1843 C   0  0  0  0  0  0  0  0  0  0  0  0
    7.3564   -0.9096   -1.3200 N   0  0  0  0  0  0  0  0  0  0  0  0
    6.6565    0.2031   -1.1592 C   0  0  0  0  0  0  0  0  0  0  0  0
    7.4361    1.7162   -0.7501 S   0  0  0  0  0  0  0  0  0  0  0  0
    5.8738    2.5530   -0.7453 C   0  0  0  0  0  0  0  0  0  0  0  0
    5.7301    3.9994   -0.5658 C   0  0  0  0  0  0  0  0  0  0  0  0
    6.8738    4.7349   -0.4042 N   0  0  0  0  0  0  0  0  0  0  0  0
    4.6230    4.5513   -0.5524 O   0  0  0  0  0  0  0  0  0  0  0  0
    4.8074    1.6955   -1.0124 C   0  0  0  0  0  0  0  0  0  0  0  0
    3.5049    2.1173   -1.0011 N   0  0  0  0  0  0  0  0  0  0  0  0
    5.2458    0.3298   -1.2513 C   0  0  0  0  0  0  0  0  0  0  0  0
    0.6160   -0.4516   -4.1387 H   0  0  0  0  0  0  0  0  0  0  0  0
    0.4764    0.0134   -2.4276 H   0  0  0  0  0  0  0  0  0  0  0  0
    0.6075   -1.7008   -2.8721 H   0  0  0  0  0  0  0  0  0  0  0  0
    2.8295    0.4068   -3.3224 H   0  0  0  0  0  0  0  0  0  0  0  0
    2.9547   -1.2885   -3.7542 H   0  0  0  0  0  0  0  0  0  0  0  0
    2.6981   -1.9613   -1.3593 H   0  0  0  0  0  0  0  0  0  0  0  0
    2.5657   -0.2737   -0.8726 H   0  0  0  0  0  0  0  0  0  0  0  0
    4.7235   -2.9671   -1.8548 H   0  0  0  0  0  0  0  0  0  0  0  0
    9.2062   -2.1376   -1.3588 H   0  0  0  0  0  0  0  0  0  0  0  0
    9.2928   -3.2155   -2.7594 H   0  0  0  0  0  0  0  0  0  0  0  0
    9.2085   -4.0401    0.2089 H   0  0  0  0  0  0  0  0  0  0  0  0
   10.5934   -4.2296   -0.8817 H   0  0  0  0  0  0  0  0  0  0  0  0
    9.2785   -6.3536   -0.4656 H   0  0  0  0  0  0  0  0  0  0  0  0
    9.7258   -5.4117   -3.2141 H   0  0  0  0  0  0  0  0  0  0  0  0
    9.6239   -8.8272   -3.6944 H   0  0  0  0  0  0  0  0  0  0  0  0
    9.3086   -8.9158   -1.9102 H   0  0  0  0  0  0  0  0  0  0  0  0
   10.8646   -9.5360   -2.5871 H   0  0  0  0  0  0  0  0  0  0  0  0
    7.0324   -5.5090   -0.3030 H   0  0  0  0  0  0  0  0  0  0  0  0
    7.5095   -7.0577   -2.5875 H   0  0  0  0  0  0  0  0  0  0  0  0
    5.8263   -4.4783   -2.1555 H   0  0  0  0  0  0  0  0  0  0  0  0
    7.2101   -4.6494   -3.2411 H   0  0  0  0  0  0  0  0  0  0  0  0
    7.7941    4.3525   -0.5769 H   0  0  0  0  0  0  0  0  0  0  0  0
    6.7684    5.7415   -0.3704 H   0  0  0  0  0  0  0  0  0  0  0  0
    3.4199    3.1338   -0.9053 H   0  0  0  0  0  0  0  0  0  0  0  0
    2.8462    1.6522   -1.6098 H   0  0  0  0  0  0  0  0  0  0  0  0
  1  2  1  0
  1 29  1  0
  1 30  1  0
  1 31  1  0
  2  3  1  0
  2 32  1  0
  2 33  1  0
  3  4  1  0
  3 34  1  0
  3 35  1  0
  4  5  2  0
  4 28  1  0
  5  6  1  0
  5 36  1  0
  6  7  1  0
  6 19  2  0
  7  8  1  0
  7 18  1  0
  8  9  1  0
  8 37  1  0
  8 38  1  0
  9 10  1  0
  9 39  1  0
  9 40  1  0
 10 11  1  0
 10 16  1  0
 10 41  1  1
 12 11  1  1
 11 42  1  0
 12 13  1  0
 12 14  2  0
 12 15  2  0
 13 43  1  0
 13 44  1  0
 13 45  1  0
 16 17  1  0
 16 18  1  0
 16 46  1  1
 17 47  1  0
 18 48  1  0
 18 49  1  0
 19 20  1  0
 20 21  2  0
 20 28  1  0
 21 22  1  0
 22 23  2  0
 22 26  1  0
 23 24  1  0
 23 25  1  0
 24 50  1  0
 24 51  1  0
 26 27  1  0
 26 28  2  0
 27 52  1  0
 27 53  1  0
M  CHG  2  21   1  25  -1
M  END

