
     RDKit          3D

 61 63  0  0  0  0  0  0  0  0999 V2000
   -2.1262    1.8722   -5.7692 C   0  0  0  0  0  0  0  0  0  0  0  0
   -1.0413    2.3560   -6.7441 C   0  0  0  0  0  0  0  0  0  0  0  0
    0.3267    1.7779   -6.4517 C   0  0  0  0  0  0  0  0  0  0  0  0
    0.7654    0.5962   -7.0690 C   0  0  0  0  0  0  0  0  0  0  0  0
    2.0188    0.0487   -6.7799 C   0  0  0  0  0  0  0  0  0  0  0  0
    2.8765    0.6608   -5.8558 C   0  0  0  0  0  0  0  0  0  0  0  0
    4.2925    0.1342   -5.6334 C   0  0  1  0  0  0  0  0  0  0  0  0
    5.2487    0.8427   -6.6336 C   0  0  0  0  0  0  0  0  0  0  0  0
    5.2910    2.2858   -6.5104 N   0  0  0  0  0  0  0  0  0  0  0  0
    6.3943    2.9859   -6.1223 C   0  0  0  0  0  0  0  0  0  0  0  0
    7.4846    2.4637   -5.9224 O   0  0  0  0  0  0  0  0  0  0  0  0
    6.1741    4.4713   -5.9433 C   0  0  0  0  0  0  0  0  0  0  0  0
    4.9880    4.9156   -5.3424 C   0  0  0  0  0  0  0  0  0  0  0  0
    4.7684    6.2758   -5.1271 C   0  0  0  0  0  0  0  0  0  0  0  0
    3.2576    6.8094   -4.3094 S   0  0  1  0  0  0  0  0  0  0  0  0
    2.9737    8.1758   -4.7466 O   0  0  0  0  0  0  0  0  0  0  0  0
    2.2874    5.7210   -4.4452 O   0  0  0  0  0  0  0  0  0  0  0  0
    3.6163    6.9532   -2.6710 N   0  0  0  0  0  0  0  0  0  0  0  0
    4.0641    5.8287   -1.8975 C   0  0  1  0  0  0  0  0  0  0  0  0
    3.5859    5.7509   -0.4657 C   0  0  0  0  0  0  0  0  0  0  0  0
    3.0435    4.7969   -1.4909 C   0  0  0  0  0  0  0  0  0  0  0  0
    5.7140    7.2200   -5.5315 C   0  0  0  0  0  0  0  0  0  0  0  0
    6.8952    6.7739   -6.1249 C   0  0  0  0  0  0  0  0  0  0  0  0
    7.1630    5.4094   -6.3303 C   0  0  0  0  0  0  0  0  0  0  0  0
    8.4689    4.9933   -6.9580 C   0  0  0  0  0  0  0  0  0  0  0  0
    4.7074    0.2558   -4.2359 N   0  0  0  0  0  0  0  0  0  0  0  0
    3.8607   -0.5329   -3.3522 C   0  0  0  0  0  0  0  0  0  0  0  0
    6.1122   -0.0377   -3.9861 C   0  0  0  0  0  0  0  0  0  0  0  0
    2.4312    1.8326   -5.2220 C   0  0  0  0  0  0  0  0  0  0  0  0
    1.1840    2.3859   -5.5197 C   0  0  0  0  0  0  0  0  0  0  0  0
   -3.1047    2.3167   -6.0131 H   0  0  0  0  0  0  0  0  0  0  0  0
   -1.8784    2.1477   -4.7316 H   0  0  0  0  0  0  0  0  0  0  0  0
   -2.2328    0.7759   -5.8043 H   0  0  0  0  0  0  0  0  0  0  0  0
   -0.9852    3.4569   -6.7058 H   0  0  0  0  0  0  0  0  0  0  0  0
   -1.3359    2.0945   -7.7745 H   0  0  0  0  0  0  0  0  0  0  0  0
    0.1171    0.0966   -7.7954 H   0  0  0  0  0  0  0  0  0  0  0  0
    2.3346   -0.8699   -7.2846 H   0  0  0  0  0  0  0  0  0  0  0  0
    4.3067   -0.9367   -5.9515 H   0  0  0  0  0  0  0  0  0  0  0  0
    4.9043    0.5739   -7.6456 H   0  0  0  0  0  0  0  0  0  0  0  0
    6.2786    0.4791   -6.5332 H   0  0  0  0  0  0  0  0  0  0  0  0
    4.4343    2.7946   -6.6943 H   0  0  0  0  0  0  0  0  0  0  0  0
    4.2198    4.2070   -5.0328 H   0  0  0  0  0  0  0  0  0  0  0  0
    4.0817    7.8418   -2.4909 H   0  0  0  0  0  0  0  0  0  0  0  0
    5.0838    5.4712   -2.0990 H   0  0  0  0  0  0  0  0  0  0  0  0
    2.9299    6.5556   -0.1234 H   0  0  0  0  0  0  0  0  0  0  0  0
    4.2935    5.3830    0.2822 H   0  0  0  0  0  0  0  0  0  0  0  0
    2.0269    4.9547   -1.8547 H   0  0  0  0  0  0  0  0  0  0  0  0
    3.3679    3.7533   -1.4659 H   0  0  0  0  0  0  0  0  0  0  0  0
    5.5176    8.2855   -5.3965 H   0  0  0  0  0  0  0  0  0  0  0  0
    7.6374    7.5090   -6.4475 H   0  0  0  0  0  0  0  0  0  0  0  0
    9.0418    5.8724   -7.2860 H   0  0  0  0  0  0  0  0  0  0  0  0
    8.3104    4.3345   -7.8259 H   0  0  0  0  0  0  0  0  0  0  0  0
    9.0713    4.4098   -6.2470 H   0  0  0  0  0  0  0  0  0  0  0  0
    2.8025   -0.2669   -3.4796 H   0  0  0  0  0  0  0  0  0  0  0  0
    4.1356   -0.3401   -2.3034 H   0  0  0  0  0  0  0  0  0  0  0  0
    3.9580   -1.6293   -3.5297 H   0  0  0  0  0  0  0  0  0  0  0  0
    6.7779    0.6672   -4.5013 H   0  0  0  0  0  0  0  0  0  0  0  0
    6.3986   -1.0739   -4.2834 H   0  0  0  0  0  0  0  0  0  0  0  0
    6.3080    0.0560   -2.9068 H   0  0  0  0  0  0  0  0  0  0  0  0
    3.0744    2.3022   -4.4747 H   0  0  0  0  0  0  0  0  0  0  0  0
    0.8880    3.3180   -5.0295 H   0  0  0  0  0  0  0  0  0  0  0  0
  1  2  1  0
  1 31  1  0
  1 32  1  0
  1 33  1  0
  2  3  1  0
  2 34  1  0
  2 35  1  0
  3  4  2  0
  3 30  1  0
  4  5  1  0
  4 36  1  0
  5  6  2  0
  5 37  1  0
  6  7  1  0
  6 29  1  0
  7  8  1  0
  7 26  1  0
  7 38  1  6
  8  9  1  0
  8 39  1  0
  8 40  1  0
  9 10  1  0
  9 41  1  0
 10 11  2  0
 10 12  1  0
 12 13  2  0
 12 24  1  0
 13 14  1  0
 13 42  1  0
 14 15  1  0
 14 22  2  0
 15 16  2  0
 15 17  2  0
 15 18  1  1
 18 19  1  0
 18 43  1  0
 19 20  1  0
 19 21  1  0
 19 44  1  1
 20 21  1  0
 20 45  1  0
 20 46  1  0
 21 47  1  0
 21 48  1  0
 22 23  1  0
 22 49  1  0
 23 24  2  0
 23 50  1  0
 24 25  1  0
 25 51  1  0
 25 52  1  0
 25 53  1  0
 26 27  1  0
 26 28  1  0
 27 54  1  0
 27 55  1  0
 27 56  1  0
 28 57  1  0
 28 58  1  0
 28 59  1  0
 29 30  2  0
 29 60  1  0
 30 61  1  0
M  END

