
     RDKit          3D

 34 35  0  0  0  0  0  0  0  0999 V2000
    3.5555   -1.6948    0.4209 Cl  0  0  0  0  0  0  0  0  0  0  0  0
    3.0977   -0.0352   -0.1418 C   0  0  0  0  0  0  0  0  0  0  0  0
    2.9366    0.0258   -1.6659 C   0  0  1  0  0  0  0  0  0  0  0  0
    1.7511   -0.8114   -2.1769 C   0  0  0  0  0  0  0  0  0  0  0  0
    0.5123   -0.2275   -1.8206 O   0  0  0  0  0  0  0  0  0  0  0  0
    0.3694    1.0698   -2.3695 C   0  0  0  0  0  0  0  0  0  0  0  0
    1.4845    1.9841   -1.8612 C   0  0  0  0  0  0  0  0  0  0  0  0
    2.8220    1.4316   -2.0844 N   0  0  0  0  0  0  0  0  0  0  0  0
    3.4629    1.7500   -3.3561 C   0  0  0  0  0  0  0  0  0  0  0  0
    4.9843    1.9653   -3.2175 C   0  0  0  0  0  0  0  0  0  0  0  0
    5.6449    2.3188   -4.5312 C   0  0  0  0  0  0  0  0  0  0  0  0
    5.7668    3.6575   -4.9382 C   0  0  0  0  0  0  0  0  0  0  0  0
    6.3384    3.9871   -6.1704 C   0  0  0  0  0  0  0  0  0  0  0  0
    6.7986    2.9789   -7.0227 C   0  0  0  0  0  0  0  0  0  0  0  0
    6.6843    1.6415   -6.6318 C   0  0  0  0  0  0  0  0  0  0  0  0
    6.1127    1.3175   -5.3980 C   0  0  0  0  0  0  0  0  0  0  0  0
    3.8935    0.6490    0.1769 H   0  0  0  0  0  0  0  0  0  0  0  0
    2.1645    0.2206    0.3760 H   0  0  0  0  0  0  0  0  0  0  0  0
    3.8604   -0.3864   -2.1011 H   0  0  0  0  0  0  0  0  0  0  0  0
    1.7718   -1.8209   -1.7422 H   0  0  0  0  0  0  0  0  0  0  0  0
    1.8224   -0.9084   -3.2800 H   0  0  0  0  0  0  0  0  0  0  0  0
   -0.6199    1.4442   -2.0616 H   0  0  0  0  0  0  0  0  0  0  0  0
    0.3854    1.0179   -3.4792 H   0  0  0  0  0  0  0  0  0  0  0  0
    1.3325    2.1445   -0.7784 H   0  0  0  0  0  0  0  0  0  0  0  0
    1.4211    2.9754   -2.3369 H   0  0  0  0  0  0  0  0  0  0  0  0
    3.0173    2.6805   -3.7421 H   0  0  0  0  0  0  0  0  0  0  0  0
    3.2811    0.9829   -4.1389 H   0  0  0  0  0  0  0  0  0  0  0  0
    5.4449    1.0513   -2.8071 H   0  0  0  0  0  0  0  0  0  0  0  0
    5.1486    2.7626   -2.4751 H   0  0  0  0  0  0  0  0  0  0  0  0
    5.4157    4.4540   -4.2749 H   0  0  0  0  0  0  0  0  0  0  0  0
    6.4289    5.0363   -6.4642 H   0  0  0  0  0  0  0  0  0  0  0  0
    7.2486    3.2346   -7.9854 H   0  0  0  0  0  0  0  0  0  0  0  0
    7.0464    0.8459   -7.2885 H   0  0  0  0  0  0  0  0  0  0  0  0
    6.0354    0.2679   -5.0981 H   0  0  0  0  0  0  0  0  0  0  0  0
  1  2  1  0
  2  3  1  0
  2 17  1  0
  2 18  1  0
  3  4  1  0
  3  8  1  0
  3 19  1  6
  4  5  1  0
  4 20  1  0
  4 21  1  0
  5  6  1  0
  6  7  1  0
  6 22  1  0
  6 23  1  0
  7  8  1  0
  7 24  1  0
  7 25  1  0
  8  9  1  0
  9 10  1  0
  9 26  1  0
  9 27  1  0
 10 11  1  0
 10 28  1  0
 10 29  1  0
 11 12  2  0
 11 16  1  0
 12 13  1  0
 12 30  1  0
 13 14  2  0
 13 31  1  0
 14 15  1  0
 14 32  1  0
 15 16  2  0
 15 33  1  0
 16 34  1  0
M  END

