
     RDKit          3D

 32 32  0  0  0  0  0  0  0  0999 V2000
    0.9739    0.2284   -0.0413 C   0  0  0  0  0  0  0  0  0  0  0  0
    2.4585   -0.1721   -0.0821 C   0  0  1  0  0  0  0  0  0  0  0  0
    2.6559   -1.5434    0.5931 C   0  0  0  0  0  0  0  0  0  0  0  0
    2.9995   -0.1488   -1.5282 C   0  0  0  0  0  0  0  0  0  0  0  0
    2.3680   -1.1008   -2.5381 C   0  0  0  0  0  0  0  0  0  0  0  0
    3.0673   -0.9999   -3.8915 C   0  0  0  0  0  0  0  0  0  0  0  0
    4.0172   -0.2987   -4.1177 O   0  0  0  0  0  0  0  0  0  0  0  0
    2.5478   -1.7728   -4.8708 O   0  0  0  0  0  0  0  0  0  0  0  0
    3.1690    0.9027    0.6614 N   0  0  0  0  0  0  0  0  0  0  0  0
    4.8450    1.0732    0.7819 S   0  0  1  0  0  0  0  0  0  0  0  0
    5.0528    1.6577    2.1086 O   0  0  0  0  0  0  0  0  0  0  0  0
    5.5128   -0.1675    0.3700 O   0  0  0  0  0  0  0  0  0  0  0  0
    5.2798    2.3143   -0.3937 C   0  0  0  0  0  0  0  0  0  0  0  0
    5.4493    3.6984   -0.1262 C   0  0  0  0  0  0  0  0  0  0  0  0
    5.8075    4.3513   -1.2224 N   0  0  0  0  0  0  0  0  0  0  0  0
    5.8664    3.4092   -2.1796 N   0  0  0  0  0  0  0  0  0  0  0  0
    6.1277    3.6754   -3.1227 H   0  0  0  0  0  0  0  0  0  0  0  0
    5.5664    2.1651   -1.7449 C   0  0  0  0  0  0  0  0  0  0  0  0
    0.3463   -0.5321   -0.5307 H   0  0  0  0  0  0  0  0  0  0  0  0
    0.8125    1.1969   -0.5387 H   0  0  0  0  0  0  0  0  0  0  0  0
    0.6221    0.3158    0.9998 H   0  0  0  0  0  0  0  0  0  0  0  0
    2.0788   -2.3314    0.0829 H   0  0  0  0  0  0  0  0  0  0  0  0
    2.3052   -1.5061    1.6373 H   0  0  0  0  0  0  0  0  0  0  0  0
    3.7181   -1.8231    0.5984 H   0  0  0  0  0  0  0  0  0  0  0  0
    4.0724   -0.3766   -1.4956 H   0  0  0  0  0  0  0  0  0  0  0  0
    2.9035    0.8788   -1.9102 H   0  0  0  0  0  0  0  0  0  0  0  0
    1.2935   -0.8954   -2.6929 H   0  0  0  0  0  0  0  0  0  0  0  0
    2.4358   -2.1524   -2.2061 H   0  0  0  0  0  0  0  0  0  0  0  0
    1.7933   -2.2816   -4.5408 H   0  0  0  0  0  0  0  0  0  0  0  0
    2.7858    1.1077    1.5833 H   0  0  0  0  0  0  0  0  0  0  0  0
    5.3331    4.2112    0.8269 H   0  0  0  0  0  0  0  0  0  0  0  0
    5.5500    1.3013   -2.4070 H   0  0  0  0  0  0  0  0  0  0  0  0
  1  2  1  0
  1 19  1  0
  1 20  1  0
  1 21  1  0
  2  3  1  0
  2  4  1  0
  2  9  1  1
  3 22  1  0
  3 23  1  0
  3 24  1  0
  4  5  1  0
  4 25  1  0
  4 26  1  0
  5  6  1  0
  5 27  1  0
  5 28  1  0
  6  7  2  0
  6  8  1  0
  8 29  1  0
 10  9  1  1
  9 30  1  0
 10 11  2  0
 10 12  2  0
 10 13  1  0
 13 14  1  0
 13 18  2  0
 14 15  2  0
 14 31  1  0
 15 16  1  0
 16 17  1  0
 16 18  1  0
 18 32  1  0
M  END

