
     RDKit          3D

 42 43  0  0  0  0  0  0  0  0999 V2000
    0.3269    1.7224   -0.0257 C   0  0  0  0  0  0  0  0  0  0  0  0
    1.4227    0.6947   -0.3532 C   0  0  1  0  0  0  0  0  0  0  0  0
    1.7732    0.7687   -1.8530 C   0  0  0  0  0  0  0  0  0  0  0  0
    1.5678    1.7967   -2.4839 O   0  0  0  0  0  0  0  0  0  0  0  0
    2.3323   -0.3406   -2.4475 N   0  0  0  0  0  0  0  0  0  0  0  0
    2.6312   -0.2919   -3.8796 C   0  0  0  0  0  0  0  0  0  0  0  0
    4.0676   -0.7327   -4.1611 C   0  0  2  0  0  0  0  0  0  0  0  0
    4.3419   -0.9497   -5.6469 C   0  0  0  0  0  0  0  0  0  0  0  0
    3.5618   -1.9979   -6.1730 O   0  0  0  0  0  0  0  0  0  0  0  0
    4.3360   -1.9868   -3.5331 O   0  0  0  0  0  0  0  0  0  0  0  0
    4.1258   -1.9529   -2.1366 C   0  0  0  0  0  0  0  0  0  0  0  0
    2.6727   -1.6016   -1.7769 C   0  0  2  0  0  0  0  0  0  0  0  0
    1.6898   -2.7296   -2.1191 C   0  0  0  0  0  0  0  0  0  0  0  0
    2.6622    0.9110    0.5133 C   0  0  0  0  0  0  0  0  0  0  0  0
    3.5843    1.9254    0.2076 C   0  0  0  0  0  0  0  0  0  0  0  0
    4.6854    2.1287    1.0441 C   0  0  0  0  0  0  0  0  0  0  0  0
    4.8846    1.3452    2.1801 C   0  0  0  0  0  0  0  0  0  0  0  0
    3.9672    0.3271    2.5077 C   0  0  0  0  0  0  0  0  0  0  0  0
    4.1183   -0.4243    3.6639 N   0  0  0  0  0  0  0  0  0  0  0  0
    2.8628    0.1246    1.6549 C   0  0  0  0  0  0  0  0  0  0  0  0
   -0.5859    1.5231   -0.6082 H   0  0  0  0  0  0  0  0  0  0  0  0
    0.6639    2.7378   -0.2734 H   0  0  0  0  0  0  0  0  0  0  0  0
    0.0784    1.6808    1.0456 H   0  0  0  0  0  0  0  0  0  0  0  0
    1.0222   -0.3062   -0.1276 H   0  0  0  0  0  0  0  0  0  0  0  0
    2.4663    0.7404   -4.2120 H   0  0  0  0  0  0  0  0  0  0  0  0
    1.9471   -0.9491   -4.4426 H   0  0  0  0  0  0  0  0  0  0  0  0
    4.7675    0.0309   -3.7627 H   0  0  0  0  0  0  0  0  0  0  0  0
    5.4260   -1.1409   -5.7763 H   0  0  0  0  0  0  0  0  0  0  0  0
    4.0946   -0.0345   -6.2085 H   0  0  0  0  0  0  0  0  0  0  0  0
    3.7182   -2.7596   -5.5951 H   0  0  0  0  0  0  0  0  0  0  0  0
    4.8000   -1.2081   -1.6698 H   0  0  0  0  0  0  0  0  0  0  0  0
    4.3869   -2.9497   -1.7489 H   0  0  0  0  0  0  0  0  0  0  0  0
    2.6614   -1.4310   -0.6936 H   0  0  0  0  0  0  0  0  0  0  0  0
    1.7392   -2.9986   -3.1846 H   0  0  0  0  0  0  0  0  0  0  0  0
    0.6558   -2.4302   -1.8885 H   0  0  0  0  0  0  0  0  0  0  0  0
    1.9244   -3.6340   -1.5350 H   0  0  0  0  0  0  0  0  0  0  0  0
    3.4349    2.5494   -0.6759 H   0  0  0  0  0  0  0  0  0  0  0  0
    5.4065    2.9157    0.8065 H   0  0  0  0  0  0  0  0  0  0  0  0
    5.7498    1.5208    2.8258 H   0  0  0  0  0  0  0  0  0  0  0  0
    5.0465   -0.4571    4.0685 H   0  0  0  0  0  0  0  0  0  0  0  0
    3.6327   -1.3125    3.7006 H   0  0  0  0  0  0  0  0  0  0  0  0
    2.1388   -0.6589    1.9037 H   0  0  0  0  0  0  0  0  0  0  0  0
  1  2  1  0
  1 21  1  0
  1 22  1  0
  1 23  1  0
  2  3  1  0
  2 14  1  0
  2 24  1  6
  3  4  2  0
  3  5  1  0
  5  6  1  0
  5 12  1  0
  6  7  1  0
  6 25  1  0
  6 26  1  0
  7  8  1  0
  7 10  1  0
  7 27  1  1
  8  9  1  0
  8 28  1  0
  8 29  1  0
  9 30  1  0
 10 11  1  0
 11 12  1  0
 11 31  1  0
 11 32  1  0
 12 13  1  0
 12 33  1  1
 13 34  1  0
 13 35  1  0
 13 36  1  0
 14 15  2  0
 14 20  1  0
 15 16  1  0
 15 37  1  0
 16 17  2  0
 16 38  1  0
 17 18  1  0
 17 39  1  0
 18 19  1  0
 18 20  2  0
 19 40  1  0
 19 41  1  0
 20 42  1  0
M  END

