
     RDKit          3D

 41 42  0  0  0  0  0  0  0  0999 V2000
    1.0866   -1.0450   -0.3674 C   0  0  0  0  0  0  0  0  0  0  0  0
    2.5767   -0.6953   -0.2568 C   0  0  1  0  0  0  0  0  0  0  0  0
    2.8917   -0.8786    0.7861 H   0  0  0  0  0  0  0  0  0  0  0  0
    3.4750   -1.5494   -1.1770 C   0  0  0  0  0  0  0  0  0  0  0  0
    3.3420   -1.1579   -2.6555 C   0  0  0  0  0  0  0  0  0  0  0  0
    3.5587    0.3467   -2.8474 C   0  0  0  0  0  0  0  0  0  0  0  0
    2.6809    1.1109   -1.9606 N   0  0  0  0  0  0  0  0  0  0  0  0
    1.7442    1.9472   -2.5056 C   0  0  0  0  0  0  0  0  0  0  0  0
    1.6332    2.1364   -3.7041 O   0  0  0  0  0  0  0  0  0  0  0  0
    0.8036    2.6743   -1.5222 C   0  0  0  0  0  0  0  0  0  0  0  0
   -0.1788    3.3940   -2.2434 O   0  0  0  0  0  0  0  0  0  0  0  0
   -1.1532    2.6488   -2.8062 C   0  0  0  0  0  0  0  0  0  0  0  0
   -1.2838    1.4672   -2.6145 O   0  0  0  0  0  0  0  0  0  0  0  0
   -2.0329    3.4723   -3.7313 C   0  0  0  0  0  0  0  0  0  0  0  0
   -2.2749    4.8999   -3.3117 C   0  0  0  0  0  0  0  0  0  0  0  0
   -2.9345    5.1586   -2.1022 C   0  0  0  0  0  0  0  0  0  0  0  0
   -3.2933    4.0986   -1.3564 F   0  0  0  0  0  0  0  0  0  0  0  0
   -3.2248    6.4345   -1.6357 C   0  0  0  0  0  0  0  0  0  0  0  0
   -2.8425    7.5280   -2.4166 C   0  0  0  0  0  0  0  0  0  0  0  0
   -2.1855    7.3308   -3.6310 C   0  0  0  0  0  0  0  0  0  0  0  0
   -1.9099    6.0286   -4.0659 C   0  0  0  0  0  0  0  0  0  0  0  0
   -1.0894    5.8365   -5.6009 Cl  0  0  0  0  0  0  0  0  0  0  0  0
    2.8392    0.7991   -0.5436 C   0  0  0  0  0  0  0  0  0  0  0  0
    0.9235   -2.1246   -0.2202 H   0  0  0  0  0  0  0  0  0  0  0  0
    0.6602   -0.7714   -1.3451 H   0  0  0  0  0  0  0  0  0  0  0  0
    0.5001   -0.5159    0.4017 H   0  0  0  0  0  0  0  0  0  0  0  0
    3.2479   -2.6195   -1.0374 H   0  0  0  0  0  0  0  0  0  0  0  0
    4.5272   -1.4130   -0.8665 H   0  0  0  0  0  0  0  0  0  0  0  0
    2.3429   -1.4268   -3.0372 H   0  0  0  0  0  0  0  0  0  0  0  0
    4.0732   -1.7141   -3.2654 H   0  0  0  0  0  0  0  0  0  0  0  0
    3.3466    0.6638   -3.8754 H   0  0  0  0  0  0  0  0  0  0  0  0
    4.6093    0.6081   -2.6159 H   0  0  0  0  0  0  0  0  0  0  0  0
    1.3609    3.4217   -0.9381 H   0  0  0  0  0  0  0  0  0  0  0  0
    0.3223    1.9618   -0.8375 H   0  0  0  0  0  0  0  0  0  0  0  0
   -2.9793    2.9210   -3.8307 H   0  0  0  0  0  0  0  0  0  0  0  0
   -1.5347    3.4576   -4.7120 H   0  0  0  0  0  0  0  0  0  0  0  0
   -3.7395    6.5510   -0.6806 H   0  0  0  0  0  0  0  0  0  0  0  0
   -3.0582    8.5432   -2.0756 H   0  0  0  0  0  0  0  0  0  0  0  0
   -1.8826    8.1757   -4.2503 H   0  0  0  0  0  0  0  0  0  0  0  0
    2.1781    1.4284    0.0651 H   0  0  0  0  0  0  0  0  0  0  0  0
    3.8755    1.0489   -0.2454 H   0  0  0  0  0  0  0  0  0  0  0  0
  1  2  1  0
  1 24  1  0
  1 25  1  0
  1 26  1  0
  2  3  1  1
  2  4  1  0
  2 23  1  0
  4  5  1  0
  4 27  1  0
  4 28  1  0
  5  6  1  0
  5 29  1  0
  5 30  1  0
  6  7  1  0
  6 31  1  0
  6 32  1  0
  7  8  1  0
  7 23  1  0
  8  9  2  0
  8 10  1  0
 10 11  1  0
 10 33  1  0
 10 34  1  0
 11 12  1  0
 12 13  2  0
 12 14  1  0
 14 15  1  0
 14 35  1  0
 14 36  1  0
 15 16  2  0
 15 21  1  0
 16 17  1  0
 16 18  1  0
 18 19  2  0
 18 37  1  0
 19 20  1  0
 19 38  1  0
 20 21  2  0
 20 39  1  0
 21 22  1  0
 23 40  1  0
 23 41  1  0
M  END

