
     RDKit          3D

 33 33  0  0  0  0  0  0  0  0999 V2000
    1.5482    0.9250   -1.0481 C   0  0  0  0  0  0  0  0  0  0  0  0
    2.2817    0.1257   -0.1444 O   0  0  0  0  0  0  0  0  0  0  0  0
    2.8639    0.7166    0.9305 C   0  0  0  0  0  0  0  0  0  0  0  0
    2.7656    2.0787    1.2309 C   0  0  0  0  0  0  0  0  0  0  0  0
    3.3999    2.5990    2.3737 C   0  0  0  0  0  0  0  0  0  0  0  0
    3.2569    4.0744    2.7025 C   0  0  0  0  0  0  0  0  0  0  0  0
    1.9352    4.4589    3.1851 N   0  0  0  0  0  0  0  0  0  0  0  0
    0.9452    4.8371    2.3018 C   0  0  0  0  0  0  0  0  0  0  0  0
   -0.2961    5.0237    2.8877 N   0  0  0  0  0  0  0  0  0  0  0  0
    1.1303    4.9849    1.1028 O   0  0  0  0  0  0  0  0  0  0  0  0
    4.1390    1.7509    3.1990 C   0  0  0  0  0  0  0  0  0  0  0  0
    4.2415    0.3806    2.9084 C   0  0  0  0  0  0  0  0  0  0  0  0
    4.9283   -0.4179    3.7791 O   0  0  0  0  0  0  0  0  0  0  0  0
    6.0948   -1.0659    3.2897 C   0  0  0  0  0  0  0  0  0  0  0  0
    3.6051   -0.1479    1.7746 C   0  0  0  0  0  0  0  0  0  0  0  0
    3.7297   -1.4779    1.4786 O   0  0  0  0  0  0  0  0  0  0  0  0
    2.5896   -2.2835    1.7416 C   0  0  0  0  0  0  0  0  0  0  0  0
    1.1782    0.2497   -1.8312 H   0  0  0  0  0  0  0  0  0  0  0  0
    2.1810    1.7020   -1.5120 H   0  0  0  0  0  0  0  0  0  0  0  0
    0.6891    1.4179   -0.5596 H   0  0  0  0  0  0  0  0  0  0  0  0
    2.1989    2.7588    0.5952 H   0  0  0  0  0  0  0  0  0  0  0  0
    3.4435    4.6809    1.8053 H   0  0  0  0  0  0  0  0  0  0  0  0
    4.0011    4.3594    3.4630 H   0  0  0  0  0  0  0  0  0  0  0  0
    1.6391    4.0452    4.0628 H   0  0  0  0  0  0  0  0  0  0  0  0
   -0.3425    5.3059    3.8604 H   0  0  0  0  0  0  0  0  0  0  0  0
   -0.9705    5.4723    2.2783 H   0  0  0  0  0  0  0  0  0  0  0  0
    4.6495    2.1227    4.0905 H   0  0  0  0  0  0  0  0  0  0  0  0
    6.5147   -1.6340    4.1322 H   0  0  0  0  0  0  0  0  0  0  0  0
    6.8449   -0.3279    2.9504 H   0  0  0  0  0  0  0  0  0  0  0  0
    5.8633   -1.7533    2.4618 H   0  0  0  0  0  0  0  0  0  0  0  0
    2.8612   -3.3156    1.4773 H   0  0  0  0  0  0  0  0  0  0  0  0
    1.7274   -1.9715    1.1296 H   0  0  0  0  0  0  0  0  0  0  0  0
    2.3133   -2.2474    2.8105 H   0  0  0  0  0  0  0  0  0  0  0  0
  1  2  1  0
  1 18  1  0
  1 19  1  0
  1 20  1  0
  2  3  1  0
  3  4  2  0
  3 15  1  0
  4  5  1  0
  4 21  1  0
  5  6  1  0
  5 11  2  0
  6  7  1  0
  6 22  1  0
  6 23  1  0
  7  8  1  0
  7 24  1  0
  8  9  1  0
  8 10  2  0
  9 25  1  0
  9 26  1  0
 11 12  1  0
 11 27  1  0
 12 13  1  0
 12 15  2  0
 13 14  1  0
 14 28  1  0
 14 29  1  0
 14 30  1  0
 15 16  1  0
 16 17  1  0
 17 31  1  0
 17 32  1  0
 17 33  1  0
M  END

