
     RDKit          3D

 37 38  0  0  0  0  0  0  0  0999 V2000
    0.9776    0.4377   -0.7683 C   0  0  0  0  0  0  0  0  0  0  0  0
    2.4434    0.2646   -0.4834 C   0  0  0  0  0  0  0  0  0  0  0  0
    3.3778    0.2043   -1.5766 C   0  0  0  0  0  0  0  0  0  0  0  0
    4.6635    0.0690   -1.4180 N   0  0  0  0  0  0  0  0  0  0  0  0
    5.1511   -0.0212   -0.1803 N   0  0  0  0  0  0  0  0  0  0  0  0
    6.6003   -0.1691   -0.0691 C   0  0  0  0  0  0  0  0  0  0  0  0
    7.0121   -1.6348    0.0416 C   0  0  0  0  0  0  0  0  0  0  0  0
    8.4263   -1.6554    0.0746 O   0  0  0  0  0  0  0  0  0  0  0  0
    9.0836   -2.8345    0.1996 C   0  0  0  0  0  0  0  0  0  0  0  0
    8.4555   -4.0857    0.3043 C   0  0  0  0  0  0  0  0  0  0  0  0
    9.2285   -5.2416    0.4266 C   0  0  0  0  0  0  0  0  0  0  0  0
   10.6346   -5.1858    0.4491 C   0  0  0  0  0  0  0  0  0  0  0  0
   11.4204   -6.3752    0.5749 C   0  0  0  0  0  0  0  0  0  0  0  0
   12.1021   -7.3763    0.6966 C   0  0  0  0  0  0  0  0  0  0  0  0
   12.8971   -8.6064    0.7896 C   0  0  0  0  0  0  0  0  0  0  0  0
   13.5679   -8.9525   -0.4070 O   0  0  0  0  0  0  0  0  0  0  0  0
   11.2490   -3.9164    0.3432 C   0  0  0  0  0  0  0  0  0  0  0  0
   10.4886   -2.7623    0.2202 C   0  0  0  0  0  0  0  0  0  0  0  0
    4.3827   -0.0193    1.0101 C   0  0  0  0  0  0  0  0  0  0  0  0
    4.9230   -0.1612    2.0970 O   0  0  0  0  0  0  0  0  0  0  0  0
    2.9583    0.1598    0.7773 C   0  0  0  0  0  0  0  0  0  0  0  0
    0.6012   -0.3847   -1.3995 H   0  0  0  0  0  0  0  0  0  0  0  0
    0.7944    1.3741   -1.3213 H   0  0  0  0  0  0  0  0  0  0  0  0
    0.3857    0.4619    0.1571 H   0  0  0  0  0  0  0  0  0  0  0  0
    3.0349    0.2776   -2.6133 H   0  0  0  0  0  0  0  0  0  0  0  0
    6.9335    0.3696    0.8276 H   0  0  0  0  0  0  0  0  0  0  0  0
    7.0465    0.2808   -0.9648 H   0  0  0  0  0  0  0  0  0  0  0  0
    6.6322   -2.2011   -0.8291 H   0  0  0  0  0  0  0  0  0  0  0  0
    6.5893   -2.0728    0.9625 H   0  0  0  0  0  0  0  0  0  0  0  0
    7.3689   -4.1709    0.2940 H   0  0  0  0  0  0  0  0  0  0  0  0
    8.7332   -6.2114    0.5082 H   0  0  0  0  0  0  0  0  0  0  0  0
   12.2398   -9.4274    1.1453 H   0  0  0  0  0  0  0  0  0  0  0  0
   13.6804   -8.4848    1.5569 H   0  0  0  0  0  0  0  0  0  0  0  0
   12.9128   -8.9616   -1.1179 H   0  0  0  0  0  0  0  0  0  0  0  0
   12.3388   -3.8501    0.3591 H   0  0  0  0  0  0  0  0  0  0  0  0
   10.9583   -1.7802    0.1385 H   0  0  0  0  0  0  0  0  0  0  0  0
    2.3305    0.1915    1.6705 H   0  0  0  0  0  0  0  0  0  0  0  0
  1  2  1  0
  1 22  1  0
  1 23  1  0
  1 24  1  0
  2  3  1  0
  2 21  2  0
  3  4  2  0
  3 25  1  0
  4  5  1  0
  5  6  1  0
  5 19  1  0
  6  7  1  0
  6 26  1  0
  6 27  1  0
  7  8  1  0
  7 28  1  0
  7 29  1  0
  8  9  1  0
  9 10  2  0
  9 18  1  0
 10 11  1  0
 10 30  1  0
 11 12  2  0
 11 31  1  0
 12 13  1  0
 12 17  1  0
 13 14  3  0
 14 15  1  0
 15 16  1  0
 15 32  1  0
 15 33  1  0
 16 34  1  0
 17 18  2  0
 17 35  1  0
 18 36  1  0
 19 20  2  0
 19 21  1  0
 21 37  1  0
M  END

