
     RDKit          3D

 32 32  0  0  0  0  0  0  0  0999 V2000
    1.2047   -0.1942   -0.4140 C   0  0  0  0  0  0  0  0  0  0  0  0
    2.6666    0.0171   -0.0572 C   0  0  0  0  0  0  0  0  0  0  0  0
    3.3943   -1.1721   -0.2904 O   0  0  0  0  0  0  0  0  0  0  0  0
    5.0728   -1.3029   -0.2793 Si  0  0  1  0  0  4  0  0  0  0  0  0
    5.6032   -0.2502   -1.1870 H   0  0  0  0  0  0  0  0  0  0  0  0
    5.7022   -1.1612    1.4778 C   0  0  0  0  0  0  0  0  0  0  0  0
    5.2547   -2.9580   -0.9700 N   0  0  0  0  0  0  0  0  0  0  0  0
    4.1402   -3.7818   -1.4316 C   0  0  0  0  0  0  0  0  0  0  0  0
    6.5834   -3.2329   -1.1425 C   0  0  0  0  0  0  0  0  0  0  0  0
    7.3951   -2.3508   -0.8425 O   0  0  0  0  0  0  0  0  0  0  0  0
    7.0737   -4.5422   -1.6936 C   0  0  0  0  0  0  0  0  0  0  0  0
    8.2096   -4.5020   -2.5206 C   0  0  0  0  0  0  0  0  0  0  0  0
    8.7595   -5.6796   -3.0265 C   0  0  0  0  0  0  0  0  0  0  0  0
    8.1999   -6.9168   -2.6881 C   0  0  0  0  0  0  0  0  0  0  0  0
    7.0892   -6.9684   -1.8417 C   0  0  0  0  0  0  0  0  0  0  0  0
    6.5233   -5.7879   -1.3518 C   0  0  0  0  0  0  0  0  0  0  0  0
    0.6202    0.7193   -0.2189 H   0  0  0  0  0  0  0  0  0  0  0  0
    0.7775   -1.0153    0.1829 H   0  0  0  0  0  0  0  0  0  0  0  0
    1.0987   -0.4542   -1.4791 H   0  0  0  0  0  0  0  0  0  0  0  0
    2.7512    0.3174    1.0063 H   0  0  0  0  0  0  0  0  0  0  0  0
    3.0838    0.8516   -0.6566 H   0  0  0  0  0  0  0  0  0  0  0  0
    5.4275   -0.1826    1.9062 H   0  0  0  0  0  0  0  0  0  0  0  0
    6.7962   -1.2609    1.5087 H   0  0  0  0  0  0  0  0  0  0  0  0
    5.2549   -1.9449    2.1106 H   0  0  0  0  0  0  0  0  0  0  0  0
    3.2786   -3.1295   -1.6205 H   0  0  0  0  0  0  0  0  0  0  0  0
    3.8286   -4.5277   -0.6801 H   0  0  0  0  0  0  0  0  0  0  0  0
    4.3972   -4.3114   -2.3605 H   0  0  0  0  0  0  0  0  0  0  0  0
    8.6539   -3.5318   -2.7502 H   0  0  0  0  0  0  0  0  0  0  0  0
    9.6344   -5.6344   -3.6800 H   0  0  0  0  0  0  0  0  0  0  0  0
    8.6354   -7.8408   -3.0772 H   0  0  0  0  0  0  0  0  0  0  0  0
    6.6609   -7.9330   -1.5575 H   0  0  0  0  0  0  0  0  0  0  0  0
    5.6678   -5.8468   -0.6779 H   0  0  0  0  0  0  0  0  0  0  0  0
  1  2  1  0
  1 17  1  0
  1 18  1  0
  1 19  1  0
  2  3  1  0
  2 20  1  0
  2 21  1  0
  3  4  1  0
  4  5  1  6
  4  6  1  0
  4  7  1  0
  6 22  1  0
  6 23  1  0
  6 24  1  0
  7  8  1  0
  7  9  1  0
  8 25  1  0
  8 26  1  0
  8 27  1  0
  9 10  2  0
  9 11  1  0
 11 12  2  0
 11 16  1  0
 12 13  1  0
 12 28  1  0
 13 14  2  0
 13 29  1  0
 14 15  1  0
 14 30  1  0
 15 16  2  0
 15 31  1  0
 16 32  1  0
M  END

