
     RDKit          3D

 35 37  0  0  0  0  0  0  0  0999 V2000
    1.8269    1.3650    0.5902 C   0  0  0  0  0  0  0  0  0  0  0  0
    2.1604    0.2654   -0.2305 O   0  0  0  0  0  0  0  0  0  0  0  0
    2.7366    0.4833   -1.4368 C   0  0  0  0  0  0  0  0  0  0  0  0
    3.0637    1.7509   -1.9428 C   0  0  0  0  0  0  0  0  0  0  0  0
    3.6255    1.8890   -3.2116 C   0  0  0  0  0  0  0  0  0  0  0  0
    3.8737    0.7577   -4.0028 C   0  0  0  0  0  0  0  0  0  0  0  0
    4.4532    0.9218   -5.3288 C   0  0  0  0  0  0  0  0  0  0  0  0
    4.8087    2.0223   -5.9292 N   0  0  0  0  0  0  0  0  0  0  0  0
    5.3006    1.6656   -7.1615 N   0  0  0  0  0  0  0  0  0  0  0  0
    5.2191    0.3693   -7.2442 C   0  0  0  0  0  0  0  0  0  0  0  0
    5.6114   -0.4977   -8.3504 C   0  0  0  0  0  0  0  0  0  0  0  0
    6.1627    0.0784   -9.5105 C   0  0  0  0  0  0  0  0  0  0  0  0
    6.5433   -0.7327  -10.5778 C   0  0  0  0  0  0  0  0  0  0  0  0
    6.3800   -2.1214  -10.5027 C   0  0  0  0  0  0  0  0  0  0  0  0
    5.8325   -2.6970   -9.3520 C   0  0  0  0  0  0  0  0  0  0  0  0
    5.4485   -1.8923   -8.2780 C   0  0  0  0  0  0  0  0  0  0  0  0
    4.6879   -0.1683   -6.1105 O   0  0  0  0  0  0  0  0  0  0  0  0
    3.5600   -0.5155   -3.4923 C   0  0  0  0  0  0  0  0  0  0  0  0
    3.0005   -0.6671   -2.2267 C   0  0  0  0  0  0  0  0  0  0  0  0
    2.6598   -1.9198   -1.8114 O   0  0  0  0  0  0  0  0  0  0  0  0
    3.3137   -2.4443   -0.6640 C   0  0  0  0  0  0  0  0  0  0  0  0
    1.3614    0.9491    1.4934 H   0  0  0  0  0  0  0  0  0  0  0  0
    1.1075    2.0401    0.0940 H   0  0  0  0  0  0  0  0  0  0  0  0
    2.7200    1.9460    0.8818 H   0  0  0  0  0  0  0  0  0  0  0  0
    2.8700    2.6448   -1.3500 H   0  0  0  0  0  0  0  0  0  0  0  0
    3.8725    2.8769   -3.6033 H   0  0  0  0  0  0  0  0  0  0  0  0
    6.2833    1.1623   -9.5536 H   0  0  0  0  0  0  0  0  0  0  0  0
    6.9707   -0.2800  -11.4759 H   0  0  0  0  0  0  0  0  0  0  0  0
    6.6795   -2.7542  -11.3419 H   0  0  0  0  0  0  0  0  0  0  0  0
    5.7031   -3.7803   -9.2898 H   0  0  0  0  0  0  0  0  0  0  0  0
    5.0204   -2.3404   -7.3795 H   0  0  0  0  0  0  0  0  0  0  0  0
    3.7394   -1.4170   -4.0794 H   0  0  0  0  0  0  0  0  0  0  0  0
    2.9831   -3.4879   -0.5647 H   0  0  0  0  0  0  0  0  0  0  0  0
    3.0476   -1.8917    0.2500 H   0  0  0  0  0  0  0  0  0  0  0  0
    4.4116   -2.4297   -0.7903 H   0  0  0  0  0  0  0  0  0  0  0  0
  1  2  1  0
  1 22  1  0
  1 23  1  0
  1 24  1  0
  2  3  1  0
  3  4  2  0
  3 19  1  0
  4  5  1  0
  4 25  1  0
  5  6  2  0
  5 26  1  0
  6  7  1  0
  6 18  1  0
  7  8  2  0
  7 17  1  0
  8  9  1  0
  9 10  2  0
 10 11  1  0
 10 17  1  0
 11 12  2  0
 11 16  1  0
 12 13  1  0
 12 27  1  0
 13 14  2  0
 13 28  1  0
 14 15  1  0
 14 29  1  0
 15 16  2  0
 15 30  1  0
 16 31  1  0
 18 19  2  0
 18 32  1  0
 19 20  1  0
 20 21  1  0
 21 33  1  0
 21 34  1  0
 21 35  1  0
M  END

