
     RDKit          3D

 60 63  0  0  0  0  0  0  0  0999 V2000
    2.7010   -1.1846    1.3429 C   0  0  0  0  0  0  0  0  0  0  0  0
    2.2519    0.0666    1.8149 O   0  0  0  0  0  0  0  0  0  0  0  0
    3.0846    1.1348    1.7618 C   0  0  0  0  0  0  0  0  0  0  0  0
    4.4020    1.0958    1.2784 C   0  0  0  0  0  0  0  0  0  0  0  0
    5.1760    2.2589    1.2758 C   0  0  0  0  0  0  0  0  0  0  0  0
    4.6654    3.4883    1.7230 C   0  0  0  0  0  0  0  0  0  0  0  0
    5.5096    4.7201    1.7145 C   0  0  0  0  0  0  0  0  0  0  0  0
    5.0662    5.9052    1.1856 C   0  0  0  0  0  0  0  0  0  0  0  0
    5.7598    7.2113    1.4085 C   0  0  0  0  0  0  0  0  0  0  0  0
    6.0239    8.0791    0.3308 C   0  0  0  0  0  0  0  0  0  0  0  0
    6.6492    9.3113    0.5345 C   0  0  0  0  0  0  0  0  0  0  0  0
    7.0088    9.7130    1.8246 C   0  0  0  0  0  0  0  0  0  0  0  0
    6.7363    8.8709    2.9076 C   0  0  0  0  0  0  0  0  0  0  0  0
    6.1198    7.6353    2.7021 C   0  0  0  0  0  0  0  0  0  0  0  0
    3.8373    5.9867    0.3371 C   0  0  0  0  0  0  0  0  0  0  0  0
    2.8675    6.9841    0.5694 C   0  0  0  0  0  0  0  0  0  0  0  0
    1.7245    7.0778   -0.2274 C   0  0  0  0  0  0  0  0  0  0  0  0
    1.5360    6.1917   -1.2842 C   0  0  0  0  0  0  0  0  0  0  0  0
    2.5003    5.1954   -1.5647 C   0  0  0  0  0  0  0  0  0  0  0  0
    2.2330    4.3274   -2.6999 C   0  0  0  0  0  0  0  0  0  0  0  0
    2.9488    3.2973   -3.2526 C   0  0  0  0  0  0  0  0  0  0  0  0
    4.2203    2.8197   -2.7903 C   0  0  0  0  0  0  0  0  0  0  0  0
    5.2503    2.4099   -2.4427 N   0  0  0  0  0  0  0  0  0  0  0  0
    2.4157    2.6088   -4.3968 C   0  0  0  0  0  0  0  0  0  0  0  0
    1.9810    2.0547   -5.3204 N   0  0  0  0  0  0  0  0  0  0  0  0
    3.6440    5.1114   -0.7414 C   0  0  0  0  0  0  0  0  0  0  0  0
    6.8627    4.5671    2.3225 C   0  0  0  0  0  0  0  0  0  0  0  0
    7.0330    3.8847    3.5468 C   0  0  0  0  0  0  0  0  0  0  0  0
    8.2886    3.7234    4.1184 C   0  0  0  0  0  0  0  0  0  0  0  0
    9.4337    4.2197    3.4695 C   0  0  0  0  0  0  0  0  0  0  0  0
   10.6170    4.0088    4.0969 O   0  0  0  0  0  0  0  0  0  0  0  0
   11.8075    4.4756    3.5031 C   0  0  0  0  0  0  0  0  0  0  0  0
    9.2900    4.8779    2.2382 C   0  0  0  0  0  0  0  0  0  0  0  0
    8.0181    5.0463    1.6846 C   0  0  0  0  0  0  0  0  0  0  0  0
    3.3426    3.5039    2.2133 C   0  0  0  0  0  0  0  0  0  0  0  0
    2.5655    2.3523    2.2384 C   0  0  0  0  0  0  0  0  0  0  0  0
    1.8661   -1.8861    1.4737 H   0  0  0  0  0  0  0  0  0  0  0  0
    3.5705   -1.5528    1.9169 H   0  0  0  0  0  0  0  0  0  0  0  0
    2.9727   -1.1471    0.2727 H   0  0  0  0  0  0  0  0  0  0  0  0
    4.8355    0.1711    0.8976 H   0  0  0  0  0  0  0  0  0  0  0  0
    6.1970    2.2096    0.8911 H   0  0  0  0  0  0  0  0  0  0  0  0
    5.7436    7.7777   -0.6817 H   0  0  0  0  0  0  0  0  0  0  0  0
    6.8549    9.9619   -0.3197 H   0  0  0  0  0  0  0  0  0  0  0  0
    7.4927   10.6797    1.9861 H   0  0  0  0  0  0  0  0  0  0  0  0
    7.0022    9.1798    3.9221 H   0  0  0  0  0  0  0  0  0  0  0  0
    5.9089    6.9860    3.5541 H   0  0  0  0  0  0  0  0  0  0  0  0
    3.0130    7.6874    1.3925 H   0  0  0  0  0  0  0  0  0  0  0  0
    0.9780    7.8485   -0.0212 H   0  0  0  0  0  0  0  0  0  0  0  0
    0.6428    6.2672   -1.9097 H   0  0  0  0  0  0  0  0  0  0  0  0
    1.2869    4.5332   -3.2093 H   0  0  0  0  0  0  0  0  0  0  0  0
    4.4052    4.3590   -0.9364 H   0  0  0  0  0  0  0  0  0  0  0  0
    6.1577    3.4820    4.0616 H   0  0  0  0  0  0  0  0  0  0  0  0
    8.4161    3.2074    5.0723 H   0  0  0  0  0  0  0  0  0  0  0  0
   12.6251    4.2014    4.1833 H   0  0  0  0  0  0  0  0  0  0  0  0
   11.8012    5.5732    3.3756 H   0  0  0  0  0  0  0  0  0  0  0  0
   11.9888    4.0057    2.5195 H   0  0  0  0  0  0  0  0  0  0  0  0
   10.1575    5.2579    1.6985 H   0  0  0  0  0  0  0  0  0  0  0  0
    7.9268    5.5547    0.7230 H   0  0  0  0  0  0  0  0  0  0  0  0
    2.9230    4.4385    2.5916 H   0  0  0  0  0  0  0  0  0  0  0  0
    1.5454    2.3640    2.6277 H   0  0  0  0  0  0  0  0  0  0  0  0
  1  2  1  0
  1 37  1  0
  1 38  1  0
  1 39  1  0
  2  3  1  0
  3  4  2  0
  3 36  1  0
  4  5  1  0
  4 40  1  0
  5  6  2  0
  5 41  1  0
  6  7  1  0
  6 35  1  0
  7  8  2  0
  7 27  1  0
  8  9  1  0
  8 15  1  0
  9 10  2  0
  9 14  1  0
 10 11  1  0
 10 42  1  0
 11 12  2  0
 11 43  1  0
 12 13  1  0
 12 44  1  0
 13 14  2  0
 13 45  1  0
 14 46  1  0
 15 16  2  0
 15 26  1  0
 16 17  1  0
 16 47  1  0
 17 18  2  0
 17 48  1  0
 18 19  1  0
 18 49  1  0
 19 20  1  0
 19 26  2  0
 20 21  2  0
 20 50  1  0
 21 22  1  0
 21 24  1  0
 22 23  3  0
 24 25  3  0
 26 51  1  0
 27 28  2  0
 27 34  1  0
 28 29  1  0
 28 52  1  0
 29 30  2  0
 29 53  1  0
 30 31  1  0
 30 33  1  0
 31 32  1  0
 32 54  1  0
 32 55  1  0
 32 56  1  0
 33 34  2  0
 33 57  1  0
 34 58  1  0
 35 36  2  0
 35 59  1  0
 36 60  1  0
M  END

