
     RDKit          3D

 30 31  0  0  0  0  0  0  0  0999 V2000
    1.3561    0.0581    1.0113 O   0  0  0  0  0  0  0  0  0  0  0  0
    2.3777    0.0247    0.3493 C   0  0  0  0  0  0  0  0  0  0  0  0
    3.1300   -1.2851    0.1115 C   0  0  0  0  0  0  0  0  0  0  0  0
    4.0959   -1.2669   -1.0752 C   0  0  2  0  0  0  0  0  0  0  0  0
    4.8954   -2.4836   -1.0953 N   0  0  0  0  0  0  0  0  0  0  0  0
    5.4088   -2.9798   -2.2527 C   0  0  0  0  0  0  0  0  0  0  0  0
    5.2799   -2.3945   -3.3200 O   0  0  0  0  0  0  0  0  0  0  0  0
    6.2272   -4.2595   -2.1851 C   0  0  0  0  0  0  0  0  0  0  0  0
    7.2186   -4.3557   -3.1821 C   0  0  0  0  0  0  0  0  0  0  0  0
    8.0681   -5.4534   -3.2798 C   0  0  0  0  0  0  0  0  0  0  0  0
    7.9339   -6.5119   -2.3775 C   0  0  0  0  0  0  0  0  0  0  0  0
    6.9473   -6.4616   -1.3933 C   0  0  0  0  0  0  0  0  0  0  0  0
    6.1050   -5.3470   -1.2985 C   0  0  0  0  0  0  0  0  0  0  0  0
    4.7591   -5.4603    0.0727 Br  0  0  0  0  0  0  0  0  0  0  0  0
    4.9480    0.0086   -1.0294 C   0  0  0  0  0  0  0  0  0  0  0  0
    4.0480    1.2373   -1.1187 C   0  0  0  0  0  0  0  0  0  0  0  0
    2.9468    1.1581   -0.1671 N   0  0  0  0  0  0  0  0  0  0  0  0
    2.3752   -2.0793    0.0176 H   0  0  0  0  0  0  0  0  0  0  0  0
    3.6865   -1.4891    1.0455 H   0  0  0  0  0  0  0  0  0  0  0  0
    3.5268   -1.2499   -2.0197 H   0  0  0  0  0  0  0  0  0  0  0  0
    5.0285   -2.9924   -0.2291 H   0  0  0  0  0  0  0  0  0  0  0  0
    7.2867   -3.5269   -3.8886 H   0  0  0  0  0  0  0  0  0  0  0  0
    8.8297   -5.4864   -4.0623 H   0  0  0  0  0  0  0  0  0  0  0  0
    8.5885   -7.3847   -2.4400 H   0  0  0  0  0  0  0  0  0  0  0  0
    6.8194   -7.2911   -0.6962 H   0  0  0  0  0  0  0  0  0  0  0  0
    5.6573    0.0123   -1.8698 H   0  0  0  0  0  0  0  0  0  0  0  0
    5.5307    0.0260   -0.0915 H   0  0  0  0  0  0  0  0  0  0  0  0
    3.6618    1.3337   -2.1527 H   0  0  0  0  0  0  0  0  0  0  0  0
    4.6306    2.1503   -0.9132 H   0  0  0  0  0  0  0  0  0  0  0  0
    2.3953    1.9956   -0.0019 H   0  0  0  0  0  0  0  0  0  0  0  0
  1  2  2  0
  2  3  1  0
  2 17  1  0
  3  4  1  0
  3 18  1  0
  3 19  1  0
  4  5  1  0
  4 15  1  0
  4 20  1  6
  5  6  1  0
  5 21  1  0
  6  7  2  0
  6  8  1  0
  8  9  2  0
  8 13  1  0
  9 10  1  0
  9 22  1  0
 10 11  2  0
 10 23  1  0
 11 12  1  0
 11 24  1  0
 12 13  2  0
 12 25  1  0
 13 14  1  0
 15 16  1  0
 15 26  1  0
 15 27  1  0
 16 17  1  0
 16 28  1  0
 16 29  1  0
 17 30  1  0
M  END

