
     RDKit          3D

 45 46  0  0  0  0  0  0  0  0999 V2000
    0.6537    0.1458   -0.0628 C   0  0  0  0  0  0  0  0  0  0  0  0
    2.1826    0.0905    0.0049 C   0  0  0  0  0  0  0  0  0  0  0  0
    2.8137   -0.7040    1.1846 C   0  0  1  0  0  0  0  0  0  0  0  0
    2.3882   -0.1279    2.5454 C   0  0  0  0  0  0  0  0  0  0  0  0
    2.3710   -2.1743    1.1580 C   0  0  0  0  0  0  0  0  0  0  0  0
    2.8113   -2.7421   -0.0790 O   0  0  0  0  0  0  0  0  0  0  0  0
    2.5614   -4.0349   -0.3301 C   0  0  0  0  0  0  0  0  0  0  0  0
    1.8767   -4.7599    0.5388 N   0  0  0  0  0  0  0  0  0  0  0  0
    1.6348   -6.0492    0.2684 C   0  0  0  0  0  0  0  0  0  0  0  0
    2.0722   -6.6753   -0.8948 C   0  0  0  0  0  0  0  0  0  0  0  0
    2.8004   -5.9144   -1.8209 C   0  0  0  0  0  0  0  0  0  0  0  0
    3.0532   -4.5778   -1.5439 C   0  0  0  0  0  0  0  0  0  0  0  0
    3.9552   -3.5779   -2.6485 Cl  0  0  0  0  0  0  0  0  0  0  0  0
    4.2869   -0.7361    1.0934 N   0  0  0  0  0  0  0  0  0  0  0  0
    5.0276    0.5133    1.0869 C   0  0  0  0  0  0  0  0  0  0  0  0
    6.5215    0.2937    1.2640 C   0  0  0  0  0  0  0  0  0  0  0  0
    7.4449    1.2142    0.7475 C   0  0  0  0  0  0  0  0  0  0  0  0
    8.8169    1.0535    0.9648 C   0  0  0  0  0  0  0  0  0  0  0  0
    9.2893   -0.0371    1.6938 C   0  0  0  0  0  0  0  0  0  0  0  0
    8.3839   -0.9840    2.1958 C   0  0  0  0  0  0  0  0  0  0  0  0
    8.9451   -2.1443    2.9724 C   0  0  0  0  0  0  0  0  0  0  0  0
   10.0713   -2.1716    3.3957 O   0  0  0  0  0  0  0  0  0  0  0  0
    8.1145   -3.1916    3.1777 O   0  0  0  0  0  0  0  0  0  0  0  0
    7.0085   -0.8044    1.9844 C   0  0  0  0  0  0  0  0  0  0  0  0
    0.3317    0.7467   -0.9282 H   0  0  0  0  0  0  0  0  0  0  0  0
    0.2113    0.6075    0.8343 H   0  0  0  0  0  0  0  0  0  0  0  0
    0.2052   -0.8533   -0.1818 H   0  0  0  0  0  0  0  0  0  0  0  0
    2.5701    1.1224    0.0503 H   0  0  0  0  0  0  0  0  0  0  0  0
    2.5694   -0.3450   -0.9314 H   0  0  0  0  0  0  0  0  0  0  0  0
    1.3129   -0.2785    2.7228 H   0  0  0  0  0  0  0  0  0  0  0  0
    2.5777    0.9546    2.6051 H   0  0  0  0  0  0  0  0  0  0  0  0
    2.9444   -0.6187    3.3583 H   0  0  0  0  0  0  0  0  0  0  0  0
    1.2788   -2.2750    1.2437 H   0  0  0  0  0  0  0  0  0  0  0  0
    2.8264   -2.7238    1.9964 H   0  0  0  0  0  0  0  0  0  0  0  0
    1.0639   -6.6036    1.0214 H   0  0  0  0  0  0  0  0  0  0  0  0
    1.8560   -7.7289   -1.0803 H   0  0  0  0  0  0  0  0  0  0  0  0
    3.1719   -6.3501   -2.7505 H   0  0  0  0  0  0  0  0  0  0  0  0
    4.5469   -1.2965    0.2817 H   0  0  0  0  0  0  0  0  0  0  0  0
    4.6738    1.1351    1.9279 H   0  0  0  0  0  0  0  0  0  0  0  0
    4.8759    1.1307    0.1767 H   0  0  0  0  0  0  0  0  0  0  0  0
    7.0843    2.0703    0.1691 H   0  0  0  0  0  0  0  0  0  0  0  0
    9.5208    1.7839    0.5581 H   0  0  0  0  0  0  0  0  0  0  0  0
   10.3545   -0.1826    1.8816 H   0  0  0  0  0  0  0  0  0  0  0  0
    7.2865   -3.0635    2.6940 H   0  0  0  0  0  0  0  0  0  0  0  0
    6.2625   -1.4992    2.3802 H   0  0  0  0  0  0  0  0  0  0  0  0
  1  2  1  0
  1 25  1  0
  1 26  1  0
  1 27  1  0
  2  3  1  0
  2 28  1  0
  2 29  1  0
  3  4  1  0
  3  5  1  0
  3 14  1  6
  4 30  1  0
  4 31  1  0
  4 32  1  0
  5  6  1  0
  5 33  1  0
  5 34  1  0
  6  7  1  0
  7  8  2  0
  7 12  1  0
  8  9  1  0
  9 10  2  0
  9 35  1  0
 10 11  1  0
 10 36  1  0
 11 12  2  0
 11 37  1  0
 12 13  1  0
 14 15  1  0
 14 38  1  0
 15 16  1  0
 15 39  1  0
 15 40  1  0
 16 17  2  0
 16 24  1  0
 17 18  1  0
 17 41  1  0
 18 19  2  0
 18 42  1  0
 19 20  1  0
 19 43  1  0
 20 21  1  0
 20 24  2  0
 21 22  2  0
 21 23  1  0
 23 44  1  0
 24 45  1  0
M  END

