
     RDKit          3D

 87 95  0  0  0  0  0  0  0  0999 V2000
    4.7128   -1.2575    2.0741 C   0  0  0  0  0  0  0  0  0  0  0  0
    6.0755   -0.6998    2.2118 C   0  0  0  0  0  0  0  0  0  0  0  0
    7.2858   -0.4733    1.7510 C   0  0  0  0  0  0  0  0  0  0  0  0
    8.2856   -0.6126    0.7128 C   0  0  0  0  0  0  0  0  0  0  0  0
    7.9855   -1.2915   -0.4871 C   0  0  0  0  0  0  0  0  0  0  0  0
    8.9390   -1.4443   -1.4863 C   0  0  0  0  0  0  0  0  0  0  0  0
   10.2346   -0.9086   -1.3296 C   0  0  0  0  0  0  0  0  0  0  0  0
   11.2048   -1.0569   -2.3486 N   0  0  0  0  0  0  0  0  0  0  0  0
   10.8259   -0.9624   -3.7155 C   0  0  0  0  0  0  0  0  0  0  0  0
    9.9465    0.0473   -4.1473 C   0  0  0  0  0  0  0  0  0  0  0  0
    9.5741    0.1319   -5.4899 C   0  0  0  0  0  0  0  0  0  0  0  0
   10.0821   -0.7730   -6.4277 C   0  0  0  0  0  0  0  0  0  0  0  0
   10.9642   -1.7724   -6.0043 C   0  0  0  0  0  0  0  0  0  0  0  0
   11.3289   -1.8748   -4.6608 C   0  0  0  0  0  0  0  0  0  0  0  0
   12.5665   -1.2906   -2.0143 C   0  0  0  0  0  0  0  0  0  0  0  0
   12.9096   -2.2090   -1.0052 C   0  0  0  0  0  0  0  0  0  0  0  0
   14.2482   -2.4318   -0.6789 C   0  0  0  0  0  0  0  0  0  0  0  0
   15.2682   -1.7598   -1.3604 C   0  0  0  0  0  0  0  0  0  0  0  0
   14.9320   -0.8528   -2.3704 C   0  0  0  0  0  0  0  0  0  0  0  0
   13.5953   -0.6114   -2.6920 C   0  0  0  0  0  0  0  0  0  0  0  0
   10.5359   -0.2236   -0.1367 C   0  0  0  0  0  0  0  0  0  0  0  0
    9.5818   -0.0828    0.8672 C   0  0  0  0  0  0  0  0  0  0  0  0
    7.0030    0.0035    3.1413 C   0  0  2  0  0  0  0  0  0  0  0  0
    7.5752   -0.6531    4.3918 C   0  0  0  0  0  0  0  0  0  0  0  0
    6.7855    1.4667    3.3476 N   0  0  0  0  0  0  0  0  0  0  0  0
    5.6324    1.8969    3.7367 C   0  0  0  0  0  0  0  0  0  0  0  0
    5.4028    3.2333    4.1550 C   0  0  0  0  0  0  0  0  0  0  0  0
    4.1781    3.9245    3.8387 C   0  0  0  0  0  0  0  0  0  0  0  0
    3.9470    5.2968    3.5692 C   0  0  0  0  0  0  0  0  0  0  0  0
    4.9605    6.3681    3.3832 C   0  0  0  0  0  0  0  0  0  0  0  0
    6.1169    6.1474    2.6131 C   0  0  0  0  0  0  0  0  0  0  0  0
    7.0024    7.2075    2.4198 C   0  0  0  0  0  0  0  0  0  0  0  0
    6.7109    8.4457    2.9954 C   0  0  0  0  0  0  0  0  0  0  0  0
    5.5394    8.5609    3.7507 C   0  0  0  0  0  0  0  0  0  0  0  0
    4.6852    7.5557    3.9430 N   0  0  0  0  0  0  0  0  0  0  0  0
    2.6387    5.5486    3.3703 N   0  0  0  0  0  0  0  0  0  0  0  0
    2.0095    4.3803    3.4910 C   0  0  0  0  0  0  0  0  0  0  0  0
    0.6294    4.0839    3.4022 C   0  0  0  0  0  0  0  0  0  0  0  0
    0.2030    2.7877    3.5879 C   0  0  0  0  0  0  0  0  0  0  0  0
    1.1481    1.7599    3.8663 C   0  0  0  0  0  0  0  0  0  0  0  0
    2.4876    2.0442    3.9361 C   0  0  0  0  0  0  0  0  0  0  0  0
    2.9115    3.3369    3.7498 N   0  0  0  0  0  0  0  0  0  0  0  0
    6.4427    3.8003    4.9322 C   0  0  0  0  0  0  0  0  0  0  0  0
    6.5023    4.7338    6.0129 C   0  0  0  0  0  0  0  0  0  0  0  0
    5.3555    5.3727    6.7332 C   0  0  0  0  0  0  0  0  0  0  0  0
    7.8616    4.8974    6.2859 C   0  0  0  0  0  0  0  0  0  0  0  0
    8.6000    4.0742    5.3998 C   0  0  0  0  0  0  0  0  0  0  0  0
   10.0845    3.9492    5.3014 C   0  0  0  0  0  0  0  0  0  0  0  0
    7.7388    3.3942    4.6150 N   0  0  0  0  0  0  0  0  0  0  0  0
    7.9970    2.4988    3.3463 B   0  0  1  0  0  0  0  0  0  0  0  0
    9.2007    1.8219    3.4773 F   0  0  0  0  0  0  0  0  0  0  0  0
    7.9621    3.2830    2.2019 F   0  0  0  0  0  0  0  0  0  0  0  0
    3.9583   -0.4538    2.1264 H   0  0  0  0  0  0  0  0  0  0  0  0
    4.4894   -1.9580    2.8975 H   0  0  0  0  0  0  0  0  0  0  0  0
    4.5826   -1.7901    1.1198 H   0  0  0  0  0  0  0  0  0  0  0  0
    6.9890   -1.7174   -0.6279 H   0  0  0  0  0  0  0  0  0  0  0  0
    8.6880   -1.9854   -2.4001 H   0  0  0  0  0  0  0  0  0  0  0  0
    9.5578    0.7659   -3.4233 H   0  0  0  0  0  0  0  0  0  0  0  0
    8.8902    0.9236   -5.8072 H   0  0  0  0  0  0  0  0  0  0  0  0
    9.7939   -0.6995   -7.4789 H   0  0  0  0  0  0  0  0  0  0  0  0
   11.3650   -2.4905   -6.7247 H   0  0  0  0  0  0  0  0  0  0  0  0
   12.0081   -2.6648   -4.3346 H   0  0  0  0  0  0  0  0  0  0  0  0
   12.1193   -2.7469   -0.4782 H   0  0  0  0  0  0  0  0  0  0  0  0
   14.4955   -3.1490    0.1083 H   0  0  0  0  0  0  0  0  0  0  0  0
   16.3152   -1.9414   -1.1066 H   0  0  0  0  0  0  0  0  0  0  0  0
   15.7178   -0.3150   -2.9075 H   0  0  0  0  0  0  0  0  0  0  0  0
   13.3396    0.1077   -3.4724 H   0  0  0  0  0  0  0  0  0  0  0  0
   11.5288    0.2088   -0.0022 H   0  0  0  0  0  0  0  0  0  0  0  0
    9.8259    0.4666    1.7774 H   0  0  0  0  0  0  0  0  0  0  0  0
    6.8877   -0.5269    5.2454 H   0  0  0  0  0  0  0  0  0  0  0  0
    7.7196   -1.7305    4.2206 H   0  0  0  0  0  0  0  0  0  0  0  0
    8.5448   -0.2122    4.6662 H   0  0  0  0  0  0  0  0  0  0  0  0
    6.3226    5.1711    2.1721 H   0  0  0  0  0  0  0  0  0  0  0  0
    7.9059    7.0629    1.8222 H   0  0  0  0  0  0  0  0  0  0  0  0
    7.3737    9.3047    2.8671 H   0  0  0  0  0  0  0  0  0  0  0  0
    5.2817    9.5149    4.2267 H   0  0  0  0  0  0  0  0  0  0  0  0
   -0.0538    4.9075    3.1928 H   0  0  0  0  0  0  0  0  0  0  0  0
   -0.8589    2.5423    3.5188 H   0  0  0  0  0  0  0  0  0  0  0  0
    0.8222    0.7292    4.0138 H   0  0  0  0  0  0  0  0  0  0  0  0
    3.2774    1.3125    4.1107 H   0  0  0  0  0  0  0  0  0  0  0  0
    4.4946    4.6911    6.8095 H   0  0  0  0  0  0  0  0  0  0  0  0
    5.0014    6.2794    6.2140 H   0  0  0  0  0  0  0  0  0  0  0  0
    5.6542    5.6664    7.7508 H   0  0  0  0  0  0  0  0  0  0  0  0
    8.2971    5.5261    7.0615 H   0  0  0  0  0  0  0  0  0  0  0  0
   10.5708    4.6098    6.0320 H   0  0  0  0  0  0  0  0  0  0  0  0
   10.4391    4.2194    4.2933 H   0  0  0  0  0  0  0  0  0  0  0  0
   10.4118    2.9137    5.4788 H   0  0  0  0  0  0  0  0  0  0  0  0
  1  2  1  0
  1 53  1  0
  1 54  1  0
  1 55  1  0
  2  3  2  0
  2 23  1  0
  3  4  1  0
  3 23  1  0
  4  5  2  0
  4 22  1  0
  5  6  1  0
  5 56  1  0
  6  7  2  0
  6 57  1  0
  7  8  1  0
  7 21  1  0
  8  9  1  0
  8 15  1  0
  9 10  2  0
  9 14  1  0
 10 11  1  0
 10 58  1  0
 11 12  2  0
 11 59  1  0
 12 13  1  0
 12 60  1  0
 13 14  2  0
 13 61  1  0
 14 62  1  0
 15 16  2  0
 15 20  1  0
 16 17  1  0
 16 63  1  0
 17 18  2  0
 17 64  1  0
 18 19  1  0
 18 65  1  0
 19 20  2  0
 19 66  1  0
 20 67  1  0
 21 22  2  0
 21 68  1  0
 22 69  1  0
 23 24  1  1
 23 25  1  0
 24 70  1  0
 24 71  1  0
 24 72  1  0
 25 26  2  0
 25 50  1  0
 26 27  2  0
 27 28  1  0
 27 43  1  0
 28 29  2  0
 28 42  1  0
 29 30  1  0
 29 36  1  0
 30 31  2  0
 30 35  1  0
 31 32  1  0
 31 73  1  0
 32 33  2  0
 32 74  1  0
 33 34  1  0
 33 75  1  0
 34 35  2  0
 34 76  1  0
 36 37  2  0
 37 38  1  0
 37 42  1  0
 38 39  2  0
 38 77  1  0
 39 40  1  0
 39 78  1  0
 40 41  2  0
 40 79  1  0
 41 42  1  0
 41 80  1  0
 43 44  2  0
 43 49  1  0
 44 45  1  0
 44 46  1  0
 45 81  1  0
 45 82  1  0
 45 83  1  0
 46 47  2  0
 46 84  1  0
 47 48  1  0
 47 49  1  0
 48 85  1  0
 48 86  1  0
 48 87  1  0
 49 50  1  0
 50 51  1  1
 50 52  1  0
M  CHG  2  25   1  50  -1
M  END

