
     RDKit          3D

 42 43  0  0  0  0  0  0  0  0999 V2000
    3.3432   -3.1110   -0.1655 C   0  0  0  0  0  0  0  0  0  0  0  0
    4.3457   -1.9821    0.0817 C   0  0  0  0  0  0  0  0  0  0  0  0
    5.1531   -1.6156   -1.1681 C   0  0  0  0  0  0  0  0  0  0  0  0
    6.0944   -0.4079   -1.0063 C   0  0  1  0  0  0  0  0  0  0  0  0
    7.2068   -0.6270    0.0258 C   0  0  0  0  0  0  0  0  0  0  0  0
    6.6696   -0.0491   -2.3020 N   0  0  0  0  0  0  0  0  0  0  0  0
    6.5207    1.1717   -2.8769 C   0  0  0  0  0  0  0  0  0  0  0  0
    5.8697    2.0926   -2.4069 O   0  0  0  0  0  0  0  0  0  0  0  0
    7.2793    1.3352   -4.2071 C   0  0  0  0  0  0  0  0  0  0  0  0
    8.7103    1.5898   -4.0211 N   0  0  0  0  0  0  0  0  0  0  0  0
    9.5498    0.5057   -3.9526 C   0  0  0  0  0  0  0  0  0  0  0  0
    9.1521   -0.6486   -3.9656 O   0  0  0  0  0  0  0  0  0  0  0  0
   11.0278    0.8363   -3.8132 C   0  0  0  0  0  0  0  0  0  0  0  0
   11.3977    2.0713   -4.4046 O   0  0  0  0  0  0  0  0  0  0  0  0
   10.5888    3.1199   -4.1128 C   0  0  0  0  0  0  0  0  0  0  0  0
   11.1258    4.4090   -4.0847 C   0  0  0  0  0  0  0  0  0  0  0  0
   10.3069    5.5010   -3.8058 C   0  0  0  0  0  0  0  0  0  0  0  0
    8.9564    5.2723   -3.5421 C   0  0  0  0  0  0  0  0  0  0  0  0
    8.0872    6.4220   -3.2253 N   0  0  0  0  0  0  0  0  0  0  0  0
    8.6088    7.5258   -3.1813 O   0  0  0  0  0  0  0  0  0  0  0  0
    6.9037    6.1999   -3.0310 O   0  0  0  0  0  0  0  0  0  0  0  0
    8.3912    3.9949   -3.5654 C   0  0  0  0  0  0  0  0  0  0  0  0
    9.2107    2.9072   -3.8784 C   0  0  0  0  0  0  0  0  0  0  0  0
    2.7784   -3.3555    0.7480 H   0  0  0  0  0  0  0  0  0  0  0  0
    3.8504   -4.0318   -0.4994 H   0  0  0  0  0  0  0  0  0  0  0  0
    2.6133   -2.8360   -0.9451 H   0  0  0  0  0  0  0  0  0  0  0  0
    5.0266   -2.2760    0.8989 H   0  0  0  0  0  0  0  0  0  0  0  0
    3.8101   -1.0847    0.4410 H   0  0  0  0  0  0  0  0  0  0  0  0
    4.4561   -1.3884   -1.9932 H   0  0  0  0  0  0  0  0  0  0  0  0
    5.7427   -2.4928   -1.4977 H   0  0  0  0  0  0  0  0  0  0  0  0
    5.4972    0.4674   -0.7076 H   0  0  0  0  0  0  0  0  0  0  0  0
    7.8461   -1.4818   -0.2551 H   0  0  0  0  0  0  0  0  0  0  0  0
    6.7926   -0.8308    1.0246 H   0  0  0  0  0  0  0  0  0  0  0  0
    7.8439    0.2673    0.1030 H   0  0  0  0  0  0  0  0  0  0  0  0
    7.2903   -0.7118   -2.7644 H   0  0  0  0  0  0  0  0  0  0  0  0
    6.8334    2.1767   -4.7496 H   0  0  0  0  0  0  0  0  0  0  0  0
    7.1914    0.4229   -4.8128 H   0  0  0  0  0  0  0  0  0  0  0  0
   11.6003    0.0436   -4.3104 H   0  0  0  0  0  0  0  0  0  0  0  0
   11.2892    0.8288   -2.7360 H   0  0  0  0  0  0  0  0  0  0  0  0
   12.1912    4.5312   -4.2867 H   0  0  0  0  0  0  0  0  0  0  0  0
   10.6942    6.5183   -3.7748 H   0  0  0  0  0  0  0  0  0  0  0  0
    7.3352    3.8681   -3.3222 H   0  0  0  0  0  0  0  0  0  0  0  0
  1  2  1  0
  1 24  1  0
  1 25  1  0
  1 26  1  0
  2  3  1  0
  2 27  1  0
  2 28  1  0
  3  4  1  0
  3 29  1  0
  3 30  1  0
  4  5  1  0
  4  6  1  0
  4 31  1  1
  5 32  1  0
  5 33  1  0
  5 34  1  0
  6  7  1  0
  6 35  1  0
  7  8  2  0
  7  9  1  0
  9 10  1  0
  9 36  1  0
  9 37  1  0
 10 11  1  0
 10 23  1  0
 11 12  2  0
 11 13  1  0
 13 14  1  0
 13 38  1  0
 13 39  1  0
 14 15  1  0
 15 16  1  0
 15 23  2  0
 16 17  2  0
 16 40  1  0
 17 18  1  0
 17 41  1  0
 18 19  1  0
 18 22  2  0
 19 20  2  0
 19 21  1  0
 22 23  1  0
 22 42  1  0
M  CHG  2  19   1  21  -1
M  END

