
     RDKit          3D

 50 52  0  0  0  0  0  0  0  0999 V2000
    2.0068   -1.7752    0.1792 C   0  0  0  0  0  0  0  0  0  0  0  0
    2.4285   -0.3385   -0.1772 C   0  0  1  0  0  0  0  0  0  0  0  0
    1.2785    0.4316   -0.8479 C   0  0  0  0  0  0  0  0  0  0  0  0
    3.1537    0.6065    1.3201 Si  0  0  2  0  0  4  0  0  0  0  0  0
    4.6189   -0.3454    2.0998 C   0  0  1  0  0  0  0  0  0  0  0  0
    5.7219   -0.6660    1.0754 C   0  0  0  0  0  0  0  0  0  0  0  0
    5.1930    0.3791    3.3289 C   0  0  0  0  0  0  0  0  0  0  0  0
    1.8516    1.1206    2.5972 C   0  0  0  0  0  0  0  0  0  0  0  0
    1.0241    0.3642    3.4243 C   0  0  0  0  0  0  0  0  0  0  0  0
    0.1203    0.9931    4.3085 C   0  0  0  0  0  0  0  0  0  0  0  0
   -0.7291    0.2070    5.1559 C   0  0  0  0  0  0  0  0  0  0  0  0
   -1.4155   -0.4340    5.8406 N   0  0  0  0  0  0  0  0  0  0  0  0
    0.0623    2.3998    4.3503 C   0  0  0  0  0  0  0  0  0  0  0  0
    0.8880    3.1641    3.5299 C   0  0  0  0  0  0  0  0  0  0  0  0
    1.7892    2.5432    2.6479 C   0  0  0  0  0  0  0  0  0  0  0  0
    2.7150    3.2495    1.7347 C   0  0  0  0  0  0  0  0  0  0  0  0
    2.8330    4.6403    1.5992 C   0  0  0  0  0  0  0  0  0  0  0  0
    3.7363    5.2021    0.7019 C   0  0  0  0  0  0  0  0  0  0  0  0
    4.5746    4.3902   -0.1062 C   0  0  0  0  0  0  0  0  0  0  0  0
    5.4807    4.9477   -0.9879 N   0  0  0  0  0  0  0  0  0  0  0  0
    5.5162    6.3839   -1.1770 C   0  0  0  0  0  0  0  0  0  0  0  0
    6.2594    4.0942   -1.8621 C   0  0  0  0  0  0  0  0  0  0  0  0
    4.4416    2.9811    0.0288 C   0  0  0  0  0  0  0  0  0  0  0  0
    3.5396    2.4188    0.9303 C   0  0  0  0  0  0  0  0  0  0  0  0
    1.6400   -2.3113   -0.7136 H   0  0  0  0  0  0  0  0  0  0  0  0
    1.1859   -1.7836    0.9164 H   0  0  0  0  0  0  0  0  0  0  0  0
    2.8357   -2.3682    0.5981 H   0  0  0  0  0  0  0  0  0  0  0  0
    3.2612   -0.4013   -0.9045 H   0  0  0  0  0  0  0  0  0  0  0  0
    0.4187    0.5433   -0.1664 H   0  0  0  0  0  0  0  0  0  0  0  0
    0.9179   -0.1016   -1.7448 H   0  0  0  0  0  0  0  0  0  0  0  0
    1.5850    1.4421   -1.1603 H   0  0  0  0  0  0  0  0  0  0  0  0
    4.1883   -1.3056    2.4440 H   0  0  0  0  0  0  0  0  0  0  0  0
    6.1784    0.2554    0.6748 H   0  0  0  0  0  0  0  0  0  0  0  0
    5.3479   -1.2516    0.2201 H   0  0  0  0  0  0  0  0  0  0  0  0
    6.5347   -1.2502    1.5411 H   0  0  0  0  0  0  0  0  0  0  0  0
    5.6260    1.3552    3.0532 H   0  0  0  0  0  0  0  0  0  0  0  0
    5.9959   -0.2162    3.7975 H   0  0  0  0  0  0  0  0  0  0  0  0
    4.4252    0.5643    4.0962 H   0  0  0  0  0  0  0  0  0  0  0  0
    1.0607   -0.7282    3.4062 H   0  0  0  0  0  0  0  0  0  0  0  0
   -0.6360    2.8875    5.0337 H   0  0  0  0  0  0  0  0  0  0  0  0
    0.8250    4.2532    3.5835 H   0  0  0  0  0  0  0  0  0  0  0  0
    2.2114    5.3119    2.1969 H   0  0  0  0  0  0  0  0  0  0  0  0
    3.7884    6.2876    0.6307 H   0  0  0  0  0  0  0  0  0  0  0  0
    5.7404    6.9155   -0.2353 H   0  0  0  0  0  0  0  0  0  0  0  0
    4.5615    6.7869   -1.5672 H   0  0  0  0  0  0  0  0  0  0  0  0
    6.3073    6.6366   -1.8943 H   0  0  0  0  0  0  0  0  0  0  0  0
    5.6323    3.5241   -2.5754 H   0  0  0  0  0  0  0  0  0  0  0  0
    6.8587    3.3637   -1.2910 H   0  0  0  0  0  0  0  0  0  0  0  0
    6.9576    4.7095   -2.4436 H   0  0  0  0  0  0  0  0  0  0  0  0
    5.0556    2.3235   -0.5869 H   0  0  0  0  0  0  0  0  0  0  0  0
  1  2  1  0
  1 25  1  0
  1 26  1  0
  1 27  1  0
  2  3  1  0
  2  4  1  0
  2 28  1  6
  3 29  1  0
  3 30  1  0
  3 31  1  0
  4  5  1  0
  4  8  1  1
  4 24  1  0
  5  6  1  0
  5  7  1  0
  5 32  1  1
  6 33  1  0
  6 34  1  0
  6 35  1  0
  7 36  1  0
  7 37  1  0
  7 38  1  0
  8  9  2  0
  8 15  1  0
  9 10  1  0
  9 39  1  0
 10 11  1  0
 10 13  2  0
 11 12  3  0
 13 14  1  0
 13 40  1  0
 14 15  2  0
 14 41  1  0
 15 16  1  0
 16 17  2  0
 16 24  1  0
 17 18  1  0
 17 42  1  0
 18 19  2  0
 18 43  1  0
 19 20  1  0
 19 23  1  0
 20 21  1  0
 20 22  1  0
 21 44  1  0
 21 45  1  0
 21 46  1  0
 22 47  1  0
 22 48  1  0
 22 49  1  0
 23 24  2  0
 23 50  1  0
M  END

