
     RDKit          3D

 42 43  0  0  0  0  0  0  0  0999 V2000
    1.2050    0.9528   -0.5485 C   0  0  0  0  0  0  0  0  0  0  0  0
    2.0927    1.2169   -1.7637 C   0  0  0  0  0  0  0  0  0  0  0  0
    2.8078    0.0326   -2.2149 N   0  0  0  0  0  0  0  0  0  0  0  0
    3.8931   -0.3674   -1.5292 N   0  0  0  0  0  0  0  0  0  0  0  0
    4.3031   -1.4905   -2.1109 C   0  0  0  0  0  0  0  0  0  0  0  0
    5.5313   -2.1899   -1.6035 C   0  0  0  0  0  0  0  0  0  0  0  0
    3.4454   -1.8368   -3.2015 C   0  0  0  0  0  0  0  0  0  0  0  0
    3.5326   -3.0335   -4.1186 C   0  0  1  0  0  0  0  0  0  0  0  0
    4.8538   -3.0720   -4.9107 C   0  0  0  0  0  0  0  0  0  0  0  0
    3.3220   -4.2603   -3.3460 N   0  0  0  0  0  0  0  0  0  0  0  0
    2.7920   -5.4338   -3.8578 C   0  0  0  0  0  0  0  0  0  0  0  0
    2.4239   -6.4685   -2.9638 C   0  0  0  0  0  0  0  0  0  0  0  0
    1.8972   -7.6613   -3.4430 C   0  0  0  0  0  0  0  0  0  0  0  0
    1.7191   -7.8703   -4.8171 C   0  0  0  0  0  0  0  0  0  0  0  0
    2.0735   -6.8634   -5.7225 C   0  0  0  0  0  0  0  0  0  0  0  0
    1.8889   -7.0518   -7.2103 C   0  0  0  0  0  0  0  0  0  0  0  0
    2.6051   -5.6567   -5.2370 C   0  0  0  0  0  0  0  0  0  0  0  0
    2.4847   -0.8252   -3.2277 C   0  0  0  0  0  0  0  0  0  0  0  0
    1.3072   -0.6108   -4.1258 C   0  0  0  0  0  0  0  0  0  0  0  0
    0.7240    1.8859   -0.2147 H   0  0  0  0  0  0  0  0  0  0  0  0
    1.8093    0.5559    0.2808 H   0  0  0  0  0  0  0  0  0  0  0  0
    0.4139    0.2217   -0.7793 H   0  0  0  0  0  0  0  0  0  0  0  0
    2.8523    1.9760   -1.5234 H   0  0  0  0  0  0  0  0  0  0  0  0
    1.5006    1.6003   -2.6078 H   0  0  0  0  0  0  0  0  0  0  0  0
    5.7370   -1.8730   -0.5712 H   0  0  0  0  0  0  0  0  0  0  0  0
    6.4186   -1.9423   -2.2109 H   0  0  0  0  0  0  0  0  0  0  0  0
    5.4191   -3.2841   -1.6271 H   0  0  0  0  0  0  0  0  0  0  0  0
    2.7123   -2.9423   -4.8561 H   0  0  0  0  0  0  0  0  0  0  0  0
    5.7183   -3.1165   -4.2332 H   0  0  0  0  0  0  0  0  0  0  0  0
    4.9504   -2.1720   -5.5383 H   0  0  0  0  0  0  0  0  0  0  0  0
    4.8990   -3.9561   -5.5639 H   0  0  0  0  0  0  0  0  0  0  0  0
    3.1456   -4.1096   -2.3607 H   0  0  0  0  0  0  0  0  0  0  0  0
    2.5623   -6.3200   -1.8887 H   0  0  0  0  0  0  0  0  0  0  0  0
    1.6193   -8.4462   -2.7339 H   0  0  0  0  0  0  0  0  0  0  0  0
    1.3069   -8.8145   -5.1816 H   0  0  0  0  0  0  0  0  0  0  0  0
    1.5075   -8.0561   -7.4466 H   0  0  0  0  0  0  0  0  0  0  0  0
    2.8387   -6.9149   -7.7540 H   0  0  0  0  0  0  0  0  0  0  0  0
    1.1760   -6.3171   -7.6223 H   0  0  0  0  0  0  0  0  0  0  0  0
    2.8788   -4.8839   -5.9571 H   0  0  0  0  0  0  0  0  0  0  0  0
    1.2290   -1.4277   -4.8557 H   0  0  0  0  0  0  0  0  0  0  0  0
    1.3863    0.3320   -4.6935 H   0  0  0  0  0  0  0  0  0  0  0  0
    0.3582   -0.5793   -3.5648 H   0  0  0  0  0  0  0  0  0  0  0  0
  1  2  1  0
  1 20  1  0
  1 21  1  0
  1 22  1  0
  2  3  1  0
  2 23  1  0
  2 24  1  0
  3  4  1  0
  3 18  1  0
  4  5  2  0
  5  6  1  0
  5  7  1  0
  6 25  1  0
  6 26  1  0
  6 27  1  0
  7  8  1  0
  7 18  2  0
  8  9  1  0
  8 10  1  0
  8 28  1  6
  9 29  1  0
  9 30  1  0
  9 31  1  0
 10 11  1  0
 10 32  1  0
 11 12  2  0
 11 17  1  0
 12 13  1  0
 12 33  1  0
 13 14  2  0
 13 34  1  0
 14 15  1  0
 14 35  1  0
 15 16  1  0
 15 17  2  0
 16 36  1  0
 16 37  1  0
 16 38  1  0
 17 39  1  0
 18 19  1  0
 19 40  1  0
 19 41  1  0
 19 42  1  0
M  END

