
     RDKit          3D

 42 44  0  0  0  0  0  0  0  0999 V2000
    0.5294    0.5471   -0.2044 C   0  0  0  0  0  0  0  0  0  0  0  0
    1.6951    1.3439   -0.2186 O   0  0  0  0  0  0  0  0  0  0  0  0
    2.5552    1.2883    0.8223 C   0  0  0  0  0  0  0  0  0  0  0  0
    2.3813    0.4799    1.9588 C   0  0  0  0  0  0  0  0  0  0  0  0
    3.3313    0.4971    2.9798 C   0  0  0  0  0  0  0  0  0  0  0  0
    4.4804    1.3113    2.9105 C   0  0  0  0  0  0  0  0  0  0  0  0
    5.5112    1.3808    3.9325 C   0  0  0  0  0  0  0  0  0  0  0  0
    5.6516    0.7442    5.1213 C   0  0  0  0  0  0  0  0  0  0  0  0
    4.5971   -0.4472    5.9009 S   0  0  0  0  0  0  0  0  0  0  0  0
    5.6854   -0.5824    7.3162 C   0  0  0  0  0  0  0  0  0  0  0  0
    5.4250   -1.3808    8.2656 N   0  0  0  0  0  0  0  0  0  0  0  0
    6.2043   -1.4872    9.4276 C   0  0  0  0  0  0  0  0  0  0  0  0
    6.5302   -0.3688   10.2227 C   0  0  0  0  0  0  0  0  0  0  0  0
    7.2668   -0.5168   11.4049 C   0  0  0  0  0  0  0  0  0  0  0  0
    7.5642    0.6758   12.2828 C   0  0  0  0  0  0  0  0  0  0  0  0
    7.6910   -1.8014   11.7788 C   0  0  0  0  0  0  0  0  0  0  0  0
    7.3742   -2.9313   11.0108 C   0  0  0  0  0  0  0  0  0  0  0  0
    7.8490   -4.3066   11.4159 C   0  0  0  0  0  0  0  0  0  0  0  0
    6.6171   -2.7628    9.8442 C   0  0  0  0  0  0  0  0  0  0  0  0
    6.7682    0.2645    7.1391 N   0  0  0  0  0  0  0  0  0  0  0  0
    6.8474    1.0210    5.9747 C   0  0  0  0  0  0  0  0  0  0  0  0
    7.7584    1.7787    5.7201 O   0  0  0  0  0  0  0  0  0  0  0  0
    4.6306    2.1167    1.7541 C   0  0  0  0  0  0  0  0  0  0  0  0
    3.6954    2.1098    0.7323 C   0  0  0  0  0  0  0  0  0  0  0  0
   -0.0028    0.7571   -1.1416 H   0  0  0  0  0  0  0  0  0  0  0  0
   -0.1289    0.7995    0.6459 H   0  0  0  0  0  0  0  0  0  0  0  0
    0.7702   -0.5301   -0.1625 H   0  0  0  0  0  0  0  0  0  0  0  0
    1.5096   -0.1667    2.0590 H   0  0  0  0  0  0  0  0  0  0  0  0
    3.1594   -0.1443    3.8450 H   0  0  0  0  0  0  0  0  0  0  0  0
    6.3391    2.0679    3.7242 H   0  0  0  0  0  0  0  0  0  0  0  0
    6.1690    0.6216    9.9321 H   0  0  0  0  0  0  0  0  0  0  0  0
    7.5443    1.6171   11.7131 H   0  0  0  0  0  0  0  0  0  0  0  0
    8.5506    0.5873   12.7640 H   0  0  0  0  0  0  0  0  0  0  0  0
    6.8169    0.7667   13.0908 H   0  0  0  0  0  0  0  0  0  0  0  0
    8.2729   -1.9255   12.6971 H   0  0  0  0  0  0  0  0  0  0  0  0
    8.1965   -4.3250   12.4594 H   0  0  0  0  0  0  0  0  0  0  0  0
    8.6882   -4.6395   10.7806 H   0  0  0  0  0  0  0  0  0  0  0  0
    7.0486   -5.0559   11.3082 H   0  0  0  0  0  0  0  0  0  0  0  0
    6.3371   -3.6233    9.2318 H   0  0  0  0  0  0  0  0  0  0  0  0
    7.5110    0.3155    7.8307 H   0  0  0  0  0  0  0  0  0  0  0  0
    5.5104    2.7600    1.6686 H   0  0  0  0  0  0  0  0  0  0  0  0
    3.8173    2.7324   -0.1561 H   0  0  0  0  0  0  0  0  0  0  0  0
  1  2  1  0
  1 25  1  0
  1 26  1  0
  1 27  1  0
  2  3  1  0
  3  4  2  0
  3 24  1  0
  4  5  1  0
  4 28  1  0
  5  6  2  0
  5 29  1  0
  6  7  1  0
  6 23  1  0
  7  8  2  0
  7 30  1  0
  8  9  1  0
  8 21  1  0
  9 10  1  0
 10 11  2  0
 10 20  1  0
 11 12  1  0
 12 13  2  0
 12 19  1  0
 13 14  1  0
 13 31  1  0
 14 15  1  0
 14 16  2  0
 15 32  1  0
 15 33  1  0
 15 34  1  0
 16 17  1  0
 16 35  1  0
 17 18  1  0
 17 19  2  0
 18 36  1  0
 18 37  1  0
 18 38  1  0
 19 39  1  0
 20 21  1  0
 20 40  1  0
 21 22  2  0
 23 24  2  0
 23 41  1  0
 24 42  1  0
M  END

