
     RDKit          3D

 30 31  0  0  0  0  0  0  0  0999 V2000
    2.4890   -1.3368    0.7373 C   0  0  0  0  0  0  0  0  0  0  0  0
    2.2934    0.0061    0.3481 O   0  0  0  0  0  0  0  0  0  0  0  0
    2.9964    0.9895    0.9782 C   0  0  0  0  0  0  0  0  0  0  0  0
    3.9002    0.7779    2.0160 C   0  0  0  0  0  0  0  0  0  0  0  0
    4.5740    1.8619    2.6475 C   0  0  0  0  0  0  0  0  0  0  0  0
    5.5472    1.6361    3.7660 C   0  0  0  0  0  0  0  0  0  0  0  0
    5.8545    2.4774    4.5694 O   0  0  0  0  0  0  0  0  0  0  0  0
    6.0990    0.3964    3.8368 O   0  0  0  0  0  0  0  0  0  0  0  0
    4.3254    3.1734    2.2605 C   0  0  0  0  0  0  0  0  0  0  0  0
    3.4255    3.4134    1.2058 C   0  0  0  0  0  0  0  0  0  0  0  0
    2.9637    4.6094    0.5618 C   0  0  0  0  0  0  0  0  0  0  0  0
    2.0829    4.2177   -0.4157 C   0  0  0  0  0  0  0  0  0  0  0  0
    1.9616    2.8381   -0.4358 N   0  0  0  0  0  0  0  0  0  0  0  0
    1.0256    2.1247   -1.2983 C   0  0  0  0  0  0  0  0  0  0  0  0
   -0.3540    1.9538   -0.6555 C   0  0  0  0  0  0  0  0  0  0  0  0
   -0.9768    3.1835   -0.3649 O   0  0  0  0  0  0  0  0  0  0  0  0
    2.7709    2.3232    0.5599 C   0  0  0  0  0  0  0  0  0  0  0  0
    1.8350   -1.9462    0.0995 H   0  0  0  0  0  0  0  0  0  0  0  0
    2.2133   -1.5003    1.7942 H   0  0  0  0  0  0  0  0  0  0  0  0
    3.5357   -1.6560    0.5867 H   0  0  0  0  0  0  0  0  0  0  0  0
    4.0489   -0.2363    2.3874 H   0  0  0  0  0  0  0  0  0  0  0  0
    5.8974   -0.0973    3.0299 H   0  0  0  0  0  0  0  0  0  0  0  0
    4.8358    3.9874    2.7774 H   0  0  0  0  0  0  0  0  0  0  0  0
    3.2607    5.6303    0.7909 H   0  0  0  0  0  0  0  0  0  0  0  0
    1.5172    4.8155   -1.1278 H   0  0  0  0  0  0  0  0  0  0  0  0
    1.4476    1.1442   -1.5506 H   0  0  0  0  0  0  0  0  0  0  0  0
    0.9229    2.7088   -2.2258 H   0  0  0  0  0  0  0  0  0  0  0  0
   -0.2592    1.3097    0.2398 H   0  0  0  0  0  0  0  0  0  0  0  0
   -1.0057    1.4242   -1.3704 H   0  0  0  0  0  0  0  0  0  0  0  0
   -0.5237    3.5845    0.3890 H   0  0  0  0  0  0  0  0  0  0  0  0
  1  2  1  0
  1 18  1  0
  1 19  1  0
  1 20  1  0
  2  3  1  0
  3  4  2  0
  3 17  1  0
  4  5  1  0
  4 21  1  0
  5  6  1  0
  5  9  2  0
  6  7  2  0
  6  8  1  0
  8 22  1  0
  9 10  1  0
  9 23  1  0
 10 11  1  0
 10 17  2  0
 11 12  2  0
 11 24  1  0
 12 13  1  0
 12 25  1  0
 13 14  1  0
 13 17  1  0
 14 15  1  0
 14 26  1  0
 14 27  1  0
 15 16  1  0
 15 28  1  0
 15 29  1  0
 16 30  1  0
M  END

