
     RDKit          3D

 71 80  0  0  0  0  0  0  0  0999 V2000
    0.9902    0.8610   -2.1043 C   0  0  0  0  0  0  0  0  0  0  0  0
    2.4353    0.6744   -1.7116 C   0  0  0  0  0  0  0  0  0  0  0  0
    2.8642   -0.4666   -1.0172 C   0  0  0  0  0  0  0  0  0  0  0  0
    4.1979   -0.6261   -0.6332 C   0  0  0  0  0  0  0  0  0  0  0  0
    5.1447    0.3543   -0.9556 C   0  0  0  0  0  0  0  0  0  0  0  0
    6.5072    0.1913   -0.5803 N   0  0  0  0  0  0  0  0  0  0  0  0
    7.3464   -0.8369   -0.9948 C   0  0  0  0  0  0  0  0  0  0  0  0
    7.0730   -1.9041   -1.8475 C   0  0  0  0  0  0  0  0  0  0  0  0
    8.1068   -2.8046   -2.1212 C   0  0  0  0  0  0  0  0  0  0  0  0
    9.3969   -2.6603   -1.5699 C   0  0  0  0  0  0  0  0  0  0  0  0
    9.6422   -1.5706   -0.7257 C   0  0  0  0  0  0  0  0  0  0  0  0
    8.6387   -0.6417   -0.4214 C   0  0  0  0  0  0  0  0  0  0  0  0
    8.5589    0.5691    0.3780 C   0  0  0  0  0  0  0  0  0  0  0  0
    9.4890    1.2859    1.1993 C   0  0  0  0  0  0  0  0  0  0  0  0
   10.8442    0.9023    1.3902 C   0  0  0  0  0  0  0  0  0  0  0  0
   11.6918    1.6393    2.1961 C   0  0  0  0  0  0  0  0  0  0  0  0
   11.2286    2.8007    2.8560 C   0  0  0  0  0  0  0  0  0  0  0  0
    9.9176    3.2014    2.6932 C   0  0  0  0  0  0  0  0  0  0  0  0
    9.0188    2.4683    1.8725 C   0  0  0  0  0  0  0  0  0  0  0  0
    7.6616    2.8882    1.7147 C   0  0  0  0  0  0  0  0  0  0  0  0
    6.7732    2.1975    0.9228 C   0  0  0  0  0  0  0  0  0  0  0  0
    7.2376    1.0424    0.2510 C   0  0  0  0  0  0  0  0  0  0  0  0
   10.5157   -3.6644   -1.8745 C   0  0  2  0  0  0  0  0  0  0  0  0
   10.0232   -4.7469   -2.8407 C   0  0  0  0  0  0  0  0  0  0  0  0
   10.8863   -5.7662   -3.2796 C   0  0  0  0  0  0  0  0  0  0  0  0
   10.4593   -6.7631   -4.1529 C   0  0  0  0  0  0  0  0  0  0  0  0
    9.1352   -6.7600   -4.6135 C   0  0  0  0  0  0  0  0  0  0  0  0
    8.2603   -5.7636   -4.1958 C   0  0  0  0  0  0  0  0  0  0  0  0
    8.7052   -4.7650   -3.3149 C   0  0  0  0  0  0  0  0  0  0  0  0
    7.7743   -3.8313   -2.9615 O   0  0  0  0  0  0  0  0  0  0  0  0
   11.0763   -4.2898   -0.5842 C   0  0  0  0  0  0  0  0  0  0  0  0
   10.4101   -5.0632    0.3620 C   0  0  0  0  0  0  0  0  0  0  0  0
   11.1196   -5.5355    1.4740 C   0  0  0  0  0  0  0  0  0  0  0  0
   12.4795   -5.2345    1.6321 C   0  0  0  0  0  0  0  0  0  0  0  0
   13.1516   -4.4578    0.6829 C   0  0  0  0  0  0  0  0  0  0  0  0
   12.4438   -3.9853   -0.4283 C   0  0  0  0  0  0  0  0  0  0  0  0
   12.8745   -3.1612   -1.5689 C   0  0  0  0  0  0  0  0  0  0  0  0
   14.1203   -2.6051   -1.8817 C   0  0  0  0  0  0  0  0  0  0  0  0
   14.2488   -1.8507   -3.0524 C   0  0  0  0  0  0  0  0  0  0  0  0
   13.1490   -1.6543   -3.8990 C   0  0  0  0  0  0  0  0  0  0  0  0
   11.9015   -2.2104   -3.5868 C   0  0  0  0  0  0  0  0  0  0  0  0
   11.7706   -2.9617   -2.4224 C   0  0  0  0  0  0  0  0  0  0  0  0
    4.7337    1.4958   -1.6604 C   0  0  0  0  0  0  0  0  0  0  0  0
    3.3961    1.6518   -2.0224 C   0  0  0  0  0  0  0  0  0  0  0  0
    0.4065   -0.0585   -1.9504 H   0  0  0  0  0  0  0  0  0  0  0  0
    0.8955    1.1506   -3.1633 H   0  0  0  0  0  0  0  0  0  0  0  0
    0.5158    1.6600   -1.5089 H   0  0  0  0  0  0  0  0  0  0  0  0
    2.1395   -1.2443   -0.7606 H   0  0  0  0  0  0  0  0  0  0  0  0
    4.5096   -1.5123   -0.0767 H   0  0  0  0  0  0  0  0  0  0  0  0
    6.0968   -2.0609   -2.3055 H   0  0  0  0  0  0  0  0  0  0  0  0
   10.6431   -1.4630   -0.3094 H   0  0  0  0  0  0  0  0  0  0  0  0
   11.2273    0.0127    0.8924 H   0  0  0  0  0  0  0  0  0  0  0  0
   12.7295    1.3203    2.3231 H   0  0  0  0  0  0  0  0  0  0  0  0
   11.9067    3.3760    3.4911 H   0  0  0  0  0  0  0  0  0  0  0  0
    9.5485    4.0980    3.1996 H   0  0  0  0  0  0  0  0  0  0  0  0
    7.3307    3.7842    2.2466 H   0  0  0  0  0  0  0  0  0  0  0  0
    5.7382    2.5263    0.8178 H   0  0  0  0  0  0  0  0  0  0  0  0
   11.9181   -5.7684   -2.9203 H   0  0  0  0  0  0  0  0  0  0  0  0
   11.1547   -7.5414   -4.4753 H   0  0  0  0  0  0  0  0  0  0  0  0
    8.7863   -7.5360   -5.2993 H   0  0  0  0  0  0  0  0  0  0  0  0
    7.2228   -5.7283   -4.5338 H   0  0  0  0  0  0  0  0  0  0  0  0
    9.3495   -5.2989    0.2417 H   0  0  0  0  0  0  0  0  0  0  0  0
   10.6085   -6.1431    2.2251 H   0  0  0  0  0  0  0  0  0  0  0  0
   13.0190   -5.6100    2.5054 H   0  0  0  0  0  0  0  0  0  0  0  0
   14.2121   -4.2259    0.8105 H   0  0  0  0  0  0  0  0  0  0  0  0
   14.9809   -2.7556   -1.2249 H   0  0  0  0  0  0  0  0  0  0  0  0
   15.2154   -1.4097   -3.3096 H   0  0  0  0  0  0  0  0  0  0  0  0
   13.2655   -1.0614   -4.8098 H   0  0  0  0  0  0  0  0  0  0  0  0
   11.0453   -2.0550   -4.2482 H   0  0  0  0  0  0  0  0  0  0  0  0
    5.4715    2.2545   -1.9300 H   0  0  0  0  0  0  0  0  0  0  0  0
    3.0939    2.5483   -2.5717 H   0  0  0  0  0  0  0  0  0  0  0  0
  1  2  1  0
  1 45  1  0
  1 46  1  0
  1 47  1  0
  2  3  2  0
  2 44  1  0
  3  4  1  0
  3 48  1  0
  4  5  2  0
  4 49  1  0
  5  6  1  0
  5 43  1  0
  6  7  1  0
  6 22  1  0
  7  8  2  0
  7 12  1  0
  8  9  1  0
  8 50  1  0
  9 10  2  0
  9 30  1  0
 10 11  1  0
 23 10  1  1
 11 12  2  0
 11 51  1  0
 12 13  1  0
 13 14  1  0
 13 22  2  0
 14 15  2  0
 14 19  1  0
 15 16  1  0
 15 52  1  0
 16 17  2  0
 16 53  1  0
 17 18  1  0
 17 54  1  0
 18 19  2  0
 18 55  1  0
 19 20  1  0
 20 21  2  0
 20 56  1  0
 21 22  1  0
 21 57  1  0
 23 24  1  0
 23 31  1  0
 23 42  1  0
 24 25  1  0
 24 29  2  0
 25 26  2  0
 25 58  1  0
 26 27  1  0
 26 59  1  0
 27 28  2  0
 27 60  1  0
 28 29  1  0
 28 61  1  0
 29 30  1  0
 31 32  2  0
 31 36  1  0
 32 33  1  0
 32 62  1  0
 33 34  2  0
 33 63  1  0
 34 35  1  0
 34 64  1  0
 35 36  2  0
 35 65  1  0
 36 37  1  0
 37 38  2  0
 37 42  1  0
 38 39  1  0
 38 66  1  0
 39 40  2  0
 39 67  1  0
 40 41  1  0
 40 68  1  0
 41 42  2  0
 41 69  1  0
 43 44  2  0
 43 70  1  0
 44 71  1  0
M  END

