
     RDKit          3D

 46 48  0  0  0  0  0  0  0  0999 V2000
    3.9109    3.4681   -4.5475 C   0  0  0  0  0  0  0  0  0  0  0  0
    3.9388    2.3532   -3.6886 O   0  0  0  0  0  0  0  0  0  0  0  0
    3.4309    2.4667   -2.4275 C   0  0  0  0  0  0  0  0  0  0  0  0
    2.8860    3.6416   -1.9019 C   0  0  0  0  0  0  0  0  0  0  0  0
    2.4033    3.6617   -0.5859 C   0  0  0  0  0  0  0  0  0  0  0  0
    2.4558    2.5257    0.2239 C   0  0  0  0  0  0  0  0  0  0  0  0
    1.9472    2.5368    1.6457 C   0  0  0  0  0  0  0  0  0  0  0  0
    3.0067    1.3532   -0.3283 C   0  0  0  0  0  0  0  0  0  0  0  0
    3.4875    1.2945   -1.6357 C   0  0  0  0  0  0  0  0  0  0  0  0
    4.0835    0.0343   -2.2288 C   0  0  0  0  0  0  0  0  0  0  0  0
    3.8203   -1.1555   -1.4360 N   0  0  0  0  0  0  0  0  0  0  0  0
    4.4348   -2.3873   -1.9381 C   0  0  1  0  0  0  0  0  0  0  0  0
    5.9395   -2.4445   -1.5965 C   0  0  0  0  0  0  0  0  0  0  0  0
    6.1708   -2.6237   -0.0865 C   0  0  0  0  0  0  0  0  0  0  0  0
    5.4848   -3.7876    0.4773 N   0  0  0  0  0  0  0  0  0  0  0  0
    6.1275   -5.0485    0.2450 C   0  0  1  0  0  0  0  0  0  0  0  0
    7.2944   -5.4162    1.1260 C   0  0  0  0  0  0  0  0  0  0  0  0
    5.9719   -6.1221    1.2922 C   0  0  0  0  0  0  0  0  0  0  0  0
    4.0527   -3.7555    0.1856 C   0  0  0  0  0  0  0  0  0  0  0  0
    3.7365   -3.6104   -1.3147 C   0  0  0  0  0  0  0  0  0  0  0  0
    4.3605    3.1459   -5.4967 H   0  0  0  0  0  0  0  0  0  0  0  0
    4.4968    4.3142   -4.1441 H   0  0  0  0  0  0  0  0  0  0  0  0
    2.8792    3.8148   -4.7407 H   0  0  0  0  0  0  0  0  0  0  0  0
    2.8330    4.5500   -2.5024 H   0  0  0  0  0  0  0  0  0  0  0  0
    1.9812    4.5907   -0.1918 H   0  0  0  0  0  0  0  0  0  0  0  0
    1.5581    3.5267    1.9278 H   0  0  0  0  0  0  0  0  0  0  0  0
    2.7443    2.2740    2.3617 H   0  0  0  0  0  0  0  0  0  0  0  0
    1.1347    1.8045    1.7909 H   0  0  0  0  0  0  0  0  0  0  0  0
    3.0751    0.4481    0.2797 H   0  0  0  0  0  0  0  0  0  0  0  0
    5.1761    0.1739   -2.3131 H   0  0  0  0  0  0  0  0  0  0  0  0
    3.7337   -0.0625   -3.2795 H   0  0  0  0  0  0  0  0  0  0  0  0
    2.8115   -1.2879   -1.3670 H   0  0  0  0  0  0  0  0  0  0  0  0
    4.3280   -2.4528   -3.0445 H   0  0  0  0  0  0  0  0  0  0  0  0
    6.4527   -1.5346   -1.9490 H   0  0  0  0  0  0  0  0  0  0  0  0
    6.3911   -3.2843   -2.1527 H   0  0  0  0  0  0  0  0  0  0  0  0
    5.8021   -1.7235    0.4336 H   0  0  0  0  0  0  0  0  0  0  0  0
    7.2469   -2.7104    0.1315 H   0  0  0  0  0  0  0  0  0  0  0  0
    6.1935   -5.4157   -0.7947 H   0  0  0  0  0  0  0  0  0  0  0  0
    7.5725   -4.6920    1.8963 H   0  0  0  0  0  0  0  0  0  0  0  0
    8.1311   -5.9624    0.6814 H   0  0  0  0  0  0  0  0  0  0  0  0
    5.3771   -5.8648    2.1727 H   0  0  0  0  0  0  0  0  0  0  0  0
    5.8842   -7.1618    0.9642 H   0  0  0  0  0  0  0  0  0  0  0  0
    3.6108   -2.9031    0.7300 H   0  0  0  0  0  0  0  0  0  0  0  0
    3.5898   -4.6708    0.5872 H   0  0  0  0  0  0  0  0  0  0  0  0
    2.6439   -3.5426   -1.4691 H   0  0  0  0  0  0  0  0  0  0  0  0
    4.0666   -4.5143   -1.8539 H   0  0  0  0  0  0  0  0  0  0  0  0
  1  2  1  0
  1 21  1  0
  1 22  1  0
  1 23  1  0
  2  3  1  0
  3  4  2  0
  3  9  1  0
  4  5  1  0
  4 24  1  0
  5  6  2  0
  5 25  1  0
  6  7  1  0
  6  8  1  0
  7 26  1  0
  7 27  1  0
  7 28  1  0
  8  9  2  0
  8 29  1  0
  9 10  1  0
 10 11  1  0
 10 30  1  0
 10 31  1  0
 11 12  1  0
 11 32  1  0
 12 13  1  0
 12 20  1  0
 12 33  1  6
 13 14  1  0
 13 34  1  0
 13 35  1  0
 14 15  1  0
 14 36  1  0
 14 37  1  0
 15 16  1  0
 15 19  1  0
 16 17  1  0
 16 18  1  0
 16 38  1  6
 17 18  1  0
 17 39  1  0
 17 40  1  0
 18 41  1  0
 18 42  1  0
 19 20  1  0
 19 43  1  0
 19 44  1  0
 20 45  1  0
 20 46  1  0
M  END

