
     RDKit          3D

 47 49  0  0  0  0  0  0  0  0999 V2000
    1.7085    1.2571   -0.6703 C   0  0  0  0  0  0  0  0  0  0  0  0
    2.0630   -0.0867   -0.4013 O   0  0  0  0  0  0  0  0  0  0  0  0
    2.9691   -0.7402   -1.1913 C   0  0  0  0  0  0  0  0  0  0  0  0
    3.5782   -0.1128   -2.2883 C   0  0  0  0  0  0  0  0  0  0  0  0
    4.4989   -0.8062   -3.0772 C   0  0  0  0  0  0  0  0  0  0  0  0
    4.8216   -2.1311   -2.7820 C   0  0  0  0  0  0  0  0  0  0  0  0
    4.2142   -2.7508   -1.6920 C   0  0  0  0  0  0  0  0  0  0  0  0
    3.2851   -2.0874   -0.8749 C   0  0  0  0  0  0  0  0  0  0  0  0
    2.7322   -2.9290    0.2639 C   0  0  0  0  0  0  0  0  0  0  0  0
    3.0793   -4.0813    0.4098 O   0  0  0  0  0  0  0  0  0  0  0  0
    1.8271   -2.2887    1.0990 N   0  0  0  0  0  0  0  0  0  0  0  0
    1.1835   -2.8141    2.2058 C   0  0  0  0  0  0  0  0  0  0  0  0
    1.3498   -3.9825    2.7398 N   0  0  0  0  0  0  0  0  0  0  0  0
    0.5222   -4.1439    3.8217 C   0  0  0  0  0  0  0  0  0  0  0  0
   -0.2964   -3.0974    4.1511 C   0  0  0  0  0  0  0  0  0  0  0  0
   -1.2504   -2.9460    5.2984 C   0  0  0  0  0  0  0  0  0  0  0  0
   -2.5377   -2.3879    4.8986 N   0  0  0  0  0  0  0  0  0  0  0  0
   -3.3418   -3.2668    4.0450 C   0  0  0  0  0  0  0  0  0  0  0  0
   -4.1080   -4.3520    4.8200 C   0  0  0  0  0  0  0  0  0  0  0  0
   -4.9610   -3.7231    5.9296 C   0  0  0  0  0  0  0  0  0  0  0  0
   -4.1043   -2.8056    6.8144 C   0  0  0  0  0  0  0  0  0  0  0  0
   -3.3115   -1.7642    5.9868 C   0  0  2  0  0  0  0  0  0  0  0  0
   -4.1971   -0.6304    5.4510 C   0  0  0  0  0  0  0  0  0  0  0  0
   -0.0363   -1.7982    3.0038 S   0  0  0  0  0  0  0  0  0  0  0  0
    0.9763    1.5419    0.0967 H   0  0  0  0  0  0  0  0  0  0  0  0
    1.2465    1.3617   -1.6666 H   0  0  0  0  0  0  0  0  0  0  0  0
    2.5820    1.9274   -0.6019 H   0  0  0  0  0  0  0  0  0  0  0  0
    3.3385    0.9208   -2.5348 H   0  0  0  0  0  0  0  0  0  0  0  0
    4.9621   -0.2985   -3.9272 H   0  0  0  0  0  0  0  0  0  0  0  0
    5.5406   -2.6782   -3.3956 H   0  0  0  0  0  0  0  0  0  0  0  0
    4.4398   -3.7858   -1.4292 H   0  0  0  0  0  0  0  0  0  0  0  0
    1.6128   -1.3253    0.8520 H   0  0  0  0  0  0  0  0  0  0  0  0
    0.5505   -5.0854    4.3757 H   0  0  0  0  0  0  0  0  0  0  0  0
   -0.8164   -2.2559    6.0434 H   0  0  0  0  0  0  0  0  0  0  0  0
   -1.3107   -3.9363    5.8026 H   0  0  0  0  0  0  0  0  0  0  0  0
   -2.6788   -3.7190    3.2915 H   0  0  0  0  0  0  0  0  0  0  0  0
   -4.0636   -2.6468    3.4847 H   0  0  0  0  0  0  0  0  0  0  0  0
   -3.3940   -5.0689    5.2646 H   0  0  0  0  0  0  0  0  0  0  0  0
   -4.7350   -4.9336    4.1229 H   0  0  0  0  0  0  0  0  0  0  0  0
   -5.4404   -4.5037    6.5438 H   0  0  0  0  0  0  0  0  0  0  0  0
   -5.7850   -3.1449    5.4739 H   0  0  0  0  0  0  0  0  0  0  0  0
   -3.3871   -3.4258    7.3816 H   0  0  0  0  0  0  0  0  0  0  0  0
   -4.7281   -2.2919    7.5657 H   0  0  0  0  0  0  0  0  0  0  0  0
   -2.5728   -1.2951    6.6584 H   0  0  0  0  0  0  0  0  0  0  0  0
   -5.0025   -0.9932    4.7941 H   0  0  0  0  0  0  0  0  0  0  0  0
   -3.5874    0.0793    4.8719 H   0  0  0  0  0  0  0  0  0  0  0  0
   -4.6727   -0.0872    6.2833 H   0  0  0  0  0  0  0  0  0  0  0  0
  1  2  1  0
  1 25  1  0
  1 26  1  0
  1 27  1  0
  2  3  1  0
  3  4  2  0
  3  8  1  0
  4  5  1  0
  4 28  1  0
  5  6  2  0
  5 29  1  0
  6  7  1  0
  6 30  1  0
  7  8  2  0
  7 31  1  0
  8  9  1  0
  9 10  2  0
  9 11  1  0
 11 12  1  0
 11 32  1  0
 12 13  2  0
 12 24  1  0
 13 14  1  0
 14 15  2  0
 14 33  1  0
 15 16  1  0
 15 24  1  0
 16 17  1  0
 16 34  1  0
 16 35  1  0
 17 18  1  0
 17 22  1  0
 18 19  1  0
 18 36  1  0
 18 37  1  0
 19 20  1  0
 19 38  1  0
 19 39  1  0
 20 21  1  0
 20 40  1  0
 20 41  1  0
 21 22  1  0
 21 42  1  0
 21 43  1  0
 22 23  1  0
 22 44  1  1
 23 45  1  0
 23 46  1  0
 23 47  1  0
M  END

