
     RDKit          3D

 29 30  0  0  0  0  0  0  0  0999 V2000
    1.5794    0.5276   -0.8120 O   0  0  0  0  0  0  0  0  0  0  0  0
    2.6962    0.3532   -0.3520 C   0  0  0  0  0  0  0  0  0  0  0  0
    3.4190    1.3529    0.4721 C   0  0  0  0  0  0  0  0  0  0  0  0
    2.8259    2.5330    0.7428 C   0  0  0  0  0  0  0  0  0  0  0  0
    3.3853    3.6316    1.5346 C   0  0  0  0  0  0  0  0  0  0  0  0
    2.6148    4.7993    1.7150 C   0  0  0  0  0  0  0  0  0  0  0  0
    3.0935    5.8760    2.4575 C   0  0  0  0  0  0  0  0  0  0  0  0
    4.3628    5.7816    3.0275 C   0  0  0  0  0  0  0  0  0  0  0  0
    4.8821    6.9160    3.8169 N   0  0  0  0  0  0  0  0  0  0  0  0
    4.1646    7.8968    3.9353 O   0  0  0  0  0  0  0  0  0  0  0  0
    5.9967    6.8027    4.3020 O   0  0  0  0  0  0  0  0  0  0  0  0
    5.1573    4.6415    2.8718 C   0  0  0  0  0  0  0  0  0  0  0  0
    4.6661    3.5751    2.1282 C   0  0  0  0  0  0  0  0  0  0  0  0
    3.3354   -0.8611   -0.6163 N   0  0  0  0  0  0  0  0  0  0  0  0
    4.5783   -1.3660   -0.2506 C   0  0  0  0  0  0  0  0  0  0  0  0
    5.5083   -0.7895    0.4753 N   0  0  0  0  0  0  0  0  0  0  0  0
    6.5411   -1.6984    0.5475 C   0  0  0  0  0  0  0  0  0  0  0  0
    6.2308   -2.8401   -0.1443 C   0  0  0  0  0  0  0  0  0  0  0  0
    4.9603   -2.6169   -0.6568 N   0  0  0  0  0  0  0  0  0  0  0  0
    4.4263   -3.2630   -1.2251 H   0  0  0  0  0  0  0  0  0  0  0  0
    4.4141    1.0814    0.8270 H   0  0  0  0  0  0  0  0  0  0  0  0
    1.8234    2.6904    0.3307 H   0  0  0  0  0  0  0  0  0  0  0  0
    1.6222    4.8574    1.2618 H   0  0  0  0  0  0  0  0  0  0  0  0
    2.5075    6.7828    2.6037 H   0  0  0  0  0  0  0  0  0  0  0  0
    6.1429    4.6127    3.3354 H   0  0  0  0  0  0  0  0  0  0  0  0
    5.2845    2.6842    2.0054 H   0  0  0  0  0  0  0  0  0  0  0  0
    2.7468   -1.4612   -1.1863 H   0  0  0  0  0  0  0  0  0  0  0  0
    7.4539   -1.4763    1.0974 H   0  0  0  0  0  0  0  0  0  0  0  0
    6.7712   -3.7659   -0.3200 H   0  0  0  0  0  0  0  0  0  0  0  0
  1  2  2  0
  2  3  1  0
  2 14  1  0
  3  4  2  0
  3 21  1  0
  4  5  1  0
  4 22  1  0
  5  6  2  0
  5 13  1  0
  6  7  1  0
  6 23  1  0
  7  8  2  0
  7 24  1  0
  8  9  1  0
  8 12  1  0
  9 10  1  0
  9 11  1  0
 12 13  2  0
 12 25  1  0
 13 26  1  0
 14 15  2  0
 14 27  1  0
 15 16  1  0
 15 19  1  0
 16 17  2  0
 17 18  1  0
 17 28  1  0
 18 19  2  0
 18 29  1  0
 19 20  1  0
M  CHG  4  10  -1  11  -1  14   1  19   1
M  END

