
     RDKit          3D

 42 43  0  0  0  0  0  0  0  0999 V2000
    1.0552    0.5907    0.3920 C   0  0  0  0  0  0  0  0  0  0  0  0
    2.5124    0.3415    0.0832 C   0  0  0  0  0  0  0  0  0  0  0  0
    3.4054    1.3912   -0.1461 C   0  0  0  0  0  0  0  0  0  0  0  0
    4.7469    1.1238   -0.4296 C   0  0  0  0  0  0  0  0  0  0  0  0
    5.2414   -0.1839   -0.4982 C   0  0  0  0  0  0  0  0  0  0  0  0
    6.7057   -0.4133   -0.7893 C   0  0  0  0  0  0  0  0  0  0  0  0
    4.3482   -1.2671   -0.2783 C   0  0  0  0  0  0  0  0  0  0  0  0
    4.9128   -2.6823   -0.3132 C   0  0  0  0  0  0  0  0  0  0  0  0
    3.9866   -3.9282   -0.3856 C   0  0  1  0  0  0  0  0  0  0  0  0
    3.0330   -3.8807   -1.6319 C   0  0  1  0  0  0  0  0  0  0  0  0
    3.7625   -3.6087   -2.9560 C   0  0  0  0  0  0  0  0  0  0  0  0
    2.1446   -5.1263   -1.7464 C   0  0  0  0  0  0  0  0  0  0  0  0
    4.8905   -5.2078   -0.3937 C   0  0  0  0  0  0  0  0  0  0  0  0
    4.3181   -6.1312    0.6918 C   0  0  0  0  0  0  0  0  0  0  0  0
    3.7589   -5.1347    1.7055 C   0  0  0  0  0  0  0  0  0  0  0  0
    3.1855   -4.0935    0.8568 N   0  0  0  0  0  0  0  0  0  0  0  0
    3.0080   -0.9721    0.0134 C   0  0  0  0  0  0  0  0  0  0  0  0
    0.8317    1.6666    0.4440 H   0  0  0  0  0  0  0  0  0  0  0  0
    0.7639    0.1400    1.3556 H   0  0  0  0  0  0  0  0  0  0  0  0
    0.3998    0.1492   -0.3778 H   0  0  0  0  0  0  0  0  0  0  0  0
    3.0554    2.4265   -0.1015 H   0  0  0  0  0  0  0  0  0  0  0  0
    5.4335    1.9582   -0.6008 H   0  0  0  0  0  0  0  0  0  0  0  0
    7.2395    0.5421   -0.8976 H   0  0  0  0  0  0  0  0  0  0  0  0
    6.8588   -0.9863   -1.7199 H   0  0  0  0  0  0  0  0  0  0  0  0
    7.2021   -0.9841    0.0137 H   0  0  0  0  0  0  0  0  0  0  0  0
    5.5423   -2.8093    0.5887 H   0  0  0  0  0  0  0  0  0  0  0  0
    5.6262   -2.7478   -1.1495 H   0  0  0  0  0  0  0  0  0  0  0  0
    2.3531   -3.0309   -1.4637 H   0  0  0  0  0  0  0  0  0  0  0  0
    4.5212   -4.3791   -3.1758 H   0  0  0  0  0  0  0  0  0  0  0  0
    4.2624   -2.6283   -2.9672 H   0  0  0  0  0  0  0  0  0  0  0  0
    3.0460   -3.6145   -3.7933 H   0  0  0  0  0  0  0  0  0  0  0  0
    2.7225   -6.0271   -2.0138 H   0  0  0  0  0  0  0  0  0  0  0  0
    1.3881   -4.9845   -2.5353 H   0  0  0  0  0  0  0  0  0  0  0  0
    1.6207   -5.3175   -0.7994 H   0  0  0  0  0  0  0  0  0  0  0  0
    5.9245   -4.9310   -0.1314 H   0  0  0  0  0  0  0  0  0  0  0  0
    4.9361   -5.6877   -1.3816 H   0  0  0  0  0  0  0  0  0  0  0  0
    5.0732   -6.8052    1.1246 H   0  0  0  0  0  0  0  0  0  0  0  0
    3.5043   -6.7537    0.2891 H   0  0  0  0  0  0  0  0  0  0  0  0
    4.5800   -4.7691    2.3618 H   0  0  0  0  0  0  0  0  0  0  0  0
    2.9926   -5.5761    2.3659 H   0  0  0  0  0  0  0  0  0  0  0  0
    3.0619   -3.2188    1.3568 H   0  0  0  0  0  0  0  0  0  0  0  0
    2.3004   -1.7844    0.1879 H   0  0  0  0  0  0  0  0  0  0  0  0
  1  2  1  0
  1 18  1  0
  1 19  1  0
  1 20  1  0
  2  3  2  0
  2 17  1  0
  3  4  1  0
  3 21  1  0
  4  5  2  0
  4 22  1  0
  5  6  1  0
  5  7  1  0
  6 23  1  0
  6 24  1  0
  6 25  1  0
  7  8  1  0
  7 17  2  0
  9  8  1  1
  8 26  1  0
  8 27  1  0
  9 10  1  0
  9 13  1  0
  9 16  1  0
 10 11  1  0
 10 12  1  0
 10 28  1  1
 11 29  1  0
 11 30  1  0
 11 31  1  0
 12 32  1  0
 12 33  1  0
 12 34  1  0
 13 14  1  0
 13 35  1  0
 13 36  1  0
 14 15  1  0
 14 37  1  0
 14 38  1  0
 15 16  1  0
 15 39  1  0
 15 40  1  0
 16 41  1  0
 17 42  1  0
M  END

