
     RDKit          3D

 41 41  0  0  0  0  0  0  0  0999 V2000
    2.3634    0.7183   -1.7054 C   0  0  0  0  0  0  0  0  0  0  0  0
    3.7001    0.5099   -1.0139 C   0  0  0  0  0  0  0  0  0  0  0  0
    4.7713    0.6113   -1.5966 O   0  0  0  0  0  0  0  0  0  0  0  0
    3.6151    0.2021    0.3145 N   0  0  0  0  0  0  0  0  0  0  0  0
    4.7734    0.0067    1.1581 C   0  0  2  0  0  0  0  0  0  0  0  0
    5.5953   -0.3235    0.5034 H   0  0  0  0  0  0  0  0  0  0  0  0
    4.4847   -1.0972    2.1912 C   0  0  2  0  0  0  0  0  0  0  0  0
    4.1940   -1.9998    1.6308 H   0  0  0  0  0  0  0  0  0  0  0  0
    3.3214   -0.7097    2.9912 N   0  0  0  0  0  0  0  0  0  0  0  0
    5.7654   -1.4161    2.9945 C   0  0  0  0  0  0  0  0  0  0  0  0
    6.4919   -0.1721    3.4647 C   0  0  0  0  0  0  0  0  0  0  0  0
    7.5491   -0.2563    4.5340 C   0  0  0  0  0  0  0  0  0  0  0  0
    8.1047    0.6994    5.0088 O   0  0  0  0  0  0  0  0  0  0  0  0
    7.8754   -1.5023    4.9526 O   0  0  0  0  0  0  0  0  0  0  0  0
    6.2406    1.0413    2.9389 C   0  0  0  0  0  0  0  0  0  0  0  0
    5.2201    1.3110    1.8631 C   0  0  1  0  0  0  0  0  0  0  0  0
    4.3407    1.7874    2.3341 H   0  0  0  0  0  0  0  0  0  0  0  0
    5.6869    2.3046    0.9096 N   0  0  0  0  0  0  0  0  0  0  0  0
    5.0223    3.4876    0.7156 C   0  0  0  0  0  0  0  0  0  0  0  0
    4.0765    3.8277    1.4107 O   0  0  0  0  0  0  0  0  0  0  0  0
    5.5464    4.3580   -0.4312 C   0  0  1  0  0  0  0  0  0  0  0  0
    4.5824    4.2516   -1.6264 C   0  0  0  0  0  0  0  0  0  0  0  0
    5.7088    5.8057    0.0502 C   0  0  0  0  0  0  0  0  0  0  0  0
    2.5097    0.6597   -2.7910 H   0  0  0  0  0  0  0  0  0  0  0  0
    1.9719    1.7179   -1.4551 H   0  0  0  0  0  0  0  0  0  0  0  0
    1.6166   -0.0268   -1.3897 H   0  0  0  0  0  0  0  0  0  0  0  0
    2.7184    0.1799    0.7915 H   0  0  0  0  0  0  0  0  0  0  0  0
    3.5689   -0.0197    3.7013 H   0  0  0  0  0  0  0  0  0  0  0  0
    2.9312   -1.5121    3.4825 H   0  0  0  0  0  0  0  0  0  0  0  0
    6.4412   -2.0313    2.3687 H   0  0  0  0  0  0  0  0  0  0  0  0
    5.4771   -2.0462    3.8557 H   0  0  0  0  0  0  0  0  0  0  0  0
    7.3762   -2.1773    4.4739 H   0  0  0  0  0  0  0  0  0  0  0  0
    6.8028    1.8999    3.3165 H   0  0  0  0  0  0  0  0  0  0  0  0
    6.3325    1.9986    0.1896 H   0  0  0  0  0  0  0  0  0  0  0  0
    6.5327    3.9741   -0.7438 H   0  0  0  0  0  0  0  0  0  0  0  0
    3.5682    4.5539   -1.3218 H   0  0  0  0  0  0  0  0  0  0  0  0
    4.5462    3.2215   -2.0145 H   0  0  0  0  0  0  0  0  0  0  0  0
    4.9061    4.9122   -2.4464 H   0  0  0  0  0  0  0  0  0  0  0  0
    4.7439    6.1943    0.4084 H   0  0  0  0  0  0  0  0  0  0  0  0
    6.0668    6.4489   -0.7692 H   0  0  0  0  0  0  0  0  0  0  0  0
    6.4307    5.8766    0.8792 H   0  0  0  0  0  0  0  0  0  0  0  0
  1  2  1  0
  1 24  1  0
  1 25  1  0
  1 26  1  0
  2  3  2  0
  2  4  1  0
  4  5  1  0
  4 27  1  0
  5  6  1  6
  5  7  1  0
  5 16  1  0
  7  8  1  6
  7  9  1  0
  7 10  1  0
  9 28  1  0
  9 29  1  0
 10 11  1  0
 10 30  1  0
 10 31  1  0
 11 12  1  0
 11 15  2  0
 12 13  2  0
 12 14  1  0
 14 32  1  0
 15 16  1  0
 15 33  1  0
 16 17  1  1
 16 18  1  0
 18 19  1  0
 18 34  1  0
 19 20  2  0
 19 21  1  0
 21 22  1  0
 21 23  1  0
 21 35  1  6
 22 36  1  0
 22 37  1  0
 22 38  1  0
 23 39  1  0
 23 40  1  0
 23 41  1  0
M  END

