
     RDKit          3D

 38 40  0  0  0  0  0  0  0  0999 V2000
    3.1547   -0.0412    1.9626 C   0  0  0  0  0  0  0  0  0  0  0  0
    2.7230   -0.1398    0.6241 O   0  0  0  0  0  0  0  0  0  0  0  0
    3.0634   -1.2301   -0.1058 C   0  0  0  0  0  0  0  0  0  0  0  0
    2.5888   -1.2660   -1.4294 C   0  0  0  0  0  0  0  0  0  0  0  0
    2.8866   -2.3424   -2.2545 C   0  0  0  0  0  0  0  0  0  0  0  0
    3.6647   -3.4295   -1.7999 C   0  0  0  0  0  0  0  0  0  0  0  0
    3.9795   -4.5775   -2.6845 C   0  0  0  0  0  0  0  0  0  0  0  0
    4.1713   -4.4067   -4.0690 C   0  0  0  0  0  0  0  0  0  0  0  0
    4.4673   -5.4878   -4.8952 C   0  0  0  0  0  0  0  0  0  0  0  0
    4.5884   -6.7959   -4.3839 C   0  0  0  0  0  0  0  0  0  0  0  0
    4.9012   -7.8891   -5.3008 C   0  0  0  0  0  0  0  0  0  0  0  0
    5.0544   -9.1996   -5.0043 C   0  0  0  0  0  0  0  0  0  0  0  0
    5.3691  -10.2180   -6.0082 C   0  0  0  0  0  0  0  0  0  0  0  0
    5.5193  -11.5711   -5.6488 C   0  0  0  0  0  0  0  0  0  0  0  0
    5.8183  -12.4757   -6.6650 C   0  0  0  0  0  0  0  0  0  0  0  0
    5.9631  -12.1018   -7.9395 N   0  0  0  0  0  0  0  0  0  0  0  0
    5.8029  -10.7955   -8.1799 C   0  0  0  0  0  0  0  0  0  0  0  0
    5.5167   -9.8467   -7.2967 N   0  0  0  0  0  0  0  0  0  0  0  0
    4.3953   -6.9668   -2.9960 C   0  0  0  0  0  0  0  0  0  0  0  0
    4.0987   -5.8880   -2.1721 C   0  0  0  0  0  0  0  0  0  0  0  0
    4.1286   -3.3756   -0.4751 C   0  0  0  0  0  0  0  0  0  0  0  0
    3.8405   -2.2981    0.3676 C   0  0  0  0  0  0  0  0  0  0  0  0
    2.7613    0.9084    2.3496 H   0  0  0  0  0  0  0  0  0  0  0  0
    4.2569   -0.0293    2.0403 H   0  0  0  0  0  0  0  0  0  0  0  0
    2.7641   -0.8682    2.5829 H   0  0  0  0  0  0  0  0  0  0  0  0
    1.9764   -0.4339   -1.7827 H   0  0  0  0  0  0  0  0  0  0  0  0
    2.4839   -2.3543   -3.2698 H   0  0  0  0  0  0  0  0  0  0  0  0
    4.1130   -3.4062   -4.5030 H   0  0  0  0  0  0  0  0  0  0  0  0
    4.6193   -5.3213   -5.9651 H   0  0  0  0  0  0  0  0  0  0  0  0
    5.0261   -7.6156   -6.3536 H   0  0  0  0  0  0  0  0  0  0  0  0
    4.9469   -9.5626   -3.9782 H   0  0  0  0  0  0  0  0  0  0  0  0
    5.4053  -11.8985   -4.6130 H   0  0  0  0  0  0  0  0  0  0  0  0
    5.9461  -13.5425   -6.4440 H   0  0  0  0  0  0  0  0  0  0  0  0
    5.9165  -10.4745   -9.2233 H   0  0  0  0  0  0  0  0  0  0  0  0
    4.4671   -7.9629   -2.5538 H   0  0  0  0  0  0  0  0  0  0  0  0
    3.9284   -6.0653   -1.1079 H   0  0  0  0  0  0  0  0  0  0  0  0
    4.7565   -4.1823   -0.0901 H   0  0  0  0  0  0  0  0  0  0  0  0
    4.2355   -2.2995    1.3837 H   0  0  0  0  0  0  0  0  0  0  0  0
  1  2  1  0
  1 23  1  0
  1 24  1  0
  1 25  1  0
  2  3  1  0
  3  4  2  0
  3 22  1  0
  4  5  1  0
  4 26  1  0
  5  6  2  0
  5 27  1  0
  6  7  1  0
  6 21  1  0
  7  8  2  0
  7 20  1  0
  8  9  1  0
  8 28  1  0
  9 10  2  0
  9 29  1  0
 10 11  1  0
 10 19  1  0
 11 12  2  0
 11 30  1  0
 12 13  1  0
 12 31  1  0
 13 14  2  0
 13 18  1  0
 14 15  1  0
 14 32  1  0
 15 16  2  0
 15 33  1  0
 16 17  1  0
 17 18  2  0
 17 34  1  0
 19 20  2  0
 19 35  1  0
 20 36  1  0
 21 22  2  0
 21 37  1  0
 22 38  1  0
M  END

