
     RDKit          3D

 39 41  0  0  0  0  0  0  0  0999 V2000
    4.4125   -8.0809    0.6662 C   0  0  0  0  0  0  0  0  0  0  0  0
    4.2330   -6.8992   -0.2876 C   0  0  0  0  0  0  0  0  0  0  0  0
    4.7918   -5.5816    0.2608 C   0  0  0  0  0  0  0  0  0  0  0  0
    4.5962   -4.4037   -0.6987 C   0  0  0  0  0  0  0  0  0  0  0  0
    5.1624   -3.0509   -0.2377 C   0  0  0  0  0  0  0  0  0  0  0  0
    6.6274   -2.9774   -0.1423 N   0  0  0  0  0  0  0  0  0  0  0  0
    7.3621   -2.7383   -1.3085 C   0  0  0  0  0  0  0  0  0  0  0  0
    6.7310   -2.6090   -2.5727 C   0  0  0  0  0  0  0  0  0  0  0  0
    7.4742   -2.3613   -3.7205 C   0  0  0  0  0  0  0  0  0  0  0  0
    8.8710   -2.2350   -3.6705 C   0  0  0  0  0  0  0  0  0  0  0  0
    9.5035   -2.3609   -2.4441 C   0  0  0  0  0  0  0  0  0  0  0  0
    8.7752   -2.6090   -1.2659 C   0  0  0  0  0  0  0  0  0  0  0  0
    9.5174   -2.7182    0.0040 C   0  0  0  0  0  0  0  0  0  0  0  0
   10.7377   -2.6074    0.0666 O   0  0  0  0  0  0  0  0  0  0  0  0
    8.6814   -2.9707    1.1931 C   0  0  0  0  0  0  0  0  0  0  0  0
    9.3228   -3.0826    2.4410 C   0  0  0  0  0  0  0  0  0  0  0  0
    8.6069   -3.3218    3.6025 C   0  0  0  0  0  0  0  0  0  0  0  0
    7.2131   -3.4601    3.5124 C   0  0  0  0  0  0  0  0  0  0  0  0
    6.5557   -3.3577    2.2929 C   0  0  0  0  0  0  0  0  0  0  0  0
    7.2701   -3.1009    1.0951 C   0  0  0  0  0  0  0  0  0  0  0  0
    4.0039   -9.0103    0.2388 H   0  0  0  0  0  0  0  0  0  0  0  0
    3.9001   -7.9032    1.6267 H   0  0  0  0  0  0  0  0  0  0  0  0
    5.4780   -8.2572    0.8895 H   0  0  0  0  0  0  0  0  0  0  0  0
    3.1598   -6.7709   -0.5200 H   0  0  0  0  0  0  0  0  0  0  0  0
    4.7231   -7.1252   -1.2521 H   0  0  0  0  0  0  0  0  0  0  0  0
    5.8658   -5.7082    0.4829 H   0  0  0  0  0  0  0  0  0  0  0  0
    4.3055   -5.3588    1.2283 H   0  0  0  0  0  0  0  0  0  0  0  0
    3.5155   -4.2565   -0.8787 H   0  0  0  0  0  0  0  0  0  0  0  0
    5.0316   -4.6631   -1.6784 H   0  0  0  0  0  0  0  0  0  0  0  0
    4.7370   -2.7713    0.7325 H   0  0  0  0  0  0  0  0  0  0  0  0
    4.8332   -2.2620   -0.9285 H   0  0  0  0  0  0  0  0  0  0  0  0
    5.6530   -2.7079   -2.6740 H   0  0  0  0  0  0  0  0  0  0  0  0
    6.9504   -2.2681   -4.6756 H   0  0  0  0  0  0  0  0  0  0  0  0
    9.4442   -2.0424   -4.5800 H   0  0  0  0  0  0  0  0  0  0  0  0
   10.5864   -2.2708   -2.3380 H   0  0  0  0  0  0  0  0  0  0  0  0
   10.4088   -2.9704    2.4417 H   0  0  0  0  0  0  0  0  0  0  0  0
    9.1129   -3.4062    4.5666 H   0  0  0  0  0  0  0  0  0  0  0  0
    6.6236   -3.6580    4.4116 H   0  0  0  0  0  0  0  0  0  0  0  0
    5.4775   -3.4939    2.2841 H   0  0  0  0  0  0  0  0  0  0  0  0
  1  2  1  0
  1 21  1  0
  1 22  1  0
  1 23  1  0
  2  3  1  0
  2 24  1  0
  2 25  1  0
  3  4  1  0
  3 26  1  0
  3 27  1  0
  4  5  1  0
  4 28  1  0
  4 29  1  0
  5  6  1  0
  5 30  1  0
  5 31  1  0
  6  7  1  0
  6 20  1  0
  7  8  2  0
  7 12  1  0
  8  9  1  0
  8 32  1  0
  9 10  2  0
  9 33  1  0
 10 11  1  0
 10 34  1  0
 11 12  2  0
 11 35  1  0
 12 13  1  0
 13 14  2  0
 13 15  1  0
 15 16  1  0
 15 20  2  0
 16 17  2  0
 16 36  1  0
 17 18  1  0
 17 37  1  0
 18 19  2  0
 18 38  1  0
 19 20  1  0
 19 39  1  0
M  END

