
     RDKit          3D

 22 22  0  0  0  0  0  0  0  0999 V2000
    0.9951    0.0067   -0.0426 C   0  0  0  0  0  0  0  0  0  0  0  0
    2.5003    0.0549   -0.0147 C   0  0  0  0  0  0  0  0  0  0  0  0
    3.1898   -0.5050   -0.8346 O   0  0  0  0  0  0  0  0  0  0  0  0
    3.1605    0.7917    1.0221 N   0  0  0  0  0  0  0  0  0  0  0  0
    2.5003    1.4864    2.0665 C   0  0  0  0  0  0  0  0  0  0  0  0
    1.3088    1.5933    2.1583 O   0  0  0  0  0  0  0  0  0  0  0  0
    3.3220    2.0406    2.9724 O   0  0  0  0  0  0  0  0  0  0  0  0
    4.5930    0.7370    0.9890 C   0  0  0  0  0  0  0  0  0  0  0  0
    5.3620    1.7964    0.4909 C   0  0  0  0  0  0  0  0  0  0  0  0
    6.7561    1.7240    0.4646 C   0  0  0  0  0  0  0  0  0  0  0  0
    7.3863    0.5628    0.9244 C   0  0  0  0  0  0  0  0  0  0  0  0
    9.2824    0.4445    0.8871 Br  0  0  0  0  0  0  0  0  0  0  0  0
    6.6453   -0.5173    1.4127 C   0  0  0  0  0  0  0  0  0  0  0  0
    5.2581   -0.4139    1.4379 C   0  0  0  0  0  0  0  0  0  0  0  0
    4.5382   -1.4312    1.9061 F   0  0  0  0  0  0  0  0  0  0  0  0
    0.7132   -0.6134   -0.9026 H   0  0  0  0  0  0  0  0  0  0  0  0
    0.5636    1.0129   -0.1306 H   0  0  0  0  0  0  0  0  0  0  0  0
    0.5926   -0.4156    0.8884 H   0  0  0  0  0  0  0  0  0  0  0  0
    4.2533    1.8605    2.7671 H   0  0  0  0  0  0  0  0  0  0  0  0
    4.8519    2.6865    0.1163 H   0  0  0  0  0  0  0  0  0  0  0  0
    7.3461    2.5560    0.0791 H   0  0  0  0  0  0  0  0  0  0  0  0
    7.1212   -1.4310    1.7698 H   0  0  0  0  0  0  0  0  0  0  0  0
  1  2  1  0
  1 16  1  0
  1 17  1  0
  1 18  1  0
  2  3  2  0
  2  4  1  0
  4  5  1  0
  4  8  1  0
  5  6  2  0
  5  7  1  0
  7 19  1  0
  8  9  2  0
  8 14  1  0
  9 10  1  0
  9 20  1  0
 10 11  2  0
 10 21  1  0
 11 12  1  0
 11 13  1  0
 13 14  2  0
 13 22  1  0
 14 15  1  0
M  END

