
     RDKit          3D

 43 43  0  0  0  0  0  0  0  0999 V2000
    6.6386    1.9820   -0.0052 C   0  0  0  0  0  0  0  0  0  0  0  0
    5.3944    1.1539   -0.3285 C   0  0  0  0  0  0  0  0  0  0  0  0
    5.7218   -0.2085   -0.9458 C   0  0  0  0  0  0  0  0  0  0  0  0
    4.4735   -1.0353   -1.2788 C   0  0  1  0  0  0  0  0  0  0  0  0
    3.5497   -0.3786   -2.1395 O   0  0  0  0  0  0  0  0  0  0  0  0
    4.0160    0.0191   -3.4106 C   0  0  0  0  0  0  0  0  0  0  0  0
    4.8004   -2.4166   -1.8036 C   0  0  0  0  0  0  0  0  0  0  0  0
    5.7900   -2.6595   -2.6271 N   0  0  0  0  0  0  0  0  0  0  0  0
    5.6780   -4.0220   -2.8829 O   0  0  0  0  0  0  0  0  0  0  0  0
    4.6266   -4.4689   -2.1774 C   0  0  0  0  0  0  0  0  0  0  0  0
    4.3008   -5.9238   -2.2440 C   0  0  0  0  0  0  0  0  0  0  0  0
    2.8647   -6.2442   -1.8226 C   0  0  0  0  0  0  0  0  0  0  0  0
    2.5547   -7.7396   -1.8774 C   0  0  0  0  0  0  0  0  0  0  0  0
    1.1993   -8.0063   -1.4302 N   0  0  0  0  0  0  0  0  0  0  0  0
    0.7651   -9.4038   -1.4646 C   0  0  1  0  0  0  0  0  0  0  0  0
    1.4274  -10.2136   -0.3445 C   0  0  0  0  0  0  0  0  0  0  0  0
   -0.7592   -9.4516   -1.3444 C   0  0  0  0  0  0  0  0  0  0  0  0
    4.0463   -3.5268   -1.4961 N   0  0  0  0  0  0  0  0  0  0  0  0
    6.3716    2.9544    0.4381 H   0  0  0  0  0  0  0  0  0  0  0  0
    7.2342    2.1821   -0.9118 H   0  0  0  0  0  0  0  0  0  0  0  0
    7.2962    1.4595    0.7100 H   0  0  0  0  0  0  0  0  0  0  0  0
    4.7364    1.7146   -1.0128 H   0  0  0  0  0  0  0  0  0  0  0  0
    4.8006    0.9997    0.5906 H   0  0  0  0  0  0  0  0  0  0  0  0
    6.3394   -0.7988   -0.2467 H   0  0  0  0  0  0  0  0  0  0  0  0
    6.3414   -0.0844   -1.8501 H   0  0  0  0  0  0  0  0  0  0  0  0
    3.8949   -1.1982   -0.3565 H   0  0  0  0  0  0  0  0  0  0  0  0
    3.1341    0.3474   -3.9802 H   0  0  0  0  0  0  0  0  0  0  0  0
    4.5067   -0.8045   -3.9599 H   0  0  0  0  0  0  0  0  0  0  0  0
    4.7261    0.8656   -3.3563 H   0  0  0  0  0  0  0  0  0  0  0  0
    5.0153   -6.4609   -1.5925 H   0  0  0  0  0  0  0  0  0  0  0  0
    4.5107   -6.2755   -3.2679 H   0  0  0  0  0  0  0  0  0  0  0  0
    2.1648   -5.6941   -2.4764 H   0  0  0  0  0  0  0  0  0  0  0  0
    2.6822   -5.8722   -0.8030 H   0  0  0  0  0  0  0  0  0  0  0  0
    3.2609   -8.2746   -1.2188 H   0  0  0  0  0  0  0  0  0  0  0  0
    2.7553   -8.1233   -2.9070 H   0  0  0  0  0  0  0  0  0  0  0  0
    0.5512   -7.4423   -1.9793 H   0  0  0  0  0  0  0  0  0  0  0  0
    1.0446   -9.8813   -2.4339 H   0  0  0  0  0  0  0  0  0  0  0  0
    1.1715   -9.7835    0.6374 H   0  0  0  0  0  0  0  0  0  0  0  0
    2.5247  -10.2233   -0.4344 H   0  0  0  0  0  0  0  0  0  0  0  0
    1.0882  -11.2614   -0.3699 H   0  0  0  0  0  0  0  0  0  0  0  0
   -1.0842   -8.9873   -0.3991 H   0  0  0  0  0  0  0  0  0  0  0  0
   -1.1259  -10.4893   -1.3664 H   0  0  0  0  0  0  0  0  0  0  0  0
   -1.2430   -8.9091   -2.1744 H   0  0  0  0  0  0  0  0  0  0  0  0
  1  2  1  0
  1 19  1  0
  1 20  1  0
  1 21  1  0
  2  3  1  0
  2 22  1  0
  2 23  1  0
  3  4  1  0
  3 24  1  0
  3 25  1  0
  4  5  1  0
  4  7  1  0
  4 26  1  1
  5  6  1  0
  6 27  1  0
  6 28  1  0
  6 29  1  0
  7  8  2  0
  7 18  1  0
  8  9  1  0
  9 10  1  0
 10 11  1  0
 10 18  2  0
 11 12  1  0
 11 30  1  0
 11 31  1  0
 12 13  1  0
 12 32  1  0
 12 33  1  0
 13 14  1  0
 13 34  1  0
 13 35  1  0
 14 15  1  0
 14 36  1  0
 15 16  1  0
 15 17  1  0
 15 37  1  6
 16 38  1  0
 16 39  1  0
 16 40  1  0
 17 41  1  0
 17 42  1  0
 17 43  1  0
M  END

