
     RDKit          3D

 59 61  0  0  0  0  0  0  0  0999 V2000
    3.1786    4.0164   -7.3398 C   0  0  0  0  0  0  0  0  0  0  0  0
    4.5123    3.9359   -6.6031 C   0  0  0  0  0  0  0  0  0  0  0  0
    4.8629    2.5867   -6.1460 N   0  0  0  0  0  0  0  0  0  0  0  0
    4.8777    1.5597   -7.1840 C   0  0  0  0  0  0  0  0  0  0  0  0
    5.9049    1.8270   -8.2958 C   0  0  0  0  0  0  0  0  0  0  0  0
    5.6588    2.4537   -9.2914 O   0  0  0  0  0  0  0  0  0  0  0  0
    7.1674    1.3928   -8.0578 O   0  0  0  0  0  0  0  0  0  0  0  0
    6.0308    2.5819   -5.2846 C   0  0  1  0  0  0  0  0  0  0  0  0
    5.8970    3.2862   -3.9080 C   0  0  0  0  0  0  0  0  0  0  0  0
    6.6509    2.1038   -3.2491 C   0  0  2  0  0  0  0  0  0  0  0  0
    8.0428    2.4037   -2.9803 N   0  0  0  0  0  0  0  0  0  0  0  0
    8.8431    1.4516   -2.3769 C   0  0  0  0  0  0  0  0  0  0  0  0
    8.3802    0.3854   -1.9840 O   0  0  0  0  0  0  0  0  0  0  0  0
   10.1725    1.7971   -2.2379 N   0  0  0  0  0  0  0  0  0  0  0  0
   10.6481    3.1844   -2.3119 C   0  0  0  0  0  0  0  0  0  0  0  0
   11.9922    3.1675   -1.5669 C   0  0  0  0  0  0  0  0  0  0  0  0
   11.8640    1.9616   -0.6256 C   0  0  0  0  0  0  0  0  0  0  0  0
   11.0833    0.9272   -1.4643 C   0  0  2  0  0  0  0  0  0  0  0  0
   12.0149    0.0538   -2.3505 C   0  0  1  0  0  0  0  0  0  0  0  0
   12.8376   -0.9517   -1.5112 C   0  0  0  0  0  0  0  0  0  0  0  0
   12.0199   -2.1595   -1.0290 C   0  0  0  0  0  0  0  0  0  0  0  0
   11.3503   -2.8811   -2.2044 C   0  0  0  0  0  0  0  0  0  0  0  0
   10.4998   -1.9119   -3.0364 C   0  0  0  0  0  0  0  0  0  0  0  0
   11.3002   -0.6895   -3.5091 C   0  0  2  0  0  0  0  0  0  0  0  0
   12.2433   -1.0353   -4.5216 O   0  0  0  0  0  0  0  0  0  0  0  0
    6.3652    1.2665   -4.5322 C   0  0  0  0  0  0  0  0  0  0  0  0
    2.9008    5.0712   -7.4900 H   0  0  0  0  0  0  0  0  0  0  0  0
    2.3782    3.5296   -6.7595 H   0  0  0  0  0  0  0  0  0  0  0  0
    3.2352    3.5497   -8.3341 H   0  0  0  0  0  0  0  0  0  0  0  0
    4.4637    4.5688   -5.7021 H   0  0  0  0  0  0  0  0  0  0  0  0
    5.3096    4.3708   -7.2452 H   0  0  0  0  0  0  0  0  0  0  0  0
    3.8918    1.5074   -7.6642 H   0  0  0  0  0  0  0  0  0  0  0  0
    5.0648    0.5815   -6.7108 H   0  0  0  0  0  0  0  0  0  0  0  0
    7.2005    0.8792   -7.2379 H   0  0  0  0  0  0  0  0  0  0  0  0
    6.9365    2.9626   -5.8092 H   0  0  0  0  0  0  0  0  0  0  0  0
    4.8458    3.3168   -3.5872 H   0  0  0  0  0  0  0  0  0  0  0  0
    6.3393    4.2880   -3.7910 H   0  0  0  0  0  0  0  0  0  0  0  0
    6.2118    1.6866   -2.3338 H   0  0  0  0  0  0  0  0  0  0  0  0
    8.4781    3.1458   -3.5140 H   0  0  0  0  0  0  0  0  0  0  0  0
    9.9249    3.8592   -1.8189 H   0  0  0  0  0  0  0  0  0  0  0  0
   10.7655    3.5308   -3.3551 H   0  0  0  0  0  0  0  0  0  0  0  0
   12.1833    4.1135   -1.0389 H   0  0  0  0  0  0  0  0  0  0  0  0
   12.8213    3.0167   -2.2757 H   0  0  0  0  0  0  0  0  0  0  0  0
   11.2713    2.2358    0.2628 H   0  0  0  0  0  0  0  0  0  0  0  0
   12.8366    1.5926   -0.2714 H   0  0  0  0  0  0  0  0  0  0  0  0
   10.4602    0.2797   -0.8327 H   0  0  0  0  0  0  0  0  0  0  0  0
   12.7224    0.7361   -2.8524 H   0  0  0  0  0  0  0  0  0  0  0  0
   13.3153   -0.4470   -0.6559 H   0  0  0  0  0  0  0  0  0  0  0  0
   13.6737   -1.3169   -2.1353 H   0  0  0  0  0  0  0  0  0  0  0  0
   11.2427   -1.8301   -0.3168 H   0  0  0  0  0  0  0  0  0  0  0  0
   12.6727   -2.8515   -0.4704 H   0  0  0  0  0  0  0  0  0  0  0  0
   10.7292   -3.7179   -1.8446 H   0  0  0  0  0  0  0  0  0  0  0  0
   12.1316   -3.3451   -2.8385 H   0  0  0  0  0  0  0  0  0  0  0  0
    9.6432   -1.5567   -2.4424 H   0  0  0  0  0  0  0  0  0  0  0  0
   10.0884   -2.4199   -3.9246 H   0  0  0  0  0  0  0  0  0  0  0  0
   10.6179    0.0172   -4.0041 H   0  0  0  0  0  0  0  0  0  0  0  0
   12.7825   -1.7685   -4.1991 H   0  0  0  0  0  0  0  0  0  0  0  0
    5.4668    0.6448   -4.4014 H   0  0  0  0  0  0  0  0  0  0  0  0
    7.1938    0.6378   -4.8953 H   0  0  0  0  0  0  0  0  0  0  0  0
  1  2  1  0
  1 27  1  0
  1 28  1  0
  1 29  1  0
  2  3  1  0
  2 30  1  0
  2 31  1  0
  3  4  1  0
  3  8  1  0
  4  5  1  0
  4 32  1  0
  4 33  1  0
  5  6  2  0
  5  7  1  0
  7 34  1  0
  8  9  1  0
  8 26  1  0
  8 35  1  6
  9 10  1  0
  9 36  1  0
  9 37  1  0
 10 11  1  0
 10 26  1  0
 10 38  1  1
 11 12  1  0
 11 39  1  0
 12 13  2  0
 12 14  1  0
 14 15  1  0
 14 18  1  0
 15 16  1  0
 15 40  1  0
 15 41  1  0
 16 17  1  0
 16 42  1  0
 16 43  1  0
 17 18  1  0
 17 44  1  0
 17 45  1  0
 18 19  1  0
 18 46  1  1
 19 20  1  0
 19 24  1  0
 19 47  1  6
 20 21  1  0
 20 48  1  0
 20 49  1  0
 21 22  1  0
 21 50  1  0
 21 51  1  0
 22 23  1  0
 22 52  1  0
 22 53  1  0
 23 24  1  0
 23 54  1  0
 23 55  1  0
 24 25  1  0
 24 56  1  6
 25 57  1  0
 26 58  1  0
 26 59  1  0
M  END

