
     RDKit          3D

 24 25  0  0  0  0  0  0  0  0999 V2000
    2.7605   -1.0990   -1.3812 O   0  0  0  0  0  0  0  0  0  0  0  0
    2.2501   -0.0660   -1.0427 C   0  0  0  0  0  0  0  0  0  0  0  0
    0.9561    0.1582   -1.0017 O   0  0  0  0  0  0  0  0  0  0  0  0
    3.0916    1.0515   -0.6378 N   0  0  0  0  0  0  0  0  0  0  0  0
    4.5472    0.7988   -0.7517 C   0  0  0  0  0  0  0  0  0  0  0  0
    5.3496    1.6920    0.1832 C   0  0  0  0  0  0  0  0  0  0  0  0
    4.9193    3.0552    0.0072 N   0  0  0  0  0  0  0  0  0  0  0  0
    5.7028    4.1014   -0.4319 C   0  0  0  0  0  0  0  0  0  0  0  0
    6.8932    4.0434   -0.6470 O   0  0  0  0  0  0  0  0  0  0  0  0
    4.7719    5.3095   -0.5640 C   0  0  0  0  0  0  0  0  0  0  0  0
    3.3624    4.7018   -0.6135 C   0  0  0  0  0  0  0  0  0  0  0  0
    3.5221    3.3759    0.1732 C   0  0  1  0  0  0  0  0  0  0  0  0
    2.5716    2.2698   -0.2674 C   0  0  0  0  0  0  0  0  0  0  0  0
    1.3616    2.5005   -0.2310 O   0  0  0  0  0  0  0  0  0  0  0  0
    0.7934    1.0993   -0.6998 H   0  0  0  0  0  0  0  0  0  0  0  0
    4.8575    0.9683   -1.7961 H   0  0  0  0  0  0  0  0  0  0  0  0
    4.7064   -0.2640   -0.5350 H   0  0  0  0  0  0  0  0  0  0  0  0
    6.4205    1.6389   -0.0590 H   0  0  0  0  0  0  0  0  0  0  0  0
    5.2168    1.3757    1.2350 H   0  0  0  0  0  0  0  0  0  0  0  0
    5.0434    5.9041   -1.4469 H   0  0  0  0  0  0  0  0  0  0  0  0
    4.9173    5.9516    0.3220 H   0  0  0  0  0  0  0  0  0  0  0  0
    3.0793    4.4776   -1.6538 H   0  0  0  0  0  0  0  0  0  0  0  0
    2.5762    5.3365   -0.1861 H   0  0  0  0  0  0  0  0  0  0  0  0
    3.2693    3.5378    1.2430 H   0  0  0  0  0  0  0  0  0  0  0  0
  1  2  2  0
  2  3  1  0
  2  4  1  0
  3 15  1  0
  4  5  1  0
  4 13  1  0
  5  6  1  0
  5 16  1  0
  5 17  1  0
  6  7  1  0
  6 18  1  0
  6 19  1  0
  7  8  1  0
  7 12  1  0
  8  9  2  0
  8 10  1  0
 10 11  1  0
 10 20  1  0
 10 21  1  0
 11 12  1  0
 11 22  1  0
 11 23  1  0
 12 13  1  0
 12 24  1  1
 13 14  2  0
M  END

