
     RDKit          3D

 58 59  0  0  0  0  0  0  0  0999 V2000
   -0.3293   -4.8750    2.9203 C   0  0  0  0  0  0  0  0  0  0  0  0
    0.6208   -4.4621    1.9753 O   0  0  0  0  0  0  0  0  0  0  0  0
    0.4335   -5.0237    0.6954 C   0  0  0  0  0  0  0  0  0  0  0  0
    1.5188   -4.5489   -0.2645 C   0  0  0  0  0  0  0  0  0  0  0  0
    2.8204   -5.1626   -0.0380 N   0  0  0  0  0  0  0  0  0  0  0  0
    3.6461   -5.3558   -1.2259 C   0  0  0  0  0  0  0  0  0  0  0  0
    4.3799   -4.0853   -1.6917 C   0  0  0  0  0  0  0  0  0  0  0  0
    5.2222   -3.4494   -0.5682 C   0  0  2  0  0  0  0  0  0  0  0  0
    6.5327   -4.2004   -0.2276 C   0  0  0  0  0  0  0  0  0  0  0  0
    7.5455   -4.3204   -1.2878 N   0  0  0  0  0  0  0  0  0  0  0  0
    7.8776   -5.6522   -1.8151 C   0  0  0  0  0  0  0  0  0  0  0  0
    7.1786   -6.0818   -3.1110 C   0  0  1  0  0  0  0  0  0  0  0  0
    6.0822   -6.0650   -2.9586 H   0  0  0  0  0  0  0  0  0  0  0  0
    7.5405   -5.3044   -4.3854 C   0  0  0  0  0  0  0  0  0  0  0  0
    7.4187   -6.3880   -5.4635 C   0  0  0  0  0  0  0  0  0  0  0  0
    7.9436   -7.6182   -4.7190 C   0  0  0  0  0  0  0  0  0  0  0  0
    7.5727   -7.4356   -3.3556 O   0  0  0  0  0  0  0  0  0  0  0  0
    8.4158   -3.3062   -1.5931 C   0  0  0  0  0  0  0  0  0  0  0  0
    9.3011   -3.4300   -2.4333 O   0  0  0  0  0  0  0  0  0  0  0  0
    8.3155   -2.0006   -0.7991 C   0  0  0  0  0  0  0  0  0  0  0  0
    9.2260   -1.0402   -1.3622 N   0  0  0  0  0  0  0  0  0  0  0  0
    9.0822    0.2964   -1.1418 C   0  0  0  0  0  0  0  0  0  0  0  0
   10.0868    1.1892   -1.8532 C   0  0  0  0  0  0  0  0  0  0  0  0
    8.2102    0.7479   -0.4147 O   0  0  0  0  0  0  0  0  0  0  0  0
    4.3470   -3.3053    0.6981 C   0  0  0  0  0  0  0  0  0  0  0  0
    3.6044   -4.6047    1.0663 C   0  0  0  0  0  0  0  0  0  0  0  0
   -0.0998   -4.3746    3.8725 H   0  0  0  0  0  0  0  0  0  0  0  0
   -0.3065   -5.9719    3.0826 H   0  0  0  0  0  0  0  0  0  0  0  0
   -1.3603   -4.5992    2.6171 H   0  0  0  0  0  0  0  0  0  0  0  0
   -0.5591   -4.7233    0.2945 H   0  0  0  0  0  0  0  0  0  0  0  0
    0.4538   -6.1316    0.7474 H   0  0  0  0  0  0  0  0  0  0  0  0
    1.5319   -3.4372   -0.2374 H   0  0  0  0  0  0  0  0  0  0  0  0
    1.1868   -4.8280   -1.2778 H   0  0  0  0  0  0  0  0  0  0  0  0
    3.0182   -5.7515   -2.0407 H   0  0  0  0  0  0  0  0  0  0  0  0
    4.3833   -6.1497   -1.0017 H   0  0  0  0  0  0  0  0  0  0  0  0
    3.6336   -3.3431   -2.0246 H   0  0  0  0  0  0  0  0  0  0  0  0
    5.0058   -4.3005   -2.5721 H   0  0  0  0  0  0  0  0  0  0  0  0
    5.5049   -2.4366   -0.8968 H   0  0  0  0  0  0  0  0  0  0  0  0
    6.3022   -5.2242    0.0977 H   0  0  0  0  0  0  0  0  0  0  0  0
    6.9824   -3.7075    0.6507 H   0  0  0  0  0  0  0  0  0  0  0  0
    7.6326   -6.3973   -1.0428 H   0  0  0  0  0  0  0  0  0  0  0  0
    8.9618   -5.6922   -1.9890 H   0  0  0  0  0  0  0  0  0  0  0  0
    8.5708   -4.9253   -4.3145 H   0  0  0  0  0  0  0  0  0  0  0  0
    6.8822   -4.4393   -4.5554 H   0  0  0  0  0  0  0  0  0  0  0  0
    7.9891   -6.1624   -6.3773 H   0  0  0  0  0  0  0  0  0  0  0  0
    6.3640   -6.5350   -5.7510 H   0  0  0  0  0  0  0  0  0  0  0  0
    9.0455   -7.6938   -4.8043 H   0  0  0  0  0  0  0  0  0  0  0  0
    7.5133   -8.5664   -5.0825 H   0  0  0  0  0  0  0  0  0  0  0  0
    8.5552   -2.2184    0.2613 H   0  0  0  0  0  0  0  0  0  0  0  0
    7.2986   -1.5814   -0.7884 H   0  0  0  0  0  0  0  0  0  0  0  0
    9.8932   -1.4175   -2.0296 H   0  0  0  0  0  0  0  0  0  0  0  0
   10.7851    0.6418   -2.5028 H   0  0  0  0  0  0  0  0  0  0  0  0
   10.6601    1.7470   -1.0969 H   0  0  0  0  0  0  0  0  0  0  0  0
    9.5368    1.9307   -2.4520 H   0  0  0  0  0  0  0  0  0  0  0  0
    3.6070   -2.5068    0.5204 H   0  0  0  0  0  0  0  0  0  0  0  0
    4.9555   -2.9677    1.5553 H   0  0  0  0  0  0  0  0  0  0  0  0
    2.9339   -4.4290    1.9171 H   0  0  0  0  0  0  0  0  0  0  0  0
    4.3302   -5.3740    1.3900 H   0  0  0  0  0  0  0  0  0  0  0  0
  1  2  1  0
  1 27  1  0
  1 28  1  0
  1 29  1  0
  2  3  1  0
  3  4  1  0
  3 30  1  0
  3 31  1  0
  4  5  1  0
  4 32  1  0
  4 33  1  0
  5  6  1  0
  5 26  1  0
  6  7  1  0
  6 34  1  0
  6 35  1  0
  7  8  1  0
  7 36  1  0
  7 37  1  0
  8  9  1  0
  8 25  1  0
  8 38  1  6
  9 10  1  0
  9 39  1  0
  9 40  1  0
 10 11  1  0
 10 18  1  0
 11 12  1  0
 11 41  1  0
 11 42  1  0
 12 13  1  1
 12 14  1  0
 12 17  1  0
 14 15  1  0
 14 43  1  0
 14 44  1  0
 15 16  1  0
 15 45  1  0
 15 46  1  0
 16 17  1  0
 16 47  1  0
 16 48  1  0
 18 19  2  0
 18 20  1  0
 20 21  1  0
 20 49  1  0
 20 50  1  0
 21 22  1  0
 21 51  1  0
 22 23  1  0
 22 24  2  0
 23 52  1  0
 23 53  1  0
 23 54  1  0
 25 26  1  0
 25 55  1  0
 25 56  1  0
 26 57  1  0
 26 58  1  0
M  END

