
     RDKit          3D

 52 55  0  0  0  0  0  0  0  0999 V2000
    6.7773    1.9945   -0.9221 C   0  0  0  0  0  0  0  0  0  0  0  0
    5.6481    1.0089   -1.0621 C   0  0  0  0  0  0  0  0  0  0  0  0
    4.4648    1.3233   -1.7506 C   0  0  0  0  0  0  0  0  0  0  0  0
    3.4767    0.3355   -1.8263 C   0  0  0  0  0  0  0  0  0  0  0  0
    2.1688    0.5577   -2.5343 C   0  0  0  0  0  0  0  0  0  0  0  0
    3.6572   -0.8660   -1.2617 N   0  0  0  0  0  0  0  0  0  0  0  0
    4.8146   -1.0746   -0.6305 C   0  0  0  0  0  0  0  0  0  0  0  0
    5.0701   -2.2890   -0.0290 N   0  0  0  0  0  0  0  0  0  0  0  0
    4.3269   -3.4658    0.0739 C   0  0  0  0  0  0  0  0  0  0  0  0
    4.9171   -4.5393    0.7762 C   0  0  0  0  0  0  0  0  0  0  0  0
    4.2472   -5.7507    0.9188 C   0  0  0  0  0  0  0  0  0  0  0  0
    2.9696   -5.9239    0.3798 C   0  0  0  0  0  0  0  0  0  0  0  0
    2.3667   -4.8599   -0.3102 C   0  0  0  0  0  0  0  0  0  0  0  0
    1.0002   -4.9475   -0.9385 C   0  0  0  0  0  0  0  0  0  0  0  0
    0.6416   -4.2030   -1.8324 O   0  0  0  0  0  0  0  0  0  0  0  0
    0.1743   -5.9236   -0.4077 N   0  0  0  0  0  0  0  0  0  0  0  0
   -1.1020   -6.2283   -0.8669 C   0  0  0  0  0  0  0  0  0  0  0  0
   -1.8160   -5.7803   -1.9647 C   0  0  0  0  0  0  0  0  0  0  0  0
   -3.0182   -6.5421   -1.9430 C   0  0  0  0  0  0  0  0  0  0  0  0
   -4.1658   -6.4685   -2.9025 C   0  0  0  0  0  0  0  0  0  0  0  0
   -3.0454   -7.3834   -0.9193 N   0  0  0  0  0  0  0  0  0  0  0  0
   -1.8793   -7.1826   -0.2442 N   0  0  0  0  0  0  0  0  0  0  0  0
   -1.5953   -7.9642    0.9035 C   0  0  0  0  0  0  0  0  0  0  0  0
   -1.9145   -9.3312    0.8942 C   0  0  0  0  0  0  0  0  0  0  0  0
   -1.6478  -10.1129    2.0176 C   0  0  0  0  0  0  0  0  0  0  0  0
   -1.0532   -9.5492    3.1531 C   0  0  0  0  0  0  0  0  0  0  0  0
   -0.7479   -8.1865    3.1656 C   0  0  0  0  0  0  0  0  0  0  0  0
   -1.0296   -7.3878    2.0523 C   0  0  0  0  0  0  0  0  0  0  0  0
    3.0449   -3.6443   -0.4741 C   0  0  0  0  0  0  0  0  0  0  0  0
    5.8201   -0.1890   -0.5035 N   0  0  0  0  0  0  0  0  0  0  0  0
    6.5336    2.9685   -1.3685 H   0  0  0  0  0  0  0  0  0  0  0  0
    7.6842    1.5981   -1.4066 H   0  0  0  0  0  0  0  0  0  0  0  0
    7.0227    2.1373    0.1421 H   0  0  0  0  0  0  0  0  0  0  0  0
    4.3215    2.3026   -2.2093 H   0  0  0  0  0  0  0  0  0  0  0  0
    2.1065    1.5584   -2.9837 H   0  0  0  0  0  0  0  0  0  0  0  0
    1.3329    0.4285   -1.8282 H   0  0  0  0  0  0  0  0  0  0  0  0
    2.0341   -0.2013   -3.3212 H   0  0  0  0  0  0  0  0  0  0  0  0
    5.9846   -2.2990    0.4092 H   0  0  0  0  0  0  0  0  0  0  0  0
    5.9162   -4.4172    1.2050 H   0  0  0  0  0  0  0  0  0  0  0  0
    4.7317   -6.5738    1.4498 H   0  0  0  0  0  0  0  0  0  0  0  0
    2.4808   -6.8966    0.4722 H   0  0  0  0  0  0  0  0  0  0  0  0
    0.5178   -6.4595    0.3799 H   0  0  0  0  0  0  0  0  0  0  0  0
   -1.4914   -5.0229   -2.6686 H   0  0  0  0  0  0  0  0  0  0  0  0
   -3.8380   -6.6727   -3.9351 H   0  0  0  0  0  0  0  0  0  0  0  0
   -4.6267   -5.4670   -2.8993 H   0  0  0  0  0  0  0  0  0  0  0  0
   -4.9323   -7.2057   -2.6258 H   0  0  0  0  0  0  0  0  0  0  0  0
   -2.3801   -9.7533    0.0033 H   0  0  0  0  0  0  0  0  0  0  0  0
   -1.9007  -11.1761    2.0043 H   0  0  0  0  0  0  0  0  0  0  0  0
   -0.8402  -10.1686    4.0275 H   0  0  0  0  0  0  0  0  0  0  0  0
   -0.3081   -7.7296    4.0557 H   0  0  0  0  0  0  0  0  0  0  0  0
   -0.8468   -6.3121    2.0933 H   0  0  0  0  0  0  0  0  0  0  0  0
    2.5723   -2.8396   -1.0302 H   0  0  0  0  0  0  0  0  0  0  0  0
  1  2  1  0
  1 31  1  0
  1 32  1  0
  1 33  1  0
  2  3  2  0
  2 30  1  0
  3  4  1  0
  3 34  1  0
  4  5  1  0
  4  6  2  0
  5 35  1  0
  5 36  1  0
  5 37  1  0
  6  7  1  0
  7  8  1  0
  7 30  2  0
  8  9  1  0
  8 38  1  0
  9 10  2  0
  9 29  1  0
 10 11  1  0
 10 39  1  0
 11 12  2  0
 11 40  1  0
 12 13  1  0
 12 41  1  0
 13 14  1  0
 13 29  2  0
 14 15  2  0
 14 16  1  0
 16 17  1  0
 16 42  1  0
 17 18  2  0
 17 22  1  0
 18 19  1  0
 18 43  1  0
 19 20  1  0
 19 21  2  0
 20 44  1  0
 20 45  1  0
 20 46  1  0
 21 22  1  0
 22 23  1  0
 23 24  2  0
 23 28  1  0
 24 25  1  0
 24 47  1  0
 25 26  2  0
 25 48  1  0
 26 27  1  0
 26 49  1  0
 27 28  2  0
 27 50  1  0
 28 51  1  0
 29 52  1  0
M  END

