
     RDKit          3D

 38 41  0  0  0  0  0  0  0  0999 V2000
    1.1765    0.0300    1.5259 C   0  0  0  0  0  0  0  0  0  0  0  0
    2.5654    0.0304    0.9370 C   0  0  0  0  0  0  0  0  0  0  0  0
    2.8379    0.6478   -0.2923 C   0  0  0  0  0  0  0  0  0  0  0  0
    4.1185    0.6190   -0.8485 C   0  0  0  0  0  0  0  0  0  0  0  0
    5.1742   -0.0351   -0.1932 C   0  0  0  0  0  0  0  0  0  0  0  0
    6.5512    0.0217   -0.7453 C   0  0  0  0  0  0  0  0  0  0  0  0
    7.1282    1.2361   -1.0584 C   0  0  0  0  0  0  0  0  0  0  0  0
    8.4947    1.3560   -1.4248 C   0  0  0  0  0  0  0  0  0  0  0  0
    9.2941    0.2388   -1.4368 C   0  0  0  0  0  0  0  0  0  0  0  0
    8.7274   -1.0236   -1.1479 C   0  0  0  0  0  0  0  0  0  0  0  0
    9.3142   -2.2136   -1.1338 N   0  0  0  0  0  0  0  0  0  0  0  0
    8.3278   -3.0960   -0.8703 C   0  0  0  0  0  0  0  0  0  0  0  0
    7.0821   -2.4897   -0.7200 C   0  0  0  0  0  0  0  0  0  0  0  0
    5.7855   -3.1778   -0.6013 C   0  0  0  0  0  0  0  0  0  0  0  0
    5.6426   -4.2218    0.3331 C   0  0  0  0  0  0  0  0  0  0  0  0
    4.4594   -4.9601    0.4094 C   0  0  0  0  0  0  0  0  0  0  0  0
    3.3913   -4.6671   -0.4429 C   0  0  0  0  0  0  0  0  0  0  0  0
    3.5218   -3.6366   -1.3803 C   0  0  0  0  0  0  0  0  0  0  0  0
    4.7062   -2.9045   -1.4641 C   0  0  0  0  0  0  0  0  0  0  0  0
    7.3373   -1.1232   -0.8703 N   0  0  0  0  0  0  0  0  0  0  0  0
    4.9069   -0.6476    1.0445 C   0  0  0  0  0  0  0  0  0  0  0  0
    3.6284   -0.6110    1.5956 C   0  0  0  0  0  0  0  0  0  0  0  0
    0.5520    0.8265    1.0942 H   0  0  0  0  0  0  0  0  0  0  0  0
    1.2010    0.1680    2.6184 H   0  0  0  0  0  0  0  0  0  0  0  0
    0.6663   -0.9302    1.3337 H   0  0  0  0  0  0  0  0  0  0  0  0
    2.0332    1.1592   -0.8283 H   0  0  0  0  0  0  0  0  0  0  0  0
    4.3009    1.1009   -1.8123 H   0  0  0  0  0  0  0  0  0  0  0  0
    6.5144    2.1305   -0.9461 H   0  0  0  0  0  0  0  0  0  0  0  0
    8.9079    2.3406   -1.6533 H   0  0  0  0  0  0  0  0  0  0  0  0
   10.3594    0.2703   -1.6670 H   0  0  0  0  0  0  0  0  0  0  0  0
    8.5096   -4.1711   -0.8393 H   0  0  0  0  0  0  0  0  0  0  0  0
    6.4689   -4.4443    1.0127 H   0  0  0  0  0  0  0  0  0  0  0  0
    4.3701   -5.7645    1.1445 H   0  0  0  0  0  0  0  0  0  0  0  0
    2.4630   -5.2406   -0.3808 H   0  0  0  0  0  0  0  0  0  0  0  0
    2.6969   -3.4069   -2.0597 H   0  0  0  0  0  0  0  0  0  0  0  0
    4.8017   -2.1194   -2.2162 H   0  0  0  0  0  0  0  0  0  0  0  0
    5.7121   -1.1463    1.5877 H   0  0  0  0  0  0  0  0  0  0  0  0
    3.4511   -1.0900    2.5628 H   0  0  0  0  0  0  0  0  0  0  0  0
  1  2  1  0
  1 23  1  0
  1 24  1  0
  1 25  1  0
  2  3  2  0
  2 22  1  0
  3  4  1  0
  3 26  1  0
  4  5  2  0
  4 27  1  0
  5  6  1  0
  5 21  1  0
  6  7  2  0
  6 20  1  0
  7  8  1  0
  7 28  1  0
  8  9  2  0
  8 29  1  0
  9 10  1  0
  9 30  1  0
 10 11  2  0
 10 20  1  0
 11 12  1  0
 12 13  2  0
 12 31  1  0
 13 14  1  0
 13 20  1  0
 14 15  2  0
 14 19  1  0
 15 16  1  0
 15 32  1  0
 16 17  2  0
 16 33  1  0
 17 18  1  0
 17 34  1  0
 18 19  2  0
 18 35  1  0
 19 36  1  0
 21 22  2  0
 21 37  1  0
 22 38  1  0
M  END

