
     RDKit          3D

 35 36  0  0  0  0  0  0  0  0999 V2000
    1.1050   -0.4130    0.0798 C   0  0  0  0  0  0  0  0  0  0  0  0
    2.5437    0.0755    0.2259 C   0  0  0  0  0  0  0  0  0  0  0  0
    3.0743    0.7010   -0.9914 N   0  0  0  0  0  0  0  0  0  0  0  0
    2.5821    2.0613   -1.1920 C   0  0  0  0  0  0  0  0  0  0  0  0
    2.5032    2.4690   -2.6770 C   0  0  0  0  0  0  0  0  0  0  0  0
    2.0432    3.8862   -2.8559 C   0  0  0  0  0  0  0  0  0  0  0  0
    2.8013    4.9334   -2.6995 N   0  0  0  0  0  0  0  0  0  0  0  0
    2.1003    6.0982   -2.8716 C   0  0  0  0  0  0  0  0  0  0  0  0
    0.7693    5.9569   -3.1645 C   0  0  0  0  0  0  0  0  0  0  0  0
    0.3681    4.2756   -3.2307 S   0  0  0  0  0  0  0  0  0  0  0  0
    4.5396    0.6344   -1.0574 C   0  0  0  0  0  0  0  0  0  0  0  0
    5.0830   -0.7590   -1.1773 C   0  0  0  0  0  0  0  0  0  0  0  0
    5.8321   -1.3537   -0.2669 N   0  0  0  0  0  0  0  0  0  0  0  0
    6.1226   -2.5943   -0.7690 C   0  0  0  0  0  0  0  0  0  0  0  0
    5.5349   -2.7574   -2.0034 C   0  0  0  0  0  0  0  0  0  0  0  0
    4.8659   -1.5789   -2.2591 N   0  0  0  0  0  0  0  0  0  0  0  0
    4.1160   -1.2580   -3.4597 C   0  0  0  0  0  0  0  0  0  0  0  0
    0.7651   -0.8856    1.0153 H   0  0  0  0  0  0  0  0  0  0  0  0
    1.0264   -1.1549   -0.7304 H   0  0  0  0  0  0  0  0  0  0  0  0
    0.4033    0.4066   -0.1448 H   0  0  0  0  0  0  0  0  0  0  0  0
    3.1894   -0.7816    0.4686 H   0  0  0  0  0  0  0  0  0  0  0  0
    2.6250    0.7678    1.0937 H   0  0  0  0  0  0  0  0  0  0  0  0
    3.2009    2.8080   -0.6498 H   0  0  0  0  0  0  0  0  0  0  0  0
    1.5693    2.1352   -0.7688 H   0  0  0  0  0  0  0  0  0  0  0  0
    1.8302    1.7751   -3.2039 H   0  0  0  0  0  0  0  0  0  0  0  0
    3.4972    2.3879   -3.1440 H   0  0  0  0  0  0  0  0  0  0  0  0
    2.6144    7.0568   -2.7762 H   0  0  0  0  0  0  0  0  0  0  0  0
    0.0274    6.7319   -3.3488 H   0  0  0  0  0  0  0  0  0  0  0  0
    5.0212    1.0790   -0.1626 H   0  0  0  0  0  0  0  0  0  0  0  0
    4.8692    1.2349   -1.9218 H   0  0  0  0  0  0  0  0  0  0  0  0
    6.7321   -3.3105   -0.2189 H   0  0  0  0  0  0  0  0  0  0  0  0
    5.5252   -3.5870   -2.7069 H   0  0  0  0  0  0  0  0  0  0  0  0
    3.7704   -2.1866   -3.9351 H   0  0  0  0  0  0  0  0  0  0  0  0
    4.7328   -0.7025   -4.1863 H   0  0  0  0  0  0  0  0  0  0  0  0
    3.2433   -0.6504   -3.1856 H   0  0  0  0  0  0  0  0  0  0  0  0
  1  2  1  0
  1 18  1  0
  1 19  1  0
  1 20  1  0
  2  3  1  0
  2 21  1  0
  2 22  1  0
  3  4  1  0
  3 11  1  0
  4  5  1  0
  4 23  1  0
  4 24  1  0
  5  6  1  0
  5 25  1  0
  5 26  1  0
  6  7  2  0
  6 10  1  0
  7  8  1  0
  8  9  2  0
  8 27  1  0
  9 10  1  0
  9 28  1  0
 11 12  1  0
 11 29  1  0
 11 30  1  0
 12 13  2  0
 12 16  1  0
 13 14  1  0
 14 15  2  0
 14 31  1  0
 15 16  1  0
 15 32  1  0
 16 17  1  0
 17 33  1  0
 17 34  1  0
 17 35  1  0
M  END

