
     RDKit          3D

 89 90  0  0  0  0  0  0  0  0999 V2000
    4.6971   -3.8028   -1.4133 C   0  0  0  0  0  0  0  0  0  0  0  0
    6.0993   -4.4014   -1.3064 C   0  0  0  0  0  0  0  0  0  0  0  0
    6.8275   -4.0983    0.0230 C   0  0  1  0  0  0  0  0  0  0  0  0
    8.1517   -4.8780    0.1091 C   0  0  0  0  0  0  0  0  0  0  0  0
    7.0443   -2.6175    0.2372 C   0  0  0  0  0  0  0  0  0  0  0  0
    6.5412   -1.8491    1.2409 C   0  0  0  0  0  0  0  0  0  0  0  0
    7.0195   -0.4330    1.1039 C   0  0  1  0  0  0  0  0  0  0  0  0
    7.8691    0.2486    2.7292 Si  0  0  1  0  0  4  0  0  0  0  0  0
    7.1912   -0.7442    4.2497 C   0  0  1  0  0  0  0  0  0  0  0  0
    7.8188   -2.1461    4.3895 C   0  0  0  0  0  0  0  0  0  0  0  0
    7.2358    0.0243    5.5939 C   0  0  0  0  0  0  0  0  0  0  0  0
    6.5105   -0.6696    6.7538 C   0  0  0  0  0  0  0  0  0  0  0  0
    9.7896    0.2180    2.6075 C   0  0  1  0  0  0  0  0  0  0  0  0
   10.4766    0.8035    3.8564 C   0  0  0  0  0  0  0  0  0  0  0  0
   10.3729   -1.1637    2.2202 C   0  0  0  0  0  0  0  0  0  0  0  0
   11.8231   -1.1191    1.7240 C   0  0  0  0  0  0  0  0  0  0  0  0
    7.2224    2.0777    3.0008 C   0  0  2  0  0  0  0  0  0  0  0  0
    5.7237    2.0436    3.0724 C   0  0  0  0  0  0  0  0  0  0  0  0
    5.1884    2.8737    2.1352 C   0  0  0  0  0  0  0  0  0  0  0  0
    3.7213    3.1656    1.9065 C   0  0  1  0  0  0  0  0  0  0  0  0
    3.3929    4.6185    2.3006 C   0  0  0  0  0  0  0  0  0  0  0  0
    3.2510    2.8746    0.4642 C   0  0  0  0  0  0  0  0  0  0  0  0
    3.2869    1.4002    0.0652 C   0  0  0  0  0  0  0  0  0  0  0  0
    6.2954    3.5366    1.4423 C   0  0  0  0  0  0  0  0  0  0  0  0
    7.4943    3.1263    1.9496 C   0  0  0  0  0  0  0  0  0  0  0  0
    8.8526    3.7350    1.6657 C   0  0  1  0  0  0  0  0  0  0  0  0
    8.8833    4.5647    0.3757 C   0  0  0  0  0  0  0  0  0  0  0  0
    9.3293    4.5962    2.8556 C   0  0  0  0  0  0  0  0  0  0  0  0
    7.8223   -0.4659   -0.1762 C   0  0  0  0  0  0  0  0  0  0  0  0
    8.3807    0.7519   -0.8796 C   0  0  1  0  0  0  0  0  0  0  0  0
    9.6289    0.4423   -1.7183 C   0  0  0  0  0  0  0  0  0  0  0  0
    7.2996    1.4220   -1.7531 C   0  0  0  0  0  0  0  0  0  0  0  0
    7.8394   -1.7498   -0.6342 C   0  0  0  0  0  0  0  0  0  0  0  0
    4.2242   -4.0646   -2.3736 H   0  0  0  0  0  0  0  0  0  0  0  0
    4.7202   -2.7044   -1.3368 H   0  0  0  0  0  0  0  0  0  0  0  0
    4.0416   -4.1751   -0.6078 H   0  0  0  0  0  0  0  0  0  0  0  0
    6.7215   -4.0442   -2.1472 H   0  0  0  0  0  0  0  0  0  0  0  0
    6.0401   -5.4984   -1.4238 H   0  0  0  0  0  0  0  0  0  0  0  0
    6.1759   -4.4521    0.8428 H   0  0  0  0  0  0  0  0  0  0  0  0
    8.8459   -4.5774   -0.6933 H   0  0  0  0  0  0  0  0  0  0  0  0
    7.9788   -5.9624    0.0092 H   0  0  0  0  0  0  0  0  0  0  0  0
    8.6580   -4.7007    1.0709 H   0  0  0  0  0  0  0  0  0  0  0  0
    5.8821   -2.2008    2.0350 H   0  0  0  0  0  0  0  0  0  0  0  0
    6.1665    0.2678    1.0171 H   0  0  0  0  0  0  0  0  0  0  0  0
    6.1211   -0.8860    4.0022 H   0  0  0  0  0  0  0  0  0  0  0  0
    8.8363   -2.0863    4.8092 H   0  0  0  0  0  0  0  0  0  0  0  0
    7.8864   -2.6732    3.4269 H   0  0  0  0  0  0  0  0  0  0  0  0
    7.2288   -2.7858    5.0659 H   0  0  0  0  0  0  0  0  0  0  0  0
    6.7902    1.0236    5.4700 H   0  0  0  0  0  0  0  0  0  0  0  0
    8.2871    0.1997    5.8838 H   0  0  0  0  0  0  0  0  0  0  0  0
    5.4572   -0.8770    6.4981 H   0  0  0  0  0  0  0  0  0  0  0  0
    6.5137   -0.0337    7.6539 H   0  0  0  0  0  0  0  0  0  0  0  0
    6.9788   -1.6271    7.0298 H   0  0  0  0  0  0  0  0  0  0  0  0
   10.0067    0.8962    1.7608 H   0  0  0  0  0  0  0  0  0  0  0  0
   10.3554    0.1412    4.7292 H   0  0  0  0  0  0  0  0  0  0  0  0
   10.0765    1.7904    4.1359 H   0  0  0  0  0  0  0  0  0  0  0  0
   11.5598    0.9349    3.6999 H   0  0  0  0  0  0  0  0  0  0  0  0
    9.7511   -1.6194    1.4337 H   0  0  0  0  0  0  0  0  0  0  0  0
   10.3132   -1.8419    3.0872 H   0  0  0  0  0  0  0  0  0  0  0  0
   11.9233   -0.4672    0.8397 H   0  0  0  0  0  0  0  0  0  0  0  0
   12.1709   -2.1240    1.4344 H   0  0  0  0  0  0  0  0  0  0  0  0
   12.5184   -0.7434    2.4917 H   0  0  0  0  0  0  0  0  0  0  0  0
    7.6765    2.3570    3.9692 H   0  0  0  0  0  0  0  0  0  0  0  0
    5.1512    1.4207    3.7612 H   0  0  0  0  0  0  0  0  0  0  0  0
    3.1503    2.5011    2.5803 H   0  0  0  0  0  0  0  0  0  0  0  0
    3.9173    5.3382    1.6503 H   0  0  0  0  0  0  0  0  0  0  0  0
    3.6938    4.8270    3.3389 H   0  0  0  0  0  0  0  0  0  0  0  0
    2.3119    4.8155    2.2103 H   0  0  0  0  0  0  0  0  0  0  0  0
    3.8594    3.4689   -0.2416 H   0  0  0  0  0  0  0  0  0  0  0  0
    2.2186    3.2525    0.3580 H   0  0  0  0  0  0  0  0  0  0  0  0
    4.3061    0.9874    0.1174 H   0  0  0  0  0  0  0  0  0  0  0  0
    2.9243    1.2562   -0.9651 H   0  0  0  0  0  0  0  0  0  0  0  0
    2.6518    0.7906    0.7296 H   0  0  0  0  0  0  0  0  0  0  0  0
    6.1668    4.2903    0.6641 H   0  0  0  0  0  0  0  0  0  0  0  0
    9.5853    2.9167    1.5519 H   0  0  0  0  0  0  0  0  0  0  0  0
    8.2294    5.4486    0.4542 H   0  0  0  0  0  0  0  0  0  0  0  0
    8.5525    3.9794   -0.4953 H   0  0  0  0  0  0  0  0  0  0  0  0
    9.9033    4.9288    0.1744 H   0  0  0  0  0  0  0  0  0  0  0  0
    8.6499    5.4503    3.0107 H   0  0  0  0  0  0  0  0  0  0  0  0
   10.3410    4.9931    2.6704 H   0  0  0  0  0  0  0  0  0  0  0  0
    9.3637    4.0232    3.7947 H   0  0  0  0  0  0  0  0  0  0  0  0
    8.6672    1.4872   -0.1095 H   0  0  0  0  0  0  0  0  0  0  0  0
    9.3924   -0.2363   -2.5542 H   0  0  0  0  0  0  0  0  0  0  0  0
   10.4167   -0.0339   -1.1146 H   0  0  0  0  0  0  0  0  0  0  0  0
   10.0427    1.3652   -2.1560 H   0  0  0  0  0  0  0  0  0  0  0  0
    6.9658    0.7354   -2.5481 H   0  0  0  0  0  0  0  0  0  0  0  0
    7.6910    2.3347   -2.2331 H   0  0  0  0  0  0  0  0  0  0  0  0
    6.4192    1.7072   -1.1586 H   0  0  0  0  0  0  0  0  0  0  0  0
    8.3479   -2.0883   -1.5389 H   0  0  0  0  0  0  0  0  0  0  0  0
  1  2  1  0
  1 34  1  0
  1 35  1  0
  1 36  1  0
  2  3  1  0
  2 37  1  0
  2 38  1  0
  3  4  1  0
  3  5  1  0
  3 39  1  1
  4 40  1  0
  4 41  1  0
  4 42  1  0
  5  6  2  0
  5 33  1  0
  6  7  1  0
  6 43  1  0
  7  8  1  0
  7 29  1  0
  7 44  1  6
  8  9  1  1
  8 13  1  0
  8 17  1  0
  9 10  1  0
  9 11  1  0
  9 45  1  6
 10 46  1  0
 10 47  1  0
 10 48  1  0
 11 12  1  0
 11 49  1  0
 11 50  1  0
 12 51  1  0
 12 52  1  0
 12 53  1  0
 13 14  1  0
 13 15  1  0
 13 54  1  6
 14 55  1  0
 14 56  1  0
 14 57  1  0
 15 16  1  0
 15 58  1  0
 15 59  1  0
 16 60  1  0
 16 61  1  0
 16 62  1  0
 17 18  1  0
 17 25  1  0
 17 63  1  1
 18 19  2  0
 18 64  1  0
 19 20  1  0
 19 24  1  0
 20 21  1  0
 20 22  1  0
 20 65  1  1
 21 66  1  0
 21 67  1  0
 21 68  1  0
 22 23  1  0
 22 69  1  0
 22 70  1  0
 23 71  1  0
 23 72  1  0
 23 73  1  0
 24 25  2  0
 24 74  1  0
 25 26  1  0
 26 27  1  0
 26 28  1  0
 26 75  1  6
 27 76  1  0
 27 77  1  0
 27 78  1  0
 28 79  1  0
 28 80  1  0
 28 81  1  0
 29 30  1  0
 29 33  2  0
 30 31  1  0
 30 32  1  0
 30 82  1  1
 31 83  1  0
 31 84  1  0
 31 85  1  0
 32 86  1  0
 32 87  1  0
 32 88  1  0
 33 89  1  0
M  END

