
     RDKit          3D

 22 22  0  0  0  0  0  0  0  0999 V2000
    2.8285    1.2519    0.4155 C   0  0  0  0  0  0  0  0  0  0  0  0
    4.3150    1.2342    0.1065 C   0  0  1  0  0  0  0  0  0  0  0  0
    4.5015    0.7728   -0.8738 H   0  0  0  0  0  0  0  0  0  0  0  0
    4.9562    2.9344   -0.0273 Cl  0  0  0  0  0  0  0  0  0  0  0  0
    5.1616    0.5221    1.1579 C   0  0  0  0  0  0  0  0  0  0  0  0
    4.7431   -0.8278    1.1906 O   0  0  0  0  0  0  0  0  0  0  0  0
    5.3512   -1.7046    2.0371 C   0  0  0  0  0  0  0  0  0  0  0  0
    6.3780   -1.3577    2.9277 C   0  0  0  0  0  0  0  0  0  0  0  0
    6.9328   -2.3413    3.7567 C   0  0  0  0  0  0  0  0  0  0  0  0
    6.4794   -3.6594    3.7096 C   0  0  0  0  0  0  0  0  0  0  0  0
    5.4534   -3.9975    2.8168 C   0  0  0  0  0  0  0  0  0  0  0  0
    4.8914   -3.0320    1.9857 C   0  0  0  0  0  0  0  0  0  0  0  0
    2.2693    1.7679   -0.3781 H   0  0  0  0  0  0  0  0  0  0  0  0
    2.6333    1.7654    1.3699 H   0  0  0  0  0  0  0  0  0  0  0  0
    2.4632    0.2163    0.4932 H   0  0  0  0  0  0  0  0  0  0  0  0
    5.0202    1.0071    2.1420 H   0  0  0  0  0  0  0  0  0  0  0  0
    6.2303    0.5980    0.8906 H   0  0  0  0  0  0  0  0  0  0  0  0
    6.7509   -0.3350    2.9852 H   0  0  0  0  0  0  0  0  0  0  0  0
    7.7326   -2.0620    4.4478 H   0  0  0  0  0  0  0  0  0  0  0  0
    6.9186   -4.4189    4.3603 H   0  0  0  0  0  0  0  0  0  0  0  0
    5.0873   -5.0264    2.7674 H   0  0  0  0  0  0  0  0  0  0  0  0
    4.0924   -3.2779    1.2833 H   0  0  0  0  0  0  0  0  0  0  0  0
  1  2  1  0
  1 13  1  0
  1 14  1  0
  1 15  1  0
  2  3  1  6
  2  4  1  0
  2  5  1  0
  5  6  1  0
  5 16  1  0
  5 17  1  0
  6  7  1  0
  7  8  2  0
  7 12  1  0
  8  9  1  0
  8 18  1  0
  9 10  2  0
  9 19  1  0
 10 11  1  0
 10 20  1  0
 11 12  2  0
 11 21  1  0
 12 22  1  0
M  END

