
     RDKit          3D

 28 29  0  0  0  0  0  0  0  0999 V2000
    1.7472    0.8021   -0.0369 O   0  0  0  0  0  0  0  0  0  0  0  0
    2.6467    0.0117   -0.2770 C   0  0  0  0  0  0  0  0  0  0  0  0
    2.8895   -0.4739   -1.5498 N   0  0  0  0  0  0  0  0  0  0  0  0
    2.1997    0.1129   -2.6860 C   0  0  0  0  0  0  0  0  0  0  0  0
    2.8433    1.3839   -3.2119 C   0  0  0  0  0  0  0  0  0  0  0  0
    2.3395    2.6431   -2.8503 C   0  0  0  0  0  0  0  0  0  0  0  0
    2.9180    3.8286   -3.3055 C   0  0  0  0  0  0  0  0  0  0  0  0
    4.0350    3.7624   -4.1421 C   0  0  0  0  0  0  0  0  0  0  0  0
    4.7732    5.2338   -4.7285 Cl  0  0  0  0  0  0  0  0  0  0  0  0
    4.5784    2.5311   -4.5158 C   0  0  0  0  0  0  0  0  0  0  0  0
    3.9774    1.3638   -4.0402 C   0  0  0  0  0  0  0  0  0  0  0  0
    4.6978   -0.1755   -4.5013 Cl  0  0  0  0  0  0  0  0  0  0  0  0
    3.4736   -0.5078    0.7009 N   0  0  0  0  0  0  0  0  0  0  0  0
    3.4464   -0.0150    2.0441 C   0  0  1  0  0  0  0  0  0  0  0  0
    2.2934   -0.3854    2.9355 C   0  0  0  0  0  0  0  0  0  0  0  0
    3.6451   -1.0094    3.1613 C   0  0  0  0  0  0  0  0  0  0  0  0
    3.7577   -0.9596   -1.7437 H   0  0  0  0  0  0  0  0  0  0  0  0
    1.1760    0.3375   -2.3614 H   0  0  0  0  0  0  0  0  0  0  0  0
    2.1496   -0.6399   -3.4862 H   0  0  0  0  0  0  0  0  0  0  0  0
    1.4800    2.6828   -2.1774 H   0  0  0  0  0  0  0  0  0  0  0  0
    2.5118    4.7983   -3.0141 H   0  0  0  0  0  0  0  0  0  0  0  0
    5.4538    2.4808   -5.1627 H   0  0  0  0  0  0  0  0  0  0  0  0
    4.2908   -1.0372    0.4183 H   0  0  0  0  0  0  0  0  0  0  0  0
    3.8704    0.9877    2.1901 H   0  0  0  0  0  0  0  0  0  0  0  0
    1.5091   -1.0039    2.4935 H   0  0  0  0  0  0  0  0  0  0  0  0
    1.9352    0.3712    3.6382 H   0  0  0  0  0  0  0  0  0  0  0  0
    3.7727   -2.0592    2.8806 H   0  0  0  0  0  0  0  0  0  0  0  0
    4.2379   -0.6962    4.0250 H   0  0  0  0  0  0  0  0  0  0  0  0
  1  2  2  0
  2  3  1  0
  2 13  1  0
  3  4  1  0
  3 17  1  0
  4  5  1  0
  4 18  1  0
  4 19  1  0
  5  6  2  0
  5 11  1  0
  6  7  1  0
  6 20  1  0
  7  8  2  0
  7 21  1  0
  8  9  1  0
  8 10  1  0
 10 11  2  0
 10 22  1  0
 11 12  1  0
 13 14  1  0
 13 23  1  0
 14 15  1  0
 14 16  1  0
 14 24  1  6
 15 16  1  0
 15 25  1  0
 15 26  1  0
 16 27  1  0
 16 28  1  0
M  END

