
     RDKit          3D

 47 49  0  0  0  0  0  0  0  0999 V2000
    1.7323    4.3833   -1.6257 C   0  0  0  0  0  0  0  0  0  0  0  0
    2.9245    4.1049   -2.3216 O   0  0  0  0  0  0  0  0  0  0  0  0
    3.5503    2.9181   -2.1109 C   0  0  0  0  0  0  0  0  0  0  0  0
    3.0950    1.9114   -1.2534 C   0  0  0  0  0  0  0  0  0  0  0  0
    3.8192    0.7183   -1.1107 C   0  0  0  0  0  0  0  0  0  0  0  0
    5.0086    0.5048   -1.8134 C   0  0  0  0  0  0  0  0  0  0  0  0
    5.7499   -0.6275   -1.7409 O   0  0  0  0  0  0  0  0  0  0  0  0
    5.4101   -1.6157   -0.7923 C   0  0  0  0  0  0  0  0  0  0  0  0
    5.4612    1.5328   -2.6741 C   0  0  0  0  0  0  0  0  0  0  0  0
    7.0347    1.4024   -3.5463 S   0  0  1  0  0  0  0  0  0  0  0  0
    7.1319    2.5948   -4.3953 O   0  0  0  0  0  0  0  0  0  0  0  0
    8.0772    1.0887   -2.5693 O   0  0  0  0  0  0  0  0  0  0  0  0
    6.8586    0.0632   -4.5482 N   0  0  0  0  0  0  0  0  0  0  0  0
    7.6730   -1.1306   -4.3161 C   0  0  0  0  0  0  0  0  0  0  0  0
    6.8855   -2.3701   -4.7456 C   0  0  0  0  0  0  0  0  0  0  0  0
    6.3813   -2.2408   -6.1879 C   0  0  0  0  0  0  0  0  0  0  0  0
    5.5914   -0.9484   -6.3694 C   0  0  2  0  0  0  0  0  0  0  0  0
    5.2734   -0.8403   -7.7666 O   0  0  0  0  0  0  0  0  0  0  0  0
    4.2220   -0.1029   -8.1574 C   0  0  0  0  0  0  0  0  0  0  0  0
    3.9306   -0.0670   -9.5445 C   0  0  0  0  0  0  0  0  0  0  0  0
    2.9082    0.6302  -10.0089 N   0  0  0  0  0  0  0  0  0  0  0  0
    2.1591    1.3004   -9.1183 C   0  0  0  0  0  0  0  0  0  0  0  0
    2.4511    1.2604   -7.7579 C   0  0  0  0  0  0  0  0  0  0  0  0
    3.4862    0.5580   -7.2773 N   0  0  0  0  0  0  0  0  0  0  0  0
    6.4064    0.2720   -5.9200 C   0  0  0  0  0  0  0  0  0  0  0  0
    4.7478    2.7158   -2.8184 C   0  0  0  0  0  0  0  0  0  0  0  0
    1.4124    5.3861   -1.9392 H   0  0  0  0  0  0  0  0  0  0  0  0
    1.8844    4.3836   -0.5306 H   0  0  0  0  0  0  0  0  0  0  0  0
    0.9321    3.6608   -1.8714 H   0  0  0  0  0  0  0  0  0  0  0  0
    2.1737    2.0321   -0.6834 H   0  0  0  0  0  0  0  0  0  0  0  0
    3.4330   -0.0467   -0.4372 H   0  0  0  0  0  0  0  0  0  0  0  0
    6.1776   -2.3970   -0.8682 H   0  0  0  0  0  0  0  0  0  0  0  0
    4.4217   -2.0634   -1.0007 H   0  0  0  0  0  0  0  0  0  0  0  0
    5.4111   -1.2097    0.2345 H   0  0  0  0  0  0  0  0  0  0  0  0
    7.9353   -1.1706   -3.2531 H   0  0  0  0  0  0  0  0  0  0  0  0
    8.6191   -1.0654   -4.8914 H   0  0  0  0  0  0  0  0  0  0  0  0
    6.0312   -2.4961   -4.0593 H   0  0  0  0  0  0  0  0  0  0  0  0
    7.5227   -3.2641   -4.6453 H   0  0  0  0  0  0  0  0  0  0  0  0
    5.7536   -3.1010   -6.4703 H   0  0  0  0  0  0  0  0  0  0  0  0
    7.2357   -2.2236   -6.8876 H   0  0  0  0  0  0  0  0  0  0  0  0
    4.6562   -0.9759   -5.7887 H   0  0  0  0  0  0  0  0  0  0  0  0
    4.5593   -0.6251  -10.2466 H   0  0  0  0  0  0  0  0  0  0  0  0
    1.3127    1.8804   -9.4997 H   0  0  0  0  0  0  0  0  0  0  0  0
    1.8416    1.8098   -7.0319 H   0  0  0  0  0  0  0  0  0  0  0  0
    5.7901    1.1772   -5.9714 H   0  0  0  0  0  0  0  0  0  0  0  0
    7.2628    0.4069   -6.6103 H   0  0  0  0  0  0  0  0  0  0  0  0
    5.1233    3.4962   -3.4808 H   0  0  0  0  0  0  0  0  0  0  0  0
  1  2  1  0
  1 27  1  0
  1 28  1  0
  1 29  1  0
  2  3  1  0
  3  4  2  0
  3 26  1  0
  4  5  1  0
  4 30  1  0
  5  6  2  0
  5 31  1  0
  6  7  1  0
  6  9  1  0
  7  8  1  0
  8 32  1  0
  8 33  1  0
  8 34  1  0
 10  9  1  1
  9 26  2  0
 10 11  2  0
 10 12  2  0
 10 13  1  0
 13 14  1  0
 13 25  1  0
 14 15  1  0
 14 35  1  0
 14 36  1  0
 15 16  1  0
 15 37  1  0
 15 38  1  0
 16 17  1  0
 16 39  1  0
 16 40  1  0
 17 18  1  0
 17 25  1  0
 17 41  1  1
 18 19  1  0
 19 20  2  0
 19 24  1  0
 20 21  1  0
 20 42  1  0
 21 22  2  0
 22 23  1  0
 22 43  1  0
 23 24  2  0
 23 44  1  0
 25 45  1  0
 25 46  1  0
 26 47  1  0
M  END

