
     RDKit          3D

 38 39  0  0  0  0  0  0  0  0999 V2000
    0.8949   -0.1218    0.2913 C   0  0  0  0  0  0  0  0  0  0  0  0
    2.3950   -0.2715   -0.0027 C   0  0  1  0  0  0  0  0  0  0  0  0
    2.7314   -1.5749   -0.7565 C   0  0  0  0  0  0  0  0  0  0  0  0
    2.3905   -1.5075   -2.2497 C   0  0  0  0  0  0  0  0  0  0  0  0
    3.1002   -0.3300   -2.9232 C   0  0  0  0  0  0  0  0  0  0  0  0
    2.7544    1.0276   -2.2591 C   0  0  2  0  0  0  0  0  0  0  0  0
    1.3471    1.3193   -2.4895 N   0  0  0  0  0  0  0  0  0  0  0  0
    3.7588    2.0866   -2.8123 C   0  0  0  0  0  0  0  0  0  0  0  0
    4.9496    1.9032   -2.7100 O   0  0  0  0  0  0  0  0  0  0  0  0
    3.2676    3.4412   -3.3764 C   0  0  0  0  0  0  0  0  0  0  0  0
    2.2066    3.4915   -4.4506 C   0  0  0  0  0  0  0  0  0  0  0  0
    0.9673    4.1465   -4.2788 C   0  0  0  0  0  0  0  0  0  0  0  0
    0.5498    4.8571   -2.7248 Cl  0  0  0  0  0  0  0  0  0  0  0  0
    0.0173    4.2507   -5.2968 C   0  0  0  0  0  0  0  0  0  0  0  0
    0.2866    3.6921   -6.5464 C   0  0  0  0  0  0  0  0  0  0  0  0
    1.4979    3.0393   -6.7702 C   0  0  0  0  0  0  0  0  0  0  0  0
    2.4320    2.9512   -5.7349 C   0  0  0  0  0  0  0  0  0  0  0  0
    3.9438    2.1333   -6.0681 Cl  0  0  0  0  0  0  0  0  0  0  0  0
    3.0254    0.9390   -0.7286 C   0  0  0  0  0  0  0  0  0  0  0  0
    0.5341   -0.9690    0.8982 H   0  0  0  0  0  0  0  0  0  0  0  0
    0.2989   -0.0676   -0.6296 H   0  0  0  0  0  0  0  0  0  0  0  0
    0.6998    0.8003    0.8646 H   0  0  0  0  0  0  0  0  0  0  0  0
    2.9022   -0.3261    0.9779 H   0  0  0  0  0  0  0  0  0  0  0  0
    2.2131   -2.4250   -0.2807 H   0  0  0  0  0  0  0  0  0  0  0  0
    3.8136   -1.7747   -0.6529 H   0  0  0  0  0  0  0  0  0  0  0  0
    1.3018   -1.4111   -2.3889 H   0  0  0  0  0  0  0  0  0  0  0  0
    2.6905   -2.4462   -2.7456 H   0  0  0  0  0  0  0  0  0  0  0  0
    2.8485   -0.2803   -3.9973 H   0  0  0  0  0  0  0  0  0  0  0  0
    4.1918   -0.4622   -2.8651 H   0  0  0  0  0  0  0  0  0  0  0  0
    1.1130    1.3528   -3.4785 H   0  0  0  0  0  0  0  0  0  0  0  0
    1.0428    2.1894   -2.0570 H   0  0  0  0  0  0  0  0  0  0  0  0
    4.1827    3.9259   -3.7473 H   0  0  0  0  0  0  0  0  0  0  0  0
    2.9201    4.0240   -2.5096 H   0  0  0  0  0  0  0  0  0  0  0  0
   -0.9234    4.7665   -5.1007 H   0  0  0  0  0  0  0  0  0  0  0  0
   -0.4506    3.7680   -7.3487 H   0  0  0  0  0  0  0  0  0  0  0  0
    1.7322    2.5980   -7.7397 H   0  0  0  0  0  0  0  0  0  0  0  0
    2.6936    1.8783   -0.2489 H   0  0  0  0  0  0  0  0  0  0  0  0
    4.1179    0.8945   -0.6041 H   0  0  0  0  0  0  0  0  0  0  0  0
  1  2  1  0
  1 20  1  0
  1 21  1  0
  1 22  1  0
  2  3  1  0
  2 19  1  0
  2 23  1  1
  3  4  1  0
  3 24  1  0
  3 25  1  0
  4  5  1  0
  4 26  1  0
  4 27  1  0
  5  6  1  0
  5 28  1  0
  5 29  1  0
  6  7  1  0
  6  8  1  6
  6 19  1  0
  7 30  1  0
  7 31  1  0
  8  9  2  0
  8 10  1  0
 10 11  1  0
 10 32  1  0
 10 33  1  0
 11 12  2  0
 11 17  1  0
 12 13  1  0
 12 14  1  0
 14 15  2  0
 14 34  1  0
 15 16  1  0
 15 35  1  0
 16 17  2  0
 16 36  1  0
 17 18  1  0
 19 37  1  0
 19 38  1  0
M  END

