
     RDKit          3D

 36 36  0  0  0  0  0  0  0  0999 V2000
    4.7800    2.5673   -3.5895 C   0  0  0  0  0  0  0  0  0  0  0  0
    4.3113    3.2285   -2.2944 C   0  0  1  0  0  0  0  0  0  0  0  0
    2.8932    3.2154   -2.1954 O   0  0  0  0  0  0  0  0  0  0  0  0
    4.9667    2.6169   -1.0474 C   0  0  0  0  0  0  0  0  0  0  0  0
    4.5656    3.3145    0.2534 C   0  0  0  0  0  0  0  0  0  0  0  0
    5.1138    2.6574    1.5249 C   0  0  0  0  0  0  0  0  0  0  0  0
    6.5695    2.6258    1.6060 N   0  0  0  0  0  0  0  0  0  0  0  0
    7.2897    3.6479    2.1475 C   0  0  0  0  0  0  0  0  0  0  0  0
    6.7729    4.6440    2.6278 O   0  0  0  0  0  0  0  0  0  0  0  0
    8.8139    3.4684    2.1219 C   0  0  0  0  0  0  0  0  0  0  0  0
    9.5107    4.4634    1.2148 C   0  0  0  0  0  0  0  0  0  0  0  0
    9.3237    5.8465    1.3880 C   0  0  0  0  0  0  0  0  0  0  0  0
    9.9673    6.7611    0.5589 C   0  0  0  0  0  0  0  0  0  0  0  0
   10.8214    6.3104   -0.4665 C   0  0  0  0  0  0  0  0  0  0  0  0
   11.4903    7.2510   -1.3216 C   0  0  0  0  0  0  0  0  0  0  0  0
   12.0310    8.0096   -2.0151 N   0  0  0  0  0  0  0  0  0  0  0  0
   11.0132    4.9292   -0.6462 C   0  0  0  0  0  0  0  0  0  0  0  0
   10.3601    4.0229    0.1881 C   0  0  0  0  0  0  0  0  0  0  0  0
    4.2774    3.0250   -4.4548 H   0  0  0  0  0  0  0  0  0  0  0  0
    4.5421    1.4883   -3.5868 H   0  0  0  0  0  0  0  0  0  0  0  0
    5.8687    2.6676   -3.7254 H   0  0  0  0  0  0  0  0  0  0  0  0
    4.5743    4.3005   -2.3294 H   0  0  0  0  0  0  0  0  0  0  0  0
    2.6020    2.2934   -2.2370 H   0  0  0  0  0  0  0  0  0  0  0  0
    6.0638    2.6469   -1.1725 H   0  0  0  0  0  0  0  0  0  0  0  0
    4.6907    1.5437   -1.0000 H   0  0  0  0  0  0  0  0  0  0  0  0
    3.4655    3.3384    0.3172 H   0  0  0  0  0  0  0  0  0  0  0  0
    4.8965    4.3669    0.2316 H   0  0  0  0  0  0  0  0  0  0  0  0
    4.7479    1.6200    1.6095 H   0  0  0  0  0  0  0  0  0  0  0  0
    4.7554    3.2113    2.4046 H   0  0  0  0  0  0  0  0  0  0  0  0
    7.0657    1.8483    1.1900 H   0  0  0  0  0  0  0  0  0  0  0  0
    9.0950    2.4424    1.8404 H   0  0  0  0  0  0  0  0  0  0  0  0
    9.1482    3.6247    3.1613 H   0  0  0  0  0  0  0  0  0  0  0  0
    8.6485    6.1941    2.1717 H   0  0  0  0  0  0  0  0  0  0  0  0
    9.8142    7.8328    0.6999 H   0  0  0  0  0  0  0  0  0  0  0  0
   11.6737    4.5732   -1.4392 H   0  0  0  0  0  0  0  0  0  0  0  0
   10.5199    2.9514    0.0398 H   0  0  0  0  0  0  0  0  0  0  0  0
  1  2  1  0
  1 19  1  0
  1 20  1  0
  1 21  1  0
  2  3  1  0
  2  4  1  0
  2 22  1  6
  3 23  1  0
  4  5  1  0
  4 24  1  0
  4 25  1  0
  5  6  1  0
  5 26  1  0
  5 27  1  0
  6  7  1  0
  6 28  1  0
  6 29  1  0
  7  8  1  0
  7 30  1  0
  8  9  2  0
  8 10  1  0
 10 11  1  0
 10 31  1  0
 10 32  1  0
 11 12  2  0
 11 18  1  0
 12 13  1  0
 12 33  1  0
 13 14  2  0
 13 34  1  0
 14 15  1  0
 14 17  1  0
 15 16  3  0
 17 18  2  0
 17 35  1  0
 18 36  1  0
M  END

