
     RDKit          3D

 52 55  0  0  0  0  0  0  0  0999 V2000
    9.5034   -0.0974    3.4050 C   0  0  0  0  0  0  0  0  0  0  0  0
    9.0146   -1.0019    2.3789 N   0  0  0  0  0  0  0  0  0  0  0  0
    9.5233   -2.2361    2.0618 C   0  0  0  0  0  0  0  0  0  0  0  0
    8.8658   -2.8097    1.0815 N   0  0  0  0  0  0  0  0  0  0  0  0
    7.8877   -1.9153    0.7475 C   0  0  0  0  0  0  0  0  0  0  0  0
    6.7255   -2.1885   -0.5735 S   0  0  1  0  0  0  0  0  0  0  0  0
    5.7300   -1.1226   -0.4382 O   0  0  0  0  0  0  0  0  0  0  0  0
    7.4702   -2.4077   -1.8106 O   0  0  0  0  0  0  0  0  0  0  0  0
    5.9671   -3.6211   -0.2204 N   0  0  0  0  0  0  0  0  0  0  0  0
    6.5830   -4.9205   -0.5346 C   0  0  0  0  0  0  0  0  0  0  0  0
    5.4614   -5.8911   -0.1123 C   0  0  2  0  0  0  0  0  0  0  0  0
    4.4019   -6.0376   -1.0960 N   0  0  0  0  0  0  0  0  0  0  0  0
    4.6899   -6.9510   -2.1955 C   0  0  0  0  0  0  0  0  0  0  0  0
    3.5101   -7.0960   -3.1350 C   0  0  0  0  0  0  0  0  0  0  0  0
    3.6720   -6.9815   -4.5227 C   0  0  0  0  0  0  0  0  0  0  0  0
    2.5907   -7.1409   -5.3951 C   0  0  0  0  0  0  0  0  0  0  0  0
    1.3344   -7.4115   -4.8616 C   0  0  0  0  0  0  0  0  0  0  0  0
    0.2882   -7.5636   -5.6887 F   0  0  0  0  0  0  0  0  0  0  0  0
    1.1356   -7.5247   -3.4860 C   0  0  0  0  0  0  0  0  0  0  0  0
    2.2263   -7.3653   -2.6305 C   0  0  0  0  0  0  0  0  0  0  0  0
    4.9804   -5.2205    1.2140 C   0  0  2  0  0  0  0  0  0  0  0  0
    3.7214   -5.7655    1.8503 C   0  0  0  0  0  0  0  0  0  0  0  0
    3.8129   -6.5501    3.0115 C   0  0  0  0  0  0  0  0  0  0  0  0
    2.6799   -7.0926    3.6237 C   0  0  0  0  0  0  0  0  0  0  0  0
    1.4319   -6.8397    3.0627 C   0  0  0  0  0  0  0  0  0  0  0  0
    0.3344   -7.3502    3.6421 F   0  0  0  0  0  0  0  0  0  0  0  0
    1.2976   -6.0630    1.9138 C   0  0  0  0  0  0  0  0  0  0  0  0
    2.4420   -5.5329    1.3150 C   0  0  0  0  0  0  0  0  0  0  0  0
    4.9868   -3.7120    0.8736 C   0  0  0  0  0  0  0  0  0  0  0  0
    7.9511   -0.7859    1.5372 C   0  0  0  0  0  0  0  0  0  0  0  0
   10.3849   -0.5426    3.8854 H   0  0  0  0  0  0  0  0  0  0  0  0
    8.7342    0.0766    4.1731 H   0  0  0  0  0  0  0  0  0  0  0  0
    9.7940    0.8690    2.9658 H   0  0  0  0  0  0  0  0  0  0  0  0
   10.3799   -2.6565    2.5903 H   0  0  0  0  0  0  0  0  0  0  0  0
    7.5106   -5.0876    0.0419 H   0  0  0  0  0  0  0  0  0  0  0  0
    6.8261   -4.9778   -1.6041 H   0  0  0  0  0  0  0  0  0  0  0  0
    5.8640   -6.8943    0.0987 H   0  0  0  0  0  0  0  0  0  0  0  0
    4.1333   -5.1267   -1.4697 H   0  0  0  0  0  0  0  0  0  0  0  0
    4.9270   -7.9362   -1.7518 H   0  0  0  0  0  0  0  0  0  0  0  0
    5.5847   -6.6638   -2.7889 H   0  0  0  0  0  0  0  0  0  0  0  0
    4.6610   -6.7612   -4.9344 H   0  0  0  0  0  0  0  0  0  0  0  0
    2.7077   -7.0513   -6.4769 H   0  0  0  0  0  0  0  0  0  0  0  0
    0.1339   -7.7364   -3.1062 H   0  0  0  0  0  0  0  0  0  0  0  0
    2.0865   -7.4428   -1.5501 H   0  0  0  0  0  0  0  0  0  0  0  0
    5.8035   -5.3859    1.9278 H   0  0  0  0  0  0  0  0  0  0  0  0
    4.7953   -6.7437    3.4518 H   0  0  0  0  0  0  0  0  0  0  0  0
    2.7512   -7.7015    4.5270 H   0  0  0  0  0  0  0  0  0  0  0  0
    0.3023   -5.8824    1.5027 H   0  0  0  0  0  0  0  0  0  0  0  0
    2.3294   -4.9334    0.4114 H   0  0  0  0  0  0  0  0  0  0  0  0
    5.2788   -3.1054    1.7478 H   0  0  0  0  0  0  0  0  0  0  0  0
    4.0044   -3.3427    0.5391 H   0  0  0  0  0  0  0  0  0  0  0  0
    7.3432    0.1144    1.5518 H   0  0  0  0  0  0  0  0  0  0  0  0
  1  2  1  0
  1 31  1  0
  1 32  1  0
  1 33  1  0
  2  3  1  0
  2 30  1  0
  3  4  2  0
  3 34  1  0
  4  5  1  0
  6  5  1  1
  5 30  2  0
  6  7  2  0
  6  8  2  0
  6  9  1  0
  9 10  1  0
  9 29  1  0
 10 11  1  0
 10 35  1  0
 10 36  1  0
 11 12  1  0
 11 21  1  0
 11 37  1  1
 12 13  1  0
 12 38  1  0
 13 14  1  0
 13 39  1  0
 13 40  1  0
 14 15  2  0
 14 20  1  0
 15 16  1  0
 15 41  1  0
 16 17  2  0
 16 42  1  0
 17 18  1  0
 17 19  1  0
 19 20  2  0
 19 43  1  0
 20 44  1  0
 21 22  1  0
 21 29  1  0
 21 45  1  1
 22 23  2  0
 22 28  1  0
 23 24  1  0
 23 46  1  0
 24 25  2  0
 24 47  1  0
 25 26  1  0
 25 27  1  0
 27 28  2  0
 27 48  1  0
 28 49  1  0
 29 50  1  0
 29 51  1  0
 30 52  1  0
M  END

