
     RDKit          3D

 33 36  0  0  0  0  0  0  0  0999 V2000
    1.2507   -0.1300    0.8638 F   0  0  0  0  0  0  0  0  0  0  0  0
    2.5159   -0.0514    0.4270 C   0  0  0  0  0  0  0  0  0  0  0  0
    2.8967    1.0258   -0.3699 C   0  0  0  0  0  0  0  0  0  0  0  0
    4.2152    1.1005   -0.8203 C   0  0  0  0  0  0  0  0  0  0  0  0
    5.1633    0.1134   -0.4870 C   0  0  0  0  0  0  0  0  0  0  0  0
    6.5653    0.1999   -0.9707 C   0  0  0  0  0  0  0  0  0  0  0  0
    7.2197    1.4416   -1.0926 C   0  0  0  0  0  0  0  0  0  0  0  0
    8.5338    1.5243   -1.5452 C   0  0  0  0  0  0  0  0  0  0  0  0
    9.2515    0.3664   -1.8956 C   0  0  0  0  0  0  0  0  0  0  0  0
   10.6386    0.4230   -2.3760 C   0  0  0  0  0  0  0  0  0  0  0  0
   11.4299    1.5639   -2.5686 C   0  0  0  0  0  0  0  0  0  0  0  0
   12.6257    1.0986   -3.0207 N   0  0  0  0  0  0  0  0  0  0  0  0
   13.7128    1.7936   -3.3493 N   0  0  0  0  0  0  0  0  0  0  0  0
   14.7198    1.0516   -3.7561 C   0  0  0  0  0  0  0  0  0  0  0  0
   14.6509   -0.3704   -3.8371 C   0  0  0  0  0  0  0  0  0  0  0  0
   13.5686   -1.0445   -3.5087 N   0  0  0  0  0  0  0  0  0  0  0  0
   12.5226   -0.3235   -3.0899 C   0  0  0  0  0  0  0  0  0  0  0  0
   11.3247   -0.7116   -2.6999 N   0  0  0  0  0  0  0  0  0  0  0  0
    8.6044   -0.8767   -1.7757 C   0  0  0  0  0  0  0  0  0  0  0  0
    7.2903   -0.9553   -1.3233 C   0  0  0  0  0  0  0  0  0  0  0  0
    4.7373   -0.9596    0.3204 C   0  0  0  0  0  0  0  0  0  0  0  0
    3.4226   -1.0486    0.7791 C   0  0  0  0  0  0  0  0  0  0  0  0
    2.1577    1.7843   -0.6355 H   0  0  0  0  0  0  0  0  0  0  0  0
    4.5058    1.9320   -1.4659 H   0  0  0  0  0  0  0  0  0  0  0  0
    6.6990    2.3570   -0.8028 H   0  0  0  0  0  0  0  0  0  0  0  0
    9.0068    2.5068   -1.6150 H   0  0  0  0  0  0  0  0  0  0  0  0
   11.2515    2.6258   -2.4293 H   0  0  0  0  0  0  0  0  0  0  0  0
   15.6294    1.5910   -4.0336 H   0  0  0  0  0  0  0  0  0  0  0  0
   15.5231   -0.9360   -4.1831 H   0  0  0  0  0  0  0  0  0  0  0  0
    9.1539   -1.7773   -2.0542 H   0  0  0  0  0  0  0  0  0  0  0  0
    6.8066   -1.9331   -1.2663 H   0  0  0  0  0  0  0  0  0  0  0  0
    5.4531   -1.7290    0.6173 H   0  0  0  0  0  0  0  0  0  0  0  0
    3.0929   -1.8739    1.4131 H   0  0  0  0  0  0  0  0  0  0  0  0
  1  2  1  0
  2  3  2  0
  2 22  1  0
  3  4  1  0
  3 23  1  0
  4  5  2  0
  4 24  1  0
  5  6  1  0
  5 21  1  0
  6  7  2  0
  6 20  1  0
  7  8  1  0
  7 25  1  0
  8  9  2  0
  8 26  1  0
  9 10  1  0
  9 19  1  0
 10 11  2  0
 10 18  1  0
 11 12  1  0
 11 27  1  0
 12 13  1  0
 12 17  1  0
 13 14  2  0
 14 15  1  0
 14 28  1  0
 15 16  2  0
 15 29  1  0
 16 17  1  0
 17 18  2  0
 19 20  2  0
 19 30  1  0
 20 31  1  0
 21 22  2  0
 21 32  1  0
 22 33  1  0
M  END

