
     RDKit          3D

 38 39  0  0  0  0  0  0  0  0999 V2000
    3.4839   -2.7112   -4.9363 C   0  0  0  0  0  0  0  0  0  0  0  0
    2.5298   -2.1080   -4.0696 O   0  0  0  0  0  0  0  0  0  0  0  0
    2.8932   -0.9067   -3.5179 C   0  0  0  0  0  0  0  0  0  0  0  0
    2.7838    0.2645   -4.2760 C   0  0  0  0  0  0  0  0  0  0  0  0
    3.1140    1.5242   -3.7590 C   0  0  0  0  0  0  0  0  0  0  0  0
    2.9797    2.7638   -4.6026 C   0  0  0  0  0  0  0  0  0  0  0  0
    3.5647    1.5575   -2.4254 C   0  0  0  0  0  0  0  0  0  0  0  0
    4.0472    3.2257   -1.6181 Br  0  0  0  0  0  0  0  0  0  0  0  0
    3.6695    0.4022   -1.6535 C   0  0  0  0  0  0  0  0  0  0  0  0
    3.3325   -0.8524   -2.1810 C   0  0  0  0  0  0  0  0  0  0  0  0
    3.4455   -2.1193   -1.3722 C   0  0  1  0  0  0  0  0  0  0  0  0
    5.2115   -2.6965   -1.4499 Cl  0  0  0  0  0  0  0  0  0  0  0  0
    2.9807   -2.0418    0.0818 C   0  0  1  0  0  0  0  0  0  0  0  0
    1.5006   -1.5897    0.1877 C   0  0  0  0  0  0  0  0  0  0  0  0
    1.0051   -2.2342    1.4864 C   0  0  0  0  0  0  0  0  0  0  0  0
    1.6401   -3.6298    1.4349 C   0  0  0  0  0  0  0  0  0  0  0  0
    3.0639   -3.4051    0.8560 C   0  0  2  0  0  0  0  0  0  0  0  0
    4.1492   -3.3942    1.9380 C   0  0  0  0  0  0  0  0  0  0  0  0
    3.0320   -3.6401   -5.3111 H   0  0  0  0  0  0  0  0  0  0  0  0
    4.4163   -2.9492   -4.3960 H   0  0  0  0  0  0  0  0  0  0  0  0
    3.7225   -2.0577   -5.7945 H   0  0  0  0  0  0  0  0  0  0  0  0
    2.4152    0.1826   -5.3015 H   0  0  0  0  0  0  0  0  0  0  0  0
    2.6126    2.5175   -5.6090 H   0  0  0  0  0  0  0  0  0  0  0  0
    3.9460    3.2845   -4.7020 H   0  0  0  0  0  0  0  0  0  0  0  0
    2.2823    3.4840   -4.1445 H   0  0  0  0  0  0  0  0  0  0  0  0
    4.0301    0.4803   -0.6273 H   0  0  0  0  0  0  0  0  0  0  0  0
    2.8981   -2.9134   -1.8935 H   0  0  0  0  0  0  0  0  0  0  0  0
    3.6117   -1.3085    0.6115 H   0  0  0  0  0  0  0  0  0  0  0  0
    0.9241   -1.9892   -0.6658 H   0  0  0  0  0  0  0  0  0  0  0  0
    1.3885   -0.4956    0.1634 H   0  0  0  0  0  0  0  0  0  0  0  0
   -0.0932   -2.2544    1.5690 H   0  0  0  0  0  0  0  0  0  0  0  0
    1.3856   -1.6703    2.3562 H   0  0  0  0  0  0  0  0  0  0  0  0
    1.0523   -4.2701    0.7554 H   0  0  0  0  0  0  0  0  0  0  0  0
    1.6604   -4.1368    2.4128 H   0  0  0  0  0  0  0  0  0  0  0  0
    3.3093   -4.2107    0.1454 H   0  0  0  0  0  0  0  0  0  0  0  0
    3.9394   -2.6321    2.7083 H   0  0  0  0  0  0  0  0  0  0  0  0
    5.1349   -3.1714    1.5019 H   0  0  0  0  0  0  0  0  0  0  0  0
    4.2143   -4.3708    2.4448 H   0  0  0  0  0  0  0  0  0  0  0  0
  1  2  1  0
  1 19  1  0
  1 20  1  0
  1 21  1  0
  2  3  1  0
  3  4  2  0
  3 10  1  0
  4  5  1  0
  4 22  1  0
  5  6  1  0
  5  7  2  0
  6 23  1  0
  6 24  1  0
  6 25  1  0
  7  8  1  0
  7  9  1  0
  9 10  2  0
  9 26  1  0
 10 11  1  0
 11 12  1  0
 11 13  1  0
 11 27  1  6
 13 14  1  0
 13 17  1  0
 13 28  1  1
 14 15  1  0
 14 29  1  0
 14 30  1  0
 15 16  1  0
 15 31  1  0
 15 32  1  0
 16 17  1  0
 16 33  1  0
 16 34  1  0
 17 18  1  0
 17 35  1  6
 18 36  1  0
 18 37  1  0
 18 38  1  0
M  END

