
     RDKit          3D

 56 60  0  0  0  0  0  0  0  0999 V2000
    6.5699   -4.5076   -1.7498 C   0  0  0  0  0  0  0  0  0  0  0  0
    5.9133   -3.6996   -0.7986 O   0  0  0  0  0  0  0  0  0  0  0  0
    5.8384   -2.3488   -1.0081 C   0  0  0  0  0  0  0  0  0  0  0  0
    6.4040   -1.6688   -2.0824 C   0  0  0  0  0  0  0  0  0  0  0  0
    6.2792   -0.2781   -2.2071 C   0  0  0  0  0  0  0  0  0  0  0  0
    5.5703    0.4365   -1.2341 C   0  0  0  0  0  0  0  0  0  0  0  0
    5.3907    1.8325   -1.2760 N   0  0  0  0  0  0  0  0  0  0  0  0
    5.8441    2.7299   -2.2101 C   0  0  0  0  0  0  0  0  0  0  0  0
    6.5056    2.4527   -3.1996 O   0  0  0  0  0  0  0  0  0  0  0  0
    5.4600    4.1335   -1.9293 C   0  0  0  0  0  0  0  0  0  0  0  0
    5.7263    5.2830   -2.6259 C   0  0  0  0  0  0  0  0  0  0  0  0
    5.1099    6.3461   -1.8945 C   0  0  0  0  0  0  0  0  0  0  0  0
    4.5152    5.7652   -0.8080 C   0  0  0  0  0  0  0  0  0  0  0  0
    4.7199    4.4255   -0.8179 O   0  0  0  0  0  0  0  0  0  0  0  0
    4.9897   -0.2429   -0.1450 C   0  0  0  0  0  0  0  0  0  0  0  0
    5.1149   -1.6277   -0.0186 C   0  0  0  0  0  0  0  0  0  0  0  0
    4.5947   -2.3937    1.0278 N   0  0  0  0  0  0  0  0  0  0  0  0
    3.8061   -2.0507    2.0971 C   0  0  0  0  0  0  0  0  0  0  0  0
    3.3545   -0.8318    2.2678 N   0  0  0  0  0  0  0  0  0  0  0  0
    2.4661   -0.6009    3.2796 C   0  0  0  0  0  0  0  0  0  0  0  0
    1.9496    0.6998    3.4989 C   0  0  0  0  0  0  0  0  0  0  0  0
    1.0053    0.9191    4.4875 C   0  0  0  0  0  0  0  0  0  0  0  0
    0.5425   -0.1496    5.2894 C   0  0  0  0  0  0  0  0  0  0  0  0
    1.0369   -1.4286    5.0990 C   0  0  0  0  0  0  0  0  0  0  0  0
    2.0102   -1.6751    4.1018 C   0  0  0  0  0  0  0  0  0  0  0  0
    2.5467   -2.9255    3.9557 N   0  0  0  0  0  0  0  0  0  0  0  0
    3.4470   -3.1279    3.0338 C   0  0  0  0  0  0  0  0  0  0  0  0
    4.0078   -4.4005    2.8570 N   0  0  0  0  0  0  0  0  0  0  0  0
    5.4683   -4.5649    2.9935 C   0  0  0  0  0  0  0  0  0  0  0  0
    5.8535   -4.9171    4.4326 C   0  0  0  0  0  0  0  0  0  0  0  0
    5.1634   -6.0616    4.8846 O   0  0  0  0  0  0  0  0  0  0  0  0
    3.7581   -5.8748    4.8463 C   0  0  0  0  0  0  0  0  0  0  0  0
    3.2898   -5.5466    3.4276 C   0  0  0  0  0  0  0  0  0  0  0  0
    7.6375   -4.2402   -1.8446 H   0  0  0  0  0  0  0  0  0  0  0  0
    6.0954   -4.4332   -2.7446 H   0  0  0  0  0  0  0  0  0  0  0  0
    6.4917   -5.5431   -1.3924 H   0  0  0  0  0  0  0  0  0  0  0  0
    6.9594   -2.2131   -2.8466 H   0  0  0  0  0  0  0  0  0  0  0  0
    6.7240    0.2483   -3.0474 H   0  0  0  0  0  0  0  0  0  0  0  0
    4.8525    2.2263   -0.5118 H   0  0  0  0  0  0  0  0  0  0  0  0
    6.2970    5.3381   -3.5493 H   0  0  0  0  0  0  0  0  0  0  0  0
    5.1074    7.4056   -2.1415 H   0  0  0  0  0  0  0  0  0  0  0  0
    3.9354    6.1562    0.0243 H   0  0  0  0  0  0  0  0  0  0  0  0
    4.4239    0.2922    0.6153 H   0  0  0  0  0  0  0  0  0  0  0  0
    4.7150   -3.3930    0.8951 H   0  0  0  0  0  0  0  0  0  0  0  0
    2.3089    1.5116    2.8629 H   0  0  0  0  0  0  0  0  0  0  0  0
    0.6095    1.9253    4.6476 H   0  0  0  0  0  0  0  0  0  0  0  0
   -0.2056    0.0381    6.0637 H   0  0  0  0  0  0  0  0  0  0  0  0
    0.7056   -2.2706    5.7107 H   0  0  0  0  0  0  0  0  0  0  0  0
    5.9863   -3.6497    2.6765 H   0  0  0  0  0  0  0  0  0  0  0  0
    5.7899   -5.3826    2.3246 H   0  0  0  0  0  0  0  0  0  0  0  0
    5.6465   -4.0505    5.0952 H   0  0  0  0  0  0  0  0  0  0  0  0
    6.9303   -5.1421    4.4918 H   0  0  0  0  0  0  0  0  0  0  0  0
    3.4557   -5.0600    5.5311 H   0  0  0  0  0  0  0  0  0  0  0  0
    3.3019   -6.8142    5.1952 H   0  0  0  0  0  0  0  0  0  0  0  0
    2.2129   -5.3341    3.4198 H   0  0  0  0  0  0  0  0  0  0  0  0
    3.4861   -6.4167    2.7759 H   0  0  0  0  0  0  0  0  0  0  0  0
  1  2  1  0
  1 34  1  0
  1 35  1  0
  1 36  1  0
  2  3  1  0
  3  4  2  0
  3 16  1  0
  4  5  1  0
  4 37  1  0
  5  6  2  0
  5 38  1  0
  6  7  1  0
  6 15  1  0
  7  8  1  0
  7 39  1  0
  8  9  2  0
  8 10  1  0
 10 11  2  0
 10 14  1  0
 11 12  1  0
 11 40  1  0
 12 13  2  0
 12 41  1  0
 13 14  1  0
 13 42  1  0
 15 16  2  0
 15 43  1  0
 16 17  1  0
 17 18  1  0
 17 44  1  0
 18 19  2  0
 18 27  1  0
 19 20  1  0
 20 21  2  0
 20 25  1  0
 21 22  1  0
 21 45  1  0
 22 23  2  0
 22 46  1  0
 23 24  1  0
 23 47  1  0
 24 25  2  0
 24 48  1  0
 25 26  1  0
 26 27  2  0
 27 28  1  0
 28 29  1  0
 28 33  1  0
 29 30  1  0
 29 49  1  0
 29 50  1  0
 30 31  1  0
 30 51  1  0
 30 52  1  0
 31 32  1  0
 32 33  1  0
 32 53  1  0
 32 54  1  0
 33 55  1  0
 33 56  1  0
M  END

