
     RDKit          3D

 21 22  0  0  0  0  0  0  0  0999 V2000
    1.6590   -0.5726   -0.8201 O   0  0  0  0  0  0  0  0  0  0  0  0
    2.2753    0.0841   -0.0184 C   0  0  0  0  0  0  0  0  0  0  0  0
    2.4152    1.4043   -0.1006 O   0  0  0  0  0  0  0  0  0  0  0  0
    2.9754   -0.5024    1.1987 C   0  0  0  0  0  0  0  0  0  0  0  0
    3.5876    0.4129    1.9644 N   0  0  0  0  0  0  0  0  0  0  0  0
    4.2237   -0.0118    3.0529 C   0  0  0  0  0  0  0  0  0  0  0  0
    4.2943   -1.2775    3.4544 N   0  0  0  0  0  0  0  0  0  0  0  0
    3.6810   -2.1937    2.7010 C   0  0  0  0  0  0  0  0  0  0  0  0
    2.9942   -1.8707    1.5093 C   0  0  0  0  0  0  0  0  0  0  0  0
    2.3523   -2.9703    0.6962 C   0  0  0  0  0  0  0  0  0  0  0  0
    2.8998   -4.3353    1.1091 C   0  0  0  0  0  0  0  0  0  0  0  0
    2.8700   -4.4867    2.5158 O   0  0  0  0  0  0  0  0  0  0  0  0
    3.7670   -3.6300    3.1697 C   0  0  0  0  0  0  0  0  0  0  0  0
    2.9521    1.6673    0.6823 H   0  0  0  0  0  0  0  0  0  0  0  0
    4.7261    0.7435    3.6678 H   0  0  0  0  0  0  0  0  0  0  0  0
    2.4955   -2.7858   -0.3775 H   0  0  0  0  0  0  0  0  0  0  0  0
    1.2603   -2.9405    0.8543 H   0  0  0  0  0  0  0  0  0  0  0  0
    3.9345   -4.4664    0.7289 H   0  0  0  0  0  0  0  0  0  0  0  0
    2.2858   -5.1441    0.6880 H   0  0  0  0  0  0  0  0  0  0  0  0
    4.8199   -3.9672    3.0456 H   0  0  0  0  0  0  0  0  0  0  0  0
    3.5473   -3.6649    4.2476 H   0  0  0  0  0  0  0  0  0  0  0  0
  1  2  2  0
  2  3  1  0
  2  4  1  0
  3 14  1  0
  4  5  2  0
  4  9  1  0
  5  6  1  0
  6  7  2  0
  6 15  1  0
  7  8  1  0
  8  9  2  0
  8 13  1  0
  9 10  1  0
 10 11  1  0
 10 16  1  0
 10 17  1  0
 11 12  1  0
 11 18  1  0
 11 19  1  0
 12 13  1  0
 13 20  1  0
 13 21  1  0
M  END

