
     RDKit          3D

 47 51  0  0  0  0  0  0  0  0999 V2000
    1.7839    5.0204   -2.8639 C   0  0  0  0  0  0  0  0  0  0  0  0
    0.7953    4.9987   -1.6859 C   0  0  0  0  0  0  0  0  0  0  0  0
    1.4356    5.2254   -0.3430 C   0  0  0  0  0  0  0  0  0  0  0  0
    1.9467    4.2367    0.5205 C   0  0  0  0  0  0  0  0  0  0  0  0
    1.9344    2.7551    0.3018 C   0  0  0  0  0  0  0  0  0  0  0  0
    2.4752    4.9182    1.6465 C   0  0  0  0  0  0  0  0  0  0  0  0
    2.2911    6.2828    1.4685 N   0  0  0  0  0  0  0  0  0  0  0  0
    1.6677    6.4769    0.2766 C   0  0  0  0  0  0  0  0  0  0  0  0
    1.3179    7.8413   -0.2209 C   0  0  0  0  0  0  0  0  0  0  0  0
    2.7281    7.3783    2.4629 B   0  0  2  0  0  0  0  0  0  0  0  0
    1.6508    8.1307    2.8989 F   0  0  0  0  0  0  0  0  0  0  0  0
    3.6668    8.2321    1.8251 F   0  0  0  0  0  0  0  0  0  0  0  0
    3.4294    6.6840    3.6986 N   0  0  0  0  0  0  0  0  0  0  0  0
    3.9259    7.2761    4.8138 C   0  0  0  0  0  0  0  0  0  0  0  0
    3.9684    8.6922    5.0760 C   0  0  0  0  0  0  0  0  0  0  0  0
    4.0022    9.3626    6.3121 C   0  0  0  0  0  0  0  0  0  0  0  0
    4.0237   10.7473    6.0484 C   0  0  0  0  0  0  0  0  0  0  0  0
    4.0118   10.8964    4.6639 C   0  0  0  0  0  0  0  0  0  0  0  0
    3.9740    9.6651    4.0978 N   0  0  0  0  0  0  0  0  0  0  0  0
    3.9570    9.4506    3.1002 H   0  0  0  0  0  0  0  0  0  0  0  0
    4.4099    6.2413    5.7060 C   0  0  0  0  0  0  0  0  0  0  0  0
    5.0733    6.2800    6.9488 C   0  0  0  0  0  0  0  0  0  0  0  0
    5.4342    5.0806    7.5492 C   0  0  0  0  0  0  0  0  0  0  0  0
    5.1571    3.8422    6.9256 C   0  0  0  0  0  0  0  0  0  0  0  0
    4.5313    3.7873    5.6866 C   0  0  0  0  0  0  0  0  0  0  0  0
    4.1609    4.9950    5.0686 C   0  0  0  0  0  0  0  0  0  0  0  0
    3.5439    5.2923    3.8051 C   0  0  0  0  0  0  0  0  0  0  0  0
    3.0881    4.4432    2.8139 C   0  0  0  0  0  0  0  0  0  0  0  0
    1.2678    4.8366   -3.8205 H   0  0  0  0  0  0  0  0  0  0  0  0
    2.5626    4.2498   -2.7463 H   0  0  0  0  0  0  0  0  0  0  0  0
    2.2952    5.9936   -2.9363 H   0  0  0  0  0  0  0  0  0  0  0  0
    0.2691    4.0291   -1.6759 H   0  0  0  0  0  0  0  0  0  0  0  0
    0.0129    5.7570   -1.8586 H   0  0  0  0  0  0  0  0  0  0  0  0
    0.9211    2.3927    0.0596 H   0  0  0  0  0  0  0  0  0  0  0  0
    2.2771    2.2030    1.1891 H   0  0  0  0  0  0  0  0  0  0  0  0
    2.5856    2.4606   -0.5395 H   0  0  0  0  0  0  0  0  0  0  0  0
    0.7367    8.3938    0.5337 H   0  0  0  0  0  0  0  0  0  0  0  0
    0.7355    7.7860   -1.1499 H   0  0  0  0  0  0  0  0  0  0  0  0
    2.2280    8.4329   -0.4129 H   0  0  0  0  0  0  0  0  0  0  0  0
    3.9562    8.8924    7.2903 H   0  0  0  0  0  0  0  0  0  0  0  0
    4.0366   11.5530    6.7793 H   0  0  0  0  0  0  0  0  0  0  0  0
    4.0322   11.7954    4.0514 H   0  0  0  0  0  0  0  0  0  0  0  0
    5.3201    7.2284    7.4259 H   0  0  0  0  0  0  0  0  0  0  0  0
    5.9491    5.0921    8.5127 H   0  0  0  0  0  0  0  0  0  0  0  0
    5.4533    2.9150    7.4228 H   0  0  0  0  0  0  0  0  0  0  0  0
    4.3390    2.8259    5.2043 H   0  0  0  0  0  0  0  0  0  0  0  0
    3.2045    3.3677    2.9554 H   0  0  0  0  0  0  0  0  0  0  0  0
  1  2  1  0
  1 29  1  0
  1 30  1  0
  1 31  1  0
  2  3  1  0
  2 32  1  0
  2 33  1  0
  3  4  1  0
  3  8  2  0
  4  5  1  0
  4  6  2  0
  5 34  1  0
  5 35  1  0
  5 36  1  0
  6  7  1  0
  6 28  1  0
  7  8  1  0
  7 10  1  0
  8  9  1  0
  9 37  1  0
  9 38  1  0
  9 39  1  0
 10 11  1  1
 10 12  1  0
 10 13  1  0
 13 14  1  0
 13 27  1  0
 14 15  2  0
 14 21  1  0
 15 16  1  0
 15 19  1  0
 16 17  2  0
 16 40  1  0
 17 18  1  0
 17 41  1  0
 18 19  2  0
 18 42  1  0
 19 20  1  0
 21 22  2  0
 21 26  1  0
 22 23  1  0
 22 43  1  0
 23 24  2  0
 23 44  1  0
 24 25  1  0
 24 45  1  0
 25 26  2  0
 25 46  1  0
 26 27  1  0
 27 28  2  0
 28 47  1  0
M  CHG  2  10  -1  19   1
M  END

