
     RDKit          3D

 49 52  0  0  0  0  0  0  0  0999 V2000
    1.5341   -0.9153    0.3954 O   0  0  0  0  0  0  0  0  0  0  0  0
    2.4925   -0.3028   -0.0706 C   0  0  0  0  0  0  0  0  0  0  0  0
    2.7590    1.0556    0.5065 C   0  0  0  0  0  0  0  0  0  0  0  0
    2.0383    1.5434    1.5876 C   0  0  0  0  0  0  0  0  0  0  0  0
    2.5212    2.7891    1.7802 N   0  0  0  0  0  0  0  0  0  0  0  0
    2.1815    3.7669    2.8072 C   0  0  0  0  0  0  0  0  0  0  0  0
    2.8447    3.4972    4.1455 C   0  0  0  0  0  0  0  0  0  0  0  0
    4.2382    3.3483    4.2311 C   0  0  0  0  0  0  0  0  0  0  0  0
    4.8438    3.1225    5.4688 C   0  0  0  0  0  0  0  0  0  0  0  0
    4.0770    3.0461    6.6362 C   0  0  0  0  0  0  0  0  0  0  0  0
    2.6976    3.1978    6.5341 C   0  0  0  0  0  0  0  0  0  0  0  0
    1.9454    3.1253    7.6409 F   0  0  0  0  0  0  0  0  0  0  0  0
    2.0696    3.4186    5.3087 C   0  0  0  0  0  0  0  0  0  0  0  0
    3.4875    3.0704    0.8799 N   0  0  0  0  0  0  0  0  0  0  0  0
    3.6281    2.0350    0.1175 N   0  0  0  0  0  0  0  0  0  0  0  0
    3.2800   -0.8233   -1.0632 N   0  0  0  0  0  0  0  0  0  0  0  0
    2.9057   -2.1198   -1.6296 C   0  0  0  0  0  0  0  0  0  0  0  0
    4.0719   -3.1074   -1.5595 C   0  0  0  0  0  0  0  0  0  0  0  0
    5.3334   -2.5092   -2.1911 C   0  0  0  0  0  0  0  0  0  0  0  0
    5.7087   -1.1325   -1.5979 C   0  0  1  0  0  0  0  0  0  0  0  0
    6.1882   -1.2757   -0.1318 C   0  0  0  0  0  0  0  0  0  0  0  0
    6.9850   -0.0997    0.3745 C   0  0  0  0  0  0  0  0  0  0  0  0
    7.4933    0.8554   -0.4139 C   0  0  0  0  0  0  0  0  0  0  0  0
    7.3286    0.8512   -1.9094 C   0  0  0  0  0  0  0  0  0  0  0  0
    6.8492   -0.5093   -2.4332 C   0  0  0  0  0  0  0  0  0  0  0  0
    4.4594   -0.2122   -1.6732 C   0  0  0  0  0  0  0  0  0  0  0  0
    1.2522    1.0902    2.1832 H   0  0  0  0  0  0  0  0  0  0  0  0
    1.0878    3.7915    2.9151 H   0  0  0  0  0  0  0  0  0  0  0  0
    2.5040    4.7375    2.4024 H   0  0  0  0  0  0  0  0  0  0  0  0
    4.8438    3.4062    3.3235 H   0  0  0  0  0  0  0  0  0  0  0  0
    5.9286    3.0063    5.5298 H   0  0  0  0  0  0  0  0  0  0  0  0
    4.5279    2.8712    7.6148 H   0  0  0  0  0  0  0  0  0  0  0  0
    0.9827    3.5263    5.2837 H   0  0  0  0  0  0  0  0  0  0  0  0
    2.6146   -1.9670   -2.6876 H   0  0  0  0  0  0  0  0  0  0  0  0
    2.0274   -2.4822   -1.0837 H   0  0  0  0  0  0  0  0  0  0  0  0
    3.7891   -4.0385   -2.0787 H   0  0  0  0  0  0  0  0  0  0  0  0
    4.2561   -3.3787   -0.5065 H   0  0  0  0  0  0  0  0  0  0  0  0
    5.1611   -2.3836   -3.2762 H   0  0  0  0  0  0  0  0  0  0  0  0
    6.1856   -3.2034   -2.0921 H   0  0  0  0  0  0  0  0  0  0  0  0
    6.8004   -2.1938   -0.0363 H   0  0  0  0  0  0  0  0  0  0  0  0
    5.3250   -1.4407    0.5349 H   0  0  0  0  0  0  0  0  0  0  0  0
    7.1428   -0.0429    1.4575 H   0  0  0  0  0  0  0  0  0  0  0  0
    8.0426    1.6912    0.0331 H   0  0  0  0  0  0  0  0  0  0  0  0
    8.2846    1.1196   -2.3931 H   0  0  0  0  0  0  0  0  0  0  0  0
    6.6265    1.6558   -2.2013 H   0  0  0  0  0  0  0  0  0  0  0  0
    7.6978   -1.2163   -2.4249 H   0  0  0  0  0  0  0  0  0  0  0  0
    6.5325   -0.4202   -3.4867 H   0  0  0  0  0  0  0  0  0  0  0  0
    4.2371   -0.0188   -2.7412 H   0  0  0  0  0  0  0  0  0  0  0  0
    4.6514    0.7547   -1.2004 H   0  0  0  0  0  0  0  0  0  0  0  0
  1  2  2  0
  2  3  1  0
  2 16  1  0
  3  4  2  0
  3 15  1  0
  4  5  1  0
  4 27  1  0
  5  6  1  0
  5 14  1  0
  6  7  1  0
  6 28  1  0
  6 29  1  0
  7  8  2  0
  7 13  1  0
  8  9  1  0
  8 30  1  0
  9 10  2  0
  9 31  1  0
 10 11  1  0
 10 32  1  0
 11 12  1  0
 11 13  2  0
 13 33  1  0
 14 15  2  0
 16 17  1  0
 16 26  1  0
 17 18  1  0
 17 34  1  0
 17 35  1  0
 18 19  1  0
 18 36  1  0
 18 37  1  0
 20 19  1  6
 19 38  1  0
 19 39  1  0
 20 21  1  0
 20 25  1  0
 20 26  1  0
 21 22  1  0
 21 40  1  0
 21 41  1  0
 22 23  2  0
 22 42  1  0
 23 24  1  0
 23 43  1  0
 24 25  1  0
 24 44  1  0
 24 45  1  0
 25 46  1  0
 25 47  1  0
 26 48  1  0
 26 49  1  0
M  END

