
     RDKit          3D

 65 67  0  0  0  0  0  0  0  0999 V2000
   10.6138   -7.3464   10.9338 C   0  0  0  0  0  0  0  0  0  0  0  0
    9.1955   -7.1925   10.3598 C   0  0  1  0  0  0  0  0  0  0  0  0
    8.3051   -6.3416   11.2686 C   0  0  0  0  0  0  0  0  0  0  0  0
    9.1843   -6.6226    9.0201 N   0  0  0  0  0  0  0  0  0  0  0  0
    9.5637   -7.2777    7.8658 C   0  0  0  0  0  0  0  0  0  0  0  0
    9.7578   -8.6715    7.8046 C   0  0  0  0  0  0  0  0  0  0  0  0
   10.0859   -9.3022    6.6013 C   0  0  0  0  0  0  0  0  0  0  0  0
   10.2502   -8.5602    5.4154 C   0  0  0  0  0  0  0  0  0  0  0  0
   10.0748   -7.1574    5.4646 C   0  0  0  0  0  0  0  0  0  0  0  0
   10.2040   -6.2187    4.2852 C   0  0  0  0  0  0  0  0  0  0  0  0
   10.2109   -4.9959    4.4606 O   0  0  0  0  0  0  0  0  0  0  0  0
   10.2860   -6.7597    3.0485 N   0  0  0  0  0  0  0  0  0  0  0  0
   10.3911   -5.9125    1.8710 C   0  0  0  0  0  0  0  0  0  0  0  0
    9.0884   -5.1385    1.5337 C   0  0  2  0  0  0  0  0  0  0  0  0
    8.4244   -5.2140    2.4143 H   0  0  0  0  0  0  0  0  0  0  0  0
    8.3304   -5.7162    0.3284 C   0  0  0  0  0  0  0  0  0  0  0  0
    7.0576   -4.9031    0.0299 C   0  0  0  0  0  0  0  0  0  0  0  0
    7.3054   -3.4757   -0.1442 N   0  0  0  0  0  0  0  0  0  0  0  0
    7.7689   -3.0714   -1.4675 C   0  0  0  0  0  0  0  0  0  0  0  0
    6.6448   -3.0164   -2.5104 C   0  0  0  0  0  0  0  0  0  0  0  0
    5.5390   -2.0173   -2.1747 C   0  0  0  0  0  0  0  0  0  0  0  0
    4.4704   -2.0451   -3.1002 O   0  0  0  0  0  0  0  0  0  0  0  0
    8.0274   -2.9214    0.9943 C   0  0  0  0  0  0  0  0  0  0  0  0
    9.3522   -3.6377    1.3262 C   0  0  1  0  0  0  0  0  0  0  0  0
   10.0316   -3.5274    0.4527 H   0  0  0  0  0  0  0  0  0  0  0  0
    9.9638   -3.0245    2.4356 O   0  0  0  0  0  0  0  0  0  0  0  0
    9.7426   -6.5452    6.6755 C   0  0  0  0  0  0  0  0  0  0  0  0
   10.5020   -9.1939    4.2137 O   0  0  0  0  0  0  0  0  0  0  0  0
   11.7156   -9.9393    4.0898 C   0  0  0  0  0  0  0  0  0  0  0  0
   11.6148  -11.3151    4.7311 C   0  0  0  0  0  0  0  0  0  0  0  0
   11.4155  -11.2663    6.2408 C   0  0  0  0  0  0  0  0  0  0  0  0
   10.1832  -10.6684    6.6245 O   0  0  0  0  0  0  0  0  0  0  0  0
   10.5910   -7.8378   11.9202 H   0  0  0  0  0  0  0  0  0  0  0  0
   11.0907   -6.3594   11.0554 H   0  0  0  0  0  0  0  0  0  0  0  0
   11.2506   -7.9489   10.2682 H   0  0  0  0  0  0  0  0  0  0  0  0
    8.7379   -8.1949   10.2926 H   0  0  0  0  0  0  0  0  0  0  0  0
    8.7051   -5.3166   11.3611 H   0  0  0  0  0  0  0  0  0  0  0  0
    8.2567   -6.7687   12.2817 H   0  0  0  0  0  0  0  0  0  0  0  0
    7.2824   -6.2752   10.8675 H   0  0  0  0  0  0  0  0  0  0  0  0
    9.2302   -5.6108    8.9752 H   0  0  0  0  0  0  0  0  0  0  0  0
    9.6443   -9.3124    8.6783 H   0  0  0  0  0  0  0  0  0  0  0  0
   10.2481   -7.7725    2.9790 H   0  0  0  0  0  0  0  0  0  0  0  0
   10.6865   -6.5553    1.0278 H   0  0  0  0  0  0  0  0  0  0  0  0
   11.2065   -5.1907    2.0360 H   0  0  0  0  0  0  0  0  0  0  0  0
    8.0641   -6.7715    0.5175 H   0  0  0  0  0  0  0  0  0  0  0  0
    8.9928   -5.7148   -0.5569 H   0  0  0  0  0  0  0  0  0  0  0  0
    6.3511   -5.0315    0.8712 H   0  0  0  0  0  0  0  0  0  0  0  0
    6.5493   -5.2986   -0.8632 H   0  0  0  0  0  0  0  0  0  0  0  0
    8.5858   -3.7152   -1.8615 H   0  0  0  0  0  0  0  0  0  0  0  0
    8.2069   -2.0637   -1.3700 H   0  0  0  0  0  0  0  0  0  0  0  0
    6.1832   -4.0102   -2.6428 H   0  0  0  0  0  0  0  0  0  0  0  0
    7.0938   -2.7567   -3.4882 H   0  0  0  0  0  0  0  0  0  0  0  0
    5.9736   -0.9988   -2.0816 H   0  0  0  0  0  0  0  0  0  0  0  0
    5.1124   -2.2665   -1.1920 H   0  0  0  0  0  0  0  0  0  0  0  0
    4.8221   -1.8107   -3.9690 H   0  0  0  0  0  0  0  0  0  0  0  0
    7.3875   -2.9869    1.8947 H   0  0  0  0  0  0  0  0  0  0  0  0
    8.2258   -1.8515    0.8267 H   0  0  0  0  0  0  0  0  0  0  0  0
    9.9994   -3.6485    3.1884 H   0  0  0  0  0  0  0  0  0  0  0  0
    9.6204   -5.4604    6.6650 H   0  0  0  0  0  0  0  0  0  0  0  0
   12.5520   -9.3598    4.5239 H   0  0  0  0  0  0  0  0  0  0  0  0
   11.8944  -10.0351    3.0077 H   0  0  0  0  0  0  0  0  0  0  0  0
   12.5397  -11.8779    4.5119 H   0  0  0  0  0  0  0  0  0  0  0  0
   10.7772  -11.8662    4.2718 H   0  0  0  0  0  0  0  0  0  0  0  0
   12.2570  -10.7343    6.7257 H   0  0  0  0  0  0  0  0  0  0  0  0
   11.3844  -12.2877    6.6495 H   0  0  0  0  0  0  0  0  0  0  0  0
  1  2  1  0
  1 33  1  0
  1 34  1  0
  1 35  1  0
  2  3  1  0
  2  4  1  0
  2 36  1  6
  3 37  1  0
  3 38  1  0
  3 39  1  0
  4  5  1  0
  4 40  1  0
  5  6  2  0
  5 27  1  0
  6  7  1  0
  6 41  1  0
  7  8  2  0
  7 32  1  0
  8  9  1  0
  8 28  1  0
  9 10  1  0
  9 27  2  0
 10 11  2  0
 10 12  1  0
 12 13  1  0
 12 42  1  0
 13 14  1  0
 13 43  1  0
 13 44  1  0
 14 15  1  1
 14 16  1  0
 14 24  1  0
 16 17  1  0
 16 45  1  0
 16 46  1  0
 17 18  1  0
 17 47  1  0
 17 48  1  0
 18 19  1  0
 18 23  1  0
 19 20  1  0
 19 49  1  0
 19 50  1  0
 20 21  1  0
 20 51  1  0
 20 52  1  0
 21 22  1  0
 21 53  1  0
 21 54  1  0
 22 55  1  0
 23 24  1  0
 23 56  1  0
 23 57  1  0
 24 25  1  6
 24 26  1  0
 26 58  1  0
 27 59  1  0
 28 29  1  0
 29 30  1  0
 29 60  1  0
 29 61  1  0
 30 31  1  0
 30 62  1  0
 30 63  1  0
 31 32  1  0
 31 64  1  0
 31 65  1  0
M  END

