
     RDKit          3D

 32 33  0  0  0  0  0  0  0  0999 V2000
    7.4749    1.8371   -1.4044 N   0  0  0  0  0  0  0  0  0  0  0  0
    6.7932    1.4726   -0.2937 C   0  0  0  0  0  0  0  0  0  0  0  0
    7.3354    1.0478    0.7246 O   0  0  0  0  0  0  0  0  0  0  0  0
    5.2721    1.6036   -0.3577 C   0  0  0  0  0  0  0  0  0  0  0  0
    4.5888    0.2339   -0.4824 C   0  0  2  0  0  0  0  0  0  0  0  0
    3.5003    0.3556   -0.3323 H   0  0  0  0  0  0  0  0  0  0  0  0
    5.0840   -0.6588    0.5632 N   0  0  0  0  0  0  0  0  0  0  0  0
    4.4280   -1.7763    0.9482 C   0  0  0  0  0  0  0  0  0  0  0  0
    3.4573   -2.2033    0.3013 O   0  0  0  0  0  0  0  0  0  0  0  0
    4.9160   -2.4768    2.1744 C   0  0  0  0  0  0  0  0  0  0  0  0
    4.4003   -3.7574    2.4162 C   0  0  0  0  0  0  0  0  0  0  0  0
    4.7944   -4.4986    3.5407 C   0  0  0  0  0  0  0  0  0  0  0  0
    4.1656   -6.0883    3.8520 Cl  0  0  0  0  0  0  0  0  0  0  0  0
    5.7104   -3.9184    4.4081 C   0  0  0  0  0  0  0  0  0  0  0  0
    6.2164   -2.6365    4.1650 C   0  0  0  0  0  0  0  0  0  0  0  0
    5.8435   -1.8851    3.0690 C   0  0  0  0  0  0  0  0  0  0  0  0
    7.0757   -2.3022    5.1709 O   0  0  0  0  0  0  0  0  0  0  0  0
    7.1381   -3.4205    6.0512 C   0  0  0  0  0  0  0  0  0  0  0  0
    6.2369   -4.4141    5.5532 O   0  0  0  0  0  0  0  0  0  0  0  0
    4.7524   -0.3442   -1.9145 C   0  0  0  0  0  0  0  0  0  0  0  0
    5.3277    0.2630   -2.7899 O   0  0  0  0  0  0  0  0  0  0  0  0
    4.1823   -1.5180   -2.1153 O   0  0  0  0  0  0  0  0  0  0  0  0
    8.4691    1.6307   -1.4189 H   0  0  0  0  0  0  0  0  0  0  0  0
    6.9770    1.8290   -2.2905 H   0  0  0  0  0  0  0  0  0  0  0  0
    4.9492    2.2371   -1.1928 H   0  0  0  0  0  0  0  0  0  0  0  0
    4.9558    2.0726    0.5856 H   0  0  0  0  0  0  0  0  0  0  0  0
    5.9653   -0.3752    0.9959 H   0  0  0  0  0  0  0  0  0  0  0  0
    3.6809   -4.1752    1.7122 H   0  0  0  0  0  0  0  0  0  0  0  0
    6.2486   -0.8819    2.9308 H   0  0  0  0  0  0  0  0  0  0  0  0
    6.8273   -3.1179    7.0662 H   0  0  0  0  0  0  0  0  0  0  0  0
    8.1642   -3.8297    6.0680 H   0  0  0  0  0  0  0  0  0  0  0  0
    3.7560   -1.8520   -1.2716 H   0  0  0  0  0  0  0  0  0  0  0  0
  1  2  1  0
  1 23  1  0
  1 24  1  0
  2  3  2  0
  2  4  1  0
  4  5  1  0
  4 25  1  0
  4 26  1  0
  5  6  1  1
  5  7  1  0
  5 20  1  0
  7  8  1  0
  7 27  1  0
  8  9  2  0
  8 10  1  0
 10 11  2  0
 10 16  1  0
 11 12  1  0
 11 28  1  0
 12 13  1  0
 12 14  2  0
 14 15  1  0
 14 19  1  0
 15 16  2  0
 15 17  1  0
 16 29  1  0
 17 18  1  0
 18 19  1  0
 18 30  1  0
 18 31  1  0
 20 21  2  0
 20 22  1  0
 22 32  1  0
M  END

