
     RDKit          3D

 64 71  0  0  0  0  0  0  0  0999 V2000
   -1.4360   -0.4133   -0.6304 C   0  0  0  0  0  0  0  0  0  0  0  0
   -0.9344    0.8884   -0.7237 C   0  0  0  0  0  0  0  0  0  0  0  0
    0.4418    1.1158   -0.6702 C   0  0  0  0  0  0  0  0  0  0  0  0
    1.3429    0.0450   -0.5263 C   0  0  0  0  0  0  0  0  0  0  0  0
    2.8160    0.2570   -0.4638 C   0  0  0  0  0  0  0  0  0  0  0  0
    3.3843    1.5072   -0.1742 C   0  0  0  0  0  0  0  0  0  0  0  0
    4.7838    1.6042   -0.1390 C   0  0  0  0  0  0  0  0  0  0  0  0
    5.4880    2.8829    0.1585 C   0  0  0  0  0  0  0  0  0  0  0  0
    4.8340    3.9692    0.7681 C   0  0  0  0  0  0  0  0  0  0  0  0
    5.5179    5.1567    1.0341 C   0  0  0  0  0  0  0  0  0  0  0  0
    6.8678    5.2823    0.6925 C   0  0  0  0  0  0  0  0  0  0  0  0
    7.5303    4.2081    0.0895 C   0  0  0  0  0  0  0  0  0  0  0  0
    6.8491    3.0189   -0.1702 C   0  0  0  0  0  0  0  0  0  0  0  0
    5.5417    0.5273   -0.3886 N   0  0  0  0  0  0  0  0  0  0  0  0
    4.9276   -0.6342   -0.6448 C   0  0  0  0  0  0  0  0  0  0  0  0
    5.7848   -1.8244   -0.9043 C   0  0  0  0  0  0  0  0  0  0  0  0
    7.1804   -1.7475   -0.7593 C   0  0  0  0  0  0  0  0  0  0  0  0
    7.9822   -2.8600   -1.0106 C   0  0  0  0  0  0  0  0  0  0  0  0
    7.4143   -4.0823   -1.4123 C   0  0  0  0  0  0  0  0  0  0  0  0
    8.2489   -5.3006   -1.6247 C   0  0  0  0  0  0  0  0  0  0  0  0
    7.8445   -6.3946   -1.0121 N   0  0  0  0  0  0  0  0  0  0  0  0
    8.5752   -7.5522   -1.0581 C   0  0  0  0  0  0  0  0  0  0  0  0
    8.0827   -8.6907   -0.3665 C   0  0  0  0  0  0  0  0  0  0  0  0
    8.7955   -9.8756   -0.3640 C   0  0  0  0  0  0  0  0  0  0  0  0
   10.0291   -9.9752   -1.0498 C   0  0  0  0  0  0  0  0  0  0  0  0
   10.5360   -8.8853   -1.7361 C   0  0  0  0  0  0  0  0  0  0  0  0
    9.8209   -7.6668   -1.7520 C   0  0  0  0  0  0  0  0  0  0  0  0
   10.2430   -6.5005   -2.4625 C   0  0  0  0  0  0  0  0  0  0  0  0
   11.3314   -6.3441   -3.2589 N   0  0  0  0  0  0  0  0  0  0  0  0
   11.2329   -5.1153   -3.7459 C   0  0  0  0  0  0  0  0  0  0  0  0
   12.0880   -4.4360   -4.6524 C   0  0  0  0  0  0  0  0  0  0  0  0
   11.7654   -3.1685   -5.0739 C   0  0  0  0  0  0  0  0  0  0  0  0
   10.5736   -2.5401   -4.6094 C   0  0  0  0  0  0  0  0  0  0  0  0
    9.7510   -3.1839   -3.7238 C   0  0  0  0  0  0  0  0  0  0  0  0
   10.0813   -4.4389   -3.2734 N   0  0  0  0  0  0  0  0  0  0  0  0
    9.4436   -5.3359   -2.4120 C   0  0  0  0  0  0  0  0  0  0  0  0
    6.0163   -4.1638   -1.5305 C   0  0  0  0  0  0  0  0  0  0  0  0
    5.2149   -3.0510   -1.2893 C   0  0  0  0  0  0  0  0  0  0  0  0
    3.6011   -0.8062   -0.6854 N   0  0  0  0  0  0  0  0  0  0  0  0
    0.8257   -1.2608   -0.4444 C   0  0  0  0  0  0  0  0  0  0  0  0
   -0.5500   -1.4867   -0.4907 C   0  0  0  0  0  0  0  0  0  0  0  0
   -2.5138   -0.5906   -0.6699 H   0  0  0  0  0  0  0  0  0  0  0  0
   -1.6183    1.7324   -0.8445 H   0  0  0  0  0  0  0  0  0  0  0  0
    0.8117    2.1385   -0.7653 H   0  0  0  0  0  0  0  0  0  0  0  0
    2.7580    2.3753    0.0177 H   0  0  0  0  0  0  0  0  0  0  0  0
    3.7859    3.8870    1.0623 H   0  0  0  0  0  0  0  0  0  0  0  0
    4.9947    5.9863    1.5162 H   0  0  0  0  0  0  0  0  0  0  0  0
    7.4023    6.2130    0.8992 H   0  0  0  0  0  0  0  0  0  0  0  0
    8.5860    4.2979   -0.1795 H   0  0  0  0  0  0  0  0  0  0  0  0
    7.3570    2.1743   -0.6367 H   0  0  0  0  0  0  0  0  0  0  0  0
    7.6232   -0.8063   -0.4325 H   0  0  0  0  0  0  0  0  0  0  0  0
    9.0628   -2.7864   -0.8624 H   0  0  0  0  0  0  0  0  0  0  0  0
    7.1321   -8.5896    0.1609 H   0  0  0  0  0  0  0  0  0  0  0  0
    8.4057  -10.7437    0.1740 H   0  0  0  0  0  0  0  0  0  0  0  0
   10.5809  -10.9186   -1.0372 H   0  0  0  0  0  0  0  0  0  0  0  0
   11.4825   -8.9409   -2.2778 H   0  0  0  0  0  0  0  0  0  0  0  0
   12.9791   -4.9628   -4.9950 H   0  0  0  0  0  0  0  0  0  0  0  0
   12.4152   -2.6410   -5.7757 H   0  0  0  0  0  0  0  0  0  0  0  0
   10.2960   -1.5437   -4.9558 H   0  0  0  0  0  0  0  0  0  0  0  0
    8.8248   -2.7548   -3.3479 H   0  0  0  0  0  0  0  0  0  0  0  0
    5.5678   -5.1187   -1.8106 H   0  0  0  0  0  0  0  0  0  0  0  0
    4.1317   -3.1141   -1.3962 H   0  0  0  0  0  0  0  0  0  0  0  0
    1.5248   -2.0908   -0.3381 H   0  0  0  0  0  0  0  0  0  0  0  0
   -0.9341   -2.5073   -0.4175 H   0  0  0  0  0  0  0  0  0  0  0  0
  1  2  2  0
  1 41  1  0
  1 42  1  0
  2  3  1  0
  2 43  1  0
  3  4  2  0
  3 44  1  0
  4  5  1  0
  4 40  1  0
  5  6  2  0
  5 39  1  0
  6  7  1  0
  6 45  1  0
  7  8  1  0
  7 14  2  0
  8  9  2  0
  8 13  1  0
  9 10  1  0
  9 46  1  0
 10 11  2  0
 10 47  1  0
 11 12  1  0
 11 48  1  0
 12 13  2  0
 12 49  1  0
 13 50  1  0
 14 15  1  0
 15 16  1  0
 15 39  2  0
 16 17  2  0
 16 38  1  0
 17 18  1  0
 17 51  1  0
 18 19  2  0
 18 52  1  0
 19 20  1  0
 19 37  1  0
 20 21  2  0
 20 36  1  0
 21 22  1  0
 22 23  2  0
 22 27  1  0
 23 24  1  0
 23 53  1  0
 24 25  2  0
 24 54  1  0
 25 26  1  0
 25 55  1  0
 26 27  2  0
 26 56  1  0
 27 28  1  0
 28 29  1  0
 28 36  2  0
 29 30  2  0
 30 31  1  0
 30 35  1  0
 31 32  2  0
 31 57  1  0
 32 33  1  0
 32 58  1  0
 33 34  2  0
 33 59  1  0
 34 35  1  0
 34 60  1  0
 35 36  1  0
 37 38  2  0
 37 61  1  0
 38 62  1  0
 40 41  2  0
 40 63  1  0
 41 64  1  0
M  END

