
     RDKit          3D

 30 31  0  0  0  0  0  0  0  0999 V2000
    2.6333   -1.1857   -0.2131 C   0  0  0  0  0  0  0  0  0  0  0  0
    2.0361    0.0727   -0.0215 O   0  0  0  0  0  0  0  0  0  0  0  0
    2.8982    1.1534   -0.2267 C   0  0  1  0  0  0  0  0  0  0  0  0
    2.2373    2.5268   -0.0255 C   0  0  0  0  0  0  0  0  0  0  0  0
    3.5081    3.0139    0.7186 C   0  0  2  0  0  0  0  0  0  0  0  0
    4.3695    3.7924   -0.1435 N   0  0  0  0  0  0  0  0  0  0  0  0
    5.5734    4.3299    0.2388 C   0  0  0  0  0  0  0  0  0  0  0  0
    6.1657    4.0599    1.4928 C   0  0  0  0  0  0  0  0  0  0  0  0
    7.3930    4.6498    1.7872 C   0  0  0  0  0  0  0  0  0  0  0  0
    8.0657    5.4618    0.9685 N   0  0  0  0  0  0  0  0  0  0  0  0
    7.5137    5.7274   -0.2270 C   0  0  0  0  0  0  0  0  0  0  0  0
    8.2895    6.6352   -1.1520 C   0  0  0  0  0  0  0  0  0  0  0  0
    6.2854    5.1903   -0.6235 C   0  0  0  0  0  0  0  0  0  0  0  0
    3.9273    1.5170    0.8800 C   0  0  0  0  0  0  0  0  0  0  0  0
    1.8667   -1.9519   -0.0272 H   0  0  0  0  0  0  0  0  0  0  0  0
    3.4780   -1.3598    0.4824 H   0  0  0  0  0  0  0  0  0  0  0  0
    3.0128   -1.3088   -1.2478 H   0  0  0  0  0  0  0  0  0  0  0  0
    3.3923    1.0737   -1.2162 H   0  0  0  0  0  0  0  0  0  0  0  0
    1.3831    2.4319    0.6597 H   0  0  0  0  0  0  0  0  0  0  0  0
    1.9188    3.0914   -0.9169 H   0  0  0  0  0  0  0  0  0  0  0  0
    3.3242    3.5463    1.6692 H   0  0  0  0  0  0  0  0  0  0  0  0
    3.9651    4.1515   -0.9993 H   0  0  0  0  0  0  0  0  0  0  0  0
    5.6854    3.4077    2.2228 H   0  0  0  0  0  0  0  0  0  0  0  0
    7.8601    4.4484    2.7598 H   0  0  0  0  0  0  0  0  0  0  0  0
    9.1196    7.0944   -0.5992 H   0  0  0  0  0  0  0  0  0  0  0  0
    7.6520    7.4290   -1.5737 H   0  0  0  0  0  0  0  0  0  0  0  0
    8.7112    6.0690   -2.0004 H   0  0  0  0  0  0  0  0  0  0  0  0
    5.8735    5.4377   -1.6069 H   0  0  0  0  0  0  0  0  0  0  0  0
    3.6006    1.1138    1.8511 H   0  0  0  0  0  0  0  0  0  0  0  0
    4.9873    1.2772    0.7137 H   0  0  0  0  0  0  0  0  0  0  0  0
  1  2  1  0
  1 15  1  0
  1 16  1  0
  1 17  1  0
  2  3  1  0
  3  4  1  0
  3 14  1  0
  3 18  1  6
  4  5  1  0
  4 19  1  0
  4 20  1  0
  5  6  1  0
  5 14  1  0
  5 21  1  1
  6  7  1  0
  6 22  1  0
  7  8  2  0
  7 13  1  0
  8  9  1  0
  8 23  1  0
  9 10  2  0
  9 24  1  0
 10 11  1  0
 11 12  1  0
 11 13  2  0
 12 25  1  0
 12 26  1  0
 12 27  1  0
 13 28  1  0
 14 29  1  0
 14 30  1  0
M  END

