
     RDKit          3D

 31 32  0  0  0  0  0  0  0  0999 V2000
    1.0213   -0.0019    0.0049 O   0  0  0  0  0  0  0  0  0  0  0  0
    2.2242   -0.0744    0.1249 C   0  0  0  0  0  0  0  0  0  0  0  0
    2.9274    0.5540    1.1335 N   0  0  0  0  0  0  0  0  0  0  0  0
    2.2797    1.2537    2.0826 N   0  0  0  0  0  0  0  0  0  0  0  0
    2.9806    1.8140    2.9992 C   0  0  0  0  0  0  0  0  0  0  0  0
    2.3463    2.5906    4.0671 C   0  0  0  0  0  0  0  0  0  0  0  0
    0.9485    2.7557    4.1387 C   0  0  0  0  0  0  0  0  0  0  0  0
    0.3849    3.5018    5.1690 C   0  0  0  0  0  0  0  0  0  0  0  0
   -1.5075    3.7156    5.2511 Br  0  0  0  0  0  0  0  0  0  0  0  0
    1.1859    4.1010    6.1515 C   0  0  0  0  0  0  0  0  0  0  0  0
    2.5711    3.9454    6.0929 C   0  0  0  0  0  0  0  0  0  0  0  0
    3.1300    3.1986    5.0604 C   0  0  0  0  0  0  0  0  0  0  0  0
    4.4655    3.0556    5.0138 F   0  0  0  0  0  0  0  0  0  0  0  0
    3.0552   -0.8118   -0.9161 C   0  0  0  0  0  0  0  0  0  0  0  0
    2.4636   -0.8489   -2.1940 C   0  0  0  0  0  0  0  0  0  0  0  0
    3.0628   -1.4915   -3.2713 C   0  0  0  0  0  0  0  0  0  0  0  0
    4.2815   -2.1332   -3.0582 C   0  0  0  0  0  0  0  0  0  0  0  0
    4.9449   -2.8298   -4.1862 N   0  0  0  0  0  0  0  0  0  0  0  0
    4.3829   -2.7994   -5.2669 O   0  0  0  0  0  0  0  0  0  0  0  0
    6.0064   -3.3838   -3.9573 O   0  0  0  0  0  0  0  0  0  0  0  0
    4.8985   -2.1495   -1.8121 C   0  0  0  0  0  0  0  0  0  0  0  0
    4.2818   -1.4877   -0.7476 C   0  0  0  0  0  0  0  0  0  0  0  0
    5.1108   -1.5928    0.7991 Cl  0  0  0  0  0  0  0  0  0  0  0  0
    3.9401    0.4330    1.1950 H   0  0  0  0  0  0  0  0  0  0  0  0
    4.0808    1.7370    3.0224 H   0  0  0  0  0  0  0  0  0  0  0  0
    0.3313    2.2868    3.3714 H   0  0  0  0  0  0  0  0  0  0  0  0
    0.7306    4.6832    6.9539 H   0  0  0  0  0  0  0  0  0  0  0  0
    3.2270    4.3968    6.8394 H   0  0  0  0  0  0  0  0  0  0  0  0
    1.4974   -0.3552   -2.3085 H   0  0  0  0  0  0  0  0  0  0  0  0
    2.6070   -1.5092   -4.2605 H   0  0  0  0  0  0  0  0  0  0  0  0
    5.8418   -2.6768   -1.6801 H   0  0  0  0  0  0  0  0  0  0  0  0
  1  2  2  0
  2  3  1  0
  2 14  1  0
  3  4  1  0
  3 24  1  0
  4  5  2  0
  5  6  1  0
  5 25  1  0
  6  7  2  0
  6 12  1  0
  7  8  1  0
  7 26  1  0
  8  9  1  0
  8 10  2  0
 10 11  1  0
 10 27  1  0
 11 12  2  0
 11 28  1  0
 12 13  1  0
 14 15  2  0
 14 22  1  0
 15 16  1  0
 15 29  1  0
 16 17  2  0
 16 30  1  0
 17 18  1  0
 17 21  1  0
 18 19  2  0
 18 20  1  0
 21 22  2  0
 21 31  1  0
 22 23  1  0
M  CHG  2  18   1  20  -1
M  END

