
     RDKit          3D

 63 68  0  0  0  0  0  0  0  0999 V2000
    3.6930   -5.2598   -2.2073 F   0  0  0  0  0  0  0  0  0  0  0  0
    3.7894   -5.1688   -0.8714 C   0  0  1  0  0  0  0  0  0  0  0  0
    2.5626   -5.4091   -0.3633 F   0  0  0  0  0  0  0  0  0  0  0  0
    4.5836   -6.1702   -0.4545 F   0  0  0  0  0  0  0  0  0  0  0  0
    4.3085   -3.8233   -0.4243 C   0  0  0  0  0  0  0  0  0  0  0  0
    4.6581   -2.8363   -1.3503 C   0  0  0  0  0  0  0  0  0  0  0  0
    5.1320   -1.6021   -0.8943 C   0  0  0  0  0  0  0  0  0  0  0  0
    5.2337   -1.3464    0.4739 C   0  0  0  0  0  0  0  0  0  0  0  0
    4.8774   -2.3405    1.3984 C   0  0  0  0  0  0  0  0  0  0  0  0
    4.9809   -2.0828    2.7951 N   0  0  0  0  0  0  0  0  0  0  0  0
    6.1676   -1.8089    3.4472 C   0  0  0  0  0  0  0  0  0  0  0  0
    5.9040   -1.6701    4.7933 C   0  0  0  0  0  0  0  0  0  0  0  0
    4.5060   -1.8638    4.9707 C   0  0  0  0  0  0  0  0  0  0  0  0
    3.9507   -2.1197    3.7294 C   0  0  0  0  0  0  0  0  0  0  0  0
    2.5150   -2.3198    3.3400 C   0  0  1  0  0  0  0  0  0  0  0  0
    1.9298   -3.7813    3.4557 C   0  0  1  0  0  0  0  0  0  0  0  0
    2.6961   -4.7230    4.3756 C   0  0  0  0  0  0  0  0  0  0  0  0
    2.3557   -4.9024    5.7228 C   0  0  0  0  0  0  0  0  0  0  0  0
    3.1183   -5.7830    6.4933 C   0  0  0  0  0  0  0  0  0  0  0  0
    4.1878   -6.4515    5.8961 C   0  0  0  0  0  0  0  0  0  0  0  0
    4.4462   -6.2073    4.5438 C   0  0  0  0  0  0  0  0  0  0  0  0
    3.7187   -5.3709    3.8024 N   0  0  0  0  0  0  0  0  0  0  0  0
    0.5831   -3.4924    3.8968 N   0  0  0  0  0  0  0  0  0  0  0  0
    0.4147   -2.2444    4.4233 C   0  0  0  0  0  0  0  0  0  0  0  0
   -0.9731   -1.7363    5.1857 S   0  0  0  0  0  0  0  0  0  0  0  0
    1.5817   -1.5434    4.1849 N   0  0  0  0  0  0  0  0  0  0  0  0
    1.7332   -0.1399    4.3693 C   0  0  0  0  0  0  0  0  0  0  0  0
    2.1737    0.6726    3.3153 C   0  0  0  0  0  0  0  0  0  0  0  0
    2.3281    2.0478    3.4945 C   0  0  0  0  0  0  0  0  0  0  0  0
    2.0407    2.6276    4.7331 C   0  0  0  0  0  0  0  0  0  0  0  0
    2.2753    3.9744    4.8691 O   0  0  0  0  0  0  0  0  0  0  0  0
    1.4216    4.7959    5.5648 C   0  0  0  0  0  0  0  0  0  0  0  0
    1.9976    5.8904    6.2216 C   0  0  0  0  0  0  0  0  0  0  0  0
    1.1814    6.8041    6.8908 C   0  0  0  0  0  0  0  0  0  0  0  0
   -0.2064    6.6297    6.9151 C   0  0  0  0  0  0  0  0  0  0  0  0
   -0.7724    5.5344    6.2553 C   0  0  0  0  0  0  0  0  0  0  0  0
    0.0317    4.6157    5.5750 C   0  0  0  0  0  0  0  0  0  0  0  0
    1.6117    1.8228    5.7967 C   0  0  0  0  0  0  0  0  0  0  0  0
    1.4622    0.4492    5.6135 C   0  0  0  0  0  0  0  0  0  0  0  0
    4.4353   -3.5895    0.9501 C   0  0  0  0  0  0  0  0  0  0  0  0
    4.5600   -3.0322   -2.4187 H   0  0  0  0  0  0  0  0  0  0  0  0
    5.4086   -0.8274   -1.6130 H   0  0  0  0  0  0  0  0  0  0  0  0
    5.5765   -0.3756    0.8379 H   0  0  0  0  0  0  0  0  0  0  0  0
    7.1020   -1.7698    2.8922 H   0  0  0  0  0  0  0  0  0  0  0  0
    6.6369   -1.4509    5.5673 H   0  0  0  0  0  0  0  0  0  0  0  0
    3.9491   -1.7890    5.9018 H   0  0  0  0  0  0  0  0  0  0  0  0
    2.3901   -2.0199    2.2840 H   0  0  0  0  0  0  0  0  0  0  0  0
    1.9368   -4.2427    2.4568 H   0  0  0  0  0  0  0  0  0  0  0  0
    1.5108   -4.3647    6.1573 H   0  0  0  0  0  0  0  0  0  0  0  0
    2.8782   -5.9437    7.5475 H   0  0  0  0  0  0  0  0  0  0  0  0
    4.8095   -7.1503    6.4599 H   0  0  0  0  0  0  0  0  0  0  0  0
    5.2748   -6.7146    4.0368 H   0  0  0  0  0  0  0  0  0  0  0  0
   -0.1111   -4.2032    4.0903 H   0  0  0  0  0  0  0  0  0  0  0  0
    2.3924    0.2388    2.3382 H   0  0  0  0  0  0  0  0  0  0  0  0
    2.6692    2.6880    2.6789 H   0  0  0  0  0  0  0  0  0  0  0  0
    3.0827    6.0073    6.1913 H   0  0  0  0  0  0  0  0  0  0  0  0
    1.6359    7.6572    7.4013 H   0  0  0  0  0  0  0  0  0  0  0  0
   -0.8429    7.3435    7.4431 H   0  0  0  0  0  0  0  0  0  0  0  0
   -1.8562    5.3918    6.2613 H   0  0  0  0  0  0  0  0  0  0  0  0
   -0.4149    3.7673    5.0536 H   0  0  0  0  0  0  0  0  0  0  0  0
    1.4043    2.2695    6.7706 H   0  0  0  0  0  0  0  0  0  0  0  0
    1.1277   -0.1758    6.4403 H   0  0  0  0  0  0  0  0  0  0  0  0
    4.2093   -4.3710    1.6826 H   0  0  0  0  0  0  0  0  0  0  0  0
  2  1  1  6
  2  3  1  0
  2  4  1  0
  2  5  1  0
  5  6  2  0
  5 40  1  0
  6  7  1  0
  6 41  1  0
  7  8  2  0
  7 42  1  0
  8  9  1  0
  8 43  1  0
  9 10  1  0
  9 40  2  0
 10 11  1  0
 10 14  1  0
 11 12  2  0
 11 44  1  0
 12 13  1  0
 12 45  1  0
 13 14  2  0
 13 46  1  0
 14 15  1  0
 15 16  1  0
 15 26  1  0
 15 47  1  6
 16 17  1  0
 16 23  1  0
 16 48  1  6
 17 18  2  0
 17 22  1  0
 18 19  1  0
 18 49  1  0
 19 20  2  0
 19 50  1  0
 20 21  1  0
 20 51  1  0
 21 22  2  0
 21 52  1  0
 23 24  1  0
 23 53  1  0
 24 25  2  0
 24 26  1  0
 26 27  1  0
 27 28  2  0
 27 39  1  0
 28 29  1  0
 28 54  1  0
 29 30  2  0
 29 55  1  0
 30 31  1  0
 30 38  1  0
 31 32  1  0
 32 33  2  0
 32 37  1  0
 33 34  1  0
 33 56  1  0
 34 35  2  0
 34 57  1  0
 35 36  1  0
 35 58  1  0
 36 37  2  0
 36 59  1  0
 37 60  1  0
 38 39  2  0
 38 61  1  0
 39 62  1  0
 40 63  1  0
M  END

