
     RDKit          3D

 40 41  0  0  0  0  0  0  0  0999 V2000
    1.3688    2.1899    1.3682 C   0  0  0  0  0  0  0  0  0  0  0  0
    2.7251    1.9715    0.9917 O   0  0  0  0  0  0  0  0  0  0  0  0
    3.4628    1.2180    1.8378 C   0  0  0  0  0  0  0  0  0  0  0  0
    3.0093    0.7502    2.8582 O   0  0  0  0  0  0  0  0  0  0  0  0
    4.8635    1.0407    1.3707 C   0  0  0  0  0  0  0  0  0  0  0  0
    5.7402    0.2785    2.1585 C   0  0  0  0  0  0  0  0  0  0  0  0
    7.0641    0.0721    1.7808 C   0  0  0  0  0  0  0  0  0  0  0  0
    7.5410    0.6390    0.5817 C   0  0  0  0  0  0  0  0  0  0  0  0
    8.8563    0.4901    0.1243 N   0  0  0  0  0  0  0  0  0  0  0  0
    9.8832   -0.2507    0.6631 C   0  0  0  0  0  0  0  0  0  0  0  0
    9.8010   -0.9104    1.6838 O   0  0  0  0  0  0  0  0  0  0  0  0
   11.1867   -0.1905   -0.1420 C   0  0  0  0  0  0  0  0  0  0  0  0
   11.1954   -1.0443   -1.4198 C   0  0  0  0  0  0  0  0  0  0  0  0
   10.5082   -0.4107   -2.6234 C   0  0  0  0  0  0  0  0  0  0  0  0
    9.9433    0.6703   -2.5286 O   0  0  0  0  0  0  0  0  0  0  0  0
   10.5462   -1.1257   -3.9352 C   0  0  0  0  0  0  0  0  0  0  0  0
    9.9329   -0.5087   -5.0429 C   0  0  0  0  0  0  0  0  0  0  0  0
    9.9286   -1.1204   -6.2920 C   0  0  0  0  0  0  0  0  0  0  0  0
   10.5443   -2.3659   -6.4306 C   0  0  0  0  0  0  0  0  0  0  0  0
   10.5442   -2.9602   -7.6257 F   0  0  0  0  0  0  0  0  0  0  0  0
   11.1590   -3.0072   -5.3556 C   0  0  0  0  0  0  0  0  0  0  0  0
   11.1577   -2.3814   -4.1098 C   0  0  0  0  0  0  0  0  0  0  0  0
    6.6624    1.4052   -0.2127 C   0  0  0  0  0  0  0  0  0  0  0  0
    5.3431    1.6036    0.1758 C   0  0  0  0  0  0  0  0  0  0  0  0
    0.9256    2.8075    0.5768 H   0  0  0  0  0  0  0  0  0  0  0  0
    1.3075    2.7104    2.3364 H   0  0  0  0  0  0  0  0  0  0  0  0
    0.8258    1.2363    1.4563 H   0  0  0  0  0  0  0  0  0  0  0  0
    5.3595   -0.1553    3.0854 H   0  0  0  0  0  0  0  0  0  0  0  0
    7.7386   -0.5214    2.3930 H   0  0  0  0  0  0  0  0  0  0  0  0
    9.0748    0.9301   -0.7701 H   0  0  0  0  0  0  0  0  0  0  0  0
   11.9613   -0.5645    0.5397 H   0  0  0  0  0  0  0  0  0  0  0  0
   11.4277    0.8531   -0.3994 H   0  0  0  0  0  0  0  0  0  0  0  0
   10.7445   -2.0343   -1.2297 H   0  0  0  0  0  0  0  0  0  0  0  0
   12.2394   -1.2542   -1.7104 H   0  0  0  0  0  0  0  0  0  0  0  0
    9.4599    0.4637   -4.8958 H   0  0  0  0  0  0  0  0  0  0  0  0
    9.4586   -0.6557   -7.1608 H   0  0  0  0  0  0  0  0  0  0  0  0
   11.6265   -3.9814   -5.5088 H   0  0  0  0  0  0  0  0  0  0  0  0
   11.6386   -2.8888   -3.2722 H   0  0  0  0  0  0  0  0  0  0  0  0
    7.0282    1.8441   -1.1452 H   0  0  0  0  0  0  0  0  0  0  0  0
    4.6726    2.1977   -0.4462 H   0  0  0  0  0  0  0  0  0  0  0  0
  1  2  1  0
  1 25  1  0
  1 26  1  0
  1 27  1  0
  2  3  1  0
  3  4  2  0
  3  5  1  0
  5  6  2  0
  5 24  1  0
  6  7  1  0
  6 28  1  0
  7  8  2  0
  7 29  1  0
  8  9  1  0
  8 23  1  0
  9 10  1  0
  9 30  1  0
 10 11  2  0
 10 12  1  0
 12 13  1  0
 12 31  1  0
 12 32  1  0
 13 14  1  0
 13 33  1  0
 13 34  1  0
 14 15  2  0
 14 16  1  0
 16 17  2  0
 16 22  1  0
 17 18  1  0
 17 35  1  0
 18 19  2  0
 18 36  1  0
 19 20  1  0
 19 21  1  0
 21 22  2  0
 21 37  1  0
 22 38  1  0
 23 24  2  0
 23 39  1  0
 24 40  1  0
M  END

