
     RDKit          3D

 31 32  0  0  0  0  0  0  0  0999 V2000
    1.0529   -0.0012   -0.0696 C   0  0  0  0  0  0  0  0  0  0  0  0
    2.5409    0.1201   -0.0623 C   0  0  0  0  0  0  0  0  0  0  0  0
    3.2591    1.1610   -0.5637 C   0  0  0  0  0  0  0  0  0  0  0  0
    4.6912    1.1351   -0.4822 C   0  0  0  0  0  0  0  0  0  0  0  0
    5.3801    2.1548   -0.9974 O   0  0  0  0  0  0  0  0  0  0  0  0
    5.3517    0.0526    0.0938 C   0  0  0  0  0  0  0  0  0  0  0  0
    6.8533    0.0336    0.2031 C   0  0  0  0  0  0  0  0  0  0  0  0
    7.4785    1.0799    0.2786 O   0  0  0  0  0  0  0  0  0  0  0  0
    7.5455   -1.2837    0.1655 C   0  0  0  0  0  0  0  0  0  0  0  0
    8.8939   -1.3327    0.2118 C   0  0  0  0  0  0  0  0  0  0  0  0
    9.7445   -2.5224    0.1668 C   0  0  0  0  0  0  0  0  0  0  0  0
   11.1449   -2.3622    0.1726 C   0  0  0  0  0  0  0  0  0  0  0  0
   12.0070   -3.4572    0.1283 C   0  0  0  0  0  0  0  0  0  0  0  0
   11.4691   -4.7459    0.0796 C   0  0  0  0  0  0  0  0  0  0  0  0
   12.5345   -6.1294    0.0247 Cl  0  0  0  0  0  0  0  0  0  0  0  0
   10.0816   -4.9402    0.0766 C   0  0  0  0  0  0  0  0  0  0  0  0
    9.2340   -3.8376    0.1199 C   0  0  0  0  0  0  0  0  0  0  0  0
    4.5650   -1.0457    0.6314 C   0  0  0  0  0  0  0  0  0  0  0  0
    4.9423   -2.0470    1.1803 O   0  0  0  0  0  0  0  0  0  0  0  0
    3.1509   -0.9232    0.5017 O   0  0  0  0  0  0  0  0  0  0  0  0
    0.5819    0.8697   -0.5437 H   0  0  0  0  0  0  0  0  0  0  0  0
    0.6791   -0.0991    0.9626 H   0  0  0  0  0  0  0  0  0  0  0  0
    0.7527   -0.9149   -0.6079 H   0  0  0  0  0  0  0  0  0  0  0  0
    2.7474    2.0081   -1.0243 H   0  0  0  0  0  0  0  0  0  0  0  0
    4.7726    2.7945   -1.3937 H   0  0  0  0  0  0  0  0  0  0  0  0
    6.9354   -2.1835    0.1046 H   0  0  0  0  0  0  0  0  0  0  0  0
    9.4114   -0.3702    0.2909 H   0  0  0  0  0  0  0  0  0  0  0  0
   11.5644   -1.3534    0.2120 H   0  0  0  0  0  0  0  0  0  0  0  0
   13.0894   -3.3192    0.1322 H   0  0  0  0  0  0  0  0  0  0  0  0
    9.6776   -5.9534    0.0431 H   0  0  0  0  0  0  0  0  0  0  0  0
    8.1548   -4.0031    0.1236 H   0  0  0  0  0  0  0  0  0  0  0  0
  1  2  1  0
  1 21  1  0
  1 22  1  0
  1 23  1  0
  2  3  2  0
  2 20  1  0
  3  4  1  0
  3 24  1  0
  4  5  1  0
  4  6  2  0
  5 25  1  0
  6  7  1  0
  6 18  1  0
  7  8  2  0
  7  9  1  0
  9 10  2  0
  9 26  1  0
 10 11  1  0
 10 27  1  0
 11 12  2  0
 11 17  1  0
 12 13  1  0
 12 28  1  0
 13 14  2  0
 13 29  1  0
 14 15  1  0
 14 16  1  0
 16 17  2  0
 16 30  1  0
 17 31  1  0
 18 19  2  0
 18 20  1  0
M  END

