
     RDKit          3D

 70 72  0  0  0  0  0  0  0  0999 V2000
    3.8814    1.8511    0.8779 C   0  0  0  0  0  0  0  0  0  0  0  0
    5.1298    1.1179    0.3753 C   0  0  1  0  0  0  0  0  0  0  0  0
    4.9821    0.6596   -1.0799 C   0  0  0  0  0  0  0  0  0  0  0  0
    6.3731    1.9952    0.5352 C   0  0  0  0  0  0  0  0  0  0  0  0
    5.4223   -0.0299    1.2408 O   0  0  0  0  0  0  0  0  0  0  0  0
    4.5655   -1.0734    1.3491 C   0  0  0  0  0  0  0  0  0  0  0  0
    3.4828   -1.1463    0.7937 O   0  0  0  0  0  0  0  0  0  0  0  0
    5.0791   -2.0407    2.1642 N   0  0  0  0  0  0  0  0  0  0  0  0
    6.3325   -1.9467    2.9206 C   0  0  1  0  0  0  0  0  0  0  0  0
    7.1068   -1.5101    2.2737 H   0  0  0  0  0  0  0  0  0  0  0  0
    6.2039   -1.1126    4.2098 C   0  0  0  0  0  0  0  0  0  0  0  0
    7.5554   -0.8084    4.8930 C   0  0  1  0  0  0  0  0  0  0  0  0
    8.3395    0.3322    4.2033 C   0  0  0  0  0  0  0  0  0  0  0  0
    7.7475    1.7235    4.4764 C   0  0  0  0  0  0  0  0  0  0  0  0
    7.5924    1.9947    5.9784 C   0  0  0  0  0  0  0  0  0  0  0  0
    6.7825    0.8865    6.6637 C   0  0  0  0  0  0  0  0  0  0  0  0
    7.3982   -0.4939    6.3969 C   0  0  0  0  0  0  0  0  0  0  0  0
    6.6098   -3.4381    3.1922 C   0  0  2  0  0  0  0  0  0  0  0  0
    7.5315   -4.0891    2.1507 C   0  0  0  0  0  0  0  0  0  0  0  0
    7.6622   -5.6121    2.2731 C   0  0  0  0  0  0  0  0  0  0  0  0
    8.6124   -6.0816    3.3613 C   0  0  1  0  0  0  0  0  0  0  0  0
    9.8374   -5.4818    3.1948 F   0  0  0  0  0  0  0  0  0  0  0  0
    8.1683   -5.6674    4.5978 F   0  0  0  0  0  0  0  0  0  0  0  0
    8.8291   -7.5912    3.4020 C   0  0  0  0  0  0  0  0  0  0  0  0
    8.7468   -8.3053    4.6032 C   0  0  0  0  0  0  0  0  0  0  0  0
    8.9947   -9.6793    4.5718 C   0  0  0  0  0  0  0  0  0  0  0  0
    9.3105  -10.2807    3.3527 C   0  0  0  0  0  0  0  0  0  0  0  0
    9.3618   -9.4749    2.2101 C   0  0  0  0  0  0  0  0  0  0  0  0
    9.1259   -8.1632    2.2324 N   0  0  0  0  0  0  0  0  0  0  0  0
    5.3126   -4.0328    3.2303 O   0  0  0  0  0  0  0  0  0  0  0  0
    4.3742   -3.3202    2.4265 C   0  0  1  0  0  0  0  0  0  0  0  0
    3.1003   -3.1214    3.2510 C   0  0  0  0  0  0  0  0  0  0  0  0
    4.0789   -4.0971    1.1374 C   0  0  0  0  0  0  0  0  0  0  0  0
    3.7270    2.7685    0.2884 H   0  0  0  0  0  0  0  0  0  0  0  0
    4.0058    2.1419    1.9329 H   0  0  0  0  0  0  0  0  0  0  0  0
    2.9903    1.2177    0.7873 H   0  0  0  0  0  0  0  0  0  0  0  0
    4.8844    1.5387   -1.7362 H   0  0  0  0  0  0  0  0  0  0  0  0
    4.0981    0.0227   -1.2069 H   0  0  0  0  0  0  0  0  0  0  0  0
    5.8747    0.0971   -1.3962 H   0  0  0  0  0  0  0  0  0  0  0  0
    6.2767    2.9051   -0.0764 H   0  0  0  0  0  0  0  0  0  0  0  0
    7.2750    1.4533    0.2124 H   0  0  0  0  0  0  0  0  0  0  0  0
    6.5079    2.2948    1.5851 H   0  0  0  0  0  0  0  0  0  0  0  0
    5.5547   -1.6665    4.9092 H   0  0  0  0  0  0  0  0  0  0  0  0
    5.6751   -0.1800    3.9626 H   0  0  0  0  0  0  0  0  0  0  0  0
    8.1700   -1.7239    4.8230 H   0  0  0  0  0  0  0  0  0  0  0  0
    8.4010    0.1573    3.1160 H   0  0  0  0  0  0  0  0  0  0  0  0
    9.3803    0.3115    4.5742 H   0  0  0  0  0  0  0  0  0  0  0  0
    6.7595    1.8098    3.9901 H   0  0  0  0  0  0  0  0  0  0  0  0
    8.3829    2.4956    4.0102 H   0  0  0  0  0  0  0  0  0  0  0  0
    7.1207    2.9781    6.1446 H   0  0  0  0  0  0  0  0  0  0  0  0
    8.5947    2.0488    6.4432 H   0  0  0  0  0  0  0  0  0  0  0  0
    5.7409    0.9110    6.2947 H   0  0  0  0  0  0  0  0  0  0  0  0
    6.7256    1.0688    7.7502 H   0  0  0  0  0  0  0  0  0  0  0  0
    6.8010   -1.2836    6.8840 H   0  0  0  0  0  0  0  0  0  0  0  0
    8.3979   -0.5290    6.8672 H   0  0  0  0  0  0  0  0  0  0  0  0
    7.0418   -3.5846    4.1920 H   0  0  0  0  0  0  0  0  0  0  0  0
    8.5290   -3.6265    2.2277 H   0  0  0  0  0  0  0  0  0  0  0  0
    7.1569   -3.8492    1.1425 H   0  0  0  0  0  0  0  0  0  0  0  0
    8.0444   -6.0463    1.3382 H   0  0  0  0  0  0  0  0  0  0  0  0
    6.6755   -6.0619    2.4628 H   0  0  0  0  0  0  0  0  0  0  0  0
    8.4950   -7.7919    5.5308 H   0  0  0  0  0  0  0  0  0  0  0  0
    8.9408  -10.2715    5.4890 H   0  0  0  0  0  0  0  0  0  0  0  0
    9.5108  -11.3522    3.2822 H   0  0  0  0  0  0  0  0  0  0  0  0
    9.6024   -9.9123    1.2341 H   0  0  0  0  0  0  0  0  0  0  0  0
    3.3304   -2.5874    4.1839 H   0  0  0  0  0  0  0  0  0  0  0  0
    2.6699   -4.1009    3.5085 H   0  0  0  0  0  0  0  0  0  0  0  0
    2.3644   -2.5440    2.6747 H   0  0  0  0  0  0  0  0  0  0  0  0
    4.9937   -4.2338    0.5436 H   0  0  0  0  0  0  0  0  0  0  0  0
    3.3394   -3.5637    0.5269 H   0  0  0  0  0  0  0  0  0  0  0  0
    3.6848   -5.0898    1.4019 H   0  0  0  0  0  0  0  0  0  0  0  0
  1  2  1  0
  1 34  1  0
  1 35  1  0
  1 36  1  0
  2  3  1  0
  2  4  1  0
  2  5  1  1
  3 37  1  0
  3 38  1  0
  3 39  1  0
  4 40  1  0
  4 41  1  0
  4 42  1  0
  5  6  1  0
  6  7  2  0
  6  8  1  0
  8  9  1  0
  8 31  1  0
  9 10  1  6
  9 11  1  0
  9 18  1  0
 11 12  1  0
 11 43  1  0
 11 44  1  0
 12 13  1  0
 12 17  1  0
 12 45  1  1
 13 14  1  0
 13 46  1  0
 13 47  1  0
 14 15  1  0
 14 48  1  0
 14 49  1  0
 15 16  1  0
 15 50  1  0
 15 51  1  0
 16 17  1  0
 16 52  1  0
 16 53  1  0
 17 54  1  0
 17 55  1  0
 18 19  1  0
 18 30  1  0
 18 56  1  1
 19 20  1  0
 19 57  1  0
 19 58  1  0
 20 21  1  0
 20 59  1  0
 20 60  1  0
 21 22  1  6
 21 23  1  0
 21 24  1  0
 24 25  2  0
 24 29  1  0
 25 26  1  0
 25 61  1  0
 26 27  2  0
 26 62  1  0
 27 28  1  0
 27 63  1  0
 28 29  2  0
 28 64  1  0
 30 31  1  0
 31 32  1  1
 31 33  1  0
 32 65  1  0
 32 66  1  0
 32 67  1  0
 33 68  1  0
 33 69  1  0
 33 70  1  0
M  END

