
     RDKit          3D

 71 79  0  0  0  0  0  0  0  0999 V2000
    1.3407   -0.4352   -0.5820 F   0  0  0  0  0  0  0  0  0  0  0  0
    2.9237   -0.2349   -0.1489 Si  0  0  1  0  0  4  0  0  0  0  0  0
    3.6268    0.7731   -1.6141 C   0  0  0  0  0  0  0  0  0  0  0  0
    4.4719    1.9098   -1.4434 C   0  0  0  0  0  0  0  0  0  0  0  0
    5.0485    2.2870   -0.1834 C   0  0  0  0  0  0  0  0  0  0  0  0
    5.8633    3.3852   -0.0522 C   0  0  0  0  0  0  0  0  0  0  0  0
    6.1675    4.2082   -1.1732 C   0  0  0  0  0  0  0  0  0  0  0  0
    5.6594    3.8844   -2.4042 C   0  0  0  0  0  0  0  0  0  0  0  0
    4.8236    2.7350   -2.5830 C   0  0  0  0  0  0  0  0  0  0  0  0
    4.3528    2.3875   -3.8527 C   0  0  0  0  0  0  0  0  0  0  0  0
    3.5812    1.2407   -4.0642 C   0  0  0  0  0  0  0  0  0  0  0  0
    3.1602    0.8815   -5.3855 C   0  0  0  0  0  0  0  0  0  0  0  0
    2.4321   -0.2568   -5.6113 C   0  0  0  0  0  0  0  0  0  0  0  0
    2.0884   -1.0976   -4.5148 C   0  0  0  0  0  0  0  0  0  0  0  0
    2.4600   -0.7773   -3.2323 C   0  0  0  0  0  0  0  0  0  0  0  0
    3.2160    0.4088   -2.9337 C   0  0  0  0  0  0  0  0  0  0  0  0
    2.7817    0.7084    1.5086 C   0  0  0  0  0  0  0  0  0  0  0  0
    3.5467    0.3708    2.6644 C   0  0  0  0  0  0  0  0  0  0  0  0
    4.6413   -0.5587    2.6472 C   0  0  0  0  0  0  0  0  0  0  0  0
    5.3622   -0.8598    3.7771 C   0  0  0  0  0  0  0  0  0  0  0  0
    5.0449   -0.2598    5.0285 C   0  0  0  0  0  0  0  0  0  0  0  0
    4.0218    0.6493    5.0994 C   0  0  0  0  0  0  0  0  0  0  0  0
    3.2622    1.0036    3.9379 C   0  0  0  0  0  0  0  0  0  0  0  0
    2.2544    1.9698    4.0138 C   0  0  0  0  0  0  0  0  0  0  0  0
    1.5349    2.3743    2.8851 C   0  0  0  0  0  0  0  0  0  0  0  0
    0.5469    3.4067    2.9845 C   0  0  0  0  0  0  0  0  0  0  0  0
   -0.1417    3.8360    1.8807 C   0  0  0  0  0  0  0  0  0  0  0  0
    0.1294    3.2469    0.6130 C   0  0  0  0  0  0  0  0  0  0  0  0
    1.0575    2.2434    0.4817 C   0  0  0  0  0  0  0  0  0  0  0  0
    1.8032    1.7457    1.6059 C   0  0  0  0  0  0  0  0  0  0  0  0
    3.5469   -2.0384   -0.0178 C   0  0  0  0  0  0  0  0  0  0  0  0
    4.7909   -2.4732   -0.5642 C   0  0  0  0  0  0  0  0  0  0  0  0
    5.7888   -1.5760   -1.0756 C   0  0  0  0  0  0  0  0  0  0  0  0
    6.9800   -2.0254   -1.5915 C   0  0  0  0  0  0  0  0  0  0  0  0
    7.2743   -3.4172   -1.6468 C   0  0  0  0  0  0  0  0  0  0  0  0
    6.3658   -4.3178   -1.1551 C   0  0  0  0  0  0  0  0  0  0  0  0
    5.1226   -3.8848   -0.5906 C   0  0  0  0  0  0  0  0  0  0  0  0
    4.2267   -4.8101   -0.0469 C   0  0  0  0  0  0  0  0  0  0  0  0
    3.0317   -4.4102    0.5592 C   0  0  0  0  0  0  0  0  0  0  0  0
    2.1606   -5.3779    1.1567 C   0  0  0  0  0  0  0  0  0  0  0  0
    1.0032   -4.9971    1.7829 C   0  0  0  0  0  0  0  0  0  0  0  0
    0.6601   -3.6165    1.8417 C   0  0  0  0  0  0  0  0  0  0  0  0
    1.4619   -2.6618    1.2661 C   0  0  0  0  0  0  0  0  0  0  0  0
    2.6828   -3.0027    0.5875 C   0  0  0  0  0  0  0  0  0  0  0  0
    4.8459    1.6848    0.6991 H   0  0  0  0  0  0  0  0  0  0  0  0
    6.2834    3.6287    0.9269 H   0  0  0  0  0  0  0  0  0  0  0  0
    6.8096    5.0837   -1.0493 H   0  0  0  0  0  0  0  0  0  0  0  0
    5.8931    4.4935   -3.2817 H   0  0  0  0  0  0  0  0  0  0  0  0
    4.6137    3.0181   -4.7078 H   0  0  0  0  0  0  0  0  0  0  0  0
    3.4443    1.5366   -6.2137 H   0  0  0  0  0  0  0  0  0  0  0  0
    2.1202   -0.5258   -6.6236 H   0  0  0  0  0  0  0  0  0  0  0  0
    1.5202   -2.0135   -4.6958 H   0  0  0  0  0  0  0  0  0  0  0  0
    2.1675   -1.4493   -2.4286 H   0  0  0  0  0  0  0  0  0  0  0  0
    4.9214   -1.0378    1.7120 H   0  0  0  0  0  0  0  0  0  0  0  0
    6.1909   -1.5694    3.7126 H   0  0  0  0  0  0  0  0  0  0  0  0
    5.6224   -0.5180    5.9196 H   0  0  0  0  0  0  0  0  0  0  0  0
    3.7714    1.1343    6.0470 H   0  0  0  0  0  0  0  0  0  0  0  0
    2.0380    2.4381    4.9785 H   0  0  0  0  0  0  0  0  0  0  0  0
    0.3624    3.8518    3.9661 H   0  0  0  0  0  0  0  0  0  0  0  0
   -0.8896    4.6283    1.9651 H   0  0  0  0  0  0  0  0  0  0  0  0
   -0.4089    3.5989   -0.2706 H   0  0  0  0  0  0  0  0  0  0  0  0
    1.2235    1.8219   -0.5072 H   0  0  0  0  0  0  0  0  0  0  0  0
    5.6076   -0.5041   -1.0499 H   0  0  0  0  0  0  0  0  0  0  0  0
    7.7112   -1.3033   -1.9636 H   0  0  0  0  0  0  0  0  0  0  0  0
    8.2226   -3.7581   -2.0695 H   0  0  0  0  0  0  0  0  0  0  0  0
    6.5783   -5.3903   -1.1729 H   0  0  0  0  0  0  0  0  0  0  0  0
    4.4777   -5.8745   -0.0768 H   0  0  0  0  0  0  0  0  0  0  0  0
    2.4492   -6.4315    1.1084 H   0  0  0  0  0  0  0  0  0  0  0  0
    0.3477   -5.7420    2.2409 H   0  0  0  0  0  0  0  0  0  0  0  0
   -0.2557   -3.3104    2.3537 H   0  0  0  0  0  0  0  0  0  0  0  0
    1.1524   -1.6212    1.3332 H   0  0  0  0  0  0  0  0  0  0  0  0
  2  1  1  6
  2  3  1  0
  2 17  1  0
  2 31  1  0
  3  4  1  0
  3 16  2  0
  4  5  2  0
  4  9  1  0
  5  6  1  0
  5 45  1  0
  6  7  2  0
  6 46  1  0
  7  8  1  0
  7 47  1  0
  8  9  2  0
  8 48  1  0
  9 10  1  0
 10 11  2  0
 10 49  1  0
 11 12  1  0
 11 16  1  0
 12 13  2  0
 12 50  1  0
 13 14  1  0
 13 51  1  0
 14 15  2  0
 14 52  1  0
 15 16  1  0
 15 53  1  0
 17 18  1  0
 17 30  2  0
 18 19  2  0
 18 23  1  0
 19 20  1  0
 19 54  1  0
 20 21  2  0
 20 55  1  0
 21 22  1  0
 21 56  1  0
 22 23  2  0
 22 57  1  0
 23 24  1  0
 24 25  2  0
 24 58  1  0
 25 26  1  0
 25 30  1  0
 26 27  2  0
 26 59  1  0
 27 28  1  0
 27 60  1  0
 28 29  2  0
 28 61  1  0
 29 30  1  0
 29 62  1  0
 31 32  1  0
 31 44  2  0
 32 33  2  0
 32 37  1  0
 33 34  1  0
 33 63  1  0
 34 35  2  0
 34 64  1  0
 35 36  1  0
 35 65  1  0
 36 37  2  0
 36 66  1  0
 37 38  1  0
 38 39  2  0
 38 67  1  0
 39 40  1  0
 39 44  1  0
 40 41  2  0
 40 68  1  0
 41 42  1  0
 41 69  1  0
 42 43  2  0
 42 70  1  0
 43 44  1  0
 43 71  1  0
M  END

