
     RDKit          3D

 44 46  0  0  0  0  0  0  0  0999 V2000
    0.5542    0.1832    0.0279 C   0  0  0  0  0  0  0  0  0  0  0  0
    2.0857    0.0681    0.0640 C   0  0  1  0  0  0  0  0  0  0  0  0
    2.5863   -1.3292   -0.3620 C   0  0  0  0  0  0  0  0  0  0  0  0
    2.4773   -1.5752   -1.8763 C   0  0  0  0  0  0  0  0  0  0  0  0
    3.1708   -0.4884   -2.7251 C   0  0  2  0  0  0  0  0  0  0  0  0
    4.7033   -0.6246   -2.6897 C   0  0  0  0  0  0  0  0  0  0  0  0
    5.3612    0.2835   -3.6166 N   0  0  0  0  0  0  0  0  0  0  0  0
    6.7959    0.1194   -3.7073 C   0  0  0  0  0  0  0  0  0  0  0  0
    7.3986    1.1228   -4.6747 C   0  0  2  0  0  0  0  0  0  0  0  0
    8.9354    1.0352   -4.8500 C   0  0  0  0  0  0  0  0  0  0  0  0
    9.3512    2.4836   -4.7474 C   0  0  0  0  0  0  0  0  0  0  0  0
   10.5751    3.1140   -4.9438 C   0  0  0  0  0  0  0  0  0  0  0  0
   10.6550    4.4967   -4.7175 C   0  0  0  0  0  0  0  0  0  0  0  0
   12.1843    5.3184   -4.9664 Cl  0  0  0  0  0  0  0  0  0  0  0  0
    9.5399    5.2298   -4.2981 C   0  0  0  0  0  0  0  0  0  0  0  0
    8.3078    4.5937   -4.0991 C   0  0  0  0  0  0  0  0  0  0  0  0
    8.2358    3.2215   -4.3296 C   0  0  0  0  0  0  0  0  0  0  0  0
    7.1199    2.4643   -4.1806 O   0  0  0  0  0  0  0  0  0  0  0  0
    2.6569    0.9035   -2.2960 C   0  0  0  0  0  0  0  0  0  0  0  0
    2.7821    1.1537   -0.7853 C   0  0  0  0  0  0  0  0  0  0  0  0
    0.0876   -0.5717    0.6818 H   0  0  0  0  0  0  0  0  0  0  0  0
    0.1406    0.0398   -0.9830 H   0  0  0  0  0  0  0  0  0  0  0  0
    0.2255    1.1756    0.3778 H   0  0  0  0  0  0  0  0  0  0  0  0
    2.3905    0.2227    1.1146 H   0  0  0  0  0  0  0  0  0  0  0  0
    2.0278   -2.1098    0.1830 H   0  0  0  0  0  0  0  0  0  0  0  0
    3.6392   -1.4374   -0.0483 H   0  0  0  0  0  0  0  0  0  0  0  0
    1.4125   -1.6146   -2.1640 H   0  0  0  0  0  0  0  0  0  0  0  0
    2.8914   -2.5681   -2.1236 H   0  0  0  0  0  0  0  0  0  0  0  0
    2.8876   -0.6387   -3.7812 H   0  0  0  0  0  0  0  0  0  0  0  0
    4.9601   -1.6564   -2.9910 H   0  0  0  0  0  0  0  0  0  0  0  0
    5.0848   -0.5158   -1.6493 H   0  0  0  0  0  0  0  0  0  0  0  0
    5.1624    1.2519   -3.3692 H   0  0  0  0  0  0  0  0  0  0  0  0
    7.0240   -0.8963   -4.0802 H   0  0  0  0  0  0  0  0  0  0  0  0
    7.3229    0.2192   -2.7288 H   0  0  0  0  0  0  0  0  0  0  0  0
    6.8808    1.0351   -5.6453 H   0  0  0  0  0  0  0  0  0  0  0  0
    9.2099    0.5700   -5.8091 H   0  0  0  0  0  0  0  0  0  0  0  0
    9.3975    0.4320   -4.0477 H   0  0  0  0  0  0  0  0  0  0  0  0
   11.4601    2.5616   -5.2650 H   0  0  0  0  0  0  0  0  0  0  0  0
    9.6370    6.3040   -4.1321 H   0  0  0  0  0  0  0  0  0  0  0  0
    7.4279    5.1528   -3.7764 H   0  0  0  0  0  0  0  0  0  0  0  0
    1.5976    0.9857   -2.5949 H   0  0  0  0  0  0  0  0  0  0  0  0
    3.1743    1.6994   -2.8582 H   0  0  0  0  0  0  0  0  0  0  0  0
    2.3713    2.1471   -0.5353 H   0  0  0  0  0  0  0  0  0  0  0  0
    3.8502    1.1905   -0.5065 H   0  0  0  0  0  0  0  0  0  0  0  0
  1  2  1  0
  1 21  1  0
  1 22  1  0
  1 23  1  0
  2  3  1  0
  2 20  1  0
  2 24  1  1
  3  4  1  0
  3 25  1  0
  3 26  1  0
  4  5  1  0
  4 27  1  0
  4 28  1  0
  5  6  1  0
  5 19  1  0
  5 29  1  6
  6  7  1  0
  6 30  1  0
  6 31  1  0
  7  8  1  0
  7 32  1  0
  8  9  1  0
  8 33  1  0
  8 34  1  0
  9 10  1  0
  9 18  1  0
  9 35  1  6
 10 11  1  0
 10 36  1  0
 10 37  1  0
 11 12  1  0
 11 17  2  0
 12 13  2  0
 12 38  1  0
 13 14  1  0
 13 15  1  0
 15 16  2  0
 15 39  1  0
 16 17  1  0
 16 40  1  0
 17 18  1  0
 19 20  1  0
 19 41  1  0
 19 42  1  0
 20 43  1  0
 20 44  1  0
M  END

