
     RDKit          3D

 57 59  0  0  0  0  0  0  0  0999 V2000
    4.4483   -3.4990    0.3282 C   0  0  0  0  0  0  0  0  0  0  0  0
    4.2968   -2.0356   -0.0711 C   0  0  0  0  0  0  0  0  0  0  0  0
    4.8051   -1.1475    0.9637 N   0  0  0  0  0  0  0  0  0  0  0  0
    4.7084    0.2674    0.6496 C   0  0  0  0  0  0  0  0  0  0  0  0
    5.1122    1.1599    1.8369 C   0  0  1  0  0  0  0  0  0  0  0  0
    6.5903    1.0235    2.2572 C   0  0  0  0  0  0  0  0  0  0  0  0
    7.5535    1.6995    1.2770 C   0  0  0  0  0  0  0  0  0  0  0  0
    7.1979    3.1058    1.0713 N   0  0  0  0  0  0  0  0  0  0  0  0
    8.1728    4.0654    1.2239 C   0  0  0  0  0  0  0  0  0  0  0  0
    9.3157    3.7599    1.5453 O   0  0  0  0  0  0  0  0  0  0  0  0
    7.7800    5.5339    1.0041 C   0  0  1  0  0  0  0  0  0  0  0  0
    7.0234    6.1087    2.2265 C   0  0  0  0  0  0  0  0  0  0  0  0
    7.9812    6.3874    3.3876 C   0  0  0  0  0  0  0  0  0  0  0  0
    9.1055    7.3241    2.9495 C   0  0  0  0  0  0  0  0  0  0  0  0
    9.8262    6.7746    1.8041 N   0  0  0  0  0  0  0  0  0  0  0  0
   11.1861    7.0119    1.7427 C   0  0  0  0  0  0  0  0  0  0  0  0
   11.7574    7.6689    2.6034 O   0  0  0  0  0  0  0  0  0  0  0  0
   11.9906    6.4511    0.5946 C   0  0  0  0  0  0  0  0  0  0  0  0
   12.9330    7.3031   -0.0048 C   0  0  0  0  0  0  0  0  0  0  0  0
   13.7739    6.8310   -1.0134 C   0  0  0  0  0  0  0  0  0  0  0  0
   13.7050    5.4917   -1.4125 C   0  0  0  0  0  0  0  0  0  0  0  0
   12.7915    4.6311   -0.7970 C   0  0  0  0  0  0  0  0  0  0  0  0
   11.9319    5.1043    0.1999 C   0  0  0  0  0  0  0  0  0  0  0  0
    8.9924    6.4270    0.6599 C   0  0  0  0  0  0  0  0  0  0  0  0
    5.8236    3.3112    0.6198 C   0  0  0  0  0  0  0  0  0  0  0  0
    4.8155    2.6491    1.5719 C   0  0  0  0  0  0  0  0  0  0  0  0
    4.0227   -4.1650   -0.4385 H   0  0  0  0  0  0  0  0  0  0  0  0
    3.9397   -3.6940    1.2851 H   0  0  0  0  0  0  0  0  0  0  0  0
    5.5109   -3.7719    0.4495 H   0  0  0  0  0  0  0  0  0  0  0  0
    3.2270   -1.8040   -0.2237 H   0  0  0  0  0  0  0  0  0  0  0  0
    4.7840   -1.8678   -1.0605 H   0  0  0  0  0  0  0  0  0  0  0  0
    5.7717   -1.3960    1.1721 H   0  0  0  0  0  0  0  0  0  0  0  0
    3.6520    0.4831    0.4086 H   0  0  0  0  0  0  0  0  0  0  0  0
    5.2811    0.5440   -0.2662 H   0  0  0  0  0  0  0  0  0  0  0  0
    4.4873    0.8267    2.6822 H   0  0  0  0  0  0  0  0  0  0  0  0
    6.8734   -0.0350    2.3809 H   0  0  0  0  0  0  0  0  0  0  0  0
    6.7210    1.4883    3.2495 H   0  0  0  0  0  0  0  0  0  0  0  0
    7.5401    1.1803    0.2993 H   0  0  0  0  0  0  0  0  0  0  0  0
    8.5846    1.6741    1.6476 H   0  0  0  0  0  0  0  0  0  0  0  0
    7.1174    5.5884    0.1262 H   0  0  0  0  0  0  0  0  0  0  0  0
    6.2145    5.4309    2.5415 H   0  0  0  0  0  0  0  0  0  0  0  0
    6.5399    7.0543    1.9210 H   0  0  0  0  0  0  0  0  0  0  0  0
    8.4191    5.4447    3.7553 H   0  0  0  0  0  0  0  0  0  0  0  0
    7.4342    6.8443    4.2288 H   0  0  0  0  0  0  0  0  0  0  0  0
    9.8357    7.4949    3.7488 H   0  0  0  0  0  0  0  0  0  0  0  0
    8.6813    8.3158    2.6850 H   0  0  0  0  0  0  0  0  0  0  0  0
   13.0038    8.3371    0.3394 H   0  0  0  0  0  0  0  0  0  0  0  0
   14.4945    7.5066   -1.4819 H   0  0  0  0  0  0  0  0  0  0  0  0
   14.3705    5.1177   -2.1954 H   0  0  0  0  0  0  0  0  0  0  0  0
   12.7490    3.5785   -1.0899 H   0  0  0  0  0  0  0  0  0  0  0  0
   11.2236    4.4304    0.6865 H   0  0  0  0  0  0  0  0  0  0  0  0
    9.6050    5.9541   -0.1139 H   0  0  0  0  0  0  0  0  0  0  0  0
    8.5804    7.3598    0.2211 H   0  0  0  0  0  0  0  0  0  0  0  0
    5.7134    2.8908   -0.3985 H   0  0  0  0  0  0  0  0  0  0  0  0
    5.6032    4.3809    0.5417 H   0  0  0  0  0  0  0  0  0  0  0  0
    3.7994    2.7745    1.1609 H   0  0  0  0  0  0  0  0  0  0  0  0
    4.8391    3.1921    2.5324 H   0  0  0  0  0  0  0  0  0  0  0  0
  1  2  1  0
  1 27  1  0
  1 28  1  0
  1 29  1  0
  2  3  1  0
  2 30  1  0
  2 31  1  0
  3  4  1  0
  3 32  1  0
  4  5  1  0
  4 33  1  0
  4 34  1  0
  5  6  1  0
  5 26  1  0
  5 35  1  1
  6  7  1  0
  6 36  1  0
  6 37  1  0
  7  8  1  0
  7 38  1  0
  7 39  1  0
  8  9  1  0
  8 25  1  0
  9 10  2  0
  9 11  1  0
 11 12  1  0
 11 24  1  0
 11 40  1  6
 12 13  1  0
 12 41  1  0
 12 42  1  0
 13 14  1  0
 13 43  1  0
 13 44  1  0
 14 15  1  0
 14 45  1  0
 14 46  1  0
 15 16  1  0
 15 24  1  0
 16 17  2  0
 16 18  1  0
 18 19  2  0
 18 23  1  0
 19 20  1  0
 19 47  1  0
 20 21  2  0
 20 48  1  0
 21 22  1  0
 21 49  1  0
 22 23  2  0
 22 50  1  0
 23 51  1  0
 24 52  1  0
 24 53  1  0
 25 26  1  0
 25 54  1  0
 25 55  1  0
 26 56  1  0
 26 57  1  0
M  END

