
     RDKit          3D

 53 54  0  0  0  0  0  0  0  0999 V2000
    1.2961    1.1244    1.3629 C   0  0  0  0  0  0  0  0  0  0  0  0
    2.6038    0.7019    0.7028 C   0  0  0  0  0  0  0  0  0  0  0  0
    3.1472   -0.4995    1.3179 N   0  0  0  0  0  0  0  0  0  0  0  0
    4.3818   -0.9834    0.7161 C   0  0  0  0  0  0  0  0  0  0  0  0
    5.0710   -2.1117    1.5284 C   0  0  1  0  0  0  0  0  0  0  0  0
    5.4752   -1.4814    2.8951 C   0  0  0  0  0  0  0  0  0  0  0  0
    6.1206   -2.3631    3.8719 N   0  0  0  0  0  0  0  0  0  0  0  0
    7.5663   -2.2032    3.9232 C   0  0  0  0  0  0  0  0  0  0  0  0
    5.5446   -2.2942    5.2116 C   0  0  0  0  0  0  0  0  0  0  0  0
    4.1589   -2.9527    5.3405 C   0  0  0  0  0  0  0  0  0  0  0  0
    3.6109   -2.9152    6.7393 C   0  0  0  0  0  0  0  0  0  0  0  0
    3.5447   -3.9355    7.6597 C   0  0  0  0  0  0  0  0  0  0  0  0
    2.9881   -3.5394    8.9153 C   0  0  0  0  0  0  0  0  0  0  0  0
    2.6361   -2.2148    8.9416 C   0  0  0  0  0  0  0  0  0  0  0  0
    2.9803   -1.4401    7.4314 S   0  0  0  0  0  0  0  0  0  0  0  0
    4.1292   -3.3173    1.7558 C   0  0  0  0  0  0  0  0  0  0  0  0
    3.7967   -4.0962    0.4768 C   0  0  0  0  0  0  0  0  0  0  0  0
    5.0676   -4.5661   -0.2386 C   0  0  0  0  0  0  0  0  0  0  0  0
    6.0273   -3.4028   -0.5339 C   0  0  2  0  0  0  0  0  0  0  0  0
    7.3246   -3.8863   -1.1889 C   0  0  0  0  0  0  0  0  0  0  0  0
    6.3173   -2.6125    0.7573 C   0  0  0  0  0  0  0  0  0  0  0  0
    0.9112    2.0558    0.9189 H   0  0  0  0  0  0  0  0  0  0  0  0
    1.4394    1.2835    2.4431 H   0  0  0  0  0  0  0  0  0  0  0  0
    0.5175    0.3523    1.2368 H   0  0  0  0  0  0  0  0  0  0  0  0
    3.3503    1.5092    0.8121 H   0  0  0  0  0  0  0  0  0  0  0  0
    2.4444    0.5874   -0.3952 H   0  0  0  0  0  0  0  0  0  0  0  0
    2.4405   -1.2341    1.2984 H   0  0  0  0  0  0  0  0  0  0  0  0
    5.0816   -0.1297    0.6640 H   0  0  0  0  0  0  0  0  0  0  0  0
    4.2341   -1.3051   -0.3365 H   0  0  0  0  0  0  0  0  0  0  0  0
    4.5536   -1.0618    3.3240 H   0  0  0  0  0  0  0  0  0  0  0  0
    6.1251   -0.6057    2.6865 H   0  0  0  0  0  0  0  0  0  0  0  0
    8.0056   -2.2954    2.9211 H   0  0  0  0  0  0  0  0  0  0  0  0
    8.0153   -2.9864    4.5552 H   0  0  0  0  0  0  0  0  0  0  0  0
    7.8800   -1.2158    4.3342 H   0  0  0  0  0  0  0  0  0  0  0  0
    5.4832   -1.2448    5.5817 H   0  0  0  0  0  0  0  0  0  0  0  0
    6.2276   -2.8160    5.9011 H   0  0  0  0  0  0  0  0  0  0  0  0
    4.2378   -4.0049    5.0249 H   0  0  0  0  0  0  0  0  0  0  0  0
    3.4513   -2.4696    4.6476 H   0  0  0  0  0  0  0  0  0  0  0  0
    3.8832   -4.9496    7.4370 H   0  0  0  0  0  0  0  0  0  0  0  0
    2.8524   -4.2138    9.7626 H   0  0  0  0  0  0  0  0  0  0  0  0
    2.1907   -1.6495    9.7590 H   0  0  0  0  0  0  0  0  0  0  0  0
    3.2040   -2.9878    2.2582 H   0  0  0  0  0  0  0  0  0  0  0  0
    4.6337   -3.9914    2.4675 H   0  0  0  0  0  0  0  0  0  0  0  0
    3.1990   -3.4702   -0.2108 H   0  0  0  0  0  0  0  0  0  0  0  0
    3.1603   -4.9624    0.7261 H   0  0  0  0  0  0  0  0  0  0  0  0
    4.8130   -5.0930   -1.1747 H   0  0  0  0  0  0  0  0  0  0  0  0
    5.5902   -5.3035    0.4003 H   0  0  0  0  0  0  0  0  0  0  0  0
    5.5241   -2.7312   -1.2536 H   0  0  0  0  0  0  0  0  0  0  0  0
    7.8776   -4.5662   -0.5180 H   0  0  0  0  0  0  0  0  0  0  0  0
    7.9928   -3.0435   -1.4314 H   0  0  0  0  0  0  0  0  0  0  0  0
    7.1227   -4.4339   -2.1242 H   0  0  0  0  0  0  0  0  0  0  0  0
    6.9808   -1.7580    0.5295 H   0  0  0  0  0  0  0  0  0  0  0  0
    6.8831   -3.2794    1.4297 H   0  0  0  0  0  0  0  0  0  0  0  0
  1  2  1  0
  1 22  1  0
  1 23  1  0
  1 24  1  0
  2  3  1  0
  2 25  1  0
  2 26  1  0
  3  4  1  0
  3 27  1  0
  5  4  1  6
  4 28  1  0
  4 29  1  0
  5  6  1  0
  5 16  1  0
  5 21  1  0
  6  7  1  0
  6 30  1  0
  6 31  1  0
  7  8  1  0
  7  9  1  0
  8 32  1  0
  8 33  1  0
  8 34  1  0
  9 10  1  0
  9 35  1  0
  9 36  1  0
 10 11  1  0
 10 37  1  0
 10 38  1  0
 11 12  2  0
 11 15  1  0
 12 13  1  0
 12 39  1  0
 13 14  2  0
 13 40  1  0
 14 15  1  0
 14 41  1  0
 16 17  1  0
 16 42  1  0
 16 43  1  0
 17 18  1  0
 17 44  1  0
 17 45  1  0
 18 19  1  0
 18 46  1  0
 18 47  1  0
 19 20  1  0
 19 21  1  0
 19 48  1  6
 20 49  1  0
 20 50  1  0
 20 51  1  0
 21 52  1  0
 21 53  1  0
M  END

