
     RDKit          3D

 46 48  0  0  0  0  0  0  0  0999 V2000
    2.5774   -0.1722   -1.3667 C   0  0  0  0  0  0  0  0  0  0  0  0
    1.8839   -0.4635   -0.0262 C   0  0  0  0  0  0  0  0  0  0  0  0
    2.5033   -1.6215    0.7250 C   0  0  0  0  0  0  0  0  0  0  0  0
    3.5712   -1.4192    1.6155 C   0  0  0  0  0  0  0  0  0  0  0  0
    4.1701   -2.4892    2.2769 C   0  0  0  0  0  0  0  0  0  0  0  0
    3.7127   -3.8011    2.0768 C   0  0  0  0  0  0  0  0  0  0  0  0
    4.4143   -4.8977    2.8268 C   0  0  0  0  0  0  0  0  0  0  0  0
    5.4724   -4.7105    3.4145 O   0  0  0  0  0  0  0  0  0  0  0  0
    3.7954   -6.1212    2.8180 N   0  0  0  0  0  0  0  0  0  0  0  0
    4.3008   -7.2654    3.4160 C   0  0  0  0  0  0  0  0  0  0  0  0
    5.4654   -7.4820    4.1424 C   0  0  0  0  0  0  0  0  0  0  0  0
    5.4527   -8.8079    4.4877 N   0  0  0  0  0  0  0  0  0  0  0  0
    6.4660   -9.5215    5.2394 C   0  0  0  0  0  0  0  0  0  0  0  0
    4.3800   -9.4521    4.0422 N   0  0  0  0  0  0  0  0  0  0  0  0
    3.6601   -8.5345    3.3856 C   0  0  0  0  0  0  0  0  0  0  0  0
    2.3731   -8.8297    2.7191 C   0  0  0  0  0  0  0  0  0  0  0  0
    1.7491   -7.9459    2.1233 O   0  0  0  0  0  0  0  0  0  0  0  0
    1.9416  -10.1125    2.8282 N   0  0  0  0  0  0  0  0  0  0  0  0
    0.7315  -10.5954    2.1829 C   0  0  0  0  0  0  0  0  0  0  0  0
    0.9860  -11.5669    1.0764 C   0  0  0  0  0  0  0  0  0  0  0  0
    0.8978  -11.4911   -0.2866 C   0  0  0  0  0  0  0  0  0  0  0  0
    1.3093  -12.7700   -0.7923 C   0  0  0  0  0  0  0  0  0  0  0  0
    1.6204  -13.5237    0.3022 C   0  0  0  0  0  0  0  0  0  0  0  0
    1.4267  -12.8065    1.4390 O   0  0  0  0  0  0  0  0  0  0  0  0
    2.6503   -4.0136    1.1826 C   0  0  0  0  0  0  0  0  0  0  0  0
    2.0584   -2.9373    0.5201 C   0  0  0  0  0  0  0  0  0  0  0  0
    2.0999    0.6767   -1.8823 H   0  0  0  0  0  0  0  0  0  0  0  0
    2.5311   -1.0460   -2.0363 H   0  0  0  0  0  0  0  0  0  0  0  0
    3.6409    0.0747   -1.2187 H   0  0  0  0  0  0  0  0  0  0  0  0
    0.8167   -0.6750   -0.2075 H   0  0  0  0  0  0  0  0  0  0  0  0
    1.9194    0.4404    0.6049 H   0  0  0  0  0  0  0  0  0  0  0  0
    3.9361   -0.4033    1.7947 H   0  0  0  0  0  0  0  0  0  0  0  0
    5.0031   -2.3351    2.9653 H   0  0  0  0  0  0  0  0  0  0  0  0
    2.8838   -6.2676    2.3852 H   0  0  0  0  0  0  0  0  0  0  0  0
    6.2605   -6.7991    4.4194 H   0  0  0  0  0  0  0  0  0  0  0  0
    7.2301   -8.8086    5.5745 H   0  0  0  0  0  0  0  0  0  0  0  0
    6.9394  -10.2919    4.6115 H   0  0  0  0  0  0  0  0  0  0  0  0
    6.0126  -10.0072    6.1160 H   0  0  0  0  0  0  0  0  0  0  0  0
    2.5538  -10.7668    3.3058 H   0  0  0  0  0  0  0  0  0  0  0  0
    0.2156   -9.7150    1.7787 H   0  0  0  0  0  0  0  0  0  0  0  0
    0.0733  -11.0613    2.9376 H   0  0  0  0  0  0  0  0  0  0  0  0
    0.5801  -10.6228   -0.8600 H   0  0  0  0  0  0  0  0  0  0  0  0
    1.3650  -13.0838   -1.8326 H   0  0  0  0  0  0  0  0  0  0  0  0
    1.9733  -14.5435    0.4322 H   0  0  0  0  0  0  0  0  0  0  0  0
    2.2789   -5.0207    0.9765 H   0  0  0  0  0  0  0  0  0  0  0  0
    1.2318   -3.1247   -0.1716 H   0  0  0  0  0  0  0  0  0  0  0  0
  1  2  1  0
  1 27  1  0
  1 28  1  0
  1 29  1  0
  2  3  1  0
  2 30  1  0
  2 31  1  0
  3  4  2  0
  3 26  1  0
  4  5  1  0
  4 32  1  0
  5  6  2  0
  5 33  1  0
  6  7  1  0
  6 25  1  0
  7  8  2  0
  7  9  1  0
  9 10  1  0
  9 34  1  0
 10 11  2  0
 10 15  1  0
 11 12  1  0
 11 35  1  0
 12 13  1  0
 12 14  1  0
 13 36  1  0
 13 37  1  0
 13 38  1  0
 14 15  2  0
 15 16  1  0
 16 17  2  0
 16 18  1  0
 18 19  1  0
 18 39  1  0
 19 20  1  0
 19 40  1  0
 19 41  1  0
 20 21  2  0
 20 24  1  0
 21 22  1  0
 21 42  1  0
 22 23  2  0
 22 43  1  0
 23 24  1  0
 23 44  1  0
 25 26  2  0
 25 45  1  0
 26 46  1  0
M  END

