
     RDKit          3D

 44 46  0  0  0  0  0  0  0  0999 V2000
    1.4307    0.8594   -0.1319 C   0  0  0  0  0  0  0  0  0  0  0  0
    1.9545   -0.2728    0.7186 C   0  0  0  0  0  0  0  0  0  0  0  0
    2.0003   -0.1819    2.1151 C   0  0  0  0  0  0  0  0  0  0  0  0
    2.5001   -1.2404    2.8772 C   0  0  0  0  0  0  0  0  0  0  0  0
    2.9760   -2.4155    2.2854 C   0  0  0  0  0  0  0  0  0  0  0  0
    3.5309   -3.5364    3.1305 C   0  0  0  0  0  0  0  0  0  0  0  0
    2.9292   -2.5077    0.8729 C   0  0  0  0  0  0  0  0  0  0  0  0
    3.3679   -3.7187    0.2810 N   0  0  0  0  0  0  0  0  0  0  0  0
    4.0175   -3.9222   -0.8961 C   0  0  0  0  0  0  0  0  0  0  0  0
    4.5500   -2.7687   -1.9850 S   0  0  0  0  0  0  0  0  0  0  0  0
    4.2766   -5.2554   -1.1915 N   0  0  0  0  0  0  0  0  0  0  0  0
    3.9881   -6.4157   -0.5004 C   0  0  0  0  0  0  0  0  0  0  0  0
    3.3622   -6.4549    0.6759 N   0  0  0  0  0  0  0  0  0  0  0  0
    3.2967   -7.7610    1.0199 N   0  0  0  0  0  0  0  0  0  0  0  0
    2.5483   -8.1577    2.2075 C   0  0  0  0  0  0  0  0  0  0  0  0
    1.0703   -8.3779    1.9486 C   0  0  0  0  0  0  0  0  0  0  0  0
    0.1875   -7.2860    1.9597 C   0  0  0  0  0  0  0  0  0  0  0  0
   -1.1747   -7.4459    1.7038 C   0  0  0  0  0  0  0  0  0  0  0  0
   -1.6841   -8.7186    1.4319 C   0  0  0  0  0  0  0  0  0  0  0  0
   -0.8314   -9.8235    1.4142 C   0  0  0  0  0  0  0  0  0  0  0  0
    0.5317   -9.6456    1.6671 C   0  0  0  0  0  0  0  0  0  0  0  0
    1.5656  -11.0694    1.6273 Cl  0  0  0  0  0  0  0  0  0  0  0  0
    3.8515   -8.5633    0.0788 C   0  0  0  0  0  0  0  0  0  0  0  0
    4.3211   -7.7343   -0.9244 C   0  0  0  0  0  0  0  0  0  0  0  0
    5.2255   -8.2120   -2.5004 Br  0  0  0  0  0  0  0  0  0  0  0  0
    2.4183   -1.4489    0.1123 C   0  0  0  0  0  0  0  0  0  0  0  0
    0.9841    1.6549    0.4830 H   0  0  0  0  0  0  0  0  0  0  0  0
    0.6649    0.5084   -0.8428 H   0  0  0  0  0  0  0  0  0  0  0  0
    2.2393    1.3114   -0.7313 H   0  0  0  0  0  0  0  0  0  0  0  0
    1.6451    0.7240    2.6140 H   0  0  0  0  0  0  0  0  0  0  0  0
    2.5322   -1.1497    3.9669 H   0  0  0  0  0  0  0  0  0  0  0  0
    3.6025   -3.2317    4.1844 H   0  0  0  0  0  0  0  0  0  0  0  0
    4.5354   -3.8423    2.7944 H   0  0  0  0  0  0  0  0  0  0  0  0
    2.8984   -4.4414    3.0939 H   0  0  0  0  0  0  0  0  0  0  0  0
    3.2018   -4.5651    0.8331 H   0  0  0  0  0  0  0  0  0  0  0  0
    4.7744   -5.3694   -2.0692 H   0  0  0  0  0  0  0  0  0  0  0  0
    2.6869   -7.3540    2.9430 H   0  0  0  0  0  0  0  0  0  0  0  0
    3.0104   -9.0702    2.6043 H   0  0  0  0  0  0  0  0  0  0  0  0
    0.5876   -6.2911    2.1701 H   0  0  0  0  0  0  0  0  0  0  0  0
   -1.8375   -6.5779    1.7184 H   0  0  0  0  0  0  0  0  0  0  0  0
   -2.7495   -8.8572    1.2328 H   0  0  0  0  0  0  0  0  0  0  0  0
   -1.2119  -10.8243    1.2042 H   0  0  0  0  0  0  0  0  0  0  0  0
    3.8641   -9.6458    0.1747 H   0  0  0  0  0  0  0  0  0  0  0  0
    2.3952   -1.5457   -0.9722 H   0  0  0  0  0  0  0  0  0  0  0  0
  1  2  1  0
  1 27  1  0
  1 28  1  0
  1 29  1  0
  2  3  2  0
  2 26  1  0
  3  4  1  0
  3 30  1  0
  4  5  2  0
  4 31  1  0
  5  6  1  0
  5  7  1  0
  6 32  1  0
  6 33  1  0
  6 34  1  0
  7  8  1  0
  7 26  2  0
  8  9  1  0
  8 35  1  0
  9 10  2  0
  9 11  1  0
 11 12  1  0
 11 36  1  0
 12 13  2  0
 12 24  1  0
 13 14  1  0
 14 15  1  0
 14 23  1  0
 15 16  1  0
 15 37  1  0
 15 38  1  0
 16 17  2  0
 16 21  1  0
 17 18  1  0
 17 39  1  0
 18 19  2  0
 18 40  1  0
 19 20  1  0
 19 41  1  0
 20 21  2  0
 20 42  1  0
 21 22  1  0
 23 24  2  0
 23 43  1  0
 24 25  1  0
 26 44  1  0
M  END

