
     RDKit          3D

 56 60  0  0  0  0  0  0  0  0999 V2000
    3.1679   -0.3527   -6.0107 C   0  0  0  0  0  0  0  0  0  0  0  0
    3.8639    0.4029   -4.8957 C   0  0  0  0  0  0  0  0  0  0  0  0
    3.4953   -0.1972   -3.6621 O   0  0  0  0  0  0  0  0  0  0  0  0
    3.9996    0.2838   -2.5065 C   0  0  0  0  0  0  0  0  0  0  0  0
    4.8697    1.3715   -2.4017 C   0  0  0  0  0  0  0  0  0  0  0  0
    5.3542    1.7902   -1.1496 C   0  0  0  0  0  0  0  0  0  0  0  0
    6.2453    3.0131   -1.0157 C   0  0  2  0  0  0  0  0  0  0  0  0
    6.8870    2.8872   -0.1238 H   0  0  0  0  0  0  0  0  0  0  0  0
    5.4530    4.3448   -0.8829 C   0  0  1  0  0  0  0  0  0  0  0  0
    4.3685    4.1766   -0.9449 H   0  0  0  0  0  0  0  0  0  0  0  0
    5.7408    5.1160    0.4039 C   0  0  0  0  0  0  0  0  0  0  0  0
    5.6799    4.6953    1.5296 O   0  0  0  0  0  0  0  0  0  0  0  0
    6.0879    6.4291    0.0416 N   0  0  0  0  0  0  0  0  0  0  0  0
    6.3113    7.4747    0.9830 C   0  0  0  0  0  0  0  0  0  0  0  0
    7.3266    7.3933    1.9416 C   0  0  0  0  0  0  0  0  0  0  0  0
    7.5151    8.4342    2.8526 C   0  0  0  0  0  0  0  0  0  0  0  0
    6.6945    9.5657    2.8022 C   0  0  0  0  0  0  0  0  0  0  0  0
    5.6759    9.6576    1.8506 C   0  0  0  0  0  0  0  0  0  0  0  0
    5.4876    8.6073    0.9580 C   0  0  0  0  0  0  0  0  0  0  0  0
    4.4968    8.6689    0.0629 F   0  0  0  0  0  0  0  0  0  0  0  0
    6.2316    6.6072   -1.3463 C   0  0  0  0  0  0  0  0  0  0  0  0
    6.5201    7.6335   -1.8959 O   0  0  0  0  0  0  0  0  0  0  0  0
    5.9928    5.2391   -1.9969 C   0  0  1  0  0  0  0  0  0  0  0  0
    5.3552    5.3197   -2.8934 H   0  0  0  0  0  0  0  0  0  0  0  0
    7.2635    4.6892   -2.2998 O   0  0  0  0  0  0  0  0  0  0  0  0
    7.0663    3.2673   -2.2172 N   0  0  0  0  0  0  0  0  0  0  0  0
    8.2797    2.5950   -2.4284 C   0  0  0  0  0  0  0  0  0  0  0  0
    9.2769    3.1722   -3.2440 C   0  0  0  0  0  0  0  0  0  0  0  0
   10.4611    2.4837   -3.5037 C   0  0  0  0  0  0  0  0  0  0  0  0
   10.6896    1.2120   -2.9724 C   0  0  0  0  0  0  0  0  0  0  0  0
    9.6939    0.6628   -2.1678 C   0  0  0  0  0  0  0  0  0  0  0  0
    9.9088   -0.6803   -1.5806 N   0  0  0  0  0  0  0  0  0  0  0  0
   10.9527   -1.2517   -1.8497 O   0  0  0  0  0  0  0  0  0  0  0  0
    9.0308   -1.1331   -0.8639 O   0  0  0  0  0  0  0  0  0  0  0  0
    8.5008    1.3223   -1.8759 C   0  0  0  0  0  0  0  0  0  0  0  0
    4.9581    1.1183    0.0060 C   0  0  0  0  0  0  0  0  0  0  0  0
    4.0797    0.0349   -0.1036 C   0  0  0  0  0  0  0  0  0  0  0  0
    3.5213   -0.9036    1.4682 Br  0  0  0  0  0  0  0  0  0  0  0  0
    3.5845   -0.4086   -1.3349 C   0  0  0  0  0  0  0  0  0  0  0  0
    2.7473   -1.4490   -1.4856 O   0  0  0  0  0  0  0  0  0  0  0  0
    3.4295    0.0851   -6.9864 H   0  0  0  0  0  0  0  0  0  0  0  0
    2.0752   -0.3069   -5.8879 H   0  0  0  0  0  0  0  0  0  0  0  0
    3.4700   -1.4108   -6.0094 H   0  0  0  0  0  0  0  0  0  0  0  0
    3.5681    1.4694   -4.8979 H   0  0  0  0  0  0  0  0  0  0  0  0
    4.9627    0.3643   -5.0184 H   0  0  0  0  0  0  0  0  0  0  0  0
    5.2010    1.9003   -3.2939 H   0  0  0  0  0  0  0  0  0  0  0  0
    7.9617    6.5067    1.9676 H   0  0  0  0  0  0  0  0  0  0  0  0
    8.3079    8.3626    3.6000 H   0  0  0  0  0  0  0  0  0  0  0  0
    6.8451   10.3846    3.5095 H   0  0  0  0  0  0  0  0  0  0  0  0
    5.0163   10.5252    1.7899 H   0  0  0  0  0  0  0  0  0  0  0  0
    9.1101    4.1635   -3.6623 H   0  0  0  0  0  0  0  0  0  0  0  0
   11.2215    2.9503   -4.1343 H   0  0  0  0  0  0  0  0  0  0  0  0
   11.6035    0.6519   -3.1628 H   0  0  0  0  0  0  0  0  0  0  0  0
    7.7709    0.8228   -1.2430 H   0  0  0  0  0  0  0  0  0  0  0  0
    5.3128    1.4360    0.9879 H   0  0  0  0  0  0  0  0  0  0  0  0
    2.5667   -1.8295   -0.6097 H   0  0  0  0  0  0  0  0  0  0  0  0
  1  2  1  0
  1 41  1  0
  1 42  1  0
  1 43  1  0
  2  3  1  0
  2 44  1  0
  2 45  1  0
  3  4  1  0
  4  5  2  0
  4 39  1  0
  5  6  1  0
  5 46  1  0
  6  7  1  0
  6 36  2  0
  7  8  1  1
  7  9  1  0
  7 26  1  0
  9 10  1  6
  9 11  1  0
  9 23  1  0
 11 12  2  0
 11 13  1  0
 13 14  1  0
 13 21  1  0
 14 15  2  0
 14 19  1  0
 15 16  1  0
 15 47  1  0
 16 17  2  0
 16 48  1  0
 17 18  1  0
 17 49  1  0
 18 19  2  0
 18 50  1  0
 19 20  1  0
 21 22  2  0
 21 23  1  0
 23 24  1  6
 23 25  1  0
 25 26  1  0
 26 27  1  0
 27 28  2  0
 27 35  1  0
 28 29  1  0
 28 51  1  0
 29 30  2  0
 29 52  1  0
 30 31  1  0
 30 53  1  0
 31 32  1  0
 31 35  2  0
 32 33  2  0
 32 34  1  0
 35 54  1  0
 36 37  1  0
 36 55  1  0
 37 38  1  0
 37 39  2  0
 39 40  1  0
 40 56  1  0
M  CHG  2  32   1  34  -1
M  END

