
     RDKit          3D

 40 42  0  0  0  0  0  0  0  0999 V2000
    1.2097    0.2378    0.7911 C   0  0  0  0  0  0  0  0  0  0  0  0
    2.4749   -0.2018    0.0406 C   0  0  1  0  0  0  0  0  0  0  0  0
    3.2318    1.0088   -0.5195 C   0  0  0  0  0  0  0  0  0  0  0  0
    3.3373   -1.1413    0.9515 C   0  0  1  0  0  0  0  0  0  0  0  0
    2.6166   -2.4854    1.1191 C   0  0  0  0  0  0  0  0  0  0  0  0
    1.8439   -2.7093    2.0333 O   0  0  0  0  0  0  0  0  0  0  0  0
    2.8977   -3.3717    0.1274 N   0  0  0  0  0  0  0  0  0  0  0  0
    3.7538   -3.0746   -1.0112 C   0  0  2  0  0  0  0  0  0  0  0  0
    4.2318   -4.3591   -1.6532 C   0  0  1  0  0  0  0  0  0  0  0  0
    3.2980   -5.1242   -2.5669 C   0  0  0  0  0  0  0  0  0  0  0  0
    4.5038   -4.4148   -3.1266 C   0  0  0  0  0  0  0  0  0  0  0  0
    4.9533   -2.1962   -0.5849 C   0  0  0  0  0  0  0  0  0  0  0  0
    6.0092   -2.2782   -1.1806 O   0  0  0  0  0  0  0  0  0  0  0  0
    4.7275   -1.3644    0.4994 N   0  0  0  0  0  0  0  0  0  0  0  0
    5.8075   -0.7261    1.1933 C   0  0  0  0  0  0  0  0  0  0  0  0
    7.0925   -1.3040    1.2260 C   0  0  0  0  0  0  0  0  0  0  0  0
    8.1209   -0.6988    1.9474 C   0  0  0  0  0  0  0  0  0  0  0  0
    7.9054    0.4874    2.6552 C   0  0  0  0  0  0  0  0  0  0  0  0
    6.6348    1.0616    2.6317 C   0  0  0  0  0  0  0  0  0  0  0  0
    5.5975    0.4662    1.9084 C   0  0  0  0  0  0  0  0  0  0  0  0
    0.5421    0.8039    0.1227 H   0  0  0  0  0  0  0  0  0  0  0  0
    1.4696    0.8959    1.6376 H   0  0  0  0  0  0  0  0  0  0  0  0
    0.6520   -0.6175    1.1982 H   0  0  0  0  0  0  0  0  0  0  0  0
    2.1515   -0.8037   -0.8279 H   0  0  0  0  0  0  0  0  0  0  0  0
    3.4682    1.7445    0.2648 H   0  0  0  0  0  0  0  0  0  0  0  0
    2.6045    1.5224   -1.2654 H   0  0  0  0  0  0  0  0  0  0  0  0
    4.1737    0.7252   -1.0122 H   0  0  0  0  0  0  0  0  0  0  0  0
    3.3864   -0.7184    1.9605 H   0  0  0  0  0  0  0  0  0  0  0  0
    2.4034   -4.2589    0.1464 H   0  0  0  0  0  0  0  0  0  0  0  0
    3.1970   -2.5005   -1.7806 H   0  0  0  0  0  0  0  0  0  0  0  0
    4.8904   -4.9510   -1.0095 H   0  0  0  0  0  0  0  0  0  0  0  0
    2.3108   -4.6976   -2.7715 H   0  0  0  0  0  0  0  0  0  0  0  0
    3.3083   -6.2163   -2.5149 H   0  0  0  0  0  0  0  0  0  0  0  0
    4.3432   -3.5036   -3.7095 H   0  0  0  0  0  0  0  0  0  0  0  0
    5.3569   -5.0094   -3.4619 H   0  0  0  0  0  0  0  0  0  0  0  0
    7.2920   -2.2202    0.6769 H   0  0  0  0  0  0  0  0  0  0  0  0
    9.1071   -1.1702    1.9564 H   0  0  0  0  0  0  0  0  0  0  0  0
    8.7169    0.9554    3.2172 H   0  0  0  0  0  0  0  0  0  0  0  0
    6.4379    1.9882    3.1769 H   0  0  0  0  0  0  0  0  0  0  0  0
    4.6227    0.9492    1.9099 H   0  0  0  0  0  0  0  0  0  0  0  0
  1  2  1  0
  1 21  1  0
  1 22  1  0
  1 23  1  0
  2  3  1  0
  2  4  1  0
  2 24  1  6
  3 25  1  0
  3 26  1  0
  3 27  1  0
  4  5  1  0
  4 14  1  0
  4 28  1  1
  5  6  2  0
  5  7  1  0
  7  8  1  0
  7 29  1  0
  8  9  1  0
  8 12  1  0
  8 30  1  6
  9 10  1  0
  9 11  1  0
  9 31  1  1
 10 11  1  0
 10 32  1  0
 10 33  1  0
 11 34  1  0
 11 35  1  0
 12 13  2  0
 12 14  1  0
 14 15  1  0
 15 16  2  0
 15 20  1  0
 16 17  1  0
 16 36  1  0
 17 18  2  0
 17 37  1  0
 18 19  1  0
 18 38  1  0
 19 20  2  0
 19 39  1  0
 20 40  1  0
M  END

