
     RDKit          3D

 88 98  0  0  0  0  0  0  0  0999 V2000
    1.0402   -0.7710   -0.0765 C   0  0  0  0  0  0  0  0  0  0  0  0
    1.9826    0.3660    0.4010 C   0  0  1  0  0  0  0  0  0  0  0  0
    1.6173    1.6813   -0.3373 C   0  0  0  0  0  0  0  0  0  0  0  0
    1.7948    0.5704    1.9109 C   0  0  0  0  0  0  0  0  0  0  0  0
    0.5299    0.9258    2.4044 C   0  0  0  0  0  0  0  0  0  0  0  0
    0.2782    1.1279    3.7610 C   0  0  0  0  0  0  0  0  0  0  0  0
    1.3271    0.9706    4.6682 C   0  0  0  0  0  0  0  0  0  0  0  0
    2.5947    0.6184    4.2146 C   0  0  0  0  0  0  0  0  0  0  0  0
    2.8491    0.4135    2.8400 C   0  0  0  0  0  0  0  0  0  0  0  0
    4.1405    0.0573    2.4119 N   0  0  0  0  0  0  0  0  0  0  0  0
    5.1851   -0.0881    3.3837 C   0  0  0  0  0  0  0  0  0  0  0  0
    5.9729    1.0241    3.7315 C   0  0  0  0  0  0  0  0  0  0  0  0
    7.0014    0.9252    4.6725 C   0  0  0  0  0  0  0  0  0  0  0  0
    7.2306   -0.3161    5.2651 C   0  0  0  0  0  0  0  0  0  0  0  0
    6.4349   -1.4709    4.9241 C   0  0  0  0  0  0  0  0  0  0  0  0
    5.4150   -1.3350    3.9792 C   0  0  0  0  0  0  0  0  0  0  0  0
    6.9345   -2.6019    5.7201 C   0  0  0  0  0  0  0  0  0  0  0  0
    6.7332   -3.9686    5.9692 C   0  0  0  0  0  0  0  0  0  0  0  0
    7.5695   -4.6186    6.9104 C   0  0  0  0  0  0  0  0  0  0  0  0
    7.3539   -6.0175    7.1565 N   0  0  0  0  0  0  0  0  0  0  0  0
    6.4619   -6.4068    8.1715 C   0  0  0  0  0  0  0  0  0  0  0  0
    5.7933   -5.4246    8.9362 C   0  0  0  0  0  0  0  0  0  0  0  0
    4.9051   -5.7790    9.9473 C   0  0  0  0  0  0  0  0  0  0  0  0
    4.6599   -7.1251   10.2229 C   0  0  0  0  0  0  0  0  0  0  0  0
    5.3196   -8.0942    9.4679 C   0  0  0  0  0  0  0  0  0  0  0  0
    6.2215   -7.7741    8.4412 C   0  0  0  0  0  0  0  0  0  0  0  0
    6.9008   -8.9059    7.6575 C   0  0  1  0  0  0  0  0  0  0  0  0
    7.7067   -9.7926    8.6437 C   0  0  0  0  0  0  0  0  0  0  0  0
    5.8104   -9.7665    6.9652 C   0  0  0  0  0  0  0  0  0  0  0  0
    7.8533   -8.3514    6.5889 C   0  0  0  0  0  0  0  0  0  0  0  0
    8.5707   -9.2442    5.7777 C   0  0  0  0  0  0  0  0  0  0  0  0
    9.4525   -8.8201    4.7841 C   0  0  0  0  0  0  0  0  0  0  0  0
    9.6305   -7.4500    4.5863 C   0  0  0  0  0  0  0  0  0  0  0  0
    8.9354   -6.5356    5.3721 C   0  0  0  0  0  0  0  0  0  0  0  0
    8.0420   -6.9656    6.3788 C   0  0  0  0  0  0  0  0  0  0  0  0
    8.6075   -3.9660    7.6228 C   0  0  0  0  0  0  0  0  0  0  0  0
    8.8293   -2.5999    7.3924 C   0  0  0  0  0  0  0  0  0  0  0  0
    9.6811   -1.4681    7.7899 C   0  0  0  0  0  0  0  0  0  0  0  0
   10.7448   -1.3292    8.6864 C   0  0  0  0  0  0  0  0  0  0  0  0
   11.3573   -0.0812    8.8369 C   0  0  0  0  0  0  0  0  0  0  0  0
   10.9177    1.0299    8.1008 C   0  0  0  0  0  0  0  0  0  0  0  0
    9.8563    0.9294    7.1944 C   0  0  0  0  0  0  0  0  0  0  0  0
    9.2448   -0.3138    7.0432 C   0  0  0  0  0  0  0  0  0  0  0  0
    8.1747   -0.7116    6.2229 N   0  0  0  0  0  0  0  0  0  0  0  0
    7.9685   -2.0399    6.4573 C   0  0  0  0  0  0  0  0  0  0  0  0
    4.4344   -0.1501    1.0523 C   0  0  0  0  0  0  0  0  0  0  0  0
    5.7456   -0.5021    0.6612 C   0  0  0  0  0  0  0  0  0  0  0  0
    6.0663   -0.7143   -0.6762 C   0  0  0  0  0  0  0  0  0  0  0  0
    5.0858   -0.5806   -1.6604 C   0  0  0  0  0  0  0  0  0  0  0  0
    3.7918   -0.2331   -1.2739 C   0  0  0  0  0  0  0  0  0  0  0  0
    3.4321   -0.0114    0.0645 C   0  0  0  0  0  0  0  0  0  0  0  0
   -0.0130   -0.5294    0.1328 H   0  0  0  0  0  0  0  0  0  0  0  0
    1.2799   -1.7162    0.4338 H   0  0  0  0  0  0  0  0  0  0  0  0
    1.1338   -0.9369   -1.1605 H   0  0  0  0  0  0  0  0  0  0  0  0
    0.5767    1.9765   -0.1341 H   0  0  0  0  0  0  0  0  0  0  0  0
    1.7231    1.5693   -1.4271 H   0  0  0  0  0  0  0  0  0  0  0  0
    2.2732    2.5044   -0.0151 H   0  0  0  0  0  0  0  0  0  0  0  0
   -0.2938    1.0493    1.6978 H   0  0  0  0  0  0  0  0  0  0  0  0
   -0.7224    1.4034    4.1014 H   0  0  0  0  0  0  0  0  0  0  0  0
    1.1642    1.1211    5.7386 H   0  0  0  0  0  0  0  0  0  0  0  0
    3.4028    0.4990    4.9346 H   0  0  0  0  0  0  0  0  0  0  0  0
    5.7675    1.9816    3.2487 H   0  0  0  0  0  0  0  0  0  0  0  0
    7.6033    1.7977    4.9307 H   0  0  0  0  0  0  0  0  0  0  0  0
    4.7935   -2.1871    3.6969 H   0  0  0  0  0  0  0  0  0  0  0  0
    5.9594   -4.5543    5.4692 H   0  0  0  0  0  0  0  0  0  0  0  0
    5.9739   -4.3703    8.7327 H   0  0  0  0  0  0  0  0  0  0  0  0
    4.4044   -4.9937   10.5195 H   0  0  0  0  0  0  0  0  0  0  0  0
    3.9654   -7.4194   11.0129 H   0  0  0  0  0  0  0  0  0  0  0  0
    5.1243   -9.1465    9.6860 H   0  0  0  0  0  0  0  0  0  0  0  0
    7.0531  -10.2242    9.4169 H   0  0  0  0  0  0  0  0  0  0  0  0
    8.4876   -9.2038    9.1486 H   0  0  0  0  0  0  0  0  0  0  0  0
    8.1962  -10.6278    8.1201 H   0  0  0  0  0  0  0  0  0  0  0  0
    5.1147  -10.1959    7.7021 H   0  0  0  0  0  0  0  0  0  0  0  0
    6.2583  -10.6015    6.4050 H   0  0  0  0  0  0  0  0  0  0  0  0
    5.2245   -9.1590    6.2587 H   0  0  0  0  0  0  0  0  0  0  0  0
    8.4336  -10.3172    5.9289 H   0  0  0  0  0  0  0  0  0  0  0  0
    9.9904   -9.5502    4.1754 H   0  0  0  0  0  0  0  0  0  0  0  0
   10.3138   -7.0832    3.8159 H   0  0  0  0  0  0  0  0  0  0  0  0
    9.0847   -5.4700    5.2056 H   0  0  0  0  0  0  0  0  0  0  0  0
    9.2001   -4.5516    8.3284 H   0  0  0  0  0  0  0  0  0  0  0  0
   11.0934   -2.1891    9.2634 H   0  0  0  0  0  0  0  0  0  0  0  0
   12.1887    0.0315    9.5363 H   0  0  0  0  0  0  0  0  0  0  0  0
   11.4121    1.9950    8.2355 H   0  0  0  0  0  0  0  0  0  0  0  0
    9.5217    1.7991    6.6267 H   0  0  0  0  0  0  0  0  0  0  0  0
    6.5215   -0.6106    1.4175 H   0  0  0  0  0  0  0  0  0  0  0  0
    7.0905   -0.9861   -0.9446 H   0  0  0  0  0  0  0  0  0  0  0  0
    5.3216   -0.7444   -2.7143 H   0  0  0  0  0  0  0  0  0  0  0  0
    3.0272   -0.1301   -2.0471 H   0  0  0  0  0  0  0  0  0  0  0  0
  2  1  1  6
  1 52  1  0
  1 53  1  0
  1 54  1  0
  2  3  1  0
  2  4  1  0
  2 51  1  0
  3 55  1  0
  3 56  1  0
  3 57  1  0
  4  5  1  0
  4  9  2  0
  5  6  2  0
  5 58  1  0
  6  7  1  0
  6 59  1  0
  7  8  2  0
  7 60  1  0
  8  9  1  0
  8 61  1  0
  9 10  1  0
 10 11  1  0
 10 46  1  0
 11 12  2  0
 11 16  1  0
 12 13  1  0
 12 62  1  0
 13 14  2  0
 13 63  1  0
 14 15  1  0
 14 44  1  0
 15 16  2  0
 15 17  1  0
 16 64  1  0
 17 18  2  0
 17 45  1  0
 18 19  1  0
 18 65  1  0
 19 20  1  0
 19 36  2  0
 20 21  1  0
 20 35  1  0
 21 22  2  0
 21 26  1  0
 22 23  1  0
 22 66  1  0
 23 24  2  0
 23 67  1  0
 24 25  1  0
 24 68  1  0
 25 26  2  0
 25 69  1  0
 26 27  1  0
 27 28  1  1
 27 29  1  0
 27 30  1  0
 28 70  1  0
 28 71  1  0
 28 72  1  0
 29 73  1  0
 29 74  1  0
 29 75  1  0
 30 31  2  0
 30 35  1  0
 31 32  1  0
 31 76  1  0
 32 33  2  0
 32 77  1  0
 33 34  1  0
 33 78  1  0
 34 35  2  0
 34 79  1  0
 36 37  1  0
 36 80  1  0
 37 38  1  0
 37 45  2  0
 38 39  1  0
 38 43  2  0
 39 40  2  0
 39 81  1  0
 40 41  1  0
 40 82  1  0
 41 42  2  0
 41 83  1  0
 42 43  1  0
 42 84  1  0
 43 44  1  0
 44 45  1  0
 46 47  1  0
 46 51  2  0
 47 48  2  0
 47 85  1  0
 48 49  1  0
 48 86  1  0
 49 50  2  0
 49 87  1  0
 50 51  1  0
 50 88  1  0
M  END

