
     RDKit          3D

 42 44  0  0  0  0  0  0  0  0999 V2000
    1.0090   -1.0215   -0.6965 C   0  0  0  0  0  0  0  0  0  0  0  0
    2.3883   -0.7245   -0.5014 O   0  0  0  0  0  0  0  0  0  0  0  0
    2.9983   -1.4217    0.4784 C   0  0  0  0  0  0  0  0  0  0  0  0
    2.4446   -2.2400    1.1744 O   0  0  0  0  0  0  0  0  0  0  0  0
    4.3395   -1.0810    0.5866 N   0  0  0  0  0  0  0  0  0  0  0  0
    4.9527    0.0020   -0.1266 C   0  0  0  0  0  0  0  0  0  0  0  0
    4.4586    1.3110   -0.0365 C   0  0  0  0  0  0  0  0  0  0  0  0
    5.0919    2.3543   -0.7041 C   0  0  0  0  0  0  0  0  0  0  0  0
    6.2464    2.1307   -1.4839 C   0  0  0  0  0  0  0  0  0  0  0  0
    6.8141    3.2111   -2.1587 N   0  0  0  0  0  0  0  0  0  0  0  0
    8.1053    3.3840   -2.6640 C   0  0  0  0  0  0  0  0  0  0  0  0
    8.3006    4.3218   -3.6993 C   0  0  0  0  0  0  0  0  0  0  0  0
    9.5741    4.5700   -4.2086 C   0  0  0  0  0  0  0  0  0  0  0  0
   10.6856    3.8813   -3.7118 C   0  0  0  0  0  0  0  0  0  0  0  0
   10.4999    2.9532   -2.6833 C   0  0  0  0  0  0  0  0  0  0  0  0
    9.2312    2.7067   -2.1544 C   0  0  0  0  0  0  0  0  0  0  0  0
    6.7336    0.8119   -1.5764 C   0  0  0  0  0  0  0  0  0  0  0  0
    6.0921   -0.2298   -0.9074 C   0  0  0  0  0  0  0  0  0  0  0  0
    5.1329   -1.8124    1.5255 C   0  0  0  0  0  0  0  0  0  0  0  0
    5.5875   -1.1686    2.6856 C   0  0  0  0  0  0  0  0  0  0  0  0
    6.3724   -1.8372    3.6242 C   0  0  0  0  0  0  0  0  0  0  0  0
    6.7088   -3.1778    3.4172 C   0  0  0  0  0  0  0  0  0  0  0  0
    6.2716   -3.8373    2.2670 C   0  0  0  0  0  0  0  0  0  0  0  0
    5.4982   -3.1561    1.3223 C   0  0  0  0  0  0  0  0  0  0  0  0
    4.9881   -4.0805   -0.2643 Br  0  0  0  0  0  0  0  0  0  0  0  0
    0.6707   -0.3677   -1.5104 H   0  0  0  0  0  0  0  0  0  0  0  0
    0.4277   -0.8245    0.2173 H   0  0  0  0  0  0  0  0  0  0  0  0
    0.8696   -2.0772   -0.9745 H   0  0  0  0  0  0  0  0  0  0  0  0
    3.5700    1.5135    0.5636 H   0  0  0  0  0  0  0  0  0  0  0  0
    4.6967    3.3702   -0.6130 H   0  0  0  0  0  0  0  0  0  0  0  0
    6.1870    3.9897   -2.3191 H   0  0  0  0  0  0  0  0  0  0  0  0
    7.4362    4.8545   -4.1069 H   0  0  0  0  0  0  0  0  0  0  0  0
    9.6960    5.3036   -5.0100 H   0  0  0  0  0  0  0  0  0  0  0  0
   11.6821    4.0687   -4.1177 H   0  0  0  0  0  0  0  0  0  0  0  0
   11.3586    2.4168   -2.2704 H   0  0  0  0  0  0  0  0  0  0  0  0
    9.1194    2.0061   -1.3268 H   0  0  0  0  0  0  0  0  0  0  0  0
    7.5969    0.5890   -2.2028 H   0  0  0  0  0  0  0  0  0  0  0  0
    6.4730   -1.2482   -1.0075 H   0  0  0  0  0  0  0  0  0  0  0  0
    5.3069   -0.1244    2.8388 H   0  0  0  0  0  0  0  0  0  0  0  0
    6.7124   -1.3141    4.5209 H   0  0  0  0  0  0  0  0  0  0  0  0
    7.3168   -3.7158    4.1485 H   0  0  0  0  0  0  0  0  0  0  0  0
    6.5368   -4.8809    2.0905 H   0  0  0  0  0  0  0  0  0  0  0  0
  1  2  1  0
  1 26  1  0
  1 27  1  0
  1 28  1  0
  2  3  1  0
  3  4  2  0
  3  5  1  0
  5  6  1  0
  5 19  1  0
  6  7  2  0
  6 18  1  0
  7  8  1  0
  7 29  1  0
  8  9  2  0
  8 30  1  0
  9 10  1  0
  9 17  1  0
 10 11  1  0
 10 31  1  0
 11 12  2  0
 11 16  1  0
 12 13  1  0
 12 32  1  0
 13 14  2  0
 13 33  1  0
 14 15  1  0
 14 34  1  0
 15 16  2  0
 15 35  1  0
 16 36  1  0
 17 18  2  0
 17 37  1  0
 18 38  1  0
 19 20  2  0
 19 24  1  0
 20 21  1  0
 20 39  1  0
 21 22  2  0
 21 40  1  0
 22 23  1  0
 22 41  1  0
 23 24  2  0
 23 42  1  0
 24 25  1  0
M  END

