
     RDKit          3D

 33 34  0  0  0  0  0  0  0  0999 V2000
    2.3078   -1.1943    0.1992 C   0  0  0  0  0  0  0  0  0  0  0  0
    2.6058    0.1557   -0.2269 N   0  0  0  0  0  0  0  0  0  0  0  0
    1.5473    0.7546   -1.0147 C   0  0  0  0  0  0  0  0  0  0  0  0
    3.1146    1.0027    0.8420 C   0  0  0  0  0  0  0  0  0  0  0  0
    4.6432    0.9132    0.9770 C   0  0  2  0  0  0  0  0  0  0  0  0
    5.1556    1.4312    2.3313 C   0  0  0  0  0  0  0  0  0  0  0  0
    6.6066    1.0877    2.6372 C   0  0  0  0  0  0  0  0  0  0  0  0
    7.5631    1.8141    1.8758 O   0  0  0  0  0  0  0  0  0  0  0  0
    7.7968    1.5108    0.5675 C   0  0  0  0  0  0  0  0  0  0  0  0
    9.1492    1.4023    0.2038 C   0  0  0  0  0  0  0  0  0  0  0  0
    9.5292    1.1954   -1.1182 C   0  0  0  0  0  0  0  0  0  0  0  0
    8.5418    1.1089   -2.1064 C   0  0  0  0  0  0  0  0  0  0  0  0
    9.0026    0.8524   -3.7746 Cl  0  0  0  0  0  0  0  0  0  0  0  0
    7.1989    1.2382   -1.7690 C   0  0  0  0  0  0  0  0  0  0  0  0
    6.8014    1.4222   -0.4313 C   0  0  0  0  0  0  0  0  0  0  0  0
    5.3201    1.6075   -0.2115 C   0  0  0  0  0  0  0  0  0  0  0  0
    4.6809    2.2514   -1.0172 O   0  0  0  0  0  0  0  0  0  0  0  0
    2.0732   -1.8271   -0.6719 H   0  0  0  0  0  0  0  0  0  0  0  0
    1.4449   -1.2568    0.9048 H   0  0  0  0  0  0  0  0  0  0  0  0
    3.1777   -1.6449    0.7047 H   0  0  0  0  0  0  0  0  0  0  0  0
    1.3004    0.1002   -1.8666 H   0  0  0  0  0  0  0  0  0  0  0  0
    1.8887    1.7185   -1.4202 H   0  0  0  0  0  0  0  0  0  0  0  0
    0.6043    0.9258   -0.4440 H   0  0  0  0  0  0  0  0  0  0  0  0
    2.6486    0.7509    1.8203 H   0  0  0  0  0  0  0  0  0  0  0  0
    2.8498    2.0476    0.6268 H   0  0  0  0  0  0  0  0  0  0  0  0
    4.9346   -0.1515    0.9040 H   0  0  0  0  0  0  0  0  0  0  0  0
    4.5392    0.9789    3.1274 H   0  0  0  0  0  0  0  0  0  0  0  0
    5.0157    2.5233    2.4105 H   0  0  0  0  0  0  0  0  0  0  0  0
    6.7797    0.0018    2.5112 H   0  0  0  0  0  0  0  0  0  0  0  0
    6.8349    1.3426    3.6828 H   0  0  0  0  0  0  0  0  0  0  0  0
    9.8967    1.4963    0.9938 H   0  0  0  0  0  0  0  0  0  0  0  0
   10.5825    1.1028   -1.3881 H   0  0  0  0  0  0  0  0  0  0  0  0
    6.4302    1.2086   -2.5420 H   0  0  0  0  0  0  0  0  0  0  0  0
  1  2  1  0
  1 18  1  0
  1 19  1  0
  1 20  1  0
  2  3  1  0
  2  4  1  0
  3 21  1  0
  3 22  1  0
  3 23  1  0
  4  5  1  0
  4 24  1  0
  4 25  1  0
  5  6  1  0
  5 16  1  0
  5 26  1  6
  6  7  1  0
  6 27  1  0
  6 28  1  0
  7  8  1  0
  7 29  1  0
  7 30  1  0
  8  9  1  0
  9 10  2  0
  9 15  1  0
 10 11  1  0
 10 31  1  0
 11 12  2  0
 11 32  1  0
 12 13  1  0
 12 14  1  0
 14 15  2  0
 14 33  1  0
 15 16  1  0
 16 17  2  0
M  END

