
     RDKit          3D

 38 39  0  0  0  0  0  0  0  0999 V2000
    3.8000   -2.5516    0.0805 N   0  0  0  0  0  0  0  0  0  0  0  0
    3.8288   -1.4076   -0.0960 C   0  0  0  0  0  0  0  0  0  0  0  0
    3.8569    0.0354   -0.3355 C   0  0  1  0  0  0  0  0  0  0  0  0
    4.1889    0.8212    0.9815 C   0  0  0  0  0  0  0  0  0  0  0  0
    4.8304    0.3030    1.8580 O   0  0  0  0  0  0  0  0  0  0  0  0
    3.6604    2.2380    1.0462 C   0  0  0  0  0  0  0  0  0  0  0  0
    2.2417    2.2601    1.6311 C   0  0  0  0  0  0  0  0  0  0  0  0
    1.6893    3.6772    1.7287 C   0  0  0  0  0  0  0  0  0  0  0  0
    2.3527    4.6236    1.3526 O   0  0  0  0  0  0  0  0  0  0  0  0
    0.3161    3.9096    2.2972 C   0  0  0  0  0  0  0  0  0  0  0  0
   -0.1266    5.2458    2.3842 C   0  0  0  0  0  0  0  0  0  0  0  0
   -1.3747    5.5817    2.8930 C   0  0  0  0  0  0  0  0  0  0  0  0
   -2.2127    4.5529    3.3302 C   0  0  0  0  0  0  0  0  0  0  0  0
   -3.4146    4.8537    3.8218 F   0  0  0  0  0  0  0  0  0  0  0  0
   -1.8294    3.2165    3.2674 C   0  0  0  0  0  0  0  0  0  0  0  0
   -0.5708    2.9189    2.7517 C   0  0  0  0  0  0  0  0  0  0  0  0
   -0.2278    1.6230    2.7003 F   0  0  0  0  0  0  0  0  0  0  0  0
    4.8634    0.4421   -1.4139 C   0  0  0  0  0  0  0  0  0  0  0  0
    6.0651   -0.2559   -1.6033 C   0  0  0  0  0  0  0  0  0  0  0  0
    6.9466    0.1960   -2.5822 C   0  0  0  0  0  0  0  0  0  0  0  0
    6.6033    1.3265   -3.3303 C   0  0  0  0  0  0  0  0  0  0  0  0
    7.5013    1.8217   -4.4368 C   0  0  1  0  0  0  0  0  0  0  0  0
    8.7971    1.6263   -4.1405 F   0  0  0  0  0  0  0  0  0  0  0  0
    7.2583    1.1760   -5.5914 F   0  0  0  0  0  0  0  0  0  0  0  0
    7.3254    3.1321   -4.6691 F   0  0  0  0  0  0  0  0  0  0  0  0
    5.3878    1.9628   -3.0534 C   0  0  0  0  0  0  0  0  0  0  0  0
    4.5413    1.5296   -2.1197 N   0  0  0  0  0  0  0  0  0  0  0  0
    2.8672    0.3570   -0.6954 H   0  0  0  0  0  0  0  0  0  0  0  0
    3.6568    2.6912    0.0441 H   0  0  0  0  0  0  0  0  0  0  0  0
    4.3331    2.8226    1.6892 H   0  0  0  0  0  0  0  0  0  0  0  0
    2.2218    1.8011    2.6336 H   0  0  0  0  0  0  0  0  0  0  0  0
    1.5395    1.6554    1.0317 H   0  0  0  0  0  0  0  0  0  0  0  0
    0.5604    6.0169    2.0310 H   0  0  0  0  0  0  0  0  0  0  0  0
   -1.7127    6.6170    2.9592 H   0  0  0  0  0  0  0  0  0  0  0  0
   -2.4911    2.4207    3.6105 H   0  0  0  0  0  0  0  0  0  0  0  0
    6.2976   -1.1356   -1.0008 H   0  0  0  0  0  0  0  0  0  0  0  0
    7.8933   -0.3187   -2.7590 H   0  0  0  0  0  0  0  0  0  0  0  0
    5.0943    2.8597   -3.6077 H   0  0  0  0  0  0  0  0  0  0  0  0
  1  2  3  0
  2  3  1  0
  3  4  1  0
  3 18  1  0
  3 28  1  6
  4  5  2  0
  4  6  1  0
  6  7  1  0
  6 29  1  0
  6 30  1  0
  7  8  1  0
  7 31  1  0
  7 32  1  0
  8  9  2  0
  8 10  1  0
 10 11  2  0
 10 16  1  0
 11 12  1  0
 11 33  1  0
 12 13  2  0
 12 34  1  0
 13 14  1  0
 13 15  1  0
 15 16  2  0
 15 35  1  0
 16 17  1  0
 18 19  2  0
 18 27  1  0
 19 20  1  0
 19 36  1  0
 20 21  2  0
 20 37  1  0
 21 22  1  0
 21 26  1  0
 22 23  1  1
 22 24  1  0
 22 25  1  0
 26 27  2  0
 26 38  1  0
M  END

