
     RDKit          3D

 28 28  0  0  0  0  0  0  0  0999 V2000
    1.0487   -0.2702   -0.5703 C   0  0  0  0  0  0  0  0  0  0  0  0
    2.3871   -0.3628   -0.1617 O   0  0  0  0  0  0  0  0  0  0  0  0
    3.1997   -1.1172   -1.0250 C   0  0  0  0  0  0  0  0  0  0  0  0
    4.6228   -1.1068   -0.4627 C   0  0  1  0  0  0  0  0  0  0  0  0
    4.7349   -1.8056    0.8790 C   0  0  0  0  0  0  0  0  0  0  0  0
    5.5181   -1.7832   -1.3733 O   0  0  0  0  0  0  0  0  0  0  0  0
    5.9738   -1.1112   -2.4759 C   0  0  0  0  0  0  0  0  0  0  0  0
    5.4813   -1.5289   -3.7426 C   0  0  0  0  0  0  0  0  0  0  0  0
    4.5152   -2.5167   -3.7791 N   0  0  0  0  0  0  0  0  0  0  0  0
    5.9592   -0.9099   -4.9094 C   0  0  0  0  0  0  0  0  0  0  0  0
    6.9137    0.0958   -4.8055 C   0  0  0  0  0  0  0  0  0  0  0  0
    7.3563    0.6796   -5.9297 F   0  0  0  0  0  0  0  0  0  0  0  0
    7.4388    0.5081   -3.5856 C   0  0  0  0  0  0  0  0  0  0  0  0
    6.9633   -0.1204   -2.4288 C   0  0  0  0  0  0  0  0  0  0  0  0
    7.7418    0.3653   -0.7576 Br  0  0  0  0  0  0  0  0  0  0  0  0
    0.5122    0.3418    0.1695 H   0  0  0  0  0  0  0  0  0  0  0  0
    0.5613   -1.2652   -0.6253 H   0  0  0  0  0  0  0  0  0  0  0  0
    0.9507    0.2107   -1.5647 H   0  0  0  0  0  0  0  0  0  0  0  0
    3.1937   -0.6926   -2.0486 H   0  0  0  0  0  0  0  0  0  0  0  0
    2.8332   -2.1637   -1.1053 H   0  0  0  0  0  0  0  0  0  0  0  0
    4.9357   -0.0549   -0.3611 H   0  0  0  0  0  0  0  0  0  0  0  0
    4.4965   -2.8765    0.7732 H   0  0  0  0  0  0  0  0  0  0  0  0
    4.0263   -1.3562    1.5889 H   0  0  0  0  0  0  0  0  0  0  0  0
    5.7560   -1.7137    1.2762 H   0  0  0  0  0  0  0  0  0  0  0  0
    4.4913   -3.1097   -2.9560 H   0  0  0  0  0  0  0  0  0  0  0  0
    4.4043   -3.0117   -4.6558 H   0  0  0  0  0  0  0  0  0  0  0  0
    5.5939   -1.2036   -5.8952 H   0  0  0  0  0  0  0  0  0  0  0  0
    8.2038    1.2824   -3.5455 H   0  0  0  0  0  0  0  0  0  0  0  0
  1  2  1  0
  1 16  1  0
  1 17  1  0
  1 18  1  0
  2  3  1  0
  3  4  1  0
  3 19  1  0
  3 20  1  0
  4  5  1  0
  4  6  1  0
  4 21  1  1
  5 22  1  0
  5 23  1  0
  5 24  1  0
  6  7  1  0
  7  8  2  0
  7 14  1  0
  8  9  1  0
  8 10  1  0
  9 25  1  0
  9 26  1  0
 10 11  2  0
 10 27  1  0
 11 12  1  0
 11 13  1  0
 13 14  2  0
 13 28  1  0
 14 15  1  0
M  END

