
     RDKit          3D

 78 83  0  0  0  0  0  0  0  0999 V2000
    2.4168   -0.1980   -2.3609 C   0  0  0  0  0  0  0  0  0  0  0  0
    2.7871   -0.7776   -0.9949 C   0  0  0  0  0  0  0  0  0  0  0  0
    4.1607   -1.4586   -0.9743 C   0  0  0  0  0  0  0  0  0  0  0  0
    4.4963   -2.0771    0.3895 C   0  0  0  0  0  0  0  0  0  0  0  0
    5.9068   -2.7312    0.5246 C   0  0  2  0  0  0  0  0  0  0  0  0
    7.0749   -1.7260    0.5579 C   0  0  0  0  0  0  0  0  0  0  0  0
    6.9040   -0.3339    0.5904 C   0  0  0  0  0  0  0  0  0  0  0  0
    8.0056    0.5289    0.6086 C   0  0  0  0  0  0  0  0  0  0  0  0
    9.3037    0.0161    0.5968 C   0  0  0  0  0  0  0  0  0  0  0  0
    9.4904   -1.3693    0.5659 C   0  0  0  0  0  0  0  0  0  0  0  0
    8.3890   -2.2264    0.5431 C   0  0  0  0  0  0  0  0  0  0  0  0
    6.1916   -3.6279   -0.6055 N   0  0  0  0  0  0  0  0  0  0  0  0
    5.5224   -4.8245   -0.7508 C   0  0  0  0  0  0  0  0  0  0  0  0
    5.3255   -5.4535   -2.0056 C   0  0  0  0  0  0  0  0  0  0  0  0
    5.8147   -4.8575   -3.2794 C   0  0  0  0  0  0  0  0  0  0  0  0
    7.1623   -4.4732   -3.4559 C   0  0  0  0  0  0  0  0  0  0  0  0
    7.6162   -3.9439   -4.6595 C   0  0  0  0  0  0  0  0  0  0  0  0
    6.7356   -3.7818   -5.7430 C   0  0  0  0  0  0  0  0  0  0  0  0
    7.2675   -3.2577   -6.8763 O   0  0  0  0  0  0  0  0  0  0  0  0
    6.4439   -3.0746   -8.0050 C   0  0  0  0  0  0  0  0  0  0  0  0
    5.3937   -4.1630   -5.5931 C   0  0  0  0  0  0  0  0  0  0  0  0
    4.9519   -4.6898   -4.3747 C   0  0  0  0  0  0  0  0  0  0  0  0
    4.6130   -6.6618   -2.0132 C   0  0  0  0  0  0  0  0  0  0  0  0
    4.1330   -7.2516   -0.8437 C   0  0  0  0  0  0  0  0  0  0  0  0
    4.3637   -6.6691    0.4135 C   0  0  0  0  0  0  0  0  0  0  0  0
    3.8801   -7.3462    1.6429 C   0  0  0  0  0  0  0  0  0  0  0  0
    3.9585   -8.7511    1.7593 C   0  0  0  0  0  0  0  0  0  0  0  0
    3.4895   -9.4183    2.8844 C   0  0  0  0  0  0  0  0  0  0  0  0
    2.9129   -8.6995    3.9454 C   0  0  0  0  0  0  0  0  0  0  0  0
    2.4813   -9.4327    5.0045 O   0  0  0  0  0  0  0  0  0  0  0  0
    1.9005   -8.7748    6.1061 C   0  0  0  0  0  0  0  0  0  0  0  0
    2.8209   -7.3030    3.8513 C   0  0  0  0  0  0  0  0  0  0  0  0
    3.3033   -6.6460    2.7155 C   0  0  0  0  0  0  0  0  0  0  0  0
    5.0774   -5.4420    0.4499 C   0  0  0  0  0  0  0  0  0  0  0  0
    5.4452   -4.8778    1.6615 N   0  0  0  0  0  0  0  0  0  0  0  0
    5.8820   -3.6716    1.7717 C   0  0  0  0  0  0  0  0  0  0  0  0
    6.3046   -3.2348    3.1335 C   0  0  0  0  0  0  0  0  0  0  0  0
    6.2554   -1.8996    3.5753 C   0  0  0  0  0  0  0  0  0  0  0  0
    6.6089   -1.5626    4.8846 C   0  0  0  0  0  0  0  0  0  0  0  0
    7.0309   -2.5493    5.7784 C   0  0  0  0  0  0  0  0  0  0  0  0
    7.0846   -3.8823    5.3545 C   0  0  0  0  0  0  0  0  0  0  0  0
    6.7203   -4.2208    4.0530 C   0  0  0  0  0  0  0  0  0  0  0  0
    1.4256    0.2825   -2.3414 H   0  0  0  0  0  0  0  0  0  0  0  0
    2.3920   -0.9831   -3.1349 H   0  0  0  0  0  0  0  0  0  0  0  0
    3.1483    0.5607   -2.6865 H   0  0  0  0  0  0  0  0  0  0  0  0
    2.0171   -1.5055   -0.6810 H   0  0  0  0  0  0  0  0  0  0  0  0
    2.7650    0.0254   -0.2352 H   0  0  0  0  0  0  0  0  0  0  0  0
    4.9311   -0.7276   -1.2740 H   0  0  0  0  0  0  0  0  0  0  0  0
    4.1785   -2.2473   -1.7455 H   0  0  0  0  0  0  0  0  0  0  0  0
    3.7526   -2.8635    0.5990 H   0  0  0  0  0  0  0  0  0  0  0  0
    4.3647   -1.3314    1.1908 H   0  0  0  0  0  0  0  0  0  0  0  0
    5.9040    0.1004    0.6103 H   0  0  0  0  0  0  0  0  0  0  0  0
    7.8424    1.6095    0.6313 H   0  0  0  0  0  0  0  0  0  0  0  0
   10.1640    0.6900    0.6121 H   0  0  0  0  0  0  0  0  0  0  0  0
   10.5006   -1.7868    0.5617 H   0  0  0  0  0  0  0  0  0  0  0  0
    8.5452   -3.3065    0.5153 H   0  0  0  0  0  0  0  0  0  0  0  0
    6.4683   -3.1586   -1.4600 H   0  0  0  0  0  0  0  0  0  0  0  0
    7.8743   -4.6161   -2.6391 H   0  0  0  0  0  0  0  0  0  0  0  0
    8.6610   -3.6560   -4.7933 H   0  0  0  0  0  0  0  0  0  0  0  0
    7.0802   -2.6468   -8.7914 H   0  0  0  0  0  0  0  0  0  0  0  0
    5.6122   -2.3762   -7.8000 H   0  0  0  0  0  0  0  0  0  0  0  0
    6.0224   -4.0299   -8.3674 H   0  0  0  0  0  0  0  0  0  0  0  0
    4.6823   -4.0496   -6.4115 H   0  0  0  0  0  0  0  0  0  0  0  0
    3.9005   -4.9702   -4.2716 H   0  0  0  0  0  0  0  0  0  0  0  0
    4.4362   -7.1556   -2.9722 H   0  0  0  0  0  0  0  0  0  0  0  0
    3.5610   -8.1788   -0.9079 H   0  0  0  0  0  0  0  0  0  0  0  0
    4.4220   -9.3302    0.9573 H   0  0  0  0  0  0  0  0  0  0  0  0
    3.5657  -10.5041    2.9730 H   0  0  0  0  0  0  0  0  0  0  0  0
    1.6344   -9.5544    6.8330 H   0  0  0  0  0  0  0  0  0  0  0  0
    0.9847   -8.2243    5.8230 H   0  0  0  0  0  0  0  0  0  0  0  0
    2.6035   -8.0675    6.5827 H   0  0  0  0  0  0  0  0  0  0  0  0
    2.3750   -6.7136    4.6529 H   0  0  0  0  0  0  0  0  0  0  0  0
    3.2155   -5.5611    2.6625 H   0  0  0  0  0  0  0  0  0  0  0  0
    5.9281   -1.1082    2.9037 H   0  0  0  0  0  0  0  0  0  0  0  0
    6.5540   -0.5189    5.2047 H   0  0  0  0  0  0  0  0  0  0  0  0
    7.3164   -2.2826    6.7994 H   0  0  0  0  0  0  0  0  0  0  0  0
    7.4134   -4.6638    6.0447 H   0  0  0  0  0  0  0  0  0  0  0  0
    6.7457   -5.2590    3.7193 H   0  0  0  0  0  0  0  0  0  0  0  0
  1  2  1  0
  1 43  1  0
  1 44  1  0
  1 45  1  0
  2  3  1  0
  2 46  1  0
  2 47  1  0
  3  4  1  0
  3 48  1  0
  3 49  1  0
  5  4  1  6
  4 50  1  0
  4 51  1  0
  5  6  1  0
  5 12  1  0
  5 36  1  0
  6  7  2  0
  6 11  1  0
  7  8  1  0
  7 52  1  0
  8  9  2  0
  8 53  1  0
  9 10  1  0
  9 54  1  0
 10 11  2  0
 10 55  1  0
 11 56  1  0
 12 13  1  0
 12 57  1  0
 13 14  2  0
 13 34  1  0
 14 15  1  0
 14 23  1  0
 15 16  2  0
 15 22  1  0
 16 17  1  0
 16 58  1  0
 17 18  2  0
 17 59  1  0
 18 19  1  0
 18 21  1  0
 19 20  1  0
 20 60  1  0
 20 61  1  0
 20 62  1  0
 21 22  2  0
 21 63  1  0
 22 64  1  0
 23 24  2  0
 23 65  1  0
 24 25  1  0
 24 66  1  0
 25 26  1  0
 25 34  2  0
 26 27  2  0
 26 33  1  0
 27 28  1  0
 27 67  1  0
 28 29  2  0
 28 68  1  0
 29 30  1  0
 29 32  1  0
 30 31  1  0
 31 69  1  0
 31 70  1  0
 31 71  1  0
 32 33  2  0
 32 72  1  0
 33 73  1  0
 34 35  1  0
 35 36  2  0
 36 37  1  0
 37 38  2  0
 37 42  1  0
 38 39  1  0
 38 74  1  0
 39 40  2  0
 39 75  1  0
 40 41  1  0
 40 76  1  0
 41 42  2  0
 41 77  1  0
 42 78  1  0
M  END

