
     RDKit          3D

 45 47  0  0  0  0  0  0  0  0999 V2000
    4.5746    0.9306    1.5763 C   0  0  0  0  0  0  0  0  0  0  0  0
    4.2255    0.4564    0.1577 C   0  0  1  0  0  0  0  0  0  0  0  0
    3.1196   -0.6097    0.1732 C   0  0  0  0  0  0  0  0  0  0  0  0
    3.7586    1.6567   -0.6766 C   0  0  0  0  0  0  0  0  0  0  0  0
    2.7787    2.3059   -0.3617 O   0  0  0  0  0  0  0  0  0  0  0  0
    4.5342    1.9215   -1.7886 N   0  0  0  0  0  0  0  0  0  0  0  0
    4.3914    2.9278   -2.7558 C   0  0  0  0  0  0  0  0  0  0  0  0
    3.3552    3.8840   -2.7325 C   0  0  0  0  0  0  0  0  0  0  0  0
    3.2905    4.8432   -3.7364 C   0  0  0  0  0  0  0  0  0  0  0  0
    4.2331    4.8919   -4.7805 C   0  0  0  0  0  0  0  0  0  0  0  0
    4.0656    5.9453   -5.8229 C   0  0  0  0  0  0  0  0  0  0  0  0
    3.1204    6.7122   -5.8089 O   0  0  0  0  0  0  0  0  0  0  0  0
    5.0988    6.0832   -6.9456 C   0  0  0  0  0  0  0  0  0  0  0  0
    6.5278    7.1169   -6.3994 S   0  0  0  0  0  0  0  0  0  0  0  0
    7.8650    5.9893   -6.6061 C   0  0  0  0  0  0  0  0  0  0  0  0
    7.7933    4.7444   -6.9547 N   0  0  0  0  0  0  0  0  0  0  0  0
    8.9985    4.1076   -7.0243 N   0  0  0  0  0  0  0  0  0  0  0  0
   10.0009    4.8868   -6.7365 C   0  0  0  0  0  0  0  0  0  0  0  0
   11.3168    4.5179   -6.7757 N   0  0  0  0  0  0  0  0  0  0  0  0
   11.6862    3.1473   -6.9933 C   0  0  1  0  0  0  0  0  0  0  0  0
   11.7232    2.6239   -8.4028 C   0  0  0  0  0  0  0  0  0  0  0  0
   13.0093    2.8851   -7.6623 C   0  0  0  0  0  0  0  0  0  0  0  0
    9.5211    6.5471   -6.3264 S   0  0  0  0  0  0  0  0  0  0  0  0
    5.2643    3.9351   -4.7951 C   0  0  0  0  0  0  0  0  0  0  0  0
    5.3391    2.9696   -3.7967 C   0  0  0  0  0  0  0  0  0  0  0  0
    4.8775    0.0799    2.2067 H   0  0  0  0  0  0  0  0  0  0  0  0
    3.6995    1.4136    2.0369 H   0  0  0  0  0  0  0  0  0  0  0  0
    5.3997    1.6607    1.5681 H   0  0  0  0  0  0  0  0  0  0  0  0
    5.1306    0.0203   -0.3025 H   0  0  0  0  0  0  0  0  0  0  0  0
    2.1920   -0.1827    0.5837 H   0  0  0  0  0  0  0  0  0  0  0  0
    3.4162   -1.4678    0.7965 H   0  0  0  0  0  0  0  0  0  0  0  0
    2.9019   -0.9826   -0.8404 H   0  0  0  0  0  0  0  0  0  0  0  0
    5.3220    1.3008   -1.9322 H   0  0  0  0  0  0  0  0  0  0  0  0
    2.6222    3.8554   -1.9301 H   0  0  0  0  0  0  0  0  0  0  0  0
    2.4913    5.5870   -3.7333 H   0  0  0  0  0  0  0  0  0  0  0  0
    4.6175    6.6266   -7.7686 H   0  0  0  0  0  0  0  0  0  0  0  0
    5.5101    5.1316   -7.3055 H   0  0  0  0  0  0  0  0  0  0  0  0
   11.9604    5.0826   -6.2327 H   0  0  0  0  0  0  0  0  0  0  0  0
   11.3571    2.4438   -6.2169 H   0  0  0  0  0  0  0  0  0  0  0  0
   11.4412    3.3201   -9.1960 H   0  0  0  0  0  0  0  0  0  0  0  0
   11.4044    1.5913   -8.5652 H   0  0  0  0  0  0  0  0  0  0  0  0
   13.5996    3.7549   -7.9653 H   0  0  0  0  0  0  0  0  0  0  0  0
   13.6006    2.0370   -7.3068 H   0  0  0  0  0  0  0  0  0  0  0  0
    6.0236    3.9348   -5.5801 H   0  0  0  0  0  0  0  0  0  0  0  0
    6.1471    2.2321   -3.8235 H   0  0  0  0  0  0  0  0  0  0  0  0
  1  2  1  0
  1 26  1  0
  1 27  1  0
  1 28  1  0
  2  3  1  0
  2  4  1  0
  2 29  1  6
  3 30  1  0
  3 31  1  0
  3 32  1  0
  4  5  2  0
  4  6  1  0
  6  7  1  0
  6 33  1  0
  7  8  2  0
  7 25  1  0
  8  9  1  0
  8 34  1  0
  9 10  2  0
  9 35  1  0
 10 11  1  0
 10 24  1  0
 11 12  2  0
 11 13  1  0
 13 14  1  0
 13 36  1  0
 13 37  1  0
 14 15  1  0
 15 16  2  0
 15 23  1  0
 16 17  1  0
 17 18  2  0
 18 19  1  0
 18 23  1  0
 19 20  1  0
 19 38  1  0
 20 21  1  0
 20 22  1  0
 20 39  1  1
 21 22  1  0
 21 40  1  0
 21 41  1  0
 22 42  1  0
 22 43  1  0
 24 25  2  0
 24 44  1  0
 25 45  1  0
M  END

