
     RDKit          3D

 38 40  0  0  0  0  0  0  0  0999 V2000
    7.5780   -1.6433   -0.6560 O   0  0  0  0  0  0  0  0  0  0  0  0
    6.8120   -2.0836   -1.4949 C   0  0  0  0  0  0  0  0  0  0  0  0
    7.1080   -3.1454   -2.3435 N   0  0  0  0  0  0  0  0  0  0  0  0
    8.2858   -3.9060   -2.4056 C   0  0  0  0  0  0  0  0  0  0  0  0
    9.3972   -3.6957   -1.5677 C   0  0  0  0  0  0  0  0  0  0  0  0
   10.5279   -4.5030   -1.7076 C   0  0  0  0  0  0  0  0  0  0  0  0
   10.5866   -5.5206   -2.6608 C   0  0  0  0  0  0  0  0  0  0  0  0
    9.4791   -5.7293   -3.4904 C   0  0  0  0  0  0  0  0  0  0  0  0
    9.4929   -6.8592   -4.4898 C   0  0  1  0  0  0  0  0  0  0  0  0
   10.7131   -7.0394   -5.0239 F   0  0  0  0  0  0  0  0  0  0  0  0
    9.1400   -8.0291   -3.9209 F   0  0  0  0  0  0  0  0  0  0  0  0
    8.6348   -6.6469   -5.5059 F   0  0  0  0  0  0  0  0  0  0  0  0
    8.3415   -4.9310   -3.3673 C   0  0  0  0  0  0  0  0  0  0  0  0
    5.5533   -1.5597   -1.7009 N   0  0  0  0  0  0  0  0  0  0  0  0
    5.0462   -0.4568   -0.9074 C   0  0  1  0  0  0  0  0  0  0  0  0
    5.8984    0.0501   -0.4374 H   0  0  0  0  0  0  0  0  0  0  0  0
    4.1589    0.4588   -1.7498 C   0  0  0  0  0  0  0  0  0  0  0  0
    2.9208   -0.2650   -1.8527 O   0  0  0  0  0  0  0  0  0  0  0  0
    2.6782   -0.9057   -0.5994 C   0  0  2  0  0  0  0  0  0  0  0  0
    2.2647   -1.9041   -0.8035 H   0  0  0  0  0  0  0  0  0  0  0  0
    1.7323   -0.0500    0.3112 C   0  0  2  0  0  0  0  0  0  0  0  0
    0.7845   -0.5864    0.5117 H   0  0  0  0  0  0  0  0  0  0  0  0
    1.4857    1.2073   -0.2641 O   0  0  0  0  0  0  0  0  0  0  0  0
    2.5643    0.1010    1.5881 C   0  0  0  0  0  0  0  0  0  0  0  0
    3.9209    0.0602    1.1722 O   0  0  0  0  0  0  0  0  0  0  0  0
    4.0341   -0.9167    0.1591 C   0  0  2  0  0  0  0  0  0  0  0  0
    4.2948   -1.9056    0.5794 H   0  0  0  0  0  0  0  0  0  0  0  0
    6.3996   -3.4088   -3.0179 H   0  0  0  0  0  0  0  0  0  0  0  0
    9.3590   -2.9020   -0.8256 H   0  0  0  0  0  0  0  0  0  0  0  0
   11.3856   -4.3256   -1.0539 H   0  0  0  0  0  0  0  0  0  0  0  0
   11.4786   -6.1400   -2.7663 H   0  0  0  0  0  0  0  0  0  0  0  0
    7.4919   -5.1040   -4.0322 H   0  0  0  0  0  0  0  0  0  0  0  0
    4.9222   -1.9715   -2.3788 H   0  0  0  0  0  0  0  0  0  0  0  0
    4.5390    0.6355   -2.7657 H   0  0  0  0  0  0  0  0  0  0  0  0
    4.0017    1.4198   -1.2328 H   0  0  0  0  0  0  0  0  0  0  0  0
    1.5673    1.0866   -1.2249 H   0  0  0  0  0  0  0  0  0  0  0  0
    2.3461   -0.7248    2.2955 H   0  0  0  0  0  0  0  0  0  0  0  0
    2.3757    1.0622    2.0860 H   0  0  0  0  0  0  0  0  0  0  0  0
  1  2  2  0
  2  3  1  0
  2 14  1  0
  3  4  1  0
  3 28  1  0
  4  5  2  0
  4 13  1  0
  5  6  1  0
  5 29  1  0
  6  7  2  0
  6 30  1  0
  7  8  1  0
  7 31  1  0
  8  9  1  0
  8 13  2  0
  9 10  1  6
  9 11  1  0
  9 12  1  0
 13 32  1  0
 14 15  1  0
 14 33  1  0
 15 16  1  1
 15 17  1  0
 15 26  1  0
 17 18  1  0
 17 34  1  0
 17 35  1  0
 18 19  1  0
 19 20  1  6
 19 21  1  0
 19 26  1  0
 21 22  1  1
 21 23  1  0
 21 24  1  0
 23 36  1  0
 24 25  1  0
 24 37  1  0
 24 38  1  0
 25 26  1  0
 26 27  1  1
M  END

