
     RDKit          3D

 45 46  0  0  0  0  0  0  0  0999 V2000
    2.1782   -2.7103    2.7093 C   0  0  0  0  0  0  0  0  0  0  0  0
    2.9410   -1.7244    1.8535 C   0  0  0  0  0  0  0  0  0  0  0  0
    3.6069   -0.6490    2.4627 C   0  0  0  0  0  0  0  0  0  0  0  0
    4.3136    0.2975    1.7177 C   0  0  0  0  0  0  0  0  0  0  0  0
    4.3587    0.1900    0.3265 C   0  0  0  0  0  0  0  0  0  0  0  0
    3.6979   -0.8672   -0.3004 C   0  0  0  0  0  0  0  0  0  0  0  0
    2.9937   -1.8333    0.4417 C   0  0  0  0  0  0  0  0  0  0  0  0
    2.3285   -2.9535   -0.2907 C   0  0  0  0  0  0  0  0  0  0  0  0
    2.7545   -4.2770   -0.0932 C   0  0  0  0  0  0  0  0  0  0  0  0
    2.1836   -5.3369   -0.7984 C   0  0  0  0  0  0  0  0  0  0  0  0
    1.1621   -5.0892   -1.7215 C   0  0  0  0  0  0  0  0  0  0  0  0
    0.7313   -3.7835   -1.9393 C   0  0  0  0  0  0  0  0  0  0  0  0
    1.3050   -2.7009   -1.2418 C   0  0  0  0  0  0  0  0  0  0  0  0
    0.7876   -1.3362   -1.4127 C   0  0  0  0  0  0  0  0  0  0  0  0
    0.3532   -0.7250   -2.5477 C   0  0  0  0  0  0  0  0  0  0  0  0
   -0.2762    0.5619   -2.4508 C   0  0  0  0  0  0  0  0  0  0  0  0
   -0.7741    1.6073   -2.3614 N   0  0  0  0  0  0  0  0  0  0  0  0
    0.4551   -1.2633   -3.9510 C   0  0  0  0  0  0  0  0  0  0  0  0
   -0.4050   -1.1155   -4.7837 O   0  0  0  0  0  0  0  0  0  0  0  0
    1.6271   -1.8803   -4.1643 O   0  0  0  0  0  0  0  0  0  0  0  0
    1.8464   -2.4673   -5.4624 C   0  0  0  0  0  0  0  0  0  0  0  0
    2.4592   -1.4781   -6.4576 C   0  0  1  0  0  0  0  0  0  0  0  0
    3.7873   -0.9048   -5.9522 C   0  0  0  0  0  0  0  0  0  0  0  0
    2.6150   -2.1634   -7.8208 C   0  0  0  0  0  0  0  0  0  0  0  0
    1.9751   -2.2868    3.7040 H   0  0  0  0  0  0  0  0  0  0  0  0
    2.7437   -3.6449    2.8625 H   0  0  0  0  0  0  0  0  0  0  0  0
    1.2174   -2.9939    2.2541 H   0  0  0  0  0  0  0  0  0  0  0  0
    3.5603   -0.5494    3.5509 H   0  0  0  0  0  0  0  0  0  0  0  0
    4.8208    1.1221    2.2249 H   0  0  0  0  0  0  0  0  0  0  0  0
    4.9035    0.9255   -0.2702 H   0  0  0  0  0  0  0  0  0  0  0  0
    3.7327   -0.9621   -1.3886 H   0  0  0  0  0  0  0  0  0  0  0  0
    3.5630   -4.4714    0.6152 H   0  0  0  0  0  0  0  0  0  0  0  0
    2.5344   -6.3575   -0.6260 H   0  0  0  0  0  0  0  0  0  0  0  0
    0.6952   -5.9149   -2.2638 H   0  0  0  0  0  0  0  0  0  0  0  0
   -0.0933   -3.5970   -2.6305 H   0  0  0  0  0  0  0  0  0  0  0  0
    0.7022   -0.7500   -0.4920 H   0  0  0  0  0  0  0  0  0  0  0  0
    0.8898   -2.8526   -5.8444 H   0  0  0  0  0  0  0  0  0  0  0  0
    2.5311   -3.3092   -5.2756 H   0  0  0  0  0  0  0  0  0  0  0  0
    1.7372   -0.6508   -6.5725 H   0  0  0  0  0  0  0  0  0  0  0  0
    4.5458   -1.6994   -5.8426 H   0  0  0  0  0  0  0  0  0  0  0  0
    3.6683   -0.4163   -4.9734 H   0  0  0  0  0  0  0  0  0  0  0  0
    4.1857   -0.1577   -6.6569 H   0  0  0  0  0  0  0  0  0  0  0  0
    3.3075   -3.0209   -7.7606 H   0  0  0  0  0  0  0  0  0  0  0  0
    3.0224   -1.4623   -8.5659 H   0  0  0  0  0  0  0  0  0  0  0  0
    1.6506   -2.5344   -8.2039 H   0  0  0  0  0  0  0  0  0  0  0  0
  1  2  1  0
  1 25  1  0
  1 26  1  0
  1 27  1  0
  2  3  2  0
  2  7  1  0
  3  4  1  0
  3 28  1  0
  4  5  2  0
  4 29  1  0
  5  6  1  0
  5 30  1  0
  6  7  2  0
  6 31  1  0
  7  8  1  0
  8  9  2  0
  8 13  1  0
  9 10  1  0
  9 32  1  0
 10 11  2  0
 10 33  1  0
 11 12  1  0
 11 34  1  0
 12 13  2  0
 12 35  1  0
 13 14  1  0
 14 15  2  0
 14 36  1  0
 15 16  1  0
 15 18  1  0
 16 17  3  0
 18 19  2  0
 18 20  1  0
 20 21  1  0
 21 22  1  0
 21 37  1  0
 21 38  1  0
 22 23  1  0
 22 24  1  0
 22 39  1  6
 23 40  1  0
 23 41  1  0
 23 42  1  0
 24 43  1  0
 24 44  1  0
 24 45  1  0
M  END

