
     RDKit          3D

 49 51  0  0  0  0  0  0  0  0999 V2000
    1.1017   -0.3257   -0.6245 O   0  0  0  0  0  0  0  0  0  0  0  0
    2.2846   -0.1881   -0.3345 C   0  0  0  0  0  0  0  0  0  0  0  0
    3.1274    0.5625   -1.1363 N   0  0  0  0  0  0  0  0  0  0  0  0
    2.5582    1.3030   -2.2526 C   0  0  0  0  0  0  0  0  0  0  0  0
    1.7643    2.5366   -1.8556 C   0  0  0  0  0  0  0  0  0  0  0  0
    0.3797    2.6031   -2.0701 C   0  0  0  0  0  0  0  0  0  0  0  0
   -0.2259    1.5850   -2.6897 F   0  0  0  0  0  0  0  0  0  0  0  0
   -0.3965    3.6959   -1.6897 C   0  0  0  0  0  0  0  0  0  0  0  0
    0.2237    4.7829   -1.0735 C   0  0  0  0  0  0  0  0  0  0  0  0
    1.6025    4.7761   -0.8505 C   0  0  0  0  0  0  0  0  0  0  0  0
    2.3439    3.6601   -1.2434 C   0  0  0  0  0  0  0  0  0  0  0  0
    4.0844    3.6870   -0.9649 Cl  0  0  0  0  0  0  0  0  0  0  0  0
    2.8492   -0.7927    0.7853 N   0  0  0  0  0  0  0  0  0  0  0  0
    1.9243   -1.6036    1.5773 C   0  0  0  0  0  0  0  0  0  0  0  0
    1.2808   -0.9231    2.7741 C   0  0  0  0  0  0  0  0  0  0  0  0
    1.0815   -1.6094    3.9780 C   0  0  0  0  0  0  0  0  0  0  0  0
    0.4458   -0.9669    5.0426 C   0  0  0  0  0  0  0  0  0  0  0  0
    0.0281    0.3542    4.8649 C   0  0  0  0  0  0  0  0  0  0  0  0
    0.1983    1.0235    3.7216 N   0  0  0  0  0  0  0  0  0  0  0  0
    0.8005    0.3971    2.7088 C   0  0  0  0  0  0  0  0  0  0  0  0
    4.3139   -0.7602    1.0080 C   0  0  1  0  0  0  0  0  0  0  0  0
    4.8160    0.5127    1.7384 C   0  0  0  0  0  0  0  0  0  0  0  0
    4.6962    0.4546    3.2657 C   0  0  0  0  0  0  0  0  0  0  0  0
    5.4098   -0.7786    3.8308 C   0  0  0  0  0  0  0  0  0  0  0  0
    4.8559   -2.0656    3.2075 C   0  0  0  0  0  0  0  0  0  0  0  0
    4.9055   -2.0248    1.6716 C   0  0  0  0  0  0  0  0  0  0  0  0
    3.9676    0.9578   -0.7356 H   0  0  0  0  0  0  0  0  0  0  0  0
    1.9021    0.6295   -2.8146 H   0  0  0  0  0  0  0  0  0  0  0  0
    3.3909    1.6003   -2.9081 H   0  0  0  0  0  0  0  0  0  0  0  0
   -1.4703    3.6737   -1.8819 H   0  0  0  0  0  0  0  0  0  0  0  0
   -0.3702    5.6466   -0.7660 H   0  0  0  0  0  0  0  0  0  0  0  0
    2.1037    5.6208   -0.3769 H   0  0  0  0  0  0  0  0  0  0  0  0
    2.4254   -2.5228    1.9072 H   0  0  0  0  0  0  0  0  0  0  0  0
    1.1195   -1.9046    0.8899 H   0  0  0  0  0  0  0  0  0  0  0  0
    1.4207   -2.6448    4.0835 H   0  0  0  0  0  0  0  0  0  0  0  0
    0.2811   -1.4782    5.9941 H   0  0  0  0  0  0  0  0  0  0  0  0
   -0.4685    0.8930    5.6811 H   0  0  0  0  0  0  0  0  0  0  0  0
    0.9044    0.9650    1.7786 H   0  0  0  0  0  0  0  0  0  0  0  0
    4.7453   -0.7454   -0.0044 H   0  0  0  0  0  0  0  0  0  0  0  0
    4.2924    1.4003    1.3485 H   0  0  0  0  0  0  0  0  0  0  0  0
    5.8825    0.6424    1.4755 H   0  0  0  0  0  0  0  0  0  0  0  0
    3.6326    0.4324    3.5564 H   0  0  0  0  0  0  0  0  0  0  0  0
    5.1161    1.3763    3.7017 H   0  0  0  0  0  0  0  0  0  0  0  0
    5.3084   -0.8147    4.9282 H   0  0  0  0  0  0  0  0  0  0  0  0
    6.4932   -0.7031    3.6203 H   0  0  0  0  0  0  0  0  0  0  0  0
    3.8230   -2.2111    3.5610 H   0  0  0  0  0  0  0  0  0  0  0  0
    5.4263   -2.9410    3.5614 H   0  0  0  0  0  0  0  0  0  0  0  0
    4.4533   -2.9285    1.2315 H   0  0  0  0  0  0  0  0  0  0  0  0
    5.9675   -2.0499    1.3705 H   0  0  0  0  0  0  0  0  0  0  0  0
  1  2  2  0
  2  3  1  0
  2 13  1  0
  3  4  1  0
  3 27  1  0
  4  5  1  0
  4 28  1  0
  4 29  1  0
  5  6  2  0
  5 11  1  0
  6  7  1  0
  6  8  1  0
  8  9  2  0
  8 30  1  0
  9 10  1  0
  9 31  1  0
 10 11  2  0
 10 32  1  0
 11 12  1  0
 13 14  1  0
 13 21  1  0
 14 15  1  0
 14 33  1  0
 14 34  1  0
 15 16  2  0
 15 20  1  0
 16 17  1  0
 16 35  1  0
 17 18  2  0
 17 36  1  0
 18 19  1  0
 18 37  1  0
 19 20  2  0
 20 38  1  0
 21 22  1  0
 21 26  1  0
 21 39  1  6
 22 23  1  0
 22 40  1  0
 22 41  1  0
 23 24  1  0
 23 42  1  0
 23 43  1  0
 24 25  1  0
 24 44  1  0
 24 45  1  0
 25 26  1  0
 25 46  1  0
 25 47  1  0
 26 48  1  0
 26 49  1  0
M  END

