
     RDKit          3D

 61 63  0  0  0  0  0  0  0  0999 V2000
    0.4617   -0.0070   -2.4760 C   0  0  0  0  0  0  0  0  0  0  0  0
    1.9749   -0.0494   -2.2567 C   0  0  0  0  0  0  0  0  0  0  0  0
    2.7439   -0.6114   -3.4592 C   0  0  0  0  0  0  0  0  0  0  0  0
    4.2725   -0.6107   -3.3212 C   0  0  0  0  0  0  0  0  0  0  0  0
    4.8020   -1.5910   -2.2655 C   0  0  0  0  0  0  0  0  0  0  0  0
    6.2663   -1.5917   -2.1488 N   0  0  0  0  0  0  0  0  0  0  0  0
    6.8544   -0.6097   -1.2317 C   0  0  0  0  0  0  0  0  0  0  0  0
    6.7626   -0.9660    0.2595 C   0  0  0  0  0  0  0  0  0  0  0  0
    7.5710   -2.1776    0.7040 C   0  0  0  0  0  0  0  0  0  0  0  0
    8.9296   -1.9751    0.3843 O   0  0  0  0  0  0  0  0  0  0  0  0
    9.8262   -2.8488    1.0337 C   0  0  0  0  0  0  0  0  0  0  0  0
    6.9579   -2.3464   -3.0521 C   0  0  0  0  0  0  0  0  0  0  0  0
    6.3840   -2.9938   -3.9287 O   0  0  0  0  0  0  0  0  0  0  0  0
    8.4964   -2.3730   -3.0043 C   0  0  1  0  0  0  0  0  0  0  0  0
    9.0218   -3.8119   -3.2246 C   0  0  0  0  0  0  0  0  0  0  0  0
    8.4856   -4.8055   -2.1801 C   0  0  0  0  0  0  0  0  0  0  0  0
    9.2276   -6.1005   -2.1491 C   0  0  0  0  0  0  0  0  0  0  0  0
   10.0306   -6.4782   -1.1149 N   0  0  0  0  0  0  0  0  0  0  0  0
   10.5269   -7.6411   -1.4255 N   0  0  0  0  0  0  0  0  0  0  0  0
   10.0283   -7.9335   -2.6135 N   0  0  0  0  0  0  0  0  0  0  0  0
   10.2525   -8.7988   -3.0972 H   0  0  0  0  0  0  0  0  0  0  0  0
    9.2154   -7.0177   -3.1135 N   0  0  0  0  0  0  0  0  0  0  0  0
    9.0064   -1.4444   -4.0720 C   0  0  0  0  0  0  0  0  0  0  0  0
    9.9368   -0.5329   -3.9216 N   0  0  0  0  0  0  0  0  0  0  0  0
   10.0789    0.0471   -5.1693 C   0  0  0  0  0  0  0  0  0  0  0  0
   10.9299    1.0759   -5.5930 C   0  0  0  0  0  0  0  0  0  0  0  0
   10.8676    1.4854   -6.9241 C   0  0  0  0  0  0  0  0  0  0  0  0
   11.9257    2.7676   -7.4584 Cl  0  0  0  0  0  0  0  0  0  0  0  0
    9.9643    0.8781   -7.8350 C   0  0  0  0  0  0  0  0  0  0  0  0
    9.8976    1.4023   -9.4976 Cl  0  0  0  0  0  0  0  0  0  0  0  0
    9.1103   -0.1495   -7.4292 C   0  0  0  0  0  0  0  0  0  0  0  0
    9.1823   -0.5520   -6.0945 C   0  0  0  0  0  0  0  0  0  0  0  0
    8.5139   -1.5073   -5.3591 N   0  0  0  0  0  0  0  0  0  0  0  0
    7.7446   -2.1090   -5.6392 H   0  0  0  0  0  0  0  0  0  0  0  0
   -0.0639    0.4039   -1.5994 H   0  0  0  0  0  0  0  0  0  0  0  0
    0.0560   -1.0151   -2.6649 H   0  0  0  0  0  0  0  0  0  0  0  0
    0.2007    0.6199   -3.3451 H   0  0  0  0  0  0  0  0  0  0  0  0
    2.1906   -0.6488   -1.3542 H   0  0  0  0  0  0  0  0  0  0  0  0
    2.3443    0.9693   -2.0370 H   0  0  0  0  0  0  0  0  0  0  0  0
    2.4754   -0.0225   -4.3541 H   0  0  0  0  0  0  0  0  0  0  0  0
    2.3975   -1.6411   -3.6670 H   0  0  0  0  0  0  0  0  0  0  0  0
    4.6204    0.4121   -3.0874 H   0  0  0  0  0  0  0  0  0  0  0  0
    4.7228   -0.8863   -4.2875 H   0  0  0  0  0  0  0  0  0  0  0  0
    4.4837   -2.6101   -2.5270 H   0  0  0  0  0  0  0  0  0  0  0  0
    4.3908   -1.3572   -1.2722 H   0  0  0  0  0  0  0  0  0  0  0  0
    6.3321    0.3488   -1.3924 H   0  0  0  0  0  0  0  0  0  0  0  0
    7.9005   -0.4279   -1.5031 H   0  0  0  0  0  0  0  0  0  0  0  0
    5.7106   -1.1260    0.5513 H   0  0  0  0  0  0  0  0  0  0  0  0
    7.1136   -0.0868    0.8259 H   0  0  0  0  0  0  0  0  0  0  0  0
    7.1892   -3.1036    0.2254 H   0  0  0  0  0  0  0  0  0  0  0  0
    7.4486   -2.3121    1.7978 H   0  0  0  0  0  0  0  0  0  0  0  0
   10.8445   -2.5504    0.7465 H   0  0  0  0  0  0  0  0  0  0  0  0
    9.6775   -3.9061    0.7414 H   0  0  0  0  0  0  0  0  0  0  0  0
    9.7326   -2.7762    2.1351 H   0  0  0  0  0  0  0  0  0  0  0  0
    8.8901   -2.0136   -2.0471 H   0  0  0  0  0  0  0  0  0  0  0  0
   10.1215   -3.7711   -3.1752 H   0  0  0  0  0  0  0  0  0  0  0  0
    8.7504   -4.1631   -4.2310 H   0  0  0  0  0  0  0  0  0  0  0  0
    7.4201   -4.9988   -2.3783 H   0  0  0  0  0  0  0  0  0  0  0  0
    8.5676   -4.3691   -1.1754 H   0  0  0  0  0  0  0  0  0  0  0  0
   11.6265    1.5492   -4.9007 H   0  0  0  0  0  0  0  0  0  0  0  0
    8.4252   -0.6024   -8.1466 H   0  0  0  0  0  0  0  0  0  0  0  0
  1  2  1  0
  1 35  1  0
  1 36  1  0
  1 37  1  0
  2  3  1  0
  2 38  1  0
  2 39  1  0
  3  4  1  0
  3 40  1  0
  3 41  1  0
  4  5  1  0
  4 42  1  0
  4 43  1  0
  5  6  1  0
  5 44  1  0
  5 45  1  0
  6  7  1  0
  6 12  1  0
  7  8  1  0
  7 46  1  0
  7 47  1  0
  8  9  1  0
  8 48  1  0
  8 49  1  0
  9 10  1  0
  9 50  1  0
  9 51  1  0
 10 11  1  0
 11 52  1  0
 11 53  1  0
 11 54  1  0
 12 13  2  0
 12 14  1  0
 14 15  1  0
 14 23  1  0
 14 55  1  1
 15 16  1  0
 15 56  1  0
 15 57  1  0
 16 17  1  0
 16 58  1  0
 16 59  1  0
 17 18  1  0
 17 22  2  0
 18 19  2  0
 19 20  1  0
 20 21  1  0
 20 22  1  0
 23 24  2  0
 23 33  1  0
 24 25  1  0
 25 26  2  0
 25 32  1  0
 26 27  1  0
 26 60  1  0
 27 28  1  0
 27 29  2  0
 29 30  1  0
 29 31  1  0
 31 32  2  0
 31 61  1  0
 32 33  1  0
 33 34  1  0
M  END

