
     RDKit          3D

 46 49  0  0  0  0  0  0  0  0999 V2000
    2.9298   -3.1374   -5.1693 C   0  0  0  0  0  0  0  0  0  0  0  0
    3.7366   -2.8694   -3.9224 C   0  0  0  0  0  0  0  0  0  0  0  0
    3.2757   -3.2785   -2.6314 C   0  0  0  0  0  0  0  0  0  0  0  0
    4.0124   -3.0177   -1.5065 C   0  0  0  0  0  0  0  0  0  0  0  0
    5.2632   -2.3305   -1.5814 C   0  0  0  0  0  0  0  0  0  0  0  0
    5.9679   -2.0839   -0.4866 N   0  0  0  0  0  0  0  0  0  0  0  0
    7.1426   -1.4326   -0.6163 C   0  0  0  0  0  0  0  0  0  0  0  0
    7.8983   -1.1616    0.6738 C   0  0  0  0  0  0  0  0  0  0  0  0
    9.2200   -1.7780    0.6791 N   0  0  0  0  0  0  0  0  0  0  0  0
   10.1630   -1.2261    1.6467 C   0  0  0  0  0  0  0  0  0  0  0  0
    9.9581   -1.7534    3.0754 C   0  0  0  0  0  0  0  0  0  0  0  0
    9.9567   -3.2182    3.0863 N   0  0  0  0  0  0  0  0  0  0  0  0
   10.8716   -3.8570    3.8888 C   0  0  0  0  0  0  0  0  0  0  0  0
   11.7218   -3.2401    4.5244 O   0  0  0  0  0  0  0  0  0  0  0  0
   10.8772   -5.3403    4.0387 C   0  0  0  0  0  0  0  0  0  0  0  0
   11.8338   -6.0814    4.6877 C   0  0  0  0  0  0  0  0  0  0  0  0
   11.4065   -7.4429    4.6302 C   0  0  0  0  0  0  0  0  0  0  0  0
   10.2089   -7.4337    3.9707 C   0  0  0  0  0  0  0  0  0  0  0  0
    9.8794   -6.1713    3.6081 O   0  0  0  0  0  0  0  0  0  0  0  0
    9.0071   -3.8091    2.1433 C   0  0  0  0  0  0  0  0  0  0  0  0
    9.2338   -3.2359    0.7309 C   0  0  0  0  0  0  0  0  0  0  0  0
    7.6542   -1.0135   -1.8325 C   0  0  0  0  0  0  0  0  0  0  0  0
    6.9590   -1.2427   -3.0577 C   0  0  0  0  0  0  0  0  0  0  0  0
    7.2754   -0.9343   -4.1925 O   0  0  0  0  0  0  0  0  0  0  0  0
    5.6845   -1.9488   -2.8520 N   0  0  0  0  0  0  0  0  0  0  0  0
    4.9386   -2.2136   -3.9766 C   0  0  0  0  0  0  0  0  0  0  0  0
    1.9379   -2.6595   -5.1115 H   0  0  0  0  0  0  0  0  0  0  0  0
    2.7621   -4.2170   -5.3108 H   0  0  0  0  0  0  0  0  0  0  0  0
    3.4321   -2.7542   -6.0700 H   0  0  0  0  0  0  0  0  0  0  0  0
    2.3216   -3.8061   -2.5470 H   0  0  0  0  0  0  0  0  0  0  0  0
    3.6885   -3.3155   -0.5089 H   0  0  0  0  0  0  0  0  0  0  0  0
    7.2358   -1.4717    1.5075 H   0  0  0  0  0  0  0  0  0  0  0  0
    8.0427   -0.0722    0.7676 H   0  0  0  0  0  0  0  0  0  0  0  0
   10.0896   -0.1266    1.6411 H   0  0  0  0  0  0  0  0  0  0  0  0
   11.1858   -1.4881    1.3216 H   0  0  0  0  0  0  0  0  0  0  0  0
    8.9939   -1.3929    3.4815 H   0  0  0  0  0  0  0  0  0  0  0  0
   10.7618   -1.4158    3.7406 H   0  0  0  0  0  0  0  0  0  0  0  0
   12.7296   -5.6707    5.1452 H   0  0  0  0  0  0  0  0  0  0  0  0
   11.9155   -8.3158    5.0335 H   0  0  0  0  0  0  0  0  0  0  0  0
    9.5020   -8.2117    3.6924 H   0  0  0  0  0  0  0  0  0  0  0  0
    7.9769   -3.5841    2.4787 H   0  0  0  0  0  0  0  0  0  0  0  0
    9.1093   -4.8965    2.1270 H   0  0  0  0  0  0  0  0  0  0  0  0
    8.4726   -3.6361    0.0439 H   0  0  0  0  0  0  0  0  0  0  0  0
   10.2190   -3.5836    0.3714 H   0  0  0  0  0  0  0  0  0  0  0  0
    8.6156   -0.5040   -1.8948 H   0  0  0  0  0  0  0  0  0  0  0  0
    5.4058   -1.8498   -4.8931 H   0  0  0  0  0  0  0  0  0  0  0  0
  1  2  1  0
  1 27  1  0
  1 28  1  0
  1 29  1  0
  2  3  1  0
  2 26  2  0
  3  4  2  0
  3 30  1  0
  4  5  1  0
  4 31  1  0
  5  6  2  0
  5 25  1  0
  6  7  1  0
  7  8  1  0
  7 22  2  0
  8  9  1  0
  8 32  1  0
  8 33  1  0
  9 10  1  0
  9 21  1  0
 10 11  1  0
 10 34  1  0
 10 35  1  0
 11 12  1  0
 11 36  1  0
 11 37  1  0
 12 13  1  0
 12 20  1  0
 13 14  2  0
 13 15  1  0
 15 16  2  0
 15 19  1  0
 16 17  1  0
 16 38  1  0
 17 18  2  0
 17 39  1  0
 18 19  1  0
 18 40  1  0
 20 21  1  0
 20 41  1  0
 20 42  1  0
 21 43  1  0
 21 44  1  0
 22 23  1  0
 22 45  1  0
 23 24  2  0
 23 25  1  0
 25 26  1  0
 26 46  1  0
M  END

