
     RDKit          3D

 42 42  0  0  0  0  0  0  0  0999 V2000
    1.8603   -0.7475   -0.6890 C   0  0  0  0  0  0  0  0  0  0  0  0
    3.0728   -0.2476    0.1102 C   0  0  2  0  0  0  0  0  0  0  0  0
    3.8828   -0.0631   -0.6189 H   0  0  0  0  0  0  0  0  0  0  0  0
    3.6150   -1.3204    1.0895 C   0  0  0  0  0  0  0  0  0  0  0  0
    2.7566   -1.6466    2.2817 C   0  0  0  0  0  0  0  0  0  0  0  0
    3.2049   -1.4200    3.4619 N   0  0  0  0  0  0  0  0  0  0  0  0
    2.4791   -1.6357    4.5838 N   0  0  0  0  0  0  0  0  0  0  0  0
    3.3218   -1.8664    5.7548 C   0  0  0  0  0  0  0  0  0  0  0  0
    2.5023   -1.7345    7.0432 C   0  0  0  0  0  0  0  0  0  0  0  0
    1.3053   -2.5670    7.0527 N   0  0  0  0  0  0  0  0  0  0  0  0
    1.5271   -3.9752    7.3239 C   0  0  0  0  0  0  0  0  0  0  0  0
    0.4926   -2.2760    5.8837 C   0  0  0  0  0  0  0  0  0  0  0  0
    1.2362   -2.3929    4.5398 C   0  0  0  0  0  0  0  0  0  0  0  0
    2.7837    1.1303    0.7520 C   0  0  1  0  0  0  0  0  0  0  0  0
    2.6108    1.8404   -0.0828 H   0  0  0  0  0  0  0  0  0  0  0  0
    1.6149    1.1011    1.5818 O   0  0  0  0  0  0  0  0  0  0  0  0
    3.9407    1.6624    1.6017 C   0  0  0  0  0  0  0  0  0  0  0  0
    3.8672    3.1464    1.9719 C   0  0  0  0  0  0  0  0  0  0  0  0
    2.6726    3.5502    2.4867 N   0  0  0  0  0  0  0  0  0  0  0  0
    4.8220    3.8927    1.8375 O   0  0  0  0  0  0  0  0  0  0  0  0
    1.0045   -0.9890   -0.0364 H   0  0  0  0  0  0  0  0  0  0  0  0
    2.1065   -1.6647   -1.2466 H   0  0  0  0  0  0  0  0  0  0  0  0
    1.5245    0.0037   -1.4241 H   0  0  0  0  0  0  0  0  0  0  0  0
    4.6031   -1.0199    1.4675 H   0  0  0  0  0  0  0  0  0  0  0  0
    3.7739   -2.2430    0.4995 H   0  0  0  0  0  0  0  0  0  0  0  0
    1.7576   -2.0689    2.0929 H   0  0  0  0  0  0  0  0  0  0  0  0
    4.1342   -1.1257    5.7274 H   0  0  0  0  0  0  0  0  0  0  0  0
    3.7963   -2.8702    5.7029 H   0  0  0  0  0  0  0  0  0  0  0  0
    2.1896   -0.6807    7.1553 H   0  0  0  0  0  0  0  0  0  0  0  0
    3.1319   -1.9848    7.9123 H   0  0  0  0  0  0  0  0  0  0  0  0
    2.0539   -4.0863    8.2857 H   0  0  0  0  0  0  0  0  0  0  0  0
    2.1188   -4.5248    6.5591 H   0  0  0  0  0  0  0  0  0  0  0  0
    0.5566   -4.4895    7.4181 H   0  0  0  0  0  0  0  0  0  0  0  0
    0.1215   -1.2393    5.9742 H   0  0  0  0  0  0  0  0  0  0  0  0
   -0.3881   -2.9384    5.8723 H   0  0  0  0  0  0  0  0  0  0  0  0
    0.5883   -1.9761    3.7526 H   0  0  0  0  0  0  0  0  0  0  0  0
    1.4266   -3.4562    4.2704 H   0  0  0  0  0  0  0  0  0  0  0  0
    0.8457    0.9399    1.0209 H   0  0  0  0  0  0  0  0  0  0  0  0
    4.8892    1.5345    1.0623 H   0  0  0  0  0  0  0  0  0  0  0  0
    3.9976    1.0686    2.5294 H   0  0  0  0  0  0  0  0  0  0  0  0
    1.8911    2.9033    2.5194 H   0  0  0  0  0  0  0  0  0  0  0  0
    2.5633    4.5246    2.7406 H   0  0  0  0  0  0  0  0  0  0  0  0
  1  2  1  0
  1 21  1  0
  1 22  1  0
  1 23  1  0
  2  3  1  6
  2  4  1  0
  2 14  1  0
  4  5  1  0
  4 24  1  0
  4 25  1  0
  5  6  2  0
  5 26  1  0
  6  7  1  0
  7  8  1  0
  7 13  1  0
  8  9  1  0
  8 27  1  0
  8 28  1  0
  9 10  1  0
  9 29  1  0
  9 30  1  0
 10 11  1  0
 10 12  1  0
 11 31  1  0
 11 32  1  0
 11 33  1  0
 12 13  1  0
 12 34  1  0
 12 35  1  0
 13 36  1  0
 13 37  1  0
 14 15  1  6
 14 16  1  0
 14 17  1  0
 16 38  1  0
 17 18  1  0
 17 39  1  0
 17 40  1  0
 18 19  1  0
 18 20  2  0
 19 41  1  0
 19 42  1  0
M  END

