
     RDKit          3D

 35 36  0  0  0  0  0  0  0  0999 V2000
    1.1382   -0.1327   -0.0607 C   0  0  0  0  0  0  0  0  0  0  0  0
    2.6393   -0.0932   -0.2186 C   0  0  0  0  0  0  0  0  0  0  0  0
    3.4820   -1.2717    0.1675 C   0  0  0  0  0  0  0  0  0  0  0  0
    4.7088   -1.2489    0.1380 O   0  0  0  0  0  0  0  0  0  0  0  0
    2.8057   -2.3957    0.5679 N   0  0  0  0  0  0  0  0  0  0  0  0
    3.5038   -3.5965    0.9786 C   0  0  1  0  0  0  0  0  0  0  0  0
    2.6129   -4.5911    1.7315 C   0  0  0  0  0  0  0  0  0  0  0  0
    3.4113   -5.9090    1.7126 C   0  0  0  0  0  0  0  0  0  0  0  0
    4.3669   -5.8255    0.4895 C   0  0  2  0  0  0  0  0  0  0  0  0
    5.8389   -5.9827    0.8923 C   0  0  0  0  0  0  0  0  0  0  0  0
    6.2369   -6.1372    2.0145 O   0  0  0  0  0  0  0  0  0  0  0  0
    6.7166   -5.9487   -0.1373 O   0  0  0  0  0  0  0  0  0  0  0  0
    4.0784   -4.4474   -0.1717 C   0  0  0  0  0  0  0  0  0  0  0  0
    3.2747    0.9891   -0.6968 C   0  0  0  0  0  0  0  0  0  0  0  0
    2.8450    2.3530   -1.2010 C   0  0  0  0  0  0  0  0  0  0  0  0
    4.2203    2.5691   -1.7041 N   0  0  0  0  0  0  0  0  0  0  0  0
    4.7084    1.3504   -1.0084 C   0  0  0  0  0  0  0  0  0  0  0  0
    0.8416   -0.3283    0.9846 H   0  0  0  0  0  0  0  0  0  0  0  0
    0.6786   -0.9209   -0.6846 H   0  0  0  0  0  0  0  0  0  0  0  0
    0.6790    0.8204   -0.3588 H   0  0  0  0  0  0  0  0  0  0  0  0
    1.7952   -2.4201    0.5232 H   0  0  0  0  0  0  0  0  0  0  0  0
    4.3460   -3.2849    1.6192 H   0  0  0  0  0  0  0  0  0  0  0  0
    1.6603   -4.7060    1.1816 H   0  0  0  0  0  0  0  0  0  0  0  0
    2.3647   -4.2539    2.7496 H   0  0  0  0  0  0  0  0  0  0  0  0
    2.7537   -6.7886    1.6585 H   0  0  0  0  0  0  0  0  0  0  0  0
    4.0219   -6.0140    2.6206 H   0  0  0  0  0  0  0  0  0  0  0  0
    4.1652   -6.6355   -0.2328 H   0  0  0  0  0  0  0  0  0  0  0  0
    6.2535   -5.7984   -0.9737 H   0  0  0  0  0  0  0  0  0  0  0  0
    3.3090   -4.5546   -0.9544 H   0  0  0  0  0  0  0  0  0  0  0  0
    4.9555   -3.9643   -0.6269 H   0  0  0  0  0  0  0  0  0  0  0  0
    2.5245    3.0290   -0.3814 H   0  0  0  0  0  0  0  0  0  0  0  0
    2.0582    2.3748   -1.9786 H   0  0  0  0  0  0  0  0  0  0  0  0
    4.6538    3.4416   -1.4097 H   0  0  0  0  0  0  0  0  0  0  0  0
    5.3123    1.5194   -0.0963 H   0  0  0  0  0  0  0  0  0  0  0  0
    5.2645    0.6359   -1.6378 H   0  0  0  0  0  0  0  0  0  0  0  0
  1  2  1  0
  1 18  1  0
  1 19  1  0
  1 20  1  0
  2  3  1  0
  2 14  2  0
  3  4  2  0
  3  5  1  0
  5  6  1  0
  5 21  1  0
  6  7  1  0
  6 13  1  0
  6 22  1  1
  7  8  1  0
  7 23  1  0
  7 24  1  0
  8  9  1  0
  8 25  1  0
  8 26  1  0
  9 10  1  0
  9 13  1  0
  9 27  1  6
 10 11  2  0
 10 12  1  0
 12 28  1  0
 13 29  1  0
 13 30  1  0
 14 15  1  0
 14 17  1  0
 15 16  1  0
 15 31  1  0
 15 32  1  0
 16 17  1  0
 16 33  1  0
 17 34  1  0
 17 35  1  0
M  END

