
     RDKit          3D

 49 52  0  0  0  0  0  0  0  0999 V2000
    1.5780    0.8269   -0.4937 O   0  0  0  0  0  0  0  0  0  0  0  0
    2.6026    0.5721    0.1345 C   0  0  0  0  0  0  0  0  0  0  0  0
    3.2702    1.5439    0.8482 N   0  0  0  0  0  0  0  0  0  0  0  0
    2.8213    2.9251    0.7926 C   0  0  0  0  0  0  0  0  0  0  0  0
    3.2757    3.6823   -0.4730 C   0  0  0  0  0  0  0  0  0  0  0  0
    2.7483    5.0981   -0.5205 C   0  0  0  0  0  0  0  0  0  0  0  0
    3.5278    6.1822   -0.0872 C   0  0  0  0  0  0  0  0  0  0  0  0
    3.0190    7.4845   -0.0966 C   0  0  0  0  0  0  0  0  0  0  0  0
    1.7152    7.7246   -0.5390 C   0  0  0  0  0  0  0  0  0  0  0  0
    0.9264    6.6540   -0.9726 C   0  0  0  0  0  0  0  0  0  0  0  0
    1.4390    5.3544   -0.9626 C   0  0  0  0  0  0  0  0  0  0  0  0
    3.1317   -0.7062    0.1988 N   0  0  0  0  0  0  0  0  0  0  0  0
    4.3497   -0.9912    0.9520 C   0  0  0  0  0  0  0  0  0  0  0  0
    4.7340   -2.4715    0.8846 C   0  0  0  0  0  0  0  0  0  0  0  0
    4.7033   -2.9067   -0.4948 N   0  0  0  0  0  0  0  0  0  0  0  0
    5.6144   -3.6449   -1.2132 C   0  0  0  0  0  0  0  0  0  0  0  0
    5.1380   -3.7556   -2.5074 C   0  0  0  0  0  0  0  0  0  0  0  0
    3.8990   -3.0508   -2.5717 C   0  0  0  0  0  0  0  0  0  0  0  0
    3.6572   -2.5368   -1.3098 C   0  0  0  0  0  0  0  0  0  0  0  0
    2.5443   -1.7386   -0.6949 C   0  0  1  0  0  0  0  0  0  0  0  0
    2.0288   -1.1770   -1.4856 H   0  0  0  0  0  0  0  0  0  0  0  0
    1.4797   -2.5893    0.0241 C   0  0  0  0  0  0  0  0  0  0  0  0
    1.5718   -3.9850    0.1172 C   0  0  0  0  0  0  0  0  0  0  0  0
    0.5855   -4.7342    0.7687 C   0  0  0  0  0  0  0  0  0  0  0  0
   -0.5051   -4.0728    1.3226 C   0  0  0  0  0  0  0  0  0  0  0  0
   -1.4565   -4.7830    1.9498 F   0  0  0  0  0  0  0  0  0  0  0  0
   -0.6361   -2.6875    1.2335 C   0  0  0  0  0  0  0  0  0  0  0  0
    0.3554   -1.9535    0.5825 C   0  0  0  0  0  0  0  0  0  0  0  0
    4.2158    1.3738    1.1634 H   0  0  0  0  0  0  0  0  0  0  0  0
    3.1848    3.4433    1.6947 H   0  0  0  0  0  0  0  0  0  0  0  0
    1.7233    2.9210    0.8343 H   0  0  0  0  0  0  0  0  0  0  0  0
    2.9165    3.1153   -1.3460 H   0  0  0  0  0  0  0  0  0  0  0  0
    4.3783    3.6881   -0.5143 H   0  0  0  0  0  0  0  0  0  0  0  0
    4.5521    6.0048    0.2552 H   0  0  0  0  0  0  0  0  0  0  0  0
    3.6453    8.3152    0.2397 H   0  0  0  0  0  0  0  0  0  0  0  0
    1.3161    8.7421   -0.5498 H   0  0  0  0  0  0  0  0  0  0  0  0
   -0.0930    6.8326   -1.3249 H   0  0  0  0  0  0  0  0  0  0  0  0
    0.8185    4.5220   -1.3080 H   0  0  0  0  0  0  0  0  0  0  0  0
    4.2200   -0.7082    2.0118 H   0  0  0  0  0  0  0  0  0  0  0  0
    5.1996   -0.4032    0.5504 H   0  0  0  0  0  0  0  0  0  0  0  0
    4.0376   -3.0743    1.4920 H   0  0  0  0  0  0  0  0  0  0  0  0
    5.7450   -2.6088    1.2938 H   0  0  0  0  0  0  0  0  0  0  0  0
    6.5254   -4.0205   -0.7514 H   0  0  0  0  0  0  0  0  0  0  0  0
    5.6332   -4.2781   -3.3239 H   0  0  0  0  0  0  0  0  0  0  0  0
    3.2554   -2.9330   -3.4415 H   0  0  0  0  0  0  0  0  0  0  0  0
    2.4188   -4.5055   -0.3343 H   0  0  0  0  0  0  0  0  0  0  0  0
    0.6512   -5.8214    0.8458 H   0  0  0  0  0  0  0  0  0  0  0  0
   -1.5143   -2.2035    1.6661 H   0  0  0  0  0  0  0  0  0  0  0  0
    0.2562   -0.8704    0.4843 H   0  0  0  0  0  0  0  0  0  0  0  0
  1  2  2  0
  2  3  1  0
  2 12  1  0
  3  4  1  0
  3 29  1  0
  4  5  1  0
  4 30  1  0
  4 31  1  0
  5  6  1  0
  5 32  1  0
  5 33  1  0
  6  7  2  0
  6 11  1  0
  7  8  1  0
  7 34  1  0
  8  9  2  0
  8 35  1  0
  9 10  1  0
  9 36  1  0
 10 11  2  0
 10 37  1  0
 11 38  1  0
 12 13  1  0
 12 20  1  0
 13 14  1  0
 13 39  1  0
 13 40  1  0
 14 15  1  0
 14 41  1  0
 14 42  1  0
 15 16  1  0
 15 19  1  0
 16 17  2  0
 16 43  1  0
 17 18  1  0
 17 44  1  0
 18 19  2  0
 18 45  1  0
 19 20  1  0
 20 21  1  6
 20 22  1  0
 22 23  2  0
 22 28  1  0
 23 24  1  0
 23 46  1  0
 24 25  2  0
 24 47  1  0
 25 26  1  0
 25 27  1  0
 27 28  2  0
 27 48  1  0
 28 49  1  0
M  END

