
     RDKit          3D

 40 41  0  0  0  0  0  0  0  0999 V2000
    2.5545    1.5448   -0.7080 C   0  0  0  0  0  0  0  0  0  0  0  0
    2.5986    0.1367   -0.1142 C   0  0  0  0  0  0  0  0  0  0  0  0
    2.9007   -0.9489   -1.1394 C   0  0  2  0  0  0  0  0  0  0  0  0
    2.8906   -2.3568   -0.5529 C   0  0  0  0  0  0  0  0  0  0  0  0
    3.2947   -3.3320   -1.5489 N   0  0  0  0  0  0  0  0  0  0  0  0
    2.8802   -4.7185   -1.3696 C   0  0  0  0  0  0  0  0  0  0  0  0
    1.7143   -5.1404   -2.2677 C   0  0  0  0  0  0  0  0  0  0  0  0
    4.2458   -2.9675   -2.4832 C   0  0  0  0  0  0  0  0  0  0  0  0
    4.8063   -3.8688   -3.4060 C   0  0  0  0  0  0  0  0  0  0  0  0
    5.8038   -3.4410   -4.2909 C   0  0  0  0  0  0  0  0  0  0  0  0
    6.5226   -4.6296   -5.4088 S   0  0  1  0  0  0  0  0  0  0  0  0
    5.4782   -5.6253   -5.7803 O   0  0  0  0  0  0  0  0  0  0  0  0
    7.2691   -3.9260   -6.4550 O   0  0  0  0  0  0  0  0  0  0  0  0
    7.7291   -5.5870   -4.4265 C   0  0  0  0  0  0  0  0  0  0  0  0
    7.1538   -6.5538   -3.3800 C   0  0  0  0  0  0  0  0  0  0  0  0
    7.7160   -6.7373   -2.3347 O   0  0  0  0  0  0  0  0  0  0  0  0
    6.0394   -7.2001   -3.7258 O   0  0  0  0  0  0  0  0  0  0  0  0
    6.2666   -2.1261   -4.3215 C   0  0  0  0  0  0  0  0  0  0  0  0
    5.6898   -1.2159   -3.4331 C   0  0  0  0  0  0  0  0  0  0  0  0
    4.7008   -1.6144   -2.5342 C   0  0  0  0  0  0  0  0  0  0  0  0
    4.1920   -0.6758   -1.6945 O   0  0  0  0  0  0  0  0  0  0  0  0
    2.3417    2.2935    0.0704 H   0  0  0  0  0  0  0  0  0  0  0  0
    1.7708    1.6303   -1.4787 H   0  0  0  0  0  0  0  0  0  0  0  0
    3.5157    1.8023   -1.1763 H   0  0  0  0  0  0  0  0  0  0  0  0
    1.6321   -0.1065    0.3599 H   0  0  0  0  0  0  0  0  0  0  0  0
    3.3631    0.0838    0.6802 H   0  0  0  0  0  0  0  0  0  0  0  0
    2.1588   -0.9055   -1.9609 H   0  0  0  0  0  0  0  0  0  0  0  0
    1.8694   -2.5917   -0.2124 H   0  0  0  0  0  0  0  0  0  0  0  0
    3.5498   -2.3826    0.3394 H   0  0  0  0  0  0  0  0  0  0  0  0
    2.5998   -4.8450   -0.3114 H   0  0  0  0  0  0  0  0  0  0  0  0
    3.7443   -5.3860   -1.5258 H   0  0  0  0  0  0  0  0  0  0  0  0
    0.8258   -4.5156   -2.0827 H   0  0  0  0  0  0  0  0  0  0  0  0
    1.4400   -6.1899   -2.0749 H   0  0  0  0  0  0  0  0  0  0  0  0
    1.9734   -5.0483   -3.3337 H   0  0  0  0  0  0  0  0  0  0  0  0
    4.4680   -4.9019   -3.4434 H   0  0  0  0  0  0  0  0  0  0  0  0
    8.4245   -4.8873   -3.9471 H   0  0  0  0  0  0  0  0  0  0  0  0
    8.2669   -6.1542   -5.2049 H   0  0  0  0  0  0  0  0  0  0  0  0
    5.6988   -6.8556   -4.5909 H   0  0  0  0  0  0  0  0  0  0  0  0
    7.0332   -1.8233   -5.0350 H   0  0  0  0  0  0  0  0  0  0  0  0
    5.9927   -0.1671   -3.4224 H   0  0  0  0  0  0  0  0  0  0  0  0
  1  2  1  0
  1 22  1  0
  1 23  1  0
  1 24  1  0
  2  3  1  0
  2 25  1  0
  2 26  1  0
  3  4  1  0
  3 21  1  0
  3 27  1  6
  4  5  1  0
  4 28  1  0
  4 29  1  0
  5  6  1  0
  5  8  1  0
  6  7  1  0
  6 30  1  0
  6 31  1  0
  7 32  1  0
  7 33  1  0
  7 34  1  0
  8  9  1  0
  8 20  2  0
  9 10  2  0
  9 35  1  0
 10 11  1  0
 10 18  1  0
 11 12  2  0
 11 13  2  0
 11 14  1  1
 14 15  1  0
 14 36  1  0
 14 37  1  0
 15 16  2  0
 15 17  1  0
 17 38  1  0
 18 19  2  0
 18 39  1  0
 19 20  1  0
 19 40  1  0
 20 21  1  0
M  END

