
     RDKit          3D

 39 39  0  0  0  0  0  0  0  0999 V2000
    0.7734    0.1606    0.0334 C   0  0  0  0  0  0  0  0  0  0  0  0
    2.3078    0.1323    0.0122 C   0  0  1  0  0  0  0  0  0  0  0  0
    2.9090   -1.2734   -0.2033 C   0  0  0  0  0  0  0  0  0  0  0  0
    2.7836   -1.7679   -1.6505 C   0  0  0  0  0  0  0  0  0  0  0  0
    3.2936   -0.7187   -2.6469 C   0  0  0  0  0  0  0  0  0  0  0  0
    2.6230    0.6441   -2.4009 C   0  0  2  0  0  0  0  0  0  0  0  0
    2.9338    1.6733   -3.4875 C   0  0  0  0  0  0  0  0  0  0  0  0
    2.8746    1.0608   -0.9974 N   0  0  0  0  0  0  0  0  0  0  0  0
    3.8517    1.9671   -0.6786 C   0  0  0  0  0  0  0  0  0  0  0  0
    4.5096    2.6354   -1.4349 O   0  0  0  0  0  0  0  0  0  0  0  0
    3.9985    2.0336    0.7081 O   0  0  0  0  0  0  0  0  0  0  0  0
    4.7729    3.1804    1.0720 O   0  0  0  0  0  0  0  0  0  0  0  0
    6.0311    2.7749    1.6658 C   0  0  1  0  0  0  0  0  0  0  0  0
    6.8728    1.9618    0.6788 C   0  0  0  0  0  0  0  0  0  0  0  0
    6.6713    4.1391    1.9438 C   0  0  0  0  0  0  0  0  0  0  0  0
    5.7713    2.0052    2.9647 C   0  0  0  0  0  0  0  0  0  0  0  0
    0.4069   -0.4249    0.8913 H   0  0  0  0  0  0  0  0  0  0  0  0
    0.3112   -0.2632   -0.8707 H   0  0  0  0  0  0  0  0  0  0  0  0
    0.4132    1.1944    0.1477 H   0  0  0  0  0  0  0  0  0  0  0  0
    2.6388    0.4929    0.9903 H   0  0  0  0  0  0  0  0  0  0  0  0
    2.4384   -1.9871    0.4938 H   0  0  0  0  0  0  0  0  0  0  0  0
    3.9782   -1.2261    0.0685 H   0  0  0  0  0  0  0  0  0  0  0  0
    1.7274   -1.9971   -1.8786 H   0  0  0  0  0  0  0  0  0  0  0  0
    3.3326   -2.7164   -1.7716 H   0  0  0  0  0  0  0  0  0  0  0  0
    3.0952   -1.0448   -3.6817 H   0  0  0  0  0  0  0  0  0  0  0  0
    4.3877   -0.5951   -2.5546 H   0  0  0  0  0  0  0  0  0  0  0  0
    1.5333    0.4785   -2.4458 H   0  0  0  0  0  0  0  0  0  0  0  0
    4.0100    1.8172   -3.6360 H   0  0  0  0  0  0  0  0  0  0  0  0
    2.4960    2.6534   -3.2513 H   0  0  0  0  0  0  0  0  0  0  0  0
    2.4866    1.3148   -4.4292 H   0  0  0  0  0  0  0  0  0  0  0  0
    6.9564    2.4916   -0.2797 H   0  0  0  0  0  0  0  0  0  0  0  0
    6.4205    0.9768    0.4894 H   0  0  0  0  0  0  0  0  0  0  0  0
    7.8799    1.7934    1.0917 H   0  0  0  0  0  0  0  0  0  0  0  0
    6.8269    4.6896    1.0046 H   0  0  0  0  0  0  0  0  0  0  0  0
    7.6441    4.0021    2.4397 H   0  0  0  0  0  0  0  0  0  0  0  0
    6.0260    4.7432    2.5989 H   0  0  0  0  0  0  0  0  0  0  0  0
    5.2468    1.0602    2.7608 H   0  0  0  0  0  0  0  0  0  0  0  0
    5.1524    2.6040    3.6503 H   0  0  0  0  0  0  0  0  0  0  0  0
    6.7212    1.7672    3.4688 H   0  0  0  0  0  0  0  0  0  0  0  0
  1  2  1  0
  1 17  1  0
  1 18  1  0
  1 19  1  0
  2  3  1  0
  2  8  1  0
  2 20  1  1
  3  4  1  0
  3 21  1  0
  3 22  1  0
  4  5  1  0
  4 23  1  0
  4 24  1  0
  5  6  1  0
  5 25  1  0
  5 26  1  0
  6  7  1  0
  6  8  1  0
  6 27  1  1
  7 28  1  0
  7 29  1  0
  7 30  1  0
  8  9  1  0
  9 10  2  0
  9 11  1  0
 11 12  1  0
 13 12  1  6
 13 14  1  0
 13 15  1  0
 13 16  1  0
 14 31  1  0
 14 32  1  0
 14 33  1  0
 15 34  1  0
 15 35  1  0
 15 36  1  0
 16 37  1  0
 16 38  1  0
 16 39  1  0
M  END

