
     RDKit          3D

 60 62  0  0  0  0  0  0  0  0999 V2000
    3.1749   -2.3050   -1.5719 C   0  0  0  0  0  0  0  0  0  0  0  0
    3.6864   -0.9656   -1.1356 C   0  0  0  0  0  0  0  0  0  0  0  0
    4.9291   -0.6883   -0.5887 C   0  0  0  0  0  0  0  0  0  0  0  0
    4.9331    0.7033   -0.3667 C   0  0  0  0  0  0  0  0  0  0  0  0
    6.0435    1.5136    0.2104 C   0  0  0  0  0  0  0  0  0  0  0  0
    7.1028    0.9979    0.5479 O   0  0  0  0  0  0  0  0  0  0  0  0
    5.7763    2.8479    0.3106 N   0  0  0  0  0  0  0  0  0  0  0  0
    6.6783    3.7906    0.9327 C   0  0  0  0  0  0  0  0  0  0  0  0
    6.9949    5.0600    0.0823 C   0  0  2  0  0  0  0  0  0  0  0  0
    7.6643    4.7281   -1.1878 N   0  0  0  0  0  0  0  0  0  0  0  0
    9.0146    4.1868   -1.1953 C   0  0  0  0  0  0  0  0  0  0  0  0
    9.1280    2.7285   -1.6629 C   0  0  0  0  0  0  0  0  0  0  0  0
    8.4951    2.4937   -3.3673 S   0  0  0  0  0  0  0  0  0  0  0  0
    6.8770    3.3127   -3.1175 C   0  0  0  0  0  0  0  0  0  0  0  0
    7.0246    4.7060   -2.4907 C   0  0  0  0  0  0  0  0  0  0  0  0
    7.9013    5.9723    0.9643 C   0  0  0  0  0  0  0  0  0  0  0  0
    8.1589    7.3479    0.3445 C   0  0  0  0  0  0  0  0  0  0  0  0
    6.8440    8.1007    0.1177 C   0  0  0  0  0  0  0  0  0  0  0  0
    5.8720    7.2656   -0.7228 C   0  0  0  0  0  0  0  0  0  0  0  0
    5.6810    5.8543   -0.1447 C   0  0  0  0  0  0  0  0  0  0  0  0
    3.7775    1.2478   -0.7440 N   0  0  0  0  0  0  0  0  0  0  0  0
    3.0238    0.2450   -1.2188 N   0  0  0  0  0  0  0  0  0  0  0  0
    1.6183    0.5383   -1.6417 C   0  0  1  0  0  0  0  0  0  0  0  0
    1.4395    2.0606   -1.7528 C   0  0  0  0  0  0  0  0  0  0  0  0
    1.3380   -0.0864   -3.0203 C   0  0  0  0  0  0  0  0  0  0  0  0
    0.6523   -0.0086   -0.5737 C   0  0  0  0  0  0  0  0  0  0  0  0
    3.8582   -3.0795   -1.1973 H   0  0  0  0  0  0  0  0  0  0  0  0
    3.1383   -2.4036   -2.6687 H   0  0  0  0  0  0  0  0  0  0  0  0
    2.1712   -2.5330   -1.1830 H   0  0  0  0  0  0  0  0  0  0  0  0
    5.7334   -1.3884   -0.3795 H   0  0  0  0  0  0  0  0  0  0  0  0
    4.8327    3.1314    0.0683 H   0  0  0  0  0  0  0  0  0  0  0  0
    7.6058    3.2404    1.1436 H   0  0  0  0  0  0  0  0  0  0  0  0
    6.2705    4.1142    1.9092 H   0  0  0  0  0  0  0  0  0  0  0  0
    9.4442    4.2494   -0.1858 H   0  0  0  0  0  0  0  0  0  0  0  0
    9.6611    4.8061   -1.8522 H   0  0  0  0  0  0  0  0  0  0  0  0
    8.6042    2.0450   -0.9765 H   0  0  0  0  0  0  0  0  0  0  0  0
   10.1876    2.4291   -1.6993 H   0  0  0  0  0  0  0  0  0  0  0  0
    6.2265    2.6775   -2.4966 H   0  0  0  0  0  0  0  0  0  0  0  0
    6.4259    3.3950   -4.1194 H   0  0  0  0  0  0  0  0  0  0  0  0
    6.0263    5.1554   -2.4325 H   0  0  0  0  0  0  0  0  0  0  0  0
    7.6112    5.3273   -3.2009 H   0  0  0  0  0  0  0  0  0  0  0  0
    8.8523    5.4671    1.1914 H   0  0  0  0  0  0  0  0  0  0  0  0
    7.4005    6.1052    1.9394 H   0  0  0  0  0  0  0  0  0  0  0  0
    8.6832    7.2209   -0.6182 H   0  0  0  0  0  0  0  0  0  0  0  0
    8.8293    7.9328    0.9964 H   0  0  0  0  0  0  0  0  0  0  0  0
    7.0296    9.0736   -0.3677 H   0  0  0  0  0  0  0  0  0  0  0  0
    6.3823    8.3248    1.0976 H   0  0  0  0  0  0  0  0  0  0  0  0
    6.2522    7.2046   -1.7554 H   0  0  0  0  0  0  0  0  0  0  0  0
    4.8911    7.7674   -0.7850 H   0  0  0  0  0  0  0  0  0  0  0  0
    4.9746    5.2804   -0.7657 H   0  0  0  0  0  0  0  0  0  0  0  0
    5.1980    5.9471    0.8438 H   0  0  0  0  0  0  0  0  0  0  0  0
    2.1426    2.4937   -2.4779 H   0  0  0  0  0  0  0  0  0  0  0  0
    1.5985    2.5596   -0.7890 H   0  0  0  0  0  0  0  0  0  0  0  0
    0.4131    2.2670   -2.0924 H   0  0  0  0  0  0  0  0  0  0  0  0
    2.0878    0.2411   -3.7567 H   0  0  0  0  0  0  0  0  0  0  0  0
    0.3485    0.2418   -3.3730 H   0  0  0  0  0  0  0  0  0  0  0  0
    1.3275   -1.1832   -2.9982 H   0  0  0  0  0  0  0  0  0  0  0  0
    0.8680    0.4450    0.4055 H   0  0  0  0  0  0  0  0  0  0  0  0
    0.7257   -1.1008   -0.4691 H   0  0  0  0  0  0  0  0  0  0  0  0
   -0.3872    0.2329   -0.8448 H   0  0  0  0  0  0  0  0  0  0  0  0
  1  2  1  0
  1 27  1  0
  1 28  1  0
  1 29  1  0
  2  3  2  0
  2 22  1  0
  3  4  1  0
  3 30  1  0
  4  5  1  0
  4 21  2  0
  5  6  2  0
  5  7  1  0
  7  8  1  0
  7 31  1  0
  9  8  1  1
  8 32  1  0
  8 33  1  0
  9 10  1  0
  9 16  1  0
  9 20  1  0
 10 11  1  0
 10 15  1  0
 11 12  1  0
 11 34  1  0
 11 35  1  0
 12 13  1  0
 12 36  1  0
 12 37  1  0
 13 14  1  0
 14 15  1  0
 14 38  1  0
 14 39  1  0
 15 40  1  0
 15 41  1  0
 16 17  1  0
 16 42  1  0
 16 43  1  0
 17 18  1  0
 17 44  1  0
 17 45  1  0
 18 19  1  0
 18 46  1  0
 18 47  1  0
 19 20  1  0
 19 48  1  0
 19 49  1  0
 20 50  1  0
 20 51  1  0
 21 22  1  0
 22 23  1  0
 23 24  1  6
 23 25  1  0
 23 26  1  0
 24 52  1  0
 24 53  1  0
 24 54  1  0
 25 55  1  0
 25 56  1  0
 25 57  1  0
 26 58  1  0
 26 59  1  0
 26 60  1  0
M  END

