
     RDKit          3D

 24 25  0  0  0  0  0  0  0  0999 V2000
    1.7047   -0.0801    1.3104 O   0  0  0  0  0  0  0  0  0  0  0  0
    2.6125    0.0254    0.5231 C   0  0  0  0  0  0  0  0  0  0  0  0
    3.1162    1.2923   -0.1626 C   0  0  0  0  0  0  0  0  0  0  0  0
    4.2529    0.8272   -1.0524 C   0  0  0  0  0  0  0  0  0  0  0  0
    5.0028    1.5845   -1.8805 C   0  0  0  0  0  0  0  0  0  0  0  0
    6.1319    1.0750   -2.7449 C   0  0  0  0  0  0  0  0  0  0  0  0
    6.0360    1.6542   -4.1683 C   0  0  0  0  0  0  0  0  0  0  0  0
    5.8282    3.1649   -4.1230 C   0  0  0  0  0  0  0  0  0  0  0  0
    4.6884    3.4983   -3.3518 O   0  0  0  0  0  0  0  0  0  0  0  0
    4.7808    3.0792   -2.0058 C   0  0  0  0  0  0  0  0  0  0  0  0
    4.3985   -0.6524   -0.8529 C   0  0  0  0  0  0  0  0  0  0  0  0
    5.1778   -1.4388   -1.3464 O   0  0  0  0  0  0  0  0  0  0  0  0
    3.4126   -1.0142    0.0705 N   0  0  0  0  0  0  0  0  0  0  0  0
    3.4209    2.0110    0.6164 H   0  0  0  0  0  0  0  0  0  0  0  0
    2.2782    1.7528   -0.7119 H   0  0  0  0  0  0  0  0  0  0  0  0
    6.1654   -0.0201   -2.7479 H   0  0  0  0  0  0  0  0  0  0  0  0
    7.0779    1.4255   -2.2861 H   0  0  0  0  0  0  0  0  0  0  0  0
    5.1839    1.1946   -4.6969 H   0  0  0  0  0  0  0  0  0  0  0  0
    6.9465    1.4107   -4.7405 H   0  0  0  0  0  0  0  0  0  0  0  0
    5.6540    3.5789   -5.1279 H   0  0  0  0  0  0  0  0  0  0  0  0
    6.7301    3.6626   -3.7051 H   0  0  0  0  0  0  0  0  0  0  0  0
    3.8542    3.4041   -1.5136 H   0  0  0  0  0  0  0  0  0  0  0  0
    5.6264    3.5993   -1.5004 H   0  0  0  0  0  0  0  0  0  0  0  0
    3.2875   -1.9760    0.3735 H   0  0  0  0  0  0  0  0  0  0  0  0
  1  2  2  0
  2  3  1  0
  2 13  1  0
  3  4  1  0
  3 14  1  0
  3 15  1  0
  4  5  2  0
  4 11  1  0
  5  6  1  0
  5 10  1  0
  6  7  1  0
  6 16  1  0
  6 17  1  0
  7  8  1  0
  7 18  1  0
  7 19  1  0
  8  9  1  0
  8 20  1  0
  8 21  1  0
  9 10  1  0
 10 22  1  0
 10 23  1  0
 11 12  2  0
 11 13  1  0
 13 24  1  0
M  END

