
     RDKit          3D

 50 54  0  0  0  0  0  0  0  0999 V2000
    1.3251   -1.2118    1.7633 C   0  0  0  0  0  0  0  0  0  0  0  0
    1.9236   -0.1244    0.8533 C   0  0  1  0  0  0  0  0  0  0  0  0
    3.0835    0.5754    1.5412 C   0  0  0  0  0  0  0  0  0  0  0  0
    3.2685    0.6581    2.8149 N   0  0  0  0  0  0  0  0  0  0  0  0
    4.3714    1.4366    3.1203 C   0  0  0  0  0  0  0  0  0  0  0  0
    4.8373    1.7198    4.4154 C   0  0  0  0  0  0  0  0  0  0  0  0
    5.9666    2.5189    4.5680 C   0  0  0  0  0  0  0  0  0  0  0  0
    6.6400    3.0390    3.4458 C   0  0  0  0  0  0  0  0  0  0  0  0
    6.1951    2.7692    2.1519 C   0  0  0  0  0  0  0  0  0  0  0  0
    5.0569    1.9682    1.9952 C   0  0  0  0  0  0  0  0  0  0  0  0
    4.2599    1.4403    0.5275 S   0  0  0  0  0  0  0  0  0  0  0  0
    2.3166   -0.4988   -0.4999 N   0  0  0  0  0  0  0  0  0  0  0  0
    3.2302   -1.6228   -0.6854 C   0  0  0  0  0  0  0  0  0  0  0  0
    2.5034   -2.9339   -1.0416 C   0  0  0  0  0  0  0  0  0  0  0  0
    1.5682   -2.7888   -2.1569 N   0  0  0  0  0  0  0  0  0  0  0  0
    2.1498   -2.8453   -3.4819 C   0  0  0  0  0  0  0  0  0  0  0  0
    1.1855   -3.2816   -4.4774 N   0  0  0  0  0  0  0  0  0  0  0  0
    0.7887   -2.4893   -5.5483 C   0  0  0  0  0  0  0  0  0  0  0  0
    1.1153   -1.3651   -5.8115 O   0  0  0  0  0  0  0  0  0  0  0  0
   -0.0921   -3.2386   -6.3060 O   0  0  0  0  0  0  0  0  0  0  0  0
   -0.2446   -4.4644   -5.7089 C   0  0  0  0  0  0  0  0  0  0  0  0
   -1.0299   -5.5249   -6.1268 C   0  0  0  0  0  0  0  0  0  0  0  0
   -1.0074   -6.6792   -5.3259 C   0  0  0  0  0  0  0  0  0  0  0  0
   -0.2285   -6.7401   -4.1631 C   0  0  0  0  0  0  0  0  0  0  0  0
    0.5610   -5.6552   -3.7490 C   0  0  0  0  0  0  0  0  0  0  0  0
    0.5424   -4.5171   -4.5502 C   0  0  0  0  0  0  0  0  0  0  0  0
    0.6332   -1.6827   -1.9299 C   0  0  0  0  0  0  0  0  0  0  0  0
    1.3540   -0.3661   -1.5880 C   0  0  0  0  0  0  0  0  0  0  0  0
    1.0740   -0.7811    2.7428 H   0  0  0  0  0  0  0  0  0  0  0  0
    2.0428   -2.0267    1.9428 H   0  0  0  0  0  0  0  0  0  0  0  0
    0.4134   -1.6340    1.3152 H   0  0  0  0  0  0  0  0  0  0  0  0
    1.1498    0.6552    0.7277 H   0  0  0  0  0  0  0  0  0  0  0  0
    4.3038    1.3088    5.2747 H   0  0  0  0  0  0  0  0  0  0  0  0
    6.3372    2.7470    5.5704 H   0  0  0  0  0  0  0  0  0  0  0  0
    7.5247    3.6643    3.5893 H   0  0  0  0  0  0  0  0  0  0  0  0
    6.7218    3.1753    1.2855 H   0  0  0  0  0  0  0  0  0  0  0  0
    3.8399   -1.7566    0.2219 H   0  0  0  0  0  0  0  0  0  0  0  0
    3.9393   -1.3717   -1.4987 H   0  0  0  0  0  0  0  0  0  0  0  0
    1.9320   -3.2875   -0.1662 H   0  0  0  0  0  0  0  0  0  0  0  0
    3.2380   -3.7200   -1.2859 H   0  0  0  0  0  0  0  0  0  0  0  0
    2.9842   -3.5662   -3.4543 H   0  0  0  0  0  0  0  0  0  0  0  0
    2.5438   -1.8879   -3.8714 H   0  0  0  0  0  0  0  0  0  0  0  0
   -1.6319   -5.4578   -7.0343 H   0  0  0  0  0  0  0  0  0  0  0  0
   -1.6117   -7.5417   -5.6161 H   0  0  0  0  0  0  0  0  0  0  0  0
   -0.2388   -7.6500   -3.5585 H   0  0  0  0  0  0  0  0  0  0  0  0
    1.1489   -5.6933   -2.8320 H   0  0  0  0  0  0  0  0  0  0  0  0
   -0.0403   -1.9697   -1.1031 H   0  0  0  0  0  0  0  0  0  0  0  0
    0.0036   -1.5513   -2.8238 H   0  0  0  0  0  0  0  0  0  0  0  0
    0.6203    0.4147   -1.3330 H   0  0  0  0  0  0  0  0  0  0  0  0
    1.8867   -0.0085   -2.4905 H   0  0  0  0  0  0  0  0  0  0  0  0
  1  2  1  0
  1 29  1  0
  1 30  1  0
  1 31  1  0
  2  3  1  0
  2 12  1  0
  2 32  1  6
  3  4  2  0
  3 11  1  0
  4  5  1  0
  5  6  2  0
  5 10  1  0
  6  7  1  0
  6 33  1  0
  7  8  2  0
  7 34  1  0
  8  9  1  0
  8 35  1  0
  9 10  2  0
  9 36  1  0
 10 11  1  0
 12 13  1  0
 12 28  1  0
 13 14  1  0
 13 37  1  0
 13 38  1  0
 14 15  1  0
 14 39  1  0
 14 40  1  0
 15 16  1  0
 15 27  1  0
 16 17  1  0
 16 41  1  0
 16 42  1  0
 17 18  1  0
 17 26  1  0
 18 19  2  0
 18 20  1  0
 20 21  1  0
 21 22  1  0
 21 26  2  0
 22 23  2  0
 22 43  1  0
 23 24  1  0
 23 44  1  0
 24 25  2  0
 24 45  1  0
 25 26  1  0
 25 46  1  0
 27 28  1  0
 27 47  1  0
 27 48  1  0
 28 49  1  0
 28 50  1  0
M  END

