
     RDKit          3D

 24 25  0  0  0  0  0  0  0  0999 V2000
    0.8878   -0.2676    0.2163 O   0  0  0  0  0  0  0  0  0  0  0  0
    2.0939   -0.1579    0.0615 C   0  0  0  0  0  0  0  0  0  0  0  0
    2.7409    0.1431   -1.1004 N   0  0  0  0  0  0  0  0  0  0  0  0
    2.2070    0.3949   -2.3761 C   0  0  0  0  0  0  0  0  0  0  0  0
    0.8271    0.3707   -2.6492 C   0  0  0  0  0  0  0  0  0  0  0  0
    0.3804    0.6325   -3.9467 C   0  0  0  0  0  0  0  0  0  0  0  0
    1.2789    0.9181   -4.9784 C   0  0  0  0  0  0  0  0  0  0  0  0
    2.6501    0.9414   -4.7034 C   0  0  0  0  0  0  0  0  0  0  0  0
    3.1127    0.6824   -3.4143 C   0  0  0  0  0  0  0  0  0  0  0  0
    3.0406   -0.3601    1.2251 C   0  0  0  0  0  0  0  0  0  0  0  0
    2.5349   -0.6761    2.4919 C   0  0  0  0  0  0  0  0  0  0  0  0
    3.3495   -0.8598    3.5358 N   0  0  0  0  0  0  0  0  0  0  0  0
    4.6553   -0.7326    3.3320 C   0  0  0  0  0  0  0  0  0  0  0  0
    5.1554   -0.4141    2.0538 C   0  0  0  0  0  0  0  0  0  0  0  0
    6.8747   -0.2541    1.8192 Cl  0  0  0  0  0  0  0  0  0  0  0  0
    4.3595   -0.2318    1.0210 N   0  0  0  0  0  0  0  0  0  0  0  0
    3.7540    0.1849   -1.0077 H   0  0  0  0  0  0  0  0  0  0  0  0
    0.1283    0.1486   -1.8459 H   0  0  0  0  0  0  0  0  0  0  0  0
   -0.6935    0.6115   -4.1498 H   0  0  0  0  0  0  0  0  0  0  0  0
    0.9153    1.1210   -5.9884 H   0  0  0  0  0  0  0  0  0  0  0  0
    3.3676    1.1628   -5.4975 H   0  0  0  0  0  0  0  0  0  0  0  0
    4.1862    0.7018   -3.2040 H   0  0  0  0  0  0  0  0  0  0  0  0
    1.4571   -0.7765    2.6407 H   0  0  0  0  0  0  0  0  0  0  0  0
    5.3364   -0.8800    4.1758 H   0  0  0  0  0  0  0  0  0  0  0  0
  1  2  2  0
  2  3  1  0
  2 10  1  0
  3  4  1  0
  3 17  1  0
  4  5  2  0
  4  9  1  0
  5  6  1  0
  5 18  1  0
  6  7  2  0
  6 19  1  0
  7  8  1  0
  7 20  1  0
  8  9  2  0
  8 21  1  0
  9 22  1  0
 10 11  2  0
 10 16  1  0
 11 12  1  0
 11 23  1  0
 12 13  2  0
 13 14  1  0
 13 24  1  0
 14 15  1  0
 14 16  2  0
M  END

