
     RDKit          3D

 34 34  0  0  0  0  0  0  0  0999 V2000
    0.9350    0.3654    0.1090 C   0  0  0  0  0  0  0  0  0  0  0  0
    2.4224    0.0160    0.0375 C   0  0  0  0  0  0  0  0  0  0  0  0
    2.9160   -0.9744    1.1120 C   0  0  1  0  0  0  0  0  0  0  0  0
    2.1980   -2.3377    1.0992 C   0  0  0  0  0  0  0  0  0  0  0  0
    2.6065   -3.1919   -0.1075 C   0  0  2  0  0  0  0  0  0  0  0  0
    1.9925   -4.5066   -0.0476 N   0  0  0  0  0  0  0  0  0  0  0  0
    1.4141   -5.1059   -1.1263 C   0  0  0  0  0  0  0  0  0  0  0  0
    1.2960   -4.6235   -2.2323 O   0  0  0  0  0  0  0  0  0  0  0  0
    0.9690   -6.3438   -0.7868 O   0  0  0  0  0  0  0  0  0  0  0  0
    0.3295   -7.0739   -1.8269 C   0  0  0  0  0  0  0  0  0  0  0  0
    4.1386   -3.2925   -0.2006 C   0  0  0  0  0  0  0  0  0  0  0  0
    4.7615   -1.9807   -0.1975 N   0  0  0  0  0  0  0  0  0  0  0  0
    6.1828   -2.0324   -0.4665 C   0  0  0  0  0  0  0  0  0  0  0  0
    4.4305   -1.2145    0.9958 C   0  0  0  0  0  0  0  0  0  0  0  0
    0.6811    1.1514   -0.6199 H   0  0  0  0  0  0  0  0  0  0  0  0
    0.6545    0.7387    1.1090 H   0  0  0  0  0  0  0  0  0  0  0  0
    0.2909   -0.5002   -0.1138 H   0  0  0  0  0  0  0  0  0  0  0  0
    3.0123    0.9435    0.1468 H   0  0  0  0  0  0  0  0  0  0  0  0
    2.6735   -0.3736   -0.9624 H   0  0  0  0  0  0  0  0  0  0  0  0
    2.7339   -0.5114    2.0990 H   0  0  0  0  0  0  0  0  0  0  0  0
    1.1034   -2.2210    1.1197 H   0  0  0  0  0  0  0  0  0  0  0  0
    2.4713   -2.8847    2.0216 H   0  0  0  0  0  0  0  0  0  0  0  0
    2.2394   -2.7317   -1.0361 H   0  0  0  0  0  0  0  0  0  0  0  0
    2.0520   -5.0473    0.8078 H   0  0  0  0  0  0  0  0  0  0  0  0
    0.0482   -8.0419   -1.3923 H   0  0  0  0  0  0  0  0  0  0  0  0
    1.0070   -7.2260   -2.6813 H   0  0  0  0  0  0  0  0  0  0  0  0
   -0.5681   -6.5483   -2.1884 H   0  0  0  0  0  0  0  0  0  0  0  0
    4.4073   -3.8176   -1.1313 H   0  0  0  0  0  0  0  0  0  0  0  0
    4.5049   -3.9273    0.6462 H   0  0  0  0  0  0  0  0  0  0  0  0
    6.3694   -2.5499   -1.4210 H   0  0  0  0  0  0  0  0  0  0  0  0
    6.7623   -2.5646    0.3244 H   0  0  0  0  0  0  0  0  0  0  0  0
    6.5911   -1.0126   -0.5495 H   0  0  0  0  0  0  0  0  0  0  0  0
    4.9587   -0.2481    0.9462 H   0  0  0  0  0  0  0  0  0  0  0  0
    4.7937   -1.7285    1.9196 H   0  0  0  0  0  0  0  0  0  0  0  0
  1  2  1  0
  1 15  1  0
  1 16  1  0
  1 17  1  0
  2  3  1  0
  2 18  1  0
  2 19  1  0
  3  4  1  0
  3 14  1  0
  3 20  1  1
  4  5  1  0
  4 21  1  0
  4 22  1  0
  5  6  1  0
  5 11  1  0
  5 23  1  6
  6  7  1  0
  6 24  1  0
  7  8  2  0
  7  9  1  0
  9 10  1  0
 10 25  1  0
 10 26  1  0
 10 27  1  0
 11 12  1  0
 11 28  1  0
 11 29  1  0
 12 13  1  0
 12 14  1  0
 13 30  1  0
 13 31  1  0
 13 32  1  0
 14 33  1  0
 14 34  1  0
M  END

