
     RDKit          3D

 27 28  0  0  0  0  0  0  0  0999 V2000
    1.1387   -0.6696    0.2937 C   0  0  0  0  0  0  0  0  0  0  0  0
    2.5366   -0.3049    0.1637 N   0  0  0  0  0  0  0  0  0  0  0  0
    3.0698    0.9445    0.0704 C   0  0  0  0  0  0  0  0  0  0  0  0
    4.4427    0.7867   -0.0356 C   0  0  0  0  0  0  0  0  0  0  0  0
    5.8168    2.3540   -0.2109 I   0  0  0  0  0  0  0  0  0  0  0  0
    4.6432   -0.6196    0.0041 C   0  0  0  0  0  0  0  0  0  0  0  0
    5.9219   -1.3899   -0.0698 C   0  0  0  0  0  0  0  0  0  0  0  0
    7.0043   -0.8395   -0.1801 O   0  0  0  0  0  0  0  0  0  0  0  0
    5.7286   -2.7480   -0.0001 N   0  0  0  0  0  0  0  0  0  0  0  0
    6.6886   -3.7631   -0.0382 C   0  0  0  0  0  0  0  0  0  0  0  0
    8.0689   -3.5454   -0.1589 C   0  0  0  0  0  0  0  0  0  0  0  0
    8.9397   -4.6393   -0.1865 C   0  0  0  0  0  0  0  0  0  0  0  0
   10.6614   -4.3488   -0.3376 Cl  0  0  0  0  0  0  0  0  0  0  0  0
    8.4717   -5.9490   -0.0968 C   0  0  0  0  0  0  0  0  0  0  0  0
    7.0941   -6.1646    0.0235 C   0  0  0  0  0  0  0  0  0  0  0  0
    6.2061   -5.0922    0.0533 C   0  0  0  0  0  0  0  0  0  0  0  0
    4.8527   -5.2369    0.1688 O   0  0  0  0  0  0  0  0  0  0  0  0
    3.4709   -1.2526    0.1251 N   0  0  0  0  0  0  0  0  0  0  0  0
    0.5295    0.2432    0.3029 H   0  0  0  0  0  0  0  0  0  0  0  0
    0.9779   -1.2239    1.2302 H   0  0  0  0  0  0  0  0  0  0  0  0
    0.8332   -1.3026   -0.5525 H   0  0  0  0  0  0  0  0  0  0  0  0
    2.4548    1.8411    0.0849 H   0  0  0  0  0  0  0  0  0  0  0  0
    4.7627   -3.0554    0.0909 H   0  0  0  0  0  0  0  0  0  0  0  0
    8.4412   -2.5268   -0.2294 H   0  0  0  0  0  0  0  0  0  0  0  0
    9.1681   -6.7877   -0.1203 H   0  0  0  0  0  0  0  0  0  0  0  0
    6.7063   -7.1856    0.0952 H   0  0  0  0  0  0  0  0  0  0  0  0
    4.6248   -6.1734    0.2237 H   0  0  0  0  0  0  0  0  0  0  0  0
  1  2  1  0
  1 19  1  0
  1 20  1  0
  1 21  1  0
  2  3  1  0
  2 18  1  0
  3  4  2  0
  3 22  1  0
  4  5  1  0
  4  6  1  0
  6  7  1  0
  6 18  2  0
  7  8  2  0
  7  9  1  0
  9 10  1  0
  9 23  1  0
 10 11  2  0
 10 16  1  0
 11 12  1  0
 11 24  1  0
 12 13  1  0
 12 14  2  0
 14 15  1  0
 14 25  1  0
 15 16  2  0
 15 26  1  0
 16 17  1  0
 17 27  1  0
M  END

