
     RDKit          3D

 37 38  0  0  0  0  0  0  0  0999 V2000
    0.8898   -1.9432   -0.7558 C   0  0  0  0  0  0  0  0  0  0  0  0
    2.3857   -2.0600   -1.0472 C   0  0  0  0  0  0  0  0  0  0  0  0
    3.2471   -1.7862    0.1848 C   0  0  0  0  0  0  0  0  0  0  0  0
    4.7362   -1.8927   -0.0551 C   0  0  0  0  0  0  0  0  0  0  0  0
    5.2124   -2.1887   -1.2180 N   0  0  0  0  0  0  0  0  0  0  0  0
    6.5908   -2.2893   -1.4188 C   0  0  0  0  0  0  0  0  0  0  0  0
    7.2121   -2.6990   -2.9062 S   0  0  0  0  0  0  0  0  0  0  0  0
    7.4437   -2.0141   -0.2785 C   0  0  0  0  0  0  0  0  0  0  0  0
    6.9189   -1.7164    0.9486 C   0  0  0  0  0  0  0  0  0  0  0  0
    7.6971   -1.4268    2.1790 C   0  0  0  0  0  0  0  0  0  0  0  0
    8.8131   -2.1467    2.4245 C   0  0  0  0  0  0  0  0  0  0  0  0
    9.7552   -2.0636    3.5999 C   0  0  0  0  0  0  0  0  0  0  0  0
    9.1326   -1.5959    4.9233 C   0  0  0  0  0  0  0  0  0  0  0  0
    8.8620   -0.0876    5.0149 C   0  0  0  0  0  0  0  0  0  0  0  0
    8.2659    0.5408    3.7463 C   0  0  0  0  0  0  0  0  0  0  0  0
    7.1722   -0.2911    3.0557 C   0  0  0  0  0  0  0  0  0  0  0  0
    5.5356   -1.6540    1.0410 N   0  0  0  0  0  0  0  0  0  0  0  0
    5.1019   -1.4796    1.9398 H   0  0  0  0  0  0  0  0  0  0  0  0
    0.2939   -2.1445   -1.6595 H   0  0  0  0  0  0  0  0  0  0  0  0
    0.6213   -0.9334   -0.4011 H   0  0  0  0  0  0  0  0  0  0  0  0
    0.5683   -2.6604    0.0186 H   0  0  0  0  0  0  0  0  0  0  0  0
    2.6794   -1.3637   -1.8484 H   0  0  0  0  0  0  0  0  0  0  0  0
    2.6274   -3.0621   -1.4349 H   0  0  0  0  0  0  0  0  0  0  0  0
    2.9782   -2.4860    0.9998 H   0  0  0  0  0  0  0  0  0  0  0  0
    3.0338   -0.7753    0.5826 H   0  0  0  0  0  0  0  0  0  0  0  0
    8.5225   -2.0311   -0.4252 H   0  0  0  0  0  0  0  0  0  0  0  0
    9.0672   -2.9183    1.6902 H   0  0  0  0  0  0  0  0  0  0  0  0
   10.6207   -1.4226    3.3376 H   0  0  0  0  0  0  0  0  0  0  0  0
   10.1869   -3.0684    3.7428 H   0  0  0  0  0  0  0  0  0  0  0  0
    9.7944   -1.8886    5.7552 H   0  0  0  0  0  0  0  0  0  0  0  0
    8.1948   -2.1572    5.0784 H   0  0  0  0  0  0  0  0  0  0  0  0
    9.8002    0.4422    5.2553 H   0  0  0  0  0  0  0  0  0  0  0  0
    8.1870    0.0950    5.8694 H   0  0  0  0  0  0  0  0  0  0  0  0
    9.0629    0.7335    3.0086 H   0  0  0  0  0  0  0  0  0  0  0  0
    7.8515    1.5298    4.0033 H   0  0  0  0  0  0  0  0  0  0  0  0
    6.5792    0.3825    2.4156 H   0  0  0  0  0  0  0  0  0  0  0  0
    6.4646   -0.6747    3.8176 H   0  0  0  0  0  0  0  0  0  0  0  0
  1  2  1  0
  1 19  1  0
  1 20  1  0
  1 21  1  0
  2  3  1  0
  2 22  1  0
  2 23  1  0
  3  4  1  0
  3 24  1  0
  3 25  1  0
  4  5  2  0
  4 17  1  0
  5  6  1  0
  6  7  2  0
  6  8  1  0
  8  9  2  0
  8 26  1  0
  9 10  1  0
  9 17  1  0
 10 11  2  0
 10 16  1  0
 11 12  1  0
 11 27  1  0
 12 13  1  0
 12 28  1  0
 12 29  1  0
 13 14  1  0
 13 30  1  0
 13 31  1  0
 14 15  1  0
 14 32  1  0
 14 33  1  0
 15 16  1  0
 15 34  1  0
 15 35  1  0
 16 36  1  0
 16 37  1  0
 17 18  1  0
M  END

