
     RDKit          3D

 28 29  0  0  0  0  0  0  0  0999 V2000
    0.9416    0.1689    0.4849 C   0  0  0  0  0  0  0  0  0  0  0  0
    2.3816    0.1623    0.0448 C   0  0  0  0  0  0  0  0  0  0  0  0
    3.0381    1.3752   -0.1381 C   0  0  0  0  0  0  0  0  0  0  0  0
    4.3972    1.4174   -0.5533 C   0  0  0  0  0  0  0  0  0  0  0  0
    5.0546    2.5889   -0.7455 N   0  0  0  0  0  0  0  0  0  0  0  0
    4.4522    3.9123   -0.5993 C   0  0  0  0  0  0  0  0  0  0  0  0
    5.5267    4.8620   -1.1489 C   0  0  0  0  0  0  0  0  0  0  0  0
    6.8380    4.1179   -0.8589 C   0  0  0  0  0  0  0  0  0  0  0  0
    6.4745    2.6507   -1.1131 C   0  0  0  0  0  0  0  0  0  0  0  0
    5.1036    0.2865   -0.7745 N   0  0  0  0  0  0  0  0  0  0  0  0
    4.4933   -0.8725   -0.5996 C   0  0  0  0  0  0  0  0  0  0  0  0
    3.1539   -1.0041   -0.2023 C   0  0  0  0  0  0  0  0  0  0  0  0
    2.6299   -2.3575   -0.0628 N   0  0  0  0  0  0  0  0  0  0  0  0
    1.4554   -2.4981    0.2615 O   0  0  0  0  0  0  0  0  0  0  0  0
    3.3911   -3.2925   -0.2780 O   0  0  0  0  0  0  0  0  0  0  0  0
    0.5920    1.2026    0.6197 H   0  0  0  0  0  0  0  0  0  0  0  0
    0.8091   -0.3852    1.4249 H   0  0  0  0  0  0  0  0  0  0  0  0
    0.2997   -0.3387   -0.2492 H   0  0  0  0  0  0  0  0  0  0  0  0
    2.4921    2.2994    0.0498 H   0  0  0  0  0  0  0  0  0  0  0  0
    4.2243    4.1274    0.4629 H   0  0  0  0  0  0  0  0  0  0  0  0
    3.5036    3.9851   -1.1574 H   0  0  0  0  0  0  0  0  0  0  0  0
    5.4762    5.8611   -0.6918 H   0  0  0  0  0  0  0  0  0  0  0  0
    5.3942    4.9867   -2.2364 H   0  0  0  0  0  0  0  0  0  0  0  0
    7.1285    4.2575    0.1959 H   0  0  0  0  0  0  0  0  0  0  0  0
    7.6778    4.4580   -1.4824 H   0  0  0  0  0  0  0  0  0  0  0  0
    7.0588    1.9359   -0.5170 H   0  0  0  0  0  0  0  0  0  0  0  0
    6.6126    2.3683   -2.1730 H   0  0  0  0  0  0  0  0  0  0  0  0
    5.0718   -1.7824   -0.7790 H   0  0  0  0  0  0  0  0  0  0  0  0
  1  2  1  0
  1 16  1  0
  1 17  1  0
  1 18  1  0
  2  3  2  0
  2 12  1  0
  3  4  1  0
  3 19  1  0
  4  5  1  0
  4 10  2  0
  5  6  1  0
  5  9  1  0
  6  7  1  0
  6 20  1  0
  6 21  1  0
  7  8  1  0
  7 22  1  0
  7 23  1  0
  8  9  1  0
  8 24  1  0
  8 25  1  0
  9 26  1  0
  9 27  1  0
 10 11  1  0
 11 12  2  0
 11 28  1  0
 12 13  1  0
 13 14  2  0
 13 15  1  0
M  CHG  2  13   1  15  -1
M  END

