
     RDKit          3D

 30 30  0  0  0  0  0  0  0  0999 V2000
    1.1009   -0.0687   -0.0446 C   0  0  0  0  0  0  0  0  0  0  0  0
    2.4982    0.0070    0.1232 O   0  0  0  0  0  0  0  0  0  0  0  0
    3.0944    1.2248    0.1732 C   0  0  0  0  0  0  0  0  0  0  0  0
    2.4040    2.4378    0.0710 C   0  0  0  0  0  0  0  0  0  0  0  0
    3.1542    3.6124    0.1388 C   0  0  0  0  0  0  0  0  0  0  0  0
    2.5011    4.7836    0.0411 F   0  0  0  0  0  0  0  0  0  0  0  0
    4.5307    3.6239    0.2991 C   0  0  0  0  0  0  0  0  0  0  0  0
    5.2290    2.4014    0.4029 C   0  0  0  0  0  0  0  0  0  0  0  0
    6.7548    2.4155    0.6002 C   0  0  1  0  0  0  0  0  0  0  0  0
    7.3515    0.9977    0.6308 C   0  0  0  0  0  0  0  0  0  0  0  0
    7.4342    3.2020   -0.5414 C   0  0  0  0  0  0  0  0  0  0  0  0
    7.0502    3.1118    1.9655 C   0  0  0  0  0  0  0  0  0  0  0  0
    8.4749    3.1625    2.2786 N   0  0  0  0  0  0  0  0  0  0  0  0
    4.4928    1.2152    0.3387 C   0  0  0  0  0  0  0  0  0  0  0  0
    0.8436   -1.1364   -0.0578 H   0  0  0  0  0  0  0  0  0  0  0  0
    0.7754    0.3887   -0.9964 H   0  0  0  0  0  0  0  0  0  0  0  0
    0.5594    0.4187    0.7864 H   0  0  0  0  0  0  0  0  0  0  0  0
    1.3252    2.5063   -0.0585 H   0  0  0  0  0  0  0  0  0  0  0  0
    5.0374    4.5886    0.3347 H   0  0  0  0  0  0  0  0  0  0  0  0
    7.1478    0.4530   -0.3038 H   0  0  0  0  0  0  0  0  0  0  0  0
    6.9561    0.3981    1.4668 H   0  0  0  0  0  0  0  0  0  0  0  0
    8.4441    1.0590    0.7435 H   0  0  0  0  0  0  0  0  0  0  0  0
    7.2855    2.6970   -1.5091 H   0  0  0  0  0  0  0  0  0  0  0  0
    8.5123    3.2823   -0.3410 H   0  0  0  0  0  0  0  0  0  0  0  0
    7.0346    4.2234   -0.6326 H   0  0  0  0  0  0  0  0  0  0  0  0
    6.4397    2.6063    2.7430 H   0  0  0  0  0  0  0  0  0  0  0  0
    6.6804    4.1479    1.9143 H   0  0  0  0  0  0  0  0  0  0  0  0
    8.7887    2.2942    2.7100 H   0  0  0  0  0  0  0  0  0  0  0  0
    8.6667    3.9014    2.9527 H   0  0  0  0  0  0  0  0  0  0  0  0
    4.9673    0.2383    0.4111 H   0  0  0  0  0  0  0  0  0  0  0  0
  1  2  1  0
  1 15  1  0
  1 16  1  0
  1 17  1  0
  2  3  1  0
  3  4  2  0
  3 14  1  0
  4  5  1  0
  4 18  1  0
  5  6  1  0
  5  7  2  0
  7  8  1  0
  7 19  1  0
  8  9  1  0
  8 14  2  0
  9 10  1  1
  9 11  1  0
  9 12  1  0
 10 20  1  0
 10 21  1  0
 10 22  1  0
 11 23  1  0
 11 24  1  0
 11 25  1  0
 12 13  1  0
 12 26  1  0
 12 27  1  0
 13 28  1  0
 13 29  1  0
 14 30  1  0
M  END

