
     RDKit          3D

 51 54  0  0  0  0  0  0  0  0999 V2000
    0.5589   -0.5698   -0.0817 O   0  0  0  0  0  0  0  0  0  0  0  0
    1.3516   -0.0103    0.6719 C   0  0  0  0  0  0  0  0  0  0  0  0
    1.2775    1.4859    0.7276 C   0  0  0  0  0  0  0  0  0  0  0  0
    0.4303    2.2087   -0.1009 C   0  0  0  0  0  0  0  0  0  0  0  0
    0.6172    3.4972    0.2577 N   0  0  0  0  0  0  0  0  0  0  0  0
   -0.0369    4.6887   -0.3094 C   0  0  1  0  0  0  0  0  0  0  0  0
   -0.8885    5.4445    0.7307 C   0  0  0  0  0  0  0  0  0  0  0  0
   -0.0539    6.3830    1.6082 C   0  0  0  0  0  0  0  0  0  0  0  0
    0.7266    7.2594    0.8169 O   0  0  0  0  0  0  0  0  0  0  0  0
    1.6676    6.5689    0.0162 C   0  0  0  0  0  0  0  0  0  0  0  0
    0.9662    5.6455   -0.9850 C   0  0  0  0  0  0  0  0  0  0  0  0
    1.5220    3.5814    1.2538 N   0  0  0  0  0  0  0  0  0  0  0  0
    1.9163    2.3795    1.5369 N   0  0  0  0  0  0  0  0  0  0  0  0
    2.2629   -0.7060    1.4257 N   0  0  0  0  0  0  0  0  0  0  0  0
    2.2190   -2.1638    1.3735 C   0  0  0  0  0  0  0  0  0  0  0  0
    1.9571   -2.8259    2.7315 C   0  0  0  0  0  0  0  0  0  0  0  0
    3.0986   -2.7176    3.7561 C   0  0  0  0  0  0  0  0  0  0  0  0
    3.1919   -1.4467    4.4839 N   0  0  0  0  0  0  0  0  0  0  0  0
    3.1971   -1.4468    5.8841 C   0  0  0  0  0  0  0  0  0  0  0  0
    2.3444   -0.5887    6.6169 C   0  0  0  0  0  0  0  0  0  0  0  0
    2.3353   -0.5617    8.0110 C   0  0  0  0  0  0  0  0  0  0  0  0
    3.1758   -1.4059    8.7392 C   0  0  0  0  0  0  0  0  0  0  0  0
    4.0457   -2.2523    8.0498 C   0  0  0  0  0  0  0  0  0  0  0  0
    4.0723   -2.2584    6.6537 C   0  0  0  0  0  0  0  0  0  0  0  0
    5.3061   -3.2459    5.8811 Cl  0  0  0  0  0  0  0  0  0  0  0  0
    2.8473   -0.1975    3.8141 C   0  0  0  0  0  0  0  0  0  0  0  0
    3.2477   -0.1255    2.3326 C   0  0  0  0  0  0  0  0  0  0  0  0
   -0.2541    1.8820   -0.8774 H   0  0  0  0  0  0  0  0  0  0  0  0
   -0.7047    4.2760   -1.0795 H   0  0  0  0  0  0  0  0  0  0  0  0
   -1.4569    4.7310    1.3489 H   0  0  0  0  0  0  0  0  0  0  0  0
   -1.6206    6.0501    0.1708 H   0  0  0  0  0  0  0  0  0  0  0  0
    0.5905    5.7973    2.2894 H   0  0  0  0  0  0  0  0  0  0  0  0
   -0.7156    7.0152    2.2197 H   0  0  0  0  0  0  0  0  0  0  0  0
    2.3641    5.9885    0.6490 H   0  0  0  0  0  0  0  0  0  0  0  0
    2.2481    7.3351   -0.5201 H   0  0  0  0  0  0  0  0  0  0  0  0
    1.7017    5.0732   -1.5733 H   0  0  0  0  0  0  0  0  0  0  0  0
    0.3934    6.2688   -1.6918 H   0  0  0  0  0  0  0  0  0  0  0  0
    3.1826   -2.5351    0.9744 H   0  0  0  0  0  0  0  0  0  0  0  0
    1.4341   -2.4334    0.6572 H   0  0  0  0  0  0  0  0  0  0  0  0
    1.8114   -3.9018    2.5340 H   0  0  0  0  0  0  0  0  0  0  0  0
    1.0095   -2.4584    3.1604 H   0  0  0  0  0  0  0  0  0  0  0  0
    4.0497   -2.9548    3.2422 H   0  0  0  0  0  0  0  0  0  0  0  0
    2.9618   -3.5099    4.5027 H   0  0  0  0  0  0  0  0  0  0  0  0
    1.6552    0.0573    6.0724 H   0  0  0  0  0  0  0  0  0  0  0  0
    1.6518    0.1160    8.5288 H   0  0  0  0  0  0  0  0  0  0  0  0
    3.1701   -1.3994    9.8313 H   0  0  0  0  0  0  0  0  0  0  0  0
    4.7411   -2.8994    8.5875 H   0  0  0  0  0  0  0  0  0  0  0  0
    3.3673    0.6167    4.3443 H   0  0  0  0  0  0  0  0  0  0  0  0
    1.7654    0.0422    3.8662 H   0  0  0  0  0  0  0  0  0  0  0  0
    4.2147   -0.6331    2.1758 H   0  0  0  0  0  0  0  0  0  0  0  0
    3.3801    0.9303    2.0829 H   0  0  0  0  0  0  0  0  0  0  0  0
  1  2  2  0
  2  3  1  0
  2 14  1  0
  3  4  2  0
  3 13  1  0
  4  5  1  0
  4 28  1  0
  5  6  1  0
  5 12  1  0
  6  7  1  0
  6 11  1  0
  6 29  1  6
  7  8  1  0
  7 30  1  0
  7 31  1  0
  8  9  1  0
  8 32  1  0
  8 33  1  0
  9 10  1  0
 10 11  1  0
 10 34  1  0
 10 35  1  0
 11 36  1  0
 11 37  1  0
 12 13  2  0
 14 15  1  0
 14 27  1  0
 15 16  1  0
 15 38  1  0
 15 39  1  0
 16 17  1  0
 16 40  1  0
 16 41  1  0
 17 18  1  0
 17 42  1  0
 17 43  1  0
 18 19  1  0
 18 26  1  0
 19 20  2  0
 19 24  1  0
 20 21  1  0
 20 44  1  0
 21 22  2  0
 21 45  1  0
 22 23  1  0
 22 46  1  0
 23 24  2  0
 23 47  1  0
 24 25  1  0
 26 27  1  0
 26 48  1  0
 26 49  1  0
 27 50  1  0
 27 51  1  0
M  END

