
     RDKit          3D

 41 43  0  0  0  0  0  0  0  0999 V2000
    0.8484   -0.8139   -0.6624 O   0  0  0  0  0  0  0  0  0  0  0  0
    1.8520   -0.3154   -0.2284 C   0  0  0  0  0  0  0  0  0  0  0  0
    2.1557   -0.4469    1.0838 O   0  0  0  0  0  0  0  0  0  0  0  0
    2.8788    0.4515   -1.0752 C   0  0  1  0  0  0  0  0  0  0  0  0
    2.3619    0.6694   -2.5076 C   0  0  0  0  0  0  0  0  0  0  0  0
    1.2654    1.7450   -2.5747 C   0  0  0  0  0  0  0  0  0  0  0  0
    1.6797    3.0769   -1.9310 C   0  0  2  0  0  0  0  0  0  0  0  0
    2.6960    3.7362   -2.7587 N   0  0  0  0  0  0  0  0  0  0  0  0
    2.9531    5.0865   -2.6109 C   0  0  0  0  0  0  0  0  0  0  0  0
    2.5039    5.7530   -1.6841 O   0  0  0  0  0  0  0  0  0  0  0  0
    3.7603    5.6272   -3.5788 N   0  0  0  0  0  0  0  0  0  0  0  0
    4.6194    5.0383   -4.6011 C   0  0  0  0  0  0  0  0  0  0  0  0
    5.2596    6.4371   -4.7952 C   0  0  0  0  0  0  0  0  0  0  0  0
    4.3934    6.9520   -3.6112 C   0  0  2  0  0  0  0  0  0  0  0  0
    5.0284    7.5229   -2.3093 C   0  0  0  0  0  0  0  0  0  0  0  0
    3.9410    8.6268   -2.2697 C   0  0  0  0  0  0  0  0  0  0  0  0
    3.4929    8.2135   -3.6956 C   0  0  0  0  0  0  0  0  0  0  0  0
    2.1905    2.8423   -0.4952 C   0  0  0  0  0  0  0  0  0  0  0  0
    3.3099    1.7983   -0.4495 C   0  0  0  0  0  0  0  0  0  0  0  0
    2.9818    0.0146    1.2865 H   0  0  0  0  0  0  0  0  0  0  0  0
    3.7635   -0.2125   -1.1147 H   0  0  0  0  0  0  0  0  0  0  0  0
    1.9721   -0.2782   -2.9065 H   0  0  0  0  0  0  0  0  0  0  0  0
    3.2198    0.9564   -3.1398 H   0  0  0  0  0  0  0  0  0  0  0  0
    0.3734    1.3711   -2.0498 H   0  0  0  0  0  0  0  0  0  0  0  0
    0.9599    1.9126   -3.6225 H   0  0  0  0  0  0  0  0  0  0  0  0
    0.8009    3.7413   -1.8691 H   0  0  0  0  0  0  0  0  0  0  0  0
    2.8796    3.3265   -3.6675 H   0  0  0  0  0  0  0  0  0  0  0  0
    4.0838    4.6312   -5.4785 H   0  0  0  0  0  0  0  0  0  0  0  0
    5.3058    4.2600   -4.2183 H   0  0  0  0  0  0  0  0  0  0  0  0
    5.0198    6.9109   -5.7579 H   0  0  0  0  0  0  0  0  0  0  0  0
    6.3447    6.4844   -4.6272 H   0  0  0  0  0  0  0  0  0  0  0  0
    6.0435    7.9108   -2.4940 H   0  0  0  0  0  0  0  0  0  0  0  0
    5.0561    6.8341   -1.4536 H   0  0  0  0  0  0  0  0  0  0  0  0
    4.2970    9.6609   -2.1495 H   0  0  0  0  0  0  0  0  0  0  0  0
    3.1707    8.4136   -1.5174 H   0  0  0  0  0  0  0  0  0  0  0  0
    3.8328    8.9054   -4.4836 H   0  0  0  0  0  0  0  0  0  0  0  0
    2.4220    8.0095   -3.8389 H   0  0  0  0  0  0  0  0  0  0  0  0
    1.3382    2.5102    0.1240 H   0  0  0  0  0  0  0  0  0  0  0  0
    2.5300    3.8021   -0.0808 H   0  0  0  0  0  0  0  0  0  0  0  0
    3.6727    1.6731    0.5870 H   0  0  0  0  0  0  0  0  0  0  0  0
    4.1779    2.1739   -1.0159 H   0  0  0  0  0  0  0  0  0  0  0  0
  1  2  2  0
  2  3  1  0
  2  4  1  0
  3 20  1  0
  4  5  1  0
  4 19  1  0
  4 21  1  6
  5  6  1  0
  5 22  1  0
  5 23  1  0
  6  7  1  0
  6 24  1  0
  6 25  1  0
  7  8  1  0
  7 18  1  0
  7 26  1  1
  8  9  1  0
  8 27  1  0
  9 10  2  0
  9 11  1  0
 11 12  1  0
 14 11  1  1
 12 13  1  0
 12 28  1  0
 12 29  1  0
 13 14  1  0
 13 30  1  0
 13 31  1  0
 14 15  1  0
 14 17  1  0
 15 16  1  0
 15 32  1  0
 15 33  1  0
 16 17  1  0
 16 34  1  0
 16 35  1  0
 17 36  1  0
 17 37  1  0
 18 19  1  0
 18 38  1  0
 18 39  1  0
 19 40  1  0
 19 41  1  0
M  END

