
     RDKit          3D

 59 62  0  0  0  0  0  0  0  0999 V2000
   11.3842    3.5820   -2.4271 C   0  0  0  0  0  0  0  0  0  0  0  0
    9.9519    3.4756   -2.8805 C   0  0  0  0  0  0  0  0  0  0  0  0
    8.8927    4.0966   -2.2059 C   0  0  0  0  0  0  0  0  0  0  0  0
    7.5579    3.9951   -2.6371 C   0  0  0  0  0  0  0  0  0  0  0  0
    6.4246    4.6542   -1.8699 C   0  0  2  0  0  0  0  0  0  0  0  0
    5.5013    4.5164   -2.4595 H   0  0  0  0  0  0  0  0  0  0  0  0
    6.6265    6.1667   -1.6573 C   0  0  0  0  0  0  0  0  0  0  0  0
    5.4965    6.7902   -0.8218 C   0  0  2  0  0  0  0  0  0  0  0  0
    4.5490    6.7432   -1.3863 H   0  0  0  0  0  0  0  0  0  0  0  0
    5.8233    8.2436   -0.4722 C   0  0  0  0  0  0  0  0  0  0  0  0
    6.9204    8.5660   -0.0382 O   0  0  0  0  0  0  0  0  0  0  0  0
    4.8055    9.1337   -0.6506 N   0  0  0  0  0  0  0  0  0  0  0  0
    4.9150   10.5494   -0.2888 C   0  0  2  0  0  0  0  0  0  0  0  0
    5.9969   10.7556   -0.3095 H   0  0  0  0  0  0  0  0  0  0  0  0
    4.4257   10.7944    1.1420 C   0  0  0  0  0  0  0  0  0  0  0  0
    4.2482   11.4019   -1.3661 C   0  0  0  0  0  0  0  0  0  0  0  0
    4.7786   11.3812   -2.6688 C   0  0  0  0  0  0  0  0  0  0  0  0
    4.2032   12.1337   -3.6925 C   0  0  0  0  0  0  0  0  0  0  0  0
    3.0788   12.9267   -3.4339 C   0  0  0  0  0  0  0  0  0  0  0  0
    2.5429   12.9578   -2.1458 C   0  0  0  0  0  0  0  0  0  0  0  0
    3.1238   12.2017   -1.1200 C   0  0  0  0  0  0  0  0  0  0  0  0
    5.3038    5.9940    0.4872 C   0  0  0  0  0  0  0  0  0  0  0  0
    5.0822    4.5797    0.2133 N   0  0  0  0  0  0  0  0  0  0  0  0
    3.8289    4.0530    0.4503 C   0  0  0  0  0  0  0  0  0  0  0  0
    2.9183    4.7506    0.8841 O   0  0  0  0  0  0  0  0  0  0  0  0
    3.5926    2.5919    0.1864 C   0  0  1  0  0  0  0  0  0  0  0  0
    2.5194    1.9225    1.0250 C   0  0  0  0  0  0  0  0  0  0  0  0
    2.2446    2.2181   -0.4112 C   0  0  0  0  0  0  0  0  0  0  0  0
    6.1773    3.9513   -0.5118 C   0  0  0  0  0  0  0  0  0  0  0  0
    7.2924    3.2400   -3.7887 C   0  0  0  0  0  0  0  0  0  0  0  0
    8.3243    2.6084   -4.4884 C   0  0  0  0  0  0  0  0  0  0  0  0
    9.6277    2.7353   -4.0247 C   0  0  0  0  0  0  0  0  0  0  0  0
   10.6232    2.1284   -4.6976 F   0  0  0  0  0  0  0  0  0  0  0  0
   11.4673    4.1958   -1.5190 H   0  0  0  0  0  0  0  0  0  0  0  0
   12.0177    4.0344   -3.2077 H   0  0  0  0  0  0  0  0  0  0  0  0
   11.8110    2.5885   -2.2128 H   0  0  0  0  0  0  0  0  0  0  0  0
    9.1309    4.6844   -1.3151 H   0  0  0  0  0  0  0  0  0  0  0  0
    6.7044    6.6716   -2.6341 H   0  0  0  0  0  0  0  0  0  0  0  0
    7.5744    6.3607   -1.1298 H   0  0  0  0  0  0  0  0  0  0  0  0
    3.9074    8.7949   -0.9770 H   0  0  0  0  0  0  0  0  0  0  0  0
    4.5469   11.8505    1.4287 H   0  0  0  0  0  0  0  0  0  0  0  0
    5.0177   10.1824    1.8379 H   0  0  0  0  0  0  0  0  0  0  0  0
    3.3654   10.5214    1.2654 H   0  0  0  0  0  0  0  0  0  0  0  0
    5.6571   10.7639   -2.8772 H   0  0  0  0  0  0  0  0  0  0  0  0
    4.6352   12.1063   -4.6964 H   0  0  0  0  0  0  0  0  0  0  0  0
    2.6264   13.5185   -4.2337 H   0  0  0  0  0  0  0  0  0  0  0  0
    1.6662   13.5746   -1.9315 H   0  0  0  0  0  0  0  0  0  0  0  0
    2.6886   12.2455   -0.1201 H   0  0  0  0  0  0  0  0  0  0  0  0
    4.4412    6.3662    1.0517 H   0  0  0  0  0  0  0  0  0  0  0  0
    6.2120    6.1081    1.1048 H   0  0  0  0  0  0  0  0  0  0  0  0
    4.4378    1.9656   -0.0967 H   0  0  0  0  0  0  0  0  0  0  0  0
    2.0334    2.5593    1.7677 H   0  0  0  0  0  0  0  0  0  0  0  0
    2.6988    0.8874    1.3278 H   0  0  0  0  0  0  0  0  0  0  0  0
    1.5713    3.0509   -0.6295 H   0  0  0  0  0  0  0  0  0  0  0  0
    2.2256    1.3953   -1.1314 H   0  0  0  0  0  0  0  0  0  0  0  0
    5.9753    2.8888   -0.6799 H   0  0  0  0  0  0  0  0  0  0  0  0
    7.0947    4.0114    0.1027 H   0  0  0  0  0  0  0  0  0  0  0  0
    6.2645    3.1450   -4.1494 H   0  0  0  0  0  0  0  0  0  0  0  0
    8.1332    2.0210   -5.3887 H   0  0  0  0  0  0  0  0  0  0  0  0
  1  2  1  0
  1 34  1  0
  1 35  1  0
  1 36  1  0
  2  3  2  0
  2 32  1  0
  3  4  1  0
  3 37  1  0
  4  5  1  0
  4 30  2  0
  5  6  1  6
  5  7  1  0
  5 29  1  0
  7  8  1  0
  7 38  1  0
  7 39  1  0
  8  9  1  6
  8 10  1  0
  8 22  1  0
 10 11  2  0
 10 12  1  0
 12 13  1  0
 12 40  1  0
 13 14  1  1
 13 15  1  0
 13 16  1  0
 15 41  1  0
 15 42  1  0
 15 43  1  0
 16 17  2  0
 16 21  1  0
 17 18  1  0
 17 44  1  0
 18 19  2  0
 18 45  1  0
 19 20  1  0
 19 46  1  0
 20 21  2  0
 20 47  1  0
 21 48  1  0
 22 23  1  0
 22 49  1  0
 22 50  1  0
 23 24  1  0
 23 29  1  0
 24 25  2  0
 24 26  1  0
 26 27  1  0
 26 28  1  0
 26 51  1  6
 27 28  1  0
 27 52  1  0
 27 53  1  0
 28 54  1  0
 28 55  1  0
 29 56  1  0
 29 57  1  0
 30 31  1  0
 30 58  1  0
 31 32  2  0
 31 59  1  0
 32 33  1  0
M  END

