
     RDKit          3D

 50 49  0  0  0  0  0  0  0  0999 V2000
    1.0198    0.9722   -0.6709 C   0  0  0  0  0  0  0  0  0  0  0  0
    2.4850    0.6928   -0.3543 C   0  0  0  0  0  0  0  0  0  0  0  0
    2.9450   -0.5215   -1.0152 N   0  0  0  0  0  0  0  0  0  0  0  0
    4.3725   -0.8326   -0.8711 C   0  0  1  0  0  0  0  0  0  0  0  0
    4.6570   -1.3605    0.5503 C   0  0  0  0  0  0  0  0  0  0  0  0
    6.1157   -1.7245    0.8930 C   0  0  1  0  0  0  0  0  0  0  0  0
    7.1153   -0.5609    0.6944 C   0  0  0  0  0  0  0  0  0  0  0  0
    6.8661    0.7005    1.5279 C   0  0  0  0  0  0  0  0  0  0  0  0
    6.2202   -2.3144    2.3172 C   0  0  0  0  0  0  0  0  0  0  0  0
    5.5524   -3.6791    2.5084 C   0  0  0  0  0  0  0  0  0  0  0  0
    4.8716   -1.8238   -1.9587 C   0  0  1  0  0  0  0  0  0  0  0  0
    4.5505   -3.1798   -1.6773 O   0  0  0  0  0  0  0  0  0  0  0  0
    3.1992   -3.6088   -1.7732 C   0  0  0  0  0  0  0  0  0  0  0  0
    3.1210   -5.0248   -1.2293 C   0  0  0  0  0  0  0  0  0  0  0  0
    4.5587   -1.4297   -3.4256 C   0  0  1  0  0  0  0  0  0  0  0  0
    5.0026    0.0040   -3.7504 C   0  0  0  0  0  0  0  0  0  0  0  0
    5.2150   -2.4257   -4.3920 C   0  0  0  0  0  0  0  0  0  0  0  0
    0.6684    1.8768   -0.1504 H   0  0  0  0  0  0  0  0  0  0  0  0
    0.3872    0.1247   -0.3642 H   0  0  0  0  0  0  0  0  0  0  0  0
    0.8670    1.1325   -1.7523 H   0  0  0  0  0  0  0  0  0  0  0  0
    2.6001    0.5751    0.7357 H   0  0  0  0  0  0  0  0  0  0  0  0
    3.1025    1.5804   -0.6290 H   0  0  0  0  0  0  0  0  0  0  0  0
    2.7064   -0.4590   -2.0029 H   0  0  0  0  0  0  0  0  0  0  0  0
    4.9741    0.0921   -1.0159 H   0  0  0  0  0  0  0  0  0  0  0  0
    4.0221   -2.2450    0.7014 H   0  0  0  0  0  0  0  0  0  0  0  0
    4.3042   -0.6084    1.2758 H   0  0  0  0  0  0  0  0  0  0  0  0
    6.4268   -2.5286    0.2029 H   0  0  0  0  0  0  0  0  0  0  0  0
    7.1435   -0.2806   -0.3727 H   0  0  0  0  0  0  0  0  0  0  0  0
    8.1271   -0.9426    0.9200 H   0  0  0  0  0  0  0  0  0  0  0  0
    5.8975    1.1697    1.2911 H   0  0  0  0  0  0  0  0  0  0  0  0
    7.6468    1.4544    1.3365 H   0  0  0  0  0  0  0  0  0  0  0  0
    6.8755    0.4896    2.6093 H   0  0  0  0  0  0  0  0  0  0  0  0
    5.8008   -1.5996    3.0482 H   0  0  0  0  0  0  0  0  0  0  0  0
    7.2910   -2.4095    2.5722 H   0  0  0  0  0  0  0  0  0  0  0  0
    4.4615   -3.6343    2.3634 H   0  0  0  0  0  0  0  0  0  0  0  0
    5.7295   -4.0656    3.5252 H   0  0  0  0  0  0  0  0  0  0  0  0
    5.9490   -4.4210    1.7954 H   0  0  0  0  0  0  0  0  0  0  0  0
    5.9717   -1.8089   -1.8777 H   0  0  0  0  0  0  0  0  0  0  0  0
    2.8606   -3.5985   -2.8293 H   0  0  0  0  0  0  0  0  0  0  0  0
    2.5353   -2.9301   -1.2117 H   0  0  0  0  0  0  0  0  0  0  0  0
    3.7923   -5.6948   -1.7894 H   0  0  0  0  0  0  0  0  0  0  0  0
    2.0935   -5.4137   -1.3112 H   0  0  0  0  0  0  0  0  0  0  0  0
    3.4208   -5.0535   -0.1701 H   0  0  0  0  0  0  0  0  0  0  0  0
    3.4658   -1.4887   -3.5853 H   0  0  0  0  0  0  0  0  0  0  0  0
    6.0787    0.1411   -3.5483 H   0  0  0  0  0  0  0  0  0  0  0  0
    4.4552    0.7618   -3.1694 H   0  0  0  0  0  0  0  0  0  0  0  0
    4.8387    0.2259   -4.8171 H   0  0  0  0  0  0  0  0  0  0  0  0
    6.3147   -2.3697   -4.3196 H   0  0  0  0  0  0  0  0  0  0  0  0
    4.9368   -2.2050   -5.4351 H   0  0  0  0  0  0  0  0  0  0  0  0
    4.9251   -3.4611   -4.1660 H   0  0  0  0  0  0  0  0  0  0  0  0
  1  2  1  0
  1 18  1  0
  1 19  1  0
  1 20  1  0
  2  3  1  0
  2 21  1  0
  2 22  1  0
  3  4  1  0
  3 23  1  0
  4  5  1  0
  4 11  1  0
  4 24  1  6
  5  6  1  0
  5 25  1  0
  5 26  1  0
  6  7  1  0
  6  9  1  0
  6 27  1  6
  7  8  1  0
  7 28  1  0
  7 29  1  0
  8 30  1  0
  8 31  1  0
  8 32  1  0
  9 10  1  0
  9 33  1  0
  9 34  1  0
 10 35  1  0
 10 36  1  0
 10 37  1  0
 11 12  1  0
 11 15  1  0
 11 38  1  6
 12 13  1  0
 13 14  1  0
 13 39  1  0
 13 40  1  0
 14 41  1  0
 14 42  1  0
 14 43  1  0
 15 16  1  0
 15 17  1  0
 15 44  1  1
 16 45  1  0
 16 46  1  0
 16 47  1  0
 17 48  1  0
 17 49  1  0
 17 50  1  0
M  END

