
     RDKit          3D

 40 41  0  0  0  0  0  0  0  0999 V2000
   -4.3508   -6.0830   -1.7187 C   0  0  0  0  0  0  0  0  0  0  0  0
   -3.2237   -5.4208   -1.1810 O   0  0  0  0  0  0  0  0  0  0  0  0
   -2.8297   -5.6612    0.0889 C   0  0  0  0  0  0  0  0  0  0  0  0
   -3.4952   -6.5602    0.9332 C   0  0  0  0  0  0  0  0  0  0  0  0
   -3.0382   -6.7647    2.2371 C   0  0  0  0  0  0  0  0  0  0  0  0
   -1.9176   -6.0800    2.7141 C   0  0  0  0  0  0  0  0  0  0  0  0
   -1.2501   -5.1855    1.8822 C   0  0  0  0  0  0  0  0  0  0  0  0
   -1.6765   -4.9455    0.5565 C   0  0  0  0  0  0  0  0  0  0  0  0
   -1.0440   -4.0299   -0.3773 C   0  0  0  0  0  0  0  0  0  0  0  0
    0.0235   -3.1688   -0.3580 C   0  0  0  0  0  0  0  0  0  0  0  0
    0.9959   -2.8454    0.6750 C   0  0  0  0  0  0  0  0  0  0  0  0
    1.0752   -3.3426    1.7962 O   0  0  0  0  0  0  0  0  0  0  0  0
    2.0757   -1.7681    0.3442 C   0  0  2  0  0  0  0  0  0  0  0  0
    2.0392   -1.0758    1.2041 H   0  0  0  0  0  0  0  0  0  0  0  0
    1.8360   -0.9783   -0.8613 C   0  0  0  0  0  0  0  0  0  0  0  0
    1.5974   -0.3374   -1.7958 N   0  0  0  0  0  0  0  0  0  0  0  0
    3.5351   -2.3513    0.3255 C   0  0  0  0  0  0  0  0  0  0  0  0
    4.2968   -2.0813   -0.5787 O   0  0  0  0  0  0  0  0  0  0  0  0
    3.8165   -3.1035    1.4246 N   0  0  0  0  0  0  0  0  0  0  0  0
    5.0266   -3.7478    1.7573 C   0  0  0  0  0  0  0  0  0  0  0  0
    6.1971   -3.6449    0.9842 C   0  0  0  0  0  0  0  0  0  0  0  0
    7.3574   -4.3091    1.3877 C   0  0  0  0  0  0  0  0  0  0  0  0
    7.3516   -5.0709    2.5525 C   0  0  0  0  0  0  0  0  0  0  0  0
    8.4709   -5.7066    2.9335 F   0  0  0  0  0  0  0  0  0  0  0  0
    6.2029   -5.1862    3.3320 C   0  0  0  0  0  0  0  0  0  0  0  0
    5.0441   -4.5236    2.9307 C   0  0  0  0  0  0  0  0  0  0  0  0
   -4.4599   -5.7190   -2.7485 H   0  0  0  0  0  0  0  0  0  0  0  0
   -5.2693   -5.8467   -1.1539 H   0  0  0  0  0  0  0  0  0  0  0  0
   -4.2094   -7.1776   -1.7366 H   0  0  0  0  0  0  0  0  0  0  0  0
   -4.3706   -7.1049    0.5815 H   0  0  0  0  0  0  0  0  0  0  0  0
   -3.5689   -7.4698    2.8825 H   0  0  0  0  0  0  0  0  0  0  0  0
   -1.5630   -6.2439    3.7339 H   0  0  0  0  0  0  0  0  0  0  0  0
   -0.3738   -4.6486    2.2393 H   0  0  0  0  0  0  0  0  0  0  0  0
   -1.5590   -4.0262   -1.3413 H   0  0  0  0  0  0  0  0  0  0  0  0
    0.1750   -2.6223   -1.2904 H   0  0  0  0  0  0  0  0  0  0  0  0
    3.0215   -3.2789    2.0407 H   0  0  0  0  0  0  0  0  0  0  0  0
    6.1877   -3.0491    0.0743 H   0  0  0  0  0  0  0  0  0  0  0  0
    8.2743   -4.2398    0.7989 H   0  0  0  0  0  0  0  0  0  0  0  0
    6.2257   -5.7905    4.2408 H   0  0  0  0  0  0  0  0  0  0  0  0
    4.1380   -4.6097    3.5367 H   0  0  0  0  0  0  0  0  0  0  0  0
  1  2  1  0
  1 27  1  0
  1 28  1  0
  1 29  1  0
  2  3  1  0
  3  4  2  0
  3  8  1  0
  4  5  1  0
  4 30  1  0
  5  6  2  0
  5 31  1  0
  6  7  1  0
  6 32  1  0
  7  8  2  0
  7 33  1  0
  8  9  1  0
  9 10  2  0
  9 34  1  0
 10 11  1  0
 10 35  1  0
 11 12  2  0
 11 13  1  0
 13 14  1  1
 13 15  1  0
 13 17  1  0
 15 16  3  0
 17 18  2  0
 17 19  1  0
 19 20  1  0
 19 36  1  0
 20 21  2  0
 20 26  1  0
 21 22  1  0
 21 37  1  0
 22 23  2  0
 22 38  1  0
 23 24  1  0
 23 25  1  0
 25 26  2  0
 25 39  1  0
 26 40  1  0
M  END

