
     RDKit          3D

 45 48  0  0  0  0  0  0  0  0999 V2000
    3.2038    1.1155   -0.8859 C   0  0  0  0  0  0  0  0  0  0  0  0
    3.2333    0.0309    0.2025 C   0  0  0  0  0  0  0  0  0  0  0  0
    3.3612   -1.3706   -0.3542 C   0  0  0  0  0  0  0  0  0  0  0  0
    4.6211   -1.9497   -0.5727 C   0  0  0  0  0  0  0  0  0  0  0  0
    4.7447   -3.2287   -1.1182 C   0  0  0  0  0  0  0  0  0  0  0  0
    3.5999   -3.9500   -1.4652 C   0  0  0  0  0  0  0  0  0  0  0  0
    3.7235   -5.2771   -2.0230 N   0  0  0  0  0  0  0  0  0  0  0  0
    3.8528   -5.4519   -3.3722 C   0  0  0  0  0  0  0  0  0  0  0  0
    3.8342   -4.2646   -4.2884 C   0  0  0  0  0  0  0  0  0  0  0  0
    3.9913   -6.7444   -3.8434 C   0  0  0  0  0  0  0  0  0  0  0  0
    4.0870   -7.2720   -5.2112 C   0  0  0  0  0  0  0  0  0  0  0  0
    4.1196   -6.6975   -6.2855 O   0  0  0  0  0  0  0  0  0  0  0  0
    4.1589   -8.6712   -5.0394 N   0  0  0  0  0  0  0  0  0  0  0  0
    4.5295   -9.6407   -5.9897 C   0  0  0  0  0  0  0  0  0  0  0  0
    4.3233   -9.4141   -7.3654 C   0  0  0  0  0  0  0  0  0  0  0  0
    4.6797  -10.4035   -8.2816 C   0  0  0  0  0  0  0  0  0  0  0  0
    5.2278  -11.6227   -7.8707 C   0  0  0  0  0  0  0  0  0  0  0  0
    5.4205  -11.8196   -6.5072 C   0  0  0  0  0  0  0  0  0  0  0  0
    5.9526  -12.9746   -6.0795 F   0  0  0  0  0  0  0  0  0  0  0  0
    5.0882  -10.8574   -5.5580 C   0  0  0  0  0  0  0  0  0  0  0  0
    4.2000   -9.0136   -3.6681 N   0  0  0  0  0  0  0  0  0  0  0  0
    3.5870   -9.7982   -3.4454 H   0  0  0  0  0  0  0  0  0  0  0  0
    4.0052   -7.8450   -2.9389 C   0  0  0  0  0  0  0  0  0  0  0  0
    3.8416   -7.6909   -1.5884 C   0  0  0  0  0  0  0  0  0  0  0  0
    3.6868   -6.3644   -1.0420 C   0  0  0  0  0  0  0  0  0  0  0  0
    3.5402   -6.0802    0.1316 O   0  0  0  0  0  0  0  0  0  0  0  0
    2.3360   -3.3972   -1.2447 C   0  0  0  0  0  0  0  0  0  0  0  0
    2.2234   -2.1182   -0.6981 C   0  0  0  0  0  0  0  0  0  0  0  0
    3.1096    2.1189   -0.4406 H   0  0  0  0  0  0  0  0  0  0  0  0
    2.3544    0.9681   -1.5721 H   0  0  0  0  0  0  0  0  0  0  0  0
    4.1247    1.0980   -1.4906 H   0  0  0  0  0  0  0  0  0  0  0  0
    2.3147    0.0987    0.8090 H   0  0  0  0  0  0  0  0  0  0  0  0
    4.0734    0.2272    0.8894 H   0  0  0  0  0  0  0  0  0  0  0  0
    5.5238   -1.3954   -0.3003 H   0  0  0  0  0  0  0  0  0  0  0  0
    5.7302   -3.6761   -1.2658 H   0  0  0  0  0  0  0  0  0  0  0  0
    2.9070   -3.6856   -4.1584 H   0  0  0  0  0  0  0  0  0  0  0  0
    3.9179   -4.6024   -5.3282 H   0  0  0  0  0  0  0  0  0  0  0  0
    4.6664   -3.5818   -4.0566 H   0  0  0  0  0  0  0  0  0  0  0  0
    3.9041   -8.4673   -7.6961 H   0  0  0  0  0  0  0  0  0  0  0  0
    4.5193  -10.2201   -9.3468 H   0  0  0  0  0  0  0  0  0  0  0  0
    5.5031  -12.4071   -8.5773 H   0  0  0  0  0  0  0  0  0  0  0  0
    5.2955  -11.0556   -4.5075 H   0  0  0  0  0  0  0  0  0  0  0  0
    3.8372   -8.5197   -0.8807 H   0  0  0  0  0  0  0  0  0  0  0  0
    1.4433   -3.9761   -1.4911 H   0  0  0  0  0  0  0  0  0  0  0  0
    1.2292   -1.6968   -0.5246 H   0  0  0  0  0  0  0  0  0  0  0  0
  1  2  1  0
  1 29  1  0
  1 30  1  0
  1 31  1  0
  2  3  1  0
  2 32  1  0
  2 33  1  0
  3  4  2  0
  3 28  1  0
  4  5  1  0
  4 34  1  0
  5  6  2  0
  5 35  1  0
  6  7  1  0
  6 27  1  0
  7  8  1  0
  7 25  1  0
  8  9  1  0
  8 10  2  0
  9 36  1  0
  9 37  1  0
  9 38  1  0
 10 11  1  0
 10 23  1  0
 11 12  2  0
 11 13  1  0
 13 14  1  0
 13 21  1  0
 14 15  2  0
 14 20  1  0
 15 16  1  0
 15 39  1  0
 16 17  2  0
 16 40  1  0
 17 18  1  0
 17 41  1  0
 18 19  1  0
 18 20  2  0
 20 42  1  0
 21 22  1  0
 21 23  1  0
 23 24  2  0
 24 25  1  0
 24 43  1  0
 25 26  2  0
 27 28  2  0
 27 44  1  0
 28 45  1  0
M  END

