
     RDKit          3D

 66 71  0  0  0  0  0  0  0  0999 V2000
    1.0688   -0.4765   -0.1563 N   0  0  0  0  0  0  0  0  0  0  0  0
    2.4077   -0.3103   -0.1800 C   0  0  0  0  0  0  0  0  0  0  0  0
    2.9125    0.9284   -0.2982 N   0  0  0  0  0  0  0  0  0  0  0  0
    4.2302    1.0662   -0.3200 C   0  0  0  0  0  0  0  0  0  0  0  0
    4.6550    2.3216   -0.4409 F   0  0  0  0  0  0  0  0  0  0  0  0
    5.1815    0.1563   -0.2398 N   0  0  0  0  0  0  0  0  0  0  0  0
    4.6683   -1.0764   -0.1203 C   0  0  0  0  0  0  0  0  0  0  0  0
    3.3066   -1.4002   -0.0849 C   0  0  0  0  0  0  0  0  0  0  0  0
    3.1296   -2.7606    0.0241 N   0  0  0  0  0  0  0  0  0  0  0  0
    4.3452   -3.2602    0.0608 C   0  0  0  0  0  0  0  0  0  0  0  0
    4.6427   -4.7280    0.1355 C   0  0  0  0  0  0  0  0  0  0  0  0
    5.1208   -5.3586   -1.1738 C   0  0  0  0  0  0  0  0  0  0  0  0
    4.6749   -4.8037   -2.3843 C   0  0  0  0  0  0  0  0  0  0  0  0
    5.0146   -5.3832   -3.6066 C   0  0  0  0  0  0  0  0  0  0  0  0
    5.8046   -6.5451   -3.6526 C   0  0  0  0  0  0  0  0  0  0  0  0
    6.2552   -7.0952   -2.4604 C   0  0  0  0  0  0  0  0  0  0  0  0
    5.9299   -6.5253   -1.2075 C   0  0  0  0  0  0  0  0  0  0  0  0
    6.4191   -7.2384   -0.0178 C   0  0  0  0  0  0  0  0  0  0  0  0
    6.5684   -8.5817    0.2369 C   0  0  0  0  0  0  0  0  0  0  0  0
    7.1383   -8.6978    1.5455 C   0  0  0  0  0  0  0  0  0  0  0  0
    7.2971   -7.4223    2.0016 C   0  0  0  0  0  0  0  0  0  0  0  0
    6.8691   -6.5327    1.0656 O   0  0  0  0  0  0  0  0  0  0  0  0
    6.0115   -7.0777   -5.0531 C   0  0  0  0  0  0  0  0  0  0  0  0
    5.7801   -5.9019   -6.0149 C   0  0  0  0  0  0  0  0  0  0  0  0
    4.5301   -4.8001   -5.2099 S   0  0  0  0  0  0  0  0  0  0  0  0
    5.3347   -2.2776   -0.0165 N   0  0  0  0  0  0  0  0  0  0  0  0
    6.7886   -2.4413   -0.0578 C   0  0  0  0  0  0  0  0  0  0  0  0
    7.5260   -1.6951    1.0634 C   0  0  0  0  0  0  0  0  0  0  0  0
    7.2316   -2.1947    2.4929 C   0  0  1  0  0  0  0  0  0  0  0  0
    7.9384   -3.5287    2.8292 C   0  0  0  0  0  0  0  0  0  0  0  0
    9.4436   -3.3416    3.0964 C   0  0  0  0  0  0  0  0  0  0  0  0
    9.7433   -2.3312    4.1127 N   0  0  0  0  0  0  0  0  0  0  0  0
    9.5949   -2.7898    5.4778 C   0  0  0  0  0  0  0  0  0  0  0  0
   10.7449   -3.6987    5.8884 C   0  0  0  0  0  0  0  0  0  0  0  0
   10.6486   -4.6167    6.6614 O   0  0  0  0  0  0  0  0  0  0  0  0
    9.1187   -1.0494    3.7880 C   0  0  0  0  0  0  0  0  0  0  0  0
    7.6002   -1.1447    3.5653 C   0  0  0  0  0  0  0  0  0  0  0  0
    0.4673    0.3316   -0.2409 H   0  0  0  0  0  0  0  0  0  0  0  0
    0.6792   -1.4055   -0.0789 H   0  0  0  0  0  0  0  0  0  0  0  0
    3.6944   -5.2055    0.4309 H   0  0  0  0  0  0  0  0  0  0  0  0
    5.3575   -4.9302    0.9412 H   0  0  0  0  0  0  0  0  0  0  0  0
    4.0418   -3.9147   -2.3605 H   0  0  0  0  0  0  0  0  0  0  0  0
    6.8920   -7.9828   -2.4822 H   0  0  0  0  0  0  0  0  0  0  0  0
    6.2797   -9.3928   -0.4275 H   0  0  0  0  0  0  0  0  0  0  0  0
    7.3876   -9.6121    2.0797 H   0  0  0  0  0  0  0  0  0  0  0  0
    7.6789   -6.9977    2.9261 H   0  0  0  0  0  0  0  0  0  0  0  0
    5.2709   -7.8754   -5.2488 H   0  0  0  0  0  0  0  0  0  0  0  0
    7.0098   -7.5209   -5.1972 H   0  0  0  0  0  0  0  0  0  0  0  0
    5.3964   -6.2126   -6.9962 H   0  0  0  0  0  0  0  0  0  0  0  0
    6.7024   -5.3192   -6.1668 H   0  0  0  0  0  0  0  0  0  0  0  0
    7.1432   -2.0667   -1.0318 H   0  0  0  0  0  0  0  0  0  0  0  0
    6.9999   -3.5188   -0.0338 H   0  0  0  0  0  0  0  0  0  0  0  0
    7.2652   -0.6289    0.9803 H   0  0  0  0  0  0  0  0  0  0  0  0
    8.6029   -1.7641    0.8355 H   0  0  0  0  0  0  0  0  0  0  0  0
    6.1415   -2.3584    2.5579 H   0  0  0  0  0  0  0  0  0  0  0  0
    7.7985   -4.2665    2.0223 H   0  0  0  0  0  0  0  0  0  0  0  0
    7.4625   -3.9653    3.7249 H   0  0  0  0  0  0  0  0  0  0  0  0
    9.9554   -3.0461    2.1630 H   0  0  0  0  0  0  0  0  0  0  0  0
    9.8970   -4.3008    3.3975 H   0  0  0  0  0  0  0  0  0  0  0  0
    8.6458   -3.3098    5.7274 H   0  0  0  0  0  0  0  0  0  0  0  0
    9.6569   -1.9151    6.1525 H   0  0  0  0  0  0  0  0  0  0  0  0
   11.7216   -3.4220    5.4069 H   0  0  0  0  0  0  0  0  0  0  0  0
    9.6041   -0.6575    2.8758 H   0  0  0  0  0  0  0  0  0  0  0  0
    9.3470   -0.3294    4.5905 H   0  0  0  0  0  0  0  0  0  0  0  0
    7.1977   -0.1565    3.2857 H   0  0  0  0  0  0  0  0  0  0  0  0
    7.1149   -1.4210    4.5182 H   0  0  0  0  0  0  0  0  0  0  0  0
  1  2  1  0
  1 38  1  0
  1 39  1  0
  2  3  2  0
  2  8  1  0
  3  4  1  0
  4  5  1  0
  4  6  2  0
  6  7  1  0
  7  8  2  0
  7 26  1  0
  8  9  1  0
  9 10  2  0
 10 11  1  0
 10 26  1  0
 11 12  1  0
 11 40  1  0
 11 41  1  0
 12 13  2  0
 12 17  1  0
 13 14  1  0
 13 42  1  0
 14 15  2  0
 14 25  1  0
 15 16  1  0
 15 23  1  0
 16 17  2  0
 16 43  1  0
 17 18  1  0
 18 19  2  0
 18 22  1  0
 19 20  1  0
 19 44  1  0
 20 21  2  0
 20 45  1  0
 21 22  1  0
 21 46  1  0
 23 24  1  0
 23 47  1  0
 23 48  1  0
 24 25  1  0
 24 49  1  0
 24 50  1  0
 26 27  1  0
 27 28  1  0
 27 51  1  0
 27 52  1  0
 28 29  1  0
 28 53  1  0
 28 54  1  0
 29 30  1  0
 29 37  1  0
 29 55  1  6
 30 31  1  0
 30 56  1  0
 30 57  1  0
 31 32  1  0
 31 58  1  0
 31 59  1  0
 32 33  1  0
 32 36  1  0
 33 34  1  0
 33 60  1  0
 33 61  1  0
 34 35  2  0
 34 62  1  0
 36 37  1  0
 36 63  1  0
 36 64  1  0
 37 65  1  0
 37 66  1  0
M  END

