
     RDKit          3D

 43 45  0  0  0  0  0  0  0  0999 V2000
    7.6898   -5.0497    1.1381 C   0  0  0  0  0  0  0  0  0  0  0  0
    7.5886   -3.5880    1.5265 C   0  0  0  0  0  0  0  0  0  0  0  0
    6.2105   -3.2436    1.6048 O   0  0  0  0  0  0  0  0  0  0  0  0
    5.8408   -1.9809    1.9374 C   0  0  0  0  0  0  0  0  0  0  0  0
    6.7311   -0.9430    2.2229 C   0  0  0  0  0  0  0  0  0  0  0  0
    6.2175    0.3135    2.5522 C   0  0  0  0  0  0  0  0  0  0  0  0
    7.0861    1.3014    2.8242 F   0  0  0  0  0  0  0  0  0  0  0  0
    4.8538    0.5628    2.6046 C   0  0  0  0  0  0  0  0  0  0  0  0
    3.9633   -0.4788    2.3182 C   0  0  0  0  0  0  0  0  0  0  0  0
    4.4394   -1.7519    1.9841 C   0  0  0  0  0  0  0  0  0  0  0  0
    3.6163   -2.8455    1.6849 N   0  0  0  0  0  0  0  0  0  0  0  0
    2.2647   -2.9111    1.6523 C   0  0  0  0  0  0  0  0  0  0  0  0
    1.4684   -2.0119    1.8829 O   0  0  0  0  0  0  0  0  0  0  0  0
    1.7976   -4.3340    1.2684 C   0  0  0  0  0  0  0  0  0  0  0  0
    2.5979   -5.2341    1.0389 O   0  0  0  0  0  0  0  0  0  0  0  0
    0.4590   -4.4354    1.2251 N   0  0  0  0  0  0  0  0  0  0  0  0
   -0.2352   -5.6537    0.8665 C   0  0  0  0  0  0  0  0  0  0  0  0
   -1.4789   -5.3415    0.0834 C   0  0  0  0  0  0  0  0  0  0  0  0
   -2.0235   -6.0467   -0.9800 C   0  0  0  0  0  0  0  0  0  0  0  0
   -3.1743   -5.3682   -1.3194 N   0  0  0  0  0  0  0  0  0  0  0  0
   -4.1096   -5.6088   -2.2949 C   0  0  0  0  0  0  0  0  0  0  0  0
   -5.1709   -4.7486   -2.4165 C   0  0  0  0  0  0  0  0  0  0  0  0
   -6.3679   -5.0409   -3.6495 Cl  0  0  0  0  0  0  0  0  0  0  0  0
   -5.3095   -3.6226   -1.5525 C   0  0  0  0  0  0  0  0  0  0  0  0
   -4.3648   -3.3916   -0.5799 C   0  0  0  0  0  0  0  0  0  0  0  0
   -3.2636   -4.2709   -0.4405 C   0  0  0  0  0  0  0  0  0  0  0  0
   -2.2398   -4.2619    0.4053 N   0  0  0  0  0  0  0  0  0  0  0  0
    8.7470   -5.3490    1.0687 H   0  0  0  0  0  0  0  0  0  0  0  0
    7.2122   -5.2286    0.1628 H   0  0  0  0  0  0  0  0  0  0  0  0
    7.1953   -5.6877    1.8862 H   0  0  0  0  0  0  0  0  0  0  0  0
    8.0892   -2.9443    0.7796 H   0  0  0  0  0  0  0  0  0  0  0  0
    8.0725   -3.4037    2.5035 H   0  0  0  0  0  0  0  0  0  0  0  0
    7.8110   -1.0788    2.1978 H   0  0  0  0  0  0  0  0  0  0  0  0
    4.4947    1.5592    2.8664 H   0  0  0  0  0  0  0  0  0  0  0  0
    2.8873   -0.3182    2.3500 H   0  0  0  0  0  0  0  0  0  0  0  0
    4.0820   -3.7243    1.4557 H   0  0  0  0  0  0  0  0  0  0  0  0
   -0.0875   -3.5969    1.4172 H   0  0  0  0  0  0  0  0  0  0  0  0
   -0.5112   -6.2194    1.7783 H   0  0  0  0  0  0  0  0  0  0  0  0
    0.4548   -6.2929    0.2966 H   0  0  0  0  0  0  0  0  0  0  0  0
   -1.6979   -6.9385   -1.5087 H   0  0  0  0  0  0  0  0  0  0  0  0
   -3.9640   -6.4799   -2.9331 H   0  0  0  0  0  0  0  0  0  0  0  0
   -6.1660   -2.9593   -1.6783 H   0  0  0  0  0  0  0  0  0  0  0  0
   -4.4316   -2.5419    0.1004 H   0  0  0  0  0  0  0  0  0  0  0  0
  1  2  1  0
  1 28  1  0
  1 29  1  0
  1 30  1  0
  2  3  1  0
  2 31  1  0
  2 32  1  0
  3  4  1  0
  4  5  2  0
  4 10  1  0
  5  6  1  0
  5 33  1  0
  6  7  1  0
  6  8  2  0
  8  9  1  0
  8 34  1  0
  9 10  2  0
  9 35  1  0
 10 11  1  0
 11 12  1  0
 11 36  1  0
 12 13  2  0
 12 14  1  0
 14 15  2  0
 14 16  1  0
 16 17  1  0
 16 37  1  0
 17 18  1  0
 17 38  1  0
 17 39  1  0
 18 19  2  0
 18 27  1  0
 19 20  1  0
 19 40  1  0
 20 21  1  0
 20 26  1  0
 21 22  2  0
 21 41  1  0
 22 23  1  0
 22 24  1  0
 24 25  2  0
 24 42  1  0
 25 26  1  0
 25 43  1  0
 26 27  2  0
M  END

