
     RDKit          3D

 75 80  0  0  0  0  0  0  0  0999 V2000
    0.7614   -0.1122    1.6490 C   0  0  0  0  0  0  0  0  0  0  0  0
    2.2893   -0.0632    1.7088 C   0  0  0  0  0  0  0  0  0  0  0  0
    2.9086    1.3401    1.4732 C   0  0  1  0  0  0  0  0  0  0  0  0
    2.5733    2.3367    2.6001 C   0  0  0  0  0  0  0  0  0  0  0  0
    2.9735    3.7814    2.2993 C   0  0  0  0  0  0  0  0  0  0  0  0
    4.4033    1.2133    1.3021 C   0  0  0  0  0  0  0  0  0  0  0  0
    5.2551    1.2276    2.2983 N   0  0  0  0  0  0  0  0  0  0  0  0
    6.5034    1.0357    1.7421 C   0  0  0  0  0  0  0  0  0  0  0  0
    7.7677    0.9940    2.3684 C   0  0  0  0  0  0  0  0  0  0  0  0
    7.8905    1.1637    3.8576 C   0  0  0  0  0  0  0  0  0  0  0  0
    8.8668    0.7927    1.5365 C   0  0  0  0  0  0  0  0  0  0  0  0
    8.7545    0.6263    0.1296 C   0  0  0  0  0  0  0  0  0  0  0  0
   10.0058    0.4470   -0.6323 C   0  0  0  0  0  0  0  0  0  0  0  0
   11.1337    1.0399   -0.2986 N   0  0  0  0  0  0  0  0  0  0  0  0
   12.0606    0.6410   -1.2334 C   0  0  0  0  0  0  0  0  0  0  0  0
   13.4197    0.9717   -1.3637 C   0  0  0  0  0  0  0  0  0  0  0  0
   14.1345    0.4091   -2.4188 C   0  0  0  0  0  0  0  0  0  0  0  0
   13.5190   -0.4700   -3.3367 C   0  0  0  0  0  0  0  0  0  0  0  0
   12.1700   -0.8104   -3.2282 C   0  0  0  0  0  0  0  0  0  0  0  0
   11.4563   -0.2402   -2.1670 C   0  0  0  0  0  0  0  0  0  0  0  0
   10.1382   -0.3602   -1.7606 N   0  0  0  0  0  0  0  0  0  0  0  0
    9.1895   -1.2876   -2.3477 C   0  0  0  0  0  0  0  0  0  0  0  0
    7.4963    0.6882   -0.4901 C   0  0  0  0  0  0  0  0  0  0  0  0
    6.3909    0.8934    0.3411 C   0  0  0  0  0  0  0  0  0  0  0  0
    5.0305    1.0104    0.0727 N   0  0  0  0  0  0  0  0  0  0  0  0
    4.4458    0.9857   -1.2506 C   0  0  0  0  0  0  0  0  0  0  0  0
    4.3802   -0.3816   -1.9184 C   0  0  0  0  0  0  0  0  0  0  0  0
    4.7313   -1.5650   -1.2560 C   0  0  0  0  0  0  0  0  0  0  0  0
    4.6860   -2.7937   -1.9181 C   0  0  0  0  0  0  0  0  0  0  0  0
    4.2796   -2.8798   -3.2615 C   0  0  0  0  0  0  0  0  0  0  0  0
    4.2325   -4.1972   -3.9699 C   0  0  0  0  0  0  0  0  0  0  0  0
    2.9782   -4.6853   -4.3765 C   0  0  0  0  0  0  0  0  0  0  0  0
    2.8463   -5.9299   -4.9932 C   0  0  0  0  0  0  0  0  0  0  0  0
    3.9768   -6.7230   -5.2075 C   0  0  0  0  0  0  0  0  0  0  0  0
    5.2286   -6.2533   -4.8177 C   0  0  0  0  0  0  0  0  0  0  0  0
    5.3807   -4.9912   -4.2178 C   0  0  0  0  0  0  0  0  0  0  0  0
    6.8139   -4.5962   -3.9287 C   0  0  0  0  0  0  0  0  0  0  0  0
    7.7032   -5.4042   -3.8599 O   0  0  0  0  0  0  0  0  0  0  0  0
    7.0938   -3.2811   -3.8024 O   0  0  0  0  0  0  0  0  0  0  0  0
    3.9003   -1.6914   -3.9153 C   0  0  0  0  0  0  0  0  0  0  0  0
    3.9586   -0.4634   -3.2543 C   0  0  0  0  0  0  0  0  0  0  0  0
    0.4006   -1.1461    1.7686 H   0  0  0  0  0  0  0  0  0  0  0  0
    0.3846    0.2595    0.6809 H   0  0  0  0  0  0  0  0  0  0  0  0
    0.2913    0.4903    2.4413 H   0  0  0  0  0  0  0  0  0  0  0  0
    2.6953   -0.7572    0.9532 H   0  0  0  0  0  0  0  0  0  0  0  0
    2.6482   -0.4361    2.6835 H   0  0  0  0  0  0  0  0  0  0  0  0
    2.4794    1.7359    0.5345 H   0  0  0  0  0  0  0  0  0  0  0  0
    3.0788    1.9949    3.5173 H   0  0  0  0  0  0  0  0  0  0  0  0
    1.4896    2.2939    2.7942 H   0  0  0  0  0  0  0  0  0  0  0  0
    4.0613    3.8754    2.1575 H   0  0  0  0  0  0  0  0  0  0  0  0
    2.6907    4.4485    3.1289 H   0  0  0  0  0  0  0  0  0  0  0  0
    2.4767    4.1592    1.3890 H   0  0  0  0  0  0  0  0  0  0  0  0
    7.3150    0.3899    4.3918 H   0  0  0  0  0  0  0  0  0  0  0  0
    7.4757    2.1334    4.1780 H   0  0  0  0  0  0  0  0  0  0  0  0
    8.9389    1.1074    4.1836 H   0  0  0  0  0  0  0  0  0  0  0  0
    9.8712    0.7636    1.9626 H   0  0  0  0  0  0  0  0  0  0  0  0
   13.8885    1.6504   -0.6481 H   0  0  0  0  0  0  0  0  0  0  0  0
   15.1935    0.6496   -2.5426 H   0  0  0  0  0  0  0  0  0  0  0  0
   14.1119   -0.8918   -4.1523 H   0  0  0  0  0  0  0  0  0  0  0  0
   11.7007   -1.4879   -3.9449 H   0  0  0  0  0  0  0  0  0  0  0  0
    9.7083   -2.2065   -2.6557 H   0  0  0  0  0  0  0  0  0  0  0  0
    8.6933   -0.8658   -3.2374 H   0  0  0  0  0  0  0  0  0  0  0  0
    8.4229   -1.5631   -1.6146 H   0  0  0  0  0  0  0  0  0  0  0  0
    7.3899    0.6092   -1.5720 H   0  0  0  0  0  0  0  0  0  0  0  0
    5.0187    1.6714   -1.8994 H   0  0  0  0  0  0  0  0  0  0  0  0
    3.4320    1.4080   -1.1885 H   0  0  0  0  0  0  0  0  0  0  0  0
    5.0592   -1.5284   -0.2157 H   0  0  0  0  0  0  0  0  0  0  0  0
    4.9750   -3.7028   -1.3852 H   0  0  0  0  0  0  0  0  0  0  0  0
    2.0904   -4.0795   -4.1793 H   0  0  0  0  0  0  0  0  0  0  0  0
    1.8574   -6.2841   -5.2949 H   0  0  0  0  0  0  0  0  0  0  0  0
    3.8834   -7.7036   -5.6801 H   0  0  0  0  0  0  0  0  0  0  0  0
    6.1287   -6.8488   -4.9792 H   0  0  0  0  0  0  0  0  0  0  0  0
    6.2874   -2.7435   -3.8574 H   0  0  0  0  0  0  0  0  0  0  0  0
    3.5769   -1.7316   -4.9585 H   0  0  0  0  0  0  0  0  0  0  0  0
    3.6793    0.4475   -3.7926 H   0  0  0  0  0  0  0  0  0  0  0  0
  1  2  1  0
  1 42  1  0
  1 43  1  0
  1 44  1  0
  2  3  1  0
  2 45  1  0
  2 46  1  0
  3  4  1  0
  3  6  1  0
  3 47  1  6
  4  5  1  0
  4 48  1  0
  4 49  1  0
  5 50  1  0
  5 51  1  0
  5 52  1  0
  6  7  2  0
  6 25  1  0
  7  8  1  0
  8  9  2  0
  8 24  1  0
  9 10  1  0
  9 11  1  0
 10 53  1  0
 10 54  1  0
 10 55  1  0
 11 12  2  0
 11 56  1  0
 12 13  1  0
 12 23  1  0
 13 14  2  0
 13 21  1  0
 14 15  1  0
 15 16  2  0
 15 20  1  0
 16 17  1  0
 16 57  1  0
 17 18  2  0
 17 58  1  0
 18 19  1  0
 18 59  1  0
 19 20  2  0
 19 60  1  0
 20 21  1  0
 21 22  1  0
 22 61  1  0
 22 62  1  0
 22 63  1  0
 23 24  2  0
 23 64  1  0
 24 25  1  0
 25 26  1  0
 26 27  1  0
 26 65  1  0
 26 66  1  0
 27 28  2  0
 27 41  1  0
 28 29  1  0
 28 67  1  0
 29 30  2  0
 29 68  1  0
 30 31  1  0
 30 40  1  0
 31 32  2  0
 31 36  1  0
 32 33  1  0
 32 69  1  0
 33 34  2  0
 33 70  1  0
 34 35  1  0
 34 71  1  0
 35 36  2  0
 35 72  1  0
 36 37  1  0
 37 38  2  0
 37 39  1  0
 39 73  1  0
 40 41  2  0
 40 74  1  0
 41 75  1  0
M  END

