
     RDKit          3D

 32 33  0  0  0  0  0  0  0  0999 V2000
    0.9905    1.2306    0.2288 C   0  0  0  0  0  0  0  0  0  0  0  0
    2.4143    1.2848    0.2195 O   0  0  0  0  0  0  0  0  0  0  0  0
    3.0171    0.8837   -0.9279 C   0  0  0  0  0  0  0  0  0  0  0  0
    2.3696    0.4718   -1.8664 O   0  0  0  0  0  0  0  0  0  0  0  0
    4.5014    0.9592   -0.8641 C   0  0  0  0  0  0  0  0  0  0  0  0
    5.2562   -0.0079   -1.5799 C   0  0  0  0  0  0  0  0  0  0  0  0
    4.6328   -1.0840   -2.4364 C   0  0  0  0  0  0  0  0  0  0  0  0
    6.5871   -0.0324   -1.5353 N   0  0  0  0  0  0  0  0  0  0  0  0
    7.2474    0.8739   -0.8051 C   0  0  0  0  0  0  0  0  0  0  0  0
    6.5999    1.8958   -0.0611 C   0  0  0  0  0  0  0  0  0  0  0  0
    5.2023    1.9474   -0.1130 C   0  0  0  0  0  0  0  0  0  0  0  0
    4.4908    3.0812    0.5925 C   0  0  0  0  0  0  0  0  0  0  0  0
    7.4493    2.8778    0.7287 C   0  0  0  0  0  0  0  0  0  0  0  0
    8.8457    2.3194    1.0325 C   0  0  0  0  0  0  0  0  0  0  0  0
    9.4919    1.7473   -0.2277 C   0  0  0  0  0  0  0  0  0  0  0  0
    8.6112    0.7591   -0.8114 N   0  0  0  0  0  0  0  0  0  0  0  0
    0.6759    1.6073    1.2105 H   0  0  0  0  0  0  0  0  0  0  0  0
    0.6353    0.1984    0.0864 H   0  0  0  0  0  0  0  0  0  0  0  0
    0.5635    1.8520   -0.5735 H   0  0  0  0  0  0  0  0  0  0  0  0
    3.8381   -1.6306   -1.9077 H   0  0  0  0  0  0  0  0  0  0  0  0
    5.4238   -1.7800   -2.7439 H   0  0  0  0  0  0  0  0  0  0  0  0
    4.1560   -0.6495   -3.3274 H   0  0  0  0  0  0  0  0  0  0  0  0
    5.1376    3.9643    0.6776 H   0  0  0  0  0  0  0  0  0  0  0  0
    4.1833    2.7863    1.6093 H   0  0  0  0  0  0  0  0  0  0  0  0
    3.5765    3.3794    0.0670 H   0  0  0  0  0  0  0  0  0  0  0  0
    6.9535    3.1407    1.6757 H   0  0  0  0  0  0  0  0  0  0  0  0
    7.5503    3.8270    0.1681 H   0  0  0  0  0  0  0  0  0  0  0  0
    8.7678    1.5161    1.7848 H   0  0  0  0  0  0  0  0  0  0  0  0
    9.4883    3.1051    1.4598 H   0  0  0  0  0  0  0  0  0  0  0  0
   10.4548    1.2688    0.0133 H   0  0  0  0  0  0  0  0  0  0  0  0
    9.7134    2.5701   -0.9398 H   0  0  0  0  0  0  0  0  0  0  0  0
    8.9735    0.0638   -1.4535 H   0  0  0  0  0  0  0  0  0  0  0  0
  1  2  1  0
  1 17  1  0
  1 18  1  0
  1 19  1  0
  2  3  1  0
  3  4  2  0
  3  5  1  0
  5  6  2  0
  5 11  1  0
  6  7  1  0
  6  8  1  0
  7 20  1  0
  7 21  1  0
  7 22  1  0
  8  9  2  0
  9 10  1  0
  9 16  1  0
 10 11  2  0
 10 13  1  0
 11 12  1  0
 12 23  1  0
 12 24  1  0
 12 25  1  0
 13 14  1  0
 13 26  1  0
 13 27  1  0
 14 15  1  0
 14 28  1  0
 14 29  1  0
 15 16  1  0
 15 30  1  0
 15 31  1  0
 16 32  1  0
M  END

