
     RDKit          3D

 45 46  0  0  0  0  0  0  0  0999 V2000
    1.7871    1.8906    3.6972 C   0  0  0  0  0  0  0  0  0  0  0  0
    1.5024    0.9458    2.6779 O   0  0  0  0  0  0  0  0  0  0  0  0
    2.5114    0.0640    2.3723 C   0  0  0  0  0  0  0  0  0  0  0  0
    3.3868    0.3823    1.3196 C   0  0  0  0  0  0  0  0  0  0  0  0
    3.2480    1.6584    0.5335 C   0  0  0  0  0  0  0  0  0  0  0  0
    4.3746   -0.5662    1.0363 C   0  0  0  0  0  0  0  0  0  0  0  0
    4.5250   -1.7117    1.6968 N   0  0  0  0  0  0  0  0  0  0  0  0
    3.6748   -2.0232    2.6857 C   0  0  0  0  0  0  0  0  0  0  0  0
    3.9363   -3.3442    3.3853 C   0  0  0  0  0  0  0  0  0  0  0  0
    3.5869   -4.6369    2.5928 C   0  0  1  0  0  0  0  0  0  0  0  0
    2.0831   -4.7461    2.3070 C   0  0  0  0  0  0  0  0  0  0  0  0
    4.3963   -4.8409    1.2997 C   0  0  0  0  0  0  0  0  0  0  0  0
    5.9128   -4.9023    1.4704 C   0  0  0  0  0  0  0  0  0  0  0  0
    6.5589   -5.2603    0.2112 N   0  0  0  0  0  0  0  0  0  0  0  0
    7.9870   -5.3718    0.2747 C   0  0  1  0  0  0  0  0  0  0  0  0
    8.8278   -4.9765   -0.9009 C   0  0  0  0  0  0  0  0  0  0  0  0
    8.9065   -4.1661    0.3765 C   0  0  0  0  0  0  0  0  0  0  0  0
    2.6206   -1.1567    3.0650 C   0  0  0  0  0  0  0  0  0  0  0  0
    1.6352   -1.4950    4.1582 C   0  0  0  0  0  0  0  0  0  0  0  0
    0.9082    2.5447    3.7851 H   0  0  0  0  0  0  0  0  0  0  0  0
    2.6694    2.5073    3.4495 H   0  0  0  0  0  0  0  0  0  0  0  0
    1.9673    1.4006    4.6709 H   0  0  0  0  0  0  0  0  0  0  0  0
    2.2102    1.8039    0.1955 H   0  0  0  0  0  0  0  0  0  0  0  0
    3.9059    1.6486   -0.3480 H   0  0  0  0  0  0  0  0  0  0  0  0
    3.5128    2.5452    1.1341 H   0  0  0  0  0  0  0  0  0  0  0  0
    5.0863   -0.3726    0.2230 H   0  0  0  0  0  0  0  0  0  0  0  0
    3.3961   -3.3787    4.3427 H   0  0  0  0  0  0  0  0  0  0  0  0
    5.0086   -3.3676    3.6354 H   0  0  0  0  0  0  0  0  0  0  0  0
    3.8519   -5.4697    3.2717 H   0  0  0  0  0  0  0  0  0  0  0  0
    1.7353   -3.9246    1.6583 H   0  0  0  0  0  0  0  0  0  0  0  0
    1.4891   -4.7190    3.2352 H   0  0  0  0  0  0  0  0  0  0  0  0
    1.8489   -5.6921    1.7932 H   0  0  0  0  0  0  0  0  0  0  0  0
    4.1521   -4.0362    0.5847 H   0  0  0  0  0  0  0  0  0  0  0  0
    4.0724   -5.7864    0.8314 H   0  0  0  0  0  0  0  0  0  0  0  0
    6.1710   -5.6788    2.2151 H   0  0  0  0  0  0  0  0  0  0  0  0
    6.2847   -3.9384    1.8722 H   0  0  0  0  0  0  0  0  0  0  0  0
    6.2847   -4.6029   -0.5178 H   0  0  0  0  0  0  0  0  0  0  0  0
    8.3159   -6.2635    0.8248 H   0  0  0  0  0  0  0  0  0  0  0  0
    8.3192   -4.5260   -1.7602 H   0  0  0  0  0  0  0  0  0  0  0  0
    9.6747   -5.6114   -1.1773 H   0  0  0  0  0  0  0  0  0  0  0  0
    8.4375   -3.1769    0.3758 H   0  0  0  0  0  0  0  0  0  0  0  0
    9.8134   -4.2355    0.9855 H   0  0  0  0  0  0  0  0  0  0  0  0
    1.2392   -2.5136    4.0422 H   0  0  0  0  0  0  0  0  0  0  0  0
    0.7852   -0.8009    4.1371 H   0  0  0  0  0  0  0  0  0  0  0  0
    2.0971   -1.4406    5.1591 H   0  0  0  0  0  0  0  0  0  0  0  0
  1  2  1  0
  1 20  1  0
  1 21  1  0
  1 22  1  0
  2  3  1  0
  3  4  2  0
  3 18  1  0
  4  5  1  0
  4  6  1  0
  5 23  1  0
  5 24  1  0
  5 25  1  0
  6  7  2  0
  6 26  1  0
  7  8  1  0
  8  9  1  0
  8 18  2  0
  9 10  1  0
  9 27  1  0
  9 28  1  0
 10 11  1  0
 10 12  1  0
 10 29  1  1
 11 30  1  0
 11 31  1  0
 11 32  1  0
 12 13  1  0
 12 33  1  0
 12 34  1  0
 13 14  1  0
 13 35  1  0
 13 36  1  0
 14 15  1  0
 14 37  1  0
 15 16  1  0
 15 17  1  0
 15 38  1  1
 16 17  1  0
 16 39  1  0
 16 40  1  0
 17 41  1  0
 17 42  1  0
 18 19  1  0
 19 43  1  0
 19 44  1  0
 19 45  1  0
M  END

