
     RDKit          3D

 46 49  0  0  0  0  0  0  0  0999 V2000
    1.0807    0.2374   -1.7842 O   0  0  0  0  0  0  0  0  0  0  0  0
    2.0208    0.3263   -1.0068 C   0  0  0  0  0  0  0  0  0  0  0  0
    2.0121    1.1487    0.0864 N   0  0  0  0  0  0  0  0  0  0  0  0
    0.9498    2.1193    0.3221 C   0  0  1  0  0  0  0  0  0  0  0  0
    0.5066    2.1526    1.7960 C   0  0  0  0  0  0  0  0  0  0  0  0
    1.5537    2.8124    2.7069 C   0  0  0  0  0  0  0  0  0  0  0  0
    2.0044    4.1722    2.1552 C   0  0  0  0  0  0  0  0  0  0  0  0
    2.4381    4.0384    0.7647 N   0  0  0  0  0  0  0  0  0  0  0  0
    3.7422    4.2795    0.3849 C   0  0  0  0  0  0  0  0  0  0  0  0
    4.2405    3.9914   -0.9158 C   0  0  0  0  0  0  0  0  0  0  0  0
    5.5652    4.2851   -1.1671 C   0  0  0  0  0  0  0  0  0  0  0  0
    6.3283    4.8444   -0.1287 C   0  0  0  0  0  0  0  0  0  0  0  0
    5.8175    5.0743    1.0762 N   0  0  0  0  0  0  0  0  0  0  0  0
    4.5532    4.7966    1.3315 N   0  0  0  0  0  0  0  0  0  0  0  0
    1.3999    3.5292   -0.1160 C   0  0  0  0  0  0  0  0  0  0  0  0
    3.2940   -0.4425   -1.2120 C   0  0  1  0  0  0  0  0  0  0  0  0
    3.2477   -1.7383   -1.9843 C   0  0  0  0  0  0  0  0  0  0  0  0
    3.7993   -0.5247   -2.6575 C   0  0  2  0  0  0  0  0  0  0  0  0
    5.2462   -0.3101   -2.9495 C   0  0  0  0  0  0  0  0  0  0  0  0
    6.2328   -1.3054   -2.8588 C   0  0  0  0  0  0  0  0  0  0  0  0
    7.5756   -1.0208   -3.1224 C   0  0  0  0  0  0  0  0  0  0  0  0
    7.9713    0.2691   -3.4867 C   0  0  0  0  0  0  0  0  0  0  0  0
    7.0016    1.2614   -3.5883 C   0  0  0  0  0  0  0  0  0  0  0  0
    7.3376    2.5147   -3.9220 F   0  0  0  0  0  0  0  0  0  0  0  0
    5.6616    0.9726   -3.3298 C   0  0  0  0  0  0  0  0  0  0  0  0
    4.7601    1.9637   -3.4380 F   0  0  0  0  0  0  0  0  0  0  0  0
    2.8654    1.2362    0.6259 H   0  0  0  0  0  0  0  0  0  0  0  0
    0.1145    1.7998   -0.3170 H   0  0  0  0  0  0  0  0  0  0  0  0
    0.2703    1.1316    2.1357 H   0  0  0  0  0  0  0  0  0  0  0  0
   -0.4325    2.7310    1.8503 H   0  0  0  0  0  0  0  0  0  0  0  0
    2.4387    2.1591    2.8128 H   0  0  0  0  0  0  0  0  0  0  0  0
    1.1457    2.9411    3.7232 H   0  0  0  0  0  0  0  0  0  0  0  0
    2.8340    4.5921    2.7337 H   0  0  0  0  0  0  0  0  0  0  0  0
    1.1609    4.8887    2.1951 H   0  0  0  0  0  0  0  0  0  0  0  0
    3.6279    3.5299   -1.6884 H   0  0  0  0  0  0  0  0  0  0  0  0
    6.0091    4.0662   -2.1408 H   0  0  0  0  0  0  0  0  0  0  0  0
    7.3823    5.1050   -0.2611 H   0  0  0  0  0  0  0  0  0  0  0  0
    1.7356    3.5088   -1.1586 H   0  0  0  0  0  0  0  0  0  0  0  0
    0.5281    4.2105   -0.0735 H   0  0  0  0  0  0  0  0  0  0  0  0
    4.0631   -0.3532   -0.4392 H   0  0  0  0  0  0  0  0  0  0  0  0
    2.2582   -2.0671   -2.3106 H   0  0  0  0  0  0  0  0  0  0  0  0
    3.9251   -2.5322   -1.6613 H   0  0  0  0  0  0  0  0  0  0  0  0
    3.1153   -0.0395   -3.3603 H   0  0  0  0  0  0  0  0  0  0  0  0
    5.9401   -2.3210   -2.5866 H   0  0  0  0  0  0  0  0  0  0  0  0
    8.3241   -1.8125   -3.0471 H   0  0  0  0  0  0  0  0  0  0  0  0
    9.0124    0.5225   -3.6951 H   0  0  0  0  0  0  0  0  0  0  0  0
  1  2  2  0
  2  3  1  0
  2 16  1  0
  3  4  1  0
  3 27  1  0
  4  5  1  0
  4 15  1  0
  4 28  1  6
  5  6  1  0
  5 29  1  0
  5 30  1  0
  6  7  1  0
  6 31  1  0
  6 32  1  0
  7  8  1  0
  7 33  1  0
  7 34  1  0
  8  9  1  0
  8 15  1  0
  9 10  2  0
  9 14  1  0
 10 11  1  0
 10 35  1  0
 11 12  2  0
 11 36  1  0
 12 13  1  0
 12 37  1  0
 13 14  2  0
 15 38  1  0
 15 39  1  0
 16 17  1  0
 16 18  1  0
 16 40  1  1
 17 18  1  0
 17 41  1  0
 17 42  1  0
 18 19  1  0
 18 43  1  6
 19 20  2  0
 19 25  1  0
 20 21  1  0
 20 44  1  0
 21 22  2  0
 21 45  1  0
 22 23  1  0
 22 46  1  0
 23 24  1  0
 23 25  2  0
 25 26  1  0
M  END

