
     RDKit          3D

 52 52  0  0  0  0  0  0  0  0999 V2000
    1.3966    0.6632   -0.1926 C   0  0  0  0  0  0  0  0  0  0  0  0
    2.8969    0.3995   -0.3179 C   0  0  0  0  0  0  0  0  0  0  0  0
    3.2261   -0.9239   -1.0081 C   0  0  0  0  0  0  0  0  0  0  0  0
    4.6584   -1.1159   -1.1485 N   0  0  0  0  0  0  0  0  0  0  0  0
    5.0423   -2.3461   -1.8232 C   0  0  0  0  0  0  0  0  0  0  0  0
    6.5682   -2.5340   -1.8660 C   0  0  1  0  0  0  0  0  0  0  0  0
    7.1246   -2.9274   -0.4832 C   0  0  0  0  0  0  0  0  0  0  0  0
    8.6327   -2.7831   -0.3230 C   0  0  0  0  0  0  0  0  0  0  0  0
    8.9971   -1.4365   -0.5255 O   0  0  0  0  0  0  0  0  0  0  0  0
   10.3725   -1.1803   -0.4035 C   0  0  0  0  0  0  0  0  0  0  0  0
   10.6044    0.3005   -0.6518 C   0  0  0  0  0  0  0  0  0  0  0  0
   11.9787    0.5551   -0.5182 O   0  0  0  0  0  0  0  0  0  0  0  0
   12.3315    1.8951   -0.7267 C   0  0  0  0  0  0  0  0  0  0  0  0
    7.0075   -3.4978   -3.0030 C   0  0  0  0  0  0  0  0  0  0  0  0
    6.5203   -4.9311   -2.9094 C   0  0  0  0  0  0  0  0  0  0  0  0
    7.2902   -5.9204   -2.2725 C   0  0  0  0  0  0  0  0  0  0  0  0
    6.8287   -7.2348   -2.1827 C   0  0  0  0  0  0  0  0  0  0  0  0
    5.5922   -7.5876   -2.7302 C   0  0  0  0  0  0  0  0  0  0  0  0
    4.8040   -6.6283   -3.3817 C   0  0  0  0  0  0  0  0  0  0  0  0
    3.4669   -6.9879   -3.9852 C   0  0  0  0  0  0  0  0  0  0  0  0
    5.2879   -5.3125   -3.4614 C   0  0  0  0  0  0  0  0  0  0  0  0
    1.1973    1.6211    0.3133 H   0  0  0  0  0  0  0  0  0  0  0  0
    0.8934   -0.1290    0.3870 H   0  0  0  0  0  0  0  0  0  0  0  0
    0.9124    0.7046   -1.1828 H   0  0  0  0  0  0  0  0  0  0  0  0
    3.3568    0.4035    0.6883 H   0  0  0  0  0  0  0  0  0  0  0  0
    3.3868    1.2135   -0.8787 H   0  0  0  0  0  0  0  0  0  0  0  0
    2.7781   -0.9269   -2.0197 H   0  0  0  0  0  0  0  0  0  0  0  0
    2.7265   -1.7592   -0.4601 H   0  0  0  0  0  0  0  0  0  0  0  0
    5.1010   -1.0613   -0.2319 H   0  0  0  0  0  0  0  0  0  0  0  0
    4.6583   -2.2875   -2.8578 H   0  0  0  0  0  0  0  0  0  0  0  0
    4.5670   -3.2504   -1.3766 H   0  0  0  0  0  0  0  0  0  0  0  0
    6.9903   -1.5471   -2.1168 H   0  0  0  0  0  0  0  0  0  0  0  0
    6.8451   -3.9678   -0.2441 H   0  0  0  0  0  0  0  0  0  0  0  0
    6.6581   -2.2978    0.2936 H   0  0  0  0  0  0  0  0  0  0  0  0
    9.1771   -3.4353   -1.0374 H   0  0  0  0  0  0  0  0  0  0  0  0
    8.9334   -3.1136    0.6934 H   0  0  0  0  0  0  0  0  0  0  0  0
   10.9625   -1.7733   -1.1325 H   0  0  0  0  0  0  0  0  0  0  0  0
   10.7461   -1.4460    0.6071 H   0  0  0  0  0  0  0  0  0  0  0  0
   10.0083    0.8929    0.0734 H   0  0  0  0  0  0  0  0  0  0  0  0
   10.2383    0.5673   -1.6652 H   0  0  0  0  0  0  0  0  0  0  0  0
   13.4206    1.9818   -0.5986 H   0  0  0  0  0  0  0  0  0  0  0  0
   11.8364    2.5738   -0.0020 H   0  0  0  0  0  0  0  0  0  0  0  0
   12.0681    2.2413   -1.7474 H   0  0  0  0  0  0  0  0  0  0  0  0
    8.1081   -3.4976   -3.0544 H   0  0  0  0  0  0  0  0  0  0  0  0
    6.6625   -3.0642   -3.9563 H   0  0  0  0  0  0  0  0  0  0  0  0
    8.2677   -5.6611   -1.8566 H   0  0  0  0  0  0  0  0  0  0  0  0
    7.4412   -7.9940   -1.6888 H   0  0  0  0  0  0  0  0  0  0  0  0
    5.2395   -8.6205   -2.6596 H   0  0  0  0  0  0  0  0  0  0  0  0
    3.2758   -8.0699   -3.9312 H   0  0  0  0  0  0  0  0  0  0  0  0
    3.4096   -6.6869   -5.0443 H   0  0  0  0  0  0  0  0  0  0  0  0
    2.6411   -6.4763   -3.4618 H   0  0  0  0  0  0  0  0  0  0  0  0
    4.6860   -4.5613   -3.9825 H   0  0  0  0  0  0  0  0  0  0  0  0
  1  2  1  0
  1 22  1  0
  1 23  1  0
  1 24  1  0
  2  3  1  0
  2 25  1  0
  2 26  1  0
  3  4  1  0
  3 27  1  0
  3 28  1  0
  4  5  1  0
  4 29  1  0
  5  6  1  0
  5 30  1  0
  5 31  1  0
  6  7  1  0
  6 14  1  0
  6 32  1  6
  7  8  1  0
  7 33  1  0
  7 34  1  0
  8  9  1  0
  8 35  1  0
  8 36  1  0
  9 10  1  0
 10 11  1  0
 10 37  1  0
 10 38  1  0
 11 12  1  0
 11 39  1  0
 11 40  1  0
 12 13  1  0
 13 41  1  0
 13 42  1  0
 13 43  1  0
 14 15  1  0
 14 44  1  0
 14 45  1  0
 15 16  2  0
 15 21  1  0
 16 17  1  0
 16 46  1  0
 17 18  2  0
 17 47  1  0
 18 19  1  0
 18 48  1  0
 19 20  1  0
 19 21  2  0
 20 49  1  0
 20 50  1  0
 20 51  1  0
 21 52  1  0
M  END

