
     RDKit          3D

 46 50  0  0  0  0  0  0  0  0999 V2000
    5.4704    0.8865    1.2134 C   0  0  0  0  0  0  0  0  0  0  0  0
    4.3025    0.6235    0.2500 C   0  0  0  0  0  0  0  0  0  0  0  0
    3.8167    1.8588   -0.4559 C   0  0  0  0  0  0  0  0  0  0  0  0
    4.5380    2.3288   -1.4800 N   0  0  0  0  0  0  0  0  0  0  0  0
    3.8701    3.4032   -1.9211 N   0  0  0  0  0  0  0  0  0  0  0  0
    2.6924    3.6431   -1.1916 C   0  0  0  0  0  0  0  0  0  0  0  0
    1.8749    4.6784   -1.4898 N   0  0  0  0  0  0  0  0  0  0  0  0
    2.2116    5.4595   -2.4840 C   0  0  0  0  0  0  0  0  0  0  0  0
    3.3969    5.2710   -3.2686 C   0  0  0  0  0  0  0  0  0  0  0  0
    3.7077    6.1791   -4.3633 C   0  0  0  0  0  0  0  0  0  0  0  0
    3.0143    7.1347   -4.6905 O   0  0  0  0  0  0  0  0  0  0  0  0
    4.9141    5.8818   -5.0639 N   0  0  0  0  0  0  0  0  0  0  0  0
    5.3208    6.6907   -6.1455 C   0  0  0  0  0  0  0  0  0  0  0  0
    6.4192    6.4904   -6.8513 N   0  0  0  0  0  0  0  0  0  0  0  0
    6.3755    7.5077   -7.7595 C   0  0  0  0  0  0  0  0  0  0  0  0
    7.5904    7.7854   -9.0038 S   0  0  0  0  0  0  0  0  0  0  0  0
    8.7317    6.4130   -8.6474 C   0  0  0  0  0  0  0  0  0  0  0  0
    5.3219    8.3062   -7.6461 N   0  0  0  0  0  0  0  0  0  0  0  0
    4.6551    7.7663   -6.6040 N   0  0  0  0  0  0  0  0  0  0  0  0
    3.7803    8.1246   -6.2261 H   0  0  0  0  0  0  0  0  0  0  0  0
    5.7275    4.8125   -4.7319 C   0  0  0  0  0  0  0  0  0  0  0  0
    5.4382    3.9634   -3.7108 C   0  0  0  0  0  0  0  0  0  0  0  0
    4.2473    4.1997   -2.9647 C   0  0  0  0  0  0  0  0  0  0  0  0
    2.6426    2.6408   -0.2130 C   0  0  0  0  0  0  0  0  0  0  0  0
    1.5866    2.4602    0.8001 C   0  0  0  0  0  0  0  0  0  0  0  0
    0.2431    2.7587    0.4935 C   0  0  0  0  0  0  0  0  0  0  0  0
   -0.7633    2.5900    1.4451 C   0  0  0  0  0  0  0  0  0  0  0  0
   -0.4565    2.1188    2.7256 C   0  0  0  0  0  0  0  0  0  0  0  0
    0.8715    1.8280    3.0483 C   0  0  0  0  0  0  0  0  0  0  0  0
    1.8815    2.0005    2.0990 C   0  0  0  0  0  0  0  0  0  0  0  0
    5.8111   -0.0514    1.6796 H   0  0  0  0  0  0  0  0  0  0  0  0
    5.1863    1.5817    2.0198 H   0  0  0  0  0  0  0  0  0  0  0  0
    6.3216    1.3321    0.6764 H   0  0  0  0  0  0  0  0  0  0  0  0
    3.4634    0.1541    0.7842 H   0  0  0  0  0  0  0  0  0  0  0  0
    4.6316   -0.0912   -0.5218 H   0  0  0  0  0  0  0  0  0  0  0  0
    1.5556    6.3003   -2.7306 H   0  0  0  0  0  0  0  0  0  0  0  0
    9.5399    6.5027   -9.3866 H   0  0  0  0  0  0  0  0  0  0  0  0
    8.2313    5.4422   -8.7624 H   0  0  0  0  0  0  0  0  0  0  0  0
    9.1467    6.4962   -7.6339 H   0  0  0  0  0  0  0  0  0  0  0  0
    6.6121    4.7193   -5.3615 H   0  0  0  0  0  0  0  0  0  0  0  0
    6.0868    3.1269   -3.4602 H   0  0  0  0  0  0  0  0  0  0  0  0
   -0.0065    3.1328   -0.5000 H   0  0  0  0  0  0  0  0  0  0  0  0
   -1.7977    2.8267    1.1824 H   0  0  0  0  0  0  0  0  0  0  0  0
   -1.2467    1.9850    3.4687 H   0  0  0  0  0  0  0  0  0  0  0  0
    1.1278    1.4732    4.0501 H   0  0  0  0  0  0  0  0  0  0  0  0
    2.9161    1.8012    2.3820 H   0  0  0  0  0  0  0  0  0  0  0  0
  1  2  1  0
  1 31  1  0
  1 32  1  0
  1 33  1  0
  2  3  1  0
  2 34  1  0
  2 35  1  0
  3  4  2  0
  3 24  1  0
  4  5  1  0
  5  6  1  0
  5 23  1  0
  6  7  1  0
  6 24  2  0
  7  8  2  0
  8  9  1  0
  8 36  1  0
  9 10  1  0
  9 23  2  0
 10 11  2  0
 10 12  1  0
 12 13  1  0
 12 21  1  0
 13 14  2  0
 13 19  1  0
 14 15  1  0
 15 16  1  0
 15 18  2  0
 16 17  1  0
 17 37  1  0
 17 38  1  0
 17 39  1  0
 18 19  1  0
 19 20  1  0
 21 22  2  0
 21 40  1  0
 22 23  1  0
 22 41  1  0
 24 25  1  0
 25 26  2  0
 25 30  1  0
 26 27  1  0
 26 42  1  0
 27 28  2  0
 27 43  1  0
 28 29  1  0
 28 44  1  0
 29 30  2  0
 29 45  1  0
 30 46  1  0
M  END

