
     RDKit          3D

 36 39  0  0  0  0  0  0  0  0999 V2000
    1.0991   -0.4302    0.7823 O   0  0  0  0  0  0  0  0  0  0  0  0
    2.4107   -0.2304    0.4895 C   0  0  0  0  0  0  0  0  0  0  0  0
    3.1155    0.9085    0.9035 C   0  0  0  0  0  0  0  0  0  0  0  0
    4.4625    1.0616    0.5719 C   0  0  0  0  0  0  0  0  0  0  0  0
    5.1403    0.0932   -0.1888 C   0  0  0  0  0  0  0  0  0  0  0  0
    6.5682    0.2028   -0.5423 C   0  0  0  0  0  0  0  0  0  0  0  0
    7.3213   -0.9438   -0.6958 N   0  0  0  0  0  0  0  0  0  0  0  0
    8.5371   -0.5315   -0.9577 C   0  0  0  0  0  0  0  0  0  0  0  0
    8.6342    0.8245   -0.9821 N   0  0  0  0  0  0  0  0  0  0  0  0
    7.3706    1.3432   -0.7342 C   0  0  0  0  0  0  0  0  0  0  0  0
    7.0842    2.7813   -0.7946 C   0  0  0  0  0  0  0  0  0  0  0  0
    5.9245    3.2788   -1.4213 C   0  0  0  0  0  0  0  0  0  0  0  0
    5.7125    4.6563   -1.4757 C   0  0  0  0  0  0  0  0  0  0  0  0
    6.5566    5.5635   -0.9713 N   0  0  0  0  0  0  0  0  0  0  0  0
    7.6596    5.0994   -0.3807 C   0  0  0  0  0  0  0  0  0  0  0  0
    7.9674    3.7415   -0.2635 C   0  0  0  0  0  0  0  0  0  0  0  0
    9.9708    1.3123   -1.2957 C   0  0  0  0  0  0  0  0  0  0  0  0
   10.6606    0.0308   -1.8363 C   0  0  0  0  0  0  0  0  0  0  0  0
    9.8702   -1.1608   -1.2319 C   0  0  0  0  0  0  0  0  0  0  0  0
    4.4206   -1.0552   -0.5780 C   0  0  0  0  0  0  0  0  0  0  0  0
    3.0782   -1.2174   -0.2513 C   0  0  0  0  0  0  0  0  0  0  0  0
    0.7675    0.3172    1.2970 H   0  0  0  0  0  0  0  0  0  0  0  0
    2.6104    1.6744    1.5013 H   0  0  0  0  0  0  0  0  0  0  0  0
    4.9945    1.9442    0.9310 H   0  0  0  0  0  0  0  0  0  0  0  0
    5.2025    2.5949   -1.8699 H   0  0  0  0  0  0  0  0  0  0  0  0
    4.8120    5.0469   -1.9648 H   0  0  0  0  0  0  0  0  0  0  0  0
    8.3449    5.8486    0.0347 H   0  0  0  0  0  0  0  0  0  0  0  0
    8.8763    3.4390    0.2601 H   0  0  0  0  0  0  0  0  0  0  0  0
   10.4676    1.6966   -0.3874 H   0  0  0  0  0  0  0  0  0  0  0  0
    9.9402    2.1292   -2.0320 H   0  0  0  0  0  0  0  0  0  0  0  0
   11.7317    0.0089   -1.5904 H   0  0  0  0  0  0  0  0  0  0  0  0
   10.5732    0.0107   -2.9337 H   0  0  0  0  0  0  0  0  0  0  0  0
   10.3283   -1.5255   -0.2950 H   0  0  0  0  0  0  0  0  0  0  0  0
    9.7996   -2.0213   -1.9126 H   0  0  0  0  0  0  0  0  0  0  0  0
    4.9436   -1.8289   -1.1426 H   0  0  0  0  0  0  0  0  0  0  0  0
    2.5238   -2.1063   -0.5597 H   0  0  0  0  0  0  0  0  0  0  0  0
  1  2  1  0
  1 22  1  0
  2  3  2  0
  2 21  1  0
  3  4  1  0
  3 23  1  0
  4  5  2  0
  4 24  1  0
  5  6  1  0
  5 20  1  0
  6  7  1  0
  6 10  2  0
  7  8  2  0
  8  9  1  0
  8 19  1  0
  9 10  1  0
  9 17  1  0
 10 11  1  0
 11 12  2  0
 11 16  1  0
 12 13  1  0
 12 25  1  0
 13 14  2  0
 13 26  1  0
 14 15  1  0
 15 16  2  0
 15 27  1  0
 16 28  1  0
 17 18  1  0
 17 29  1  0
 17 30  1  0
 18 19  1  0
 18 31  1  0
 18 32  1  0
 19 33  1  0
 19 34  1  0
 20 21  2  0
 20 35  1  0
 21 36  1  0
M  END

