
     RDKit          3D

 67 70  0  0  0  0  0  0  0  0999 V2000
    5.7138    0.2248   -9.8323 C   0  0  0  0  0  0  0  0  0  0  0  0
    4.6278   -0.7055   -9.2695 C   0  0  0  0  0  0  0  0  0  0  0  0
    5.0872   -1.5488   -8.1111 C   0  0  0  0  0  0  0  0  0  0  0  0
    5.7504   -2.8036   -8.1459 C   0  0  0  0  0  0  0  0  0  0  0  0
    6.0931   -3.6192   -9.3561 C   0  0  1  0  0  0  0  0  0  0  0  0
    6.8749   -2.9255  -10.2152 F   0  0  0  0  0  0  0  0  0  0  0  0
    6.7352   -4.7468   -9.0495 F   0  0  0  0  0  0  0  0  0  0  0  0
    4.9811   -3.9552  -10.0488 F   0  0  0  0  0  0  0  0  0  0  0  0
    6.0370   -3.2559   -6.9305 N   0  0  0  0  0  0  0  0  0  0  0  0
    5.5790   -2.3179   -6.0938 N   0  0  0  0  0  0  0  0  0  0  0  0
    5.6558   -2.5686   -4.6662 C   0  0  0  0  0  0  0  0  0  0  0  0
    4.5907   -3.5539   -4.1415 C   0  0  0  0  0  0  0  0  0  0  0  0
    3.9038   -3.2667   -3.1691 O   0  0  0  0  0  0  0  0  0  0  0  0
    4.5100   -4.7240   -4.8113 N   0  0  0  0  0  0  0  0  0  0  0  0
    3.5880   -5.7780   -4.4192 C   0  0  1  0  0  0  0  0  0  0  0  0
    2.1300   -5.5129   -4.9153 C   0  0  0  0  0  0  0  0  0  0  0  0
    1.9776   -5.3605   -6.4091 C   0  0  0  0  0  0  0  0  0  0  0  0
    1.7701   -6.4766   -7.2346 C   0  0  0  0  0  0  0  0  0  0  0  0
    1.6743   -6.3035   -8.6126 C   0  0  0  0  0  0  0  0  0  0  0  0
    1.4759   -7.3796   -9.3890 F   0  0  0  0  0  0  0  0  0  0  0  0
    1.7725   -5.0532   -9.2187 C   0  0  0  0  0  0  0  0  0  0  0  0
    1.9691   -3.9610   -8.3791 C   0  0  0  0  0  0  0  0  0  0  0  0
    2.0548   -2.7352   -8.9236 F   0  0  0  0  0  0  0  0  0  0  0  0
    2.0704   -4.0894   -6.9970 C   0  0  0  0  0  0  0  0  0  0  0  0
    4.1521   -7.0988   -4.8878 C   0  0  0  0  0  0  0  0  0  0  0  0
    5.0207   -7.1414   -5.9438 N   0  0  0  0  0  0  0  0  0  0  0  0
    5.2800   -8.4114   -6.1496 C   0  0  0  0  0  0  0  0  0  0  0  0
    4.6102   -9.2206   -5.2789 N   0  0  0  0  0  0  0  0  0  0  0  0
    4.7226  -10.6670   -5.2165 C   0  0  0  0  0  0  0  0  0  0  0  0
    3.8719   -8.3864   -4.4427 C   0  0  0  0  0  0  0  0  0  0  0  0
    3.0120   -8.8739   -3.3476 C   0  0  0  0  0  0  0  0  0  0  0  0
    3.1606   -8.3628   -2.0435 C   0  0  0  0  0  0  0  0  0  0  0  0
    2.3420   -8.7915   -0.9984 C   0  0  0  0  0  0  0  0  0  0  0  0
    1.3612   -9.7569   -1.2443 C   0  0  0  0  0  0  0  0  0  0  0  0
    0.3378  -10.3061    0.0601 Cl  0  0  0  0  0  0  0  0  0  0  0  0
    1.1930  -10.2865   -2.5271 C   0  0  0  0  0  0  0  0  0  0  0  0
    2.0107   -9.8406   -3.5660 C   0  0  0  0  0  0  0  0  0  0  0  0
    4.9939   -1.2624   -6.7500 C   0  0  0  0  0  0  0  0  0  0  0  0
    4.3715   -0.0877   -6.0526 C   0  0  0  0  0  0  0  0  0  0  0  0
    2.9596   -0.3461   -5.4986 C   0  0  0  0  0  0  0  0  0  0  0  0
    5.3263    0.8124  -10.6802 H   0  0  0  0  0  0  0  0  0  0  0  0
    6.5794   -0.3546  -10.1863 H   0  0  0  0  0  0  0  0  0  0  0  0
    6.0732    0.9315   -9.0667 H   0  0  0  0  0  0  0  0  0  0  0  0
    4.2602   -1.3707  -10.0658 H   0  0  0  0  0  0  0  0  0  0  0  0
    3.7542   -0.1102   -8.9578 H   0  0  0  0  0  0  0  0  0  0  0  0
    5.5223   -1.6306   -4.1169 H   0  0  0  0  0  0  0  0  0  0  0  0
    6.6589   -2.9666   -4.4476 H   0  0  0  0  0  0  0  0  0  0  0  0
    5.1055   -4.9005   -5.6239 H   0  0  0  0  0  0  0  0  0  0  0  0
    3.5252   -5.7617   -3.3208 H   0  0  0  0  0  0  0  0  0  0  0  0
    1.7885   -4.5978   -4.4086 H   0  0  0  0  0  0  0  0  0  0  0  0
    1.5014   -6.3407   -4.5509 H   0  0  0  0  0  0  0  0  0  0  0  0
    1.6853   -7.4822   -6.8200 H   0  0  0  0  0  0  0  0  0  0  0  0
    1.7008   -4.9366  -10.2999 H   0  0  0  0  0  0  0  0  0  0  0  0
    2.2158   -3.1961   -6.3895 H   0  0  0  0  0  0  0  0  0  0  0  0
    5.9527   -8.8121   -6.9088 H   0  0  0  0  0  0  0  0  0  0  0  0
    5.6342  -10.9756   -5.7461 H   0  0  0  0  0  0  0  0  0  0  0  0
    3.8607  -11.1668   -5.6860 H   0  0  0  0  0  0  0  0  0  0  0  0
    4.7930  -11.0004   -4.1717 H   0  0  0  0  0  0  0  0  0  0  0  0
    3.9415   -7.6268   -1.8408 H   0  0  0  0  0  0  0  0  0  0  0  0
    2.4674   -8.3886    0.0079 H   0  0  0  0  0  0  0  0  0  0  0  0
    0.4179  -11.0329   -2.7088 H   0  0  0  0  0  0  0  0  0  0  0  0
    1.8501  -10.2386   -4.5705 H   0  0  0  0  0  0  0  0  0  0  0  0
    4.3347    0.7446   -6.7719 H   0  0  0  0  0  0  0  0  0  0  0  0
    5.0330    0.2547   -5.2379 H   0  0  0  0  0  0  0  0  0  0  0  0
    2.2771   -0.6602   -6.3038 H   0  0  0  0  0  0  0  0  0  0  0  0
    2.5497    0.5701   -5.0449 H   0  0  0  0  0  0  0  0  0  0  0  0
    2.9611   -1.1286   -4.7237 H   0  0  0  0  0  0  0  0  0  0  0  0
  1  2  1  0
  1 41  1  0
  1 42  1  0
  1 43  1  0
  2  3  1  0
  2 44  1  0
  2 45  1  0
  3  4  1  0
  3 38  2  0
  4  5  1  0
  4  9  2  0
  5  6  1  6
  5  7  1  0
  5  8  1  0
  9 10  1  0
 10 11  1  0
 10 38  1  0
 11 12  1  0
 11 46  1  0
 11 47  1  0
 12 13  2  0
 12 14  1  0
 14 15  1  0
 14 48  1  0
 15 16  1  0
 15 25  1  0
 15 49  1  1
 16 17  1  0
 16 50  1  0
 16 51  1  0
 17 18  2  0
 17 24  1  0
 18 19  1  0
 18 52  1  0
 19 20  1  0
 19 21  2  0
 21 22  1  0
 21 53  1  0
 22 23  1  0
 22 24  2  0
 24 54  1  0
 25 26  1  0
 25 30  2  0
 26 27  2  0
 27 28  1  0
 27 55  1  0
 28 29  1  0
 28 30  1  0
 29 56  1  0
 29 57  1  0
 29 58  1  0
 30 31  1  0
 31 32  2  0
 31 37  1  0
 32 33  1  0
 32 59  1  0
 33 34  2  0
 33 60  1  0
 34 35  1  0
 34 36  1  0
 36 37  2  0
 36 61  1  0
 37 62  1  0
 38 39  1  0
 39 40  1  0
 39 63  1  0
 39 64  1  0
 40 65  1  0
 40 66  1  0
 40 67  1  0
M  END

