
     RDKit          3D

 40 41  0  0  0  0  0  0  0  0999 V2000
    1.2502   -0.6298    0.4584 N   0  0  0  0  0  0  0  0  0  0  0  0
    2.6152   -0.2988    0.3033 N   0  0  0  0  0  0  0  0  0  0  0  0
    2.8010    0.8518   -0.5647 C   0  0  0  0  0  0  0  0  0  0  0  0
    4.2863    1.2332   -0.6425 C   0  0  0  0  0  0  0  0  0  0  0  0
    4.5455    2.4511   -1.4992 C   0  0  0  0  0  0  0  0  0  0  0  0
    4.4567    3.7462   -0.9662 C   0  0  0  0  0  0  0  0  0  0  0  0
    4.6558    4.8886   -1.7427 C   0  0  0  0  0  0  0  0  0  0  0  0
    4.9552    4.7551   -3.1110 C   0  0  0  0  0  0  0  0  0  0  0  0
    5.1729    5.8478   -3.9686 N   0  0  0  0  0  0  0  0  0  0  0  0
    5.1467    7.1998   -3.6868 C   0  0  0  0  0  0  0  0  0  0  0  0
    4.9143    7.6587   -2.5784 O   0  0  0  0  0  0  0  0  0  0  0  0
    5.4313    8.0550   -4.8745 C   0  0  0  0  0  0  0  0  0  0  0  0
    5.4379    9.3966   -4.7517 C   0  0  0  0  0  0  0  0  0  0  0  0
    5.6925   10.4018   -5.7867 C   0  0  0  0  0  0  0  0  0  0  0  0
    5.6457   11.7647   -5.4304 C   0  0  0  0  0  0  0  0  0  0  0  0
    5.8796   12.7664   -6.3740 C   0  0  0  0  0  0  0  0  0  0  0  0
    6.1665   12.4257   -7.6984 C   0  0  0  0  0  0  0  0  0  0  0  0
    6.2173   11.0761   -8.0709 C   0  0  0  0  0  0  0  0  0  0  0  0
    5.9837   10.0771   -7.1286 C   0  0  0  0  0  0  0  0  0  0  0  0
    5.0481    3.4628   -3.6593 C   0  0  0  0  0  0  0  0  0  0  0  0
    4.8459    2.3359   -2.8652 C   0  0  0  0  0  0  0  0  0  0  0  0
    1.1270   -1.1254    1.3400 H   0  0  0  0  0  0  0  0  0  0  0  0
    0.9021   -1.2364   -0.2925 H   0  0  0  0  0  0  0  0  0  0  0  0
    3.1684   -1.0863   -0.0480 H   0  0  0  0  0  0  0  0  0  0  0  0
    2.2171    1.6851   -0.1425 H   0  0  0  0  0  0  0  0  0  0  0  0
    2.4099    0.6917   -1.5958 H   0  0  0  0  0  0  0  0  0  0  0  0
    4.8583    0.3758   -1.0412 H   0  0  0  0  0  0  0  0  0  0  0  0
    4.6490    1.4007    0.3846 H   0  0  0  0  0  0  0  0  0  0  0  0
    4.2286    3.8714    0.0966 H   0  0  0  0  0  0  0  0  0  0  0  0
    4.5871    5.8833   -1.3090 H   0  0  0  0  0  0  0  0  0  0  0  0
    5.3780    5.5993   -4.9289 H   0  0  0  0  0  0  0  0  0  0  0  0
    5.6313    7.5671   -5.8339 H   0  0  0  0  0  0  0  0  0  0  0  0
    5.2248    9.7783   -3.7467 H   0  0  0  0  0  0  0  0  0  0  0  0
    5.4214   12.0338   -4.3948 H   0  0  0  0  0  0  0  0  0  0  0  0
    5.8378   13.8165   -6.0740 H   0  0  0  0  0  0  0  0  0  0  0  0
    6.3503   13.2068   -8.4404 H   0  0  0  0  0  0  0  0  0  0  0  0
    6.4413   10.8035   -9.1055 H   0  0  0  0  0  0  0  0  0  0  0  0
    6.0279    9.0307   -7.4387 H   0  0  0  0  0  0  0  0  0  0  0  0
    5.2856    3.3406   -4.7210 H   0  0  0  0  0  0  0  0  0  0  0  0
    4.9297    1.3440   -3.3193 H   0  0  0  0  0  0  0  0  0  0  0  0
  1  2  1  0
  1 22  1  0
  1 23  1  0
  2  3  1  0
  2 24  1  0
  3  4  1  0
  3 25  1  0
  3 26  1  0
  4  5  1  0
  4 27  1  0
  4 28  1  0
  5  6  2  0
  5 21  1  0
  6  7  1  0
  6 29  1  0
  7  8  2  0
  7 30  1  0
  8  9  1  0
  8 20  1  0
  9 10  1  0
  9 31  1  0
 10 11  2  0
 10 12  1  0
 12 13  2  0
 12 32  1  0
 13 14  1  0
 13 33  1  0
 14 15  2  0
 14 19  1  0
 15 16  1  0
 15 34  1  0
 16 17  2  0
 16 35  1  0
 17 18  1  0
 17 36  1  0
 18 19  2  0
 18 37  1  0
 19 38  1  0
 20 21  2  0
 20 39  1  0
 21 40  1  0
M  END

