
     RDKit          3D

 58 60  0  0  0  0  0  0  0  0999 V2000
    3.1659    0.0922   -2.8313 C   0  0  0  0  0  0  0  0  0  0  0  0
    2.5142   -0.1936   -1.4803 C   0  0  0  0  0  0  0  0  0  0  0  0
    2.7180    0.8766   -0.5005 N   0  0  0  0  0  0  0  0  0  0  0  0
    1.9066    1.9612   -0.2406 C   0  0  0  0  0  0  0  0  0  0  0  0
    0.5560    2.1883   -0.8322 C   0  0  0  0  0  0  0  0  0  0  0  0
   -0.5707    1.4421   -0.0834 C   0  0  0  0  0  0  0  0  0  0  0  0
   -1.4002    0.7879   -0.6881 O   0  0  0  0  0  0  0  0  0  0  0  0
   -0.5229    1.6110    1.2738 N   0  0  0  0  0  0  0  0  0  0  0  0
   -1.3687    1.0687    2.2632 C   0  0  0  0  0  0  0  0  0  0  0  0
   -2.5490    0.3652    1.9664 C   0  0  0  0  0  0  0  0  0  0  0  0
   -3.3381   -0.1375    3.0026 C   0  0  0  0  0  0  0  0  0  0  0  0
   -2.9608    0.0538    4.3337 C   0  0  0  0  0  0  0  0  0  0  0  0
   -3.9580   -0.5803    5.6238 Cl  0  0  0  0  0  0  0  0  0  0  0  0
   -1.7868    0.7481    4.6402 C   0  0  0  0  0  0  0  0  0  0  0  0
   -0.9979    1.2501    3.6076 C   0  0  0  0  0  0  0  0  0  0  0  0
    2.4309    2.6998    0.7083 N   0  0  0  0  0  0  0  0  0  0  0  0
    3.6147    2.1214    1.0828 N   0  0  0  0  0  0  0  0  0  0  0  0
    3.7794    1.0378    0.3549 C   0  0  0  0  0  0  0  0  0  0  0  0
    5.1205   -0.0980    0.4235 S   0  0  0  0  0  0  0  0  0  0  0  0
    6.2094    0.7508    1.6408 C   0  0  0  0  0  0  0  0  0  0  0  0
    5.8465    0.5054    3.1149 C   0  0  0  0  0  0  0  0  0  0  0  0
    6.4464   -0.3321    3.7661 O   0  0  0  0  0  0  0  0  0  0  0  0
    4.8456    1.3146    3.5694 N   0  0  0  0  0  0  0  0  0  0  0  0
    4.2441    1.3391    4.8406 C   0  0  0  0  0  0  0  0  0  0  0  0
    4.6213    0.5020    5.9036 C   0  0  0  0  0  0  0  0  0  0  0  0
    3.9561    0.6007    7.1288 C   0  0  0  0  0  0  0  0  0  0  0  0
    2.9151    1.5134    7.3491 C   0  0  0  0  0  0  0  0  0  0  0  0
    2.2142    1.5983    8.6988 C   0  0  1  0  0  0  0  0  0  0  0  0
    2.4480    2.9557    9.3852 C   0  0  0  0  0  0  0  0  0  0  0  0
    0.7126    1.2787    8.5952 C   0  0  0  0  0  0  0  0  0  0  0  0
    2.5552    2.3470    6.2757 C   0  0  0  0  0  0  0  0  0  0  0  0
    3.2027    2.2653    5.0452 C   0  0  0  0  0  0  0  0  0  0  0  0
    2.9860   -0.7497   -3.5172 H   0  0  0  0  0  0  0  0  0  0  0  0
    4.2537    0.2221   -2.7259 H   0  0  0  0  0  0  0  0  0  0  0  0
    2.7508    1.0024   -3.2914 H   0  0  0  0  0  0  0  0  0  0  0  0
    2.9156   -1.1194   -1.0396 H   0  0  0  0  0  0  0  0  0  0  0  0
    1.4294   -0.3420   -1.5847 H   0  0  0  0  0  0  0  0  0  0  0  0
    0.4921    1.8780   -1.8824 H   0  0  0  0  0  0  0  0  0  0  0  0
    0.3533    3.2696   -0.7846 H   0  0  0  0  0  0  0  0  0  0  0  0
    0.2595    2.1634    1.6200 H   0  0  0  0  0  0  0  0  0  0  0  0
   -2.8358    0.2125    0.9284 H   0  0  0  0  0  0  0  0  0  0  0  0
   -4.2552   -0.6831    2.7737 H   0  0  0  0  0  0  0  0  0  0  0  0
   -1.4890    0.8886    5.6804 H   0  0  0  0  0  0  0  0  0  0  0  0
   -0.0730    1.7804    3.8519 H   0  0  0  0  0  0  0  0  0  0  0  0
    6.2359    1.8186    1.3805 H   0  0  0  0  0  0  0  0  0  0  0  0
    7.1946    0.2989    1.4715 H   0  0  0  0  0  0  0  0  0  0  0  0
    4.4084    1.9089    2.8541 H   0  0  0  0  0  0  0  0  0  0  0  0
    5.4265   -0.2147    5.7583 H   0  0  0  0  0  0  0  0  0  0  0  0
    4.2639   -0.0621    7.9434 H   0  0  0  0  0  0  0  0  0  0  0  0
    2.6698    0.8238    9.3402 H   0  0  0  0  0  0  0  0  0  0  0  0
    2.0073    3.7816    8.8023 H   0  0  0  0  0  0  0  0  0  0  0  0
    3.5228    3.1656    9.4998 H   0  0  0  0  0  0  0  0  0  0  0  0
    1.9873    2.9739   10.3867 H   0  0  0  0  0  0  0  0  0  0  0  0
    0.1833    2.0284    7.9833 H   0  0  0  0  0  0  0  0  0  0  0  0
    0.2419    1.2769    9.5921 H   0  0  0  0  0  0  0  0  0  0  0  0
    0.5442    0.2912    8.1375 H   0  0  0  0  0  0  0  0  0  0  0  0
    1.7556    3.0831    6.3986 H   0  0  0  0  0  0  0  0  0  0  0  0
    2.9075    2.9288    4.2269 H   0  0  0  0  0  0  0  0  0  0  0  0
  1  2  1  0
  1 33  1  0
  1 34  1  0
  1 35  1  0
  2  3  1  0
  2 36  1  0
  2 37  1  0
  3  4  1  0
  3 18  1  0
  4  5  1  0
  4 16  2  0
  5  6  1  0
  5 38  1  0
  5 39  1  0
  6  7  2  0
  6  8  1  0
  8  9  1  0
  8 40  1  0
  9 10  2  0
  9 15  1  0
 10 11  1  0
 10 41  1  0
 11 12  2  0
 11 42  1  0
 12 13  1  0
 12 14  1  0
 14 15  2  0
 14 43  1  0
 15 44  1  0
 16 17  1  0
 17 18  2  0
 18 19  1  0
 19 20  1  0
 20 21  1  0
 20 45  1  0
 20 46  1  0
 21 22  2  0
 21 23  1  0
 23 24  1  0
 23 47  1  0
 24 25  2  0
 24 32  1  0
 25 26  1  0
 25 48  1  0
 26 27  2  0
 26 49  1  0
 27 28  1  0
 27 31  1  0
 28 29  1  0
 28 30  1  0
 28 50  1  1
 29 51  1  0
 29 52  1  0
 29 53  1  0
 30 54  1  0
 30 55  1  0
 30 56  1  0
 31 32  2  0
 31 57  1  0
 32 58  1  0
M  END

