
     RDKit          3D

 42 42  0  0  0  0  0  0  0  0999 V2000
    1.6964   -2.0511    2.5394 C   0  0  0  0  0  0  0  0  0  0  0  0
    3.0592   -1.3835    2.3349 C   0  0  0  0  0  0  0  0  0  0  0  0
    3.0520    0.1119    1.9245 C   0  0  1  0  0  0  0  0  0  0  0  0
    2.3103    0.3143    0.5906 C   0  0  0  0  0  0  0  0  0  0  0  0
    2.4001    0.9833    3.0144 C   0  0  0  0  0  0  0  0  0  0  0  0
    4.5170    0.5772    1.6964 C   0  0  0  0  0  0  0  0  0  0  0  0
    5.3954    0.4667    2.8450 N   0  0  0  0  0  0  0  0  0  0  0  0
    6.4115   -0.4307    2.9141 C   0  0  0  0  0  0  0  0  0  0  0  0
    6.6980   -1.2360    2.0426 O   0  0  0  0  0  0  0  0  0  0  0  0
    7.2694   -0.3365    4.1926 C   0  0  0  0  0  0  0  0  0  0  0  0
    6.5431   -0.0585    5.4143 N   0  0  0  0  0  0  0  0  0  0  0  0
    6.0316    1.1678    5.6165 N   0  0  0  0  0  0  0  0  0  0  0  0
    5.3952    1.1162    6.7879 C   0  0  0  0  0  0  0  0  0  0  0  0
    4.7101    2.3091    7.3752 C   0  0  0  0  0  0  0  0  0  0  0  0
    5.4902   -0.1882    7.3493 C   0  0  0  0  0  0  0  0  0  0  0  0
    5.0062   -0.5735    8.6086 N   0  0  0  0  0  0  0  0  0  0  0  0
    6.2284   -0.9306    6.4302 C   0  0  0  0  0  0  0  0  0  0  0  0
    6.6621   -2.3603    6.4630 C   0  0  0  0  0  0  0  0  0  0  0  0
    1.8277   -3.1039    2.8369 H   0  0  0  0  0  0  0  0  0  0  0  0
    1.0876   -2.0490    1.6213 H   0  0  0  0  0  0  0  0  0  0  0  0
    1.1058   -1.5625    3.3311 H   0  0  0  0  0  0  0  0  0  0  0  0
    3.6265   -1.9459    1.5731 H   0  0  0  0  0  0  0  0  0  0  0  0
    3.6431   -1.4768    3.2663 H   0  0  0  0  0  0  0  0  0  0  0  0
    1.2412    0.0675    0.6779 H   0  0  0  0  0  0  0  0  0  0  0  0
    2.7389   -0.3178   -0.2047 H   0  0  0  0  0  0  0  0  0  0  0  0
    2.3771    1.3632    0.2566 H   0  0  0  0  0  0  0  0  0  0  0  0
    1.3395    0.7261    3.1597 H   0  0  0  0  0  0  0  0  0  0  0  0
    2.4421    2.0515    2.7420 H   0  0  0  0  0  0  0  0  0  0  0  0
    2.9072    0.8618    3.9856 H   0  0  0  0  0  0  0  0  0  0  0  0
    4.5023    1.6293    1.3594 H   0  0  0  0  0  0  0  0  0  0  0  0
    4.9725   -0.0223    0.8946 H   0  0  0  0  0  0  0  0  0  0  0  0
    5.2971    1.1085    3.6323 H   0  0  0  0  0  0  0  0  0  0  0  0
    8.0228    0.4549    4.0438 H   0  0  0  0  0  0  0  0  0  0  0  0
    7.7985   -1.2912    4.2875 H   0  0  0  0  0  0  0  0  0  0  0  0
    4.9267    3.2034    6.7744 H   0  0  0  0  0  0  0  0  0  0  0  0
    5.0489    2.4897    8.4092 H   0  0  0  0  0  0  0  0  0  0  0  0
    3.6131    2.1825    7.4110 H   0  0  0  0  0  0  0  0  0  0  0  0
    4.0533   -0.2626    8.7842 H   0  0  0  0  0  0  0  0  0  0  0  0
    5.0683   -1.5728    8.7815 H   0  0  0  0  0  0  0  0  0  0  0  0
    6.1636   -2.8875    7.2904 H   0  0  0  0  0  0  0  0  0  0  0  0
    7.7497   -2.4714    6.6179 H   0  0  0  0  0  0  0  0  0  0  0  0
    6.4030   -2.8962    5.5352 H   0  0  0  0  0  0  0  0  0  0  0  0
  1  2  1  0
  1 19  1  0
  1 20  1  0
  1 21  1  0
  3  2  1  1
  2 22  1  0
  2 23  1  0
  3  4  1  0
  3  5  1  0
  3  6  1  0
  4 24  1  0
  4 25  1  0
  4 26  1  0
  5 27  1  0
  5 28  1  0
  5 29  1  0
  6  7  1  0
  6 30  1  0
  6 31  1  0
  7  8  1  0
  7 32  1  0
  8  9  2  0
  8 10  1  0
 10 11  1  0
 10 33  1  0
 10 34  1  0
 11 12  1  0
 11 17  1  0
 12 13  2  0
 13 14  1  0
 13 15  1  0
 14 35  1  0
 14 36  1  0
 14 37  1  0
 15 16  1  0
 15 17  2  0
 16 38  1  0
 16 39  1  0
 17 18  1  0
 18 40  1  0
 18 41  1  0
 18 42  1  0
M  END

