
     RDKit          3D

 40 40  0  0  0  0  0  0  0  0999 V2000
    0.8357   -0.0029   -0.9638 C   0  0  0  0  0  0  0  0  0  0  0  0
    2.3317    0.1300   -0.6719 C   0  0  1  0  0  0  0  0  0  0  0  0
    2.6357    0.8632    0.6312 C   0  0  0  0  0  0  0  0  0  0  0  0
    3.0176   -1.5819   -0.6421 S   0  0  1  0  0  0  0  0  0  0  0  0
    2.6449   -2.2012    0.6434 O   0  0  0  0  0  0  0  0  0  0  0  0
    2.6477   -2.2352   -1.9115 O   0  0  0  0  0  0  0  0  0  0  0  0
    4.8328   -1.3921   -0.6651 C   0  0  0  0  0  0  0  0  0  0  0  0
    5.4609   -2.7814   -0.5613 C   0  0  0  0  0  0  0  0  0  0  0  0
    7.0186   -2.8279   -0.6046 C   0  0  1  0  0  0  0  0  0  0  0  0
    7.5419   -1.8727    0.3950 C   0  0  0  0  0  0  0  0  0  0  0  0
    7.9354   -1.1166    1.1812 N   0  0  0  0  0  0  0  0  0  0  0  0
    7.4447   -4.2647   -0.1870 C   0  0  0  0  0  0  0  0  0  0  0  0
    8.9318   -4.6329   -0.2816 C   0  0  0  0  0  0  0  0  0  0  0  0
    9.4519   -4.8100   -1.7172 C   0  0  0  0  0  0  0  0  0  0  0  0
    9.8746   -3.5254   -2.4554 C   0  0  0  0  0  0  0  0  0  0  0  0
    9.0572   -2.2549   -2.1588 C   0  0  0  0  0  0  0  0  0  0  0  0
    7.5352   -2.4238   -2.0183 C   0  0  0  0  0  0  0  0  0  0  0  0
    0.3881    0.9995   -1.0490 H   0  0  0  0  0  0  0  0  0  0  0  0
    0.3297   -0.5401   -0.1468 H   0  0  0  0  0  0  0  0  0  0  0  0
    0.6622   -0.5499   -1.9005 H   0  0  0  0  0  0  0  0  0  0  0  0
    2.8412    0.6020   -1.5289 H   0  0  0  0  0  0  0  0  0  0  0  0
    2.2247    0.3075    1.4870 H   0  0  0  0  0  0  0  0  0  0  0  0
    2.1724    1.8623    0.6077 H   0  0  0  0  0  0  0  0  0  0  0  0
    3.7146    1.0044    0.7962 H   0  0  0  0  0  0  0  0  0  0  0  0
    5.1154   -0.7508    0.1820 H   0  0  0  0  0  0  0  0  0  0  0  0
    5.0655   -0.8827   -1.6112 H   0  0  0  0  0  0  0  0  0  0  0  0
    5.0826   -3.4079   -1.3845 H   0  0  0  0  0  0  0  0  0  0  0  0
    5.1137   -3.2416    0.3763 H   0  0  0  0  0  0  0  0  0  0  0  0
    6.8663   -4.9645   -0.8155 H   0  0  0  0  0  0  0  0  0  0  0  0
    7.0961   -4.4228    0.8466 H   0  0  0  0  0  0  0  0  0  0  0  0
    9.0545   -5.5890    0.2538 H   0  0  0  0  0  0  0  0  0  0  0  0
    9.5467   -3.9032    0.2744 H   0  0  0  0  0  0  0  0  0  0  0  0
    8.6717   -5.3329   -2.2986 H   0  0  0  0  0  0  0  0  0  0  0  0
   10.3137   -5.4977   -1.7089 H   0  0  0  0  0  0  0  0  0  0  0  0
    9.8511   -3.7305   -3.5398 H   0  0  0  0  0  0  0  0  0  0  0  0
   10.9298   -3.3016   -2.2223 H   0  0  0  0  0  0  0  0  0  0  0  0
    9.2522   -1.5309   -2.9669 H   0  0  0  0  0  0  0  0  0  0  0  0
    9.4390   -1.7691   -1.2455 H   0  0  0  0  0  0  0  0  0  0  0  0
    7.1525   -3.1696   -2.7362 H   0  0  0  0  0  0  0  0  0  0  0  0
    7.0565   -1.4697   -2.2883 H   0  0  0  0  0  0  0  0  0  0  0  0
  1  2  1  0
  1 18  1  0
  1 19  1  0
  1 20  1  0
  2  3  1  0
  2  4  1  0
  2 21  1  6
  3 22  1  0
  3 23  1  0
  3 24  1  0
  4  5  2  0
  4  6  2  0
  4  7  1  1
  7  8  1  0
  7 25  1  0
  7 26  1  0
  8  9  1  0
  8 27  1  0
  8 28  1  0
  9 10  1  1
  9 12  1  0
  9 17  1  0
 10 11  3  0
 12 13  1  0
 12 29  1  0
 12 30  1  0
 13 14  1  0
 13 31  1  0
 13 32  1  0
 14 15  1  0
 14 33  1  0
 14 34  1  0
 15 16  1  0
 15 35  1  0
 15 36  1  0
 16 17  1  0
 16 37  1  0
 16 38  1  0
 17 39  1  0
 17 40  1  0
M  END

