
     RDKit          3D

 36 37  0  0  0  0  0  0  0  0999 V2000
    2.9030    0.9325    3.7137 C   0  0  0  0  0  0  0  0  0  0  0  0
    2.2711    0.6592    2.3454 C   0  0  0  0  0  0  0  0  0  0  0  0
    2.9288    1.3845    1.1608 C   0  0  0  0  0  0  0  0  0  0  0  0
    4.4245    1.0913    0.9385 C   0  0  1  0  0  0  0  0  0  0  0  0
    4.7954   -0.3825    0.6760 C   0  0  0  0  0  0  0  0  0  0  0  0
    4.4732   -0.8514   -0.7691 C   0  0  2  0  0  0  0  0  0  0  0  0
    3.0826   -0.8703   -1.0275 O   0  0  0  0  0  0  0  0  0  0  0  0
    5.0403   -2.2488   -0.9785 C   0  0  0  0  0  0  0  0  0  0  0  0
    6.1547   -2.3801   -1.7252 O   0  0  0  0  0  0  0  0  0  0  0  0
    6.5041   -3.6946   -1.7752 C   0  0  0  0  0  0  0  0  0  0  0  0
    5.6226   -4.4351   -1.0532 C   0  0  0  0  0  0  0  0  0  0  0  0
    4.6593   -3.5014   -0.5181 C   0  0  0  0  0  0  0  0  0  0  0  0
    3.4974   -3.7950    0.3437 C   0  0  0  0  0  0  0  0  0  0  0  0
    2.6213   -2.9975    0.6145 O   0  0  0  0  0  0  0  0  0  0  0  0
    3.4278   -5.0359    0.8587 O   0  0  0  0  0  0  0  0  0  0  0  0
    5.0906    0.1595   -1.7506 C   0  0  0  0  0  0  0  0  0  0  0  0
    4.6297    1.5742   -1.4034 C   0  0  0  0  0  0  0  0  0  0  0  0
    4.9750    1.9294   -0.0770 O   0  0  0  0  0  0  0  0  0  0  0  0
    2.3162    0.4654    4.5210 H   0  0  0  0  0  0  0  0  0  0  0  0
    2.9534    2.0147    3.9234 H   0  0  0  0  0  0  0  0  0  0  0  0
    3.9285    0.5352    3.7896 H   0  0  0  0  0  0  0  0  0  0  0  0
    1.2110    0.9654    2.3768 H   0  0  0  0  0  0  0  0  0  0  0  0
    2.2509   -0.4281    2.1554 H   0  0  0  0  0  0  0  0  0  0  0  0
    2.8474    2.4763    1.3076 H   0  0  0  0  0  0  0  0  0  0  0  0
    2.3668    1.1379    0.2487 H   0  0  0  0  0  0  0  0  0  0  0  0
    4.9645    1.3986    1.8487 H   0  0  0  0  0  0  0  0  0  0  0  0
    4.2918   -1.0424    1.3981 H   0  0  0  0  0  0  0  0  0  0  0  0
    5.8809   -0.4951    0.8353 H   0  0  0  0  0  0  0  0  0  0  0  0
    2.6795   -1.5220   -0.4182 H   0  0  0  0  0  0  0  0  0  0  0  0
    7.3836   -3.9370   -2.3650 H   0  0  0  0  0  0  0  0  0  0  0  0
    5.6480   -5.5189   -0.9455 H   0  0  0  0  0  0  0  0  0  0  0  0
    4.2200   -5.5457    0.6405 H   0  0  0  0  0  0  0  0  0  0  0  0
    4.7873   -0.1003   -2.7770 H   0  0  0  0  0  0  0  0  0  0  0  0
    6.1880    0.1087   -1.6942 H   0  0  0  0  0  0  0  0  0  0  0  0
    3.5421    1.6620   -1.5760 H   0  0  0  0  0  0  0  0  0  0  0  0
    5.1313    2.3068   -2.0543 H   0  0  0  0  0  0  0  0  0  0  0  0
  1  2  1  0
  1 19  1  0
  1 20  1  0
  1 21  1  0
  2  3  1  0
  2 22  1  0
  2 23  1  0
  3  4  1  0
  3 24  1  0
  3 25  1  0
  4  5  1  0
  4 18  1  0
  4 26  1  1
  5  6  1  0
  5 27  1  0
  5 28  1  0
  6  7  1  1
  6  8  1  0
  6 16  1  0
  7 29  1  0
  8  9  1  0
  8 12  2  0
  9 10  1  0
 10 11  2  0
 10 30  1  0
 11 12  1  0
 11 31  1  0
 12 13  1  0
 13 14  2  0
 13 15  1  0
 15 32  1  0
 16 17  1  0
 16 33  1  0
 16 34  1  0
 17 18  1  0
 17 35  1  0
 17 36  1  0
M  END

