
     RDKit          3D

 28 27  0  0  0  0  0  0  0  0999 V2000
    2.9526    1.4830   -0.1893 C   0  0  0  0  0  0  0  0  0  0  0  0
    2.5573    0.0577    0.2193 C   0  0  1  0  0  0  0  0  0  0  0  0
    1.0310   -0.1050    0.2140 C   0  0  0  0  0  0  0  0  0  0  0  0
    3.2065   -1.0185   -0.6734 C   0  0  0  0  0  0  0  0  0  0  0  0
    4.7519   -1.0624   -0.7219 C   0  0  1  0  0  0  0  0  0  0  0  0
    5.3795   -1.3049    0.6625 C   0  0  0  0  0  0  0  0  0  0  0  0
    5.2020   -2.1262   -1.6927 C   0  0  0  0  0  0  0  0  0  0  0  0
    5.9207   -1.9243   -2.8043 C   0  0  0  0  0  0  0  0  0  0  0  0
    6.3515   -3.0046   -3.7556 C   0  0  0  0  0  0  0  0  0  0  0  0
    5.9135   -2.7661   -5.0825 O   0  0  0  0  0  0  0  0  0  0  0  0
    2.4495    2.2298    0.4461 H   0  0  0  0  0  0  0  0  0  0  0  0
    2.6630    1.6880   -1.2348 H   0  0  0  0  0  0  0  0  0  0  0  0
    4.0366    1.6577   -0.1040 H   0  0  0  0  0  0  0  0  0  0  0  0
    2.8995   -0.1033    1.2579 H   0  0  0  0  0  0  0  0  0  0  0  0
    0.6202    0.0497   -0.7988 H   0  0  0  0  0  0  0  0  0  0  0  0
    0.5473    0.6247    0.8834 H   0  0  0  0  0  0  0  0  0  0  0  0
    0.7306   -1.1132    0.5433 H   0  0  0  0  0  0  0  0  0  0  0  0
    2.8329   -0.8869   -1.7054 H   0  0  0  0  0  0  0  0  0  0  0  0
    2.8424   -2.0105   -0.3465 H   0  0  0  0  0  0  0  0  0  0  0  0
    5.1189   -0.0930   -1.1013 H   0  0  0  0  0  0  0  0  0  0  0  0
    5.0287   -2.2582    1.0941 H   0  0  0  0  0  0  0  0  0  0  0  0
    5.1251   -0.5037    1.3735 H   0  0  0  0  0  0  0  0  0  0  0  0
    6.4773   -1.3539    0.5923 H   0  0  0  0  0  0  0  0  0  0  0  0
    4.9066   -3.1555   -1.4382 H   0  0  0  0  0  0  0  0  0  0  0  0
    6.2201   -0.9052   -3.0838 H   0  0  0  0  0  0  0  0  0  0  0  0
    6.0180   -3.9932   -3.3777 H   0  0  0  0  0  0  0  0  0  0  0  0
    7.4534   -3.0407   -3.8132 H   0  0  0  0  0  0  0  0  0  0  0  0
    4.9526   -2.6633   -5.0545 H   0  0  0  0  0  0  0  0  0  0  0  0
  1  2  1  0
  1 11  1  0
  1 12  1  0
  1 13  1  0
  2  3  1  0
  2  4  1  0
  2 14  1  1
  3 15  1  0
  3 16  1  0
  3 17  1  0
  4  5  1  0
  4 18  1  0
  4 19  1  0
  5  6  1  0
  5  7  1  0
  5 20  1  6
  6 21  1  0
  6 22  1  0
  6 23  1  0
  7  8  2  0
  7 24  1  0
  8  9  1  0
  8 25  1  0
  9 10  1  0
  9 26  1  0
  9 27  1  0
 10 28  1  0
M  END

