
     RDKit          3D

 31 32  0  0  0  0  0  0  0  0999 V2000
    1.7720    0.5906    1.3119 C   0  0  0  0  0  0  0  0  0  0  0  0
    2.9580    0.3616    0.4431 C   0  0  0  0  0  0  0  0  0  0  0  0
    3.3792    0.8991   -0.7416 C   0  0  0  0  0  0  0  0  0  0  0  0
    4.6160    0.2473   -1.0732 C   0  0  0  0  0  0  0  0  0  0  0  0
    4.8672   -0.6401   -0.0663 C   0  0  0  0  0  0  0  0  0  0  0  0
    5.9665   -1.6209    0.2076 C   0  0  1  0  0  0  0  0  0  0  0  0
    6.7392   -1.2952    1.4973 C   0  0  0  0  0  0  0  0  0  0  0  0
    5.4406   -2.9844    0.2281 N   0  0  0  0  0  0  0  0  0  0  0  0
    6.0089   -4.0039   -0.4877 C   0  0  0  0  0  0  0  0  0  0  0  0
    7.0195   -3.8174   -1.1787 O   0  0  0  0  0  0  0  0  0  0  0  0
    5.3877   -5.3281   -0.4003 C   0  0  0  0  0  0  0  0  0  0  0  0
    3.9782   -5.7227    0.5756 S   0  0  0  0  0  0  0  0  0  0  0  0
    4.0684   -7.3817    0.1166 C   0  0  0  0  0  0  0  0  0  0  0  0
    5.1037   -7.6377   -0.7404 C   0  0  0  0  0  0  0  0  0  0  0  0
    5.8768   -6.4655   -1.0557 C   0  0  0  0  0  0  0  0  0  0  0  0
    6.9337   -6.4569   -1.9149 N   0  0  0  0  0  0  0  0  0  0  0  0
    3.8622   -0.5740    0.8603 O   0  0  0  0  0  0  0  0  0  0  0  0
    1.1247    1.3602    0.8692 H   0  0  0  0  0  0  0  0  0  0  0  0
    2.0682    0.9269    2.3202 H   0  0  0  0  0  0  0  0  0  0  0  0
    1.1774   -0.3305    1.4354 H   0  0  0  0  0  0  0  0  0  0  0  0
    2.8654    1.6692   -1.3137 H   0  0  0  0  0  0  0  0  0  0  0  0
    5.2377    0.4132   -1.9506 H   0  0  0  0  0  0  0  0  0  0  0  0
    6.6617   -1.5879   -0.6425 H   0  0  0  0  0  0  0  0  0  0  0  0
    6.0738   -1.3366    2.3741 H   0  0  0  0  0  0  0  0  0  0  0  0
    7.1717   -0.2837    1.4450 H   0  0  0  0  0  0  0  0  0  0  0  0
    7.5549   -2.0197    1.6404 H   0  0  0  0  0  0  0  0  0  0  0  0
    4.6074   -3.1529    0.7798 H   0  0  0  0  0  0  0  0  0  0  0  0
    3.3367   -8.0916    0.5006 H   0  0  0  0  0  0  0  0  0  0  0  0
    5.3175   -8.6260   -1.1513 H   0  0  0  0  0  0  0  0  0  0  0  0
    7.3967   -7.3277   -2.1345 H   0  0  0  0  0  0  0  0  0  0  0  0
    7.4567   -5.5824   -1.9488 H   0  0  0  0  0  0  0  0  0  0  0  0
  1  2  1  0
  1 18  1  0
  1 19  1  0
  1 20  1  0
  2  3  2  0
  2 17  1  0
  3  4  1  0
  3 21  1  0
  4  5  2  0
  4 22  1  0
  5  6  1  0
  5 17  1  0
  6  7  1  0
  6  8  1  0
  6 23  1  6
  7 24  1  0
  7 25  1  0
  7 26  1  0
  8  9  1  0
  8 27  1  0
  9 10  2  0
  9 11  1  0
 11 12  1  0
 11 15  2  0
 12 13  1  0
 13 14  2  0
 13 28  1  0
 14 15  1  0
 14 29  1  0
 15 16  1  0
 16 30  1  0
 16 31  1  0
M  END

