
     RDKit          3D

 35 36  0  0  0  0  0  0  0  0999 V2000
    8.4456   -1.1912   -3.7322 C   0  0  0  0  0  0  0  0  0  0  0  0
    7.2888   -1.0132   -2.8067 C   0  0  0  0  0  0  0  0  0  0  0  0
    7.0244   -1.7883   -1.7985 N   0  0  0  0  0  0  0  0  0  0  0  0
    5.8615   -1.2833   -1.2067 C   0  0  0  0  0  0  0  0  0  0  0  0
    5.1039   -1.7861   -0.1914 C   0  0  0  0  0  0  0  0  0  0  0  0
    5.1953   -3.0140    0.5887 C   0  0  0  0  0  0  0  0  0  0  0  0
    3.9521   -3.5959    0.9371 C   0  0  0  0  0  0  0  0  0  0  0  0
    3.8477   -4.8852    1.4427 C   0  0  0  0  0  0  0  0  0  0  0  0
    5.0213   -5.6270    1.6330 C   0  0  0  0  0  0  0  0  0  0  0  0
    6.2660   -5.0572    1.3875 C   0  0  0  0  0  0  0  0  0  0  0  0
    6.3965   -3.7261    0.9192 C   0  0  0  0  0  0  0  0  0  0  0  0
    7.6465   -3.1434    0.8282 N   0  0  0  0  0  0  0  0  0  0  0  0
    8.8330   -3.9508    0.6644 C   0  0  0  0  0  0  0  0  0  0  0  0
    7.8915   -1.7681    1.2127 C   0  0  0  0  0  0  0  0  0  0  0  0
    5.4244   -0.0639   -1.9529 C   0  0  0  0  0  0  0  0  0  0  0  0
    4.4838    0.6893   -1.7911 O   0  0  0  0  0  0  0  0  0  0  0  0
    6.3873    0.0361   -2.9708 N   0  0  0  0  0  0  0  0  0  0  0  0
    6.3814    1.0719   -3.9775 C   0  0  0  0  0  0  0  0  0  0  0  0
    9.0164   -2.0749   -3.4215 H   0  0  0  0  0  0  0  0  0  0  0  0
    9.1092   -0.3099   -3.7201 H   0  0  0  0  0  0  0  0  0  0  0  0
    8.1085   -1.3303   -4.7732 H   0  0  0  0  0  0  0  0  0  0  0  0
    4.1857   -1.2072   -0.0331 H   0  0  0  0  0  0  0  0  0  0  0  0
    3.0442   -3.0210    0.7334 H   0  0  0  0  0  0  0  0  0  0  0  0
    2.8701   -5.3154    1.6698 H   0  0  0  0  0  0  0  0  0  0  0  0
    4.9687   -6.6498    2.0163 H   0  0  0  0  0  0  0  0  0  0  0  0
    7.1634   -5.6324    1.6175 H   0  0  0  0  0  0  0  0  0  0  0  0
    8.6193   -4.8343    0.0467 H   0  0  0  0  0  0  0  0  0  0  0  0
    9.2725   -4.2917    1.6256 H   0  0  0  0  0  0  0  0  0  0  0  0
    9.5999   -3.3599    0.1382 H   0  0  0  0  0  0  0  0  0  0  0  0
    6.9794   -1.3088    1.6119 H   0  0  0  0  0  0  0  0  0  0  0  0
    8.2417   -1.1582    0.3624 H   0  0  0  0  0  0  0  0  0  0  0  0
    8.6611   -1.7333    2.0076 H   0  0  0  0  0  0  0  0  0  0  0  0
    5.5095    1.7102   -3.7745 H   0  0  0  0  0  0  0  0  0  0  0  0
    6.2863    0.6545   -4.9933 H   0  0  0  0  0  0  0  0  0  0  0  0
    7.2922    1.6918   -3.9340 H   0  0  0  0  0  0  0  0  0  0  0  0
  1  2  1  0
  1 19  1  0
  1 20  1  0
  1 21  1  0
  2  3  2  0
  2 17  1  0
  3  4  1  0
  4  5  2  0
  4 15  1  0
  5  6  1  0
  5 22  1  0
  6  7  2  0
  6 11  1  0
  7  8  1  0
  7 23  1  0
  8  9  2  0
  8 24  1  0
  9 10  1  0
  9 25  1  0
 10 11  2  0
 10 26  1  0
 11 12  1  0
 12 13  1  0
 12 14  1  0
 13 27  1  0
 13 28  1  0
 13 29  1  0
 14 30  1  0
 14 31  1  0
 14 32  1  0
 15 16  2  0
 15 17  1  0
 17 18  1  0
 18 33  1  0
 18 34  1  0
 18 35  1  0
M  END

