
     RDKit          3D

 94103  0  0  0  0  0  0  0  0999 V2000
    1.3834   -0.1243   -0.3417 N   0  0  0  0  0  0  0  0  0  0  0  0
    2.5434   -0.1161   -0.3416 C   0  0  0  0  0  0  0  0  0  0  0  0
    3.9857   -0.1037   -0.3420 C   0  0  0  0  0  0  0  0  0  0  0  0
    4.6150   -1.2713   -0.3043 N   0  0  0  0  0  0  0  0  0  0  0  0
    5.9550   -1.2848   -0.3036 C   0  0  0  0  0  0  0  0  0  0  0  0
    6.6582   -2.5565   -0.2631 C   0  0  0  0  0  0  0  0  0  0  0  0
    5.9374   -3.7693   -0.2286 C   0  0  0  0  0  0  0  0  0  0  0  0
    6.5931   -4.9853   -0.1894 C   0  0  0  0  0  0  0  0  0  0  0  0
    8.0085   -5.0455   -0.1822 C   0  0  0  0  0  0  0  0  0  0  0  0
    8.7159   -6.3479   -0.1381 C   0  0  0  0  0  0  0  0  0  0  0  0
    9.9451   -6.4989    0.5333 C   0  0  0  0  0  0  0  0  0  0  0  0
   10.6145   -7.7184    0.5703 C   0  0  0  0  0  0  0  0  0  0  0  0
   10.0752   -8.8566   -0.0615 C   0  0  0  0  0  0  0  0  0  0  0  0
   10.7475  -10.0972   -0.0234 N   0  0  0  0  0  0  0  0  0  0  0  0
   11.4771  -10.4853    1.1354 C   0  0  0  0  0  0  0  0  0  0  0  0
   10.9250  -10.3222    2.4186 C   0  0  0  0  0  0  0  0  0  0  0  0
   11.6473  -10.7034    3.5506 C   0  0  0  0  0  0  0  0  0  0  0  0
   12.9205  -11.2686    3.4241 C   0  0  0  0  0  0  0  0  0  0  0  0
   13.4684  -11.4424    2.1492 C   0  0  0  0  0  0  0  0  0  0  0  0
   12.7598  -11.0484    1.0129 C   0  0  0  0  0  0  0  0  0  0  0  0
   10.7048  -10.9751   -1.1427 C   0  0  0  0  0  0  0  0  0  0  0  0
   10.8972  -10.4849   -2.4469 C   0  0  0  0  0  0  0  0  0  0  0  0
   10.8522  -11.3521   -3.5399 C   0  0  0  0  0  0  0  0  0  0  0  0
   10.6340  -12.7208   -3.3526 C   0  0  0  0  0  0  0  0  0  0  0  0
   10.4532  -13.2137   -2.0563 C   0  0  0  0  0  0  0  0  0  0  0  0
   10.4798  -12.3510   -0.9592 C   0  0  0  0  0  0  0  0  0  0  0  0
    8.8427   -8.7180   -0.7303 C   0  0  0  0  0  0  0  0  0  0  0  0
    8.1858   -7.4916   -0.7669 C   0  0  0  0  0  0  0  0  0  0  0  0
    8.7170   -3.8385   -0.2182 C   0  0  0  0  0  0  0  0  0  0  0  0
    8.0805   -2.5821   -0.2580 C   0  0  0  0  0  0  0  0  0  0  0  0
    8.8376   -1.3182   -0.3000 C   0  0  0  0  0  0  0  0  0  0  0  0
   10.2461   -1.2856   -0.3043 C   0  0  0  0  0  0  0  0  0  0  0  0
   10.9759   -0.0913   -0.3466 C   0  0  0  0  0  0  0  0  0  0  0  0
   12.4577   -0.0988   -0.3452 C   0  0  0  0  0  0  0  0  0  0  0  0
   13.1970    0.8834   -1.0337 C   0  0  0  0  0  0  0  0  0  0  0  0
   14.5883    0.8772   -1.0468 C   0  0  0  0  0  0  0  0  0  0  0  0
   15.3122   -0.1103   -0.3490 C   0  0  0  0  0  0  0  0  0  0  0  0
   16.7227   -0.1153   -0.3496 N   0  0  0  0  0  0  0  0  0  0  0  0
   17.4476    1.1100   -0.3546 C   0  0  0  0  0  0  0  0  0  0  0  0
   17.0832    2.1622    0.5043 C   0  0  0  0  0  0  0  0  0  0  0  0
   17.7978    3.3613    0.4925 C   0  0  0  0  0  0  0  0  0  0  0  0
   18.8950    3.5261   -0.3592 C   0  0  0  0  0  0  0  0  0  0  0  0
   19.2668    2.4781   -1.2072 C   0  0  0  0  0  0  0  0  0  0  0  0
   18.5475    1.2817   -1.2135 C   0  0  0  0  0  0  0  0  0  0  0  0
   17.4397   -1.3446   -0.3453 C   0  0  0  0  0  0  0  0  0  0  0  0
   17.0646   -2.3970   -1.1996 C   0  0  0  0  0  0  0  0  0  0  0  0
   17.7722   -3.6002   -1.1888 C   0  0  0  0  0  0  0  0  0  0  0  0
   18.8731   -3.7696   -0.3429 C   0  0  0  0  0  0  0  0  0  0  0  0
   19.2558   -2.7215    0.5004 C   0  0  0  0  0  0  0  0  0  0  0  0
   18.5435   -1.5209    0.5078 C   0  0  0  0  0  0  0  0  0  0  0  0
   14.5823   -1.0912    0.3524 C   0  0  0  0  0  0  0  0  0  0  0  0
   13.1911   -1.0851    0.3440 C   0  0  0  0  0  0  0  0  0  0  0  0
   10.2538    1.1269   -0.3906 C   0  0  0  0  0  0  0  0  0  0  0  0
    8.8718    1.1301   -0.3900 C   0  0  0  0  0  0  0  0  0  0  0  0
    8.1429   -0.0776   -0.3447 C   0  0  0  0  0  0  0  0  0  0  0  0
    6.6894   -0.0588   -0.3437 C   0  0  0  0  0  0  0  0  0  0  0  0
    6.0444    1.1153   -0.3821 N   0  0  0  0  0  0  0  0  0  0  0  0
    4.7175    1.1180   -0.3818 C   0  0  0  0  0  0  0  0  0  0  0  0
    4.0471    2.3945   -0.4231 C   0  0  0  0  0  0  0  0  0  0  0  0
    3.5068    3.4204   -0.4563 N   0  0  0  0  0  0  0  0  0  0  0  0
    4.8479   -3.7208   -0.2236 H   0  0  0  0  0  0  0  0  0  0  0  0
    6.0113   -5.9074   -0.1365 H   0  0  0  0  0  0  0  0  0  0  0  0
   10.3846   -5.6460    1.0556 H   0  0  0  0  0  0  0  0  0  0  0  0
   11.5652   -7.7961    1.0999 H   0  0  0  0  0  0  0  0  0  0  0  0
    9.9253   -9.8959    2.5230 H   0  0  0  0  0  0  0  0  0  0  0  0
   11.2029  -10.5700    4.5404 H   0  0  0  0  0  0  0  0  0  0  0  0
   13.4801  -11.5726    4.3118 H   0  0  0  0  0  0  0  0  0  0  0  0
   14.4643  -11.8787    2.0359 H   0  0  0  0  0  0  0  0  0  0  0  0
   13.1967  -11.1759    0.0206 H   0  0  0  0  0  0  0  0  0  0  0  0
   11.0829   -9.4198   -2.5986 H   0  0  0  0  0  0  0  0  0  0  0  0
   11.0035  -10.9542   -4.5467 H   0  0  0  0  0  0  0  0  0  0  0  0
   10.6061  -13.3978   -4.2096 H   0  0  0  0  0  0  0  0  0  0  0  0
   10.2766  -14.2804   -1.8956 H   0  0  0  0  0  0  0  0  0  0  0  0
   10.3260  -12.7393    0.0493 H   0  0  0  0  0  0  0  0  0  0  0  0
    8.3999   -9.5818   -1.2284 H   0  0  0  0  0  0  0  0  0  0  0  0
    7.2418   -7.4214   -1.3120 H   0  0  0  0  0  0  0  0  0  0  0  0
    9.8044   -3.8862   -0.2424 H   0  0  0  0  0  0  0  0  0  0  0  0
   10.8011   -2.2222   -0.3022 H   0  0  0  0  0  0  0  0  0  0  0  0
   12.6734    1.6496   -1.6100 H   0  0  0  0  0  0  0  0  0  0  0  0
   15.1260    1.6392   -1.6131 H   0  0  0  0  0  0  0  0  0  0  0  0
   16.2370    2.0338    1.1821 H   0  0  0  0  0  0  0  0  0  0  0  0
   17.5014    4.1691    1.1667 H   0  0  0  0  0  0  0  0  0  0  0  0
   19.4562    4.4634   -0.3610 H   0  0  0  0  0  0  0  0  0  0  0  0
   20.1192    2.5951   -1.8815 H   0  0  0  0  0  0  0  0  0  0  0  0
   18.8346    0.4709   -1.8858 H   0  0  0  0  0  0  0  0  0  0  0  0
   16.2159   -2.2651   -1.8737 H   0  0  0  0  0  0  0  0  0  0  0  0
   17.4678   -4.4075   -1.8600 H   0  0  0  0  0  0  0  0  0  0  0  0
   19.4292   -4.7100   -0.3421 H   0  0  0  0  0  0  0  0  0  0  0  0
   20.1113   -2.8417    1.1701 H   0  0  0  0  0  0  0  0  0  0  0  0
   18.8394   -0.7101    1.1761 H   0  0  0  0  0  0  0  0  0  0  0  0
   15.1157   -1.8552    0.9200 H   0  0  0  0  0  0  0  0  0  0  0  0
   12.6625   -1.8430    0.9268 H   0  0  0  0  0  0  0  0  0  0  0  0
   10.7927    2.0761   -0.3977 H   0  0  0  0  0  0  0  0  0  0  0  0
    8.3144    2.0671   -0.4141 H   0  0  0  0  0  0  0  0  0  0  0  0
  1  2  3  0
  2  3  1  0
  3  4  2  0
  3 58  1  0
  4  5  1  0
  5  6  2  0
  5 56  1  0
  6  7  1  0
  6 30  1  0
  7  8  2  0
  7 61  1  0
  8  9  1  0
  8 62  1  0
  9 10  1  0
  9 29  2  0
 10 11  2  0
 10 28  1  0
 11 12  1  0
 11 63  1  0
 12 13  2  0
 12 64  1  0
 13 14  1  0
 13 27  1  0
 14 15  1  0
 14 21  1  0
 15 16  2  0
 15 20  1  0
 16 17  1  0
 16 65  1  0
 17 18  2  0
 17 66  1  0
 18 19  1  0
 18 67  1  0
 19 20  2  0
 19 68  1  0
 20 69  1  0
 21 22  2  0
 21 26  1  0
 22 23  1  0
 22 70  1  0
 23 24  2  0
 23 71  1  0
 24 25  1  0
 24 72  1  0
 25 26  2  0
 25 73  1  0
 26 74  1  0
 27 28  2  0
 27 75  1  0
 28 76  1  0
 29 30  1  0
 29 77  1  0
 30 31  2  0
 31 32  1  0
 31 55  1  0
 32 33  2  0
 32 78  1  0
 33 34  1  0
 33 53  1  0
 34 35  2  0
 34 52  1  0
 35 36  1  0
 35 79  1  0
 36 37  2  0
 36 80  1  0
 37 38  1  0
 37 51  1  0
 38 39  1  0
 38 45  1  0
 39 40  2  0
 39 44  1  0
 40 41  1  0
 40 81  1  0
 41 42  2  0
 41 82  1  0
 42 43  1  0
 42 83  1  0
 43 44  2  0
 43 84  1  0
 44 85  1  0
 45 46  2  0
 45 50  1  0
 46 47  1  0
 46 86  1  0
 47 48  2  0
 47 87  1  0
 48 49  1  0
 48 88  1  0
 49 50  2  0
 49 89  1  0
 50 90  1  0
 51 52  2  0
 51 91  1  0
 52 92  1  0
 53 54  2  0
 53 93  1  0
 54 55  1  0
 54 94  1  0
 55 56  2  0
 56 57  1  0
 57 58  2  0
 58 59  1  0
 59 60  3  0
M  END

