
     RDKit          3D

 46 48  0  0  0  0  0  0  0  0999 V2000
    1.0146   -0.6200    0.2925 C   0  0  0  0  0  0  0  0  0  0  0  0
    2.2258   -0.4959   -0.6015 C   0  0  0  0  0  0  0  0  0  0  0  0
    2.2570    0.3980   -1.6772 C   0  0  0  0  0  0  0  0  0  0  0  0
    3.3939    0.5111   -2.4832 C   0  0  0  0  0  0  0  0  0  0  0  0
    4.5232   -0.2715   -2.2279 C   0  0  0  0  0  0  0  0  0  0  0  0
    5.6567   -0.1774   -2.9840 O   0  0  0  0  0  0  0  0  0  0  0  0
    4.5205   -1.1938   -1.1594 C   0  0  0  0  0  0  0  0  0  0  0  0
    5.7613   -2.0310   -0.8775 C   0  0  1  0  0  0  0  0  0  0  0  0
    6.7638   -1.2271   -0.0326 C   0  0  0  0  0  0  0  0  0  0  0  0
    5.3831   -3.2952   -0.2377 N   0  0  0  0  0  0  0  0  0  0  0  0
    6.4410   -4.3107   -0.1151 C   0  0  1  0  0  0  0  0  0  0  0  0
    6.9910   -4.3925    1.3278 C   0  0  0  0  0  0  0  0  0  0  0  0
    5.9461   -4.9825    2.2882 C   0  0  0  0  0  0  0  0  0  0  0  0
    5.4419   -6.2948    1.8779 N   0  0  0  0  0  0  0  0  0  0  0  0
    6.3079   -7.4009    2.1679 C   0  0  1  0  0  0  0  0  0  0  0  0
    6.3109   -7.9402    3.5756 C   0  0  0  0  0  0  0  0  0  0  0  0
    5.6705   -8.7348    2.4651 C   0  0  0  0  0  0  0  0  0  0  0  0
    4.9122   -6.2599    0.5166 C   0  0  0  0  0  0  0  0  0  0  0  0
    5.9108   -5.7025   -0.5157 C   0  0  0  0  0  0  0  0  0  0  0  0
    3.3711   -1.2774   -0.3671 C   0  0  0  0  0  0  0  0  0  0  0  0
    0.1708   -0.0233   -0.0854 H   0  0  0  0  0  0  0  0  0  0  0  0
    1.2326   -0.2746    1.3178 H   0  0  0  0  0  0  0  0  0  0  0  0
    0.6764   -1.6664    0.3737 H   0  0  0  0  0  0  0  0  0  0  0  0
    1.3842    1.0199   -1.8954 H   0  0  0  0  0  0  0  0  0  0  0  0
    3.4051    1.2162   -3.3212 H   0  0  0  0  0  0  0  0  0  0  0  0
    5.5208    0.4762   -3.6820 H   0  0  0  0  0  0  0  0  0  0  0  0
    6.2548   -2.2176   -1.8551 H   0  0  0  0  0  0  0  0  0  0  0  0
    6.3410   -1.0023    0.9591 H   0  0  0  0  0  0  0  0  0  0  0  0
    7.0027   -0.2806   -0.5391 H   0  0  0  0  0  0  0  0  0  0  0  0
    7.7077   -1.7770    0.1044 H   0  0  0  0  0  0  0  0  0  0  0  0
    4.6003   -3.6830   -0.7607 H   0  0  0  0  0  0  0  0  0  0  0  0
    7.2771   -4.0588   -0.7994 H   0  0  0  0  0  0  0  0  0  0  0  0
    7.2918   -3.3935    1.6778 H   0  0  0  0  0  0  0  0  0  0  0  0
    7.9021   -5.0174    1.3281 H   0  0  0  0  0  0  0  0  0  0  0  0
    5.0912   -4.2861    2.3364 H   0  0  0  0  0  0  0  0  0  0  0  0
    6.3570   -5.0669    3.3065 H   0  0  0  0  0  0  0  0  0  0  0  0
    7.2796   -7.4516    1.6454 H   0  0  0  0  0  0  0  0  0  0  0  0
    5.6421   -7.4508    4.2886 H   0  0  0  0  0  0  0  0  0  0  0  0
    7.2572   -8.2914    3.9968 H   0  0  0  0  0  0  0  0  0  0  0  0
    4.5780   -8.7704    2.4445 H   0  0  0  0  0  0  0  0  0  0  0  0
    6.1690   -9.6414    2.1106 H   0  0  0  0  0  0  0  0  0  0  0  0
    3.9997   -5.6361    0.5199 H   0  0  0  0  0  0  0  0  0  0  0  0
    4.5972   -7.2766    0.2332 H   0  0  0  0  0  0  0  0  0  0  0  0
    5.4436   -5.6561   -1.5159 H   0  0  0  0  0  0  0  0  0  0  0  0
    6.7667   -6.3928   -0.6048 H   0  0  0  0  0  0  0  0  0  0  0  0
    3.3795   -1.9867    0.4641 H   0  0  0  0  0  0  0  0  0  0  0  0
  1  2  1  0
  1 21  1  0
  1 22  1  0
  1 23  1  0
  2  3  2  0
  2 20  1  0
  3  4  1  0
  3 24  1  0
  4  5  2  0
  4 25  1  0
  5  6  1  0
  5  7  1  0
  6 26  1  0
  7  8  1  0
  7 20  2  0
  8  9  1  0
  8 10  1  0
  8 27  1  6
  9 28  1  0
  9 29  1  0
  9 30  1  0
 10 11  1  0
 10 31  1  0
 11 12  1  0
 11 19  1  0
 11 32  1  6
 12 13  1  0
 12 33  1  0
 12 34  1  0
 13 14  1  0
 13 35  1  0
 13 36  1  0
 14 15  1  0
 14 18  1  0
 15 16  1  0
 15 17  1  0
 15 37  1  6
 16 17  1  0
 16 38  1  0
 16 39  1  0
 17 40  1  0
 17 41  1  0
 18 19  1  0
 18 42  1  0
 18 43  1  0
 19 44  1  0
 19 45  1  0
 20 46  1  0
M  END

