
     RDKit          3D

 35 35  0  0  0  0  0  0  0  0999 V2000
    0.8340   -2.2754    2.0625 C   0  0  0  0  0  0  0  0  0  0  0  0
    1.8709   -1.3531    1.4192 C   0  0  0  0  0  0  0  0  0  0  0  0
    3.1526   -2.0884    1.0164 C   0  0  0  0  0  0  0  0  0  0  0  0
    4.1958   -1.1787    0.3276 C   0  0  1  0  0  0  0  0  0  0  0  0
    4.7688   -0.1634    1.3284 C   0  0  0  0  0  0  0  0  0  0  0  0
    5.0842   -0.5366    2.4598 O   0  0  0  0  0  0  0  0  0  0  0  0
    4.9324    1.1299    0.9280 N   0  0  0  0  0  0  0  0  0  0  0  0
    4.7965    1.6129   -0.4418 C   0  0  0  0  0  0  0  0  0  0  0  0
    5.3823    2.0976    1.9369 C   0  0  0  0  0  0  0  0  0  0  0  0
    6.8787    2.2677    2.0060 C   0  0  0  0  0  0  0  0  0  0  0  0
    7.7872    1.4421    2.6246 C   0  0  0  0  0  0  0  0  0  0  0  0
    9.1306    1.8940    2.4554 C   0  0  0  0  0  0  0  0  0  0  0  0
   10.6199    0.9836    3.1949 Br  0  0  0  0  0  0  0  0  0  0  0  0
    9.2431    3.0461    1.7195 C   0  0  0  0  0  0  0  0  0  0  0  0
    7.6836    3.5996    1.2190 S   0  0  0  0  0  0  0  0  0  0  0  0
    5.3421   -2.0065   -0.2641 C   0  0  0  0  0  0  0  0  0  0  0  0
    6.1586   -2.5530    0.6506 N   0  0  0  0  0  0  0  0  0  0  0  0
    5.5099   -2.2185   -1.9023 S   0  0  0  0  0  0  0  0  0  0  0  0
   -0.0774   -1.7233    2.3418 H   0  0  0  0  0  0  0  0  0  0  0  0
    1.2314   -2.7468    2.9767 H   0  0  0  0  0  0  0  0  0  0  0  0
    0.5361   -3.0850    1.3756 H   0  0  0  0  0  0  0  0  0  0  0  0
    2.1206   -0.5393    2.1226 H   0  0  0  0  0  0  0  0  0  0  0  0
    1.4318   -0.8686    0.5282 H   0  0  0  0  0  0  0  0  0  0  0  0
    2.9070   -2.9027    0.3141 H   0  0  0  0  0  0  0  0  0  0  0  0
    3.6087   -2.5503    1.9060 H   0  0  0  0  0  0  0  0  0  0  0  0
    3.7059   -0.6821   -0.5149 H   0  0  0  0  0  0  0  0  0  0  0  0
    4.9253    0.8013   -1.1682 H   0  0  0  0  0  0  0  0  0  0  0  0
    5.5914    2.3478   -0.6412 H   0  0  0  0  0  0  0  0  0  0  0  0
    3.8215    2.1037   -0.6123 H   0  0  0  0  0  0  0  0  0  0  0  0
    5.0238    1.7447    2.9122 H   0  0  0  0  0  0  0  0  0  0  0  0
    4.8963    3.0620    1.7211 H   0  0  0  0  0  0  0  0  0  0  0  0
    7.4973    0.5462    3.1726 H   0  0  0  0  0  0  0  0  0  0  0  0
   10.1463    3.5936    1.4585 H   0  0  0  0  0  0  0  0  0  0  0  0
    6.0688   -2.2937    1.6324 H   0  0  0  0  0  0  0  0  0  0  0  0
    6.9537   -3.0975    0.3357 H   0  0  0  0  0  0  0  0  0  0  0  0
  1  2  1  0
  1 19  1  0
  1 20  1  0
  1 21  1  0
  2  3  1  0
  2 22  1  0
  2 23  1  0
  3  4  1  0
  3 24  1  0
  3 25  1  0
  4  5  1  0
  4 16  1  0
  4 26  1  6
  5  6  2  0
  5  7  1  0
  7  8  1  0
  7  9  1  0
  8 27  1  0
  8 28  1  0
  8 29  1  0
  9 10  1  0
  9 30  1  0
  9 31  1  0
 10 11  2  0
 10 15  1  0
 11 12  1  0
 11 32  1  0
 12 13  1  0
 12 14  2  0
 14 15  1  0
 14 33  1  0
 16 17  1  0
 16 18  2  0
 17 34  1  0
 17 35  1  0
M  END

