
     RDKit          3D

 37 38  0  0  0  0  0  0  0  0999 V2000
    5.6933    2.2380    0.2696 C   0  0  0  0  0  0  0  0  0  0  0  0
    4.7314    1.0797    0.1476 C   0  0  0  0  0  0  0  0  0  0  0  0
    3.3448    1.2740    0.2260 C   0  0  0  0  0  0  0  0  0  0  0  0
    2.4530    0.1989    0.1126 C   0  0  0  0  0  0  0  0  0  0  0  0
    0.9603    0.4144    0.1980 C   0  0  0  0  0  0  0  0  0  0  0  0
    2.9515   -1.0971   -0.0830 C   0  0  0  0  0  0  0  0  0  0  0  0
    4.3361   -1.3114   -0.1643 C   0  0  0  0  0  0  0  0  0  0  0  0
    4.9200   -2.5797   -0.3598 N   0  0  0  0  0  0  0  0  0  0  0  0
    4.2938   -3.8084   -0.5041 C   0  0  0  0  0  0  0  0  0  0  0  0
    3.0878   -3.9664   -0.4789 O   0  0  0  0  0  0  0  0  0  0  0  0
    5.2119   -4.8404   -0.6816 N   0  0  0  0  0  0  0  0  0  0  0  0
    4.9653   -6.2131   -0.8612 C   0  0  0  0  0  0  0  0  0  0  0  0
    3.6701   -6.7614   -0.8846 C   0  0  0  0  0  0  0  0  0  0  0  0
    3.5036   -8.1348   -1.0676 C   0  0  0  0  0  0  0  0  0  0  0  0
    4.5998   -8.9822   -1.2290 C   0  0  0  0  0  0  0  0  0  0  0  0
    5.8699   -8.4152   -1.2019 C   0  0  0  0  0  0  0  0  0  0  0  0
    6.9341   -9.2281   -1.3570 F   0  0  0  0  0  0  0  0  0  0  0  0
    6.1012   -7.0486   -1.0224 C   0  0  0  0  0  0  0  0  0  0  0  0
    7.5082   -6.5058   -1.0039 C   0  0  0  0  0  0  0  0  0  0  0  0
    5.2133   -0.2184   -0.0478 C   0  0  0  0  0  0  0  0  0  0  0  0
    5.1618    3.1886    0.4221 H   0  0  0  0  0  0  0  0  0  0  0  0
    6.3141    2.3422   -0.6362 H   0  0  0  0  0  0  0  0  0  0  0  0
    6.3838    2.0996    1.1186 H   0  0  0  0  0  0  0  0  0  0  0  0
    2.9534    2.2839    0.3786 H   0  0  0  0  0  0  0  0  0  0  0  0
    0.7106    1.4743    0.3533 H   0  0  0  0  0  0  0  0  0  0  0  0
    0.5217   -0.1627    1.0290 H   0  0  0  0  0  0  0  0  0  0  0  0
    0.4563    0.0788   -0.7236 H   0  0  0  0  0  0  0  0  0  0  0  0
    2.2758   -1.9446   -0.1731 H   0  0  0  0  0  0  0  0  0  0  0  0
    5.9320   -2.5647   -0.3942 H   0  0  0  0  0  0  0  0  0  0  0  0
    6.1906   -4.5865   -0.6879 H   0  0  0  0  0  0  0  0  0  0  0  0
    2.8151   -6.1034   -0.7592 H   0  0  0  0  0  0  0  0  0  0  0  0
    2.4929   -8.5499   -1.0842 H   0  0  0  0  0  0  0  0  0  0  0  0
    4.4947  -10.0584   -1.3736 H   0  0  0  0  0  0  0  0  0  0  0  0
    8.2376   -7.3123   -1.1451 H   0  0  0  0  0  0  0  0  0  0  0  0
    7.7465   -6.0129   -0.0439 H   0  0  0  0  0  0  0  0  0  0  0  0
    7.6755   -5.7684   -1.8098 H   0  0  0  0  0  0  0  0  0  0  0  0
    6.2943   -0.3860   -0.1111 H   0  0  0  0  0  0  0  0  0  0  0  0
  1  2  1  0
  1 21  1  0
  1 22  1  0
  1 23  1  0
  2  3  2  0
  2 20  1  0
  3  4  1  0
  3 24  1  0
  4  5  1  0
  4  6  2  0
  5 25  1  0
  5 26  1  0
  5 27  1  0
  6  7  1  0
  6 28  1  0
  7  8  1  0
  7 20  2  0
  8  9  1  0
  8 29  1  0
  9 10  2  0
  9 11  1  0
 11 12  1  0
 11 30  1  0
 12 13  2  0
 12 18  1  0
 13 14  1  0
 13 31  1  0
 14 15  2  0
 14 32  1  0
 15 16  1  0
 15 33  1  0
 16 17  1  0
 16 18  2  0
 18 19  1  0
 19 34  1  0
 19 35  1  0
 19 36  1  0
 20 37  1  0
M  END

