
     RDKit          3D

 33 33  0  0  0  0  0  0  0  0999 V2000
    0.8744    0.0678   -1.0120 C   0  0  0  0  0  0  0  0  0  0  0  0
    2.1673    0.0356   -0.1860 C   0  0  1  0  0  0  0  0  0  0  0  0
    3.1523   -1.0328   -0.7003 C   0  0  0  0  0  0  0  0  0  0  0  0
    3.4577   -0.8884   -2.1111 N   0  0  0  0  0  0  0  0  0  0  0  0
    4.6539   -1.0266   -2.5002 C   0  0  0  0  0  0  0  0  0  0  0  0
    5.1969    2.4698   -2.5078 C   0  0  0  0  0  0  0  0  0  0  0  0
    6.6338    2.6872   -2.6562 C   0  0  0  0  0  0  0  0  0  0  0  0
    7.1634    3.0222   -3.9191 C   0  0  0  0  0  0  0  0  0  0  0  0
    8.5273    3.2329   -4.0966 C   0  0  0  0  0  0  0  0  0  0  0  0
    9.4079    3.1140   -3.0050 C   0  0  0  0  0  0  0  0  0  0  0  0
   10.8152    3.3286   -3.1795 C   0  0  0  0  0  0  0  0  0  0  0  0
   11.9558    3.5012   -3.3200 N   0  0  0  0  0  0  0  0  0  0  0  0
    8.8874    2.7813   -1.7355 C   0  0  0  0  0  0  0  0  0  0  0  0
    7.5259    2.5730   -1.5668 C   0  0  0  0  0  0  0  0  0  0  0  0
    4.6716    2.1467   -1.3722 N   0  0  0  0  0  0  0  0  0  0  0  0
    3.3661    1.9906   -1.2552 N   0  0  0  0  0  0  0  0  0  0  0  0
    2.8090    1.4319   -0.0399 C   0  0  0  0  0  0  0  0  0  0  0  0
    0.3801   -0.9167   -1.0059 H   0  0  0  0  0  0  0  0  0  0  0  0
    1.0763    0.3129   -2.0657 H   0  0  0  0  0  0  0  0  0  0  0  0
    0.1618    0.8040   -0.6060 H   0  0  0  0  0  0  0  0  0  0  0  0
    1.8995   -0.2645    0.8438 H   0  0  0  0  0  0  0  0  0  0  0  0
    2.6608   -2.0157   -0.5805 H   0  0  0  0  0  0  0  0  0  0  0  0
    4.0653   -1.0493   -0.0681 H   0  0  0  0  0  0  0  0  0  0  0  0
    4.8931   -0.9440   -3.5708 H   0  0  0  0  0  0  0  0  0  0  0  0
    5.5035   -1.2290   -1.8165 H   0  0  0  0  0  0  0  0  0  0  0  0
    4.5693    2.6052   -3.4071 H   0  0  0  0  0  0  0  0  0  0  0  0
    6.4899    3.1184   -4.7752 H   0  0  0  0  0  0  0  0  0  0  0  0
    8.9213    3.4915   -5.0814 H   0  0  0  0  0  0  0  0  0  0  0  0
    9.5666    2.6906   -0.8853 H   0  0  0  0  0  0  0  0  0  0  0  0
    7.1226    2.3188   -0.5853 H   0  0  0  0  0  0  0  0  0  0  0  0
    2.7876    2.0119   -2.0973 H   0  0  0  0  0  0  0  0  0  0  0  0
    2.0494    2.1226    0.3727 H   0  0  0  0  0  0  0  0  0  0  0  0
    3.6403    1.3976    0.6787 H   0  0  0  0  0  0  0  0  0  0  0  0
  1  2  1  0
  1 18  1  0
  1 19  1  0
  1 20  1  0
  2  3  1  0
  2 17  1  0
  2 21  1  1
  3  4  1  0
  3 22  1  0
  3 23  1  0
  4  5  2  0
  5 24  1  0
  5 25  1  0
  6  7  1  0
  6 15  2  0
  6 26  1  0
  7  8  2  0
  7 14  1  0
  8  9  1  0
  8 27  1  0
  9 10  2  0
  9 28  1  0
 10 11  1  0
 10 13  1  0
 11 12  3  0
 13 14  2  0
 13 29  1  0
 14 30  1  0
 15 16  1  0
 16 17  1  0
 16 31  1  0
 17 32  1  0
 17 33  1  0
M  END

