
     RDKit          3D

 37 38  0  0  0  0  0  0  0  0999 V2000
    4.9148   -2.7128   -1.4069 C   0  0  0  0  0  0  0  0  0  0  0  0
    4.5048   -1.3810   -0.8051 C   0  0  0  0  0  0  0  0  0  0  0  0
    4.6364   -1.4625    0.6010 O   0  0  0  0  0  0  0  0  0  0  0  0
    4.4877   -0.2642    1.3507 C   0  0  1  0  0  0  0  0  0  0  0  0
    3.0489    0.2108    1.4155 C   0  0  1  0  0  0  0  0  0  0  0  0
    2.7547    1.6540    1.7404 C   0  0  0  0  0  0  0  0  0  0  0  0
    2.4738    1.1234    0.3597 C   0  0  0  0  0  0  0  0  0  0  0  0
    5.0385   -0.6297    2.7517 C   0  0  1  0  0  0  0  0  0  0  0  0
    4.3781   -1.7912    3.2074 O   0  0  0  0  0  0  0  0  0  0  0  0
    6.5631   -0.7653    2.7660 C   0  0  0  0  0  0  0  0  0  0  0  0
    7.3802    0.3153    2.4082 C   0  0  0  0  0  0  0  0  0  0  0  0
    8.7729    0.1818    2.4430 C   0  0  0  0  0  0  0  0  0  0  0  0
    9.3636   -1.0167    2.8348 C   0  0  0  0  0  0  0  0  0  0  0  0
    8.5504   -2.0994    3.2080 C   0  0  0  0  0  0  0  0  0  0  0  0
    9.1988   -3.2314    3.5894 O   0  0  0  0  0  0  0  0  0  0  0  0
    8.4475   -4.3533    3.9916 C   0  0  0  0  0  0  0  0  0  0  0  0
    7.1541   -1.9675    3.1768 C   0  0  0  0  0  0  0  0  0  0  0  0
    4.8302   -2.6820   -2.5046 H   0  0  0  0  0  0  0  0  0  0  0  0
    4.2681   -3.5227   -1.0342 H   0  0  0  0  0  0  0  0  0  0  0  0
    5.9555   -2.9542   -1.1414 H   0  0  0  0  0  0  0  0  0  0  0  0
    3.4642   -1.1342   -1.0878 H   0  0  0  0  0  0  0  0  0  0  0  0
    5.1492   -0.5663   -1.1938 H   0  0  0  0  0  0  0  0  0  0  0  0
    5.1111    0.5354    0.9048 H   0  0  0  0  0  0  0  0  0  0  0  0
    2.3762   -0.5332    1.8537 H   0  0  0  0  0  0  0  0  0  0  0  0
    3.6023    2.3369    1.8610 H   0  0  0  0  0  0  0  0  0  0  0  0
    1.9124    1.8722    2.4022 H   0  0  0  0  0  0  0  0  0  0  0  0
    3.1306    1.4514   -0.4521 H   0  0  0  0  0  0  0  0  0  0  0  0
    1.4336    0.9731    0.0571 H   0  0  0  0  0  0  0  0  0  0  0  0
    4.7615    0.1825    3.4447 H   0  0  0  0  0  0  0  0  0  0  0  0
    4.3592   -2.3881    2.4413 H   0  0  0  0  0  0  0  0  0  0  0  0
    6.9379    1.2701    2.1110 H   0  0  0  0  0  0  0  0  0  0  0  0
    9.4070    1.0275    2.1635 H   0  0  0  0  0  0  0  0  0  0  0  0
   10.4478   -1.1400    2.8691 H   0  0  0  0  0  0  0  0  0  0  0  0
    9.1712   -5.1371    4.2544 H   0  0  0  0  0  0  0  0  0  0  0  0
    7.7958   -4.7265    3.1806 H   0  0  0  0  0  0  0  0  0  0  0  0
    7.8196   -4.1358    4.8744 H   0  0  0  0  0  0  0  0  0  0  0  0
    6.4993   -2.7804    3.4843 H   0  0  0  0  0  0  0  0  0  0  0  0
  1  2  1  0
  1 18  1  0
  1 19  1  0
  1 20  1  0
  2  3  1  0
  2 21  1  0
  2 22  1  0
  3  4  1  0
  4  5  1  0
  4  8  1  0
  4 23  1  6
  5  6  1  0
  5  7  1  0
  5 24  1  1
  6  7  1  0
  6 25  1  0
  6 26  1  0
  7 27  1  0
  7 28  1  0
  8  9  1  0
  8 10  1  0
  8 29  1  1
  9 30  1  0
 10 11  2  0
 10 17  1  0
 11 12  1  0
 11 31  1  0
 12 13  2  0
 12 32  1  0
 13 14  1  0
 13 33  1  0
 14 15  1  0
 14 17  2  0
 15 16  1  0
 16 34  1  0
 16 35  1  0
 16 36  1  0
 17 37  1  0
M  END

