
     RDKit          3D

 66 70  0  0  0  0  0  0  0  0999 V2000
   10.0590   -3.4967   -1.3371 C   0  0  0  0  0  0  0  0  0  0  0  0
    9.2749   -4.4166   -2.0632 O   0  0  0  0  0  0  0  0  0  0  0  0
    8.1069   -3.9992   -2.6215 C   0  0  0  0  0  0  0  0  0  0  0  0
    7.6019   -2.6957   -2.5218 C   0  0  0  0  0  0  0  0  0  0  0  0
    6.3691   -2.3613   -3.0882 C   0  0  0  0  0  0  0  0  0  0  0  0
    5.5984   -3.3079   -3.7760 C   0  0  0  0  0  0  0  0  0  0  0  0
    4.2481   -2.8871   -4.3536 C   0  0  1  0  0  0  0  0  0  0  0  0
    3.7188   -2.3621   -3.5406 H   0  0  0  0  0  0  0  0  0  0  0  0
    4.3768   -1.8997   -5.5275 C   0  0  0  0  0  0  0  0  0  0  0  0
    4.7699   -2.5478   -6.8476 C   0  0  0  0  0  0  0  0  0  0  0  0
    5.3863   -1.9081   -7.6859 O   0  0  0  0  0  0  0  0  0  0  0  0
    4.3381   -3.9355   -7.1104 C   0  0  0  0  0  0  0  0  0  0  0  0
    3.7001   -4.6594   -6.1370 C   0  0  0  0  0  0  0  0  0  0  0  0
    3.3423   -4.0420   -4.7956 C   0  0  0  0  0  0  0  0  0  0  0  0
    3.2582   -5.9642   -6.2297 N   0  0  0  0  0  0  0  0  0  0  0  0
    3.3672   -6.9388   -7.2321 C   0  0  0  0  0  0  0  0  0  0  0  0
    3.3486   -8.2912   -6.8449 C   0  0  0  0  0  0  0  0  0  0  0  0
    3.4382   -9.3077   -7.7922 C   0  0  0  0  0  0  0  0  0  0  0  0
    3.5750   -8.9932   -9.1477 C   0  0  0  0  0  0  0  0  0  0  0  0
    3.5999   -7.6558   -9.5408 C   0  0  0  0  0  0  0  0  0  0  0  0
    3.4608   -6.6261   -8.6028 C   0  0  0  0  0  0  0  0  0  0  0  0
    3.4626   -5.2590   -9.0026 N   0  0  0  0  0  0  0  0  0  0  0  0
    2.4429   -4.6195   -9.6592 C   0  0  0  0  0  0  0  0  0  0  0  0
    2.4613   -3.4506   -9.9799 O   0  0  0  0  0  0  0  0  0  0  0  0
    1.1667   -5.4481  -10.0018 C   0  0  1  0  0  0  0  0  0  0  0  0
    0.7015   -6.1266   -8.9386 F   0  0  0  0  0  0  0  0  0  0  0  0
    0.2056   -4.6297  -10.4119 F   0  0  0  0  0  0  0  0  0  0  0  0
    1.4007   -6.3324  -10.9892 F   0  0  0  0  0  0  0  0  0  0  0  0
    4.5925   -4.4074   -8.5280 C   0  0  2  0  0  0  0  0  0  0  0  0
    4.5553   -3.5003   -9.1441 H   0  0  0  0  0  0  0  0  0  0  0  0
    5.9294   -5.0793   -8.8149 C   0  0  0  0  0  0  0  0  0  0  0  0
    6.3929   -5.1163  -10.1385 C   0  0  0  0  0  0  0  0  0  0  0  0
    7.5980   -5.7409  -10.4622 C   0  0  0  0  0  0  0  0  0  0  0  0
    8.3887   -6.3478   -9.4739 C   0  0  0  0  0  0  0  0  0  0  0  0
    9.6899   -7.0328   -9.8152 C   0  0  0  0  0  0  0  0  0  0  0  0
    7.9269   -6.2978   -8.1501 C   0  0  0  0  0  0  0  0  0  0  0  0
    6.7200   -5.6741   -7.8239 C   0  0  0  0  0  0  0  0  0  0  0  0
    6.1194   -4.6055   -3.8811 C   0  0  0  0  0  0  0  0  0  0  0  0
    7.3506   -4.9658   -3.3258 C   0  0  0  0  0  0  0  0  0  0  0  0
    7.7354   -6.2699   -3.4423 O   0  0  0  0  0  0  0  0  0  0  0  0
    9.0020   -6.5598   -4.0178 C   0  0  0  0  0  0  0  0  0  0  0  0
   10.9403   -4.0482   -0.9830 H   0  0  0  0  0  0  0  0  0  0  0  0
    9.5151   -3.0943   -0.4637 H   0  0  0  0  0  0  0  0  0  0  0  0
   10.3941   -2.6527   -1.9668 H   0  0  0  0  0  0  0  0  0  0  0  0
    8.1617   -1.9311   -1.9829 H   0  0  0  0  0  0  0  0  0  0  0  0
    6.0020   -1.3372   -2.9768 H   0  0  0  0  0  0  0  0  0  0  0  0
    5.0983   -1.0970   -5.3223 H   0  0  0  0  0  0  0  0  0  0  0  0
    3.3989   -1.4121   -5.7001 H   0  0  0  0  0  0  0  0  0  0  0  0
    3.3217   -4.8264   -4.0202 H   0  0  0  0  0  0  0  0  0  0  0  0
    2.3059   -3.6655   -4.8730 H   0  0  0  0  0  0  0  0  0  0  0  0
    2.9188   -6.3386   -5.3512 H   0  0  0  0  0  0  0  0  0  0  0  0
    3.2674   -8.5386   -5.7826 H   0  0  0  0  0  0  0  0  0  0  0  0
    3.4173  -10.3504   -7.4664 H   0  0  0  0  0  0  0  0  0  0  0  0
    3.6675   -9.7842   -9.8947 H   0  0  0  0  0  0  0  0  0  0  0  0
    3.7111   -7.3871  -10.5913 H   0  0  0  0  0  0  0  0  0  0  0  0
    5.8036   -4.6407  -10.9278 H   0  0  0  0  0  0  0  0  0  0  0  0
    7.9366   -5.7491  -11.5023 H   0  0  0  0  0  0  0  0  0  0  0  0
    9.9637   -6.8801  -10.8696 H   0  0  0  0  0  0  0  0  0  0  0  0
    9.6272   -8.1209   -9.6410 H   0  0  0  0  0  0  0  0  0  0  0  0
   10.5186   -6.6559   -9.1933 H   0  0  0  0  0  0  0  0  0  0  0  0
    8.5231   -6.7550   -7.3548 H   0  0  0  0  0  0  0  0  0  0  0  0
    6.4007   -5.6390   -6.7808 H   0  0  0  0  0  0  0  0  0  0  0  0
    5.5829   -5.4016   -4.3981 H   0  0  0  0  0  0  0  0  0  0  0  0
    9.0077   -7.6392   -4.2272 H   0  0  0  0  0  0  0  0  0  0  0  0
    9.8306   -6.3146   -3.3373 H   0  0  0  0  0  0  0  0  0  0  0  0
    9.1431   -6.0113   -4.9666 H   0  0  0  0  0  0  0  0  0  0  0  0
  1  2  1  0
  1 42  1  0
  1 43  1  0
  1 44  1  0
  2  3  1  0
  3  4  2  0
  3 39  1  0
  4  5  1  0
  4 45  1  0
  5  6  2  0
  5 46  1  0
  6  7  1  0
  6 38  1  0
  7  8  1  1
  7  9  1  0
  7 14  1  0
  9 10  1  0
  9 47  1  0
  9 48  1  0
 10 11  2  0
 10 12  1  0
 12 13  2  0
 12 29  1  0
 13 14  1  0
 13 15  1  0
 14 49  1  0
 14 50  1  0
 15 16  1  0
 15 51  1  0
 16 17  1  0
 16 21  2  0
 17 18  2  0
 17 52  1  0
 18 19  1  0
 18 53  1  0
 19 20  2  0
 19 54  1  0
 20 21  1  0
 20 55  1  0
 21 22  1  0
 22 23  1  0
 22 29  1  0
 23 24  2  0
 23 25  1  0
 25 26  1  1
 25 27  1  0
 25 28  1  0
 29 30  1  6
 29 31  1  0
 31 32  2  0
 31 37  1  0
 32 33  1  0
 32 56  1  0
 33 34  2  0
 33 57  1  0
 34 35  1  0
 34 36  1  0
 35 58  1  0
 35 59  1  0
 35 60  1  0
 36 37  2  0
 36 61  1  0
 37 62  1  0
 38 39  2  0
 38 63  1  0
 39 40  1  0
 40 41  1  0
 41 64  1  0
 41 65  1  0
 41 66  1  0
M  END

