
     RDKit          3D

 38 38  0  0  0  0  0  0  0  0999 V2000
    9.5027   -0.1233   -1.3225 C   0  0  0  0  0  0  0  0  0  0  0  0
    8.6220    1.0103   -0.8319 C   0  0  0  0  0  0  0  0  0  0  0  0
    7.3131    0.5006   -0.6396 O   0  0  0  0  0  0  0  0  0  0  0  0
    6.3068    1.3241   -0.2323 C   0  0  0  0  0  0  0  0  0  0  0  0
    6.4958    2.6801    0.0760 C   0  0  0  0  0  0  0  0  0  0  0  0
    5.4158    3.4567    0.5096 C   0  0  0  0  0  0  0  0  0  0  0  0
    4.1488    2.8891    0.6350 C   0  0  0  0  0  0  0  0  0  0  0  0
    3.9678    1.5378    0.3190 C   0  0  0  0  0  0  0  0  0  0  0  0
    5.0246    0.7337   -0.1199 C   0  0  0  0  0  0  0  0  0  0  0  0
    4.8343   -0.7517   -0.4334 C   0  0  1  0  0  0  0  0  0  0  0  0
    5.2469   -1.5867    0.8245 C   0  0  1  0  0  0  0  0  0  0  0  0
    4.2866   -1.4621    2.0175 C   0  0  0  0  0  0  0  0  0  0  0  0
    5.6058   -2.9682    0.4744 N   0  0  0  0  0  0  0  0  0  0  0  0
    3.4791   -0.9932   -0.9605 N   0  0  0  0  0  0  0  0  0  0  0  0
    3.2963   -0.3511   -2.2556 C   0  0  0  0  0  0  0  0  0  0  0  0
    3.0653   -2.3837   -1.0483 C   0  0  0  0  0  0  0  0  0  0  0  0
   10.5326    0.2346   -1.4765 H   0  0  0  0  0  0  0  0  0  0  0  0
    9.1260   -0.5248   -2.2755 H   0  0  0  0  0  0  0  0  0  0  0  0
    9.5242   -0.9447   -0.5901 H   0  0  0  0  0  0  0  0  0  0  0  0
    8.6015    1.8368   -1.5674 H   0  0  0  0  0  0  0  0  0  0  0  0
    9.0106    1.4251    0.1176 H   0  0  0  0  0  0  0  0  0  0  0  0
    7.4807    3.1377   -0.0159 H   0  0  0  0  0  0  0  0  0  0  0  0
    5.5765    4.5115    0.7476 H   0  0  0  0  0  0  0  0  0  0  0  0
    3.3023    3.4917    0.9729 H   0  0  0  0  0  0  0  0  0  0  0  0
    2.9800    1.0778    0.3920 H   0  0  0  0  0  0  0  0  0  0  0  0
    5.5909   -1.0333   -1.1924 H   0  0  0  0  0  0  0  0  0  0  0  0
    6.1988   -1.1198    1.1219 H   0  0  0  0  0  0  0  0  0  0  0  0
    3.2981   -1.8964    1.8004 H   0  0  0  0  0  0  0  0  0  0  0  0
    4.1295   -0.4127    2.3087 H   0  0  0  0  0  0  0  0  0  0  0  0
    4.7028   -1.9948    2.8885 H   0  0  0  0  0  0  0  0  0  0  0  0
    4.7938   -3.5830    0.5002 H   0  0  0  0  0  0  0  0  0  0  0  0
    6.2541   -3.3357    1.1704 H   0  0  0  0  0  0  0  0  0  0  0  0
    3.5323    0.7200   -2.2001 H   0  0  0  0  0  0  0  0  0  0  0  0
    2.2471   -0.4500   -2.5774 H   0  0  0  0  0  0  0  0  0  0  0  0
    3.9383   -0.7972   -3.0499 H   0  0  0  0  0  0  0  0  0  0  0  0
    2.9809   -2.8444   -0.0545 H   0  0  0  0  0  0  0  0  0  0  0  0
    3.7410   -3.0133   -1.6680 H   0  0  0  0  0  0  0  0  0  0  0  0
    2.0613   -2.4266   -1.4994 H   0  0  0  0  0  0  0  0  0  0  0  0
  1  2  1  0
  1 17  1  0
  1 18  1  0
  1 19  1  0
  2  3  1  0
  2 20  1  0
  2 21  1  0
  3  4  1  0
  4  5  2  0
  4  9  1  0
  5  6  1  0
  5 22  1  0
  6  7  2  0
  6 23  1  0
  7  8  1  0
  7 24  1  0
  8  9  2  0
  8 25  1  0
  9 10  1  0
 10 11  1  0
 10 14  1  0
 10 26  1  6
 11 12  1  0
 11 13  1  0
 11 27  1  1
 12 28  1  0
 12 29  1  0
 12 30  1  0
 13 31  1  0
 13 32  1  0
 14 15  1  0
 14 16  1  0
 15 33  1  0
 15 34  1  0
 15 35  1  0
 16 36  1  0
 16 37  1  0
 16 38  1  0
M  END

