
     RDKit          3D

 33 34  0  0  0  0  0  0  0  0999 V2000
    1.9239    0.1487    0.9918 C   0  0  0  0  0  0  0  0  0  0  0  0
    2.4509   -0.4576   -0.1660 O   0  0  0  0  0  0  0  0  0  0  0  0
    2.8899    0.3282   -1.1928 C   0  0  0  0  0  0  0  0  0  0  0  0
    2.8684    1.7212   -1.1878 C   0  0  0  0  0  0  0  0  0  0  0  0
    3.3212    2.4492   -2.3087 C   0  0  0  0  0  0  0  0  0  0  0  0
    3.3481    3.8623   -2.3016 N   0  0  0  0  0  0  0  0  0  0  0  0
    2.3329    4.7357   -1.9408 C   0  0  0  0  0  0  0  0  0  0  0  0
    1.0253    4.2916   -1.6663 C   0  0  0  0  0  0  0  0  0  0  0  0
    0.0350    5.1973   -1.3046 C   0  0  0  0  0  0  0  0  0  0  0  0
   -1.1936    4.7326   -1.0516 F   0  0  0  0  0  0  0  0  0  0  0  0
    0.3010    6.5638   -1.2133 C   0  0  0  0  0  0  0  0  0  0  0  0
   -1.0689    7.7784   -0.7054 Br  0  0  0  0  0  0  0  0  0  0  0  0
    1.5959    7.0080   -1.4993 C   0  0  0  0  0  0  0  0  0  0  0  0
    2.6200    6.1285   -1.8568 C   0  0  0  0  0  0  0  0  0  0  0  0
    4.0090    6.6395   -2.1450 C   0  0  0  0  0  0  0  0  0  0  0  0
    3.8093    1.7459   -3.4140 C   0  0  0  0  0  0  0  0  0  0  0  0
    3.8578    0.3475   -3.4030 C   0  0  0  0  0  0  0  0  0  0  0  0
    3.3970   -0.3928   -2.3085 C   0  0  0  0  0  0  0  0  0  0  0  0
    3.4614   -1.7769   -2.2459 N   0  0  0  0  0  0  0  0  0  0  0  0
    1.6259   -0.6650    1.6667 H   0  0  0  0  0  0  0  0  0  0  0  0
    1.0379    0.7687    0.7643 H   0  0  0  0  0  0  0  0  0  0  0  0
    2.6750    0.7786    1.5018 H   0  0  0  0  0  0  0  0  0  0  0  0
    2.5156    2.2626   -0.3115 H   0  0  0  0  0  0  0  0  0  0  0  0
    4.1322    4.2782   -2.7864 H   0  0  0  0  0  0  0  0  0  0  0  0
    0.7539    3.2400   -1.7502 H   0  0  0  0  0  0  0  0  0  0  0  0
    1.8105    8.0766   -1.4299 H   0  0  0  0  0  0  0  0  0  0  0  0
    4.0761    7.7231   -1.9747 H   0  0  0  0  0  0  0  0  0  0  0  0
    4.3106    6.4594   -3.1942 H   0  0  0  0  0  0  0  0  0  0  0  0
    4.7632    6.1497   -1.5043 H   0  0  0  0  0  0  0  0  0  0  0  0
    4.1543    2.2928   -4.2951 H   0  0  0  0  0  0  0  0  0  0  0  0
    4.2540   -0.1849   -4.2721 H   0  0  0  0  0  0  0  0  0  0  0  0
    3.4627   -2.2654   -3.1336 H   0  0  0  0  0  0  0  0  0  0  0  0
    2.8616   -2.1979   -1.5454 H   0  0  0  0  0  0  0  0  0  0  0  0
  1  2  1  0
  1 20  1  0
  1 21  1  0
  1 22  1  0
  2  3  1  0
  3  4  2  0
  3 18  1  0
  4  5  1  0
  4 23  1  0
  5  6  1  0
  5 16  2  0
  6  7  1  0
  6 24  1  0
  7  8  2  0
  7 14  1  0
  8  9  1  0
  8 25  1  0
  9 10  1  0
  9 11  2  0
 11 12  1  0
 11 13  1  0
 13 14  2  0
 13 26  1  0
 14 15  1  0
 15 27  1  0
 15 28  1  0
 15 29  1  0
 16 17  1  0
 16 30  1  0
 17 18  2  0
 17 31  1  0
 18 19  1  0
 19 32  1  0
 19 33  1  0
M  END

