
     RDKit          3D

 52 55  0  0  0  0  0  0  0  0999 V2000
   11.2048    4.2118   -3.5253 C   0  0  0  0  0  0  0  0  0  0  0  0
   10.2196    3.0750   -3.7749 C   0  0  0  0  0  0  0  0  0  0  0  0
    9.1089    3.4673   -4.7482 C   0  0  0  0  0  0  0  0  0  0  0  0
    9.0726    4.5596   -5.2962 O   0  0  0  0  0  0  0  0  0  0  0  0
    8.1417    2.5271   -4.9816 N   0  0  0  0  0  0  0  0  0  0  0  0
    7.0238    2.8255   -5.8855 C   0  0  0  0  0  0  0  0  0  0  0  0
    6.0418    1.6786   -5.6319 C   0  0  0  0  0  0  0  0  0  0  0  0
    6.9549    0.5192   -5.2369 C   0  0  2  0  0  0  0  0  0  0  0  0
    7.4061    0.0395   -6.1188 H   0  0  0  0  0  0  0  0  0  0  0  0
    6.2045   -0.4564   -4.5123 O   0  0  0  0  0  0  0  0  0  0  0  0
    6.7168   -1.6783   -4.3433 C   0  0  0  0  0  0  0  0  0  0  0  0
    7.9380   -1.9711   -4.7777 N   0  0  0  0  0  0  0  0  0  0  0  0
    8.4210   -3.2143   -4.6016 C   0  0  0  0  0  0  0  0  0  0  0  0
    7.8120   -4.2369   -4.0102 N   0  0  0  0  0  0  0  0  0  0  0  0
    6.5913   -3.9211   -3.5706 C   0  0  0  0  0  0  0  0  0  0  0  0
    5.9513   -2.6730   -3.6951 C   0  0  0  0  0  0  0  0  0  0  0  0
    4.6952   -2.7251   -3.1574 N   0  0  0  0  0  0  0  0  0  0  0  0
    4.5571   -3.9570   -2.6974 C   0  0  0  0  0  0  0  0  0  0  0  0
    3.3138   -4.3779   -2.0352 C   0  0  0  0  0  0  0  0  0  0  0  0
    3.1955   -5.4033   -1.1662 C   0  0  0  0  0  0  0  0  0  0  0  0
    1.9023   -5.7293   -0.4684 C   0  0  0  0  0  0  0  0  0  0  0  0
    0.9109   -4.7447   -0.6021 O   0  0  0  0  0  0  0  0  0  0  0  0
    0.8180   -4.2324   -1.9178 C   0  0  0  0  0  0  0  0  0  0  0  0
    2.1007   -3.5118   -2.3210 C   0  0  0  0  0  0  0  0  0  0  0  0
    5.6913   -4.7431   -2.9330 N   0  0  0  0  0  0  0  0  0  0  0  0
    5.9479   -6.1657   -2.7144 C   0  0  0  0  0  0  0  0  0  0  0  0
    6.7465   -6.4532   -1.4438 C   0  0  0  0  0  0  0  0  0  0  0  0
    8.0554    1.1920   -4.3981 C   0  0  0  0  0  0  0  0  0  0  0  0
   11.9993    3.8954   -2.8318 H   0  0  0  0  0  0  0  0  0  0  0  0
   10.6954    5.0876   -3.0968 H   0  0  0  0  0  0  0  0  0  0  0  0
   11.6700    4.5409   -4.4659 H   0  0  0  0  0  0  0  0  0  0  0  0
    9.7620    2.7350   -2.8287 H   0  0  0  0  0  0  0  0  0  0  0  0
   10.7408    2.1886   -4.1798 H   0  0  0  0  0  0  0  0  0  0  0  0
    7.3721    2.8505   -6.9341 H   0  0  0  0  0  0  0  0  0  0  0  0
    6.6078    3.8202   -5.6683 H   0  0  0  0  0  0  0  0  0  0  0  0
    5.4079    1.4480   -6.4999 H   0  0  0  0  0  0  0  0  0  0  0  0
    5.3821    1.9059   -4.7789 H   0  0  0  0  0  0  0  0  0  0  0  0
    9.4303   -3.3954   -4.9880 H   0  0  0  0  0  0  0  0  0  0  0  0
    4.0426   -6.0376   -0.9009 H   0  0  0  0  0  0  0  0  0  0  0  0
    2.0858   -5.8537    0.6131 H   0  0  0  0  0  0  0  0  0  0  0  0
    1.5346   -6.7169   -0.8338 H   0  0  0  0  0  0  0  0  0  0  0  0
   -0.0410   -3.5453   -1.9267 H   0  0  0  0  0  0  0  0  0  0  0  0
    0.6005   -5.0511   -2.6359 H   0  0  0  0  0  0  0  0  0  0  0  0
    2.1989   -2.5589   -1.7743 H   0  0  0  0  0  0  0  0  0  0  0  0
    2.0744   -3.2414   -3.3880 H   0  0  0  0  0  0  0  0  0  0  0  0
    6.5185   -6.5142   -3.5884 H   0  0  0  0  0  0  0  0  0  0  0  0
    4.9829   -6.6900   -2.7191 H   0  0  0  0  0  0  0  0  0  0  0  0
    7.7299   -5.9628   -1.4924 H   0  0  0  0  0  0  0  0  0  0  0  0
    6.9099   -7.5375   -1.3401 H   0  0  0  0  0  0  0  0  0  0  0  0
    6.2287   -6.0953   -0.5402 H   0  0  0  0  0  0  0  0  0  0  0  0
    9.0040    0.6402   -4.4584 H   0  0  0  0  0  0  0  0  0  0  0  0
    7.7401    1.2157   -3.3369 H   0  0  0  0  0  0  0  0  0  0  0  0
  1  2  1  0
  1 29  1  0
  1 30  1  0
  1 31  1  0
  2  3  1  0
  2 32  1  0
  2 33  1  0
  3  4  2  0
  3  5  1  0
  5  6  1  0
  5 28  1  0
  6  7  1  0
  6 34  1  0
  6 35  1  0
  7  8  1  0
  7 36  1  0
  7 37  1  0
  8  9  1  6
  8 10  1  0
  8 28  1  0
 10 11  1  0
 11 12  2  0
 11 16  1  0
 12 13  1  0
 13 14  2  0
 13 38  1  0
 14 15  1  0
 15 16  2  0
 15 25  1  0
 16 17  1  0
 17 18  2  0
 18 19  1  0
 18 25  1  0
 19 20  2  0
 19 24  1  0
 20 21  1  0
 20 39  1  0
 21 22  1  0
 21 40  1  0
 21 41  1  0
 22 23  1  0
 23 24  1  0
 23 42  1  0
 23 43  1  0
 24 44  1  0
 24 45  1  0
 25 26  1  0
 26 27  1  0
 26 46  1  0
 26 47  1  0
 27 48  1  0
 27 49  1  0
 27 50  1  0
 28 51  1  0
 28 52  1  0
M  END

