
     RDKit          3D

 46 47  0  0  0  0  0  0  0  0999 V2000
    9.7372    3.1716   -2.5722 C   0  0  0  0  0  0  0  0  0  0  0  0
    8.7371    2.6418   -1.7448 O   0  0  0  0  0  0  0  0  0  0  0  0
    7.4488    2.6911   -2.3016 C   0  0  0  0  0  0  0  0  0  0  0  0
    6.4716    2.0371   -1.3333 C   0  0  0  0  0  0  0  0  0  0  0  0
    4.9934    2.1704   -1.7294 C   0  0  1  0  0  0  0  0  0  0  0  0
    4.8026    1.4913   -3.0970 C   0  0  0  0  0  0  0  0  0  0  0  0
    5.0220    0.3000   -3.2249 O   0  0  0  0  0  0  0  0  0  0  0  0
    4.4377    2.2928   -4.1541 N   0  0  0  0  0  0  0  0  0  0  0  0
    4.2201    1.7654   -5.4905 C   0  0  0  0  0  0  0  0  0  0  0  0
    5.0854    2.4889   -6.5605 C   0  0  1  0  0  0  0  0  0  0  0  0
    4.6651    3.9617   -6.7295 C   0  0  0  0  0  0  0  0  0  0  0  0
    6.4449    2.4469   -6.1540 O   0  0  0  0  0  0  0  0  0  0  0  0
    4.9678    1.7264   -7.8811 C   0  0  0  0  0  0  0  0  0  0  0  0
    3.7640    1.7100   -8.6052 C   0  0  0  0  0  0  0  0  0  0  0  0
    3.6456    0.9929   -9.7979 C   0  0  0  0  0  0  0  0  0  0  0  0
    4.7490    0.2869  -10.2704 C   0  0  0  0  0  0  0  0  0  0  0  0
    4.6444   -0.4011  -11.4179 F   0  0  0  0  0  0  0  0  0  0  0  0
    5.9562    0.2821   -9.5777 C   0  0  0  0  0  0  0  0  0  0  0  0
    6.0582    1.0005   -8.3838 C   0  0  0  0  0  0  0  0  0  0  0  0
    3.9697    1.5840   -0.7025 C   0  0  0  0  0  0  0  0  0  0  0  0
    3.0967    2.8509   -0.8731 C   0  0  0  0  0  0  0  0  0  0  0  0
    4.3147    3.5620   -1.5092 C   0  0  0  0  0  0  0  0  0  0  0  0
   10.6977    3.0742   -2.0452 H   0  0  0  0  0  0  0  0  0  0  0  0
    9.5671    4.2451   -2.7972 H   0  0  0  0  0  0  0  0  0  0  0  0
    9.8086    2.6309   -3.5381 H   0  0  0  0  0  0  0  0  0  0  0  0
    7.4342    2.1573   -3.2768 H   0  0  0  0  0  0  0  0  0  0  0  0
    7.1532    3.7457   -2.5027 H   0  0  0  0  0  0  0  0  0  0  0  0
    6.6195    2.4881   -0.3382 H   0  0  0  0  0  0  0  0  0  0  0  0
    6.7176    0.9669   -1.2493 H   0  0  0  0  0  0  0  0  0  0  0  0
    4.1258    3.2330   -3.9488 H   0  0  0  0  0  0  0  0  0  0  0  0
    3.1534    1.8263   -5.7671 H   0  0  0  0  0  0  0  0  0  0  0  0
    4.5023    0.7052   -5.4551 H   0  0  0  0  0  0  0  0  0  0  0  0
    4.7861    4.5100   -5.7797 H   0  0  0  0  0  0  0  0  0  0  0  0
    3.6187    4.0690   -7.0531 H   0  0  0  0  0  0  0  0  0  0  0  0
    5.3131    4.4446   -7.4750 H   0  0  0  0  0  0  0  0  0  0  0  0
    6.4657    2.6973   -5.2194 H   0  0  0  0  0  0  0  0  0  0  0  0
    2.8934    2.2634   -8.2449 H   0  0  0  0  0  0  0  0  0  0  0  0
    2.7130    0.9758  -10.3652 H   0  0  0  0  0  0  0  0  0  0  0  0
    6.8010   -0.2826   -9.9773 H   0  0  0  0  0  0  0  0  0  0  0  0
    6.9942    1.0061   -7.8263 H   0  0  0  0  0  0  0  0  0  0  0  0
    4.4161    1.5154    0.3015 H   0  0  0  0  0  0  0  0  0  0  0  0
    3.5314    0.6091   -0.9586 H   0  0  0  0  0  0  0  0  0  0  0  0
    2.6716    3.3021    0.0359 H   0  0  0  0  0  0  0  0  0  0  0  0
    2.2805    2.6971   -1.5964 H   0  0  0  0  0  0  0  0  0  0  0  0
    4.8816    4.1427   -0.7650 H   0  0  0  0  0  0  0  0  0  0  0  0
    4.1381    4.2343   -2.3658 H   0  0  0  0  0  0  0  0  0  0  0  0
  1  2  1  0
  1 23  1  0
  1 24  1  0
  1 25  1  0
  2  3  1  0
  3  4  1  0
  3 26  1  0
  3 27  1  0
  4  5  1  0
  4 28  1  0
  4 29  1  0
  5  6  1  6
  5 20  1  0
  5 22  1  0
  6  7  2  0
  6  8  1  0
  8  9  1  0
  8 30  1  0
  9 10  1  0
  9 31  1  0
  9 32  1  0
 10 11  1  0
 10 12  1  1
 10 13  1  0
 11 33  1  0
 11 34  1  0
 11 35  1  0
 12 36  1  0
 13 14  2  0
 13 19  1  0
 14 15  1  0
 14 37  1  0
 15 16  2  0
 15 38  1  0
 16 17  1  0
 16 18  1  0
 18 19  2  0
 18 39  1  0
 19 40  1  0
 20 21  1  0
 20 41  1  0
 20 42  1  0
 21 22  1  0
 21 43  1  0
 21 44  1  0
 22 45  1  0
 22 46  1  0
M  END

