
     RDKit          3D

 54 60  0  0  0  0  0  0  0  0999 V2000
    0.8745    0.3058    0.9626 C   0  0  0  0  0  0  0  0  0  0  0  0
    2.3420    0.2649    0.6140 C   0  0  0  0  0  0  0  0  0  0  0  0
    3.3189    0.2380    1.6253 C   0  0  0  0  0  0  0  0  0  0  0  0
    4.6786    0.2165    1.3171 C   0  0  0  0  0  0  0  0  0  0  0  0
    5.0901    0.2203   -0.0214 C   0  0  0  0  0  0  0  0  0  0  0  0
    6.4859    0.2055   -0.3429 N   0  0  0  0  0  0  0  0  0  0  0  0
    7.2847   -0.9101   -0.6007 C   0  0  0  0  0  0  0  0  0  0  0  0
    6.8801   -2.3254   -0.5970 C   0  0  0  0  0  0  0  0  0  0  0  0
    5.6219   -2.8323   -0.2265 C   0  0  0  0  0  0  0  0  0  0  0  0
    5.3289   -4.2094   -0.2593 C   0  0  0  0  0  0  0  0  0  0  0  0
    6.2720   -5.1492   -0.6625 C   0  0  0  0  0  0  0  0  0  0  0  0
    7.5496   -4.7001   -1.0389 C   0  0  0  0  0  0  0  0  0  0  0  0
    8.7492   -5.3497   -1.4920 C   0  0  0  0  0  0  0  0  0  0  0  0
    9.6826   -4.3596   -1.6965 C   0  0  0  0  0  0  0  0  0  0  0  0
    9.1310   -3.1347   -1.4012 N   0  0  0  0  0  0  0  0  0  0  0  0
    7.8344   -3.3009   -0.9973 C   0  0  0  0  0  0  0  0  0  0  0  0
    8.5282   -0.5355   -0.8764 N   0  0  0  0  0  0  0  0  0  0  0  0
    9.5432   -2.2030   -1.4216 H   0  0  0  0  0  0  0  0  0  0  0  0
    8.5613    0.8264   -0.7990 C   0  0  0  0  0  0  0  0  0  0  0  0
    9.6964    1.6840   -1.0095 C   0  0  0  0  0  0  0  0  0  0  0  0
   10.9714    1.1673   -1.3282 C   0  0  0  0  0  0  0  0  0  0  0  0
   12.0492    2.0142   -1.5241 C   0  0  0  0  0  0  0  0  0  0  0  0
   11.8702    3.4049   -1.4029 C   0  0  0  0  0  0  0  0  0  0  0  0
   10.6240    3.9256   -1.0888 C   0  0  0  0  0  0  0  0  0  0  0  0
    9.4984    3.0903   -0.8817 C   0  0  0  0  0  0  0  0  0  0  0  0
    8.1684    3.6207   -0.5486 C   0  0  0  0  0  0  0  0  0  0  0  0
    7.9452    5.0124   -0.4251 C   0  0  0  0  0  0  0  0  0  0  0  0
    6.7007    5.5382   -0.1158 C   0  0  0  0  0  0  0  0  0  0  0  0
    5.6109    4.6758    0.0843 C   0  0  0  0  0  0  0  0  0  0  0  0
    5.7843    3.3058   -0.0259 C   0  0  0  0  0  0  0  0  0  0  0  0
    7.0475    2.7433   -0.3386 C   0  0  0  0  0  0  0  0  0  0  0  0
    7.3047    1.3303   -0.4719 C   0  0  0  0  0  0  0  0  0  0  0  0
    4.1352    0.2478   -1.0417 C   0  0  0  0  0  0  0  0  0  0  0  0
    2.7758    0.2680   -0.7210 C   0  0  0  0  0  0  0  0  0  0  0  0
    0.6256   -0.4345    1.7395 H   0  0  0  0  0  0  0  0  0  0  0  0
    0.2433    0.1046    0.0848 H   0  0  0  0  0  0  0  0  0  0  0  0
    0.5891    1.2958    1.3581 H   0  0  0  0  0  0  0  0  0  0  0  0
    3.0085    0.2313    2.6739 H   0  0  0  0  0  0  0  0  0  0  0  0
    5.4300    0.1924    2.1090 H   0  0  0  0  0  0  0  0  0  0  0  0
    4.8372   -2.1589    0.1043 H   0  0  0  0  0  0  0  0  0  0  0  0
    4.3310   -4.5369    0.0426 H   0  0  0  0  0  0  0  0  0  0  0  0
    6.0262   -6.2142   -0.6838 H   0  0  0  0  0  0  0  0  0  0  0  0
    8.8982   -6.4166   -1.6439 H   0  0  0  0  0  0  0  0  0  0  0  0
   10.7146   -4.4349   -2.0350 H   0  0  0  0  0  0  0  0  0  0  0  0
   11.0884    0.0858   -1.4131 H   0  0  0  0  0  0  0  0  0  0  0  0
   13.0329    1.6063   -1.7698 H   0  0  0  0  0  0  0  0  0  0  0  0
   12.7155    4.0808   -1.5554 H   0  0  0  0  0  0  0  0  0  0  0  0
   10.5246    5.0075   -1.0020 H   0  0  0  0  0  0  0  0  0  0  0  0
    8.7734    5.7040   -0.5778 H   0  0  0  0  0  0  0  0  0  0  0  0
    6.5723    6.6200   -0.0304 H   0  0  0  0  0  0  0  0  0  0  0  0
    4.6247    5.0797    0.3261 H   0  0  0  0  0  0  0  0  0  0  0  0
    4.9279    2.6549    0.1303 H   0  0  0  0  0  0  0  0  0  0  0  0
    4.4619    0.2478   -2.0834 H   0  0  0  0  0  0  0  0  0  0  0  0
    2.0373    0.2846   -1.5270 H   0  0  0  0  0  0  0  0  0  0  0  0
  1  2  1  0
  1 35  1  0
  1 36  1  0
  1 37  1  0
  2  3  2  0
  2 34  1  0
  3  4  1  0
  3 38  1  0
  4  5  2  0
  4 39  1  0
  5  6  1  0
  5 33  1  0
  6  7  1  0
  6 32  1  0
  7  8  1  0
  7 17  2  0
  8  9  2  0
  8 16  1  0
  9 10  1  0
  9 40  1  0
 10 11  2  0
 10 41  1  0
 11 12  1  0
 11 42  1  0
 12 13  1  0
 12 16  2  0
 13 14  2  0
 13 43  1  0
 14 15  1  0
 14 44  1  0
 15 16  1  0
 15 18  1  0
 17 19  1  0
 19 20  2  0
 19 32  1  0
 20 21  1  0
 20 25  1  0
 21 22  2  0
 21 45  1  0
 22 23  1  0
 22 46  1  0
 23 24  2  0
 23 47  1  0
 24 25  1  0
 24 48  1  0
 25 26  2  0
 26 27  1  0
 26 31  1  0
 27 28  2  0
 27 49  1  0
 28 29  1  0
 28 50  1  0
 29 30  2  0
 29 51  1  0
 30 31  1  0
 30 52  1  0
 31 32  2  0
 33 34  2  0
 33 53  1  0
 34 54  1  0
M  END

