
     RDKit          3D

 36 38  0  0  0  0  0  0  0  0999 V2000
    3.6416    0.4992   -1.2123 C   0  0  0  0  0  0  0  0  0  0  0  0
    2.6135    0.0735   -0.1639 C   0  0  0  0  0  0  0  0  0  0  0  0
    2.8763   -1.2466    0.4092 N   0  0  0  0  0  0  0  0  0  0  0  0
    2.6389   -2.3070   -0.5658 C   0  0  0  0  0  0  0  0  0  0  0  0
    3.0365   -3.6655   -0.0163 C   0  0  0  0  0  0  0  0  0  0  0  0
    2.3510   -3.9284    1.1984 O   0  0  0  0  0  0  0  0  0  0  0  0
    2.6230   -2.9170    2.1791 C   0  0  2  0  0  0  0  0  0  0  0  0
    3.7275   -2.8605    2.2924 H   0  0  0  0  0  0  0  0  0  0  0  0
    2.0086   -3.3126    3.5110 C   0  0  0  0  0  0  0  0  0  0  0  0
    2.0098   -4.6697    3.9246 C   0  0  0  0  0  0  0  0  0  0  0  0
    2.4609   -5.6673    3.1343 O   0  0  0  0  0  0  0  0  0  0  0  0
    1.5421   -5.0161    5.2008 C   0  0  0  0  0  0  0  0  0  0  0  0
    1.0827   -4.0293    6.0690 C   0  0  0  0  0  0  0  0  0  0  0  0
    1.0783   -2.6908    5.6732 C   0  0  0  0  0  0  0  0  0  0  0  0
    1.5405   -2.3256    4.4010 C   0  0  0  0  0  0  0  0  0  0  0  0
    1.5089   -0.8667    3.9892 C   0  0  0  0  0  0  0  0  0  0  0  0
    2.4070   -0.5343    2.7953 C   0  0  0  0  0  0  0  0  0  0  0  0
    2.1684   -1.5397    1.6653 C   0  0  1  0  0  0  0  0  0  0  0  0
    1.0695   -1.6072    1.4831 H   0  0  0  0  0  0  0  0  0  0  0  0
    3.4554    1.5399   -1.5214 H   0  0  0  0  0  0  0  0  0  0  0  0
    3.6068   -0.1181   -2.1233 H   0  0  0  0  0  0  0  0  0  0  0  0
    4.6598    0.4366   -0.7973 H   0  0  0  0  0  0  0  0  0  0  0  0
    1.5883    0.1260   -0.6001 H   0  0  0  0  0  0  0  0  0  0  0  0
    2.6384    0.8148    0.6448 H   0  0  0  0  0  0  0  0  0  0  0  0
    3.2276   -2.1142   -1.4752 H   0  0  0  0  0  0  0  0  0  0  0  0
    1.5667   -2.3432   -0.8703 H   0  0  0  0  0  0  0  0  0  0  0  0
    4.1304   -3.6985    0.1534 H   0  0  0  0  0  0  0  0  0  0  0  0
    2.7620   -4.4660   -0.7191 H   0  0  0  0  0  0  0  0  0  0  0  0
    2.5277   -5.3111    2.2245 H   0  0  0  0  0  0  0  0  0  0  0  0
    1.5543   -6.0711    5.4816 H   0  0  0  0  0  0  0  0  0  0  0  0
    0.7243   -4.3070    7.0638 H   0  0  0  0  0  0  0  0  0  0  0  0
    0.7189   -1.9163    6.3560 H   0  0  0  0  0  0  0  0  0  0  0  0
    1.7800   -0.2351    4.8506 H   0  0  0  0  0  0  0  0  0  0  0  0
    0.4661   -0.5957    3.7378 H   0  0  0  0  0  0  0  0  0  0  0  0
    3.4725   -0.5640    3.0834 H   0  0  0  0  0  0  0  0  0  0  0  0
    2.1967    0.4947    2.4730 H   0  0  0  0  0  0  0  0  0  0  0  0
  1  2  1  0
  1 20  1  0
  1 21  1  0
  1 22  1  0
  2  3  1  0
  2 23  1  0
  2 24  1  0
  3  4  1  0
  3 18  1  0
  4  5  1  0
  4 25  1  0
  4 26  1  0
  5  6  1  0
  5 27  1  0
  5 28  1  0
  6  7  1  0
  7  8  1  1
  7  9  1  0
  7 18  1  0
  9 10  2  0
  9 15  1  0
 10 11  1  0
 10 12  1  0
 11 29  1  0
 12 13  2  0
 12 30  1  0
 13 14  1  0
 13 31  1  0
 14 15  2  0
 14 32  1  0
 15 16  1  0
 16 17  1  0
 16 33  1  0
 16 34  1  0
 17 18  1  0
 17 35  1  0
 17 36  1  0
 18 19  1  6
M  END

