
     RDKit          3D

 66 70  0  0  0  0  0  0  0  0999 V2000
    2.2449   -0.0037    3.3246 C   0  0  0  0  0  0  0  0  0  0  0  0
    2.0125    0.0913    1.8951 N   0  0  0  0  0  0  0  0  0  0  0  0
    0.6075    0.3475    1.5944 C   0  0  0  0  0  0  0  0  0  0  0  0
    0.2178    0.0743    0.1537 C   0  0  0  0  0  0  0  0  0  0  0  0
    0.5592   -1.1441   -0.4563 C   0  0  0  0  0  0  0  0  0  0  0  0
    0.1688   -1.4195   -1.7684 C   0  0  0  0  0  0  0  0  0  0  0  0
   -0.5738   -0.4807   -2.4941 C   0  0  0  0  0  0  0  0  0  0  0  0
   -0.9193    0.7342   -1.8978 C   0  0  0  0  0  0  0  0  0  0  0  0
   -0.5224    1.0082   -0.5841 C   0  0  0  0  0  0  0  0  0  0  0  0
    2.9034    1.0330    1.2233 C   0  0  0  0  0  0  0  0  0  0  0  0
    4.3959    0.6430    1.2296 C   0  0  1  0  0  0  0  0  0  0  0  0
    4.6658   -0.7638    0.6533 C   0  0  0  0  0  0  0  0  0  0  0  0
    4.5773   -0.8036   -0.8830 C   0  0  0  0  0  0  0  0  0  0  0  0
    5.4271    0.1911   -1.5411 N   0  0  0  0  0  0  0  0  0  0  0  0
    6.8270   -0.1377   -1.6454 C   0  0  0  0  0  0  0  0  0  0  0  0
    7.1086   -1.2448   -2.6796 C   0  0  0  0  0  0  0  0  0  0  0  0
    6.2080   -1.8254   -3.2615 O   0  0  0  0  0  0  0  0  0  0  0  0
    8.4353   -1.5621   -2.8938 N   0  0  0  0  0  0  0  0  0  0  0  0
    8.7533   -2.6638   -3.7997 C   0  0  0  0  0  0  0  0  0  0  0  0
    9.6426   -2.1969   -4.9632 C   0  0  0  0  0  0  0  0  0  0  0  0
   10.7534   -1.3751   -4.3944 C   0  0  0  0  0  0  0  0  0  0  0  0
   11.9408   -1.0608   -5.0266 N   0  0  0  0  0  0  0  0  0  0  0  0
   12.2021   -1.3562   -5.9575 H   0  0  0  0  0  0  0  0  0  0  0  0
   12.7194   -0.2934   -4.1822 C   0  0  0  0  0  0  0  0  0  0  0  0
   13.9923    0.2589   -4.3696 C   0  0  0  0  0  0  0  0  0  0  0  0
   14.5379    1.0011   -3.3235 C   0  0  0  0  0  0  0  0  0  0  0  0
   13.8320    1.1899   -2.1166 C   0  0  0  0  0  0  0  0  0  0  0  0
   12.5663    0.6395   -1.9306 C   0  0  0  0  0  0  0  0  0  0  0  0
   11.9879   -0.1160   -2.9684 C   0  0  0  0  0  0  0  0  0  0  0  0
   10.7390   -0.8134   -3.1392 C   0  0  0  0  0  0  0  0  0  0  0  0
    9.5718   -0.9516   -2.2020 C   0  0  0  0  0  0  0  0  0  0  0  0
    5.1330    1.5354   -1.0602 C   0  0  0  0  0  0  0  0  0  0  0  0
    5.2412    1.6903    0.4693 C   0  0  0  0  0  0  0  0  0  0  0  0
    1.5705   -0.7543    3.7656 H   0  0  0  0  0  0  0  0  0  0  0  0
    2.0766    0.9595    3.8613 H   0  0  0  0  0  0  0  0  0  0  0  0
    3.2755   -0.3248    3.5339 H   0  0  0  0  0  0  0  0  0  0  0  0
    0.3104    1.3888    1.8596 H   0  0  0  0  0  0  0  0  0  0  0  0
    0.0088   -0.3117    2.2474 H   0  0  0  0  0  0  0  0  0  0  0  0
    1.1439   -1.8731    0.1098 H   0  0  0  0  0  0  0  0  0  0  0  0
    0.4458   -2.3712   -2.2294 H   0  0  0  0  0  0  0  0  0  0  0  0
   -0.8775   -0.6958   -3.5218 H   0  0  0  0  0  0  0  0  0  0  0  0
   -1.4946    1.4763   -2.4578 H   0  0  0  0  0  0  0  0  0  0  0  0
   -0.7906    1.9644   -0.1248 H   0  0  0  0  0  0  0  0  0  0  0  0
    2.8107    2.0512    1.6726 H   0  0  0  0  0  0  0  0  0  0  0  0
    2.5521    1.1284    0.1850 H   0  0  0  0  0  0  0  0  0  0  0  0
    4.7353    0.6527    2.2797 H   0  0  0  0  0  0  0  0  0  0  0  0
    3.9545   -1.4859    1.0842 H   0  0  0  0  0  0  0  0  0  0  0  0
    5.6739   -1.0864    0.9707 H   0  0  0  0  0  0  0  0  0  0  0  0
    3.5364   -0.6192   -1.2016 H   0  0  0  0  0  0  0  0  0  0  0  0
    4.8367   -1.7982   -1.2694 H   0  0  0  0  0  0  0  0  0  0  0  0
    7.3066   -0.4471   -0.6869 H   0  0  0  0  0  0  0  0  0  0  0  0
    7.3677    0.7696   -1.9627 H   0  0  0  0  0  0  0  0  0  0  0  0
    7.8016   -3.0696   -4.1605 H   0  0  0  0  0  0  0  0  0  0  0  0
    9.2807   -3.4562   -3.2363 H   0  0  0  0  0  0  0  0  0  0  0  0
    9.0441   -1.6092   -5.6833 H   0  0  0  0  0  0  0  0  0  0  0  0
   10.0298   -3.0741   -5.5111 H   0  0  0  0  0  0  0  0  0  0  0  0
   14.5413    0.1148   -5.3038 H   0  0  0  0  0  0  0  0  0  0  0  0
   15.5298    1.4447   -3.4411 H   0  0  0  0  0  0  0  0  0  0  0  0
   14.2889    1.7778   -1.3166 H   0  0  0  0  0  0  0  0  0  0  0  0
   12.0317    0.7929   -0.9892 H   0  0  0  0  0  0  0  0  0  0  0  0
    9.2874    0.0385   -1.8205 H   0  0  0  0  0  0  0  0  0  0  0  0
    9.8536   -1.5553   -1.3129 H   0  0  0  0  0  0  0  0  0  0  0  0
    4.1088    1.7929   -1.3864 H   0  0  0  0  0  0  0  0  0  0  0  0
    5.8021    2.2539   -1.5627 H   0  0  0  0  0  0  0  0  0  0  0  0
    4.9462    2.7128    0.7648 H   0  0  0  0  0  0  0  0  0  0  0  0
    6.2984    1.5770    0.7680 H   0  0  0  0  0  0  0  0  0  0  0  0
  1  2  1  0
  1 34  1  0
  1 35  1  0
  1 36  1  0
  2  3  1  0
  2 10  1  0
  3  4  1  0
  3 37  1  0
  3 38  1  0
  4  5  2  0
  4  9  1  0
  5  6  1  0
  5 39  1  0
  6  7  2  0
  6 40  1  0
  7  8  1  0
  7 41  1  0
  8  9  2  0
  8 42  1  0
  9 43  1  0
 10 11  1  0
 10 44  1  0
 10 45  1  0
 11 12  1  0
 11 33  1  0
 11 46  1  1
 12 13  1  0
 12 47  1  0
 12 48  1  0
 13 14  1  0
 13 49  1  0
 13 50  1  0
 14 15  1  0
 14 32  1  0
 15 16  1  0
 15 51  1  0
 15 52  1  0
 16 17  2  0
 16 18  1  0
 18 19  1  0
 18 31  1  0
 19 20  1  0
 19 53  1  0
 19 54  1  0
 20 21  1  0
 20 55  1  0
 20 56  1  0
 21 22  1  0
 21 30  2  0
 22 23  1  0
 22 24  1  0
 24 25  2  0
 24 29  1  0
 25 26  1  0
 25 57  1  0
 26 27  2  0
 26 58  1  0
 27 28  1  0
 27 59  1  0
 28 29  2  0
 28 60  1  0
 29 30  1  0
 30 31  1  0
 31 61  1  0
 31 62  1  0
 32 33  1  0
 32 63  1  0
 32 64  1  0
 33 65  1  0
 33 66  1  0
M  END

