
     RDKit          3D

 49 50  0  0  0  0  0  0  0  0999 V2000
    3.0555   -2.8393    5.0771 C   0  0  0  0  0  0  0  0  0  0  0  0
    4.2059   -2.6492    4.1180 C   0  0  0  0  0  0  0  0  0  0  0  0
    4.5544   -3.6375    3.1909 C   0  0  0  0  0  0  0  0  0  0  0  0
    5.6100   -3.4634    2.2863 C   0  0  0  0  0  0  0  0  0  0  0  0
    5.9417   -4.5427    1.2847 C   0  0  0  0  0  0  0  0  0  0  0  0
    6.3464   -2.2619    2.3239 C   0  0  0  0  0  0  0  0  0  0  0  0
    7.4358   -2.0984    1.4205 N   0  0  0  0  0  0  0  0  0  0  0  0
    7.5588   -1.1259    0.4667 C   0  0  0  0  0  0  0  0  0  0  0  0
    6.7528   -0.2373    0.2612 O   0  0  0  0  0  0  0  0  0  0  0  0
    8.8797   -1.1821   -0.3173 C   0  0  0  0  0  0  0  0  0  0  0  0
    9.5622   -2.4709   -0.2934 N   0  0  0  0  0  0  0  0  0  0  0  0
    9.0130   -3.4036   -1.2688 C   0  0  0  0  0  0  0  0  0  0  0  0
   11.0174   -2.3742   -0.3950 C   0  0  0  0  0  0  0  0  0  0  0  0
   11.6694   -1.6494    0.7667 C   0  0  0  0  0  0  0  0  0  0  0  0
   12.6657   -0.6873    0.5468 C   0  0  0  0  0  0  0  0  0  0  0  0
   13.2907   -0.0423    1.6180 C   0  0  0  0  0  0  0  0  0  0  0  0
   12.9183   -0.3378    2.9300 C   0  0  0  0  0  0  0  0  0  0  0  0
   11.9193   -1.2912    3.1595 C   0  0  0  0  0  0  0  0  0  0  0  0
   11.4484   -1.5816    4.5633 C   0  0  1  0  0  0  0  0  0  0  0  0
   12.3704   -1.2556    5.4844 F   0  0  0  0  0  0  0  0  0  0  0  0
   10.3317   -0.8843    4.8609 F   0  0  0  0  0  0  0  0  0  0  0  0
   11.1491   -2.8821    4.7311 F   0  0  0  0  0  0  0  0  0  0  0  0
   11.3079   -1.9474    2.0874 C   0  0  0  0  0  0  0  0  0  0  0  0
    6.0379   -1.2545    3.2650 C   0  0  0  0  0  0  0  0  0  0  0  0
    6.8526    0.0093    3.3600 C   0  0  0  0  0  0  0  0  0  0  0  0
    4.9623   -1.4699    4.1352 C   0  0  0  0  0  0  0  0  0  0  0  0
    2.5918   -3.8304    4.9632 H   0  0  0  0  0  0  0  0  0  0  0  0
    2.2705   -2.0812    4.9157 H   0  0  0  0  0  0  0  0  0  0  0  0
    3.3853   -2.7400    6.1249 H   0  0  0  0  0  0  0  0  0  0  0  0
    3.9824   -4.5697    3.1598 H   0  0  0  0  0  0  0  0  0  0  0  0
    5.2390   -5.3843    1.3652 H   0  0  0  0  0  0  0  0  0  0  0  0
    6.9578   -4.9502    1.4296 H   0  0  0  0  0  0  0  0  0  0  0  0
    5.8947   -4.1601    0.2516 H   0  0  0  0  0  0  0  0  0  0  0  0
    8.1580   -2.8149    1.3745 H   0  0  0  0  0  0  0  0  0  0  0  0
    9.5262   -0.4205    0.1471 H   0  0  0  0  0  0  0  0  0  0  0  0
    8.6583   -0.8222   -1.3418 H   0  0  0  0  0  0  0  0  0  0  0  0
    7.9248   -3.4922   -1.1362 H   0  0  0  0  0  0  0  0  0  0  0  0
    9.4541   -4.4032   -1.1304 H   0  0  0  0  0  0  0  0  0  0  0  0
    9.1999   -3.0872   -2.3182 H   0  0  0  0  0  0  0  0  0  0  0  0
   11.3341   -1.8922   -1.3463 H   0  0  0  0  0  0  0  0  0  0  0  0
   11.4094   -3.4059   -0.4341 H   0  0  0  0  0  0  0  0  0  0  0  0
   12.9551   -0.4381   -0.4781 H   0  0  0  0  0  0  0  0  0  0  0  0
   14.0678    0.7017    1.4276 H   0  0  0  0  0  0  0  0  0  0  0  0
   13.3970    0.1654    3.7716 H   0  0  0  0  0  0  0  0  0  0  0  0
   10.5363   -2.6943    2.2794 H   0  0  0  0  0  0  0  0  0  0  0  0
    7.9295   -0.2175    3.4205 H   0  0  0  0  0  0  0  0  0  0  0  0
    6.5764    0.5878    4.2533 H   0  0  0  0  0  0  0  0  0  0  0  0
    6.7011    0.6381    2.4689 H   0  0  0  0  0  0  0  0  0  0  0  0
    4.7186   -0.6903    4.8637 H   0  0  0  0  0  0  0  0  0  0  0  0
  1  2  1  0
  1 27  1  0
  1 28  1  0
  1 29  1  0
  2  3  2  0
  2 26  1  0
  3  4  1  0
  3 30  1  0
  4  5  1  0
  4  6  2  0
  5 31  1  0
  5 32  1  0
  5 33  1  0
  6  7  1  0
  6 24  1  0
  7  8  1  0
  7 34  1  0
  8  9  2  0
  8 10  1  0
 10 11  1  0
 10 35  1  0
 10 36  1  0
 11 12  1  0
 11 13  1  0
 12 37  1  0
 12 38  1  0
 12 39  1  0
 13 14  1  0
 13 40  1  0
 13 41  1  0
 14 15  2  0
 14 23  1  0
 15 16  1  0
 15 42  1  0
 16 17  2  0
 16 43  1  0
 17 18  1  0
 17 44  1  0
 18 19  1  0
 18 23  2  0
 19 20  1  1
 19 21  1  0
 19 22  1  0
 23 45  1  0
 24 25  1  0
 24 26  2  0
 25 46  1  0
 25 47  1  0
 25 48  1  0
 26 49  1  0
M  END

