
     RDKit          3D

 38 42  0  0  0  0  0  0  0  0999 V2000
    0.8325   -1.3678   -0.1778 O   0  0  0  0  0  0  0  0  0  0  0  0
    2.0111   -1.1192   -0.1753 C   0  0  0  0  0  0  0  0  0  0  0  0
    2.5668    0.1488   -0.3177 N   0  0  0  0  0  0  0  0  0  0  0  0
    3.9457    0.1275   -0.2754 C   0  0  0  0  0  0  0  0  0  0  0  0
    4.8762    1.1722   -0.3792 C   0  0  0  0  0  0  0  0  0  0  0  0
    4.4391    2.5512   -0.5640 N   0  0  0  0  0  0  0  0  0  0  0  0
    3.2278    2.7606   -0.6253 O   0  0  0  0  0  0  0  0  0  0  0  0
    5.2878    3.4225   -0.6485 O   0  0  0  0  0  0  0  0  0  0  0  0
    6.2532    0.8915   -0.3046 C   0  0  0  0  0  0  0  0  0  0  0  0
    6.6904   -0.4147   -0.1289 C   0  0  0  0  0  0  0  0  0  0  0  0
    5.7575   -1.4683   -0.0239 C   0  0  0  0  0  0  0  0  0  0  0  0
    4.4040   -1.1964   -0.0967 C   0  0  0  0  0  0  0  0  0  0  0  0
    3.2002   -2.1360   -0.0141 C   0  0  1  0  0  0  0  0  0  0  0  0
    3.0964   -2.8827    1.2935 C   0  0  0  0  0  0  0  0  0  0  0  0
    2.8271   -4.2028    1.3718 C   0  0  0  0  0  0  0  0  0  0  0  0
    2.5802   -4.6801    2.6478 N   0  0  0  0  0  0  0  0  0  0  0  0
    3.0394   -3.6159    3.5606 C   0  0  0  0  0  0  0  0  0  0  0  0
    2.9869   -2.3263    2.6981 C   0  0  0  0  0  0  0  0  0  0  0  0
    2.7160   -5.0798    0.3389 O   0  0  0  0  0  0  0  0  0  0  0  0
    2.8911   -4.4821   -0.8696 C   0  0  0  0  0  0  0  0  0  0  0  0
    3.1652   -3.1813   -1.1023 C   0  0  0  0  0  0  0  0  0  0  0  0
    3.1389   -2.9869   -2.6042 C   0  0  0  0  0  0  0  0  0  0  0  0
    3.2292   -4.4483   -3.1204 C   0  0  0  0  0  0  0  0  0  0  0  0
    2.7129   -5.2592   -2.0014 N   0  0  0  0  0  0  0  0  0  0  0  0
    2.0405    1.0086   -0.4401 H   0  0  0  0  0  0  0  0  0  0  0  0
    6.9489    1.7259   -0.3889 H   0  0  0  0  0  0  0  0  0  0  0  0
    7.7606   -0.6236   -0.0722 H   0  0  0  0  0  0  0  0  0  0  0  0
    6.0938   -2.4992    0.1145 H   0  0  0  0  0  0  0  0  0  0  0  0
    2.9023   -5.6248    2.8423 H   0  0  0  0  0  0  0  0  0  0  0  0
    4.0804   -3.8060    3.8862 H   0  0  0  0  0  0  0  0  0  0  0  0
    2.4055   -3.5614    4.4578 H   0  0  0  0  0  0  0  0  0  0  0  0
    3.7873   -1.6204    2.9732 H   0  0  0  0  0  0  0  0  0  0  0  0
    2.0242   -1.7974    2.8375 H   0  0  0  0  0  0  0  0  0  0  0  0
    3.9592   -2.3652   -2.9984 H   0  0  0  0  0  0  0  0  0  0  0  0
    2.1900   -2.5137   -2.9229 H   0  0  0  0  0  0  0  0  0  0  0  0
    4.2849   -4.7060   -3.3323 H   0  0  0  0  0  0  0  0  0  0  0  0
    2.6456   -4.6191   -4.0370 H   0  0  0  0  0  0  0  0  0  0  0  0
    3.0374   -6.2209   -1.9402 H   0  0  0  0  0  0  0  0  0  0  0  0
  1  2  2  0
  2  3  1  0
 13  2  1  6
  3  4  1  0
  3 25  1  0
  4  5  2  0
  4 12  1  0
  5  6  1  0
  5  9  1  0
  6  7  2  0
  6  8  1  0
  9 10  2  0
  9 26  1  0
 10 11  1  0
 10 27  1  0
 11 12  2  0
 11 28  1  0
 12 13  1  0
 13 14  1  0
 13 21  1  0
 14 15  2  0
 14 18  1  0
 15 16  1  0
 15 19  1  0
 16 17  1  0
 16 29  1  0
 17 18  1  0
 17 30  1  0
 17 31  1  0
 18 32  1  0
 18 33  1  0
 19 20  1  0
 20 21  2  0
 20 24  1  0
 21 22  1  0
 22 23  1  0
 22 34  1  0
 22 35  1  0
 23 24  1  0
 23 36  1  0
 23 37  1  0
 24 38  1  0
M  CHG  2   6   1   8  -1
M  END

