
     RDKit          3D

 39 40  0  0  0  0  0  0  0  0999 V2000
    0.8189   -0.0847   -0.8425 C   0  0  0  0  0  0  0  0  0  0  0  0
    2.1175   -0.0646   -0.5165 C   0  0  0  0  0  0  0  0  0  0  0  0
    2.9499   -1.3093   -0.3192 C   0  0  0  0  0  0  0  0  0  0  0  0
    4.2256   -1.2263   -1.1714 C   0  0  0  0  0  0  0  0  0  0  0  0
    4.9405   -0.0341   -0.9192 O   0  0  0  0  0  0  0  0  0  0  0  0
    4.2013    1.1395   -1.2125 C   0  0  2  0  0  0  0  0  0  0  0  0
    3.9085    1.1377   -2.2838 H   0  0  0  0  0  0  0  0  0  0  0  0
    5.1542    2.3036   -0.9801 C   0  0  0  0  0  0  0  0  0  0  0  0
    4.4913    3.5093   -1.3141 O   0  0  0  0  0  0  0  0  0  0  0  0
    5.3186    4.6450   -1.3394 C   0  0  1  0  0  0  0  0  0  0  0  0
    6.2590    4.5891   -2.3811 O   0  0  0  0  0  0  0  0  0  0  0  0
    4.4381    5.8816   -1.4145 C   0  0  0  0  0  0  0  0  0  0  0  0
    3.1262    5.8860   -0.9101 C   0  0  0  0  0  0  0  0  0  0  0  0
    2.3485    7.0376   -0.9540 C   0  0  0  0  0  0  0  0  0  0  0  0
    2.8645    8.2254   -1.5027 C   0  0  0  0  0  0  0  0  0  0  0  0
    2.0312    9.2966   -1.5021 O   0  0  0  0  0  0  0  0  0  0  0  0
    2.4815   10.5220   -2.0325 C   0  0  0  0  0  0  0  0  0  0  0  0
    4.1738    8.2354   -2.0059 C   0  0  0  0  0  0  0  0  0  0  0  0
    4.9446    7.0682   -1.9553 C   0  0  0  0  0  0  0  0  0  0  0  0
    2.9189    1.2067   -0.3632 C   0  0  0  0  0  0  0  0  0  0  0  0
    0.2732   -1.0261   -0.9589 H   0  0  0  0  0  0  0  0  0  0  0  0
    0.2549    0.8404   -0.9955 H   0  0  0  0  0  0  0  0  0  0  0  0
    2.3813   -2.2192   -0.5696 H   0  0  0  0  0  0  0  0  0  0  0  0
    3.2534   -1.3834    0.7414 H   0  0  0  0  0  0  0  0  0  0  0  0
    3.9579   -1.2915   -2.2465 H   0  0  0  0  0  0  0  0  0  0  0  0
    4.9100   -2.0573   -0.9414 H   0  0  0  0  0  0  0  0  0  0  0  0
    6.0523    2.1620   -1.6038 H   0  0  0  0  0  0  0  0  0  0  0  0
    5.4760    2.3134    0.0808 H   0  0  0  0  0  0  0  0  0  0  0  0
    5.9381    4.6673   -0.4201 H   0  0  0  0  0  0  0  0  0  0  0  0
    5.7695    4.6654   -3.2146 H   0  0  0  0  0  0  0  0  0  0  0  0
    2.7157    4.9691   -0.4856 H   0  0  0  0  0  0  0  0  0  0  0  0
    1.3266    7.0474   -0.5691 H   0  0  0  0  0  0  0  0  0  0  0  0
    1.6520   11.2340   -1.9254 H   0  0  0  0  0  0  0  0  0  0  0  0
    2.7427   10.4371   -3.1031 H   0  0  0  0  0  0  0  0  0  0  0  0
    3.3588   10.9113   -1.4845 H   0  0  0  0  0  0  0  0  0  0  0  0
    4.6047    9.1391   -2.4372 H   0  0  0  0  0  0  0  0  0  0  0  0
    5.9639    7.0825   -2.3472 H   0  0  0  0  0  0  0  0  0  0  0  0
    2.3314    2.0922   -0.6455 H   0  0  0  0  0  0  0  0  0  0  0  0
    3.2246    1.3239    0.6937 H   0  0  0  0  0  0  0  0  0  0  0  0
  1  2  2  0
  1 21  1  0
  1 22  1  0
  2  3  1  0
  2 20  1  0
  3  4  1  0
  3 23  1  0
  3 24  1  0
  4  5  1  0
  4 25  1  0
  4 26  1  0
  5  6  1  0
  6  7  1  6
  6  8  1  0
  6 20  1  0
  8  9  1  0
  8 27  1  0
  8 28  1  0
  9 10  1  0
 10 11  1  0
 10 12  1  0
 10 29  1  1
 11 30  1  0
 12 13  2  0
 12 19  1  0
 13 14  1  0
 13 31  1  0
 14 15  2  0
 14 32  1  0
 15 16  1  0
 15 18  1  0
 16 17  1  0
 17 33  1  0
 17 34  1  0
 17 35  1  0
 18 19  2  0
 18 36  1  0
 19 37  1  0
 20 38  1  0
 20 39  1  0
M  END

