
     RDKit          3D

 56 60  0  0  0  0  0  0  0  0999 V2000
    9.6016   -2.2005   -0.9944 C   0  0  0  0  0  0  0  0  0  0  0  0
    8.1596   -1.7812   -1.2201 C   0  0  0  0  0  0  0  0  0  0  0  0
    7.4318   -1.7365    0.0257 O   0  0  0  0  0  0  0  0  0  0  0  0
    6.8677   -2.8556    0.4583 C   0  0  0  0  0  0  0  0  0  0  0  0
    6.8383   -3.9020   -0.1462 O   0  0  0  0  0  0  0  0  0  0  0  0
    6.2425   -2.6589    1.8543 C   0  0  1  0  0  0  0  0  0  0  0  0
    7.3958   -2.4897    2.8611 C   0  0  0  0  0  0  0  0  0  0  0  0
    8.5514   -2.7219    2.6066 O   0  0  0  0  0  0  0  0  0  0  0  0
    6.9347   -2.0705    4.0373 O   0  0  0  0  0  0  0  0  0  0  0  0
    7.8880   -1.8685    5.1033 C   0  0  0  0  0  0  0  0  0  0  0  0
    8.4921   -0.4764    5.0477 C   0  0  0  0  0  0  0  0  0  0  0  0
    5.4227   -1.3990    1.8862 N   0  0  0  0  0  0  0  0  0  0  0  0
    4.2293   -1.6640    2.1136 N   0  0  0  0  0  0  0  0  0  0  0  0
    3.9515   -2.9897    2.1723 N   0  0  0  0  0  0  0  0  0  0  0  0
    3.0074   -3.4284    3.2122 C   0  0  0  0  0  0  0  0  0  0  0  0
    3.8717   -4.3001    4.0932 C   0  0  0  0  0  0  0  0  0  0  0  0
    3.7057   -4.9213    5.3142 C   0  0  0  0  0  0  0  0  0  0  0  0
    2.5685   -4.9094    6.2431 C   0  0  0  0  0  0  0  0  0  0  0  0
    1.2684   -4.5907    5.7968 C   0  0  0  0  0  0  0  0  0  0  0  0
    0.1898   -4.5709    6.6819 C   0  0  0  0  0  0  0  0  0  0  0  0
    0.3764   -4.8748    8.0336 C   0  0  0  0  0  0  0  0  0  0  0  0
    1.6575   -5.1991    8.4913 C   0  0  0  0  0  0  0  0  0  0  0  0
    2.7385   -5.2132    7.6106 C   0  0  0  0  0  0  0  0  0  0  0  0
    5.1571   -5.8338    5.6843 S   0  0  0  0  0  0  0  0  0  0  0  0
    5.9756   -5.3553    4.2072 C   0  0  0  0  0  0  0  0  0  0  0  0
    7.3187   -5.8778    3.9144 C   0  0  0  0  0  0  0  0  0  0  0  0
    7.7792   -5.9936    2.5868 C   0  0  0  0  0  0  0  0  0  0  0  0
    9.0490   -6.5035    2.3151 C   0  0  0  0  0  0  0  0  0  0  0  0
    9.8865   -6.9173    3.3546 C   0  0  0  0  0  0  0  0  0  0  0  0
    9.4426   -6.8121    4.6765 C   0  0  0  0  0  0  0  0  0  0  0  0
    8.1769   -6.2963    4.9536 C   0  0  0  0  0  0  0  0  0  0  0  0
    5.1424   -4.5222    3.4856 C   0  0  0  0  0  0  0  0  0  0  0  0
    5.2109   -3.7859    2.1650 C   0  0  2  0  0  0  0  0  0  0  0  0
   10.1553   -2.1552   -1.9459 H   0  0  0  0  0  0  0  0  0  0  0  0
    9.6559   -3.2296   -0.6105 H   0  0  0  0  0  0  0  0  0  0  0  0
   10.0945   -1.5349   -0.2700 H   0  0  0  0  0  0  0  0  0  0  0  0
    7.6440   -2.4668   -1.9082 H   0  0  0  0  0  0  0  0  0  0  0  0
    8.0928   -0.7570   -1.6133 H   0  0  0  0  0  0  0  0  0  0  0  0
    8.6630   -2.6457    5.0346 H   0  0  0  0  0  0  0  0  0  0  0  0
    7.3052   -2.0199    6.0227 H   0  0  0  0  0  0  0  0  0  0  0  0
    9.0945   -0.3462    4.1366 H   0  0  0  0  0  0  0  0  0  0  0  0
    9.1491   -0.3216    5.9185 H   0  0  0  0  0  0  0  0  0  0  0  0
    7.7059    0.2939    5.0646 H   0  0  0  0  0  0  0  0  0  0  0  0
    2.1754   -3.9975    2.7609 H   0  0  0  0  0  0  0  0  0  0  0  0
    2.5834   -2.5488    3.7188 H   0  0  0  0  0  0  0  0  0  0  0  0
    1.0907   -4.3781    4.7422 H   0  0  0  0  0  0  0  0  0  0  0  0
   -0.8073   -4.3236    6.3085 H   0  0  0  0  0  0  0  0  0  0  0  0
   -0.4697   -4.8600    8.7248 H   0  0  0  0  0  0  0  0  0  0  0  0
    1.8190   -5.4362    9.5459 H   0  0  0  0  0  0  0  0  0  0  0  0
    3.7357   -5.4485    7.9905 H   0  0  0  0  0  0  0  0  0  0  0  0
    7.1486   -5.6886    1.7509 H   0  0  0  0  0  0  0  0  0  0  0  0
    9.3825   -6.5790    1.2772 H   0  0  0  0  0  0  0  0  0  0  0  0
   10.8800   -7.3172    3.1371 H   0  0  0  0  0  0  0  0  0  0  0  0
   10.0887   -7.1277    5.4997 H   0  0  0  0  0  0  0  0  0  0  0  0
    7.8514   -6.2039    5.9928 H   0  0  0  0  0  0  0  0  0  0  0  0
    5.2188   -4.4848    1.3147 H   0  0  0  0  0  0  0  0  0  0  0  0
  1  2  1  0
  1 34  1  0
  1 35  1  0
  1 36  1  0
  2  3  1  0
  2 37  1  0
  2 38  1  0
  3  4  1  0
  4  5  2  0
  6  4  1  6
  6  7  1  0
  6 12  1  0
  6 33  1  0
  7  8  2  0
  7  9  1  0
  9 10  1  0
 10 11  1  0
 10 39  1  0
 10 40  1  0
 11 41  1  0
 11 42  1  0
 11 43  1  0
 12 13  2  0
 13 14  1  0
 14 15  1  0
 14 33  1  0
 15 16  1  0
 15 44  1  0
 15 45  1  0
 16 17  2  0
 16 32  1  0
 17 18  1  0
 17 24  1  0
 18 19  2  0
 18 23  1  0
 19 20  1  0
 19 46  1  0
 20 21  2  0
 20 47  1  0
 21 22  1  0
 21 48  1  0
 22 23  2  0
 22 49  1  0
 23 50  1  0
 24 25  1  0
 25 26  1  0
 25 32  2  0
 26 27  2  0
 26 31  1  0
 27 28  1  0
 27 51  1  0
 28 29  2  0
 28 52  1  0
 29 30  1  0
 29 53  1  0
 30 31  2  0
 30 54  1  0
 31 55  1  0
 32 33  1  0
 33 56  1  6
M  END

