
     RDKit          3D

 34 34  0  0  0  0  0  0  0  0999 V2000
    0.8560   -0.0462    0.3155 C   0  0  0  0  0  0  0  0  0  0  0  0
    2.3833   -0.0828    0.2514 C   0  0  0  0  0  0  0  0  0  0  0  0
    2.9209   -1.0359   -0.8191 C   0  0  0  0  0  0  0  0  0  0  0  0
    4.4527   -1.0931   -0.8821 C   0  0  1  0  0  0  0  0  0  0  0  0
    5.0542   -1.4601    0.3542 O   0  0  0  0  0  0  0  0  0  0  0  0
    4.8085   -2.7617    0.8444 C   0  0  0  0  0  0  0  0  0  0  0  0
    4.9613   -1.9535   -2.0635 C   0  0  1  0  0  0  0  0  0  0  0  0
    4.4156   -1.5026   -3.2931 O   0  0  0  0  0  0  0  0  0  0  0  0
    6.4978   -2.0179   -2.1162 C   0  0  0  0  0  0  0  0  0  0  0  0
    6.9974   -3.1450   -2.9861 C   0  0  0  0  0  0  0  0  0  0  0  0
    7.6303   -2.9204   -4.2180 C   0  0  0  0  0  0  0  0  0  0  0  0
    8.0498   -4.0143   -4.9768 C   0  0  0  0  0  0  0  0  0  0  0  0
    7.8227   -5.3008   -4.4856 C   0  0  0  0  0  0  0  0  0  0  0  0
    7.1792   -5.4266   -3.2502 C   0  0  0  0  0  0  0  0  0  0  0  0
    6.7782   -4.3850   -2.5210 N   0  0  0  0  0  0  0  0  0  0  0  0
    0.4996    0.6540    1.0881 H   0  0  0  0  0  0  0  0  0  0  0  0
    0.4402   -1.0403    0.5516 H   0  0  0  0  0  0  0  0  0  0  0  0
    0.4204    0.2696   -0.6475 H   0  0  0  0  0  0  0  0  0  0  0  0
    2.7955   -0.3698    1.2333 H   0  0  0  0  0  0  0  0  0  0  0  0
    2.7703    0.9341    0.0554 H   0  0  0  0  0  0  0  0  0  0  0  0
    2.5614   -0.7368   -1.8164 H   0  0  0  0  0  0  0  0  0  0  0  0
    2.5174   -2.0518   -0.6566 H   0  0  0  0  0  0  0  0  0  0  0  0
    4.8241   -0.0629   -1.0486 H   0  0  0  0  0  0  0  0  0  0  0  0
    5.2873   -2.8200    1.8332 H   0  0  0  0  0  0  0  0  0  0  0  0
    5.2460   -3.5497    0.2035 H   0  0  0  0  0  0  0  0  0  0  0  0
    3.7314   -2.9748    0.9742 H   0  0  0  0  0  0  0  0  0  0  0  0
    4.5821   -2.9815   -1.9476 H   0  0  0  0  0  0  0  0  0  0  0  0
    4.7373   -0.6035   -3.4508 H   0  0  0  0  0  0  0  0  0  0  0  0
    6.8771   -2.1596   -1.0937 H   0  0  0  0  0  0  0  0  0  0  0  0
    6.8858   -1.0473   -2.4719 H   0  0  0  0  0  0  0  0  0  0  0  0
    7.7896   -1.8998   -4.5736 H   0  0  0  0  0  0  0  0  0  0  0  0
    8.5456   -3.8635   -5.9396 H   0  0  0  0  0  0  0  0  0  0  0  0
    8.1329   -6.1878   -5.0424 H   0  0  0  0  0  0  0  0  0  0  0  0
    6.9803   -6.4207   -2.8314 H   0  0  0  0  0  0  0  0  0  0  0  0
  1  2  1  0
  1 16  1  0
  1 17  1  0
  1 18  1  0
  2  3  1  0
  2 19  1  0
  2 20  1  0
  3  4  1  0
  3 21  1  0
  3 22  1  0
  4  5  1  0
  4  7  1  0
  4 23  1  6
  5  6  1  0
  6 24  1  0
  6 25  1  0
  6 26  1  0
  7  8  1  0
  7  9  1  0
  7 27  1  1
  8 28  1  0
  9 10  1  0
  9 29  1  0
  9 30  1  0
 10 11  2  0
 10 15  1  0
 11 12  1  0
 11 31  1  0
 12 13  2  0
 12 32  1  0
 13 14  1  0
 13 33  1  0
 14 15  2  0
 14 34  1  0
M  END

