
     RDKit          3D

 33 35  0  0  0  0  0  0  0  0999 V2000
    1.8427    1.0665    1.4630 O   0  0  0  0  0  0  0  0  0  0  0  0
    2.8940    0.6023    1.0931 C   0  0  0  0  0  0  0  0  0  0  0  0
    3.6075   -0.6648    1.5972 C   0  0  0  0  0  0  0  0  0  0  0  0
    4.8611   -0.7268    0.7632 C   0  0  0  0  0  0  0  0  0  0  0  0
    5.9147   -1.6301    0.7339 C   0  0  0  0  0  0  0  0  0  0  0  0
    6.9849   -1.4398   -0.1635 C   0  0  0  0  0  0  0  0  0  0  0  0
    8.1323   -2.4126   -0.1663 C   0  0  1  0  0  0  0  0  0  0  0  0
    8.1674   -3.4448   -1.9002 Br  0  0  0  0  0  0  0  0  0  0  0  0
    9.5321   -1.8140    0.0612 C   0  0  0  0  0  0  0  0  0  0  0  0
    9.6918   -1.2423    1.4560 C   0  0  0  0  0  0  0  0  0  0  0  0
   10.0288   -2.0790    2.5322 C   0  0  0  0  0  0  0  0  0  0  0  0
   10.1612   -1.5799    3.8299 C   0  0  0  0  0  0  0  0  0  0  0  0
    9.9546   -0.2172    4.0603 C   0  0  0  0  0  0  0  0  0  0  0  0
   10.1362    0.4796    5.8270 Br  0  0  0  0  0  0  0  0  0  0  0  0
    9.6215    0.6403    3.0090 C   0  0  0  0  0  0  0  0  0  0  0  0
    9.4910    0.1214    1.7183 C   0  0  0  0  0  0  0  0  0  0  0  0
    6.9569   -0.3324   -1.0280 C   0  0  0  0  0  0  0  0  0  0  0  0
    5.9027    0.5865   -1.0160 C   0  0  0  0  0  0  0  0  0  0  0  0
    4.8614    0.3774   -0.1117 C   0  0  0  0  0  0  0  0  0  0  0  0
    3.7087    1.1334    0.0994 N   0  0  0  0  0  0  0  0  0  0  0  0
    2.9398   -1.5326    1.4658 H   0  0  0  0  0  0  0  0  0  0  0  0
    3.7953   -0.5679    2.6796 H   0  0  0  0  0  0  0  0  0  0  0  0
    5.9203   -2.4903    1.4091 H   0  0  0  0  0  0  0  0  0  0  0  0
    7.9483   -3.2014    0.5732 H   0  0  0  0  0  0  0  0  0  0  0  0
    9.7288   -1.0402   -0.6961 H   0  0  0  0  0  0  0  0  0  0  0  0
   10.2742   -2.6104   -0.0988 H   0  0  0  0  0  0  0  0  0  0  0  0
   10.2023   -3.1449    2.3556 H   0  0  0  0  0  0  0  0  0  0  0  0
   10.4290   -2.2425    4.6546 H   0  0  0  0  0  0  0  0  0  0  0  0
    9.4664    1.7041    3.1961 H   0  0  0  0  0  0  0  0  0  0  0  0
    9.2280    0.7962    0.9000 H   0  0  0  0  0  0  0  0  0  0  0  0
    7.7664   -0.1941   -1.7488 H   0  0  0  0  0  0  0  0  0  0  0  0
    5.8971    1.4368   -1.7016 H   0  0  0  0  0  0  0  0  0  0  0  0
    3.4593    1.9789   -0.4005 H   0  0  0  0  0  0  0  0  0  0  0  0
  1  2  2  0
  2  3  1  0
  2 20  1  0
  3  4  1  0
  3 21  1  0
  3 22  1  0
  4  5  2  0
  4 19  1  0
  5  6  1  0
  5 23  1  0
  6  7  1  0
  6 17  2  0
  7  8  1  0
  7  9  1  0
  7 24  1  1
  9 10  1  0
  9 25  1  0
  9 26  1  0
 10 11  2  0
 10 16  1  0
 11 12  1  0
 11 27  1  0
 12 13  2  0
 12 28  1  0
 13 14  1  0
 13 15  1  0
 15 16  2  0
 15 29  1  0
 16 30  1  0
 17 18  1  0
 17 31  1  0
 18 19  2  0
 18 32  1  0
 19 20  1  0
 20 33  1  0
M  END

