
     RDKit          3D

 49 49  0  0  0  0  0  0  0  0999 V2000
    1.1877   -0.0915   -0.8839 C   0  0  0  0  0  0  0  0  0  0  0  0
    2.5613   -0.0170   -0.2210 C   0  0  0  0  0  0  0  0  0  0  0  0
    3.2024    1.3040   -0.3118 N   0  0  0  0  0  0  0  0  0  0  0  0
    2.4284    2.3721    0.3159 C   0  0  0  0  0  0  0  0  0  0  0  0
    2.0207    2.1807    1.7892 C   0  0  0  0  0  0  0  0  0  0  0  0
    1.4003    3.3414    2.3028 O   0  0  0  0  0  0  0  0  0  0  0  0
    4.6604    1.2166   -0.0923 C   0  0  1  0  0  0  0  0  0  0  0  0
    5.2841    0.3779   -1.2383 C   0  0  0  0  0  0  0  0  0  0  0  0
    6.2074   -0.3913   -1.0279 O   0  0  0  0  0  0  0  0  0  0  0  0
    4.7324    0.6480   -2.4586 N   0  0  0  0  0  0  0  0  0  0  0  0
    5.0548    0.1249   -3.7268 C   0  0  0  0  0  0  0  0  0  0  0  0
    6.1045   -0.7754   -3.9415 C   0  0  0  0  0  0  0  0  0  0  0  0
    6.3550   -1.2355   -5.2434 C   0  0  0  0  0  0  0  0  0  0  0  0
    5.5799   -0.8194   -6.3225 C   0  0  0  0  0  0  0  0  0  0  0  0
    5.7583   -1.2030   -7.6260 O   0  0  0  0  0  0  0  0  0  0  0  0
    6.8011   -2.0949   -7.9357 C   0  0  0  0  0  0  0  0  0  0  0  0
    4.5086    0.0906   -6.1158 C   0  0  0  0  0  0  0  0  0  0  0  0
    3.7178    0.4517   -7.1955 N   0  0  0  0  0  0  0  0  0  0  0  0
    4.2689    0.5486   -4.8169 C   0  0  0  0  0  0  0  0  0  0  0  0
    5.3985    2.5950    0.0074 C   0  0  1  0  0  0  0  0  0  0  0  0
    5.4306    3.1449    1.4435 C   0  0  0  0  0  0  0  0  0  0  0  0
    6.8433    2.5485   -0.5233 C   0  0  0  0  0  0  0  0  0  0  0  0
    0.8208   -1.1295   -0.8638 H   0  0  0  0  0  0  0  0  0  0  0  0
    1.2417    0.2290   -1.9367 H   0  0  0  0  0  0  0  0  0  0  0  0
    0.4338    0.5307   -0.3775 H   0  0  0  0  0  0  0  0  0  0  0  0
    3.2209   -0.7458   -0.7151 H   0  0  0  0  0  0  0  0  0  0  0  0
    2.4876   -0.3613    0.8328 H   0  0  0  0  0  0  0  0  0  0  0  0
    1.5047    2.5353   -0.2638 H   0  0  0  0  0  0  0  0  0  0  0  0
    2.9866    3.3156    0.2291 H   0  0  0  0  0  0  0  0  0  0  0  0
    2.8948    1.8730    2.3968 H   0  0  0  0  0  0  0  0  0  0  0  0
    1.2759    1.3755    1.8834 H   0  0  0  0  0  0  0  0  0  0  0  0
    2.0468    4.0597    2.2992 H   0  0  0  0  0  0  0  0  0  0  0  0
    4.9121    0.6362    0.8189 H   0  0  0  0  0  0  0  0  0  0  0  0
    3.9056    1.2394   -2.3906 H   0  0  0  0  0  0  0  0  0  0  0  0
    6.7106   -1.1088   -3.1032 H   0  0  0  0  0  0  0  0  0  0  0  0
    7.1794   -1.9326   -5.3981 H   0  0  0  0  0  0  0  0  0  0  0  0
    6.7628   -2.2643   -9.0207 H   0  0  0  0  0  0  0  0  0  0  0  0
    6.6797   -3.0644   -7.4187 H   0  0  0  0  0  0  0  0  0  0  0  0
    7.7915   -1.6789   -7.6731 H   0  0  0  0  0  0  0  0  0  0  0  0
    4.1377    0.2817   -8.1023 H   0  0  0  0  0  0  0  0  0  0  0  0
    3.2299    1.3362   -7.1231 H   0  0  0  0  0  0  0  0  0  0  0  0
    3.4458    1.2503   -4.6498 H   0  0  0  0  0  0  0  0  0  0  0  0
    4.8442    3.3020   -0.6354 H   0  0  0  0  0  0  0  0  0  0  0  0
    6.0026    2.4693    2.1011 H   0  0  0  0  0  0  0  0  0  0  0  0
    4.4361    3.2716    1.8909 H   0  0  0  0  0  0  0  0  0  0  0  0
    5.9291    4.1272    1.4671 H   0  0  0  0  0  0  0  0  0  0  0  0
    7.4384    1.7835   -0.0024 H   0  0  0  0  0  0  0  0  0  0  0  0
    7.3254    3.5265   -0.3676 H   0  0  0  0  0  0  0  0  0  0  0  0
    6.8867    2.3244   -1.5983 H   0  0  0  0  0  0  0  0  0  0  0  0
  1  2  1  0
  1 23  1  0
  1 24  1  0
  1 25  1  0
  2  3  1  0
  2 26  1  0
  2 27  1  0
  3  4  1  0
  3  7  1  0
  4  5  1  0
  4 28  1  0
  4 29  1  0
  5  6  1  0
  5 30  1  0
  5 31  1  0
  6 32  1  0
  7  8  1  0
  7 20  1  0
  7 33  1  1
  8  9  2  0
  8 10  1  0
 10 11  1  0
 10 34  1  0
 11 12  2  0
 11 19  1  0
 12 13  1  0
 12 35  1  0
 13 14  2  0
 13 36  1  0
 14 15  1  0
 14 17  1  0
 15 16  1  0
 16 37  1  0
 16 38  1  0
 16 39  1  0
 17 18  1  0
 17 19  2  0
 18 40  1  0
 18 41  1  0
 19 42  1  0
 20 21  1  0
 20 22  1  0
 20 43  1  6
 21 44  1  0
 21 45  1  0
 21 46  1  0
 22 47  1  0
 22 48  1  0
 22 49  1  0
M  END

