
     RDKit          3D

 29 30  0  0  0  0  0  0  0  0999 V2000
    3.6600   -0.1351   -1.1272 C   0  0  0  0  0  0  0  0  0  0  0  0
    2.5854   -0.2310   -0.0320 C   0  0  0  0  0  0  0  0  0  0  0  0
    2.9014    0.5823    1.1963 C   0  0  0  0  0  0  0  0  0  0  0  0
    3.3322    0.0420    2.3663 C   0  0  0  0  0  0  0  0  0  0  0  0
    3.6454    0.8581    3.5060 C   0  0  0  0  0  0  0  0  0  0  0  0
    4.1058    0.3276    4.7237 C   0  0  0  0  0  0  0  0  0  0  0  0
    4.4091    1.0565    5.7912 N   0  0  0  0  0  0  0  0  0  0  0  0
    4.2641    2.3690    5.6828 C   0  0  0  0  0  0  0  0  0  0  0  0
    4.6762    3.3281    7.0912 Cl  0  0  0  0  0  0  0  0  0  0  0  0
    3.8192    3.0386    4.5438 C   0  0  0  0  0  0  0  0  0  0  0  0
    3.4884    2.2696    3.4103 C   0  0  0  0  0  0  0  0  0  0  0  0
    3.0228    2.8184    2.2310 N   0  0  0  0  0  0  0  0  0  0  0  0
    2.8256    4.2704    2.0937 C   0  0  0  0  0  0  0  0  0  0  0  0
    4.0901    5.0137    1.6667 C   0  0  0  0  0  0  0  0  0  0  0  0
    2.7393    2.0444    1.0810 C   0  0  0  0  0  0  0  0  0  0  0  0
    2.3684    2.5909    0.0517 O   0  0  0  0  0  0  0  0  0  0  0  0
    3.3756   -0.7422   -2.0013 H   0  0  0  0  0  0  0  0  0  0  0  0
    4.6342   -0.5001   -0.7638 H   0  0  0  0  0  0  0  0  0  0  0  0
    3.7811    0.9052   -1.4620 H   0  0  0  0  0  0  0  0  0  0  0  0
    2.4482   -1.2834    0.2654 H   0  0  0  0  0  0  0  0  0  0  0  0
    1.6266    0.1214   -0.4464 H   0  0  0  0  0  0  0  0  0  0  0  0
    3.4518   -1.0422    2.4584 H   0  0  0  0  0  0  0  0  0  0  0  0
    4.2285   -0.7583    4.8169 H   0  0  0  0  0  0  0  0  0  0  0  0
    3.7462    4.1228    4.5570 H   0  0  0  0  0  0  0  0  0  0  0  0
    2.4327    4.6558    3.0450 H   0  0  0  0  0  0  0  0  0  0  0  0
    2.0471    4.4002    1.3324 H   0  0  0  0  0  0  0  0  0  0  0  0
    4.9113    4.8831    2.3887 H   0  0  0  0  0  0  0  0  0  0  0  0
    3.8804    6.0916    1.5813 H   0  0  0  0  0  0  0  0  0  0  0  0
    4.4301    4.6557    0.6836 H   0  0  0  0  0  0  0  0  0  0  0  0
  1  2  1  0
  1 17  1  0
  1 18  1  0
  1 19  1  0
  2  3  1  0
  2 20  1  0
  2 21  1  0
  3  4  2  0
  3 15  1  0
  4  5  1  0
  4 22  1  0
  5  6  2  0
  5 11  1  0
  6  7  1  0
  6 23  1  0
  7  8  2  0
  8  9  1  0
  8 10  1  0
 10 11  2  0
 10 24  1  0
 11 12  1  0
 12 13  1  0
 12 15  1  0
 13 14  1  0
 13 25  1  0
 13 26  1  0
 14 27  1  0
 14 28  1  0
 14 29  1  0
 15 16  2  0
M  END

