
     RDKit          3D

 53 54  0  0  0  0  0  0  0  0999 V2000
    0.6798   -1.1056   -0.7203 C   0  0  0  0  0  0  0  0  0  0  0  0
    2.2073   -1.0324   -0.7260 C   0  0  0  0  0  0  0  0  0  0  0  0
    2.8200   -1.2872    0.6597 C   0  0  0  0  0  0  0  0  0  0  0  0
    4.2761   -1.1443    0.7226 N   0  0  0  0  0  0  0  0  0  0  0  0
    4.7422    0.0583    1.4079 C   0  0  0  0  0  0  0  0  0  0  0  0
    4.8482    0.0134    2.9631 C   0  0  1  0  0  0  0  0  0  0  0  0
    5.5038    1.2922    3.5231 C   0  0  0  0  0  0  0  0  0  0  0  0
    4.5362    2.4835    3.5758 C   0  0  0  0  0  0  0  0  0  0  0  0
    3.2587    2.1040    4.3330 C   0  0  0  0  0  0  0  0  0  0  0  0
    2.6323    0.8462    3.7269 C   0  0  0  0  0  0  0  0  0  0  0  0
    3.6065   -0.2357    3.7008 N   0  0  0  0  0  0  0  0  0  0  0  0
    5.0407   -2.3888    0.9031 C   0  0  1  0  0  0  0  0  0  0  0  0
    4.7216   -3.4304   -0.1934 C   0  0  0  0  0  0  0  0  0  0  0  0
    5.2643   -3.0633   -1.5850 C   0  0  2  0  0  0  0  0  0  0  0  0
    4.9118   -4.1317   -2.6234 C   0  0  0  0  0  0  0  0  0  0  0  0
    6.7766   -2.8051   -1.5195 C   0  0  0  0  0  0  0  0  0  0  0  0
    7.1511   -1.7629   -0.4554 C   0  0  2  0  0  0  0  0  0  0  0  0
    8.6650   -1.5482   -0.3749 C   0  0  0  0  0  0  0  0  0  0  0  0
    6.5684   -2.1721    0.9072 C   0  0  0  0  0  0  0  0  0  0  0  0
    0.2612   -0.9103   -1.7202 H   0  0  0  0  0  0  0  0  0  0  0  0
    0.2426   -0.3660   -0.0280 H   0  0  0  0  0  0  0  0  0  0  0  0
    0.3244   -2.1008   -0.4023 H   0  0  0  0  0  0  0  0  0  0  0  0
    2.5382   -0.0380   -1.0738 H   0  0  0  0  0  0  0  0  0  0  0  0
    2.6144   -1.7558   -1.4508 H   0  0  0  0  0  0  0  0  0  0  0  0
    2.5143   -2.2909    1.0123 H   0  0  0  0  0  0  0  0  0  0  0  0
    2.3451   -0.5834    1.3624 H   0  0  0  0  0  0  0  0  0  0  0  0
    4.0813    0.8845    1.0999 H   0  0  0  0  0  0  0  0  0  0  0  0
    5.7375    0.3356    1.0213 H   0  0  0  0  0  0  0  0  0  0  0  0
    5.5184   -0.8264    3.2116 H   0  0  0  0  0  0  0  0  0  0  0  0
    6.3994    1.5450    2.9311 H   0  0  0  0  0  0  0  0  0  0  0  0
    5.8495    1.0753    4.5480 H   0  0  0  0  0  0  0  0  0  0  0  0
    4.2732    2.8082    2.5527 H   0  0  0  0  0  0  0  0  0  0  0  0
    5.0282    3.3475    4.0533 H   0  0  0  0  0  0  0  0  0  0  0  0
    2.5307    2.9324    4.3176 H   0  0  0  0  0  0  0  0  0  0  0  0
    3.5050    1.9022    5.3902 H   0  0  0  0  0  0  0  0  0  0  0  0
    2.2220    1.1072    2.7226 H   0  0  0  0  0  0  0  0  0  0  0  0
    1.7711    0.5205    4.3339 H   0  0  0  0  0  0  0  0  0  0  0  0
    3.1842   -1.1202    3.4341 H   0  0  0  0  0  0  0  0  0  0  0  0
    4.7786   -2.8634    1.8784 H   0  0  0  0  0  0  0  0  0  0  0  0
    3.6378   -3.6176   -0.2510 H   0  0  0  0  0  0  0  0  0  0  0  0
    5.1708   -4.3898    0.1224 H   0  0  0  0  0  0  0  0  0  0  0  0
    4.7857   -2.1160   -1.8882 H   0  0  0  0  0  0  0  0  0  0  0  0
    5.3588   -5.1062   -2.3601 H   0  0  0  0  0  0  0  0  0  0  0  0
    5.2831   -3.8567   -3.6244 H   0  0  0  0  0  0  0  0  0  0  0  0
    3.8215   -4.2776   -2.6996 H   0  0  0  0  0  0  0  0  0  0  0  0
    7.1455   -2.4825   -2.5093 H   0  0  0  0  0  0  0  0  0  0  0  0
    7.2981   -3.7556   -1.2910 H   0  0  0  0  0  0  0  0  0  0  0  0
    6.6835   -0.8059   -0.7504 H   0  0  0  0  0  0  0  0  0  0  0  0
    9.1821   -2.4755   -0.0729 H   0  0  0  0  0  0  0  0  0  0  0  0
    8.9247   -0.7692    0.3609 H   0  0  0  0  0  0  0  0  0  0  0  0
    9.0791   -1.2400   -1.3489 H   0  0  0  0  0  0  0  0  0  0  0  0
    6.8707   -1.4498    1.6798 H   0  0  0  0  0  0  0  0  0  0  0  0
    7.0265   -3.1315    1.2086 H   0  0  0  0  0  0  0  0  0  0  0  0
  1  2  1  0
  1 20  1  0
  1 21  1  0
  1 22  1  0
  2  3  1  0
  2 23  1  0
  2 24  1  0
  3  4  1  0
  3 25  1  0
  3 26  1  0
  4  5  1  0
  4 12  1  0
  5  6  1  0
  5 27  1  0
  5 28  1  0
  6  7  1  0
  6 11  1  0
  6 29  1  6
  7  8  1  0
  7 30  1  0
  7 31  1  0
  8  9  1  0
  8 32  1  0
  8 33  1  0
  9 10  1  0
  9 34  1  0
  9 35  1  0
 10 11  1  0
 10 36  1  0
 10 37  1  0
 11 38  1  0
 12 13  1  0
 12 19  1  0
 12 39  1  1
 13 14  1  0
 13 40  1  0
 13 41  1  0
 14 15  1  0
 14 16  1  0
 14 42  1  6
 15 43  1  0
 15 44  1  0
 15 45  1  0
 16 17  1  0
 16 46  1  0
 16 47  1  0
 17 18  1  0
 17 19  1  0
 17 48  1  6
 18 49  1  0
 18 50  1  0
 18 51  1  0
 19 52  1  0
 19 53  1  0
M  END

