
     RDKit          3D

 42 43  0  0  0  0  0  0  0  0999 V2000
    5.2880   -3.3759    4.3696 N   0  0  0  0  0  0  0  0  0  0  0  0
    5.4628   -2.0345    4.2785 C   0  0  0  0  0  0  0  0  0  0  0  0
    5.5548   -1.2783    5.2263 O   0  0  0  0  0  0  0  0  0  0  0  0
    5.5250   -1.4895    2.8494 C   0  0  0  0  0  0  0  0  0  0  0  0
    5.5172   -2.5324    1.8940 O   0  0  0  0  0  0  0  0  0  0  0  0
    5.2606   -2.1527    0.5492 C   0  0  2  0  0  0  0  0  0  0  0  0
    4.3739   -1.4879    0.5213 H   0  0  0  0  0  0  0  0  0  0  0  0
    4.9534   -3.4227   -0.2440 C   0  0  0  0  0  0  0  0  0  0  0  0
    4.8006   -3.1021   -1.7323 C   0  0  0  0  0  0  0  0  0  0  0  0
    5.9422   -2.4472   -2.2358 O   0  0  0  0  0  0  0  0  0  0  0  0
    6.1880   -1.2171   -1.5938 C   0  0  0  0  0  0  0  0  0  0  0  0
    6.4344   -1.3704   -0.0798 C   0  0  2  0  0  0  0  0  0  0  0  0
    6.4768   -0.3474    0.3377 H   0  0  0  0  0  0  0  0  0  0  0  0
    7.6806   -2.0568    0.2232 N   0  0  0  0  0  0  0  0  0  0  0  0
    8.8920   -1.4496    0.0187 C   0  0  0  0  0  0  0  0  0  0  0  0
    8.9831   -0.3493   -0.5097 O   0  0  0  0  0  0  0  0  0  0  0  0
   10.1051   -2.2087    0.4842 C   0  0  0  0  0  0  0  0  0  0  0  0
   10.1129   -3.5937    0.7156 C   0  0  0  0  0  0  0  0  0  0  0  0
   11.2809   -4.2354    1.1299 C   0  0  0  0  0  0  0  0  0  0  0  0
   12.4650   -3.5114    1.3313 C   0  0  0  0  0  0  0  0  0  0  0  0
   13.7242   -4.2008    1.8227 C   0  0  0  0  0  0  0  0  0  0  0  0
   14.9183   -3.5548    1.4461 O   0  0  0  0  0  0  0  0  0  0  0  0
   12.4580   -2.1294    1.0873 C   0  0  0  0  0  0  0  0  0  0  0  0
   11.2963   -1.4884    0.6602 C   0  0  0  0  0  0  0  0  0  0  0  0
    5.2346   -3.8008    5.2872 H   0  0  0  0  0  0  0  0  0  0  0  0
    5.2215   -3.9377    3.5308 H   0  0  0  0  0  0  0  0  0  0  0  0
    6.4317   -0.8619    2.7794 H   0  0  0  0  0  0  0  0  0  0  0  0
    4.6529   -0.8205    2.7164 H   0  0  0  0  0  0  0  0  0  0  0  0
    4.0374   -3.8923    0.1501 H   0  0  0  0  0  0  0  0  0  0  0  0
    5.7779   -4.1423   -0.1128 H   0  0  0  0  0  0  0  0  0  0  0  0
    3.8956   -2.4766   -1.8926 H   0  0  0  0  0  0  0  0  0  0  0  0
    4.6725   -4.0245   -2.3184 H   0  0  0  0  0  0  0  0  0  0  0  0
    5.3317   -0.5236   -1.7376 H   0  0  0  0  0  0  0  0  0  0  0  0
    7.0729   -0.7674   -2.0605 H   0  0  0  0  0  0  0  0  0  0  0  0
    7.6257   -2.8037    0.9069 H   0  0  0  0  0  0  0  0  0  0  0  0
    9.2148   -4.1894    0.5347 H   0  0  0  0  0  0  0  0  0  0  0  0
   11.2744   -5.3184    1.2864 H   0  0  0  0  0  0  0  0  0  0  0  0
   13.7072   -5.2636    1.5061 H   0  0  0  0  0  0  0  0  0  0  0  0
   13.7256   -4.2092    2.9271 H   0  0  0  0  0  0  0  0  0  0  0  0
   14.9523   -3.5268    0.4799 H   0  0  0  0  0  0  0  0  0  0  0  0
   13.3815   -1.5644    1.2310 H   0  0  0  0  0  0  0  0  0  0  0  0
   11.2856   -0.4163    0.4544 H   0  0  0  0  0  0  0  0  0  0  0  0
  1  2  1  0
  1 25  1  0
  1 26  1  0
  2  3  2  0
  2  4  1  0
  4  5  1  0
  4 27  1  0
  4 28  1  0
  5  6  1  0
  6  7  1  1
  6  8  1  0
  6 12  1  0
  8  9  1  0
  8 29  1  0
  8 30  1  0
  9 10  1  0
  9 31  1  0
  9 32  1  0
 10 11  1  0
 11 12  1  0
 11 33  1  0
 11 34  1  0
 12 13  1  1
 12 14  1  0
 14 15  1  0
 14 35  1  0
 15 16  2  0
 15 17  1  0
 17 18  2  0
 17 24  1  0
 18 19  1  0
 18 36  1  0
 19 20  2  0
 19 37  1  0
 20 21  1  0
 20 23  1  0
 21 22  1  0
 21 38  1  0
 21 39  1  0
 22 40  1  0
 23 24  2  0
 23 41  1  0
 24 42  1  0
M  END

