
     RDKit          3D

 53 56  0  0  0  0  0  0  0  0999 V2000
    2.2092    0.5692    0.2817 C   0  0  0  0  0  0  0  0  0  0  0  0
    3.0586    0.0976   -0.7381 O   0  0  0  0  0  0  0  0  0  0  0  0
    3.2649   -1.2372   -0.8748 C   0  0  0  0  0  0  0  0  0  0  0  0
    4.1530   -1.6158   -1.8873 C   0  0  0  0  0  0  0  0  0  0  0  0
    4.4568   -2.9673   -2.0922 C   0  0  0  0  0  0  0  0  0  0  0  0
    5.3358   -3.2319   -3.0886 O   0  0  0  0  0  0  0  0  0  0  0  0
    5.7204   -4.5671   -3.3367 C   0  0  0  0  0  0  0  0  0  0  0  0
    3.8648   -3.9513   -1.2832 C   0  0  0  0  0  0  0  0  0  0  0  0
    2.9535   -3.5680   -0.2923 C   0  0  0  0  0  0  0  0  0  0  0  0
    2.4155   -4.6583    0.6036 C   0  0  0  0  0  0  0  0  0  0  0  0
    3.1744   -5.4959    1.0670 O   0  0  0  0  0  0  0  0  0  0  0  0
    1.0657   -4.6540    0.9057 N   0  0  0  0  0  0  0  0  0  0  0  0
    0.5627   -5.6367    1.8639 C   0  0  0  0  0  0  0  0  0  0  0  0
   -0.4582   -4.9922    2.8040 C   0  0  0  0  0  0  0  0  0  0  0  0
   -1.6050   -4.3006    2.0368 C   0  0  2  0  0  0  0  0  0  0  0  0
   -1.0274   -3.3584    0.9742 C   0  0  0  0  0  0  0  0  0  0  0  0
    0.0188   -4.0481    0.0911 C   0  0  0  0  0  0  0  0  0  0  0  0
   -2.5472   -3.6250    2.9319 N   0  0  0  0  0  0  0  0  0  0  0  0
   -3.5377   -4.5194    3.3236 C   0  0  0  0  0  0  0  0  0  0  0  0
   -4.2889   -4.4046    4.2681 O   0  0  0  0  0  0  0  0  0  0  0  0
   -3.4620   -5.5759    2.4124 N   0  0  0  0  0  0  0  0  0  0  0  0
   -4.1776   -6.7900    2.4004 C   0  0  0  0  0  0  0  0  0  0  0  0
   -5.2173   -7.0348    3.3199 C   0  0  0  0  0  0  0  0  0  0  0  0
   -5.9085   -8.2458    3.2819 C   0  0  0  0  0  0  0  0  0  0  0  0
   -5.5728   -9.2077    2.3323 C   0  0  0  0  0  0  0  0  0  0  0  0
   -6.2465  -10.3699    2.3002 F   0  0  0  0  0  0  0  0  0  0  0  0
   -4.5520   -8.9818    1.4147 C   0  0  0  0  0  0  0  0  0  0  0  0
   -3.8548   -7.7727    1.4474 C   0  0  0  0  0  0  0  0  0  0  0  0
   -2.4864   -5.3123    1.4160 N   0  0  0  0  0  0  0  0  0  0  0  0
    2.6503   -2.2157   -0.0733 C   0  0  0  0  0  0  0  0  0  0  0  0
    2.2101    1.6651    0.2080 H   0  0  0  0  0  0  0  0  0  0  0  0
    2.5687    0.2794    1.2857 H   0  0  0  0  0  0  0  0  0  0  0  0
    1.1722    0.2066    0.1576 H   0  0  0  0  0  0  0  0  0  0  0  0
    4.6228   -0.8532   -2.5092 H   0  0  0  0  0  0  0  0  0  0  0  0
    6.4341   -4.5353   -4.1707 H   0  0  0  0  0  0  0  0  0  0  0  0
    4.8595   -5.1960   -3.6264 H   0  0  0  0  0  0  0  0  0  0  0  0
    6.2134   -5.0228   -2.4598 H   0  0  0  0  0  0  0  0  0  0  0  0
    4.1083   -5.0071   -1.3863 H   0  0  0  0  0  0  0  0  0  0  0  0
    1.4202   -6.0411    2.4144 H   0  0  0  0  0  0  0  0  0  0  0  0
    0.0864   -6.4766    1.3256 H   0  0  0  0  0  0  0  0  0  0  0  0
    0.0434   -4.2364    3.4324 H   0  0  0  0  0  0  0  0  0  0  0  0
   -0.8808   -5.7548    3.4771 H   0  0  0  0  0  0  0  0  0  0  0  0
   -0.5614   -2.5063    1.4961 H   0  0  0  0  0  0  0  0  0  0  0  0
   -1.8473   -2.9491    0.3608 H   0  0  0  0  0  0  0  0  0  0  0  0
    0.4563   -3.3323   -0.6133 H   0  0  0  0  0  0  0  0  0  0  0  0
   -0.4737   -4.8364   -0.5114 H   0  0  0  0  0  0  0  0  0  0  0  0
   -2.2236   -2.9811    3.6460 H   0  0  0  0  0  0  0  0  0  0  0  0
   -5.4696   -6.2760    4.0577 H   0  0  0  0  0  0  0  0  0  0  0  0
   -6.7148   -8.4503    3.9892 H   0  0  0  0  0  0  0  0  0  0  0  0
   -4.3078   -9.7527    0.6810 H   0  0  0  0  0  0  0  0  0  0  0  0
   -3.0484   -7.5870    0.7391 H   0  0  0  0  0  0  0  0  0  0  0  0
   -2.9755   -4.8685    0.6297 H   0  0  0  0  0  0  0  0  0  0  0  0
    1.9740   -1.9379    0.7335 H   0  0  0  0  0  0  0  0  0  0  0  0
  1  2  1  0
  1 31  1  0
  1 32  1  0
  1 33  1  0
  2  3  1  0
  3  4  2  0
  3 30  1  0
  4  5  1  0
  4 34  1  0
  5  6  1  0
  5  8  2  0
  6  7  1  0
  7 35  1  0
  7 36  1  0
  7 37  1  0
  8  9  1  0
  8 38  1  0
  9 10  1  0
  9 30  2  0
 10 11  2  0
 10 12  1  0
 12 13  1  0
 12 17  1  0
 13 14  1  0
 13 39  1  0
 13 40  1  0
 14 15  1  0
 14 41  1  0
 14 42  1  0
 15 16  1  0
 15 18  1  1
 15 29  1  0
 16 17  1  0
 16 43  1  0
 16 44  1  0
 17 45  1  0
 17 46  1  0
 18 19  1  0
 18 47  1  0
 19 20  2  0
 19 21  1  0
 21 22  1  0
 21 29  1  0
 22 23  2  0
 22 28  1  0
 23 24  1  0
 23 48  1  0
 24 25  2  0
 24 49  1  0
 25 26  1  0
 25 27  1  0
 27 28  2  0
 27 50  1  0
 28 51  1  0
 29 52  1  0
 30 53  1  0
M  END

