
     RDKit          3D

 78 81  0  0  0  0  0  0  0  0999 V2000
    7.8063  -14.8937  -10.0034 C   0  0  0  0  0  0  0  0  0  0  0  0
    7.1092  -14.7356   -8.6721 C   0  0  0  0  0  0  0  0  0  0  0  0
    6.5951  -15.8475   -7.9865 C   0  0  0  0  0  0  0  0  0  0  0  0
    5.9511  -15.7124   -6.7489 C   0  0  0  0  0  0  0  0  0  0  0  0
    5.4022  -16.9151   -6.0179 C   0  0  0  0  0  0  0  0  0  0  0  0
    5.8231  -14.4317   -6.1957 C   0  0  0  0  0  0  0  0  0  0  0  0
    6.3224  -13.2976   -6.8563 C   0  0  0  0  0  0  0  0  0  0  0  0
    6.1598  -11.9605   -6.2427 C   0  0  0  0  0  0  0  0  0  0  0  0
    6.4877  -10.7602   -6.8247 C   0  0  0  0  0  0  0  0  0  0  0  0
    6.1140   -9.4378   -5.7563 S   0  0  0  0  0  0  0  0  0  0  0  0
    5.5446  -10.6258   -4.5664 C   0  0  0  0  0  0  0  0  0  0  0  0
    5.0991  -10.2429   -3.3277 N   0  0  0  0  0  0  0  0  0  0  0  0
    4.4015  -11.2278   -2.4995 C   0  0  0  0  0  0  0  0  0  0  0  0
    4.6342  -10.9288   -1.0174 C   0  0  0  0  0  0  0  0  0  0  0  0
    4.3588   -9.5309   -0.6632 N   0  0  0  0  0  0  0  0  0  0  0  0
    2.7618   -9.1485   -0.2131 S   0  0  1  0  0  0  0  0  0  0  0  0
    2.6866   -7.6834   -0.1488 O   0  0  0  0  0  0  0  0  0  0  0  0
    1.8419   -9.8555   -1.1190 O   0  0  0  0  0  0  0  0  0  0  0  0
    2.6623   -9.8494    1.4695 C   0  0  0  0  0  0  0  0  0  0  0  0
    3.6431   -9.4358    2.4112 C   0  0  0  0  0  0  0  0  0  0  0  0
    4.6720   -8.3207    2.1947 C   0  0  1  0  0  0  0  0  0  0  0  0
    4.4012   -7.1441    3.1514 C   0  0  0  0  0  0  0  0  0  0  0  0
    6.1165   -8.8325    2.3148 C   0  0  0  0  0  0  0  0  0  0  0  0
    3.6452  -10.0591    3.6658 C   0  0  0  0  0  0  0  0  0  0  0  0
    2.7155  -11.0352    4.0285 C   0  0  0  0  0  0  0  0  0  0  0  0
    2.7743  -11.7006    5.3968 C   0  0  1  0  0  0  0  0  0  0  0  0
    1.5352  -11.3728    6.2483 C   0  0  0  0  0  0  0  0  0  0  0  0
    2.9925  -13.2195    5.2863 C   0  0  0  0  0  0  0  0  0  0  0  0
    1.7172  -11.3503    3.1033 C   0  0  0  0  0  0  0  0  0  0  0  0
    1.6378  -10.7708    1.8281 C   0  0  0  0  0  0  0  0  0  0  0  0
    0.4366  -11.1774    0.9620 C   0  0  1  0  0  0  0  0  0  0  0  0
    0.6711  -12.5413    0.2895 C   0  0  0  0  0  0  0  0  0  0  0  0
   -0.8855  -11.1699    1.7503 C   0  0  0  0  0  0  0  0  0  0  0  0
    5.0503   -8.5733   -1.5311 C   0  0  0  0  0  0  0  0  0  0  0  0
    4.8097   -8.8495   -3.0184 C   0  0  0  0  0  0  0  0  0  0  0  0
    5.6228  -11.8598   -4.9737 N   0  0  0  0  0  0  0  0  0  0  0  0
    6.9661  -13.4696   -8.0944 C   0  0  0  0  0  0  0  0  0  0  0  0
    7.8386  -15.9463  -10.3213 H   0  0  0  0  0  0  0  0  0  0  0  0
    8.8448  -14.5247   -9.9595 H   0  0  0  0  0  0  0  0  0  0  0  0
    7.2956  -14.3200  -10.7951 H   0  0  0  0  0  0  0  0  0  0  0  0
    6.7019  -16.8429   -8.4287 H   0  0  0  0  0  0  0  0  0  0  0  0
    5.5744  -17.8455   -6.5792 H   0  0  0  0  0  0  0  0  0  0  0  0
    4.3165  -16.8195   -5.8490 H   0  0  0  0  0  0  0  0  0  0  0  0
    5.8708  -17.0286   -5.0259 H   0  0  0  0  0  0  0  0  0  0  0  0
    5.3259  -14.2933   -5.2342 H   0  0  0  0  0  0  0  0  0  0  0  0
    6.9021  -10.5645   -7.8101 H   0  0  0  0  0  0  0  0  0  0  0  0
    4.7885  -12.2220   -2.7554 H   0  0  0  0  0  0  0  0  0  0  0  0
    3.3177  -11.2102   -2.7155 H   0  0  0  0  0  0  0  0  0  0  0  0
    5.6896  -11.1242   -0.7591 H   0  0  0  0  0  0  0  0  0  0  0  0
    4.0189  -11.5940   -0.3944 H   0  0  0  0  0  0  0  0  0  0  0  0
    4.5503   -7.9180    1.1879 H   0  0  0  0  0  0  0  0  0  0  0  0
    4.5198   -7.4290    4.2094 H   0  0  0  0  0  0  0  0  0  0  0  0
    3.3806   -6.7556    3.0139 H   0  0  0  0  0  0  0  0  0  0  0  0
    5.1058   -6.3216    2.9469 H   0  0  0  0  0  0  0  0  0  0  0  0
    6.3430   -9.2093    3.3254 H   0  0  0  0  0  0  0  0  0  0  0  0
    6.8278   -8.0178    2.1019 H   0  0  0  0  0  0  0  0  0  0  0  0
    6.3093   -9.6468    1.5996 H   0  0  0  0  0  0  0  0  0  0  0  0
    4.4023   -9.7620    4.3957 H   0  0  0  0  0  0  0  0  0  0  0  0
    3.6517  -11.2788    5.9169 H   0  0  0  0  0  0  0  0  0  0  0  0
    0.6164  -11.7830    5.7981 H   0  0  0  0  0  0  0  0  0  0  0  0
    1.3983  -10.2856    6.3561 H   0  0  0  0  0  0  0  0  0  0  0  0
    1.6322  -11.8060    7.2570 H   0  0  0  0  0  0  0  0  0  0  0  0
    2.1409  -13.7144    4.7911 H   0  0  0  0  0  0  0  0  0  0  0  0
    3.1013  -13.6695    6.2864 H   0  0  0  0  0  0  0  0  0  0  0  0
    3.8991  -13.4542    4.7070 H   0  0  0  0  0  0  0  0  0  0  0  0
    0.9516  -12.0756    3.3826 H   0  0  0  0  0  0  0  0  0  0  0  0
    0.3288  -10.4424    0.1611 H   0  0  0  0  0  0  0  0  0  0  0  0
    0.8091  -13.3416    1.0359 H   0  0  0  0  0  0  0  0  0  0  0  0
    1.5591  -12.5155   -0.3586 H   0  0  0  0  0  0  0  0  0  0  0  0
   -0.1913  -12.8121   -0.3410 H   0  0  0  0  0  0  0  0  0  0  0  0
   -0.9515  -11.9817    2.4926 H   0  0  0  0  0  0  0  0  0  0  0  0
   -1.7270  -11.3058    1.0523 H   0  0  0  0  0  0  0  0  0  0  0  0
   -1.0379  -10.2154    2.2782 H   0  0  0  0  0  0  0  0  0  0  0  0
    6.1291   -8.6556   -1.3113 H   0  0  0  0  0  0  0  0  0  0  0  0
    4.7217   -7.5572   -1.2776 H   0  0  0  0  0  0  0  0  0  0  0  0
    5.4716   -8.1978   -3.6084 H   0  0  0  0  0  0  0  0  0  0  0  0
    3.7638   -8.5938   -3.2817 H   0  0  0  0  0  0  0  0  0  0  0  0
    7.3738  -12.6030   -8.6212 H   0  0  0  0  0  0  0  0  0  0  0  0
  1  2  1  0
  1 38  1  0
  1 39  1  0
  1 40  1  0
  2  3  2  0
  2 37  1  0
  3  4  1  0
  3 41  1  0
  4  5  1  0
  4  6  2  0
  5 42  1  0
  5 43  1  0
  5 44  1  0
  6  7  1  0
  6 45  1  0
  7  8  1  0
  7 37  2  0
  8  9  2  0
  8 36  1  0
  9 10  1  0
  9 46  1  0
 10 11  1  0
 11 12  1  0
 11 36  2  0
 12 13  1  0
 12 35  1  0
 13 14  1  0
 13 47  1  0
 13 48  1  0
 14 15  1  0
 14 49  1  0
 14 50  1  0
 15 16  1  0
 15 34  1  0
 16 17  2  0
 16 18  2  0
 16 19  1  1
 19 20  2  0
 19 30  1  0
 20 21  1  0
 20 24  1  0
 21 22  1  0
 21 23  1  0
 21 51  1  6
 22 52  1  0
 22 53  1  0
 22 54  1  0
 23 55  1  0
 23 56  1  0
 23 57  1  0
 24 25  2  0
 24 58  1  0
 25 26  1  0
 25 29  1  0
 26 27  1  0
 26 28  1  0
 26 59  1  1
 27 60  1  0
 27 61  1  0
 27 62  1  0
 28 63  1  0
 28 64  1  0
 28 65  1  0
 29 30  2  0
 29 66  1  0
 30 31  1  0
 31 32  1  0
 31 33  1  0
 31 67  1  6
 32 68  1  0
 32 69  1  0
 32 70  1  0
 33 71  1  0
 33 72  1  0
 33 73  1  0
 34 35  1  0
 34 74  1  0
 34 75  1  0
 35 76  1  0
 35 77  1  0
 37 78  1  0
M  END

