
     RDKit          3D

 31 31  0  0  0  0  0  0  0  0999 V2000
    2.4467    0.2208    2.5318 C   0  0  0  0  0  0  0  0  0  0  0  0
    2.2620    0.2153    1.0069 C   0  0  0  0  0  0  0  0  0  0  0  0
    2.8771    1.3900    0.3015 C   0  0  0  0  0  0  0  0  0  0  0  0
    2.2491    2.4010   -0.3814 C   0  0  0  0  0  0  0  0  0  0  0  0
    3.0569    3.3609   -0.9385 N   0  0  0  0  0  0  0  0  0  0  0  0
    4.3109    3.1214   -0.7092 C   0  0  0  0  0  0  0  0  0  0  0  0
    5.4738    4.0352   -1.0808 C   0  0  1  0  0  0  0  0  0  0  0  0
    5.0878    4.8916   -2.3064 C   0  0  0  0  0  0  0  0  0  0  0  0
    5.6977    4.9726    0.1281 C   0  0  0  0  0  0  0  0  0  0  0  0
    6.6585    3.1713   -1.2978 N   0  0  0  0  0  0  0  0  0  0  0  0
    6.5940    2.3393   -2.4902 C   0  0  0  0  0  0  0  0  0  0  0  0
    7.9653    3.7904   -1.1680 C   0  0  0  0  0  0  0  0  0  0  0  0
    4.6035    1.6610    0.2319 S   0  0  0  0  0  0  0  0  0  0  0  0
    1.9660   -0.6597    2.9872 H   0  0  0  0  0  0  0  0  0  0  0  0
    2.0040    1.1239    2.9807 H   0  0  0  0  0  0  0  0  0  0  0  0
    3.5137    0.2014    2.8056 H   0  0  0  0  0  0  0  0  0  0  0  0
    1.1862    0.2083    0.7636 H   0  0  0  0  0  0  0  0  0  0  0  0
    2.6735   -0.7231    0.5940 H   0  0  0  0  0  0  0  0  0  0  0  0
    1.1657    2.4711   -0.5070 H   0  0  0  0  0  0  0  0  0  0  0  0
    4.2137    5.5153   -2.0753 H   0  0  0  0  0  0  0  0  0  0  0  0
    4.8212    4.2689   -3.1717 H   0  0  0  0  0  0  0  0  0  0  0  0
    5.9253    5.5488   -2.5893 H   0  0  0  0  0  0  0  0  0  0  0  0
    4.7470    5.4616    0.3834 H   0  0  0  0  0  0  0  0  0  0  0  0
    6.4315    5.7605   -0.0991 H   0  0  0  0  0  0  0  0  0  0  0  0
    6.0406    4.4060    1.0069 H   0  0  0  0  0  0  0  0  0  0  0  0
    5.6039    1.8710   -2.5852 H   0  0  0  0  0  0  0  0  0  0  0  0
    7.3372    1.5288   -2.4127 H   0  0  0  0  0  0  0  0  0  0  0  0
    6.8014    2.8914   -3.4323 H   0  0  0  0  0  0  0  0  0  0  0  0
    8.1042    4.2454   -0.1784 H   0  0  0  0  0  0  0  0  0  0  0  0
    8.1795    4.5665   -1.9376 H   0  0  0  0  0  0  0  0  0  0  0  0
    8.7365    3.0112   -1.2760 H   0  0  0  0  0  0  0  0  0  0  0  0
  1  2  1  0
  1 14  1  0
  1 15  1  0
  1 16  1  0
  2  3  1  0
  2 17  1  0
  2 18  1  0
  3  4  2  0
  3 13  1  0
  4  5  1  0
  4 19  1  0
  5  6  2  0
  6  7  1  0
  6 13  1  0
  7  8  1  0
  7  9  1  0
  7 10  1  6
  8 20  1  0
  8 21  1  0
  8 22  1  0
  9 23  1  0
  9 24  1  0
  9 25  1  0
 10 11  1  0
 10 12  1  0
 11 26  1  0
 11 27  1  0
 11 28  1  0
 12 29  1  0
 12 30  1  0
 12 31  1  0
M  END

