
     RDKit          3D

 41 41  0  0  0  0  0  0  0  0999 V2000
    0.2995   -1.7098   -5.8472 C   0  0  0  0  0  0  0  0  0  0  0  0
    1.6598   -1.9462   -6.0865 O   0  0  0  0  0  0  0  0  0  0  0  0
    2.5209   -1.1499   -5.3149 C   0  0  0  0  0  0  0  0  0  0  0  0
    3.9512   -1.5109   -5.6781 C   0  0  0  0  0  0  0  0  0  0  0  0
    4.8133   -0.7149   -4.9059 O   0  0  0  0  0  0  0  0  0  0  0  0
    6.1833   -0.9475   -5.1369 C   0  0  0  0  0  0  0  0  0  0  0  0
    6.9921   -0.0153   -4.2449 C   0  0  0  0  0  0  0  0  0  0  0  0
    8.5241   -0.2253   -4.2674 C   0  0  1  0  0  0  0  0  0  0  0  0
    8.9727   -1.5095   -3.7247 N   0  0  0  0  0  0  0  0  0  0  0  0
    9.1287   -0.0152   -5.6760 C   0  0  0  0  0  0  0  0  0  0  0  0
   10.6045    0.3264   -5.7031 C   0  0  0  0  0  0  0  0  0  0  0  0
   11.5909   -0.5872   -5.2801 C   0  0  0  0  0  0  0  0  0  0  0  0
   12.9411   -0.2564   -5.3096 C   0  0  0  0  0  0  0  0  0  0  0  0
   13.3580    1.0066   -5.7656 C   0  0  0  0  0  0  0  0  0  0  0  0
   14.6989    1.2358   -5.7601 O   0  0  0  0  0  0  0  0  0  0  0  0
   15.1835    2.4805   -6.2033 C   0  0  0  0  0  0  0  0  0  0  0  0
   12.3935    1.9302   -6.1893 C   0  0  0  0  0  0  0  0  0  0  0  0
   11.0372    1.5794   -6.1520 C   0  0  0  0  0  0  0  0  0  0  0  0
   -0.2799   -2.3808   -6.4985 H   0  0  0  0  0  0  0  0  0  0  0  0
    0.0122   -0.6627   -6.0754 H   0  0  0  0  0  0  0  0  0  0  0  0
    0.0203   -1.9144   -4.7931 H   0  0  0  0  0  0  0  0  0  0  0  0
    2.3637   -1.3154   -4.2285 H   0  0  0  0  0  0  0  0  0  0  0  0
    2.3545   -0.0688   -5.5044 H   0  0  0  0  0  0  0  0  0  0  0  0
    4.1082   -1.3453   -6.7640 H   0  0  0  0  0  0  0  0  0  0  0  0
    4.1175   -2.5917   -5.4885 H   0  0  0  0  0  0  0  0  0  0  0  0
    6.4240   -0.7833   -6.2077 H   0  0  0  0  0  0  0  0  0  0  0  0
    6.4303   -2.0082   -4.9153 H   0  0  0  0  0  0  0  0  0  0  0  0
    6.6305   -0.1458   -3.2098 H   0  0  0  0  0  0  0  0  0  0  0  0
    6.7560    1.0260   -4.5247 H   0  0  0  0  0  0  0  0  0  0  0  0
    8.9520    0.5547   -3.6140 H   0  0  0  0  0  0  0  0  0  0  0  0
    8.5670   -2.2881   -4.2455 H   0  0  0  0  0  0  0  0  0  0  0  0
    8.6765   -1.6188   -2.7548 H   0  0  0  0  0  0  0  0  0  0  0  0
    8.5741    0.7934   -6.1787 H   0  0  0  0  0  0  0  0  0  0  0  0
    8.9445   -0.9273   -6.2741 H   0  0  0  0  0  0  0  0  0  0  0  0
   11.2809   -1.5622   -4.9013 H   0  0  0  0  0  0  0  0  0  0  0  0
   13.7048   -0.9649   -4.9812 H   0  0  0  0  0  0  0  0  0  0  0  0
   16.2777    2.4437   -6.1113 H   0  0  0  0  0  0  0  0  0  0  0  0
   14.8024    3.3163   -5.5878 H   0  0  0  0  0  0  0  0  0  0  0  0
   14.9216    2.6746   -7.2599 H   0  0  0  0  0  0  0  0  0  0  0  0
   12.6783    2.9190   -6.5498 H   0  0  0  0  0  0  0  0  0  0  0  0
   10.2991    2.3132   -6.4902 H   0  0  0  0  0  0  0  0  0  0  0  0
  1  2  1  0
  1 19  1  0
  1 20  1  0
  1 21  1  0
  2  3  1  0
  3  4  1  0
  3 22  1  0
  3 23  1  0
  4  5  1  0
  4 24  1  0
  4 25  1  0
  5  6  1  0
  6  7  1  0
  6 26  1  0
  6 27  1  0
  7  8  1  0
  7 28  1  0
  7 29  1  0
  8  9  1  0
  8 10  1  0
  8 30  1  1
  9 31  1  0
  9 32  1  0
 10 11  1  0
 10 33  1  0
 10 34  1  0
 11 12  2  0
 11 18  1  0
 12 13  1  0
 12 35  1  0
 13 14  2  0
 13 36  1  0
 14 15  1  0
 14 17  1  0
 15 16  1  0
 16 37  1  0
 16 38  1  0
 16 39  1  0
 17 18  2  0
 17 40  1  0
 18 41  1  0
M  END

