
     RDKit          3D

 84 88  0  0  0  0  0  0  0  0999 V2000
   15.0404   14.4398    9.4930 C   0  0  0  0  0  0  0  0  0  0  0  0
   14.7742   13.0666    9.4020 O   0  0  0  0  0  0  0  0  0  0  0  0
   13.7672   12.6229   10.2729 C   0  0  0  0  0  0  0  0  0  0  0  0
   13.6008   11.1276   10.0712 C   0  0  0  0  0  0  0  0  0  0  0  0
   12.5759   10.6884   10.9478 O   0  0  0  0  0  0  0  0  0  0  0  0
   12.2427    9.3598   10.8473 C   0  0  0  0  0  0  0  0  0  0  0  0
   13.3130    8.5721   11.3436 O   0  0  0  0  0  0  0  0  0  0  0  0
   13.2246    7.2176   11.3139 C   0  0  0  0  0  0  0  0  0  0  0  0
   14.3621    6.5165   11.7628 C   0  0  0  0  0  0  0  0  0  0  0  0
   14.3705    5.1209   11.7744 C   0  0  0  0  0  0  0  0  0  0  0  0
   13.2493    4.4208   11.3303 C   0  0  0  0  0  0  0  0  0  0  0  0
   12.1255    5.1312   10.9084 C   0  0  0  0  0  0  0  0  0  0  0  0
   12.0787    6.5258   10.8816 C   0  0  0  0  0  0  0  0  0  0  0  0
   11.0866    4.3427   10.5485 O   0  0  0  0  0  0  0  0  0  0  0  0
   11.4614    2.9554   10.7126 C   0  0  2  0  0  0  0  0  0  0  0  0
   11.4267    2.4899    9.7167 H   0  0  0  0  0  0  0  0  0  0  0  0
   10.4290    2.2876   11.6308 C   0  0  0  0  0  0  0  0  0  0  0  0
   10.2760    2.8480   12.9605 N   0  0  0  0  0  0  0  0  0  0  0  0
   12.9342    2.9453   11.2488 C   0  0  1  0  0  0  0  0  0  0  0  0
   12.9599    2.5050   12.2586 H   0  0  0  0  0  0  0  0  0  0  0  0
   13.8568    2.1066   10.4536 N   0  0  0  0  0  0  0  0  0  0  0  0
   14.2782    0.8377   11.0507 C   0  0  0  0  0  0  0  0  0  0  0  0
   15.4663    0.9119   11.9963 C   0  0  0  0  0  0  0  0  0  0  0  0
   15.6005   -0.0449   13.0146 C   0  0  0  0  0  0  0  0  0  0  0  0
   16.7081   -0.0521   13.8644 C   0  0  0  0  0  0  0  0  0  0  0  0
   17.7021    0.9170   13.7006 C   0  0  0  0  0  0  0  0  0  0  0  0
   19.2171    0.9226   14.8592 Br  0  0  0  0  0  0  0  0  0  0  0  0
   17.5921    1.8837   12.6991 C   0  0  0  0  0  0  0  0  0  0  0  0
   16.4766    1.8731   11.8556 C   0  0  0  0  0  0  0  0  0  0  0  0
   14.0908    2.4582    9.1470 C   0  0  0  0  0  0  0  0  0  0  0  0
   13.5076    3.3892    8.6099 O   0  0  0  0  0  0  0  0  0  0  0  0
   15.1385    1.6770    8.3187 C   0  0  2  0  0  0  0  0  0  0  0  0
   15.6613    0.9193    8.9111 H   0  0  0  0  0  0  0  0  0  0  0  0
   16.1654    2.6859    7.7561 C   0  0  0  0  0  0  0  0  0  0  0  0
   17.2357    2.0562    6.8930 C   0  0  0  0  0  0  0  0  0  0  0  0
   17.2267    2.2226    5.4998 C   0  0  0  0  0  0  0  0  0  0  0  0
   18.2059    1.6290    4.6969 C   0  0  0  0  0  0  0  0  0  0  0  0
   19.2138    0.8555    5.2780 C   0  0  0  0  0  0  0  0  0  0  0  0
   19.2377    0.6843    6.6661 C   0  0  0  0  0  0  0  0  0  0  0  0
   18.2585    1.2805    7.4638 C   0  0  0  0  0  0  0  0  0  0  0  0
   14.4617    0.9654    7.2460 N   0  0  0  0  0  0  0  0  0  0  0  0
   14.1201   -0.3544    7.3434 C   0  0  0  0  0  0  0  0  0  0  0  0
   14.3714   -1.0235    8.3410 O   0  0  0  0  0  0  0  0  0  0  0  0
   13.4114   -0.9504    6.1579 C   0  0  0  0  0  0  0  0  0  0  0  0
   13.4684   -0.3995    4.8672 C   0  0  0  0  0  0  0  0  0  0  0  0
   12.7931   -1.0115    3.8085 C   0  0  0  0  0  0  0  0  0  0  0  0
   12.0569   -2.1796    4.0286 C   0  0  0  0  0  0  0  0  0  0  0  0
   12.0074   -2.7416    5.3091 C   0  0  0  0  0  0  0  0  0  0  0  0
   12.6867   -2.1346    6.3655 C   0  0  0  0  0  0  0  0  0  0  0  0
   15.8388   14.6769    8.7745 H   0  0  0  0  0  0  0  0  0  0  0  0
   15.3811   14.7312   10.5076 H   0  0  0  0  0  0  0  0  0  0  0  0
   14.1500   15.0537    9.2458 H   0  0  0  0  0  0  0  0  0  0  0  0
   12.8021   13.1344   10.0739 H   0  0  0  0  0  0  0  0  0  0  0  0
   14.0273   12.8240   11.3330 H   0  0  0  0  0  0  0  0  0  0  0  0
   14.5528   10.6122   10.2833 H   0  0  0  0  0  0  0  0  0  0  0  0
   13.3298   10.9184    9.0176 H   0  0  0  0  0  0  0  0  0  0  0  0
   12.0340    9.0646    9.7959 H   0  0  0  0  0  0  0  0  0  0  0  0
   11.3379    9.2036   11.4611 H   0  0  0  0  0  0  0  0  0  0  0  0
   15.2238    7.0944   12.1000 H   0  0  0  0  0  0  0  0  0  0  0  0
   15.2554    4.5886   12.1312 H   0  0  0  0  0  0  0  0  0  0  0  0
   11.1748    7.0248   10.5362 H   0  0  0  0  0  0  0  0  0  0  0  0
    9.4527    2.3329   11.1182 H   0  0  0  0  0  0  0  0  0  0  0  0
   10.6821    1.2150   11.7114 H   0  0  0  0  0  0  0  0  0  0  0  0
   10.0876    3.8486   12.8993 H   0  0  0  0  0  0  0  0  0  0  0  0
   11.1188    2.7352   13.5231 H   0  0  0  0  0  0  0  0  0  0  0  0
   14.4788    0.1088   10.2495 H   0  0  0  0  0  0  0  0  0  0  0  0
   13.4179    0.4168   11.5967 H   0  0  0  0  0  0  0  0  0  0  0  0
   14.8254   -0.8052   13.1487 H   0  0  0  0  0  0  0  0  0  0  0  0
   16.7966   -0.8022   14.6521 H   0  0  0  0  0  0  0  0  0  0  0  0
   18.3689    2.6407   12.5785 H   0  0  0  0  0  0  0  0  0  0  0  0
   16.3915    2.6374   11.0806 H   0  0  0  0  0  0  0  0  0  0  0  0
   16.6286    3.2039    8.6126 H   0  0  0  0  0  0  0  0  0  0  0  0
   15.6134    3.4567    7.1971 H   0  0  0  0  0  0  0  0  0  0  0  0
   16.4474    2.8364    5.0382 H   0  0  0  0  0  0  0  0  0  0  0  0
   18.1822    1.7747    3.6137 H   0  0  0  0  0  0  0  0  0  0  0  0
   19.9808    0.3909    4.6532 H   0  0  0  0  0  0  0  0  0  0  0  0
   20.0255    0.0855    7.1306 H   0  0  0  0  0  0  0  0  0  0  0  0
   18.2918    1.1435    8.5490 H   0  0  0  0  0  0  0  0  0  0  0  0
   14.0377    1.5327    6.5209 H   0  0  0  0  0  0  0  0  0  0  0  0
   14.0681    0.4927    4.6722 H   0  0  0  0  0  0  0  0  0  0  0  0
   12.8501   -0.5796    2.8063 H   0  0  0  0  0  0  0  0  0  0  0  0
   11.5277   -2.6566    3.1997 H   0  0  0  0  0  0  0  0  0  0  0  0
   11.4392   -3.6590    5.4824 H   0  0  0  0  0  0  0  0  0  0  0  0
   12.6736   -2.5631    7.3693 H   0  0  0  0  0  0  0  0  0  0  0  0
  1  2  1  0
  1 50  1  0
  1 51  1  0
  1 52  1  0
  2  3  1  0
  3  4  1  0
  3 53  1  0
  3 54  1  0
  4  5  1  0
  4 55  1  0
  4 56  1  0
  5  6  1  0
  6  7  1  0
  6 57  1  0
  6 58  1  0
  7  8  1  0
  8  9  2  0
  8 13  1  0
  9 10  1  0
  9 59  1  0
 10 11  2  0
 10 60  1  0
 11 12  1  0
 11 19  1  0
 12 13  2  0
 12 14  1  0
 13 61  1  0
 14 15  1  0
 15 16  1  6
 15 17  1  0
 15 19  1  0
 17 18  1  0
 17 62  1  0
 17 63  1  0
 18 64  1  0
 18 65  1  0
 19 20  1  1
 19 21  1  0
 21 22  1  0
 21 30  1  0
 22 23  1  0
 22 66  1  0
 22 67  1  0
 23 24  2  0
 23 29  1  0
 24 25  1  0
 24 68  1  0
 25 26  2  0
 25 69  1  0
 26 27  1  0
 26 28  1  0
 28 29  2  0
 28 70  1  0
 29 71  1  0
 30 31  2  0
 30 32  1  0
 32 33  1  1
 32 34  1  0
 32 41  1  0
 34 35  1  0
 34 72  1  0
 34 73  1  0
 35 36  2  0
 35 40  1  0
 36 37  1  0
 36 74  1  0
 37 38  2  0
 37 75  1  0
 38 39  1  0
 38 76  1  0
 39 40  2  0
 39 77  1  0
 40 78  1  0
 41 42  1  0
 41 79  1  0
 42 43  2  0
 42 44  1  0
 44 45  2  0
 44 49  1  0
 45 46  1  0
 45 80  1  0
 46 47  2  0
 46 81  1  0
 47 48  1  0
 47 82  1  0
 48 49  2  0
 48 83  1  0
 49 84  1  0
M  END

