
     RDKit          3D

 40 43  0  0  0  0  0  0  0  0999 V2000
    2.7364    3.0950   -0.5775 O   0  0  0  0  0  0  0  0  0  0  0  0
    2.3703    2.0544   -1.0963 C   0  0  0  0  0  0  0  0  0  0  0  0
    1.0901    1.8444   -1.5893 N   0  0  0  0  0  0  0  0  0  0  0  0
    0.0073    2.7416   -1.6220 C   0  0  0  0  0  0  0  0  0  0  0  0
    0.0709    4.0653   -1.1499 C   0  0  0  0  0  0  0  0  0  0  0  0
   -1.0638    4.8749   -1.2329 C   0  0  0  0  0  0  0  0  0  0  0  0
   -2.2658    4.4108   -1.7718 C   0  0  0  0  0  0  0  0  0  0  0  0
   -2.3137    3.0943   -2.2360 C   0  0  0  0  0  0  0  0  0  0  0  0
   -3.7975    2.4671   -2.9197 Cl  0  0  0  0  0  0  0  0  0  0  0  0
   -1.1981    2.2614   -2.1675 C   0  0  0  0  0  0  0  0  0  0  0  0
    3.1823    0.9403   -1.2548 N   0  0  0  0  0  0  0  0  0  0  0  0
    4.5403    0.8176   -0.8972 C   0  0  0  0  0  0  0  0  0  0  0  0
    5.2927   -0.2107   -1.4879 C   0  0  0  0  0  0  0  0  0  0  0  0
    6.6353   -0.3795   -1.1425 C   0  0  0  0  0  0  0  0  0  0  0  0
    7.2539    0.4814   -0.2390 C   0  0  0  0  0  0  0  0  0  0  0  0
    6.5115    1.5235    0.3495 C   0  0  0  0  0  0  0  0  0  0  0  0
    7.1899    2.4119    1.2998 C   0  0  0  0  0  0  0  0  0  0  0  0
    8.2671    2.0704    1.9940 N   0  0  0  0  0  0  0  0  0  0  0  0
    8.6683    3.0980    2.7624 N   0  0  0  0  0  0  0  0  0  0  0  0
    7.8351    4.1068    2.5422 C   0  0  0  0  0  0  0  0  0  0  0  0
    7.8094    5.4205    3.0779 C   0  0  0  0  0  0  0  0  0  0  0  0
    6.8459    6.2959    2.6447 C   0  0  0  0  0  0  0  0  0  0  0  0
    5.8912    5.8843    1.6623 C   0  0  0  0  0  0  0  0  0  0  0  0
    5.9079    4.6158    1.1537 C   0  0  0  0  0  0  0  0  0  0  0  0
    6.8626    3.7251    1.6058 N   0  0  0  0  0  0  0  0  0  0  0  0
    5.1497    1.6669    0.0388 C   0  0  0  0  0  0  0  0  0  0  0  0
    0.8765    0.9215   -1.9478 H   0  0  0  0  0  0  0  0  0  0  0  0
    0.9985    4.4382   -0.7251 H   0  0  0  0  0  0  0  0  0  0  0  0
   -1.0067    5.9020   -0.8635 H   0  0  0  0  0  0  0  0  0  0  0  0
   -3.1485    5.0481   -1.8334 H   0  0  0  0  0  0  0  0  0  0  0  0
   -1.2726    1.2375   -2.5412 H   0  0  0  0  0  0  0  0  0  0  0  0
    2.8248    0.1740   -1.8123 H   0  0  0  0  0  0  0  0  0  0  0  0
    4.8270   -0.8783   -2.2191 H   0  0  0  0  0  0  0  0  0  0  0  0
    7.2088   -1.1885   -1.6015 H   0  0  0  0  0  0  0  0  0  0  0  0
    8.3054    0.3668    0.0258 H   0  0  0  0  0  0  0  0  0  0  0  0
    8.5683    5.6883    3.8137 H   0  0  0  0  0  0  0  0  0  0  0  0
    6.8056    7.3129    3.0403 H   0  0  0  0  0  0  0  0  0  0  0  0
    5.1333    6.5808    1.3008 H   0  0  0  0  0  0  0  0  0  0  0  0
    5.2047    4.2664    0.3999 H   0  0  0  0  0  0  0  0  0  0  0  0
    4.5355    2.4149    0.5266 H   0  0  0  0  0  0  0  0  0  0  0  0
  1  2  2  0
  2  3  1  0
  2 11  1  0
  3  4  1  0
  3 27  1  0
  4  5  2  0
  4 10  1  0
  5  6  1  0
  5 28  1  0
  6  7  2  0
  6 29  1  0
  7  8  1  0
  7 30  1  0
  8  9  1  0
  8 10  2  0
 10 31  1  0
 11 12  1  0
 11 32  1  0
 12 13  2  0
 12 26  1  0
 13 14  1  0
 13 33  1  0
 14 15  2  0
 14 34  1  0
 15 16  1  0
 15 35  1  0
 16 17  1  0
 16 26  2  0
 17 18  2  0
 17 25  1  0
 18 19  1  0
 19 20  2  0
 20 21  1  0
 20 25  1  0
 21 22  2  0
 21 36  1  0
 22 23  1  0
 22 37  1  0
 23 24  2  0
 23 38  1  0
 24 25  1  0
 24 39  1  0
 26 40  1  0
M  END

