
     RDKit          3D

 38 39  0  0  0  0  0  0  0  0999 V2000
    1.6396    0.9370   -0.9041 C   0  0  0  0  0  0  0  0  0  0  0  0
    2.3236    0.0931   -0.0023 O   0  0  0  0  0  0  0  0  0  0  0  0
    2.7492    0.5764    1.1913 C   0  0  0  0  0  0  0  0  0  0  0  0
    2.5353    1.8818    1.6212 C   0  0  0  0  0  0  0  0  0  0  0  0
    2.9854    2.3248    2.8902 C   0  0  0  0  0  0  0  0  0  0  0  0
    2.6998    3.6203    3.3375 N   0  0  0  0  0  0  0  0  0  0  0  0
    2.7847    4.7389    2.3971 C   0  0  0  0  0  0  0  0  0  0  0  0
    2.0420    5.9559    2.9410 C   0  0  0  0  0  0  0  0  0  0  0  0
    2.5083    6.3150    4.2218 O   0  0  0  0  0  0  0  0  0  0  0  0
    2.3424    5.2518    5.1342 C   0  0  0  0  0  0  0  0  0  0  0  0
    3.0924    3.9967    4.6910 C   0  0  0  0  0  0  0  0  0  0  0  0
    3.6977    1.4081    3.6739 C   0  0  0  0  0  0  0  0  0  0  0  0
    3.9325    0.1050    3.2145 C   0  0  0  0  0  0  0  0  0  0  0  0
    4.8151   -0.7124    4.0723 N   0  0  0  0  0  0  0  0  0  0  0  0
    4.7874   -0.4971    5.2743 O   0  0  0  0  0  0  0  0  0  0  0  0
    5.5428   -1.5280    3.5306 O   0  0  0  0  0  0  0  0  0  0  0  0
    3.4426   -0.3801    1.9930 C   0  0  0  0  0  0  0  0  0  0  0  0
    3.5620   -1.6704    1.4736 N   0  0  0  0  0  0  0  0  0  0  0  0
    3.3393   -2.9331    2.0159 C   0  0  0  0  0  0  0  0  0  0  0  0
    2.9330   -3.0490    3.4696 C   0  0  0  0  0  0  0  0  0  0  0  0
    3.4456   -3.9064    1.2971 O   0  0  0  0  0  0  0  0  0  0  0  0
    1.4144    0.3279   -1.7890 H   0  0  0  0  0  0  0  0  0  0  0  0
    2.2606    1.7984   -1.2075 H   0  0  0  0  0  0  0  0  0  0  0  0
    0.6926    1.3086   -0.4743 H   0  0  0  0  0  0  0  0  0  0  0  0
    1.9678    2.5578    0.9866 H   0  0  0  0  0  0  0  0  0  0  0  0
    2.3448    4.4640    1.4297 H   0  0  0  0  0  0  0  0  0  0  0  0
    3.8457    5.0125    2.2140 H   0  0  0  0  0  0  0  0  0  0  0  0
    0.9541    5.7376    2.9737 H   0  0  0  0  0  0  0  0  0  0  0  0
    2.2027    6.8213    2.2802 H   0  0  0  0  0  0  0  0  0  0  0  0
    1.2655    5.0111    5.2501 H   0  0  0  0  0  0  0  0  0  0  0  0
    2.7268    5.5937    6.1068 H   0  0  0  0  0  0  0  0  0  0  0  0
    2.8425    3.1809    5.3849 H   0  0  0  0  0  0  0  0  0  0  0  0
    4.1867    4.1755    4.7613 H   0  0  0  0  0  0  0  0  0  0  0  0
    4.1144    1.6706    4.6412 H   0  0  0  0  0  0  0  0  0  0  0  0
    3.6188   -1.7130    0.4590 H   0  0  0  0  0  0  0  0  0  0  0  0
    2.4634   -2.1430    3.8772 H   0  0  0  0  0  0  0  0  0  0  0  0
    3.8207   -3.2863    4.0755 H   0  0  0  0  0  0  0  0  0  0  0  0
    2.2365   -3.8943    3.5478 H   0  0  0  0  0  0  0  0  0  0  0  0
  1  2  1  0
  1 22  1  0
  1 23  1  0
  1 24  1  0
  2  3  1  0
  3  4  2  0
  3 17  1  0
  4  5  1  0
  4 25  1  0
  5  6  1  0
  5 12  2  0
  6  7  1  0
  6 11  1  0
  7  8  1  0
  7 26  1  0
  7 27  1  0
  8  9  1  0
  8 28  1  0
  8 29  1  0
  9 10  1  0
 10 11  1  0
 10 30  1  0
 10 31  1  0
 11 32  1  0
 11 33  1  0
 12 13  1  0
 12 34  1  0
 13 14  1  0
 13 17  2  0
 14 15  2  0
 14 16  1  0
 17 18  1  0
 18 19  1  0
 18 35  1  0
 19 20  1  0
 19 21  2  0
 20 36  1  0
 20 37  1  0
 20 38  1  0
M  CHG  2  14   1  16  -1
M  END

