
     RDKit          3D

 48 52  0  0  0  0  0  0  0  0999 V2000
    4.7085    2.2331    0.2048 O   0  0  0  0  0  0  0  0  0  0  0  0
    4.1669    1.1610   -0.0144 C   0  0  0  0  0  0  0  0  0  0  0  0
    3.2149    0.9619   -0.9848 N   0  0  0  0  0  0  0  0  0  0  0  0
    2.6362    1.8941   -1.8742 C   0  0  0  0  0  0  0  0  0  0  0  0
    2.9483    3.2767   -1.8415 C   0  0  0  0  0  0  0  0  0  0  0  0
    2.3491    4.1664   -2.7292 C   0  0  0  0  0  0  0  0  0  0  0  0
    1.4295    3.6752   -3.6622 C   0  0  0  0  0  0  0  0  0  0  0  0
    0.7062    4.3373   -4.6403 N   0  0  0  0  0  0  0  0  0  0  0  0
    0.7462    5.3301   -4.8246 H   0  0  0  0  0  0  0  0  0  0  0  0
   -0.0789    3.4253   -5.3216 C   0  0  0  0  0  0  0  0  0  0  0  0
   -0.9744    3.5886   -6.3846 C   0  0  0  0  0  0  0  0  0  0  0  0
   -1.6283    2.5516   -6.8976 N   0  0  0  0  0  0  0  0  0  0  0  0
   -1.4419    1.3129   -6.3970 C   0  0  0  0  0  0  0  0  0  0  0  0
   -2.2563    0.1984   -7.0311 C   0  0  0  0  0  0  0  0  0  0  0  0
   -3.6755    0.0923   -6.4936 C   0  0  0  0  0  0  0  0  0  0  0  0
   -4.5956    1.1360   -6.6919 C   0  0  0  0  0  0  0  0  0  0  0  0
   -5.8977    1.0419   -6.1965 C   0  0  0  0  0  0  0  0  0  0  0  0
   -6.3060   -0.0970   -5.4929 C   0  0  0  0  0  0  0  0  0  0  0  0
   -5.3999   -1.1401   -5.2888 C   0  0  0  0  0  0  0  0  0  0  0  0
   -4.0954   -1.0430   -5.7855 C   0  0  0  0  0  0  0  0  0  0  0  0
   -0.5672    1.0572   -5.3341 C   0  0  0  0  0  0  0  0  0  0  0  0
    0.1368    2.1310   -4.7765 C   0  0  0  0  0  0  0  0  0  0  0  0
    1.1065    2.2905   -3.7092 C   0  0  0  0  0  0  0  0  0  0  0  0
    1.7145    1.4067   -2.8099 C   0  0  0  0  0  0  0  0  0  0  0  0
    4.5315   -0.0708    0.7812 C   0  0  0  0  0  0  0  0  0  0  0  0
    3.6903   -1.1855    0.9357 C   0  0  0  0  0  0  0  0  0  0  0  0
    4.1009   -2.2758    1.7083 C   0  0  0  0  0  0  0  0  0  0  0  0
    5.3485   -2.2702    2.3355 C   0  0  0  0  0  0  0  0  0  0  0  0
    6.1662   -1.1501    2.1839 C   0  0  0  0  0  0  0  0  0  0  0  0
    7.3612   -1.1343    2.7885 F   0  0  0  0  0  0  0  0  0  0  0  0
    5.7760   -0.0514    1.4276 C   0  0  0  0  0  0  0  0  0  0  0  0
    2.9294    0.0026   -1.1357 H   0  0  0  0  0  0  0  0  0  0  0  0
    3.6718    3.6291   -1.1105 H   0  0  0  0  0  0  0  0  0  0  0  0
    2.6026    5.2284   -2.6883 H   0  0  0  0  0  0  0  0  0  0  0  0
   -1.1612    4.5743   -6.8287 H   0  0  0  0  0  0  0  0  0  0  0  0
   -1.7421   -0.7636   -6.8855 H   0  0  0  0  0  0  0  0  0  0  0  0
   -2.2921    0.3916   -8.1154 H   0  0  0  0  0  0  0  0  0  0  0  0
   -4.2728    2.0293   -7.2320 H   0  0  0  0  0  0  0  0  0  0  0  0
   -6.6007    1.8630   -6.3617 H   0  0  0  0  0  0  0  0  0  0  0  0
   -7.3263   -0.1701   -5.1073 H   0  0  0  0  0  0  0  0  0  0  0  0
   -5.7076   -2.0355   -4.7419 H   0  0  0  0  0  0  0  0  0  0  0  0
   -3.3935   -1.8669   -5.6241 H   0  0  0  0  0  0  0  0  0  0  0  0
   -0.4431    0.0399   -4.9550 H   0  0  0  0  0  0  0  0  0  0  0  0
    1.4692    0.3408   -2.8377 H   0  0  0  0  0  0  0  0  0  0  0  0
    2.6934   -1.2021    0.4887 H   0  0  0  0  0  0  0  0  0  0  0  0
    3.4383   -3.1357    1.8317 H   0  0  0  0  0  0  0  0  0  0  0  0
    5.6936   -3.1090    2.9430 H   0  0  0  0  0  0  0  0  0  0  0  0
    6.4228    0.8220    1.3355 H   0  0  0  0  0  0  0  0  0  0  0  0
  1  2  2  0
  2  3  1  0
  2 25  1  0
  3  4  1  0
  3 32  1  0
  4  5  2  0
  4 24  1  0
  5  6  1  0
  5 33  1  0
  6  7  2  0
  6 34  1  0
  7  8  1  0
  7 23  1  0
  8  9  1  0
  8 10  1  0
 10 11  1  0
 10 22  2  0
 11 12  2  0
 11 35  1  0
 12 13  1  0
 13 14  1  0
 13 21  2  0
 14 15  1  0
 14 36  1  0
 14 37  1  0
 15 16  2  0
 15 20  1  0
 16 17  1  0
 16 38  1  0
 17 18  2  0
 17 39  1  0
 18 19  1  0
 18 40  1  0
 19 20  2  0
 19 41  1  0
 20 42  1  0
 21 22  1  0
 21 43  1  0
 22 23  1  0
 23 24  2  0
 24 44  1  0
 25 26  2  0
 25 31  1  0
 26 27  1  0
 26 45  1  0
 27 28  2  0
 27 46  1  0
 28 29  1  0
 28 47  1  0
 29 30  1  0
 29 31  2  0
 31 48  1  0
M  END

