
     RDKit          3D

 37 37  0  0  0  0  0  0  0  0999 V2000
    0.8893   -1.0996    1.5584 C   0  0  0  0  0  0  0  0  0  0  0  0
    2.2329   -1.4634    1.3854 O   0  0  0  0  0  0  0  0  0  0  0  0
    2.7451   -2.2902    2.4078 C   0  0  0  0  0  0  0  0  0  0  0  0
    4.2145   -2.5456    2.1186 C   0  0  0  0  0  0  0  0  0  0  0  0
    4.9462   -1.3019    2.0412 N   0  0  0  0  0  0  0  0  0  0  0  0
    6.1923   -1.0889    2.5523 C   0  0  0  0  0  0  0  0  0  0  0  0
    6.8462    0.1579    2.3577 C   0  0  0  0  0  0  0  0  0  0  0  0
    8.1097    0.2977    2.9176 C   0  0  0  0  0  0  0  0  0  0  0  0
    8.9025    1.5706    2.7756 C   0  0  0  0  0  0  0  0  0  0  0  0
    8.6968   -0.6914    3.6133 N   0  0  0  0  0  0  0  0  0  0  0  0
    7.9980   -1.8274    3.7446 C   0  0  0  0  0  0  0  0  0  0  0  0
    8.5578   -2.8498    4.4524 N   0  0  0  0  0  0  0  0  0  0  0  0
    9.8701   -2.8384    5.0508 C   0  0  0  0  0  0  0  0  0  0  0  0
    9.8293   -3.3384    6.4855 C   0  0  0  0  0  0  0  0  0  0  0  0
    9.3258   -4.6561    6.4817 O   0  0  0  0  0  0  0  0  0  0  0  0
    9.1746   -5.2165    7.7574 C   0  0  0  0  0  0  0  0  0  0  0  0
    6.7726   -2.0733    3.2412 N   0  0  0  0  0  0  0  0  0  0  0  0
    0.6005   -0.4587    0.7125 H   0  0  0  0  0  0  0  0  0  0  0  0
    0.7290   -0.5359    2.5000 H   0  0  0  0  0  0  0  0  0  0  0  0
    0.2198   -1.9835    1.5743 H   0  0  0  0  0  0  0  0  0  0  0  0
    2.1956   -3.2540    2.4471 H   0  0  0  0  0  0  0  0  0  0  0  0
    2.6309   -1.7983    3.3962 H   0  0  0  0  0  0  0  0  0  0  0  0
    4.2966   -3.1181    1.1739 H   0  0  0  0  0  0  0  0  0  0  0  0
    4.6627   -3.1567    2.9134 H   0  0  0  0  0  0  0  0  0  0  0  0
    4.5284   -0.5726    1.4769 H   0  0  0  0  0  0  0  0  0  0  0  0
    6.3745    0.9635    1.7926 H   0  0  0  0  0  0  0  0  0  0  0  0
    8.3632    2.3359    2.1996 H   0  0  0  0  0  0  0  0  0  0  0  0
    9.8638    1.3599    2.2795 H   0  0  0  0  0  0  0  0  0  0  0  0
    9.1440    1.9755    3.7717 H   0  0  0  0  0  0  0  0  0  0  0  0
    8.0125   -3.7005    4.5184 H   0  0  0  0  0  0  0  0  0  0  0  0
   10.2470   -1.8075    5.0154 H   0  0  0  0  0  0  0  0  0  0  0  0
   10.5750   -3.4725    4.4782 H   0  0  0  0  0  0  0  0  0  0  0  0
    9.1822   -2.6781    7.0996 H   0  0  0  0  0  0  0  0  0  0  0  0
   10.8495   -3.3094    6.9236 H   0  0  0  0  0  0  0  0  0  0  0  0
    8.7767   -6.2349    7.6355 H   0  0  0  0  0  0  0  0  0  0  0  0
    8.4698   -4.6354    8.3869 H   0  0  0  0  0  0  0  0  0  0  0  0
   10.1398   -5.2794    8.3007 H   0  0  0  0  0  0  0  0  0  0  0  0
  1  2  1  0
  1 18  1  0
  1 19  1  0
  1 20  1  0
  2  3  1  0
  3  4  1  0
  3 21  1  0
  3 22  1  0
  4  5  1  0
  4 23  1  0
  4 24  1  0
  5  6  1  0
  5 25  1  0
  6  7  2  0
  6 17  1  0
  7  8  1  0
  7 26  1  0
  8  9  1  0
  8 10  2  0
  9 27  1  0
  9 28  1  0
  9 29  1  0
 10 11  1  0
 11 12  1  0
 11 17  2  0
 12 13  1  0
 12 30  1  0
 13 14  1  0
 13 31  1  0
 13 32  1  0
 14 15  1  0
 14 33  1  0
 14 34  1  0
 15 16  1  0
 16 35  1  0
 16 36  1  0
 16 37  1  0
M  END

