
     RDKit          3D

 29 31  0  0  0  0  0  0  0  0999 V2000
    7.6864   -2.9167   -0.3323 O   0  0  0  0  0  0  0  0  0  0  0  0
    6.6151   -2.9076    0.2313 N   0  0  0  0  0  0  0  0  0  0  0  0
    5.9233   -3.8880    0.4653 O   0  0  0  0  0  0  0  0  0  0  0  0
    6.1102   -1.5965    0.7000 C   0  0  0  0  0  0  0  0  0  0  0  0
    6.7160   -0.9999    1.8148 C   0  0  0  0  0  0  0  0  0  0  0  0
    8.0318   -1.7810    2.6418 Cl  0  0  0  0  0  0  0  0  0  0  0  0
    6.2366    0.2274    2.2799 C   0  0  0  0  0  0  0  0  0  0  0  0
    5.1708    0.8485    1.6263 C   0  0  0  0  0  0  0  0  0  0  0  0
    4.5789    0.2540    0.5105 C   0  0  0  0  0  0  0  0  0  0  0  0
    5.0367   -0.9824    0.0385 C   0  0  0  0  0  0  0  0  0  0  0  0
    4.3104   -1.7181   -1.4436 S   0  0  0  0  0  0  0  0  0  0  0  0
    2.8703   -2.4827   -0.7632 C   0  0  0  0  0  0  0  0  0  0  0  0
    1.5455   -2.1934   -1.0221 C   0  0  0  0  0  0  0  0  0  0  0  0
    0.7647   -3.1544   -0.2962 C   0  0  0  0  0  0  0  0  0  0  0  0
   -0.6183   -3.3873   -0.1478 C   0  0  0  0  0  0  0  0  0  0  0  0
   -1.0427   -4.4292    0.6678 C   0  0  0  0  0  0  0  0  0  0  0  0
   -0.1126   -5.2522    1.3445 C   0  0  0  0  0  0  0  0  0  0  0  0
    1.2577   -5.0498    1.2203 C   0  0  0  0  0  0  0  0  0  0  0  0
    1.6874   -3.9986    0.3950 C   0  0  0  0  0  0  0  0  0  0  0  0
    2.9560   -3.5717    0.0837 N   0  0  0  0  0  0  0  0  0  0  0  0
    3.8377   -3.9617    0.4056 H   0  0  0  0  0  0  0  0  0  0  0  0
    6.7070    0.6820    3.1529 H   0  0  0  0  0  0  0  0  0  0  0  0
    4.8035    1.8107    1.9903 H   0  0  0  0  0  0  0  0  0  0  0  0
    3.7524    0.7406   -0.0104 H   0  0  0  0  0  0  0  0  0  0  0  0
    1.1859   -1.3887   -1.6592 H   0  0  0  0  0  0  0  0  0  0  0  0
   -1.3434   -2.7558   -0.6676 H   0  0  0  0  0  0  0  0  0  0  0  0
   -2.1116   -4.6202    0.7909 H   0  0  0  0  0  0  0  0  0  0  0  0
   -0.4788   -6.0649    1.9770 H   0  0  0  0  0  0  0  0  0  0  0  0
    1.9745   -5.6878    1.7427 H   0  0  0  0  0  0  0  0  0  0  0  0
  1  2  2  0
  2  3  1  0
  2  4  1  0
  4  5  2  0
  4 10  1  0
  5  6  1  0
  5  7  1  0
  7  8  2  0
  7 22  1  0
  8  9  1  0
  8 23  1  0
  9 10  2  0
  9 24  1  0
 10 11  1  0
 11 12  1  0
 12 13  2  0
 12 20  1  0
 13 14  1  0
 13 25  1  0
 14 15  2  0
 14 19  1  0
 15 16  1  0
 15 26  1  0
 16 17  2  0
 16 27  1  0
 17 18  1  0
 17 28  1  0
 18 19  2  0
 18 29  1  0
 19 20  1  0
 20 21  1  0
M  CHG  2   2   1   3  -1
M  END

