
     RDKit          3D

 39 39  0  0  0  0  0  0  0  0999 V2000
    3.0964    1.4735    1.6564 C   0  0  0  0  0  0  0  0  0  0  0  0
    2.3363    0.3589    0.9206 C   0  0  0  0  0  0  0  0  0  0  0  0
    2.8299   -1.0308    1.2632 C   0  0  0  0  0  0  0  0  0  0  0  0
    2.2962   -1.7428    2.3496 C   0  0  0  0  0  0  0  0  0  0  0  0
    2.7801   -3.0073    2.6903 C   0  0  0  0  0  0  0  0  0  0  0  0
    3.8157   -3.6113    1.9596 C   0  0  0  0  0  0  0  0  0  0  0  0
    4.2904   -5.0152    2.3074 C   0  0  0  0  0  0  0  0  0  0  0  0
    3.5155   -6.1166    1.7405 N   0  0  0  0  0  0  0  0  0  0  0  0
    3.5558   -6.2413    0.2903 C   0  0  0  0  0  0  0  0  0  0  0  0
    2.8007   -7.4912   -0.1552 C   0  0  0  0  0  0  0  0  0  0  0  0
    2.8363   -7.7502   -1.6493 C   0  0  1  0  0  0  0  0  0  0  0  0
    2.3531   -6.6294   -2.3202 F   0  0  0  0  0  0  0  0  0  0  0  0
    4.1862   -7.7932   -2.0555 F   0  0  0  0  0  0  0  0  0  0  0  0
    2.1380   -8.9010   -2.0146 N   0  0  0  0  0  0  0  0  0  0  0  0
    2.1453   -9.3228   -3.2412 C   0  0  0  0  0  0  0  0  0  0  0  0
    2.9680   -8.9062   -4.2543 N   0  0  0  0  0  0  0  0  0  0  0  0
    1.2466  -10.3023   -3.6017 N   0  0  0  0  0  0  0  0  0  0  0  0
    4.3508   -2.8987    0.8762 C   0  0  0  0  0  0  0  0  0  0  0  0
    3.8666   -1.6331    0.5345 C   0  0  0  0  0  0  0  0  0  0  0  0
    2.7082    2.4677    1.3813 H   0  0  0  0  0  0  0  0  0  0  0  0
    4.1707    1.4491    1.4126 H   0  0  0  0  0  0  0  0  0  0  0  0
    3.0037    1.3633    2.7488 H   0  0  0  0  0  0  0  0  0  0  0  0
    2.4225    0.5184   -0.1676 H   0  0  0  0  0  0  0  0  0  0  0  0
    1.2619    0.4338    1.1599 H   0  0  0  0  0  0  0  0  0  0  0  0
    1.4885   -1.2979    2.9391 H   0  0  0  0  0  0  0  0  0  0  0  0
    2.3461   -3.5358    3.5457 H   0  0  0  0  0  0  0  0  0  0  0  0
    4.2857   -5.1342    3.4044 H   0  0  0  0  0  0  0  0  0  0  0  0
    5.3375   -5.1386    1.9815 H   0  0  0  0  0  0  0  0  0  0  0  0
    2.5472   -6.0535    2.0566 H   0  0  0  0  0  0  0  0  0  0  0  0
    4.6116   -6.3341   -0.0170 H   0  0  0  0  0  0  0  0  0  0  0  0
    3.1522   -5.3603   -0.2498 H   0  0  0  0  0  0  0  0  0  0  0  0
    1.7363   -7.4286    0.1254 H   0  0  0  0  0  0  0  0  0  0  0  0
    3.2088   -8.3804    0.3484 H   0  0  0  0  0  0  0  0  0  0  0  0
    3.6048   -8.1458   -4.0520 H   0  0  0  0  0  0  0  0  0  0  0  0
    2.6387   -8.9886   -5.2081 H   0  0  0  0  0  0  0  0  0  0  0  0
    0.7355  -10.6865   -2.8148 H   0  0  0  0  0  0  0  0  0  0  0  0
    1.5518  -10.9853   -4.2869 H   0  0  0  0  0  0  0  0  0  0  0  0
    5.1626   -3.3401    0.2902 H   0  0  0  0  0  0  0  0  0  0  0  0
    4.3018   -1.1033   -0.3186 H   0  0  0  0  0  0  0  0  0  0  0  0
  1  2  1  0
  1 20  1  0
  1 21  1  0
  1 22  1  0
  2  3  1  0
  2 23  1  0
  2 24  1  0
  3  4  2  0
  3 19  1  0
  4  5  1  0
  4 25  1  0
  5  6  2  0
  5 26  1  0
  6  7  1  0
  6 18  1  0
  7  8  1  0
  7 27  1  0
  7 28  1  0
  8  9  1  0
  8 29  1  0
  9 10  1  0
  9 30  1  0
  9 31  1  0
 10 11  1  0
 10 32  1  0
 10 33  1  0
 11 12  1  6
 11 13  1  0
 11 14  1  0
 14 15  2  0
 15 16  1  0
 15 17  1  0
 16 34  1  0
 16 35  1  0
 17 36  1  0
 17 37  1  0
 18 19  2  0
 18 38  1  0
 19 39  1  0
M  END

