
     RDKit          3D

 37 37  0  0  0  0  0  0  0  0999 V2000
    4.2121    0.8831   -0.7169 C   0  0  0  0  0  0  0  0  0  0  0  0
    4.9069    1.9386    0.5979 S   0  0  0  0  0  0  0  0  0  0  0  0
    5.6513    0.6717    1.6889 C   0  0  0  0  0  0  0  0  0  0  0  0
    6.9924    0.0807    1.2044 C   0  0  1  0  0  0  0  0  0  0  0  0
    8.1189    1.1103    1.1549 C   0  0  0  0  0  0  0  0  0  0  0  0
    7.3769   -1.0480    2.0480 N   0  0  0  0  0  0  0  0  0  0  0  0
    6.9512   -2.3277    1.8133 C   0  0  0  0  0  0  0  0  0  0  0  0
    6.2178   -2.5988    0.8719 O   0  0  0  0  0  0  0  0  0  0  0  0
    7.5013   -3.3736    2.7909 C   0  0  1  0  0  0  0  0  0  0  0  0
    6.5593   -4.5804    2.9663 C   0  0  0  0  0  0  0  0  0  0  0  0
    6.6121   -5.5529    1.7847 C   0  0  0  0  0  0  0  0  0  0  0  0
    7.9957   -5.9497    1.5273 N   0  0  0  0  0  0  0  0  0  0  0  0
    8.8630   -4.8283    1.1683 C   0  0  2  0  0  0  0  0  0  0  0  0
   10.2564   -5.3422    0.8136 C   0  0  0  0  0  0  0  0  0  0  0  0
    8.9079   -3.8559    2.3555 C   0  0  0  0  0  0  0  0  0  0  0  0
    3.7066    1.5574   -1.4231 H   0  0  0  0  0  0  0  0  0  0  0  0
    3.4740    0.1766   -0.3078 H   0  0  0  0  0  0  0  0  0  0  0  0
    4.9893    0.3246   -1.2586 H   0  0  0  0  0  0  0  0  0  0  0  0
    4.9235   -0.1425    1.8275 H   0  0  0  0  0  0  0  0  0  0  0  0
    5.7861    1.1681    2.6647 H   0  0  0  0  0  0  0  0  0  0  0  0
    6.8295   -0.3421    0.2015 H   0  0  0  0  0  0  0  0  0  0  0  0
    8.3476    1.4979    2.1638 H   0  0  0  0  0  0  0  0  0  0  0  0
    7.8225    1.9647    0.5298 H   0  0  0  0  0  0  0  0  0  0  0  0
    9.0378    0.6696    0.7388 H   0  0  0  0  0  0  0  0  0  0  0  0
    7.9243   -0.8585    2.8797 H   0  0  0  0  0  0  0  0  0  0  0  0
    7.6084   -2.8724    3.7693 H   0  0  0  0  0  0  0  0  0  0  0  0
    5.5240   -4.2376    3.1214 H   0  0  0  0  0  0  0  0  0  0  0  0
    6.8709   -5.1194    3.8770 H   0  0  0  0  0  0  0  0  0  0  0  0
    6.1324   -5.0737    0.9094 H   0  0  0  0  0  0  0  0  0  0  0  0
    6.0311   -6.4568    2.0335 H   0  0  0  0  0  0  0  0  0  0  0  0
    8.0234   -6.6544    0.7920 H   0  0  0  0  0  0  0  0  0  0  0  0
    8.4645   -4.2710    0.2898 H   0  0  0  0  0  0  0  0  0  0  0  0
   10.6905   -5.8966    1.6613 H   0  0  0  0  0  0  0  0  0  0  0  0
   10.9319   -4.5124    0.5517 H   0  0  0  0  0  0  0  0  0  0  0  0
   10.2170   -6.0244   -0.0523 H   0  0  0  0  0  0  0  0  0  0  0  0
    9.5481   -2.9920    2.1101 H   0  0  0  0  0  0  0  0  0  0  0  0
    9.3732   -4.3813    3.2073 H   0  0  0  0  0  0  0  0  0  0  0  0
  1  2  1  0
  1 16  1  0
  1 17  1  0
  1 18  1  0
  2  3  1  0
  3  4  1  0
  3 19  1  0
  3 20  1  0
  4  5  1  0
  4  6  1  0
  4 21  1  6
  5 22  1  0
  5 23  1  0
  5 24  1  0
  6  7  1  0
  6 25  1  0
  7  8  2  0
  7  9  1  0
  9 10  1  0
  9 15  1  0
  9 26  1  1
 10 11  1  0
 10 27  1  0
 10 28  1  0
 11 12  1  0
 11 29  1  0
 11 30  1  0
 12 13  1  0
 12 31  1  0
 13 14  1  0
 13 15  1  0
 13 32  1  6
 14 33  1  0
 14 34  1  0
 14 35  1  0
 15 36  1  0
 15 37  1  0
M  END

