
     RDKit          3D

 41 44  0  0  0  0  0  0  0  0999 V2000
    3.4728    1.5395    0.0633 C   0  0  0  0  0  0  0  0  0  0  0  0
    2.9500    0.2307    0.1790 O   0  0  0  0  0  0  0  0  0  0  0  0
    3.2887   -0.7091   -0.7261 C   0  0  0  0  0  0  0  0  0  0  0  0
    4.1479   -0.4900   -1.8182 C   0  0  0  0  0  0  0  0  0  0  0  0
    4.4326   -1.5333   -2.6961 C   0  0  0  0  0  0  0  0  0  0  0  0
    3.8732   -2.8150   -2.5128 C   0  0  0  0  0  0  0  0  0  0  0  0
    4.1751   -3.8678   -3.4177 C   0  0  0  0  0  0  0  0  0  0  0  0
    4.4497   -4.7593   -4.2066 C   0  0  0  0  0  0  0  0  0  0  0  0
    4.7998   -5.7717   -5.1466 C   0  0  0  0  0  0  0  0  0  0  0  0
    4.2987   -7.0839   -5.0369 C   0  0  0  0  0  0  0  0  0  0  0  0
    3.4406   -7.5660   -3.8899 C   0  0  0  0  0  0  0  0  0  0  0  0
    2.3683   -8.5488   -4.3709 C   0  0  0  0  0  0  0  0  0  0  0  0
    2.9453   -9.6314   -5.2545 C   0  0  0  0  0  0  0  0  0  0  0  0
    2.4074  -10.9221   -5.2951 C   0  0  0  0  0  0  0  0  0  0  0  0
    2.9242  -11.8870   -6.1647 C   0  0  0  0  0  0  0  0  0  0  0  0
    3.9893  -11.5733   -7.0174 C   0  0  0  0  0  0  0  0  0  0  0  0
    4.5372  -10.2932   -6.9933 C   0  0  0  0  0  0  0  0  0  0  0  0
    4.0274   -9.3227   -6.1120 C   0  0  0  0  0  0  0  0  0  0  0  0
    4.6113   -7.9719   -6.0847 C   0  0  0  0  0  0  0  0  0  0  0  0
    5.3972   -7.6520   -7.0569 O   0  0  0  0  0  0  0  0  0  0  0  0
    6.2321   -6.3860   -7.0592 B   0  0  1  0  0  0  0  0  0  0  0  0
    7.4732   -6.6950   -6.5744 F   0  0  0  0  0  0  0  0  0  0  0  0
    6.2238   -5.8626   -8.3130 F   0  0  0  0  0  0  0  0  0  0  0  0
    5.5784   -5.4031   -6.1154 O   0  0  0  0  0  0  0  0  0  0  0  0
    3.0098   -3.0195   -1.4086 C   0  0  0  0  0  0  0  0  0  0  0  0
    2.7234   -1.9863   -0.5323 C   0  0  0  0  0  0  0  0  0  0  0  0
    3.0610    2.1130    0.9038 H   0  0  0  0  0  0  0  0  0  0  0  0
    3.1664    2.0185   -0.8832 H   0  0  0  0  0  0  0  0  0  0  0  0
    4.5748    1.5453    0.1295 H   0  0  0  0  0  0  0  0  0  0  0  0
    4.5982    0.4873   -1.9911 H   0  0  0  0  0  0  0  0  0  0  0  0
    5.1002   -1.3606   -3.5426 H   0  0  0  0  0  0  0  0  0  0  0  0
    2.9717   -6.7109   -3.3825 H   0  0  0  0  0  0  0  0  0  0  0  0
    4.0791   -8.0639   -3.1359 H   0  0  0  0  0  0  0  0  0  0  0  0
    1.6034   -7.9967   -4.9497 H   0  0  0  0  0  0  0  0  0  0  0  0
    1.8448   -8.9993   -3.5136 H   0  0  0  0  0  0  0  0  0  0  0  0
    1.5705  -11.1747   -4.6382 H   0  0  0  0  0  0  0  0  0  0  0  0
    2.4928  -12.8913   -6.1768 H   0  0  0  0  0  0  0  0  0  0  0  0
    4.3913  -12.3286   -7.6966 H   0  0  0  0  0  0  0  0  0  0  0  0
    5.3688  -10.0226   -7.6456 H   0  0  0  0  0  0  0  0  0  0  0  0
    2.5678   -4.0053   -1.2504 H   0  0  0  0  0  0  0  0  0  0  0  0
    2.0597   -2.1329    0.3218 H   0  0  0  0  0  0  0  0  0  0  0  0
  1  2  1  0
  1 27  1  0
  1 28  1  0
  1 29  1  0
  2  3  1  0
  3  4  2  0
  3 26  1  0
  4  5  1  0
  4 30  1  0
  5  6  2  0
  5 31  1  0
  6  7  1  0
  6 25  1  0
  7  8  3  0
  8  9  1  0
  9 10  1  0
  9 24  2  0
 10 11  1  0
 10 19  2  0
 11 12  1  0
 11 32  1  0
 11 33  1  0
 12 13  1  0
 12 34  1  0
 12 35  1  0
 13 14  2  0
 13 18  1  0
 14 15  1  0
 14 36  1  0
 15 16  2  0
 15 37  1  0
 16 17  1  0
 16 38  1  0
 17 18  2  0
 17 39  1  0
 18 19  1  0
 19 20  1  0
 20 21  1  0
 21 22  1  1
 21 23  1  0
 21 24  1  0
 25 26  2  0
 25 40  1  0
 26 41  1  0
M  CHG  2  21  -1  24   1
M  END

