
     RDKit          3D

 40 43  0  0  0  0  0  0  0  0999 V2000
    6.2247    1.3159    3.0144 C   0  0  0  0  0  0  0  0  0  0  0  0
    5.4875    0.6993    1.8811 C   0  0  0  0  0  0  0  0  0  0  0  0
    5.4084   -0.5872    1.5848 N   0  0  0  0  0  0  0  0  0  0  0  0
    4.6404   -0.7580    0.4770 N   0  0  0  0  0  0  0  0  0  0  0  0
    4.2446    0.4410    0.0897 C   0  0  0  0  0  0  0  0  0  0  0  0
    3.4453    0.9159   -0.9803 C   0  0  0  0  0  0  0  0  0  0  0  0
    3.2415    2.2659   -1.0714 C   0  0  0  0  0  0  0  0  0  0  0  0
    3.8273    3.1663   -0.1015 C   0  0  0  0  0  0  0  0  0  0  0  0
    3.6255    4.6355   -0.1835 C   0  0  0  0  0  0  0  0  0  0  0  0
    2.6357    5.2151   -0.9954 C   0  0  0  0  0  0  0  0  0  0  0  0
    2.4450    6.5951   -1.0623 C   0  0  0  0  0  0  0  0  0  0  0  0
    3.2636    7.4490   -0.3027 C   0  0  0  0  0  0  0  0  0  0  0  0
    3.1547    8.8478   -0.3151 N   0  0  0  0  0  0  0  0  0  0  0  0
    2.2560    9.6416   -0.9998 C   0  0  0  0  0  0  0  0  0  0  0  0
    1.3552    9.1982   -1.6915 O   0  0  0  0  0  0  0  0  0  0  0  0
    2.4473   11.1249   -0.8211 C   0  0  0  0  0  0  0  0  0  0  0  0
    3.6567   11.7248   -0.4336 C   0  0  0  0  0  0  0  0  0  0  0  0
    3.7621   13.1109   -0.3091 C   0  0  0  0  0  0  0  0  0  0  0  0
    2.6454   13.9088   -0.5763 C   0  0  0  0  0  0  0  0  0  0  0  0
    2.7673   15.6413   -0.4162 Cl  0  0  0  0  0  0  0  0  0  0  0  0
    1.4347   13.3331   -0.9786 C   0  0  0  0  0  0  0  0  0  0  0  0
    1.3464   11.9490   -1.1063 C   0  0  0  0  0  0  0  0  0  0  0  0
    4.2583    6.8787    0.5179 C   0  0  0  0  0  0  0  0  0  0  0  0
    4.4326    5.5037    0.5780 C   0  0  0  0  0  0  0  0  0  0  0  0
    4.5760    2.7315    0.8917 N   0  0  0  0  0  0  0  0  0  0  0  0
    4.7620    1.4062    0.9563 N   0  0  0  0  0  0  0  0  0  0  0  0
    6.7045    0.5175    3.5949 H   0  0  0  0  0  0  0  0  0  0  0  0
    5.5464    1.8840    3.6715 H   0  0  0  0  0  0  0  0  0  0  0  0
    6.9970    2.0163    2.6572 H   0  0  0  0  0  0  0  0  0  0  0  0
    3.0279    0.2048   -1.6946 H   0  0  0  0  0  0  0  0  0  0  0  0
    2.6507    2.6724   -1.8905 H   0  0  0  0  0  0  0  0  0  0  0  0
    1.9682    4.5865   -1.5870 H   0  0  0  0  0  0  0  0  0  0  0  0
    1.6651    7.0203   -1.6885 H   0  0  0  0  0  0  0  0  0  0  0  0
    3.7848    9.3274    0.3157 H   0  0  0  0  0  0  0  0  0  0  0  0
    4.5516   11.1229   -0.2546 H   0  0  0  0  0  0  0  0  0  0  0  0
    4.7049   13.5757   -0.0170 H   0  0  0  0  0  0  0  0  0  0  0  0
    0.5753   13.9710   -1.1910 H   0  0  0  0  0  0  0  0  0  0  0  0
    0.4178   11.4775   -1.4328 H   0  0  0  0  0  0  0  0  0  0  0  0
    4.9058    7.5293    1.1139 H   0  0  0  0  0  0  0  0  0  0  0  0
    5.2061    5.0789    1.2182 H   0  0  0  0  0  0  0  0  0  0  0  0
  1  2  1  0
  1 27  1  0
  1 28  1  0
  1 29  1  0
  2  3  2  0
  2 26  1  0
  3  4  1  0
  4  5  2  0
  5  6  1  0
  5 26  1  0
  6  7  2  0
  6 30  1  0
  7  8  1  0
  7 31  1  0
  8  9  1  0
  8 25  2  0
  9 10  2  0
  9 24  1  0
 10 11  1  0
 10 32  1  0
 11 12  2  0
 11 33  1  0
 12 13  1  0
 12 23  1  0
 13 14  1  0
 13 34  1  0
 14 15  2  0
 14 16  1  0
 16 17  2  0
 16 22  1  0
 17 18  1  0
 17 35  1  0
 18 19  2  0
 18 36  1  0
 19 20  1  0
 19 21  1  0
 21 22  2  0
 21 37  1  0
 22 38  1  0
 23 24  2  0
 23 39  1  0
 24 40  1  0
 25 26  1  0
M  END

