
     RDKit          3D

 59 62  0  0  0  0  0  0  0  0999 V2000
    3.6332   -2.2158   -4.7479 C   0  0  0  0  0  0  0  0  0  0  0  0
    4.4711   -1.2314   -3.9554 C   0  0  0  0  0  0  0  0  0  0  0  0
    5.1932   -1.9607   -2.9734 O   0  0  0  0  0  0  0  0  0  0  0  0
    6.0205   -1.3072   -2.1276 C   0  0  0  0  0  0  0  0  0  0  0  0
    6.2350    0.0715   -2.1390 C   0  0  0  0  0  0  0  0  0  0  0  0
    7.1153    0.6861   -1.2182 C   0  0  0  0  0  0  0  0  0  0  0  0
    7.3793    2.1179   -1.1761 C   0  0  0  0  0  0  0  0  0  0  0  0
    6.9330    3.1420   -1.9403 C   0  0  0  0  0  0  0  0  0  0  0  0
    5.8656    3.1171   -3.3459 S   0  0  0  0  0  0  0  0  0  0  0  0
    5.8439    4.9710   -3.4357 C   0  0  1  0  0  0  0  0  0  0  0  0
    4.5564    5.5376   -3.0766 N   0  0  0  0  0  0  0  0  0  0  0  0
    4.3387    6.7281   -2.4017 C   0  0  0  0  0  0  0  0  0  0  0  0
    3.2321    7.2272   -2.3642 O   0  0  0  0  0  0  0  0  0  0  0  0
    5.5482    7.3281   -1.6789 C   0  0  1  0  0  0  0  0  0  0  0  0
    5.5069    6.9736   -0.1640 C   0  0  0  0  0  0  0  0  0  0  0  0
    4.4111    7.6678    0.6176 C   0  0  0  0  0  0  0  0  0  0  0  0
    3.2012    7.0225    0.9123 C   0  0  0  0  0  0  0  0  0  0  0  0
    2.1992    7.6717    1.6383 C   0  0  0  0  0  0  0  0  0  0  0  0
    2.3900    8.9829    2.0824 C   0  0  0  0  0  0  0  0  0  0  0  0
    3.5917    9.6384    1.7976 C   0  0  0  0  0  0  0  0  0  0  0  0
    4.5915    8.9836    1.0743 C   0  0  0  0  0  0  0  0  0  0  0  0
    6.8560    6.9126   -2.3987 C   0  0  1  0  0  0  0  0  0  0  0  0
    8.1443    7.5110   -1.8378 C   0  0  0  0  0  0  0  0  0  0  0  0
    6.8641    5.4438   -2.5458 N   0  0  0  0  0  0  0  0  0  0  0  0
    7.3878    4.5401   -1.6336 C   0  0  0  0  0  0  0  0  0  0  0  0
    8.1238    4.8271   -0.7101 O   0  0  0  0  0  0  0  0  0  0  0  0
    7.7725   -0.1349   -0.2847 C   0  0  0  0  0  0  0  0  0  0  0  0
    7.5746   -1.5168   -0.2583 C   0  0  0  0  0  0  0  0  0  0  0  0
    6.7034   -2.1096   -1.1737 C   0  0  0  0  0  0  0  0  0  0  0  0
    6.4041   -3.4522   -1.2615 O   0  0  0  0  0  0  0  0  0  0  0  0
    6.9569   -4.4549   -0.5247 C   0  0  0  0  0  0  0  0  0  0  0  0
    6.3521   -5.7722   -0.9409 C   0  0  0  0  0  0  0  0  0  0  0  0
    7.7955   -4.3074    0.3243 O   0  0  0  0  0  0  0  0  0  0  0  0
    3.0558   -1.6866   -5.5216 H   0  0  0  0  0  0  0  0  0  0  0  0
    2.9292   -2.7460   -4.0886 H   0  0  0  0  0  0  0  0  0  0  0  0
    4.2735   -2.9634   -5.2403 H   0  0  0  0  0  0  0  0  0  0  0  0
    3.8305   -0.4735   -3.4665 H   0  0  0  0  0  0  0  0  0  0  0  0
    5.1748   -0.6915   -4.6167 H   0  0  0  0  0  0  0  0  0  0  0  0
    5.7033    0.6783   -2.8677 H   0  0  0  0  0  0  0  0  0  0  0  0
    8.0656    2.4499   -0.3894 H   0  0  0  0  0  0  0  0  0  0  0  0
    6.0930    5.2231   -4.4835 H   0  0  0  0  0  0  0  0  0  0  0  0
    3.7405    5.2015   -3.5827 H   0  0  0  0  0  0  0  0  0  0  0  0
    5.4315    8.4193   -1.7759 H   0  0  0  0  0  0  0  0  0  0  0  0
    6.4789    7.2457    0.2723 H   0  0  0  0  0  0  0  0  0  0  0  0
    5.4127    5.8832   -0.0461 H   0  0  0  0  0  0  0  0  0  0  0  0
    3.0397    5.9979    0.5669 H   0  0  0  0  0  0  0  0  0  0  0  0
    1.2638    7.1500    1.8568 H   0  0  0  0  0  0  0  0  0  0  0  0
    1.6070    9.4913    2.6509 H   0  0  0  0  0  0  0  0  0  0  0  0
    3.7542   10.6619    2.1459 H   0  0  0  0  0  0  0  0  0  0  0  0
    5.5329    9.5020    0.8662 H   0  0  0  0  0  0  0  0  0  0  0  0
    6.7673    7.2909   -3.4336 H   0  0  0  0  0  0  0  0  0  0  0  0
    8.3538    7.1910   -0.8124 H   0  0  0  0  0  0  0  0  0  0  0  0
    8.0635    8.6091   -1.8711 H   0  0  0  0  0  0  0  0  0  0  0  0
    9.0024    7.2136   -2.4590 H   0  0  0  0  0  0  0  0  0  0  0  0
    8.4559    0.3164    0.4381 H   0  0  0  0  0  0  0  0  0  0  0  0
    8.0923   -2.1400    0.4649 H   0  0  0  0  0  0  0  0  0  0  0  0
    6.5234   -5.9415   -2.0150 H   0  0  0  0  0  0  0  0  0  0  0  0
    5.2623   -5.7495   -0.7867 H   0  0  0  0  0  0  0  0  0  0  0  0
    6.8002   -6.5818   -0.3531 H   0  0  0  0  0  0  0  0  0  0  0  0
  1  2  1  0
  1 34  1  0
  1 35  1  0
  1 36  1  0
  2  3  1  0
  2 37  1  0
  2 38  1  0
  3  4  1  0
  4  5  2  0
  4 29  1  0
  5  6  1  0
  5 39  1  0
  6  7  1  0
  6 27  2  0
  7  8  2  0
  7 40  1  0
  8  9  1  0
  8 25  1  0
  9 10  1  0
 10 11  1  0
 10 24  1  0
 10 41  1  6
 11 12  1  0
 11 42  1  0
 12 13  2  0
 12 14  1  0
 14 15  1  0
 14 22  1  0
 14 43  1  1
 15 16  1  0
 15 44  1  0
 15 45  1  0
 16 17  2  0
 16 21  1  0
 17 18  1  0
 17 46  1  0
 18 19  2  0
 18 47  1  0
 19 20  1  0
 19 48  1  0
 20 21  2  0
 20 49  1  0
 21 50  1  0
 22 23  1  0
 22 24  1  0
 22 51  1  6
 23 52  1  0
 23 53  1  0
 23 54  1  0
 24 25  1  0
 25 26  2  0
 27 28  1  0
 27 55  1  0
 28 29  2  0
 28 56  1  0
 29 30  1  0
 30 31  1  0
 31 32  1  0
 31 33  2  0
 32 57  1  0
 32 58  1  0
 32 59  1  0
M  END

