
     RDKit          3D

 32 32  0  0  0  0  0  0  0  0999 V2000
    1.5144    0.5314    0.4831 C   0  0  0  0  0  0  0  0  0  0  0  0
    2.6434    0.6126   -0.5432 C   0  0  0  0  0  0  0  0  0  0  0  0
    3.4668   -0.6021   -0.6067 N   0  0  0  0  0  0  0  0  0  0  0  0
    2.9876   -1.7464   -1.3936 C   0  0  0  0  0  0  0  0  0  0  0  0
    2.9454   -1.5100   -2.8846 C   0  0  0  0  0  0  0  0  0  0  0  0
    4.0000   -1.3230   -3.7463 C   0  0  0  0  0  0  0  0  0  0  0  0
    3.6015   -1.1183   -5.1008 C   0  0  0  0  0  0  0  0  0  0  0  0
    2.2374   -1.1518   -5.2495 C   0  0  0  0  0  0  0  0  0  0  0  0
    1.3404   -0.9603   -6.7120 Cl  0  0  0  0  0  0  0  0  0  0  0  0
    1.4231   -1.4306   -3.7384 S   0  0  0  0  0  0  0  0  0  0  0  0
    5.0803   -0.5450   -0.1699 S   0  0  1  0  0  0  0  0  0  0  0  0
    5.8047   -1.5446   -0.9701 O   0  0  0  0  0  0  0  0  0  0  0  0
    5.5156    0.8555   -0.1430 O   0  0  0  0  0  0  0  0  0  0  0  0
    5.1216   -1.1353    1.5438 C   0  0  0  0  0  0  0  0  0  0  0  0
    6.5532   -1.1488    2.0624 C   0  0  0  0  0  0  0  0  0  0  0  0
    6.6287   -1.6244    3.5084 C   0  0  0  0  0  0  0  0  0  0  0  0
    5.6745   -1.9397    4.1639 O   0  0  0  0  0  0  0  0  0  0  0  0
    7.8725   -1.6721    4.0312 O   0  0  0  0  0  0  0  0  0  0  0  0
    0.9199    1.4587    0.4639 H   0  0  0  0  0  0  0  0  0  0  0  0
    1.9071    0.4009    1.5040 H   0  0  0  0  0  0  0  0  0  0  0  0
    0.8272   -0.3048    0.2757 H   0  0  0  0  0  0  0  0  0  0  0  0
    3.3105    1.4560   -0.3212 H   0  0  0  0  0  0  0  0  0  0  0  0
    2.2347    0.7987   -1.5516 H   0  0  0  0  0  0  0  0  0  0  0  0
    1.9852   -2.0196   -1.0260 H   0  0  0  0  0  0  0  0  0  0  0  0
    3.6461   -2.6002   -1.1846 H   0  0  0  0  0  0  0  0  0  0  0  0
    5.0353   -1.3313   -3.4012 H   0  0  0  0  0  0  0  0  0  0  0  0
    4.2859   -0.9575   -5.9339 H   0  0  0  0  0  0  0  0  0  0  0  0
    4.6744   -2.1389    1.5531 H   0  0  0  0  0  0  0  0  0  0  0  0
    4.4827   -0.4621    2.1317 H   0  0  0  0  0  0  0  0  0  0  0  0
    6.9880   -0.1367    1.9902 H   0  0  0  0  0  0  0  0  0  0  0  0
    7.1766   -1.8037    1.4294 H   0  0  0  0  0  0  0  0  0  0  0  0
    8.5330   -1.3887    3.3825 H   0  0  0  0  0  0  0  0  0  0  0  0
  1  2  1  0
  1 19  1  0
  1 20  1  0
  1 21  1  0
  2  3  1  0
  2 22  1  0
  2 23  1  0
  3  4  1  0
 11  3  1  6
  4  5  1  0
  4 24  1  0
  4 25  1  0
  5  6  2  0
  5 10  1  0
  6  7  1  0
  6 26  1  0
  7  8  2  0
  7 27  1  0
  8  9  1  0
  8 10  1  0
 11 12  2  0
 11 13  2  0
 11 14  1  0
 14 15  1  0
 14 28  1  0
 14 29  1  0
 15 16  1  0
 15 30  1  0
 15 31  1  0
 16 17  2  0
 16 18  1  0
 18 32  1  0
M  END

