
     RDKit          3D

124131  0  0  0  0  0  0  0  0999 V2000
    0.6913   -1.6595   -2.2322 C   0  0  0  0  0  0  0  0  0  0  0  0
    2.2180   -1.7063   -2.3237 C   0  0  0  0  0  0  0  0  0  0  0  0
    2.9006   -1.1604   -1.0662 C   0  0  0  0  0  0  0  0  0  0  0  0
    4.4563   -1.1656   -1.0604 C   0  0  2  0  0  0  0  0  0  0  0  0
    4.9372   -0.5732    0.2954 C   0  0  0  0  0  0  0  0  0  0  0  0
    6.4513   -0.4917    0.5092 C   0  0  0  0  0  0  0  0  0  0  0  0
    6.8228    0.1077    1.8671 C   0  0  0  0  0  0  0  0  0  0  0  0
    5.0341   -0.4008   -2.2536 C   0  0  0  0  0  0  0  0  0  0  0  0
    4.8667    0.9372   -2.5913 C   0  0  0  0  0  0  0  0  0  0  0  0
    5.4786    1.4634   -3.7506 C   0  0  0  0  0  0  0  0  0  0  0  0
    5.3066    2.8923   -4.1201 C   0  0  0  0  0  0  0  0  0  0  0  0
    5.2301    3.8999   -3.1444 C   0  0  0  0  0  0  0  0  0  0  0  0
    5.0685    5.2439   -3.4921 C   0  0  0  0  0  0  0  0  0  0  0  0
    4.9740    5.6525   -4.8316 C   0  0  0  0  0  0  0  0  0  0  0  0
    4.7957    7.1233   -5.2541 C   0  0  1  0  0  0  0  0  0  0  0  0
    4.7355    8.0732   -4.0443 C   0  0  0  0  0  0  0  0  0  0  0  0
    5.9859    7.5501   -6.1445 C   0  0  0  0  0  0  0  0  0  0  0  0
    3.4790    7.2731   -6.0513 C   0  0  0  0  0  0  0  0  0  0  0  0
    5.0508    4.6398   -5.8068 C   0  0  0  0  0  0  0  0  0  0  0  0
    5.2123    3.2990   -5.4652 C   0  0  0  0  0  0  0  0  0  0  0  0
    6.2585    0.5990   -4.5479 C   0  0  0  0  0  0  0  0  0  0  0  0
    6.4321   -0.7458   -4.2157 C   0  0  0  0  0  0  0  0  0  0  0  0
    5.8176   -1.2498   -3.0646 C   0  0  0  0  0  0  0  0  0  0  0  0
    5.8152   -2.5919   -2.4730 C   0  0  0  0  0  0  0  0  0  0  0  0
    6.4354   -3.7810   -2.8709 C   0  0  0  0  0  0  0  0  0  0  0  0
    6.2622   -4.9316   -2.0999 C   0  0  0  0  0  0  0  0  0  0  0  0
    5.4755   -4.9263   -0.9280 C   0  0  0  0  0  0  0  0  0  0  0  0
    5.3029   -6.1612   -0.1197 C   0  0  0  0  0  0  0  0  0  0  0  0
    6.3623   -7.0816    0.0315 C   0  0  0  0  0  0  0  0  0  0  0  0
    6.2183   -8.2463    0.7874 C   0  0  0  0  0  0  0  0  0  0  0  0
    4.9938   -8.5096    1.4105 C   0  0  0  0  0  0  0  0  0  0  0  0
    3.9223   -7.6013    1.2721 C   0  0  0  0  0  0  0  0  0  0  0  0
    4.0743   -6.4431    0.5188 C   0  0  0  0  0  0  0  0  0  0  0  0
    2.6857   -8.0966    2.0256 C   0  0  1  0  0  0  0  0  0  0  0  0
    2.2428   -7.0984    3.1336 C   0  0  0  0  0  0  0  0  0  0  0  0
    3.2923   -6.7348    4.1878 C   0  0  0  0  0  0  0  0  0  0  0  0
    2.7618   -5.7500    5.2318 C   0  0  0  0  0  0  0  0  0  0  0  0
    1.4787   -8.3274    1.0715 C   0  0  0  0  0  0  0  0  0  0  0  0
    1.7060   -9.2848   -0.1018 C   0  0  0  0  0  0  0  0  0  0  0  0
    0.4628   -9.4467   -0.9791 C   0  0  0  0  0  0  0  0  0  0  0  0
    3.2056   -9.4099    2.6149 C   0  0  0  0  0  0  0  0  0  0  0  0
    2.5368  -10.3265    3.4181 C   0  0  0  0  0  0  0  0  0  0  0  0
    3.1960  -11.4883    3.8775 C   0  0  0  0  0  0  0  0  0  0  0  0
    2.4906  -12.4743    4.7367 C   0  0  0  0  0  0  0  0  0  0  0  0
    1.1269  -12.7608    4.5601 C   0  0  0  0  0  0  0  0  0  0  0  0
    0.4639  -13.6886    5.3681 C   0  0  0  0  0  0  0  0  0  0  0  0
    1.1271  -14.3783    6.3952 C   0  0  0  0  0  0  0  0  0  0  0  0
    0.4309  -15.4075    7.3059 C   0  0  1  0  0  0  0  0  0  0  0  0
   -1.0570  -15.5843    6.9531 C   0  0  0  0  0  0  0  0  0  0  0  0
    1.1287  -16.7797    7.1580 C   0  0  0  0  0  0  0  0  0  0  0  0
    0.5258  -14.9395    8.7768 C   0  0  0  0  0  0  0  0  0  0  0  0
    2.4936  -14.0879    6.5698 C   0  0  0  0  0  0  0  0  0  0  0  0
    3.1589  -13.1644    5.7666 C   0  0  0  0  0  0  0  0  0  0  0  0
    4.5404  -11.6900    3.4993 C   0  0  0  0  0  0  0  0  0  0  0  0
    5.2191  -10.7748    2.6926 C   0  0  0  0  0  0  0  0  0  0  0  0
    4.5509   -9.6291    2.2483 C   0  0  0  0  0  0  0  0  0  0  0  0
    4.8547   -3.7166   -0.5434 C   0  0  0  0  0  0  0  0  0  0  0  0
    5.0233   -2.5660   -1.3049 C   0  0  0  0  0  0  0  0  0  0  0  0
    0.2214   -2.0563   -3.1463 H   0  0  0  0  0  0  0  0  0  0  0  0
    0.3266   -0.6276   -2.0933 H   0  0  0  0  0  0  0  0  0  0  0  0
    0.3188   -2.2561   -1.3822 H   0  0  0  0  0  0  0  0  0  0  0  0
    2.5504   -1.1301   -3.2035 H   0  0  0  0  0  0  0  0  0  0  0  0
    2.5438   -2.7455   -2.4991 H   0  0  0  0  0  0  0  0  0  0  0  0
    2.5557   -1.7353   -0.1876 H   0  0  0  0  0  0  0  0  0  0  0  0
    2.5634   -0.1224   -0.8927 H   0  0  0  0  0  0  0  0  0  0  0  0
    4.4884   -1.1737    1.1074 H   0  0  0  0  0  0  0  0  0  0  0  0
    4.5013    0.4373    0.3977 H   0  0  0  0  0  0  0  0  0  0  0  0
    6.9059    0.1112   -0.2951 H   0  0  0  0  0  0  0  0  0  0  0  0
    6.8911   -1.4994    0.4205 H   0  0  0  0  0  0  0  0  0  0  0  0
    6.4294    1.1325    1.9777 H   0  0  0  0  0  0  0  0  0  0  0  0
    7.9154    0.1566    1.9996 H   0  0  0  0  0  0  0  0  0  0  0  0
    6.4147   -0.4918    2.6985 H   0  0  0  0  0  0  0  0  0  0  0  0
    4.2387    1.5860   -1.9755 H   0  0  0  0  0  0  0  0  0  0  0  0
    5.3250    3.6364   -2.0883 H   0  0  0  0  0  0  0  0  0  0  0  0
    5.0261    5.9791   -2.6881 H   0  0  0  0  0  0  0  0  0  0  0  0
    5.6602    8.0379   -3.4471 H   0  0  0  0  0  0  0  0  0  0  0  0
    3.8894    7.8391   -3.3793 H   0  0  0  0  0  0  0  0  0  0  0  0
    4.6057    9.1107   -4.3907 H   0  0  0  0  0  0  0  0  0  0  0  0
    6.9391    7.4590   -5.5997 H   0  0  0  0  0  0  0  0  0  0  0  0
    5.8733    8.6001   -6.4614 H   0  0  0  0  0  0  0  0  0  0  0  0
    6.0604    6.9342   -7.0537 H   0  0  0  0  0  0  0  0  0  0  0  0
    2.6113    6.9794   -5.4394 H   0  0  0  0  0  0  0  0  0  0  0  0
    3.4745    6.6498   -6.9585 H   0  0  0  0  0  0  0  0  0  0  0  0
    3.3357    8.3202   -6.3657 H   0  0  0  0  0  0  0  0  0  0  0  0
    4.9743    4.8976   -6.8659 H   0  0  0  0  0  0  0  0  0  0  0  0
    5.2407    2.5486   -6.2588 H   0  0  0  0  0  0  0  0  0  0  0  0
    6.7594    0.9975   -5.4330 H   0  0  0  0  0  0  0  0  0  0  0  0
    7.0493   -1.3885   -4.8488 H   0  0  0  0  0  0  0  0  0  0  0  0
    7.0437   -3.8195   -3.7783 H   0  0  0  0  0  0  0  0  0  0  0  0
    6.7260   -5.8651   -2.4260 H   0  0  0  0  0  0  0  0  0  0  0  0
    7.3268   -6.8647   -0.4325 H   0  0  0  0  0  0  0  0  0  0  0  0
    7.0605   -8.9350    0.8930 H   0  0  0  0  0  0  0  0  0  0  0  0
    3.2341   -5.7556    0.3926 H   0  0  0  0  0  0  0  0  0  0  0  0
    1.3548   -7.5215    3.6373 H   0  0  0  0  0  0  0  0  0  0  0  0
    1.8911   -6.1751    2.6382 H   0  0  0  0  0  0  0  0  0  0  0  0
    4.1788   -6.3034    3.6929 H   0  0  0  0  0  0  0  0  0  0  0  0
    3.6410   -7.6516    4.6924 H   0  0  0  0  0  0  0  0  0  0  0  0
    2.4356   -4.8043    4.7663 H   0  0  0  0  0  0  0  0  0  0  0  0
    3.5325   -5.5025    5.9792 H   0  0  0  0  0  0  0  0  0  0  0  0
    1.8952   -6.1644    5.7741 H   0  0  0  0  0  0  0  0  0  0  0  0
    1.1614   -7.3438    0.6800 H   0  0  0  0  0  0  0  0  0  0  0  0
    0.6309   -8.6927    1.6790 H   0  0  0  0  0  0  0  0  0  0  0  0
    2.0159  -10.2717    0.2815 H   0  0  0  0  0  0  0  0  0  0  0  0
    2.5449   -8.9202   -0.7183 H   0  0  0  0  0  0  0  0  0  0  0  0
   -0.3896   -9.8446   -0.4026 H   0  0  0  0  0  0  0  0  0  0  0  0
    0.6486  -10.1391   -1.8157 H   0  0  0  0  0  0  0  0  0  0  0  0
    0.1451   -8.4827   -1.4112 H   0  0  0  0  0  0  0  0  0  0  0  0
    1.5033  -10.1416    3.7216 H   0  0  0  0  0  0  0  0  0  0  0  0
    0.5721  -12.2700    3.7569 H   0  0  0  0  0  0  0  0  0  0  0  0
   -0.5929  -13.8739    5.1739 H   0  0  0  0  0  0  0  0  0  0  0  0
   -1.1951  -15.9451    5.9218 H   0  0  0  0  0  0  0  0  0  0  0  0
   -1.6207  -14.6449    7.0656 H   0  0  0  0  0  0  0  0  0  0  0  0
   -1.5144  -16.3263    7.6265 H   0  0  0  0  0  0  0  0  0  0  0  0
    1.0720  -17.1415    6.1190 H   0  0  0  0  0  0  0  0  0  0  0  0
    0.6465  -17.5294    7.8069 H   0  0  0  0  0  0  0  0  0  0  0  0
    2.1922  -16.7321    7.4377 H   0  0  0  0  0  0  0  0  0  0  0  0
    0.0319  -13.9643    8.9135 H   0  0  0  0  0  0  0  0  0  0  0  0
    1.5701  -14.8346    9.1085 H   0  0  0  0  0  0  0  0  0  0  0  0
    0.0354  -15.6666    9.4451 H   0  0  0  0  0  0  0  0  0  0  0  0
    3.0592  -14.5876    7.3599 H   0  0  0  0  0  0  0  0  0  0  0  0
    4.2140  -12.9560    5.9593 H   0  0  0  0  0  0  0  0  0  0  0  0
    5.0553  -12.5965    3.8249 H   0  0  0  0  0  0  0  0  0  0  0  0
    6.2580  -10.9631    2.4096 H   0  0  0  0  0  0  0  0  0  0  0  0
    4.2628   -3.6862    0.3748 H   0  0  0  0  0  0  0  0  0  0  0  0
  1  2  1  0
  1 59  1  0
  1 60  1  0
  1 61  1  0
  2  3  1  0
  2 62  1  0
  2 63  1  0
  4  3  1  1
  3 64  1  0
  3 65  1  0
  4  5  1  0
  4  8  1  0
  4 58  1  0
  5  6  1  0
  5 66  1  0
  5 67  1  0
  6  7  1  0
  6 68  1  0
  6 69  1  0
  7 70  1  0
  7 71  1  0
  7 72  1  0
  8  9  2  0
  8 23  1  0
  9 10  1  0
  9 73  1  0
 10 11  1  0
 10 21  2  0
 11 12  2  0
 11 20  1  0
 12 13  1  0
 12 74  1  0
 13 14  2  0
 13 75  1  0
 14 15  1  0
 14 19  1  0
 15 16  1  1
 15 17  1  0
 15 18  1  0
 16 76  1  0
 16 77  1  0
 16 78  1  0
 17 79  1  0
 17 80  1  0
 17 81  1  0
 18 82  1  0
 18 83  1  0
 18 84  1  0
 19 20  2  0
 19 85  1  0
 20 86  1  0
 21 22  1  0
 21 87  1  0
 22 23  2  0
 22 88  1  0
 23 24  1  0
 24 25  2  0
 24 58  1  0
 25 26  1  0
 25 89  1  0
 26 27  2  0
 26 90  1  0
 27 28  1  0
 27 57  1  0
 28 29  2  0
 28 33  1  0
 29 30  1  0
 29 91  1  0
 30 31  2  0
 30 92  1  0
 31 32  1  0
 31 56  1  0
 32 33  2  0
 32 34  1  0
 33 93  1  0
 34 35  1  1
 34 38  1  0
 34 41  1  0
 35 36  1  0
 35 94  1  0
 35 95  1  0
 36 37  1  0
 36 96  1  0
 36 97  1  0
 37 98  1  0
 37 99  1  0
 37100  1  0
 38 39  1  0
 38101  1  0
 38102  1  0
 39 40  1  0
 39103  1  0
 39104  1  0
 40105  1  0
 40106  1  0
 40107  1  0
 41 42  1  0
 41 56  2  0
 42 43  2  0
 42108  1  0
 43 44  1  0
 43 54  1  0
 44 45  2  0
 44 53  1  0
 45 46  1  0
 45109  1  0
 46 47  2  0
 46110  1  0
 47 48  1  0
 47 52  1  0
 48 49  1  6
 48 50  1  0
 48 51  1  0
 49111  1  0
 49112  1  0
 49113  1  0
 50114  1  0
 50115  1  0
 50116  1  0
 51117  1  0
 51118  1  0
 51119  1  0
 52 53  2  0
 52120  1  0
 53121  1  0
 54 55  2  0
 54122  1  0
 55 56  1  0
 55123  1  0
 57 58  2  0
 57124  1  0
M  END

