
     RDKit          3D

 25 26  0  0  0  0  0  0  0  0999 V2000
    3.1541   -2.3838   -3.5460 O   0  0  0  0  0  0  0  0  0  0  0  0
    2.5512   -2.3761   -2.5047 C   0  0  0  0  0  0  0  0  0  0  0  0
    1.2253   -2.3467   -2.3974 O   0  0  0  0  0  0  0  0  0  0  0  0
    3.2239   -2.3923   -1.1103 C   0  0  0  0  0  0  0  0  0  0  0  0
    2.4751   -2.3857   -0.1351 O   0  0  0  0  0  0  0  0  0  0  0  0
    4.6747   -2.4194   -1.0798 C   0  0  0  0  0  0  0  0  0  0  0  0
    5.3410   -2.4378    0.1090 C   0  0  0  0  0  0  0  0  0  0  0  0
    6.7500   -2.4645    0.2733 C   0  0  0  0  0  0  0  0  0  0  0  0
    7.5811   -2.4736   -0.8318 O   0  0  0  0  0  0  0  0  0  0  0  0
    8.8539   -2.4994   -0.3778 C   0  0  0  0  0  0  0  0  0  0  0  0
   10.0079   -2.5163   -1.1597 C   0  0  0  0  0  0  0  0  0  0  0  0
   11.2261   -2.5421   -0.4807 C   0  0  0  0  0  0  0  0  0  0  0  0
   11.2891   -2.5508    0.9306 C   0  0  0  0  0  0  0  0  0  0  0  0
   10.1310   -2.5338    1.7010 C   0  0  0  0  0  0  0  0  0  0  0  0
    8.8906   -2.5076    1.0350 C   0  0  0  0  0  0  0  0  0  0  0  0
    7.5115   -2.4846    1.4346 C   0  0  0  0  0  0  0  0  0  0  0  0
    6.9921   -2.4812    2.6719 O   0  0  0  0  0  0  0  0  0  0  0  0
    1.0489   -2.3457   -1.4299 H   0  0  0  0  0  0  0  0  0  0  0  0
    5.1980   -2.4241   -2.0365 H   0  0  0  0  0  0  0  0  0  0  0  0
    4.7559   -2.4316    1.0343 H   0  0  0  0  0  0  0  0  0  0  0  0
    9.9482   -2.5093   -2.2490 H   0  0  0  0  0  0  0  0  0  0  0  0
   12.1554   -2.5560   -1.0548 H   0  0  0  0  0  0  0  0  0  0  0  0
   12.2646   -2.5711    1.4212 H   0  0  0  0  0  0  0  0  0  0  0  0
   10.1928   -2.5405    2.7927 H   0  0  0  0  0  0  0  0  0  0  0  0
    7.6970   -2.5006    3.3324 H   0  0  0  0  0  0  0  0  0  0  0  0
  1  2  2  0
  2  3  1  0
  2  4  1  0
  3 18  1  0
  4  5  2  0
  4  6  1  0
  6  7  2  0
  6 19  1  0
  7  8  1  0
  7 20  1  0
  8  9  1  0
  8 16  2  0
  9 10  1  0
 10 11  2  0
 10 15  1  0
 11 12  1  0
 11 21  1  0
 12 13  2  0
 12 22  1  0
 13 14  1  0
 13 23  1  0
 14 15  2  0
 14 24  1  0
 15 16  1  0
 16 17  1  0
 17 25  1  0
M  END

