
     RDKit          3D

146155  0  0  0  0  0  0  0  0999 V2000
   10.9543    8.7261   11.1819 C   0  0  0  0  0  0  0  0  0  0  0  0
   10.1192    7.9750   10.1470 C   0  0  0  0  0  0  0  0  0  0  0  0
    9.9202    6.5573   10.4452 N   0  0  0  0  0  0  0  0  0  0  0  0
    9.3127    6.2790   11.7486 C   0  0  0  0  0  0  0  0  0  0  0  0
    7.9049    6.8439   12.0006 C   0  0  0  0  0  0  0  0  0  0  0  0
    9.3187    5.8326    9.3271 C   0  0  0  0  0  0  0  0  0  0  0  0
    9.6149    4.3298    9.3116 C   0  0  0  0  0  0  0  0  0  0  0  0
    8.9793    3.6129    8.1150 C   0  0  0  0  0  0  0  0  0  0  0  0
    9.3221    2.1192    8.0619 C   0  0  0  0  0  0  0  0  0  0  0  0
    8.6012    1.3157    6.9706 C   0  0  0  0  0  0  0  0  0  0  0  0
    8.9238    1.7065    5.5201 C   0  0  0  0  0  0  0  0  0  0  0  0
   10.3387    1.6289    5.1572 N   0  0  0  0  0  0  0  0  0  0  0  0
   11.0565    2.8523    4.9334 C   0  0  0  0  0  0  0  0  0  0  0  0
   10.5133    3.9452    4.8880 O   0  0  0  0  0  0  0  0  0  0  0  0
   12.4514    2.4414    4.8701 C   0  0  0  0  0  0  0  0  0  0  0  0
   13.7192    2.9015    4.5310 C   0  0  0  0  0  0  0  0  0  0  0  0
   14.0858    4.2459    4.0825 C   0  0  0  0  0  0  0  0  0  0  0  0
   13.3158    5.3530    4.5080 C   0  0  0  0  0  0  0  0  0  0  0  0
   13.6268    6.6431    4.0982 C   0  0  0  0  0  0  0  0  0  0  0  0
   14.7076    6.8957    3.2265 C   0  0  0  0  0  0  0  0  0  0  0  0
   15.0343    8.2298    2.7028 C   0  0  0  0  0  0  0  0  0  0  0  0
   14.9841    9.4683    3.2738 C   0  0  0  0  0  0  0  0  0  0  0  0
   14.7324    9.7360    4.7108 C   0  0  0  0  0  0  0  0  0  0  0  0
   15.1502    8.8551    5.7280 C   0  0  0  0  0  0  0  0  0  0  0  0
   14.8837    9.1281    7.0677 C   0  0  0  0  0  0  0  0  0  0  0  0
   14.1847   10.2884    7.4315 C   0  0  0  0  0  0  0  0  0  0  0  0
   13.7989   11.1902    6.4454 C   0  0  0  0  0  0  0  0  0  0  0  0
   14.0916   10.9373    5.0952 C   0  0  0  0  0  0  0  0  0  0  0  0
   13.7862   11.9984    4.0945 C   0  0  0  0  0  0  0  0  0  0  0  0
   13.0943   12.9668    4.3705 O   0  0  0  0  0  0  0  0  0  0  0  0
   14.4722   11.8696    2.7775 C   0  0  0  0  0  0  0  0  0  0  0  0
   14.4883   12.9860    1.9248 C   0  0  0  0  0  0  0  0  0  0  0  0
   15.1738   12.9438    0.7162 C   0  0  0  0  0  0  0  0  0  0  0  0
   15.8538   11.7720    0.3545 C   0  0  0  0  0  0  0  0  0  0  0  0
   15.8213   10.6518    1.1814 C   0  0  0  0  0  0  0  0  0  0  0  0
   15.1186   10.6678    2.4027 C   0  0  0  0  0  0  0  0  0  0  0  0
   15.4284    5.7811    2.7482 C   0  0  0  0  0  0  0  0  0  0  0  0
   15.1395    4.4899    3.1762 C   0  0  0  0  0  0  0  0  0  0  0  0
   14.5971    1.8179    4.6186 N   0  0  0  0  0  0  0  0  0  0  0  0
   16.0574    1.8304    4.7256 C   0  0  0  0  0  0  0  0  0  0  0  0
   16.6010    2.6786    5.8835 C   0  0  0  0  0  0  0  0  0  0  0  0
   16.0522    2.2970    7.2617 C   0  0  0  0  0  0  0  0  0  0  0  0
   16.5494    3.2095    8.3860 C   0  0  0  0  0  0  0  0  0  0  0  0
   15.9290    2.8918    9.7495 C   0  0  0  0  0  0  0  0  0  0  0  0
   16.3053    3.8826   10.8574 C   0  0  0  0  0  0  0  0  0  0  0  0
   15.9774    5.2746   10.5639 N   0  0  0  0  0  0  0  0  0  0  0  0
   14.5585    5.5452   10.3302 C   0  0  0  0  0  0  0  0  0  0  0  0
   13.5946    5.3526   11.5115 C   0  0  0  0  0  0  0  0  0  0  0  0
   16.6497    6.2052   11.4641 C   0  0  0  0  0  0  0  0  0  0  0  0
   16.6315    7.6592   10.9949 C   0  0  0  0  0  0  0  0  0  0  0  0
   13.8969    0.6154    4.9830 C   0  0  0  0  0  0  0  0  0  0  0  0
   14.4603   -0.4476    5.1789 O   0  0  0  0  0  0  0  0  0  0  0  0
   12.5064    1.0354    5.1054 C   0  0  0  0  0  0  0  0  0  0  0  0
   11.2140    0.5394    5.2348 C   0  0  0  0  0  0  0  0  0  0  0  0
   10.8128   -0.8646    5.3493 C   0  0  0  0  0  0  0  0  0  0  0  0
   11.7136   -1.7958    5.9172 C   0  0  0  0  0  0  0  0  0  0  0  0
   11.3820   -3.1398    6.0301 C   0  0  0  0  0  0  0  0  0  0  0  0
   10.1431   -3.6323    5.5666 C   0  0  0  0  0  0  0  0  0  0  0  0
    9.7690   -5.0535    5.5875 C   0  0  0  0  0  0  0  0  0  0  0  0
   10.0231   -6.0531    6.4816 C   0  0  0  0  0  0  0  0  0  0  0  0
   10.6383   -5.8689    7.8185 C   0  0  0  0  0  0  0  0  0  0  0  0
   10.4451   -4.7026    8.5850 C   0  0  0  0  0  0  0  0  0  0  0  0
   11.0528   -4.5534    9.8294 C   0  0  0  0  0  0  0  0  0  0  0  0
   11.8778   -5.5637   10.3443 C   0  0  0  0  0  0  0  0  0  0  0  0
   12.0478   -6.7396    9.6215 C   0  0  0  0  0  0  0  0  0  0  0  0
   11.4139   -6.9105    8.3799 C   0  0  0  0  0  0  0  0  0  0  0  0
   11.5120   -8.2394    7.7129 C   0  0  0  0  0  0  0  0  0  0  0  0
   12.2976   -9.0953    8.0909 O   0  0  0  0  0  0  0  0  0  0  0  0
   10.5144   -8.5048    6.6379 C   0  0  0  0  0  0  0  0  0  0  0  0
   10.3422   -9.8299    6.2040 C   0  0  0  0  0  0  0  0  0  0  0  0
    9.3762  -10.1442    5.2550 C   0  0  0  0  0  0  0  0  0  0  0  0
    8.5701   -9.1223    4.7335 C   0  0  0  0  0  0  0  0  0  0  0  0
    8.7515   -7.8021    5.1384 C   0  0  0  0  0  0  0  0  0  0  0  0
    9.7363   -7.4593    6.0864 C   0  0  0  0  0  0  0  0  0  0  0  0
    9.2761   -2.7124    4.9399 C   0  0  0  0  0  0  0  0  0  0  0  0
    9.5911   -1.3611    4.8467 C   0  0  0  0  0  0  0  0  0  0  0  0
   11.1747    9.7415   10.8160 H   0  0  0  0  0  0  0  0  0  0  0  0
   11.9101    8.2103   11.3659 H   0  0  0  0  0  0  0  0  0  0  0  0
   10.4367    8.8362   12.1476 H   0  0  0  0  0  0  0  0  0  0  0  0
   10.6386    8.0284    9.1757 H   0  0  0  0  0  0  0  0  0  0  0  0
    9.1556    8.5155    9.9991 H   0  0  0  0  0  0  0  0  0  0  0  0
    9.9933    6.6485   12.5327 H   0  0  0  0  0  0  0  0  0  0  0  0
    9.2898    5.1860   11.8808 H   0  0  0  0  0  0  0  0  0  0  0  0
    7.8878    7.9452   11.9718 H   0  0  0  0  0  0  0  0  0  0  0  0
    7.5497    6.5361   12.9974 H   0  0  0  0  0  0  0  0  0  0  0  0
    7.1715    6.4800   11.2633 H   0  0  0  0  0  0  0  0  0  0  0  0
    9.7238    6.2671    8.3984 H   0  0  0  0  0  0  0  0  0  0  0  0
    8.2171    5.9881    9.2666 H   0  0  0  0  0  0  0  0  0  0  0  0
    9.2577    3.8568   10.2431 H   0  0  0  0  0  0  0  0  0  0  0  0
   10.7100    4.1889    9.2979 H   0  0  0  0  0  0  0  0  0  0  0  0
    9.3025    4.1045    7.1815 H   0  0  0  0  0  0  0  0  0  0  0  0
    7.8801    3.7312    8.1608 H   0  0  0  0  0  0  0  0  0  0  0  0
    9.0756    1.6599    9.0359 H   0  0  0  0  0  0  0  0  0  0  0  0
   10.4150    1.9982    7.9500 H   0  0  0  0  0  0  0  0  0  0  0  0
    7.5087    1.4284    7.0933 H   0  0  0  0  0  0  0  0  0  0  0  0
    8.8107    0.2432    7.1150 H   0  0  0  0  0  0  0  0  0  0  0  0
    8.6548    2.7557    5.3341 H   0  0  0  0  0  0  0  0  0  0  0  0
    8.3155    1.1062    4.8279 H   0  0  0  0  0  0  0  0  0  0  0  0
   12.4472    5.1898    5.1461 H   0  0  0  0  0  0  0  0  0  0  0  0
   13.0054    7.4716    4.4406 H   0  0  0  0  0  0  0  0  0  0  0  0
   15.3081    8.2049    1.6437 H   0  0  0  0  0  0  0  0  0  0  0  0
   15.7035    7.9533    5.4664 H   0  0  0  0  0  0  0  0  0  0  0  0
   15.2292    8.4333    7.8374 H   0  0  0  0  0  0  0  0  0  0  0  0
   13.9684   10.4936    8.4828 H   0  0  0  0  0  0  0  0  0  0  0  0
   13.2849   12.1225    6.6877 H   0  0  0  0  0  0  0  0  0  0  0  0
   13.9556   13.8809    2.2524 H   0  0  0  0  0  0  0  0  0  0  0  0
   15.1944   13.8177    0.0607 H   0  0  0  0  0  0  0  0  0  0  0  0
   16.4196   11.7341   -0.5800 H   0  0  0  0  0  0  0  0  0  0  0  0
   16.3713    9.7581    0.8813 H   0  0  0  0  0  0  0  0  0  0  0  0
   16.2370    5.9359    2.0287 H   0  0  0  0  0  0  0  0  0  0  0  0
   15.7160    3.6610    2.7677 H   0  0  0  0  0  0  0  0  0  0  0  0
   16.5137    2.1420    3.7748 H   0  0  0  0  0  0  0  0  0  0  0  0
   16.3250    0.7738    4.8715 H   0  0  0  0  0  0  0  0  0  0  0  0
   16.3994    3.7462    5.6927 H   0  0  0  0  0  0  0  0  0  0  0  0
   17.7007    2.5742    5.8758 H   0  0  0  0  0  0  0  0  0  0  0  0
   16.3048    1.2443    7.4833 H   0  0  0  0  0  0  0  0  0  0  0  0
   14.9486    2.3402    7.2375 H   0  0  0  0  0  0  0  0  0  0  0  0
   16.3311    4.2609    8.1336 H   0  0  0  0  0  0  0  0  0  0  0  0
   17.6511    3.1463    8.4616 H   0  0  0  0  0  0  0  0  0  0  0  0
   16.2428    1.8857   10.0801 H   0  0  0  0  0  0  0  0  0  0  0  0
   14.8308    2.8336    9.6483 H   0  0  0  0  0  0  0  0  0  0  0  0
   17.3979    3.8354   11.0073 H   0  0  0  0  0  0  0  0  0  0  0  0
   15.8571    3.5321   11.8157 H   0  0  0  0  0  0  0  0  0  0  0  0
   14.2241    4.9145    9.4907 H   0  0  0  0  0  0  0  0  0  0  0  0
   14.4673    6.5791    9.9604 H   0  0  0  0  0  0  0  0  0  0  0  0
   13.5904    4.3129   11.8768 H   0  0  0  0  0  0  0  0  0  0  0  0
   12.5675    5.6020   11.1978 H   0  0  0  0  0  0  0  0  0  0  0  0
   13.8512    6.0028   12.3641 H   0  0  0  0  0  0  0  0  0  0  0  0
   17.7007    5.8780   11.5346 H   0  0  0  0  0  0  0  0  0  0  0  0
   16.2538    6.1538   12.5055 H   0  0  0  0  0  0  0  0  0  0  0  0
   16.9967    7.7352    9.9578 H   0  0  0  0  0  0  0  0  0  0  0  0
   17.2857    8.2706   11.6365 H   0  0  0  0  0  0  0  0  0  0  0  0
   15.6265    8.1073   11.0384 H   0  0  0  0  0  0  0  0  0  0  0  0
   12.6977   -1.4609    6.2455 H   0  0  0  0  0  0  0  0  0  0  0  0
   12.1084   -3.8283    6.4637 H   0  0  0  0  0  0  0  0  0  0  0  0
    9.2399   -5.3547    4.6784 H   0  0  0  0  0  0  0  0  0  0  0  0
    9.8001   -3.9101    8.2061 H   0  0  0  0  0  0  0  0  0  0  0  0
   10.8791   -3.6417   10.4068 H   0  0  0  0  0  0  0  0  0  0  0  0
   12.3630   -5.4371   11.3152 H   0  0  0  0  0  0  0  0  0  0  0  0
   12.6524   -7.5656   10.0010 H   0  0  0  0  0  0  0  0  0  0  0  0
   10.9836  -10.5947    6.6462 H   0  0  0  0  0  0  0  0  0  0  0  0
    9.2368  -11.1774    4.9283 H   0  0  0  0  0  0  0  0  0  0  0  0
    7.7881   -9.3590    4.0072 H   0  0  0  0  0  0  0  0  0  0  0  0
    8.1000   -7.0295    4.7263 H   0  0  0  0  0  0  0  0  0  0  0  0
    8.3314   -3.0690    4.5203 H   0  0  0  0  0  0  0  0  0  0  0  0
    8.8933   -0.6970    4.3393 H   0  0  0  0  0  0  0  0  0  0  0  0
  1  2  1  0
  1 77  1  0
  1 78  1  0
  1 79  1  0
  2  3  1  0
  2 80  1  0
  2 81  1  0
  3  4  1  0
  3  6  1  0
  4  5  1  0
  4 82  1  0
  4 83  1  0
  5 84  1  0
  5 85  1  0
  5 86  1  0
  6  7  1  0
  6 87  1  0
  6 88  1  0
  7  8  1  0
  7 89  1  0
  7 90  1  0
  8  9  1  0
  8 91  1  0
  8 92  1  0
  9 10  1  0
  9 93  1  0
  9 94  1  0
 10 11  1  0
 10 95  1  0
 10 96  1  0
 11 12  1  0
 11 97  1  0
 11 98  1  0
 12 13  1  0
 12 54  1  0
 13 14  2  0
 13 15  1  0
 15 16  2  0
 15 53  1  0
 16 17  1  0
 16 39  1  0
 17 18  2  0
 17 38  1  0
 18 19  1  0
 18 99  1  0
 19 20  2  0
 19100  1  0
 20 21  1  0
 20 37  1  0
 21 22  2  0
 21101  1  0
 22 23  1  0
 22 36  1  0
 23 24  2  0
 23 28  1  0
 24 25  1  0
 24102  1  0
 25 26  2  0
 25103  1  0
 26 27  1  0
 26104  1  0
 27 28  2  0
 27105  1  0
 28 29  1  0
 29 30  2  0
 29 31  1  0
 31 32  2  0
 31 36  1  0
 32 33  1  0
 32106  1  0
 33 34  2  0
 33107  1  0
 34 35  1  0
 34108  1  0
 35 36  2  0
 35109  1  0
 37 38  2  0
 37110  1  0
 38111  1  0
 39 40  1  0
 39 51  1  0
 40 41  1  0
 40112  1  0
 40113  1  0
 41 42  1  0
 41114  1  0
 41115  1  0
 42 43  1  0
 42116  1  0
 42117  1  0
 43 44  1  0
 43118  1  0
 43119  1  0
 44 45  1  0
 44120  1  0
 44121  1  0
 45 46  1  0
 45122  1  0
 45123  1  0
 46 47  1  0
 46 49  1  0
 47 48  1  0
 47124  1  0
 47125  1  0
 48126  1  0
 48127  1  0
 48128  1  0
 49 50  1  0
 49129  1  0
 49130  1  0
 50131  1  0
 50132  1  0
 50133  1  0
 51 52  2  0
 51 53  1  0
 53 54  2  0
 54 55  1  0
 55 56  2  0
 55 76  1  0
 56 57  1  0
 56134  1  0
 57 58  2  0
 57135  1  0
 58 59  1  0
 58 75  1  0
 59 60  2  0
 59136  1  0
 60 61  1  0
 60 74  1  0
 61 62  2  0
 61 66  1  0
 62 63  1  0
 62137  1  0
 63 64  2  0
 63138  1  0
 64 65  1  0
 64139  1  0
 65 66  2  0
 65140  1  0
 66 67  1  0
 67 68  2  0
 67 69  1  0
 69 70  2  0
 69 74  1  0
 70 71  1  0
 70141  1  0
 71 72  2  0
 71142  1  0
 72 73  1  0
 72143  1  0
 73 74  2  0
 73144  1  0
 75 76  2  0
 75145  1  0
 76146  1  0
M  END

