
     RDKit          3D

 46 49  0  0  0  0  0  0  0  0999 V2000
    1.0843    1.3857   -0.1839 C   0  0  0  0  0  0  0  0  0  0  0  0
    2.3902    2.0423   -0.5870 C   0  0  0  0  0  0  0  0  0  0  0  0
    3.1848    1.0738   -1.2591 O   0  0  0  0  0  0  0  0  0  0  0  0
    4.4273    1.4053   -1.6893 C   0  0  0  0  0  0  0  0  0  0  0  0
    4.9952    2.6771   -1.5613 C   0  0  0  0  0  0  0  0  0  0  0  0
    6.3083    2.9344   -2.0068 C   0  0  0  0  0  0  0  0  0  0  0  0
    6.8773    4.2812   -1.8471 C   0  0  0  0  0  0  0  0  0  0  0  0
    8.1558    4.6902   -1.7476 C   0  0  0  0  0  0  0  0  0  0  0  0
    8.1948    6.1891   -1.6583 C   0  0  2  0  0  0  0  0  0  0  0  0
    8.8526    6.9339   -2.8448 C   0  0  0  0  0  0  0  0  0  0  0  0
    9.2594    8.2569   -2.2005 C   0  0  0  0  0  0  0  0  0  0  0  0
    9.7316    7.8821   -0.9163 O   0  0  0  0  0  0  0  0  0  0  0  0
    8.9406    6.8077   -0.4394 C   0  0  0  0  0  0  0  0  0  0  0  0
    6.7879    6.5400   -1.5493 O   0  0  0  0  0  0  0  0  0  0  0  0
    5.9855    5.3754   -1.7339 N   0  0  0  0  0  0  0  0  0  0  0  0
    7.0482    1.8966   -2.5910 C   0  0  0  0  0  0  0  0  0  0  0  0
    6.4828    0.6273   -2.7237 C   0  0  0  0  0  0  0  0  0  0  0  0
    5.1835    0.3640   -2.2864 C   0  0  0  0  0  0  0  0  0  0  0  0
    4.6909   -0.9037   -2.3813 O   0  0  0  0  0  0  0  0  0  0  0  0
    3.6249   -1.1379   -3.3029 C   0  0  0  0  0  0  0  0  0  0  0  0
    3.1387   -2.5612   -3.1547 C   0  0  1  0  0  0  0  0  0  0  0  0
    4.0775   -3.6824   -2.7937 C   0  0  0  0  0  0  0  0  0  0  0  0
    3.0410   -3.2116   -1.8003 C   0  0  0  0  0  0  0  0  0  0  0  0
    0.4482    2.1071    0.3519 H   0  0  0  0  0  0  0  0  0  0  0  0
    1.2695    0.5255    0.4770 H   0  0  0  0  0  0  0  0  0  0  0  0
    0.5346    1.0286   -1.0683 H   0  0  0  0  0  0  0  0  0  0  0  0
    2.9317    2.4180    0.3008 H   0  0  0  0  0  0  0  0  0  0  0  0
    2.2072    2.9072   -1.2520 H   0  0  0  0  0  0  0  0  0  0  0  0
    4.4455    3.4877   -1.0850 H   0  0  0  0  0  0  0  0  0  0  0  0
    9.0392    4.0556   -1.7119 H   0  0  0  0  0  0  0  0  0  0  0  0
    8.1531    7.0248   -3.6881 H   0  0  0  0  0  0  0  0  0  0  0  0
    9.7461    6.3824   -3.1808 H   0  0  0  0  0  0  0  0  0  0  0  0
    8.3861    8.9367   -2.1258 H   0  0  0  0  0  0  0  0  0  0  0  0
   10.0693    8.7877   -2.7236 H   0  0  0  0  0  0  0  0  0  0  0  0
    8.1784    7.1463    0.2859 H   0  0  0  0  0  0  0  0  0  0  0  0
    9.6014    6.0785    0.0575 H   0  0  0  0  0  0  0  0  0  0  0  0
    5.4541    5.5163   -2.6007 H   0  0  0  0  0  0  0  0  0  0  0  0
    8.0576    2.0855   -2.9612 H   0  0  0  0  0  0  0  0  0  0  0  0
    7.0425   -0.1948   -3.1747 H   0  0  0  0  0  0  0  0  0  0  0  0
    3.9936   -0.9632   -4.3328 H   0  0  0  0  0  0  0  0  0  0  0  0
    2.7981   -0.4337   -3.1109 H   0  0  0  0  0  0  0  0  0  0  0  0
    2.3444   -2.7991   -3.8718 H   0  0  0  0  0  0  0  0  0  0  0  0
    5.1183   -3.4191   -2.5896 H   0  0  0  0  0  0  0  0  0  0  0  0
    3.9353   -4.6522   -3.2794 H   0  0  0  0  0  0  0  0  0  0  0  0
    3.3972   -2.6324   -0.9445 H   0  0  0  0  0  0  0  0  0  0  0  0
    2.1808   -3.8555   -1.5951 H   0  0  0  0  0  0  0  0  0  0  0  0
  1  2  1  0
  1 24  1  0
  1 25  1  0
  1 26  1  0
  2  3  1  0
  2 27  1  0
  2 28  1  0
  3  4  1  0
  4  5  2  0
  4 18  1  0
  5  6  1  0
  5 29  1  0
  6  7  1  0
  6 16  2  0
  7  8  2  0
  7 15  1  0
  8  9  1  0
  8 30  1  0
  9 10  1  0
  9 13  1  0
  9 14  1  1
 10 11  1  0
 10 31  1  0
 10 32  1  0
 11 12  1  0
 11 33  1  0
 11 34  1  0
 12 13  1  0
 13 35  1  0
 13 36  1  0
 14 15  1  0
 15 37  1  0
 16 17  1  0
 16 38  1  0
 17 18  2  0
 17 39  1  0
 18 19  1  0
 19 20  1  0
 20 21  1  0
 20 40  1  0
 20 41  1  0
 21 22  1  0
 21 23  1  0
 21 42  1  6
 22 23  1  0
 22 43  1  0
 22 44  1  0
 23 45  1  0
 23 46  1  0
M  END

