
     RDKit          3D

 40 44  0  0  0  0  0  0  0  0999 V2000
    1.3946    0.5478    0.1497 F   0  0  0  0  0  0  0  0  0  0  0  0
    2.7026    0.3745   -0.0790 C   0  0  0  0  0  0  0  0  0  0  0  0
    3.5246    1.4893   -0.2228 C   0  0  0  0  0  0  0  0  0  0  0  0
    4.8846    1.2936   -0.4607 C   0  0  0  0  0  0  0  0  0  0  0  0
    5.4404    0.0007   -0.5579 C   0  0  0  0  0  0  0  0  0  0  0  0
    6.8748   -0.1364   -0.8093 C   0  0  0  0  0  0  0  0  0  0  0  0
    7.5764   -1.2870   -0.9337 C   0  0  0  0  0  0  0  0  0  0  0  0
    8.9948   -1.3592   -1.1824 C   0  0  0  0  0  0  0  0  0  0  0  0
    9.7182   -2.4402   -1.3107 N   0  0  0  0  0  0  0  0  0  0  0  0
   10.9994   -1.9840   -1.5347 C   0  0  0  0  0  0  0  0  0  0  0  0
   12.2175   -2.7151   -1.7489 C   0  0  0  0  0  0  0  0  0  0  0  0
   12.2504   -4.1256   -1.7566 C   0  0  0  0  0  0  0  0  0  0  0  0
   13.4433   -4.7978   -1.9654 C   0  0  0  0  0  0  0  0  0  0  0  0
   14.6283   -4.0660   -2.1709 C   0  0  0  0  0  0  0  0  0  0  0  0
   14.6094   -2.6790   -2.1660 C   0  0  0  0  0  0  0  0  0  0  0  0
   13.4115   -1.9533   -1.9567 C   0  0  0  0  0  0  0  0  0  0  0  0
   13.3732   -0.4820   -1.9490 C   0  0  0  0  0  0  0  0  0  0  0  0
   14.5265    0.3122   -2.1518 C   0  0  0  0  0  0  0  0  0  0  0  0
   14.4710    1.6987   -2.1417 C   0  0  0  0  0  0  0  0  0  0  0  0
   13.2493    2.3647   -1.9264 C   0  0  0  0  0  0  0  0  0  0  0  0
   12.0946    1.6288   -1.7233 C   0  0  0  0  0  0  0  0  0  0  0  0
   12.1386    0.2161   -1.7315 C   0  0  0  0  0  0  0  0  0  0  0  0
   10.9943   -0.6045   -1.5315 C   0  0  0  0  0  0  0  0  0  0  0  0
    9.7156   -0.1947   -1.3068 O   0  0  0  0  0  0  0  0  0  0  0  0
    4.5708   -1.1019   -0.4056 C   0  0  0  0  0  0  0  0  0  0  0  0
    3.2115   -0.9226   -0.1678 C   0  0  0  0  0  0  0  0  0  0  0  0
    3.0928    2.4891   -0.1473 H   0  0  0  0  0  0  0  0  0  0  0  0
    5.5368    2.1634   -0.5748 H   0  0  0  0  0  0  0  0  0  0  0  0
    7.4263    0.8043   -0.9050 H   0  0  0  0  0  0  0  0  0  0  0  0
    7.1044   -2.2683   -0.8524 H   0  0  0  0  0  0  0  0  0  0  0  0
   11.3151   -4.6648   -1.5939 H   0  0  0  0  0  0  0  0  0  0  0  0
   13.4660   -5.8904   -1.9710 H   0  0  0  0  0  0  0  0  0  0  0  0
   15.5723   -4.5916   -2.3355 H   0  0  0  0  0  0  0  0  0  0  0  0
   15.5471   -2.1465   -2.3283 H   0  0  0  0  0  0  0  0  0  0  0  0
   15.4908   -0.1672   -2.3217 H   0  0  0  0  0  0  0  0  0  0  0  0
   15.3849    2.2758   -2.3026 H   0  0  0  0  0  0  0  0  0  0  0  0
   13.2134    3.4568   -1.9200 H   0  0  0  0  0  0  0  0  0  0  0  0
   11.1368    2.1253   -1.5546 H   0  0  0  0  0  0  0  0  0  0  0  0
    4.9614   -2.1191   -0.4736 H   0  0  0  0  0  0  0  0  0  0  0  0
    2.5349   -1.7712   -0.0492 H   0  0  0  0  0  0  0  0  0  0  0  0
  1  2  1  0
  2  3  2  0
  2 26  1  0
  3  4  1  0
  3 27  1  0
  4  5  2  0
  4 28  1  0
  5  6  1  0
  5 25  1  0
  6  7  2  0
  6 29  1  0
  7  8  1  0
  7 30  1  0
  8  9  2  0
  8 24  1  0
  9 10  1  0
 10 11  2  0
 10 23  1  0
 11 12  1  0
 11 16  1  0
 12 13  2  0
 12 31  1  0
 13 14  1  0
 13 32  1  0
 14 15  2  0
 14 33  1  0
 15 16  1  0
 15 34  1  0
 16 17  2  0
 17 18  1  0
 17 22  1  0
 18 19  2  0
 18 35  1  0
 19 20  1  0
 19 36  1  0
 20 21  2  0
 20 37  1  0
 21 22  1  0
 21 38  1  0
 22 23  2  0
 23 24  1  0
 25 26  2  0
 25 39  1  0
 26 40  1  0
M  END

