
     RDKit          3D

 56 59  0  0  0  0  0  0  0  0999 V2000
    4.9796   -6.0310    3.7100 C   0  0  0  0  0  0  0  0  0  0  0  0
    3.7105   -6.6326    3.2365 C   0  0  0  0  0  0  0  0  0  0  0  0
    3.5900   -7.9853    3.2414 O   0  0  0  0  0  0  0  0  0  0  0  0
    2.3366   -8.2593    2.7615 C   0  0  0  0  0  0  0  0  0  0  0  0
    1.9245   -9.6579    2.6530 C   0  0  0  0  0  0  0  0  0  0  0  0
    2.7816  -10.7028    3.0418 C   0  0  0  0  0  0  0  0  0  0  0  0
    2.3632  -12.0294    2.9279 C   0  0  0  0  0  0  0  0  0  0  0  0
    1.0918  -12.3268    2.4273 C   0  0  0  0  0  0  0  0  0  0  0  0
    0.2358  -11.2892    2.0389 C   0  0  0  0  0  0  0  0  0  0  0  0
    0.6462   -9.9619    2.1497 C   0  0  0  0  0  0  0  0  0  0  0  0
    1.6695   -7.1881    2.4596 N   0  0  0  0  0  0  0  0  0  0  0  0
    2.5213   -6.1367    2.7520 C   0  0  0  0  0  0  0  0  0  0  0  0
    2.1765   -4.7139    2.5633 C   0  0  0  0  0  0  0  0  0  0  0  0
    2.9052   -3.7815    2.8171 O   0  0  0  0  0  0  0  0  0  0  0  0
    0.9335   -4.5690    2.0671 O   0  0  0  0  0  0  0  0  0  0  0  0
    0.4490   -3.2470    1.8390 C   0  0  0  0  0  0  0  0  0  0  0  0
   -1.0021   -3.2860    1.3569 C   0  0  0  0  0  0  0  0  0  0  0  0
   -1.5667   -2.2346    1.1076 O   0  0  0  0  0  0  0  0  0  0  0  0
   -1.5338   -4.5363    1.2533 N   0  0  0  0  0  0  0  0  0  0  0  0
   -2.8297   -4.9107    0.8419 C   0  0  0  0  0  0  0  0  0  0  0  0
   -3.8168   -3.9968    0.4469 C   0  0  0  0  0  0  0  0  0  0  0  0
   -5.0809   -4.4489    0.0589 C   0  0  0  0  0  0  0  0  0  0  0  0
   -5.4101   -5.8188    0.0292 C   0  0  0  0  0  0  0  0  0  0  0  0
   -6.6650   -6.2926   -0.4010 N   0  0  0  0  0  0  0  0  0  0  0  0
   -7.5697   -5.3644   -1.0658 C   0  0  0  0  0  0  0  0  0  0  0  0
   -8.6220   -6.1095   -1.8945 C   0  0  0  0  0  0  0  0  0  0  0  0
   -9.3802   -7.1391   -1.0531 C   0  0  0  0  0  0  0  0  0  0  0  0
   -8.3903   -8.0718   -0.3499 C   0  0  0  0  0  0  0  0  0  0  0  0
   -7.3556   -7.2708    0.4421 C   0  0  0  0  0  0  0  0  0  0  0  0
   -4.4000   -6.7251    0.4232 C   0  0  0  0  0  0  0  0  0  0  0  0
   -3.1463   -6.2812    0.8250 C   0  0  0  0  0  0  0  0  0  0  0  0
    5.1822   -6.3182    4.7552 H   0  0  0  0  0  0  0  0  0  0  0  0
    4.9087   -4.9390    3.6410 H   0  0  0  0  0  0  0  0  0  0  0  0
    5.8294   -6.3811    3.1008 H   0  0  0  0  0  0  0  0  0  0  0  0
    3.7737  -10.4699    3.4324 H   0  0  0  0  0  0  0  0  0  0  0  0
    3.0345  -12.8362    3.2321 H   0  0  0  0  0  0  0  0  0  0  0  0
    0.7673  -13.3666    2.3392 H   0  0  0  0  0  0  0  0  0  0  0  0
   -0.7581  -11.5180    1.6466 H   0  0  0  0  0  0  0  0  0  0  0  0
   -0.0103   -9.1434    1.8499 H   0  0  0  0  0  0  0  0  0  0  0  0
    1.0609   -2.7329    1.0806 H   0  0  0  0  0  0  0  0  0  0  0  0
    0.5025   -2.6471    2.7613 H   0  0  0  0  0  0  0  0  0  0  0  0
   -0.9049   -5.2942    1.5053 H   0  0  0  0  0  0  0  0  0  0  0  0
   -3.5919   -2.9324    0.4595 H   0  0  0  0  0  0  0  0  0  0  0  0
   -5.8239   -3.6998   -0.2148 H   0  0  0  0  0  0  0  0  0  0  0  0
   -6.9814   -4.7136   -1.7285 H   0  0  0  0  0  0  0  0  0  0  0  0
   -8.0819   -4.6994   -0.3324 H   0  0  0  0  0  0  0  0  0  0  0  0
   -8.1135   -6.6204   -2.7307 H   0  0  0  0  0  0  0  0  0  0  0  0
   -9.3159   -5.3759   -2.3378 H   0  0  0  0  0  0  0  0  0  0  0  0
  -10.0833   -7.7130   -1.6793 H   0  0  0  0  0  0  0  0  0  0  0  0
   -9.9905   -6.6157   -0.2936 H   0  0  0  0  0  0  0  0  0  0  0  0
   -7.8657   -8.6897   -1.0997 H   0  0  0  0  0  0  0  0  0  0  0  0
   -8.9153   -8.7618    0.3319 H   0  0  0  0  0  0  0  0  0  0  0  0
   -6.6195   -7.9492    0.8914 H   0  0  0  0  0  0  0  0  0  0  0  0
   -7.8642   -6.7538    1.2882 H   0  0  0  0  0  0  0  0  0  0  0  0
   -4.5909   -7.7993    0.3891 H   0  0  0  0  0  0  0  0  0  0  0  0
   -2.3872   -7.0131    1.1176 H   0  0  0  0  0  0  0  0  0  0  0  0
  1  2  1  0
  1 32  1  0
  1 33  1  0
  1 34  1  0
  2  3  1  0
  2 12  2  0
  3  4  1  0
  4  5  1  0
  4 11  2  0
  5  6  2  0
  5 10  1  0
  6  7  1  0
  6 35  1  0
  7  8  2  0
  7 36  1  0
  8  9  1  0
  8 37  1  0
  9 10  2  0
  9 38  1  0
 10 39  1  0
 11 12  1  0
 12 13  1  0
 13 14  2  0
 13 15  1  0
 15 16  1  0
 16 17  1  0
 16 40  1  0
 16 41  1  0
 17 18  2  0
 17 19  1  0
 19 20  1  0
 19 42  1  0
 20 21  2  0
 20 31  1  0
 21 22  1  0
 21 43  1  0
 22 23  2  0
 22 44  1  0
 23 24  1  0
 23 30  1  0
 24 25  1  0
 24 29  1  0
 25 26  1  0
 25 45  1  0
 25 46  1  0
 26 27  1  0
 26 47  1  0
 26 48  1  0
 27 28  1  0
 27 49  1  0
 27 50  1  0
 28 29  1  0
 28 51  1  0
 28 52  1  0
 29 53  1  0
 29 54  1  0
 30 31  2  0
 30 55  1  0
 31 56  1  0
M  END

