
     RDKit          3D

 65 67  0  0  0  0  0  0  0  0999 V2000
    4.6054    1.1789    1.3140 C   0  0  0  0  0  0  0  0  0  0  0  0
    3.7212    0.1417    0.6527 C   0  0  0  0  0  0  0  0  0  0  0  0
    2.4466    0.4587    0.2410 C   0  0  0  0  0  0  0  0  0  0  0  0
    1.8249    1.8255    0.2956 C   0  0  0  0  0  0  0  0  0  0  0  0
    0.7160    2.0179    0.7670 O   0  0  0  0  0  0  0  0  0  0  0  0
    2.5414    2.8434   -0.3033 N   0  0  0  0  0  0  0  0  0  0  0  0
    2.0702    4.2006   -0.3102 C   0  0  0  0  0  0  0  0  0  0  0  0
    3.0126    5.1401    0.4220 C   0  0  1  0  0  0  0  0  0  0  0  0
    4.2375    5.1372   -0.1469 F   0  0  0  0  0  0  0  0  0  0  0  0
    2.5527    6.3992    0.3857 F   0  0  0  0  0  0  0  0  0  0  0  0
    3.1740    4.7943    1.7088 F   0  0  0  0  0  0  0  0  0  0  0  0
    1.5515   -0.5786   -0.2318 C   0  0  0  0  0  0  0  0  0  0  0  0
    1.9655   -1.8573   -0.3566 C   0  0  0  0  0  0  0  0  0  0  0  0
    3.3167   -2.2915   -0.0175 C   0  0  0  0  0  0  0  0  0  0  0  0
    4.2272   -1.2391    0.5142 C   0  0  0  0  0  0  0  0  0  0  0  0
    5.5191   -1.4669    0.9628 C   0  0  0  0  0  0  0  0  0  0  0  0
    6.3513   -2.5351    0.7883 N   0  0  0  0  0  0  0  0  0  0  0  0
    7.4203   -2.7222    1.7637 C   0  0  0  0  0  0  0  0  0  0  0  0
    7.0829   -3.6690    2.9175 C   0  0  1  0  0  0  0  0  0  0  0  0
    8.1340   -3.7093    4.0697 C   0  0  0  0  0  0  0  0  0  0  0  0
    7.0823   -3.2883    4.9830 N   0  0  0  0  0  0  0  0  0  0  0  0
    7.2098   -2.7967    6.2464 C   0  0  0  0  0  0  0  0  0  0  0  0
    8.2549   -2.8131    6.8677 O   0  0  0  0  0  0  0  0  0  0  0  0
    6.0234   -2.3109    6.6703 O   0  0  0  0  0  0  0  0  0  0  0  0
    5.8529   -1.7463    8.0115 C   0  0  1  0  0  0  0  0  0  0  0  0
    6.7460   -0.5120    8.1775 C   0  0  0  0  0  0  0  0  0  0  0  0
    4.3746   -1.3535    8.0326 C   0  0  0  0  0  0  0  0  0  0  0  0
    6.1470   -2.8149    9.0698 C   0  0  0  0  0  0  0  0  0  0  0  0
    6.0413   -3.1718    3.9656 C   0  0  0  0  0  0  0  0  0  0  0  0
    6.1112   -3.5023   -0.2891 C   0  0  1  0  0  0  0  0  0  0  0  0
    7.3369   -4.3566   -0.6185 C   0  0  0  0  0  0  0  0  0  0  0  0
    4.8604   -4.3712   -0.0088 C   0  0  0  0  0  0  0  0  0  0  0  0
    3.5782   -3.6260   -0.1823 C   0  0  0  0  0  0  0  0  0  0  0  0
    4.0928    2.1362    1.4495 H   0  0  0  0  0  0  0  0  0  0  0  0
    5.5332    1.3677    0.7471 H   0  0  0  0  0  0  0  0  0  0  0  0
    4.9116    0.8431    2.3188 H   0  0  0  0  0  0  0  0  0  0  0  0
    3.4078    2.6210   -0.7775 H   0  0  0  0  0  0  0  0  0  0  0  0
    1.0932    4.2142    0.1932 H   0  0  0  0  0  0  0  0  0  0  0  0
    1.9435    4.5975   -1.3321 H   0  0  0  0  0  0  0  0  0  0  0  0
    0.5282   -0.2937   -0.4830 H   0  0  0  0  0  0  0  0  0  0  0  0
    1.2758   -2.6203   -0.7265 H   0  0  0  0  0  0  0  0  0  0  0  0
    5.9980   -0.6758    1.5410 H   0  0  0  0  0  0  0  0  0  0  0  0
    7.6660   -1.7313    2.1812 H   0  0  0  0  0  0  0  0  0  0  0  0
    8.3316   -3.0806    1.2628 H   0  0  0  0  0  0  0  0  0  0  0  0
    6.8449   -4.6713    2.5328 H   0  0  0  0  0  0  0  0  0  0  0  0
    8.9619   -2.9827    3.9765 H   0  0  0  0  0  0  0  0  0  0  0  0
    8.5663   -4.6985    4.2954 H   0  0  0  0  0  0  0  0  0  0  0  0
    6.5385    0.2205    7.3815 H   0  0  0  0  0  0  0  0  0  0  0  0
    7.8078   -0.7869    8.1390 H   0  0  0  0  0  0  0  0  0  0  0  0
    6.5386   -0.0297    9.1456 H   0  0  0  0  0  0  0  0  0  0  0  0
    4.1567   -0.6193    7.2422 H   0  0  0  0  0  0  0  0  0  0  0  0
    4.1116   -0.9084    9.0041 H   0  0  0  0  0  0  0  0  0  0  0  0
    3.7371   -2.2353    7.8680 H   0  0  0  0  0  0  0  0  0  0  0  0
    7.2017   -3.1167    9.0417 H   0  0  0  0  0  0  0  0  0  0  0  0
    5.5181   -3.7033    8.9014 H   0  0  0  0  0  0  0  0  0  0  0  0
    5.9173   -2.4195   10.0716 H   0  0  0  0  0  0  0  0  0  0  0  0
    5.6736   -2.1424    3.8135 H   0  0  0  0  0  0  0  0  0  0  0  0
    5.1699   -3.8277    4.1266 H   0  0  0  0  0  0  0  0  0  0  0  0
    5.8849   -2.8983   -1.1833 H   0  0  0  0  0  0  0  0  0  0  0  0
    7.5940   -5.0607    0.1884 H   0  0  0  0  0  0  0  0  0  0  0  0
    8.2215   -3.7410   -0.8412 H   0  0  0  0  0  0  0  0  0  0  0  0
    7.1196   -4.9549   -1.5156 H   0  0  0  0  0  0  0  0  0  0  0  0
    4.9657   -4.8069    1.0033 H   0  0  0  0  0  0  0  0  0  0  0  0
    4.8569   -5.2360   -0.6960 H   0  0  0  0  0  0  0  0  0  0  0  0
    2.7435   -4.2253   -0.5591 H   0  0  0  0  0  0  0  0  0  0  0  0
  1  2  1  0
  1 34  1  0
  1 35  1  0
  1 36  1  0
  2  3  2  0
  2 15  1  0
  3  4  1  0
  3 12  1  0
  4  5  2  0
  4  6  1  0
  6  7  1  0
  6 37  1  0
  7  8  1  0
  7 38  1  0
  7 39  1  0
  8  9  1  6
  8 10  1  0
  8 11  1  0
 12 13  2  0
 12 40  1  0
 13 14  1  0
 13 41  1  0
 14 15  1  0
 14 33  2  0
 15 16  2  0
 16 17  1  0
 16 42  1  0
 17 18  1  0
 17 30  1  0
 18 19  1  0
 18 43  1  0
 18 44  1  0
 19 20  1  0
 19 29  1  0
 19 45  1  6
 20 21  1  0
 20 46  1  0
 20 47  1  0
 21 22  1  0
 21 29  1  0
 22 23  2  0
 22 24  1  0
 25 24  1  6
 25 26  1  0
 25 27  1  0
 25 28  1  0
 26 48  1  0
 26 49  1  0
 26 50  1  0
 27 51  1  0
 27 52  1  0
 27 53  1  0
 28 54  1  0
 28 55  1  0
 28 56  1  0
 29 57  1  0
 29 58  1  0
 30 31  1  0
 30 32  1  0
 30 59  1  6
 31 60  1  0
 31 61  1  0
 31 62  1  0
 32 33  1  0
 32 63  1  0
 32 64  1  0
 33 65  1  0
M  END

