
     RDKit          3D

 57 60  0  0  0  0  0  0  0  0999 V2000
    3.7636    3.2043   -3.5595 C   0  0  0  0  0  0  0  0  0  0  0  0
    3.2361    2.5349   -2.2867 C   0  0  2  0  0  0  0  0  0  0  0  0
    2.1721    2.8242   -2.1897 H   0  0  0  0  0  0  0  0  0  0  0  0
    3.9540    3.0515   -1.0256 C   0  0  0  0  0  0  0  0  0  0  0  0
    3.3741    2.4462    0.2591 C   0  0  0  0  0  0  0  0  0  0  0  0
    3.3500    0.9119    0.2026 C   0  0  0  0  0  0  0  0  0  0  0  0
    2.6483    0.3773   -1.0570 C   0  0  1  0  0  0  0  0  0  0  0  0
    2.7692   -0.7148   -1.1140 H   0  0  0  0  0  0  0  0  0  0  0  0
    1.2051    0.6013   -0.9635 N   0  0  0  0  0  0  0  0  0  0  0  0
    0.2930   -0.2478   -1.5176 C   0  0  0  0  0  0  0  0  0  0  0  0
    0.6295   -1.2425   -2.1515 O   0  0  0  0  0  0  0  0  0  0  0  0
   -1.1742    0.1063   -1.2603 C   0  0  1  0  0  0  0  0  0  0  0  0
   -2.0086    0.0866   -2.5622 C   0  0  0  0  0  0  0  0  0  0  0  0
   -2.3103   -1.3313   -3.0629 C   0  0  0  0  0  0  0  0  0  0  0  0
   -2.8929   -2.1572   -1.9935 N   0  0  0  0  0  0  0  0  0  0  0  0
   -4.5506   -2.2713   -1.8719 S   0  0  1  0  0  0  0  0  0  0  0  0
   -4.9174   -2.3343   -0.4563 O   0  0  0  0  0  0  0  0  0  0  0  0
   -5.1669   -1.2945   -2.7776 O   0  0  0  0  0  0  0  0  0  0  0  0
   -4.9267   -3.8897   -2.5679 C   0  0  0  0  0  0  0  0  0  0  0  0
   -5.7606   -3.9993   -3.6505 C   0  0  0  0  0  0  0  0  0  0  0  0
   -6.1254   -5.2757   -4.2087 C   0  0  0  0  0  0  0  0  0  0  0  0
   -5.6644   -6.4575   -3.6905 C   0  0  0  0  0  0  0  0  0  0  0  0
   -4.7936   -6.3712   -2.5615 C   0  0  0  0  0  0  0  0  0  0  0  0
   -4.1970   -7.3231   -1.8664 N   0  0  0  0  0  0  0  0  0  0  0  0
   -3.4905   -6.6724   -0.9156 O   0  0  0  0  0  0  0  0  0  0  0  0
   -3.6135   -5.3243   -0.9755 N   0  0  0  0  0  0  0  0  0  0  0  0
   -4.4239   -5.1010   -1.9923 C   0  0  0  0  0  0  0  0  0  0  0  0
   -2.0737   -2.2457   -0.7736 C   0  0  0  0  0  0  0  0  0  0  0  0
   -1.7883   -0.8515   -0.2072 C   0  0  0  0  0  0  0  0  0  0  0  0
    3.2465    0.9844   -2.3570 C   0  0  2  0  0  0  0  0  0  0  0  0
    2.5677    0.6819   -3.1725 H   0  0  0  0  0  0  0  0  0  0  0  0
    4.6185    0.3712   -2.6742 C   0  0  0  0  0  0  0  0  0  0  0  0
    4.8466    3.0453   -3.6882 H   0  0  0  0  0  0  0  0  0  0  0  0
    3.5955    4.2932   -3.5283 H   0  0  0  0  0  0  0  0  0  0  0  0
    3.2592    2.8137   -4.4586 H   0  0  0  0  0  0  0  0  0  0  0  0
    3.8886    4.1524   -0.9878 H   0  0  0  0  0  0  0  0  0  0  0  0
    5.0315    2.8146   -1.0899 H   0  0  0  0  0  0  0  0  0  0  0  0
    2.3502    2.8377    0.4141 H   0  0  0  0  0  0  0  0  0  0  0  0
    3.9498    2.7798    1.1384 H   0  0  0  0  0  0  0  0  0  0  0  0
    2.8657    0.4917    1.0997 H   0  0  0  0  0  0  0  0  0  0  0  0
    4.3861    0.5354    0.2064 H   0  0  0  0  0  0  0  0  0  0  0  0
    0.8664    1.4157   -0.4673 H   0  0  0  0  0  0  0  0  0  0  0  0
   -1.2135    1.1293   -0.8492 H   0  0  0  0  0  0  0  0  0  0  0  0
   -1.4937    0.6550   -3.3546 H   0  0  0  0  0  0  0  0  0  0  0  0
   -2.9684    0.5943   -2.3698 H   0  0  0  0  0  0  0  0  0  0  0  0
   -1.3833   -1.8238   -3.3891 H   0  0  0  0  0  0  0  0  0  0  0  0
   -3.0094   -1.2955   -3.9079 H   0  0  0  0  0  0  0  0  0  0  0  0
   -6.1557   -3.0827   -4.0930 H   0  0  0  0  0  0  0  0  0  0  0  0
   -6.7944   -5.2858   -5.0722 H   0  0  0  0  0  0  0  0  0  0  0  0
   -5.9369   -7.4277   -4.1074 H   0  0  0  0  0  0  0  0  0  0  0  0
   -1.1367   -2.7516   -1.0513 H   0  0  0  0  0  0  0  0  0  0  0  0
   -2.5937   -2.8708   -0.0388 H   0  0  0  0  0  0  0  0  0  0  0  0
   -1.1204   -0.9338    0.6668 H   0  0  0  0  0  0  0  0  0  0  0  0
   -2.7388   -0.4223    0.1516 H   0  0  0  0  0  0  0  0  0  0  0  0
    4.5523   -0.7286   -2.6865 H   0  0  0  0  0  0  0  0  0  0  0  0
    5.3941    0.6466   -1.9420 H   0  0  0  0  0  0  0  0  0  0  0  0
    4.9781    0.6852   -3.6655 H   0  0  0  0  0  0  0  0  0  0  0  0
  1  2  1  0
  1 33  1  0
  1 34  1  0
  1 35  1  0
  2  3  1  1
  2  4  1  0
  2 30  1  0
  4  5  1  0
  4 36  1  0
  4 37  1  0
  5  6  1  0
  5 38  1  0
  5 39  1  0
  6  7  1  0
  6 40  1  0
  6 41  1  0
  7  8  1  6
  7  9  1  0
  7 30  1  0
  9 10  1  0
  9 42  1  0
 10 11  2  0
 10 12  1  0
 12 13  1  0
 12 29  1  0
 12 43  1  1
 13 14  1  0
 13 44  1  0
 13 45  1  0
 14 15  1  0
 14 46  1  0
 14 47  1  0
 15 16  1  0
 15 28  1  0
 16 17  2  0
 16 18  2  0
 16 19  1  6
 19 20  2  0
 19 27  1  0
 20 21  1  0
 20 48  1  0
 21 22  2  0
 21 49  1  0
 22 23  1  0
 22 50  1  0
 23 24  2  0
 23 27  1  0
 24 25  1  0
 25 26  1  0
 26 27  2  0
 28 29  1  0
 28 51  1  0
 28 52  1  0
 29 53  1  0
 29 54  1  0
 30 31  1  6
 30 32  1  0
 32 55  1  0
 32 56  1  0
 32 57  1  0
M  END

