
     RDKit          3D

 43 46  0  0  0  0  0  0  0  0999 V2000
    3.0036    4.4183    5.3722 C   0  0  0  0  0  0  0  0  0  0  0  0
    4.1866    3.7508    5.7025 C   0  0  0  0  0  0  0  0  0  0  0  0
    4.8941    3.0474    4.7235 C   0  0  0  0  0  0  0  0  0  0  0  0
    4.4368    2.9971    3.3963 C   0  0  0  0  0  0  0  0  0  0  0  0
    5.2227    2.2694    2.3310 C   0  0  1  0  0  0  0  0  0  0  0  0
    5.9573    0.9439    2.6815 C   0  0  0  0  0  0  0  0  0  0  0  0
    5.4740    0.3408    1.3186 C   0  0  2  0  0  0  0  0  0  0  0  0
    6.4237    0.2803    0.2227 N   0  0  0  0  0  0  0  0  0  0  0  0
    7.4551   -0.7327    0.3412 C   0  0  0  0  0  0  0  0  0  0  0  0
    8.2677   -0.8958   -0.9282 C   0  0  0  0  0  0  0  0  0  0  0  0
    9.5814   -1.3889   -0.8887 C   0  0  0  0  0  0  0  0  0  0  0  0
   10.2682   -1.5551   -2.0902 C   0  0  0  0  0  0  0  0  0  0  0  0
    9.7467   -1.2658   -3.2837 N   0  0  0  0  0  0  0  0  0  0  0  0
    8.5026   -0.7950   -3.3242 C   0  0  0  0  0  0  0  0  0  0  0  0
    7.9976   -0.5027   -4.6125 N   0  0  0  0  0  0  0  0  0  0  0  0
    8.6956   -0.6435   -5.8041 C   0  0  0  0  0  0  0  0  0  0  0  0
    7.8254   -0.2484   -6.7879 C   0  0  0  0  0  0  0  0  0  0  0  0
    6.6152    0.1297   -6.2463 N   0  0  0  0  0  0  0  0  0  0  0  0
    6.7445   -0.0308   -4.9557 C   0  0  0  0  0  0  0  0  0  0  0  0
    7.7198   -0.5905   -2.1757 C   0  0  0  0  0  0  0  0  0  0  0  0
    4.4727    1.5175    1.1939 C   0  0  0  0  0  0  0  0  0  0  0  0
    3.2469    3.6727    3.0789 C   0  0  0  0  0  0  0  0  0  0  0  0
    2.5366    4.3769    4.0554 C   0  0  0  0  0  0  0  0  0  0  0  0
    2.4477    4.9661    6.1374 H   0  0  0  0  0  0  0  0  0  0  0  0
    4.5608    3.7752    6.7295 H   0  0  0  0  0  0  0  0  0  0  0  0
    5.8180    2.5301    4.9963 H   0  0  0  0  0  0  0  0  0  0  0  0
    5.9410    2.9839    1.8884 H   0  0  0  0  0  0  0  0  0  0  0  0
    5.5032    0.4349    3.5458 H   0  0  0  0  0  0  0  0  0  0  0  0
    7.0462    0.9979    2.8408 H   0  0  0  0  0  0  0  0  0  0  0  0
    5.0102   -0.6555    1.4090 H   0  0  0  0  0  0  0  0  0  0  0  0
    6.8434    1.1946    0.0512 H   0  0  0  0  0  0  0  0  0  0  0  0
    6.9533   -1.6963    0.5524 H   0  0  0  0  0  0  0  0  0  0  0  0
    8.1543   -0.5744    1.1910 H   0  0  0  0  0  0  0  0  0  0  0  0
   10.0629   -1.6347    0.0609 H   0  0  0  0  0  0  0  0  0  0  0  0
   11.2957   -1.9367   -2.0908 H   0  0  0  0  0  0  0  0  0  0  0  0
    9.7181   -1.0046   -5.8091 H   0  0  0  0  0  0  0  0  0  0  0  0
    8.0057   -0.2160   -7.8618 H   0  0  0  0  0  0  0  0  0  0  0  0
    5.9737    0.1705   -4.2139 H   0  0  0  0  0  0  0  0  0  0  0  0
    6.7053   -0.1970   -2.2215 H   0  0  0  0  0  0  0  0  0  0  0  0
    3.4533    1.2270    1.4887 H   0  0  0  0  0  0  0  0  0  0  0  0
    4.4280    1.9980    0.2043 H   0  0  0  0  0  0  0  0  0  0  0  0
    2.8698    3.6503    2.0528 H   0  0  0  0  0  0  0  0  0  0  0  0
    1.6119    4.8942    3.7857 H   0  0  0  0  0  0  0  0  0  0  0  0
  1  2  2  0
  1 23  1  0
  1 24  1  0
  2  3  1  0
  2 25  1  0
  3  4  2  0
  3 26  1  0
  4  5  1  0
  4 22  1  0
  5  6  1  0
  5 21  1  0
  5 27  1  6
  6  7  1  0
  6 28  1  0
  6 29  1  0
  7  8  1  0
  7 21  1  0
  7 30  1  1
  8  9  1  0
  8 31  1  0
  9 10  1  0
  9 32  1  0
  9 33  1  0
 10 11  2  0
 10 20  1  0
 11 12  1  0
 11 34  1  0
 12 13  2  0
 12 35  1  0
 13 14  1  0
 14 15  1  0
 14 20  2  0
 15 16  1  0
 15 19  1  0
 16 17  2  0
 16 36  1  0
 17 18  1  0
 17 37  1  0
 18 19  2  0
 19 38  1  0
 20 39  1  0
 21 40  1  0
 21 41  1  0
 22 23  2  0
 22 42  1  0
 23 43  1  0
M  END

