
     RDKit          3D

 45 46  0  0  0  0  0  0  0  0999 V2000
    0.8714    0.3016    0.5727 C   0  0  0  0  0  0  0  0  0  0  0  0
    2.2471    0.5385    0.7554 O   0  0  0  0  0  0  0  0  0  0  0  0
    2.9841   -0.3708    1.4504 C   0  0  0  0  0  0  0  0  0  0  0  0
    4.3318   -0.0336    1.6796 C   0  0  0  0  0  0  0  0  0  0  0  0
    5.1689   -0.8983    2.3691 C   0  0  0  0  0  0  0  0  0  0  0  0
    4.6843   -2.1266    2.8555 C   0  0  0  0  0  0  0  0  0  0  0  0
    5.5837   -2.9043    3.5268 O   0  0  0  0  0  0  0  0  0  0  0  0
    5.1941   -4.1773    3.9846 C   0  0  0  0  0  0  0  0  0  0  0  0
    6.4150   -4.8226    4.6283 C   0  0  0  0  0  0  0  0  0  0  0  0
    6.1112   -6.1691    5.0737 N   0  0  0  0  0  0  0  0  0  0  0  0
    6.7464   -6.7411    6.1473 C   0  0  0  0  0  0  0  0  0  0  0  0
    7.5650   -6.1385    6.8214 O   0  0  0  0  0  0  0  0  0  0  0  0
    6.3784   -8.1727    6.4526 C   0  0  0  0  0  0  0  0  0  0  0  0
    7.2760   -8.9101    7.2384 C   0  0  0  0  0  0  0  0  0  0  0  0
    6.9906  -10.2317    7.5826 C   0  0  0  0  0  0  0  0  0  0  0  0
    5.8038  -10.8294    7.1540 C   0  0  0  0  0  0  0  0  0  0  0  0
    4.8830  -10.0952    6.3944 C   0  0  0  0  0  0  0  0  0  0  0  0
    3.6330  -10.6631    5.9900 N   0  0  0  0  0  0  0  0  0  0  0  0
    3.5733  -11.6374    4.5758 S   0  0  1  0  0  0  0  0  0  0  0  0
    2.9225  -10.5030    3.3455 C   0  0  0  0  0  0  0  0  0  0  0  0
    4.9254  -12.0083    4.1646 O   0  0  0  0  0  0  0  0  0  0  0  0
    2.5469  -12.6402    4.8594 O   0  0  0  0  0  0  0  0  0  0  0  0
    5.1736   -8.7691    6.0504 C   0  0  0  0  0  0  0  0  0  0  0  0
    3.3472   -2.4656    2.6328 C   0  0  0  0  0  0  0  0  0  0  0  0
    2.5001   -1.5911    1.9314 C   0  0  0  0  0  0  0  0  0  0  0  0
    0.4658    1.1816    0.0551 H   0  0  0  0  0  0  0  0  0  0  0  0
    0.3429    0.1784    1.5356 H   0  0  0  0  0  0  0  0  0  0  0  0
    0.6845   -0.5927   -0.0503 H   0  0  0  0  0  0  0  0  0  0  0  0
    4.6997    0.9221    1.3010 H   0  0  0  0  0  0  0  0  0  0  0  0
    6.2149   -0.6430    2.5502 H   0  0  0  0  0  0  0  0  0  0  0  0
    4.8283   -4.7964    3.1397 H   0  0  0  0  0  0  0  0  0  0  0  0
    4.3714   -4.1064    4.7217 H   0  0  0  0  0  0  0  0  0  0  0  0
    6.7333   -4.2479    5.5086 H   0  0  0  0  0  0  0  0  0  0  0  0
    7.2567   -4.8035    3.9115 H   0  0  0  0  0  0  0  0  0  0  0  0
    5.6287   -6.7826    4.4285 H   0  0  0  0  0  0  0  0  0  0  0  0
    8.1917   -8.4198    7.5730 H   0  0  0  0  0  0  0  0  0  0  0  0
    7.6997  -10.8044    8.1848 H   0  0  0  0  0  0  0  0  0  0  0  0
    5.5839  -11.8695    7.4059 H   0  0  0  0  0  0  0  0  0  0  0  0
    3.1666  -11.2117    6.7131 H   0  0  0  0  0  0  0  0  0  0  0  0
    3.6284   -9.6726    3.2213 H   0  0  0  0  0  0  0  0  0  0  0  0
    1.9384  -10.1528    3.6791 H   0  0  0  0  0  0  0  0  0  0  0  0
    2.8419  -11.0765    2.4119 H   0  0  0  0  0  0  0  0  0  0  0  0
    4.4118   -8.1994    5.5137 H   0  0  0  0  0  0  0  0  0  0  0  0
    2.9358   -3.4068    2.9986 H   0  0  0  0  0  0  0  0  0  0  0  0
    1.4626   -1.8861    1.7719 H   0  0  0  0  0  0  0  0  0  0  0  0
  1  2  1  0
  1 26  1  0
  1 27  1  0
  1 28  1  0
  2  3  1  0
  3  4  2  0
  3 25  1  0
  4  5  1  0
  4 29  1  0
  5  6  2  0
  5 30  1  0
  6  7  1  0
  6 24  1  0
  7  8  1  0
  8  9  1  0
  8 31  1  0
  8 32  1  0
  9 10  1  0
  9 33  1  0
  9 34  1  0
 10 11  1  0
 10 35  1  0
 11 12  2  0
 11 13  1  0
 13 14  2  0
 13 23  1  0
 14 15  1  0
 14 36  1  0
 15 16  2  0
 15 37  1  0
 16 17  1  0
 16 38  1  0
 17 18  1  0
 17 23  2  0
 19 18  1  1
 18 39  1  0
 19 20  1  0
 19 21  2  0
 19 22  2  0
 20 40  1  0
 20 41  1  0
 20 42  1  0
 23 43  1  0
 24 25  2  0
 24 44  1  0
 25 45  1  0
M  END

