
     RDKit          3D

 46 49  0  0  0  0  0  0  0  0999 V2000
    2.4182   -1.4085   -1.3618 C   0  0  0  0  0  0  0  0  0  0  0  0
    2.1982   -0.1973   -0.4487 C   0  0  1  0  0  0  0  0  0  0  0  0
    0.7057    0.0273   -0.1773 C   0  0  0  0  0  0  0  0  0  0  0  0
    2.9775   -0.3175    0.8848 C   0  0  0  0  0  0  0  0  0  0  0  0
    4.4828   -0.3601    0.7454 C   0  0  0  0  0  0  0  0  0  0  0  0
    5.2126    0.8104    0.4702 C   0  0  0  0  0  0  0  0  0  0  0  0
    6.5968    0.7840    0.3198 C   0  0  0  0  0  0  0  0  0  0  0  0
    7.3154   -0.4209    0.4379 C   0  0  0  0  0  0  0  0  0  0  0  0
    8.7827   -0.4779    0.2773 C   0  0  0  0  0  0  0  0  0  0  0  0
    9.5969    0.5537   -0.1248 C   0  0  0  0  0  0  0  0  0  0  0  0
   11.2583    0.0367   -0.1855 S   0  0  0  0  0  0  0  0  0  0  0  0
   10.7228   -1.5581    0.3429 C   0  0  0  0  0  0  0  0  0  0  0  0
   11.6402   -2.5636    0.5765 N   0  0  0  0  0  0  0  0  0  0  0  0
   11.2274   -3.9176    0.7516 C   0  0  1  0  0  0  0  0  0  0  0  0
   11.0718   -4.6151   -0.5121 O   0  0  0  0  0  0  0  0  0  0  0  0
   11.8156   -5.7641   -0.5606 C   0  0  0  0  0  0  0  0  0  0  0  0
   11.8220   -6.5022   -1.5046 O   0  0  0  0  0  0  0  0  0  0  0  0
   12.5559   -5.8635    0.7271 C   0  0  0  0  0  0  0  0  0  0  0  0
   13.4564   -6.8356    1.1634 C   0  0  0  0  0  0  0  0  0  0  0  0
   14.0310   -6.6653    2.4260 C   0  0  0  0  0  0  0  0  0  0  0  0
   13.7097   -5.5473    3.2147 C   0  0  0  0  0  0  0  0  0  0  0  0
   12.8057   -4.5764    2.7651 C   0  0  0  0  0  0  0  0  0  0  0  0
   12.2314   -4.7583    1.5082 C   0  0  0  0  0  0  0  0  0  0  0  0
    9.4467   -1.6654    0.5344 N   0  0  0  0  0  0  0  0  0  0  0  0
    6.5910   -1.5914    0.7202 C   0  0  0  0  0  0  0  0  0  0  0  0
    5.2036   -1.5570    0.8695 C   0  0  0  0  0  0  0  0  0  0  0  0
    1.8842   -1.2841   -2.3178 H   0  0  0  0  0  0  0  0  0  0  0  0
    2.0408   -2.3321   -0.8890 H   0  0  0  0  0  0  0  0  0  0  0  0
    3.4842   -1.5612   -1.5898 H   0  0  0  0  0  0  0  0  0  0  0  0
    2.5850    0.6963   -0.9737 H   0  0  0  0  0  0  0  0  0  0  0  0
    0.2679   -0.8321    0.3595 H   0  0  0  0  0  0  0  0  0  0  0  0
    0.1431    0.1523   -1.1166 H   0  0  0  0  0  0  0  0  0  0  0  0
    0.5355    0.9255    0.4387 H   0  0  0  0  0  0  0  0  0  0  0  0
    2.6310   -1.2215    1.4157 H   0  0  0  0  0  0  0  0  0  0  0  0
    2.7012    0.5407    1.5219 H   0  0  0  0  0  0  0  0  0  0  0  0
    4.6851    1.7649    0.3817 H   0  0  0  0  0  0  0  0  0  0  0  0
    7.1240    1.7197    0.1203 H   0  0  0  0  0  0  0  0  0  0  0  0
    9.3306    1.5693   -0.4049 H   0  0  0  0  0  0  0  0  0  0  0  0
   12.5813   -2.4198    0.2273 H   0  0  0  0  0  0  0  0  0  0  0  0
   10.2356   -3.8960    1.2274 H   0  0  0  0  0  0  0  0  0  0  0  0
   13.6950   -7.6930    0.5301 H   0  0  0  0  0  0  0  0  0  0  0  0
   14.7394   -7.4051    2.8065 H   0  0  0  0  0  0  0  0  0  0  0  0
   14.1752   -5.4341    4.1971 H   0  0  0  0  0  0  0  0  0  0  0  0
   12.5632   -3.7065    3.3802 H   0  0  0  0  0  0  0  0  0  0  0  0
    7.1344   -2.5318    0.8191 H   0  0  0  0  0  0  0  0  0  0  0  0
    4.6678   -2.4847    1.0905 H   0  0  0  0  0  0  0  0  0  0  0  0
  1  2  1  0
  1 27  1  0
  1 28  1  0
  1 29  1  0
  2  3  1  0
  2  4  1  0
  2 30  1  6
  3 31  1  0
  3 32  1  0
  3 33  1  0
  4  5  1  0
  4 34  1  0
  4 35  1  0
  5  6  2  0
  5 26  1  0
  6  7  1  0
  6 36  1  0
  7  8  2  0
  7 37  1  0
  8  9  1  0
  8 25  1  0
  9 10  2  0
  9 24  1  0
 10 11  1  0
 10 38  1  0
 11 12  1  0
 12 13  1  0
 12 24  2  0
 13 14  1  0
 13 39  1  0
 14 15  1  0
 14 23  1  0
 14 40  1  1
 15 16  1  0
 16 17  2  0
 16 18  1  0
 18 19  1  0
 18 23  2  0
 19 20  2  0
 19 41  1  0
 20 21  1  0
 20 42  1  0
 21 22  2  0
 21 43  1  0
 22 23  1  0
 22 44  1  0
 25 26  2  0
 25 45  1  0
 26 46  1  0
M  END

