
     RDKit          3D

 43 46  0  0  0  0  0  0  0  0999 V2000
    2.7822    1.8575   -1.0024 C   0  0  0  0  0  0  0  0  0  0  0  0
    3.1986    0.4837   -0.4686 C   0  0  1  0  0  0  0  0  0  0  0  0
    3.2861   -0.5343   -1.5806 C   0  0  0  0  0  0  0  0  0  0  0  0
    3.6625   -0.3757   -2.8111 N   0  0  0  0  0  0  0  0  0  0  0  0
    3.7003   -1.6301   -3.3883 N   0  0  0  0  0  0  0  0  0  0  0  0
    3.3442   -2.4763   -2.4688 C   0  0  0  0  0  0  0  0  0  0  0  0
    3.2131   -3.9260   -2.5757 C   0  0  0  0  0  0  0  0  0  0  0  0
    3.5090   -4.5584   -3.7968 C   0  0  0  0  0  0  0  0  0  0  0  0
    3.3901   -5.9386   -3.9112 C   0  0  0  0  0  0  0  0  0  0  0  0
    2.9762   -6.7125   -2.8181 C   0  0  0  0  0  0  0  0  0  0  0  0
    2.8399   -8.4337   -2.9985 Cl  0  0  0  0  0  0  0  0  0  0  0  0
    2.6782   -6.0836   -1.5963 C   0  0  0  0  0  0  0  0  0  0  0  0
    2.1596   -7.0039   -0.2148 Cl  0  0  0  0  0  0  0  0  0  0  0  0
    2.7972   -4.6967   -1.4803 C   0  0  0  0  0  0  0  0  0  0  0  0
    3.0677   -1.8502   -1.2914 O   0  0  0  0  0  0  0  0  0  0  0  0
    4.4300    0.5413    0.3104 N   0  0  0  0  0  0  0  0  0  0  0  0
    5.7092    0.8886   -0.3265 C   0  0  2  0  0  0  0  0  0  0  0  0
    6.5504   -0.4061   -0.1956 C   0  0  0  0  0  0  0  0  0  0  0  0
    6.0064   -1.1203    1.0651 C   0  0  0  0  0  0  0  0  0  0  0  0
    4.6642   -0.4041    1.4164 C   0  0  1  0  0  0  0  0  0  0  0  0
    4.6732    0.3677    2.7801 C   0  0  0  0  0  0  0  0  0  0  0  0
    5.1192    1.7932    2.4559 C   0  0  0  0  0  0  0  0  0  0  0  0
    4.3974    2.7556    2.5676 O   0  0  0  0  0  0  0  0  0  0  0  0
    6.3924    1.8743    1.8463 N   0  0  0  0  0  0  0  0  0  0  0  0
    6.3402    2.1060    0.3979 C   0  0  0  0  0  0  0  0  0  0  0  0
    1.7991    1.8029   -1.4940 H   0  0  0  0  0  0  0  0  0  0  0  0
    3.5005    2.2317   -1.7459 H   0  0  0  0  0  0  0  0  0  0  0  0
    2.7324    2.5665   -0.1641 H   0  0  0  0  0  0  0  0  0  0  0  0
    2.4144    0.1308    0.2192 H   0  0  0  0  0  0  0  0  0  0  0  0
    3.8303   -3.9534   -4.6459 H   0  0  0  0  0  0  0  0  0  0  0  0
    3.6168   -6.4403   -4.8532 H   0  0  0  0  0  0  0  0  0  0  0  0
    2.5598   -4.2233   -0.5276 H   0  0  0  0  0  0  0  0  0  0  0  0
    5.5516    1.1438   -1.3863 H   0  0  0  0  0  0  0  0  0  0  0  0
    7.6331   -0.2081   -0.1439 H   0  0  0  0  0  0  0  0  0  0  0  0
    6.3879   -1.0283   -1.0887 H   0  0  0  0  0  0  0  0  0  0  0  0
    6.7174   -1.0800    1.9056 H   0  0  0  0  0  0  0  0  0  0  0  0
    5.8299   -2.1887    0.8706 H   0  0  0  0  0  0  0  0  0  0  0  0
    3.8458   -1.1393    1.4496 H   0  0  0  0  0  0  0  0  0  0  0  0
    5.3298   -0.1289    3.5152 H   0  0  0  0  0  0  0  0  0  0  0  0
    3.6637    0.4263    3.2096 H   0  0  0  0  0  0  0  0  0  0  0  0
    6.9563    1.0538    2.0530 H   0  0  0  0  0  0  0  0  0  0  0  0
    7.3552    2.3051    0.0162 H   0  0  0  0  0  0  0  0  0  0  0  0
    5.7321    3.0043    0.2217 H   0  0  0  0  0  0  0  0  0  0  0  0
  1  2  1  0
  1 26  1  0
  1 27  1  0
  1 28  1  0
  2  3  1  0
  2 16  1  0
  2 29  1  1
  3  4  2  0
  3 15  1  0
  4  5  1  0
  5  6  2  0
  6  7  1  0
  6 15  1  0
  7  8  2  0
  7 14  1  0
  8  9  1  0
  8 30  1  0
  9 10  2  0
  9 31  1  0
 10 11  1  0
 10 12  1  0
 12 13  1  0
 12 14  2  0
 14 32  1  0
 16 17  1  0
 16 20  1  0
 17 18  1  0
 17 25  1  0
 17 33  1  6
 18 19  1  0
 18 34  1  0
 18 35  1  0
 19 20  1  0
 19 36  1  0
 19 37  1  0
 20 21  1  0
 20 38  1  1
 21 22  1  0
 21 39  1  0
 21 40  1  0
 22 23  2  0
 22 24  1  0
 24 25  1  0
 24 41  1  0
 25 42  1  0
 25 43  1  0
M  END

