
     RDKit          3D

 52 54  0  0  0  0  0  0  0  0999 V2000
    7.8040    2.3574    1.9544 C   0  0  0  0  0  0  0  0  0  0  0  0
    7.5884    1.4413    1.0055 C   0  0  0  0  0  0  0  0  0  0  0  0
    7.0555    1.8423   -0.3363 C   0  0  0  0  0  0  0  0  0  0  0  0
    6.7981    2.9991   -0.6232 O   0  0  0  0  0  0  0  0  0  0  0  0
    6.8910    0.7752   -1.1971 N   0  0  0  0  0  0  0  0  0  0  0  0
    6.4178    0.7664   -2.5208 C   0  0  0  0  0  0  0  0  0  0  0  0
    5.9827    1.9236   -3.1912 C   0  0  0  0  0  0  0  0  0  0  0  0
    5.5323    1.8092   -4.5083 C   0  0  0  0  0  0  0  0  0  0  0  0
    5.4872    0.5796   -5.1632 C   0  0  0  0  0  0  0  0  0  0  0  0
    5.9227   -0.5768   -4.4949 C   0  0  0  0  0  0  0  0  0  0  0  0
    5.9246   -1.7987   -5.2041 N   0  0  0  0  0  0  0  0  0  0  0  0
    5.9248   -3.0964   -4.7483 C   0  0  0  0  0  0  0  0  0  0  0  0
    6.6146   -3.9588   -5.5060 N   0  0  0  0  0  0  0  0  0  0  0  0
    6.6444   -5.2482   -5.1514 C   0  0  0  0  0  0  0  0  0  0  0  0
    7.3643   -6.0504   -6.0144 N   0  0  0  0  0  0  0  0  0  0  0  0
    7.5349   -7.3596   -5.8088 N   0  0  0  0  0  0  0  0  0  0  0  0
    8.1872   -8.0770   -6.6624 C   0  0  0  0  0  0  0  0  0  0  0  0
    8.7717   -7.5103   -7.9378 C   0  0  0  0  0  0  0  0  0  0  0  0
    8.3522   -9.5170   -6.3256 C   0  0  0  0  0  0  0  0  0  0  0  0
    7.6296  -10.0735   -5.2543 C   0  0  0  0  0  0  0  0  0  0  0  0
    7.7881  -11.4211   -4.9303 C   0  0  0  0  0  0  0  0  0  0  0  0
    8.6611  -12.2367   -5.6493 C   0  0  0  0  0  0  0  0  0  0  0  0
    9.3943  -11.6929   -6.7150 C   0  0  0  0  0  0  0  0  0  0  0  0
   10.2312  -12.5478   -7.3626 O   0  0  0  0  0  0  0  0  0  0  0  0
   11.0009  -12.0808   -8.4441 C   0  0  0  0  0  0  0  0  0  0  0  0
    9.2380  -10.3401   -7.0513 C   0  0  0  0  0  0  0  0  0  0  0  0
    6.0667   -5.7900   -4.0748 N   0  0  0  0  0  0  0  0  0  0  0  0
    5.3520   -4.9471   -3.3364 C   0  0  0  0  0  0  0  0  0  0  0  0
    5.2164   -3.5870   -3.6188 C   0  0  0  0  0  0  0  0  0  0  0  0
    4.1059   -2.6303   -2.6721 Cl  0  0  0  0  0  0  0  0  0  0  0  0
    6.4034   -0.4729   -3.1853 C   0  0  0  0  0  0  0  0  0  0  0  0
    8.1918    2.0861    2.9391 H   0  0  0  0  0  0  0  0  0  0  0  0
    7.5887    3.4097    1.7478 H   0  0  0  0  0  0  0  0  0  0  0  0
    7.7973    0.3819    1.1929 H   0  0  0  0  0  0  0  0  0  0  0  0
    7.1383   -0.1348   -0.8267 H   0  0  0  0  0  0  0  0  0  0  0  0
    6.0065    2.8809   -2.6776 H   0  0  0  0  0  0  0  0  0  0  0  0
    5.1943    2.7073   -5.0315 H   0  0  0  0  0  0  0  0  0  0  0  0
    5.1079    0.5025   -6.1847 H   0  0  0  0  0  0  0  0  0  0  0  0
    6.2970   -1.7447   -6.1483 H   0  0  0  0  0  0  0  0  0  0  0  0
    7.7775   -5.5595   -6.8065 H   0  0  0  0  0  0  0  0  0  0  0  0
    8.1041   -6.7518   -8.3791 H   0  0  0  0  0  0  0  0  0  0  0  0
    8.9124   -8.2849   -8.7013 H   0  0  0  0  0  0  0  0  0  0  0  0
    9.7515   -7.0304   -7.7636 H   0  0  0  0  0  0  0  0  0  0  0  0
    6.9516   -9.4327   -4.6904 H   0  0  0  0  0  0  0  0  0  0  0  0
    7.2183  -11.8471   -4.1001 H   0  0  0  0  0  0  0  0  0  0  0  0
    8.7951  -13.2929   -5.4080 H   0  0  0  0  0  0  0  0  0  0  0  0
   11.5865  -12.9371   -8.8058 H   0  0  0  0  0  0  0  0  0  0  0  0
   11.6975  -11.2773   -8.1413 H   0  0  0  0  0  0  0  0  0  0  0  0
   10.3699  -11.7074   -9.2717 H   0  0  0  0  0  0  0  0  0  0  0  0
    9.8196   -9.9207   -7.8699 H   0  0  0  0  0  0  0  0  0  0  0  0
    4.8265   -5.3599   -2.4674 H   0  0  0  0  0  0  0  0  0  0  0  0
    6.7763   -1.3627   -2.6742 H   0  0  0  0  0  0  0  0  0  0  0  0
  1  2  2  0
  1 32  1  0
  1 33  1  0
  2  3  1  0
  2 34  1  0
  3  4  2  0
  3  5  1  0
  5  6  1  0
  5 35  1  0
  6  7  2  0
  6 31  1  0
  7  8  1  0
  7 36  1  0
  8  9  2  0
  8 37  1  0
  9 10  1  0
  9 38  1  0
 10 11  1  0
 10 31  2  0
 11 12  1  0
 11 39  1  0
 12 13  2  0
 12 29  1  0
 13 14  1  0
 14 15  1  0
 14 27  2  0
 15 16  1  0
 15 40  1  0
 16 17  2  0
 17 18  1  0
 17 19  1  0
 18 41  1  0
 18 42  1  0
 18 43  1  0
 19 20  2  0
 19 26  1  0
 20 21  1  0
 20 44  1  0
 21 22  2  0
 21 45  1  0
 22 23  1  0
 22 46  1  0
 23 24  1  0
 23 26  2  0
 24 25  1  0
 25 47  1  0
 25 48  1  0
 25 49  1  0
 26 50  1  0
 27 28  1  0
 28 29  2  0
 28 51  1  0
 29 30  1  0
 31 52  1  0
M  END

