
     RDKit          3D

 41 42  0  0  0  0  0  0  0  0999 V2000
    1.2769   -0.7224    0.8286 C   0  0  0  0  0  0  0  0  0  0  0  0
    2.7017   -0.3421    0.4243 C   0  0  0  0  0  0  0  0  0  0  0  0
    3.1336   -0.9578   -0.9097 C   0  0  0  0  0  0  0  0  0  0  0  0
    4.5688   -0.5885   -1.3135 C   0  0  1  0  0  0  0  0  0  0  0  0
    5.5540   -0.9275   -0.3481 O   0  0  0  0  0  0  0  0  0  0  0  0
    5.6645   -2.2790    0.0486 C   0  0  0  0  0  0  0  0  0  0  0  0
    4.9172   -1.1181   -2.6849 C   0  0  0  0  0  0  0  0  0  0  0  0
    5.3352   -0.3202   -3.6339 N   0  0  0  0  0  0  0  0  0  0  0  0
    5.5389   -1.1754   -4.7135 O   0  0  0  0  0  0  0  0  0  0  0  0
    5.2240   -2.4139   -4.3065 C   0  0  0  0  0  0  0  0  0  0  0  0
    5.4172   -3.5572   -5.2636 C   0  0  1  0  0  0  0  0  0  0  0  0
    4.6153   -4.8016   -4.8371 C   0  0  0  0  0  0  0  0  0  0  0  0
    3.1278   -4.6446   -5.1579 C   0  0  0  0  0  0  0  0  0  0  0  0
    2.9519   -4.3346   -6.5718 N   0  0  0  0  0  0  0  0  0  0  0  0
    3.5771   -3.0767   -6.9758 C   0  0  2  0  0  0  0  0  0  0  0  0
    3.2696   -2.7857   -8.4421 C   0  0  0  0  0  0  0  0  0  0  0  0
    5.0887   -3.1756   -6.7233 C   0  0  0  0  0  0  0  0  0  0  0  0
    4.8284   -2.4394   -3.0661 N   0  0  0  0  0  0  0  0  0  0  0  0
    0.9947   -0.2633    1.7894 H   0  0  0  0  0  0  0  0  0  0  0  0
    1.1684   -1.8147    0.9378 H   0  0  0  0  0  0  0  0  0  0  0  0
    0.5421   -0.3935    0.0744 H   0  0  0  0  0  0  0  0  0  0  0  0
    3.4107   -0.6471    1.2116 H   0  0  0  0  0  0  0  0  0  0  0  0
    2.7892    0.7573    0.3583 H   0  0  0  0  0  0  0  0  0  0  0  0
    2.4609   -0.6140   -1.7151 H   0  0  0  0  0  0  0  0  0  0  0  0
    3.0269   -2.0558   -0.8822 H   0  0  0  0  0  0  0  0  0  0  0  0
    4.6425    0.5072   -1.3910 H   0  0  0  0  0  0  0  0  0  0  0  0
    6.5401   -2.3364    0.7120 H   0  0  0  0  0  0  0  0  0  0  0  0
    5.8165   -2.9617   -0.8042 H   0  0  0  0  0  0  0  0  0  0  0  0
    4.7814   -2.6281    0.6167 H   0  0  0  0  0  0  0  0  0  0  0  0
    6.4954   -3.7975   -5.2094 H   0  0  0  0  0  0  0  0  0  0  0  0
    4.7555   -4.9959   -3.7637 H   0  0  0  0  0  0  0  0  0  0  0  0
    5.0083   -5.6663   -5.3954 H   0  0  0  0  0  0  0  0  0  0  0  0
    2.6953   -3.8670   -4.4889 H   0  0  0  0  0  0  0  0  0  0  0  0
    2.6015   -5.5864   -4.9323 H   0  0  0  0  0  0  0  0  0  0  0  0
    1.9623   -4.3262   -6.8131 H   0  0  0  0  0  0  0  0  0  0  0  0
    3.1925   -2.2212   -6.3694 H   0  0  0  0  0  0  0  0  0  0  0  0
    3.6417   -3.6010   -9.0830 H   0  0  0  0  0  0  0  0  0  0  0  0
    3.7368   -1.8422   -8.7645 H   0  0  0  0  0  0  0  0  0  0  0  0
    2.1830   -2.6931   -8.6077 H   0  0  0  0  0  0  0  0  0  0  0  0
    5.5798   -2.2279   -6.9912 H   0  0  0  0  0  0  0  0  0  0  0  0
    5.4976   -3.9609   -7.3801 H   0  0  0  0  0  0  0  0  0  0  0  0
  1  2  1  0
  1 19  1  0
  1 20  1  0
  1 21  1  0
  2  3  1  0
  2 22  1  0
  2 23  1  0
  3  4  1  0
  3 24  1  0
  3 25  1  0
  4  5  1  0
  4  7  1  0
  4 26  1  6
  5  6  1  0
  6 27  1  0
  6 28  1  0
  6 29  1  0
  7  8  2  0
  7 18  1  0
  8  9  1  0
  9 10  1  0
 10 11  1  0
 10 18  2  0
 11 12  1  0
 11 17  1  0
 11 30  1  6
 12 13  1  0
 12 31  1  0
 12 32  1  0
 13 14  1  0
 13 33  1  0
 13 34  1  0
 14 15  1  0
 14 35  1  0
 15 16  1  0
 15 17  1  0
 15 36  1  1
 16 37  1  0
 16 38  1  0
 16 39  1  0
 17 40  1  0
 17 41  1  0
M  END

