
     RDKit          3D

 33 35  0  0  0  0  0  0  0  0999 V2000
    1.1835    0.3001    0.4170 C   0  0  0  0  0  0  0  0  0  0  0  0
    2.6538    0.3526    0.0853 C   0  0  0  0  0  0  0  0  0  0  0  0
    3.4307    1.4830    0.3708 C   0  0  0  0  0  0  0  0  0  0  0  0
    4.7904    1.5313    0.0563 C   0  0  0  0  0  0  0  0  0  0  0  0
    5.4184    0.4350   -0.5574 C   0  0  0  0  0  0  0  0  0  0  0  0
    6.8428    0.4011   -0.8988 C   0  0  0  0  0  0  0  0  0  0  0  0
    7.4876   -0.6948   -1.3005 N   0  0  0  0  0  0  0  0  0  0  0  0
    8.7806   -0.4176   -1.5475 N   0  0  0  0  0  0  0  0  0  0  0  0
    8.9595    0.8678   -1.3016 C   0  0  0  0  0  0  0  0  0  0  0  0
   10.0930    1.7106   -1.3929 C   0  0  0  0  0  0  0  0  0  0  0  0
    9.9353    3.0344   -1.0839 C   0  0  0  0  0  0  0  0  0  0  0  0
    8.6309    3.4968   -0.6844 C   0  0  0  0  0  0  0  0  0  0  0  0
    8.4866    5.2408   -0.3386 S   0  0  0  0  0  0  0  0  0  0  0  0
    6.7117    5.3913    0.0472 C   0  0  0  0  0  0  0  0  0  0  0  0
    6.2621    4.8774    1.4229 C   0  0  0  0  0  0  0  0  0  0  0  0
    5.1100    4.6163    1.6370 O   0  0  0  0  0  0  0  0  0  0  0  0
    7.2023    4.7934    2.3708 O   0  0  0  0  0  0  0  0  0  0  0  0
    7.5729    2.7408   -0.5782 N   0  0  0  0  0  0  0  0  0  0  0  0
    7.7507    1.4384   -0.8841 N   0  0  0  0  0  0  0  0  0  0  0  0
    4.6446   -0.7104   -0.8426 C   0  0  0  0  0  0  0  0  0  0  0  0
    3.2914   -0.7434   -0.5271 C   0  0  0  0  0  0  0  0  0  0  0  0
    0.8560    1.2048    0.9496 H   0  0  0  0  0  0  0  0  0  0  0  0
    0.9469   -0.5714    1.0500 H   0  0  0  0  0  0  0  0  0  0  0  0
    0.5717    0.2064   -0.4965 H   0  0  0  0  0  0  0  0  0  0  0  0
    2.9784    2.3514    0.8568 H   0  0  0  0  0  0  0  0  0  0  0  0
    5.3548    2.4252    0.3062 H   0  0  0  0  0  0  0  0  0  0  0  0
   11.0455    1.2840   -1.7106 H   0  0  0  0  0  0  0  0  0  0  0  0
   10.7645    3.7411   -1.1409 H   0  0  0  0  0  0  0  0  0  0  0  0
    6.1091    4.8962   -0.7242 H   0  0  0  0  0  0  0  0  0  0  0  0
    6.5063    6.4733    0.0025 H   0  0  0  0  0  0  0  0  0  0  0  0
    8.0730    4.9988    1.9816 H   0  0  0  0  0  0  0  0  0  0  0  0
    5.1298   -1.5676   -1.3116 H   0  0  0  0  0  0  0  0  0  0  0  0
    2.7117   -1.6419   -0.7589 H   0  0  0  0  0  0  0  0  0  0  0  0
  1  2  1  0
  1 22  1  0
  1 23  1  0
  1 24  1  0
  2  3  2  0
  2 21  1  0
  3  4  1  0
  3 25  1  0
  4  5  2  0
  4 26  1  0
  5  6  1  0
  5 20  1  0
  6  7  2  0
  6 19  1  0
  7  8  1  0
  8  9  2  0
  9 10  1  0
  9 19  1  0
 10 11  2  0
 10 27  1  0
 11 12  1  0
 11 28  1  0
 12 13  1  0
 12 18  2  0
 13 14  1  0
 14 15  1  0
 14 29  1  0
 14 30  1  0
 15 16  2  0
 15 17  1  0
 17 31  1  0
 18 19  1  0
 20 21  2  0
 20 32  1  0
 21 33  1  0
M  END

