
     RDKit          3D

 65 68  0  0  0  0  0  0  0  0999 V2000
    0.5735    0.8199    4.2428 C   0  0  0  0  0  0  0  0  0  0  0  0
    1.8337    1.5811    3.8835 C   0  0  0  0  0  0  0  0  0  0  0  0
    2.8311    0.6152    3.5297 O   0  0  0  0  0  0  0  0  0  0  0  0
    4.1327    0.9396    3.3844 C   0  0  0  0  0  0  0  0  0  0  0  0
    5.0612   -0.1161    3.4368 C   0  0  0  0  0  0  0  0  0  0  0  0
    6.4227    0.1088    3.2793 C   0  0  0  0  0  0  0  0  0  0  0  0
    6.9535    1.3986    3.0691 C   0  0  0  0  0  0  0  0  0  0  0  0
    8.4104    1.6242    2.8950 C   0  0  0  0  0  0  0  0  0  0  0  0
    9.1981    0.6878    2.1991 C   0  0  0  0  0  0  0  0  0  0  0  0
   10.5724    0.8599    2.0498 C   0  0  0  0  0  0  0  0  0  0  0  0
   11.2241    1.9869    2.5844 C   0  0  0  0  0  0  0  0  0  0  0  0
   12.6819    2.2130    2.4104 C   0  0  0  0  0  0  0  0  0  0  0  0
   13.2054    3.5025    2.1814 C   0  0  0  0  0  0  0  0  0  0  0  0
   14.5713    3.7254    2.0308 C   0  0  0  0  0  0  0  0  0  0  0  0
   15.5046    2.6767    2.1021 C   0  0  0  0  0  0  0  0  0  0  0  0
   16.9915    2.9113    1.9449 C   0  0  0  0  0  0  0  0  0  0  0  0
   17.6438    3.6918    3.1035 C   0  0  0  0  0  0  0  0  0  0  0  0
   17.5609    3.0485    4.5011 C   0  0  1  0  0  0  0  0  0  0  0  0
   18.1807    1.6389    4.6032 C   0  0  0  0  0  0  0  0  0  0  0  0
   19.7115    1.6910    4.4931 C   0  0  0  0  0  0  0  0  0  0  0  0
   20.3328    2.7172    5.4589 C   0  0  2  0  0  0  0  0  0  0  0  0
   20.4270    2.2236    6.9130 C   0  0  0  0  0  0  0  0  0  0  0  0
   21.0531    3.2485    7.8586 C   0  0  0  0  0  0  0  0  0  0  0  0
   19.6645    3.9778    5.3544 O   0  0  0  0  0  0  0  0  0  0  0  0
   18.2600    3.9398    5.5390 C   0  0  0  0  0  0  0  0  0  0  0  0
   14.9861    1.4000    2.3254 C   0  0  0  0  0  0  0  0  0  0  0  0
   15.8064    0.3383    2.4091 F   0  0  0  0  0  0  0  0  0  0  0  0
   13.6151    1.1689    2.4761 C   0  0  0  0  0  0  0  0  0  0  0  0
   13.2247   -0.0927    2.7047 F   0  0  0  0  0  0  0  0  0  0  0  0
   10.4369    2.9242    3.2790 C   0  0  0  0  0  0  0  0  0  0  0  0
    9.0632    2.7506    3.4308 C   0  0  0  0  0  0  0  0  0  0  0  0
    6.0186    2.4413    3.0182 C   0  0  0  0  0  0  0  0  0  0  0  0
    6.4068    3.7042    2.7941 F   0  0  0  0  0  0  0  0  0  0  0  0
    4.6434    2.2293    3.1625 C   0  0  0  0  0  0  0  0  0  0  0  0
    3.8363    3.2999    3.0587 F   0  0  0  0  0  0  0  0  0  0  0  0
   -0.2302    1.5246    4.5074 H   0  0  0  0  0  0  0  0  0  0  0  0
    0.7486    0.1512    5.0995 H   0  0  0  0  0  0  0  0  0  0  0  0
    0.2330    0.2089    3.3927 H   0  0  0  0  0  0  0  0  0  0  0  0
    2.1896    2.1864    4.7351 H   0  0  0  0  0  0  0  0  0  0  0  0
    1.6560    2.2658    3.0390 H   0  0  0  0  0  0  0  0  0  0  0  0
    4.6705   -1.1189    3.6175 H   0  0  0  0  0  0  0  0  0  0  0  0
    7.1099   -0.7362    3.3503 H   0  0  0  0  0  0  0  0  0  0  0  0
    8.7226   -0.1834    1.7430 H   0  0  0  0  0  0  0  0  0  0  0  0
   11.1438    0.1164    1.4931 H   0  0  0  0  0  0  0  0  0  0  0  0
   12.5119    4.3409    2.0936 H   0  0  0  0  0  0  0  0  0  0  0  0
   14.9302    4.7396    1.8372 H   0  0  0  0  0  0  0  0  0  0  0  0
   17.1536    3.4850    1.0164 H   0  0  0  0  0  0  0  0  0  0  0  0
   17.4990    1.9469    1.8011 H   0  0  0  0  0  0  0  0  0  0  0  0
   17.1769    4.6910    3.1639 H   0  0  0  0  0  0  0  0  0  0  0  0
   18.6995    3.8779    2.8483 H   0  0  0  0  0  0  0  0  0  0  0  0
   16.4953    2.9827    4.7859 H   0  0  0  0  0  0  0  0  0  0  0  0
   17.7614    0.9611    3.8449 H   0  0  0  0  0  0  0  0  0  0  0  0
   17.8928    1.2066    5.5775 H   0  0  0  0  0  0  0  0  0  0  0  0
   19.9988    1.9641    3.4640 H   0  0  0  0  0  0  0  0  0  0  0  0
   20.1462    0.6951    4.6810 H   0  0  0  0  0  0  0  0  0  0  0  0
   21.3605    2.9383    5.1231 H   0  0  0  0  0  0  0  0  0  0  0  0
   21.0278    1.2974    6.9094 H   0  0  0  0  0  0  0  0  0  0  0  0
   19.4312    1.9290    7.2867 H   0  0  0  0  0  0  0  0  0  0  0  0
   22.0781    3.5063    7.5433 H   0  0  0  0  0  0  0  0  0  0  0  0
   21.1063    2.8639    8.8895 H   0  0  0  0  0  0  0  0  0  0  0  0
   20.4723    4.1830    7.8695 H   0  0  0  0  0  0  0  0  0  0  0  0
   17.9196    4.9845    5.4572 H   0  0  0  0  0  0  0  0  0  0  0  0
   18.0020    3.5911    6.5589 H   0  0  0  0  0  0  0  0  0  0  0  0
   10.9126    3.7966    3.7328 H   0  0  0  0  0  0  0  0  0  0  0  0
    8.4925    3.4932    3.9891 H   0  0  0  0  0  0  0  0  0  0  0  0
  1  2  1  0
  1 36  1  0
  1 37  1  0
  1 38  1  0
  2  3  1  0
  2 39  1  0
  2 40  1  0
  3  4  1  0
  4  5  2  0
  4 34  1  0
  5  6  1  0
  5 41  1  0
  6  7  2  0
  6 42  1  0
  7  8  1  0
  7 32  1  0
  8  9  2  0
  8 31  1  0
  9 10  1  0
  9 43  1  0
 10 11  2  0
 10 44  1  0
 11 12  1  0
 11 30  1  0
 12 13  2  0
 12 28  1  0
 13 14  1  0
 13 45  1  0
 14 15  2  0
 14 46  1  0
 15 16  1  0
 15 26  1  0
 16 17  1  0
 16 47  1  0
 16 48  1  0
 17 18  1  0
 17 49  1  0
 17 50  1  0
 18 19  1  0
 18 25  1  0
 18 51  1  1
 19 20  1  0
 19 52  1  0
 19 53  1  0
 20 21  1  0
 20 54  1  0
 20 55  1  0
 21 22  1  0
 21 24  1  0
 21 56  1  6
 22 23  1  0
 22 57  1  0
 22 58  1  0
 23 59  1  0
 23 60  1  0
 23 61  1  0
 24 25  1  0
 25 62  1  0
 25 63  1  0
 26 27  1  0
 26 28  2  0
 28 29  1  0
 30 31  2  0
 30 64  1  0
 31 65  1  0
 32 33  1  0
 32 34  2  0
 34 35  1  0
M  END

