
     RDKit          3D

 33 32  0  0  0  0  0  0  0  0999 V2000
    1.8070   -2.5450   -0.0650 O   0  0  0  0  0  0  0  0  0  0  0  0
    2.4528   -1.5602   -0.1925 C   0  0  0  0  0  0  0  0  0  0  0  0
    3.0087   -0.8120    0.8096 O   0  0  0  0  0  0  0  0  0  0  0  0
    2.8239   -1.1714    2.1386 C   0  0  1  0  0  0  0  0  0  0  0  0
    1.5321   -1.1422    2.4694 F   0  0  0  0  0  0  0  0  0  0  0  0
    3.2964   -2.3999    2.3702 F   0  0  0  0  0  0  0  0  0  0  0  0
    3.6299   -0.1695    3.0234 C   0  0  1  0  0  0  0  0  0  0  0  0
    3.3035   -0.4292    4.3036 F   0  0  0  0  0  0  0  0  0  0  0  0
    4.9365   -0.4170    2.8443 F   0  0  0  0  0  0  0  0  0  0  0  0
    3.3632    1.3367    2.7223 C   0  0  1  0  0  0  0  0  0  0  0  0
    4.0188    1.6752    1.6017 F   0  0  0  0  0  0  0  0  0  0  0  0
    2.0421    1.5267    2.5379 F   0  0  0  0  0  0  0  0  0  0  0  0
    3.8263    2.2998    3.8567 C   0  0  1  0  0  0  0  0  0  0  0  0
    5.0768    2.0161    4.2219 F   0  0  0  0  0  0  0  0  0  0  0  0
    3.7822    3.5500    3.4029 F   0  0  0  0  0  0  0  0  0  0  0  0
    3.0273    2.1981    4.9142 F   0  0  0  0  0  0  0  0  0  0  0  0
    2.8462   -0.9351   -1.5636 C   0  0  1  0  0  0  0  0  0  0  0  0
    2.1822   -1.6231   -2.5142 F   0  0  0  0  0  0  0  0  0  0  0  0
    2.5941    0.4359   -1.6544 O   0  0  0  0  0  0  0  0  0  0  0  0
    1.3114    0.9169   -1.6242 C   0  0  1  0  0  0  0  0  0  0  0  0
    0.6709    0.6850   -2.7786 F   0  0  0  0  0  0  0  0  0  0  0  0
    0.5970    0.3313   -0.6394 F   0  0  0  0  0  0  0  0  0  0  0  0
    1.3979    2.4503   -1.3690 C   0  0  1  0  0  0  0  0  0  0  0  0
    1.8868    2.6402   -0.1321 F   0  0  0  0  0  0  0  0  0  0  0  0
    2.2394    2.9846   -2.2683 F   0  0  0  0  0  0  0  0  0  0  0  0
    0.0435    3.2091   -1.4733 C   0  0  1  0  0  0  0  0  0  0  0  0
   -0.4027    3.1983   -2.7263 F   0  0  0  0  0  0  0  0  0  0  0  0
   -0.8678    2.6450   -0.6808 F   0  0  0  0  0  0  0  0  0  0  0  0
    0.2283    4.4700   -1.0912 F   0  0  0  0  0  0  0  0  0  0  0  0
    4.3713   -1.0907   -1.8463 C   0  0  1  0  0  0  0  0  0  0  0  0
    4.7237   -2.3564   -1.5972 F   0  0  0  0  0  0  0  0  0  0  0  0
    4.6232   -0.8141   -3.1195 F   0  0  0  0  0  0  0  0  0  0  0  0
    5.0886   -0.2845   -1.0724 F   0  0  0  0  0  0  0  0  0  0  0  0
  1  2  2  0
  2  3  1  0
  2 17  1  0
  3  4  1  0
  4  5  1  1
  4  6  1  0
  4  7  1  0
  7  8  1  1
  7  9  1  0
  7 10  1  0
 10 11  1  6
 10 12  1  0
 10 13  1  0
 13 14  1  1
 13 15  1  0
 13 16  1  0
 17 18  1  6
 17 19  1  0
 17 30  1  0
 19 20  1  0
 20 21  1  6
 20 22  1  0
 20 23  1  0
 23 24  1  1
 23 25  1  0
 23 26  1  0
 26 27  1  6
 26 28  1  0
 26 29  1  0
 30 31  1  1
 30 32  1  0
 30 33  1  0
M  END

