
     RDKit          3D

 24 24  0  0  0  0  0  0  0  0999 V2000
    1.7241   -1.0063    0.9743 C   0  0  0  0  0  0  0  0  0  0  0  0
    2.8349   -0.2931    0.3822 N   0  0  0  0  0  0  0  0  0  0  0  0
    3.5020    0.7010    1.0678 C   0  0  0  0  0  0  0  0  0  0  0  0
    3.2800    0.9623    2.2424 O   0  0  0  0  0  0  0  0  0  0  0  0
    4.4526    1.3673    0.3202 N   0  0  0  0  0  0  0  0  0  0  0  0
    5.3388    2.3552    0.9134 C   0  0  0  0  0  0  0  0  0  0  0  0
    6.7981    1.9655    0.8788 C   0  0  0  0  0  0  0  0  0  0  0  0
    7.7549    2.6993    0.2183 C   0  0  0  0  0  0  0  0  0  0  0  0
    9.3364    2.0246    0.3898 S   0  0  0  0  0  0  0  0  0  0  0  0
    8.7161    0.7283    1.3559 C   0  0  0  0  0  0  0  0  0  0  0  0
    7.3568    0.8069    1.5412 C   0  0  0  0  0  0  0  0  0  0  0  0
    6.5532   -0.1991    2.3212 C   0  0  0  0  0  0  0  0  0  0  0  0
    0.7458   -0.6622    0.5909 H   0  0  0  0  0  0  0  0  0  0  0  0
    1.7500   -0.8251    2.0565 H   0  0  0  0  0  0  0  0  0  0  0  0
    1.8066   -2.0908    0.7926 H   0  0  0  0  0  0  0  0  0  0  0  0
    2.9563   -0.3553   -0.6211 H   0  0  0  0  0  0  0  0  0  0  0  0
    4.6966    1.0179   -0.5989 H   0  0  0  0  0  0  0  0  0  0  0  0
    4.9892    2.4794    1.9494 H   0  0  0  0  0  0  0  0  0  0  0  0
    5.2157    3.3311    0.4120 H   0  0  0  0  0  0  0  0  0  0  0  0
    7.6077    3.6172   -0.3506 H   0  0  0  0  0  0  0  0  0  0  0  0
    9.3927   -0.0319    1.7456 H   0  0  0  0  0  0  0  0  0  0  0  0
    7.2042   -0.8222    2.9520 H   0  0  0  0  0  0  0  0  0  0  0  0
    5.9966   -0.8736    1.6483 H   0  0  0  0  0  0  0  0  0  0  0  0
    5.8006    0.2827    2.9637 H   0  0  0  0  0  0  0  0  0  0  0  0
  1  2  1  0
  1 13  1  0
  1 14  1  0
  1 15  1  0
  2  3  1  0
  2 16  1  0
  3  4  2  0
  3  5  1  0
  5  6  1  0
  5 17  1  0
  6  7  1  0
  6 18  1  0
  6 19  1  0
  7  8  2  0
  7 11  1  0
  8  9  1  0
  8 20  1  0
  9 10  1  0
 10 11  2  0
 10 21  1  0
 11 12  1  0
 12 22  1  0
 12 23  1  0
 12 24  1  0
M  END

