
     RDKit          3D

 37 37  0  0  0  0  0  0  0  0999 V2000
    1.1045    0.2902    0.1922 C   0  0  0  0  0  0  0  0  0  0  0  0
    2.5240    0.4360    0.1330 O   0  0  0  0  0  0  0  0  0  0  0  0
    3.0847    0.3062   -1.0837 C   0  0  0  0  0  0  0  0  0  0  0  0
    2.4472    0.0864   -2.0853 O   0  0  0  0  0  0  0  0  0  0  0  0
    4.5942    0.4268   -1.0214 C   0  0  0  0  0  0  0  0  0  0  0  0
    5.1832    1.1056   -2.2753 C   0  0  1  0  0  0  0  0  0  0  0  0
    4.6968    2.5489   -2.3674 C   0  0  0  0  0  0  0  0  0  0  0  0
    5.0948    3.5233   -1.4429 C   0  0  0  0  0  0  0  0  0  0  0  0
    4.6390    4.8427   -1.5262 C   0  0  0  0  0  0  0  0  0  0  0  0
    3.7573    5.2336   -2.5450 C   0  0  0  0  0  0  0  0  0  0  0  0
    3.2665    6.4833   -2.7029 O   0  0  0  0  0  0  0  0  0  0  0  0
    3.6542    7.4963   -1.8028 C   0  0  0  0  0  0  0  0  0  0  0  0
    3.3481    4.2525   -3.4735 C   0  0  0  0  0  0  0  0  0  0  0  0
    2.2460    4.6977   -4.7520 Cl  0  0  0  0  0  0  0  0  0  0  0  0
    3.8082    2.9409   -3.3813 C   0  0  0  0  0  0  0  0  0  0  0  0
    6.7328    0.9855   -2.3615 C   0  0  1  0  0  0  0  0  0  0  0  0
    7.2193   -0.4700   -2.2914 C   0  0  0  0  0  0  0  0  0  0  0  0
    7.2666    1.6492   -3.6392 C   0  0  0  0  0  0  0  0  0  0  0  0
    0.8269    0.4209    1.2455 H   0  0  0  0  0  0  0  0  0  0  0  0
    0.7967   -0.7050   -0.1633 H   0  0  0  0  0  0  0  0  0  0  0  0
    0.6080    1.0493   -0.4310 H   0  0  0  0  0  0  0  0  0  0  0  0
    4.9706   -0.6060   -0.9322 H   0  0  0  0  0  0  0  0  0  0  0  0
    4.8808    0.9484   -0.0962 H   0  0  0  0  0  0  0  0  0  0  0  0
    4.7676    0.5657   -3.1425 H   0  0  0  0  0  0  0  0  0  0  0  0
    5.7808    3.2635   -0.6323 H   0  0  0  0  0  0  0  0  0  0  0  0
    4.9772    5.5694   -0.7871 H   0  0  0  0  0  0  0  0  0  0  0  0
    3.1431    8.4124   -2.1277 H   0  0  0  0  0  0  0  0  0  0  0  0
    4.7455    7.6690   -1.8223 H   0  0  0  0  0  0  0  0  0  0  0  0
    3.3492    7.2651   -0.7661 H   0  0  0  0  0  0  0  0  0  0  0  0
    3.4539    2.2118   -4.1118 H   0  0  0  0  0  0  0  0  0  0  0  0
    7.1632    1.5233   -1.4956 H   0  0  0  0  0  0  0  0  0  0  0  0
    6.7548   -1.0815   -3.0843 H   0  0  0  0  0  0  0  0  0  0  0  0
    7.0023   -0.9498   -1.3251 H   0  0  0  0  0  0  0  0  0  0  0  0
    8.3105   -0.5178   -2.4356 H   0  0  0  0  0  0  0  0  0  0  0  0
    6.8666    1.1470   -4.5370 H   0  0  0  0  0  0  0  0  0  0  0  0
    8.3655    1.5832   -3.6840 H   0  0  0  0  0  0  0  0  0  0  0  0
    6.9894    2.7114   -3.7010 H   0  0  0  0  0  0  0  0  0  0  0  0
  1  2  1  0
  1 19  1  0
  1 20  1  0
  1 21  1  0
  2  3  1  0
  3  4  2  0
  3  5  1  0
  5  6  1  0
  5 22  1  0
  5 23  1  0
  6  7  1  0
  6 16  1  0
  6 24  1  6
  7  8  2  0
  7 15  1  0
  8  9  1  0
  8 25  1  0
  9 10  2  0
  9 26  1  0
 10 11  1  0
 10 13  1  0
 11 12  1  0
 12 27  1  0
 12 28  1  0
 12 29  1  0
 13 14  1  0
 13 15  2  0
 15 30  1  0
 16 17  1  0
 16 18  1  0
 16 31  1  1
 17 32  1  0
 17 33  1  0
 17 34  1  0
 18 35  1  0
 18 36  1  0
 18 37  1  0
M  END

