
     RDKit          3D

 54 57  0  0  0  0  0  0  0  0999 V2000
    1.0675    0.1955   -0.1223 O   0  0  0  0  0  0  0  0  0  0  0  0
    2.2199   -0.1842    0.0442 C   0  0  0  0  0  0  0  0  0  0  0  0
    2.5465   -1.6681   -0.1922 C   0  0  0  0  0  0  0  0  0  0  0  0
    2.6801   -1.9810   -1.6634 C   0  0  0  0  0  0  0  0  0  0  0  0
    1.6104   -1.9981   -2.5090 C   0  0  0  0  0  0  0  0  0  0  0  0
    1.7383   -2.2832   -3.9145 C   0  0  0  0  0  0  0  0  0  0  0  0
    0.6432   -2.3105   -4.8042 C   0  0  0  0  0  0  0  0  0  0  0  0
    0.8246   -2.5986   -6.1504 C   0  0  0  0  0  0  0  0  0  0  0  0
    2.1164   -2.8683   -6.6378 C   0  0  0  0  0  0  0  0  0  0  0  0
    3.2153   -2.8481   -5.7864 C   0  0  0  0  0  0  0  0  0  0  0  0
    3.0352   -2.5550   -4.4221 C   0  0  0  0  0  0  0  0  0  0  0  0
    4.0971   -2.5176   -3.5414 N   0  0  0  0  0  0  0  0  0  0  0  0
    5.0363   -2.6925   -3.8887 H   0  0  0  0  0  0  0  0  0  0  0  0
    4.0359   -2.2273   -2.1846 C   0  0  0  0  0  0  0  0  0  0  0  0
    5.0642   -2.1871   -1.5141 O   0  0  0  0  0  0  0  0  0  0  0  0
    3.2261    0.6670    0.4195 N   0  0  0  0  0  0  0  0  0  0  0  0
    4.6393    0.3334    0.5992 C   0  0  0  0  0  0  0  0  0  0  0  0
    5.5244    1.3286   -0.1745 C   0  0  0  0  0  0  0  0  0  0  0  0
    5.2317    2.7290    0.1131 N   0  0  0  0  0  0  0  0  0  0  0  0
    5.8489    3.2635    1.3192 C   0  0  0  0  0  0  0  0  0  0  0  0
    7.2341    3.8302    1.0145 C   0  0  0  0  0  0  0  0  0  0  0  0
    7.7875    4.2889    2.2337 O   0  0  0  0  0  0  0  0  0  0  0  0
    9.0229    4.8533    2.2498 C   0  0  0  0  0  0  0  0  0  0  0  0
    9.8263    5.0328    1.1129 C   0  0  0  0  0  0  0  0  0  0  0  0
   11.0877    5.6277    1.2448 C   0  0  0  0  0  0  0  0  0  0  0  0
   11.5586    6.0455    2.4897 C   0  0  0  0  0  0  0  0  0  0  0  0
   10.7510    5.8635    3.6207 C   0  0  0  0  0  0  0  0  0  0  0  0
    9.4950    5.2736    3.5064 C   0  0  0  0  0  0  0  0  0  0  0  0
    3.8123    3.0053   -0.0783 C   0  0  0  0  0  0  0  0  0  0  0  0
    2.8958    2.0625    0.7131 C   0  0  0  0  0  0  0  0  0  0  0  0
    1.6780   -2.2034    0.2166 H   0  0  0  0  0  0  0  0  0  0  0  0
    3.4434   -2.0108    0.3351 H   0  0  0  0  0  0  0  0  0  0  0  0
    0.6167   -1.7754   -2.1098 H   0  0  0  0  0  0  0  0  0  0  0  0
   -0.3549   -2.0985   -4.4121 H   0  0  0  0  0  0  0  0  0  0  0  0
   -0.0306   -2.6163   -6.8293 H   0  0  0  0  0  0  0  0  0  0  0  0
    2.2624   -3.0960   -7.6966 H   0  0  0  0  0  0  0  0  0  0  0  0
    4.2186   -3.0568   -6.1673 H   0  0  0  0  0  0  0  0  0  0  0  0
    4.8526   -0.6740    0.2246 H   0  0  0  0  0  0  0  0  0  0  0  0
    4.8873    0.3660    1.6782 H   0  0  0  0  0  0  0  0  0  0  0  0
    5.3782    1.1502   -1.2547 H   0  0  0  0  0  0  0  0  0  0  0  0
    6.5828    1.1154    0.0419 H   0  0  0  0  0  0  0  0  0  0  0  0
    5.9467    2.5235    2.1395 H   0  0  0  0  0  0  0  0  0  0  0  0
    5.2283    4.0802    1.7204 H   0  0  0  0  0  0  0  0  0  0  0  0
    7.1448    4.6525    0.2816 H   0  0  0  0  0  0  0  0  0  0  0  0
    7.8804    3.0531    0.5642 H   0  0  0  0  0  0  0  0  0  0  0  0
    9.4821    4.7169    0.1279 H   0  0  0  0  0  0  0  0  0  0  0  0
   11.7055    5.7631    0.3529 H   0  0  0  0  0  0  0  0  0  0  0  0
   12.5437    6.5085    2.5819 H   0  0  0  0  0  0  0  0  0  0  0  0
   11.1049    6.1853    4.6038 H   0  0  0  0  0  0  0  0  0  0  0  0
    8.8526    5.1237    4.3766 H   0  0  0  0  0  0  0  0  0  0  0  0
    3.5796    2.8965   -1.1533 H   0  0  0  0  0  0  0  0  0  0  0  0
    3.6014    4.0514    0.1942 H   0  0  0  0  0  0  0  0  0  0  0  0
    1.8401    2.2166    0.4575 H   0  0  0  0  0  0  0  0  0  0  0  0
    3.0171    2.2419    1.7993 H   0  0  0  0  0  0  0  0  0  0  0  0
  1  2  2  0
  2  3  1  0
  2 16  1  0
  3  4  1  0
  3 31  1  0
  3 32  1  0
  4  5  2  0
  4 14  1  0
  5  6  1  0
  5 33  1  0
  6  7  2  0
  6 11  1  0
  7  8  1  0
  7 34  1  0
  8  9  2  0
  8 35  1  0
  9 10  1  0
  9 36  1  0
 10 11  2  0
 10 37  1  0
 11 12  1  0
 12 13  1  0
 12 14  1  0
 14 15  2  0
 16 17  1  0
 16 30  1  0
 17 18  1  0
 17 38  1  0
 17 39  1  0
 18 19  1  0
 18 40  1  0
 18 41  1  0
 19 20  1  0
 19 29  1  0
 20 21  1  0
 20 42  1  0
 20 43  1  0
 21 22  1  0
 21 44  1  0
 21 45  1  0
 22 23  1  0
 23 24  2  0
 23 28  1  0
 24 25  1  0
 24 46  1  0
 25 26  2  0
 25 47  1  0
 26 27  1  0
 26 48  1  0
 27 28  2  0
 27 49  1  0
 28 50  1  0
 29 30  1  0
 29 51  1  0
 29 52  1  0
 30 53  1  0
 30 54  1  0
M  END

