
     RDKit          3D

 49 51  0  0  0  0  0  0  0  0999 V2000
    1.1478    1.2434   -0.9125 C   0  0  0  0  0  0  0  0  0  0  0  0
    2.5025    1.1537   -1.6141 C   0  0  0  0  0  0  0  0  0  0  0  0
    3.1071   -0.1806   -1.5427 N   0  0  0  0  0  0  0  0  0  0  0  0
    2.4196   -1.2097   -2.2792 C   0  0  0  0  0  0  0  0  0  0  0  0
    2.4348   -1.0980   -3.8147 C   0  0  0  0  0  0  0  0  0  0  0  0
    2.9958   -0.2404   -4.4397 O   0  0  0  0  0  0  0  0  0  0  0  0
    1.7506   -2.0762   -4.4568 O   0  0  0  0  0  0  0  0  0  0  0  0
    4.5542   -0.1939   -1.7032 C   0  0  1  0  0  0  0  0  0  0  0  0
    5.3894    0.5445   -0.6245 C   0  0  0  0  0  0  0  0  0  0  0  0
    6.3801   -0.6477   -0.6025 C   0  0  2  0  0  0  0  0  0  0  0  0
    7.5992   -0.3907   -1.3458 N   0  0  0  0  0  0  0  0  0  0  0  0
    8.6050   -1.3348   -1.3356 C   0  0  0  0  0  0  0  0  0  0  0  0
    8.5485   -2.3533   -0.6626 O   0  0  0  0  0  0  0  0  0  0  0  0
    9.7023   -1.0738   -2.1474 N   0  0  0  0  0  0  0  0  0  0  0  0
   10.6986   -2.1397   -2.3597 C   0  0  0  0  0  0  0  0  0  0  0  0
   11.4720   -1.6838   -3.6142 C   0  0  0  0  0  0  0  0  0  0  0  0
   11.2011   -0.1956   -3.6558 C   0  0  0  0  0  0  0  0  0  0  0  0
   11.8158    0.8068   -4.3956 C   0  0  0  0  0  0  0  0  0  0  0  0
   11.3886    2.1441   -4.2841 C   0  0  0  0  0  0  0  0  0  0  0  0
   12.0430    3.2465   -5.0829 C   0  0  0  0  0  0  0  0  0  0  0  0
   10.3391    2.4260   -3.3975 C   0  0  0  0  0  0  0  0  0  0  0  0
    9.7075    1.4304   -2.6404 C   0  0  0  0  0  0  0  0  0  0  0  0
   10.1334    0.1044   -2.7874 C   0  0  0  0  0  0  0  0  0  0  0  0
    5.2964   -1.5026   -1.3253 C   0  0  0  0  0  0  0  0  0  0  0  0
    0.7907    2.2853   -0.9106 H   0  0  0  0  0  0  0  0  0  0  0  0
    1.2240    0.8990    0.1311 H   0  0  0  0  0  0  0  0  0  0  0  0
    0.3708    0.6424   -1.4125 H   0  0  0  0  0  0  0  0  0  0  0  0
    3.1971    1.8448   -1.1121 H   0  0  0  0  0  0  0  0  0  0  0  0
    2.4150    1.5106   -2.6595 H   0  0  0  0  0  0  0  0  0  0  0  0
    1.3617   -1.2569   -1.9630 H   0  0  0  0  0  0  0  0  0  0  0  0
    2.8472   -2.1965   -2.0235 H   0  0  0  0  0  0  0  0  0  0  0  0
    1.3588   -2.6933   -3.8213 H   0  0  0  0  0  0  0  0  0  0  0  0
    4.8566    0.1394   -2.7157 H   0  0  0  0  0  0  0  0  0  0  0  0
    4.8354    0.6149    0.3231 H   0  0  0  0  0  0  0  0  0  0  0  0
    5.8034    1.5340   -0.8745 H   0  0  0  0  0  0  0  0  0  0  0  0
    6.6729   -1.0258    0.3850 H   0  0  0  0  0  0  0  0  0  0  0  0
    7.5368    0.2210   -2.1524 H   0  0  0  0  0  0  0  0  0  0  0  0
   10.1942   -3.1084   -2.4662 H   0  0  0  0  0  0  0  0  0  0  0  0
   11.3618   -2.2112   -1.4793 H   0  0  0  0  0  0  0  0  0  0  0  0
   11.0794   -2.1724   -4.5244 H   0  0  0  0  0  0  0  0  0  0  0  0
   12.5432   -1.9279   -3.5527 H   0  0  0  0  0  0  0  0  0  0  0  0
   12.6425    0.5571   -5.0679 H   0  0  0  0  0  0  0  0  0  0  0  0
   12.8687    2.8620   -5.7000 H   0  0  0  0  0  0  0  0  0  0  0  0
   12.4541    4.0328   -4.4276 H   0  0  0  0  0  0  0  0  0  0  0  0
   11.3230    3.7375   -5.7595 H   0  0  0  0  0  0  0  0  0  0  0  0
   10.0058    3.4613   -3.2776 H   0  0  0  0  0  0  0  0  0  0  0  0
    8.9293    1.7034   -1.9286 H   0  0  0  0  0  0  0  0  0  0  0  0
    4.7193   -2.0920   -0.5962 H   0  0  0  0  0  0  0  0  0  0  0  0
    5.6427   -2.1595   -2.1368 H   0  0  0  0  0  0  0  0  0  0  0  0
  1  2  1  0
  1 25  1  0
  1 26  1  0
  1 27  1  0
  2  3  1  0
  2 28  1  0
  2 29  1  0
  3  4  1  0
  3  8  1  0
  4  5  1  0
  4 30  1  0
  4 31  1  0
  5  6  2  0
  5  7  1  0
  7 32  1  0
  8  9  1  0
  8 24  1  0
  8 33  1  6
  9 10  1  0
  9 34  1  0
  9 35  1  0
 10 11  1  0
 10 24  1  0
 10 36  1  1
 11 12  1  0
 11 37  1  0
 12 13  2  0
 12 14  1  0
 14 15  1  0
 14 23  1  0
 15 16  1  0
 15 38  1  0
 15 39  1  0
 16 17  1  0
 16 40  1  0
 16 41  1  0
 17 18  1  0
 17 23  2  0
 18 19  2  0
 18 42  1  0
 19 20  1  0
 19 21  1  0
 20 43  1  0
 20 44  1  0
 20 45  1  0
 21 22  2  0
 21 46  1  0
 22 23  1  0
 22 47  1  0
 24 48  1  0
 24 49  1  0
M  END

