
     RDKit          3D

 33 32  0  0  0  0  0  0  0  0999 V2000
    0.9801   -2.4474    0.5764 C   0  0  0  0  0  0  0  0  0  0  0  0
    2.5022   -2.2867    0.5964 C   0  0  0  0  0  0  0  0  0  0  0  0
    3.0811   -1.3437   -0.4818 C   0  0  1  0  0  0  0  0  0  0  0  0
    2.6820    0.1241   -0.2499 C   0  0  0  0  0  0  0  0  0  0  0  0
    3.0294    1.0732   -1.3969 C   0  0  0  0  0  0  0  0  0  0  0  0
    4.5466   -1.4239   -0.5882 N   0  0  0  0  0  0  0  0  0  0  0  0
    5.1727   -2.6814   -0.9944 C   0  0  1  0  0  0  0  0  0  0  0  0
    4.5635   -3.2673   -2.2767 C   0  0  0  0  0  0  0  0  0  0  0  0
    6.6800   -2.4800   -1.2412 C   0  0  0  0  0  0  0  0  0  0  0  0
    7.4530   -3.4273   -1.1969 O   0  0  0  0  0  0  0  0  0  0  0  0
    7.0360   -1.1966   -1.5507 N   0  0  0  0  0  0  0  0  0  0  0  0
    8.3135   -0.6645   -1.8802 C   0  0  0  0  0  0  0  0  0  0  0  0
    9.3166   -1.5727   -1.8802 N   0  0  0  0  0  0  0  0  0  0  0  0
    8.4210    0.5197   -2.1287 O   0  0  0  0  0  0  0  0  0  0  0  0
    0.6522   -3.1870    1.3238 H   0  0  0  0  0  0  0  0  0  0  0  0
    0.6284   -2.7970   -0.4091 H   0  0  0  0  0  0  0  0  0  0  0  0
    0.4552   -1.5054    0.7994 H   0  0  0  0  0  0  0  0  0  0  0  0
    2.9590   -3.2832    0.4723 H   0  0  0  0  0  0  0  0  0  0  0  0
    2.8294   -1.9281    1.5907 H   0  0  0  0  0  0  0  0  0  0  0  0
    2.6665   -1.6470   -1.4587 H   0  0  0  0  0  0  0  0  0  0  0  0
    3.1592    0.4728    0.6860 H   0  0  0  0  0  0  0  0  0  0  0  0
    1.5970    0.1658   -0.0623 H   0  0  0  0  0  0  0  0  0  0  0  0
    4.1115    1.0950   -1.5920 H   0  0  0  0  0  0  0  0  0  0  0  0
    2.7069    2.1017   -1.1703 H   0  0  0  0  0  0  0  0  0  0  0  0
    2.5300    0.7670   -2.3314 H   0  0  0  0  0  0  0  0  0  0  0  0
    4.9486   -1.1245    0.3021 H   0  0  0  0  0  0  0  0  0  0  0  0
    5.1339   -3.4692   -0.2159 H   0  0  0  0  0  0  0  0  0  0  0  0
    4.5533   -2.5166   -3.0827 H   0  0  0  0  0  0  0  0  0  0  0  0
    3.5344   -3.6184   -2.1128 H   0  0  0  0  0  0  0  0  0  0  0  0
    5.1646   -4.1283   -2.6016 H   0  0  0  0  0  0  0  0  0  0  0  0
    6.2741   -0.5188   -1.5461 H   0  0  0  0  0  0  0  0  0  0  0  0
    9.1147   -2.5475   -1.6613 H   0  0  0  0  0  0  0  0  0  0  0  0
   10.2437   -1.2424   -2.1113 H   0  0  0  0  0  0  0  0  0  0  0  0
  1  2  1  0
  1 15  1  0
  1 16  1  0
  1 17  1  0
  2  3  1  0
  2 18  1  0
  2 19  1  0
  3  4  1  0
  3  6  1  0
  3 20  1  6
  4  5  1  0
  4 21  1  0
  4 22  1  0
  5 23  1  0
  5 24  1  0
  5 25  1  0
  6  7  1  0
  6 26  1  0
  7  8  1  0
  7  9  1  0
  7 27  1  1
  8 28  1  0
  8 29  1  0
  8 30  1  0
  9 10  2  0
  9 11  1  0
 11 12  1  0
 11 31  1  0
 12 13  1  0
 12 14  2  0
 13 32  1  0
 13 33  1  0
M  END

