
     RDKit          3D

 44 46  0  0  0  0  0  0  0  0999 V2000
    2.5685    4.0179    2.8669 C   0  0  0  0  0  0  0  0  0  0  0  0
    2.8889    4.4107    1.4240 C   0  0  0  0  0  0  0  0  0  0  0  0
    3.8746    3.4588    0.7386 C   0  0  0  0  0  0  0  0  0  0  0  0
    4.1745    3.8455   -0.7126 C   0  0  0  0  0  0  0  0  0  0  0  0
    5.1663    2.9087   -1.4428 C   0  0  2  0  0  0  0  0  0  0  0  0
    5.2253    3.2451   -2.4898 H   0  0  0  0  0  0  0  0  0  0  0  0
    4.6615    1.5423   -1.4559 N   0  0  0  0  0  0  0  0  0  0  0  0
    6.5729    2.9814   -0.7913 C   0  0  0  0  0  0  0  0  0  0  0  0
    6.9077    2.1002   -0.0085 O   0  0  0  0  0  0  0  0  0  0  0  0
    7.4015    4.0421   -1.0687 N   0  0  0  0  0  0  0  0  0  0  0  0
    7.1488    5.1013   -2.0398 C   0  0  0  0  0  0  0  0  0  0  0  0
    7.1576    6.4961   -1.3862 C   0  0  0  0  0  0  0  0  0  0  0  0
    8.3546    6.5849   -0.4974 C   0  0  0  0  0  0  0  0  0  0  0  0
    8.9086    7.7480    0.0044 N   0  0  0  0  0  0  0  0  0  0  0  0
    8.5691    8.6832   -0.1738 H   0  0  0  0  0  0  0  0  0  0  0  0
   10.0053    7.4296    0.7817 C   0  0  0  0  0  0  0  0  0  0  0  0
   10.8867    8.2541    1.4922 C   0  0  0  0  0  0  0  0  0  0  0  0
   11.9183    7.6409    2.2007 C   0  0  0  0  0  0  0  0  0  0  0  0
   12.0699    6.2378    2.2035 C   0  0  0  0  0  0  0  0  0  0  0  0
   11.1935    5.4189    1.4964 C   0  0  0  0  0  0  0  0  0  0  0  0
   10.1420    6.0084    0.7691 C   0  0  0  0  0  0  0  0  0  0  0  0
    9.0720    5.5004   -0.0515 C   0  0  0  0  0  0  0  0  0  0  0  0
    8.7132    4.0878   -0.4078 C   0  0  0  0  0  0  0  0  0  0  0  0
    1.8584    4.7211    3.3312 H   0  0  0  0  0  0  0  0  0  0  0  0
    3.4789    4.0034    3.4892 H   0  0  0  0  0  0  0  0  0  0  0  0
    2.1214    3.0110    2.9167 H   0  0  0  0  0  0  0  0  0  0  0  0
    3.2988    5.4377    1.4048 H   0  0  0  0  0  0  0  0  0  0  0  0
    1.9537    4.4514    0.8359 H   0  0  0  0  0  0  0  0  0  0  0  0
    3.4591    2.4364    0.7542 H   0  0  0  0  0  0  0  0  0  0  0  0
    4.8113    3.4175    1.3221 H   0  0  0  0  0  0  0  0  0  0  0  0
    4.5524    4.8828   -0.7446 H   0  0  0  0  0  0  0  0  0  0  0  0
    3.2352    3.8325   -1.2911 H   0  0  0  0  0  0  0  0  0  0  0  0
    4.9425    1.1023   -0.5760 H   0  0  0  0  0  0  0  0  0  0  0  0
    5.1546    1.0085   -2.1724 H   0  0  0  0  0  0  0  0  0  0  0  0
    6.1950    4.9291   -2.5480 H   0  0  0  0  0  0  0  0  0  0  0  0
    7.9384    5.0699   -2.8142 H   0  0  0  0  0  0  0  0  0  0  0  0
    6.2247    6.6531   -0.8133 H   0  0  0  0  0  0  0  0  0  0  0  0
    7.1794    7.2691   -2.1750 H   0  0  0  0  0  0  0  0  0  0  0  0
   10.7711    9.3411    1.4935 H   0  0  0  0  0  0  0  0  0  0  0  0
   12.6216    8.2583    2.7652 H   0  0  0  0  0  0  0  0  0  0  0  0
   12.8889    5.7900    2.7719 H   0  0  0  0  0  0  0  0  0  0  0  0
   11.3198    4.3331    1.5080 H   0  0  0  0  0  0  0  0  0  0  0  0
    8.6525    3.4398    0.4774 H   0  0  0  0  0  0  0  0  0  0  0  0
    9.4817    3.6370   -1.0694 H   0  0  0  0  0  0  0  0  0  0  0  0
  1  2  1  0
  1 24  1  0
  1 25  1  0
  1 26  1  0
  2  3  1  0
  2 27  1  0
  2 28  1  0
  3  4  1  0
  3 29  1  0
  3 30  1  0
  4  5  1  0
  4 31  1  0
  4 32  1  0
  5  6  1  6
  5  7  1  0
  5  8  1  0
  7 33  1  0
  7 34  1  0
  8  9  2  0
  8 10  1  0
 10 11  1  0
 10 23  1  0
 11 12  1  0
 11 35  1  0
 11 36  1  0
 12 13  1  0
 12 37  1  0
 12 38  1  0
 13 14  1  0
 13 22  2  0
 14 15  1  0
 14 16  1  0
 16 17  1  0
 16 21  2  0
 17 18  2  0
 17 39  1  0
 18 19  1  0
 18 40  1  0
 19 20  2  0
 19 41  1  0
 20 21  1  0
 20 42  1  0
 21 22  1  0
 22 23  1  0
 23 43  1  0
 23 44  1  0
M  END

