
     RDKit          3D

 39 39  0  0  0  0  0  0  0  0999 V2000
    1.2316    1.1706   -0.8390 C   0  0  0  0  0  0  0  0  0  0  0  0
    2.6923    0.7183   -0.7051 C   0  0  2  0  0  0  0  0  0  0  0  0
    3.6339    1.7809   -1.2870 C   0  0  0  0  0  0  0  0  0  0  0  0
    2.9408   -0.6703   -1.3452 C   0  0  2  0  0  0  0  0  0  0  0  0
    2.8278   -0.5775   -2.4371 H   0  0  0  0  0  0  0  0  0  0  0  0
    1.9820   -1.7675   -0.8611 C   0  0  0  0  0  0  0  0  0  0  0  0
    4.3315   -1.0694   -1.1381 N   0  0  0  0  0  0  0  0  0  0  0  0
    5.0022   -1.8383   -2.0734 C   0  0  0  0  0  0  0  0  0  0  0  0
    4.5385   -2.1052   -3.1732 O   0  0  0  0  0  0  0  0  0  0  0  0
    6.2475   -2.2744   -1.6649 N   0  0  0  0  0  0  0  0  0  0  0  0
    7.1367   -2.9692   -2.6008 C   0  0  1  0  0  0  0  0  0  0  0  0
    8.5972   -2.8226   -2.1424 C   0  0  0  0  0  0  0  0  0  0  0  0
    8.9128   -3.6294   -0.8727 C   0  0  0  0  0  0  0  0  0  0  0  0
    8.5234   -5.1054   -1.0328 C   0  0  0  0  0  0  0  0  0  0  0  0
    7.0575   -5.2552   -1.4629 C   0  0  0  0  0  0  0  0  0  0  0  0
    6.7606   -4.4583   -2.7384 C   0  0  0  0  0  0  0  0  0  0  0  0
    1.1026    2.1851   -0.4294 H   0  0  0  0  0  0  0  0  0  0  0  0
    0.5328    0.5101   -0.3050 H   0  0  0  0  0  0  0  0  0  0  0  0
    0.9246    1.2009   -1.8988 H   0  0  0  0  0  0  0  0  0  0  0  0
    2.9129    0.6216    0.3779 H   0  0  0  0  0  0  0  0  0  0  0  0
    3.4269    1.9398   -2.3591 H   0  0  0  0  0  0  0  0  0  0  0  0
    4.6879    1.4824   -1.1947 H   0  0  0  0  0  0  0  0  0  0  0  0
    3.5025    2.7475   -0.7747 H   0  0  0  0  0  0  0  0  0  0  0  0
    2.2489   -2.7237   -1.3352 H   0  0  0  0  0  0  0  0  0  0  0  0
    0.9363   -1.5483   -1.1229 H   0  0  0  0  0  0  0  0  0  0  0  0
    2.0384   -1.8939    0.2346 H   0  0  0  0  0  0  0  0  0  0  0  0
    4.6379   -1.1376   -0.1728 H   0  0  0  0  0  0  0  0  0  0  0  0
    6.6776   -1.7982   -0.8808 H   0  0  0  0  0  0  0  0  0  0  0  0
    7.0150   -2.4953   -3.5889 H   0  0  0  0  0  0  0  0  0  0  0  0
    8.8413   -1.7548   -2.0017 H   0  0  0  0  0  0  0  0  0  0  0  0
    9.2424   -3.1798   -2.9633 H   0  0  0  0  0  0  0  0  0  0  0  0
    8.3682   -3.2040   -0.0089 H   0  0  0  0  0  0  0  0  0  0  0  0
    9.9842   -3.5356   -0.6279 H   0  0  0  0  0  0  0  0  0  0  0  0
    8.7105   -5.6532   -0.0937 H   0  0  0  0  0  0  0  0  0  0  0  0
    9.1755   -5.5685   -1.7970 H   0  0  0  0  0  0  0  0  0  0  0  0
    6.4006   -4.8942   -0.6514 H   0  0  0  0  0  0  0  0  0  0  0  0
    6.8087   -6.3191   -1.6135 H   0  0  0  0  0  0  0  0  0  0  0  0
    5.6990   -4.5284   -3.0191 H   0  0  0  0  0  0  0  0  0  0  0  0
    7.3387   -4.8788   -3.5814 H   0  0  0  0  0  0  0  0  0  0  0  0
  1  2  1  0
  1 17  1  0
  1 18  1  0
  1 19  1  0
  2  3  1  0
  2  4  1  0
  2 20  1  1
  3 21  1  0
  3 22  1  0
  3 23  1  0
  4  5  1  6
  4  6  1  0
  4  7  1  0
  6 24  1  0
  6 25  1  0
  6 26  1  0
  7  8  1  0
  7 27  1  0
  8  9  2  0
  8 10  1  0
 10 11  1  0
 10 28  1  0
 11 12  1  0
 11 16  1  0
 11 29  1  6
 12 13  1  0
 12 30  1  0
 12 31  1  0
 13 14  1  0
 13 32  1  0
 13 33  1  0
 14 15  1  0
 14 34  1  0
 14 35  1  0
 15 16  1  0
 15 36  1  0
 15 37  1  0
 16 38  1  0
 16 39  1  0
M  END

