
     RDKit          3D

 50 53  0  0  0  0  0  0  0  0999 V2000
    3.5291    1.0694   -2.6328 C   0  0  0  0  0  0  0  0  0  0  0  0
    3.8265    0.5043   -1.2433 C   0  0  0  0  0  0  0  0  0  0  0  0
    4.5794   -0.8311   -1.2760 C   0  0  0  0  0  0  0  0  0  0  0  0
    4.8135   -1.4092    0.1268 C   0  0  0  0  0  0  0  0  0  0  0  0
    5.6697   -2.7112    0.2140 C   0  0  2  0  0  0  0  0  0  0  0  0
    7.1977   -2.4722    0.1159 C   0  0  0  0  0  0  0  0  0  0  0  0
    7.7777   -1.2254   -0.1697 C   0  0  0  0  0  0  0  0  0  0  0  0
    9.1652   -1.0860   -0.2920 C   0  0  0  0  0  0  0  0  0  0  0  0
   10.0026   -2.1906   -0.1272 C   0  0  0  0  0  0  0  0  0  0  0  0
    9.4402   -3.4384    0.1614 C   0  0  0  0  0  0  0  0  0  0  0  0
    8.0563   -3.5753    0.2788 C   0  0  0  0  0  0  0  0  0  0  0  0
    5.2680   -3.5915   -0.8978 N   0  0  0  0  0  0  0  0  0  0  0  0
    5.0470   -4.9427   -0.7968 C   0  0  0  0  0  0  0  0  0  0  0  0
    4.9498   -5.7863   -1.9180 C   0  0  0  0  0  0  0  0  0  0  0  0
    4.6763   -7.1448   -1.7493 C   0  0  0  0  0  0  0  0  0  0  0  0
    4.4969   -7.6906   -0.4706 C   0  0  0  0  0  0  0  0  0  0  0  0
    4.5938   -6.8571    0.6440 C   0  0  0  0  0  0  0  0  0  0  0  0
    4.8697   -5.4901    0.4965 C   0  0  0  0  0  0  0  0  0  0  0  0
    4.9662   -4.6751    1.6173 N   0  0  0  0  0  0  0  0  0  0  0  0
    5.3262   -3.4426    1.5494 C   0  0  0  0  0  0  0  0  0  0  0  0
    5.3604   -2.6909    2.8425 C   0  0  0  0  0  0  0  0  0  0  0  0
    6.2088   -1.5963    3.0960 C   0  0  0  0  0  0  0  0  0  0  0  0
    6.2094   -0.9625    4.3419 C   0  0  0  0  0  0  0  0  0  0  0  0
    5.3599   -1.4010    5.3598 C   0  0  0  0  0  0  0  0  0  0  0  0
    4.5135   -2.4906    5.1242 C   0  0  0  0  0  0  0  0  0  0  0  0
    4.5186   -3.1292    3.8860 C   0  0  0  0  0  0  0  0  0  0  0  0
    2.9892    2.0276   -2.5723 H   0  0  0  0  0  0  0  0  0  0  0  0
    2.9086    0.3747   -3.2235 H   0  0  0  0  0  0  0  0  0  0  0  0
    4.4573    1.2464   -3.2020 H   0  0  0  0  0  0  0  0  0  0  0  0
    2.8810    0.3714   -0.6873 H   0  0  0  0  0  0  0  0  0  0  0  0
    4.4120    1.2403   -0.6626 H   0  0  0  0  0  0  0  0  0  0  0  0
    5.5358   -0.6899   -1.8110 H   0  0  0  0  0  0  0  0  0  0  0  0
    3.9972   -1.5523   -1.8740 H   0  0  0  0  0  0  0  0  0  0  0  0
    3.8283   -1.6407    0.5639 H   0  0  0  0  0  0  0  0  0  0  0  0
    5.2493   -0.6379    0.7774 H   0  0  0  0  0  0  0  0  0  0  0  0
    7.1538   -0.3395   -0.2909 H   0  0  0  0  0  0  0  0  0  0  0  0
    9.5899   -0.1038   -0.5153 H   0  0  0  0  0  0  0  0  0  0  0  0
   11.0860   -2.0809   -0.2197 H   0  0  0  0  0  0  0  0  0  0  0  0
   10.0830   -4.3116    0.2994 H   0  0  0  0  0  0  0  0  0  0  0  0
    7.6365   -4.5576    0.5065 H   0  0  0  0  0  0  0  0  0  0  0  0
    5.5271   -3.2501   -1.8152 H   0  0  0  0  0  0  0  0  0  0  0  0
    5.0858   -5.3698   -2.9204 H   0  0  0  0  0  0  0  0  0  0  0  0
    4.6035   -7.7865   -2.6315 H   0  0  0  0  0  0  0  0  0  0  0  0
    4.2836   -8.7547   -0.3488 H   0  0  0  0  0  0  0  0  0  0  0  0
    4.4617   -7.2383    1.6590 H   0  0  0  0  0  0  0  0  0  0  0  0
    6.9006   -1.2473    2.3310 H   0  0  0  0  0  0  0  0  0  0  0  0
    6.8864   -0.1221    4.5163 H   0  0  0  0  0  0  0  0  0  0  0  0
    5.3585   -0.9002    6.3314 H   0  0  0  0  0  0  0  0  0  0  0  0
    3.8440   -2.8449    5.9126 H   0  0  0  0  0  0  0  0  0  0  0  0
    3.8712   -3.9866    3.6981 H   0  0  0  0  0  0  0  0  0  0  0  0
  1  2  1  0
  1 27  1  0
  1 28  1  0
  1 29  1  0
  2  3  1  0
  2 30  1  0
  2 31  1  0
  3  4  1  0
  3 32  1  0
  3 33  1  0
  5  4  1  6
  4 34  1  0
  4 35  1  0
  5  6  1  0
  5 12  1  0
  5 20  1  0
  6  7  2  0
  6 11  1  0
  7  8  1  0
  7 36  1  0
  8  9  2  0
  8 37  1  0
  9 10  1  0
  9 38  1  0
 10 11  2  0
 10 39  1  0
 11 40  1  0
 12 13  1  0
 12 41  1  0
 13 14  2  0
 13 18  1  0
 14 15  1  0
 14 42  1  0
 15 16  2  0
 15 43  1  0
 16 17  1  0
 16 44  1  0
 17 18  2  0
 17 45  1  0
 18 19  1  0
 19 20  2  0
 20 21  1  0
 21 22  2  0
 21 26  1  0
 22 23  1  0
 22 46  1  0
 23 24  2  0
 23 47  1  0
 24 25  1  0
 24 48  1  0
 25 26  2  0
 25 49  1  0
 26 50  1  0
M  END

