
     RDKit          3D

 54 57  0  0  0  0  0  0  0  0999 V2000
    5.2611   -0.0752    4.5637 C   0  0  0  0  0  0  0  0  0  0  0  0
    5.2286    0.0935    3.0774 C   0  0  0  0  0  0  0  0  0  0  0  0
    4.7671   -0.8699    2.2887 N   0  0  0  0  0  0  0  0  0  0  0  0
    4.8630   -0.4307    1.0020 N   0  0  0  0  0  0  0  0  0  0  0  0
    4.4263   -1.2613   -0.0970 C   0  0  0  0  0  0  0  0  0  0  0  0
    5.3881    0.8151    0.9730 C   0  0  0  0  0  0  0  0  0  0  0  0
    5.7901    2.0169   -0.2107 S   0  0  0  0  0  0  0  0  0  0  0  0
    6.3516    3.0933    1.1023 C   0  0  0  0  0  0  0  0  0  0  0  0
    6.9117    4.4505    0.8647 C   0  0  0  0  0  0  0  0  0  0  0  0
    7.1221    5.2146    1.7974 O   0  0  0  0  0  0  0  0  0  0  0  0
    7.1708    4.7947   -0.4367 N   0  0  0  0  0  0  0  0  0  0  0  0
    7.7424    6.0852   -0.7743 C   0  0  0  0  0  0  0  0  0  0  0  0
    9.2799    6.1156   -0.6999 C   0  0  0  0  0  0  0  0  0  0  0  0
    9.7856    7.4612   -0.9390 N   0  0  0  0  0  0  0  0  0  0  0  0
    9.8401    8.3228    0.2432 C   0  0  0  0  0  0  0  0  0  0  0  0
   11.1070    8.1135    1.0850 C   0  0  0  0  0  0  0  0  0  0  0  0
   12.3011    8.2303    0.2480 N   0  0  0  0  0  0  0  0  0  0  0  0
   13.3417    9.0329    0.6599 C   0  0  0  0  0  0  0  0  0  0  0  0
   13.2815    9.6766    1.6985 O   0  0  0  0  0  0  0  0  0  0  0  0
   14.5918    9.0745   -0.2138 C   0  0  1  0  0  0  0  0  0  0  0  0
   15.7149   10.0386    0.2371 C   0  0  0  0  0  0  0  0  0  0  0  0
   16.7590    8.9340   -0.0657 C   0  0  0  0  0  0  0  0  0  0  0  0
   15.6101    7.8947   -0.0898 C   0  0  0  0  0  0  0  0  0  0  0  0
   12.2915    7.3615   -0.9218 C   0  0  0  0  0  0  0  0  0  0  0  0
   11.0001    7.5843   -1.7304 C   0  0  0  0  0  0  0  0  0  0  0  0
    6.1994    2.5305    2.3457 C   0  0  0  0  0  0  0  0  0  0  0  0
    5.6469    1.2148    2.2895 C   0  0  0  0  0  0  0  0  0  0  0  0
    4.8622   -1.0622    4.8353 H   0  0  0  0  0  0  0  0  0  0  0  0
    4.6573    0.6971    5.0684 H   0  0  0  0  0  0  0  0  0  0  0  0
    6.2887    0.0066    4.9549 H   0  0  0  0  0  0  0  0  0  0  0  0
    4.0848   -2.2123    0.3284 H   0  0  0  0  0  0  0  0  0  0  0  0
    5.2535   -1.4536   -0.7999 H   0  0  0  0  0  0  0  0  0  0  0  0
    3.5943   -0.7894   -0.6456 H   0  0  0  0  0  0  0  0  0  0  0  0
    7.1236    4.0845   -1.1577 H   0  0  0  0  0  0  0  0  0  0  0  0
    7.3310    6.8205   -0.0688 H   0  0  0  0  0  0  0  0  0  0  0  0
    7.4177    6.3757   -1.7855 H   0  0  0  0  0  0  0  0  0  0  0  0
    9.6872    5.4382   -1.4693 H   0  0  0  0  0  0  0  0  0  0  0  0
    9.5864    5.6970    0.2795 H   0  0  0  0  0  0  0  0  0  0  0  0
    8.9508    8.1466    0.8674 H   0  0  0  0  0  0  0  0  0  0  0  0
    9.8040    9.3763   -0.0880 H   0  0  0  0  0  0  0  0  0  0  0  0
   11.0876    7.1127    1.5584 H   0  0  0  0  0  0  0  0  0  0  0  0
   11.1862    8.8594    1.8855 H   0  0  0  0  0  0  0  0  0  0  0  0
   14.3227    9.2464   -1.2680 H   0  0  0  0  0  0  0  0  0  0  0  0
   15.6176   10.2557    1.3097 H   0  0  0  0  0  0  0  0  0  0  0  0
   15.8038   10.9899   -0.3092 H   0  0  0  0  0  0  0  0  0  0  0  0
   17.5584    8.7785    0.6749 H   0  0  0  0  0  0  0  0  0  0  0  0
   17.2250    9.0550   -1.0565 H   0  0  0  0  0  0  0  0  0  0  0  0
   15.5026    7.3729    0.8741 H   0  0  0  0  0  0  0  0  0  0  0  0
   15.6147    7.1421   -0.8940 H   0  0  0  0  0  0  0  0  0  0  0  0
   12.3519    6.3023   -0.5997 H   0  0  0  0  0  0  0  0  0  0  0  0
   13.1672    7.5561   -1.5527 H   0  0  0  0  0  0  0  0  0  0  0  0
   10.9614    6.8794   -2.5764 H   0  0  0  0  0  0  0  0  0  0  0  0
   11.0372    8.6045   -2.1563 H   0  0  0  0  0  0  0  0  0  0  0  0
    6.4903    3.0785    3.2420 H   0  0  0  0  0  0  0  0  0  0  0  0
  1  2  1  0
  1 28  1  0
  1 29  1  0
  1 30  1  0
  2  3  2  0
  2 27  1  0
  3  4  1  0
  4  5  1  0
  4  6  1  0
  5 31  1  0
  5 32  1  0
  5 33  1  0
  6  7  2  0
  6 27  1  0
  7  8  1  0
  8  9  2  0
  8 26  1  0
  9 10  1  0
  9 11  1  0
 11 12  1  0
 11 34  1  0
 12 13  1  0
 12 35  1  0
 12 36  1  0
 13 14  1  0
 13 37  1  0
 13 38  1  0
 14 15  1  0
 14 25  1  0
 15 16  1  0
 15 39  1  0
 15 40  1  0
 16 17  1  0
 16 41  1  0
 16 42  1  0
 17 18  1  0
 17 24  1  0
 18 19  2  0
 18 20  1  0
 20 21  1  0
 20 23  1  0
 20 43  1  6
 21 22  1  0
 21 44  1  0
 21 45  1  0
 22 23  1  0
 22 46  1  0
 22 47  1  0
 23 48  1  0
 23 49  1  0
 24 25  1  0
 24 50  1  0
 24 51  1  0
 25 52  1  0
 25 53  1  0
 26 27  2  0
 26 54  1  0
M  CHG  2   7   1  10  -1
M  END

