
     RDKit          3D

 43 42  0  0  0  0  0  0  0  0999 V2000
    0.9415    0.5056    0.6237 C   0  0  0  0  0  0  0  0  0  0  0  0
    2.4074    0.3949    0.1789 C   0  0  1  0  0  0  0  0  0  0  0  0
    2.5911   -0.6298   -0.9562 C   0  0  0  0  0  0  0  0  0  0  0  0
    2.2360   -2.0742   -0.6027 C   0  0  0  0  0  0  0  0  0  0  0  0
    2.5143   -2.9673   -1.7180 N   0  0  0  0  0  0  0  0  0  0  0  0
    2.1845   -4.3666   -1.5012 C   0  0  0  0  0  0  0  0  0  0  0  0
    0.7107   -4.6441   -1.8292 C   0  0  0  0  0  0  0  0  0  0  0  0
    0.3547   -6.4089   -1.5712 S   0  0  1  0  0  0  0  0  0  0  0  0
    1.2372   -7.1802   -2.4678 O   0  0  0  0  0  0  0  0  0  0  0  0
    0.3899   -6.6467   -0.1162 O   0  0  0  0  0  0  0  0  0  0  0  0
   -1.3849   -6.6648   -2.1330 C   0  0  1  0  0  0  0  0  0  0  0  0
   -1.5019   -6.4935   -3.6446 C   0  0  0  0  0  0  0  0  0  0  0  0
   -1.8042   -8.0514   -1.6419 C   0  0  0  0  0  0  0  0  0  0  0  0
    2.9879    1.7540   -0.2552 C   0  0  0  0  0  0  0  0  0  0  0  0
    3.0737    2.8051    0.8502 C   0  0  0  0  0  0  0  0  0  0  0  0
    3.7583    4.0917    0.4024 C   0  0  0  0  0  0  0  0  0  0  0  0
    4.2272    4.2744   -0.6863 O   0  0  0  0  0  0  0  0  0  0  0  0
    3.8179    5.0662    1.3434 O   0  0  0  0  0  0  0  0  0  0  0  0
    0.5466   -0.4576    0.9809 H   0  0  0  0  0  0  0  0  0  0  0  0
    0.3031    0.8402   -0.2123 H   0  0  0  0  0  0  0  0  0  0  0  0
    0.8139    1.2242    1.4484 H   0  0  0  0  0  0  0  0  0  0  0  0
    2.9996    0.0404    1.0457 H   0  0  0  0  0  0  0  0  0  0  0  0
    3.6481   -0.6039   -1.2798 H   0  0  0  0  0  0  0  0  0  0  0  0
    1.9986   -0.3251   -1.8370 H   0  0  0  0  0  0  0  0  0  0  0  0
    1.1617   -2.1475   -0.3627 H   0  0  0  0  0  0  0  0  0  0  0  0
    2.7733   -2.3725    0.3277 H   0  0  0  0  0  0  0  0  0  0  0  0
    3.4897   -2.8821   -1.9960 H   0  0  0  0  0  0  0  0  0  0  0  0
    2.3869   -4.7090   -0.4656 H   0  0  0  0  0  0  0  0  0  0  0  0
    2.7978   -4.9902   -2.1686 H   0  0  0  0  0  0  0  0  0  0  0  0
    0.4993   -4.3932   -2.8781 H   0  0  0  0  0  0  0  0  0  0  0  0
    0.0244   -4.0933   -1.1692 H   0  0  0  0  0  0  0  0  0  0  0  0
   -1.9522   -5.8872   -1.5941 H   0  0  0  0  0  0  0  0  0  0  0  0
   -0.8331   -7.1980   -4.1610 H   0  0  0  0  0  0  0  0  0  0  0  0
   -1.2511   -5.4740   -3.9747 H   0  0  0  0  0  0  0  0  0  0  0  0
   -2.5373   -6.6979   -3.9607 H   0  0  0  0  0  0  0  0  0  0  0  0
   -1.1905   -8.8310   -2.1192 H   0  0  0  0  0  0  0  0  0  0  0  0
   -2.8586   -8.2318   -1.9034 H   0  0  0  0  0  0  0  0  0  0  0  0
   -1.6889   -8.1365   -0.5528 H   0  0  0  0  0  0  0  0  0  0  0  0
    2.3944    2.1611   -1.0921 H   0  0  0  0  0  0  0  0  0  0  0  0
    4.0014    1.6066   -0.6615 H   0  0  0  0  0  0  0  0  0  0  0  0
    3.6334    2.4104    1.7197 H   0  0  0  0  0  0  0  0  0  0  0  0
    2.0736    3.0733    1.2351 H   0  0  0  0  0  0  0  0  0  0  0  0
    3.3993    4.7712    2.1646 H   0  0  0  0  0  0  0  0  0  0  0  0
  1  2  1  0
  1 19  1  0
  1 20  1  0
  1 21  1  0
  2  3  1  0
  2 14  1  0
  2 22  1  1
  3  4  1  0
  3 23  1  0
  3 24  1  0
  4  5  1  0
  4 25  1  0
  4 26  1  0
  5  6  1  0
  5 27  1  0
  6  7  1  0
  6 28  1  0
  6 29  1  0
  8  7  1  1
  7 30  1  0
  7 31  1  0
  8  9  2  0
  8 10  2  0
  8 11  1  0
 11 12  1  0
 11 13  1  0
 11 32  1  1
 12 33  1  0
 12 34  1  0
 12 35  1  0
 13 36  1  0
 13 37  1  0
 13 38  1  0
 14 15  1  0
 14 39  1  0
 14 40  1  0
 15 16  1  0
 15 41  1  0
 15 42  1  0
 16 17  2  0
 16 18  1  0
 18 43  1  0
M  END

