
     RDKit          3D

 68 65  0  0  0  0  0  0  0  0999 V2000
    0.5054   -0.1360    0.2716 C   0  0  0  0  0  0  0  0  0  0  0  0
    2.0340   -0.0924    0.2521 C   0  0  0  0  0  0  0  0  0  0  0  0
    2.6097    0.7535   -0.8880 C   0  0  0  0  0  0  0  0  0  0  0  0
    4.1401    0.8022   -0.9152 C   0  0  0  0  0  0  0  0  0  0  0  0
    4.7153    1.6482   -2.0549 C   0  0  0  0  0  0  0  0  0  0  0  0
    6.2459    1.6956   -2.0823 C   0  0  0  0  0  0  0  0  0  0  0  0
    6.8212    2.5421   -3.2217 C   0  0  0  0  0  0  0  0  0  0  0  0
    8.3518    2.5883   -3.2500 C   0  0  0  0  0  0  0  0  0  0  0  0
    8.9271    3.4356   -4.3887 C   0  0  0  0  0  0  0  0  0  0  0  0
   10.4577    3.4802   -4.4181 C   0  0  0  0  0  0  0  0  0  0  0  0
   11.0330    4.3288   -5.5559 C   0  0  0  0  0  0  0  0  0  0  0  0
   12.5636    4.3717   -5.5865 C   0  0  0  0  0  0  0  0  0  0  0  0
   13.1386    5.2219   -6.7233 C   0  0  0  0  0  0  0  0  0  0  0  0
   14.6693    5.2630   -6.7553 C   0  0  0  0  0  0  0  0  0  0  0  0
   15.2437    6.1152   -7.8907 C   0  0  0  0  0  0  0  0  0  0  0  0
   16.7748    6.1558   -7.9241 C   0  0  0  0  0  0  0  0  0  0  0  0
   17.3389    7.0149   -9.0617 C   0  0  0  0  0  0  0  0  0  0  0  0
   18.8682    7.1404   -9.0953 C   0  0  0  0  0  0  0  0  0  0  0  0
   19.5971    5.8305   -9.4223 C   0  0  0  0  0  0  0  0  0  0  0  0
   21.1238    5.9269   -9.4576 C   0  0  0  0  0  0  0  0  0  0  0  0
   21.7167    6.9102  -10.8551 S   0  0  1  0  0  0  0  0  0  0  0  0
   21.1900    6.3553  -12.0974 O   0  0  0  0  0  0  0  0  0  0  0  0
   21.6063    8.3428  -10.5828 O   0  0  0  0  0  0  0  0  0  0  0  0
   23.3114    6.4922  -10.7136 O   0  0  0  0  0  0  0  0  0  0  0  0
   24.4781    7.3604  -11.6394 P   0  0  0  0  0  0  0  0  0  0  0  0
    0.1272   -0.7520    1.1032 H   0  0  0  0  0  0  0  0  0  0  0  0
    0.1042   -0.5592   -0.6647 H   0  0  0  0  0  0  0  0  0  0  0  0
    0.0768    0.8742    0.3847 H   0  0  0  0  0  0  0  0  0  0  0  0
    2.4314   -1.1212    0.1763 H   0  0  0  0  0  0  0  0  0  0  0  0
    2.4043    0.2998    1.2170 H   0  0  0  0  0  0  0  0  0  0  0  0
    2.2129    1.7835   -0.8129 H   0  0  0  0  0  0  0  0  0  0  0  0
    2.2397    0.3620   -1.8542 H   0  0  0  0  0  0  0  0  0  0  0  0
    4.5362   -0.2279   -0.9902 H   0  0  0  0  0  0  0  0  0  0  0  0
    4.5095    1.1933    0.0513 H   0  0  0  0  0  0  0  0  0  0  0  0
    4.3200    2.6785   -1.9796 H   0  0  0  0  0  0  0  0  0  0  0  0
    4.3455    1.2576   -3.0214 H   0  0  0  0  0  0  0  0  0  0  0  0
    6.6412    0.6654   -2.1581 H   0  0  0  0  0  0  0  0  0  0  0  0
    6.6159    2.0858   -1.1157 H   0  0  0  0  0  0  0  0  0  0  0  0
    6.4267    3.5726   -3.1453 H   0  0  0  0  0  0  0  0  0  0  0  0
    6.4504    2.1526   -4.1883 H   0  0  0  0  0  0  0  0  0  0  0  0
    8.7462    1.5578   -3.3272 H   0  0  0  0  0  0  0  0  0  0  0  0
    8.7227    2.9770   -2.2831 H   0  0  0  0  0  0  0  0  0  0  0  0
    8.5338    4.4664   -4.3108 H   0  0  0  0  0  0  0  0  0  0  0  0
    8.5552    3.0477   -5.3555 H   0  0  0  0  0  0  0  0  0  0  0  0
   10.8510    2.4494   -4.4973 H   0  0  0  0  0  0  0  0  0  0  0  0
   10.8298    3.8670   -3.4509 H   0  0  0  0  0  0  0  0  0  0  0  0
   10.6409    5.3599   -5.4759 H   0  0  0  0  0  0  0  0  0  0  0  0
   10.6599    3.9430   -6.5230 H   0  0  0  0  0  0  0  0  0  0  0  0
   12.9556    3.3406   -5.6682 H   0  0  0  0  0  0  0  0  0  0  0  0
   12.9370    4.7562   -4.6190 H   0  0  0  0  0  0  0  0  0  0  0  0
   12.7480    6.2533   -6.6406 H   0  0  0  0  0  0  0  0  0  0  0  0
   12.7641    4.8386   -7.6908 H   0  0  0  0  0  0  0  0  0  0  0  0
   15.0597    4.2315   -6.8396 H   0  0  0  0  0  0  0  0  0  0  0  0
   15.0441    5.6449   -5.7872 H   0  0  0  0  0  0  0  0  0  0  0  0
   14.8540    7.1467   -7.8062 H   0  0  0  0  0  0  0  0  0  0  0  0
   14.8689    5.7340   -8.8589 H   0  0  0  0  0  0  0  0  0  0  0  0
   17.1554    5.1212   -8.0027 H   0  0  0  0  0  0  0  0  0  0  0  0
   17.1505    6.5416   -6.9576 H   0  0  0  0  0  0  0  0  0  0  0  0
   16.9105    8.0296   -8.9835 H   0  0  0  0  0  0  0  0  0  0  0  0
   16.9858    6.6172  -10.0313 H   0  0  0  0  0  0  0  0  0  0  0  0
   19.2283    7.5226   -8.1221 H   0  0  0  0  0  0  0  0  0  0  0  0
   19.1485    7.9049   -9.8370 H   0  0  0  0  0  0  0  0  0  0  0  0
   19.2489    5.4342  -10.3912 H   0  0  0  0  0  0  0  0  0  0  0  0
   19.3554    5.0612   -8.6698 H   0  0  0  0  0  0  0  0  0  0  0  0
   21.5932    4.9433   -9.5998 H   0  0  0  0  0  0  0  0  0  0  0  0
   21.5496    6.4039   -8.5626 H   0  0  0  0  0  0  0  0  0  0  0  0
   25.3213    6.2251  -11.8438 H   0  0  0  0  0  0  0  0  0  0  0  0
   25.2569    7.8191  -10.5292 H   0  0  0  0  0  0  0  0  0  0  0  0
  1  2  1  0
  1 26  1  0
  1 27  1  0
  1 28  1  0
  2  3  1  0
  2 29  1  0
  2 30  1  0
  3  4  1  0
  3 31  1  0
  3 32  1  0
  4  5  1  0
  4 33  1  0
  4 34  1  0
  5  6  1  0
  5 35  1  0
  5 36  1  0
  6  7  1  0
  6 37  1  0
  6 38  1  0
  7  8  1  0
  7 39  1  0
  7 40  1  0
  8  9  1  0
  8 41  1  0
  8 42  1  0
  9 10  1  0
  9 43  1  0
  9 44  1  0
 10 11  1  0
 10 45  1  0
 10 46  1  0
 11 12  1  0
 11 47  1  0
 11 48  1  0
 12 13  1  0
 12 49  1  0
 12 50  1  0
 13 14  1  0
 13 51  1  0
 13 52  1  0
 14 15  1  0
 14 53  1  0
 14 54  1  0
 15 16  1  0
 15 55  1  0
 15 56  1  0
 16 17  1  0
 16 57  1  0
 16 58  1  0
 17 18  1  0
 17 59  1  0
 17 60  1  0
 18 19  1  0
 18 61  1  0
 18 62  1  0
 19 20  1  0
 19 63  1  0
 19 64  1  0
 20 21  1  0
 20 65  1  0
 20 66  1  0
 21 22  1  6
 21 23  3  0
 21 24  1  0
 24 25  1  0
M  CHG  5  22  -1  23   1  25  -2  67   1  68   1
M  END

