
     RDKit          3D

 49 49  0  0  0  0  0  0  0  0999 V2000
    1.8290   -0.6420   -0.5052 C   0  0  0  0  0  0  0  0  0  0  0  0
    3.2747   -0.4669   -0.0381 C   0  0  0  0  0  0  0  0  0  0  0  0
    3.4967    0.7881    0.8118 C   0  0  0  0  0  0  0  0  0  0  0  0
    4.9421    0.9705    1.2835 C   0  0  0  0  0  0  0  0  0  0  0  0
    5.1617    2.2259    2.1342 C   0  0  0  0  0  0  0  0  0  0  0  0
    6.6104    2.3965    2.6037 C   0  0  0  0  0  0  0  0  0  0  0  0
    6.8921    3.6865    3.3877 C   0  0  1  0  0  0  0  0  0  0  0  0
    6.2179    3.7393    4.7528 C   0  0  0  0  0  0  0  0  0  0  0  0
    8.2990    3.8277    3.6187 O   0  0  0  0  0  0  0  0  0  0  0  0
    9.0678    4.4314    2.5880 C   0  0  1  0  0  0  0  0  0  0  0  0
    9.1499    5.9479    2.7553 C   0  0  0  0  0  0  0  0  0  0  0  0
   10.4836    3.8181    2.5463 C   0  0  0  0  0  0  0  0  0  0  0  0
   11.3072    4.2458    1.7553 O   0  0  0  0  0  0  0  0  0  0  0  0
   10.6713    2.8069    3.4424 N   0  0  0  0  0  0  0  0  0  0  0  0
   11.8158    2.0254    3.6830 C   0  0  0  0  0  0  0  0  0  0  0  0
   13.0168    2.1883    2.9708 C   0  0  0  0  0  0  0  0  0  0  0  0
   14.0944    1.3576    3.2890 C   0  0  0  0  0  0  0  0  0  0  0  0
   14.0100    0.3836    4.2820 C   0  0  0  0  0  0  0  0  0  0  0  0
   12.8086    0.2158    5.0000 C   0  0  0  0  0  0  0  0  0  0  0  0
   12.7181   -0.7139    6.0298 N   0  0  0  0  0  0  0  0  0  0  0  0
   11.7197    1.0458    4.6858 C   0  0  0  0  0  0  0  0  0  0  0  0
    1.7068   -1.5531   -1.1124 H   0  0  0  0  0  0  0  0  0  0  0  0
    1.4994    0.2132   -1.1190 H   0  0  0  0  0  0  0  0  0  0  0  0
    1.1372   -0.7176    0.3506 H   0  0  0  0  0  0  0  0  0  0  0  0
    3.9449   -0.4329   -0.9164 H   0  0  0  0  0  0  0  0  0  0  0  0
    3.5860   -1.3559    0.5403 H   0  0  0  0  0  0  0  0  0  0  0  0
    2.8266    0.7551    1.6915 H   0  0  0  0  0  0  0  0  0  0  0  0
    3.1860    1.6787    0.2339 H   0  0  0  0  0  0  0  0  0  0  0  0
    5.6122    1.0036    0.4045 H   0  0  0  0  0  0  0  0  0  0  0  0
    5.2528    0.0806    1.8618 H   0  0  0  0  0  0  0  0  0  0  0  0
    4.4838    2.1907    3.0053 H   0  0  0  0  0  0  0  0  0  0  0  0
    4.8582    3.1164    1.5523 H   0  0  0  0  0  0  0  0  0  0  0  0
    7.2739    2.3767    1.7214 H   0  0  0  0  0  0  0  0  0  0  0  0
    6.9100    1.5367    3.2300 H   0  0  0  0  0  0  0  0  0  0  0  0
    6.5433    4.5496    2.7874 H   0  0  0  0  0  0  0  0  0  0  0  0
    6.5573    2.8992    5.3804 H   0  0  0  0  0  0  0  0  0  0  0  0
    5.1230    3.6821    4.6616 H   0  0  0  0  0  0  0  0  0  0  0  0
    6.4752    4.6764    5.2682 H   0  0  0  0  0  0  0  0  0  0  0  0
    8.6303    4.1984    1.5980 H   0  0  0  0  0  0  0  0  0  0  0  0
    9.5658    6.1960    3.7442 H   0  0  0  0  0  0  0  0  0  0  0  0
    8.1524    6.4063    2.6711 H   0  0  0  0  0  0  0  0  0  0  0  0
    9.8028    6.3717    1.9797 H   0  0  0  0  0  0  0  0  0  0  0  0
    9.8519    2.6248    4.0163 H   0  0  0  0  0  0  0  0  0  0  0  0
   13.0861    2.9468    2.1958 H   0  0  0  0  0  0  0  0  0  0  0  0
   15.0324    1.4761    2.7395 H   0  0  0  0  0  0  0  0  0  0  0  0
   14.8714   -0.2495    4.5118 H   0  0  0  0  0  0  0  0  0  0  0  0
   13.3869   -1.4748    6.0004 H   0  0  0  0  0  0  0  0  0  0  0  0
   11.7848   -1.0236    6.2754 H   0  0  0  0  0  0  0  0  0  0  0  0
   10.7813    0.9313    5.2377 H   0  0  0  0  0  0  0  0  0  0  0  0
  1  2  1  0
  1 22  1  0
  1 23  1  0
  1 24  1  0
  2  3  1  0
  2 25  1  0
  2 26  1  0
  3  4  1  0
  3 27  1  0
  3 28  1  0
  4  5  1  0
  4 29  1  0
  4 30  1  0
  5  6  1  0
  5 31  1  0
  5 32  1  0
  6  7  1  0
  6 33  1  0
  6 34  1  0
  7  8  1  0
  7  9  1  0
  7 35  1  6
  8 36  1  0
  8 37  1  0
  8 38  1  0
  9 10  1  0
 10 11  1  0
 10 12  1  0
 10 39  1  6
 11 40  1  0
 11 41  1  0
 11 42  1  0
 12 13  2  0
 12 14  1  0
 14 15  1  0
 14 43  1  0
 15 16  2  0
 15 21  1  0
 16 17  1  0
 16 44  1  0
 17 18  2  0
 17 45  1  0
 18 19  1  0
 18 46  1  0
 19 20  1  0
 19 21  2  0
 20 47  1  0
 20 48  1  0
 21 49  1  0
M  END

