
     RDKit          3D

 52 55  0  0  0  0  0  0  0  0999 V2000
    3.1658    0.0580   -0.0961 C   0  0  0  0  0  0  0  0  0  0  0  0
    4.4582    0.1317   -0.9209 C   0  0  1  0  0  0  0  0  0  0  0  0
    4.7796   -1.1928   -1.6443 C   0  0  0  0  0  0  0  0  0  0  0  0
    3.8722   -1.4230   -2.8586 C   0  0  2  0  0  0  0  0  0  0  0  0
    4.2284   -2.6963   -3.6206 C   0  0  0  0  0  0  0  0  0  0  0  0
    5.2252   -3.3423   -3.4455 O   0  0  0  0  0  0  0  0  0  0  0  0
    3.3337   -3.0596   -4.5701 O   0  0  0  0  0  0  0  0  0  0  0  0
    3.9413   -0.1919   -3.7911 C   0  0  0  0  0  0  0  0  0  0  0  0
    3.5704    1.0209   -3.0757 N   0  0  0  0  0  0  0  0  0  0  0  0
    2.2702    1.4650   -3.2297 C   0  0  0  0  0  0  0  0  0  0  0  0
    1.4463    0.8219   -3.8687 O   0  0  0  0  0  0  0  0  0  0  0  0
    1.8927    2.7994   -2.6410 C   0  0  0  0  0  0  0  0  0  0  0  0
    0.6115    2.9366   -2.0788 C   0  0  0  0  0  0  0  0  0  0  0  0
    0.2027    4.1775   -1.5979 C   0  0  0  0  0  0  0  0  0  0  0  0
    1.0354    5.3002   -1.6900 C   0  0  0  0  0  0  0  0  0  0  0  0
    2.3027    5.1717   -2.2784 C   0  0  0  0  0  0  0  0  0  0  0  0
    3.1824    6.1924   -2.4400 O   0  0  0  0  0  0  0  0  0  0  0  0
    2.8288    7.4944   -2.0137 C   0  0  0  0  0  0  0  0  0  0  0  0
    3.9548    8.4298   -2.3261 C   0  0  0  0  0  0  0  0  0  0  0  0
    5.1391    8.1382   -2.9830 C   0  0  0  0  0  0  0  0  0  0  0  0
    5.8314    9.3301   -3.0244 N   0  0  0  0  0  0  0  0  0  0  0  0
    7.0596    9.6483   -3.5488 C   0  0  0  0  0  0  0  0  0  0  0  0
    7.5197   10.9346   -3.4518 C   0  0  0  0  0  0  0  0  0  0  0  0
    6.7300   11.9350   -2.8116 C   0  0  0  0  0  0  0  0  0  0  0  0
    5.4985   11.6167   -2.2855 C   0  0  0  0  0  0  0  0  0  0  0  0
    5.0178   10.2871   -2.3833 C   0  0  0  0  0  0  0  0  0  0  0  0
    3.8842    9.7375   -1.9623 N   0  0  0  0  0  0  0  0  0  0  0  0
    2.7266    3.9161   -2.7464 C   0  0  0  0  0  0  0  0  0  0  0  0
    4.4364    1.3050   -1.9286 C   0  0  0  0  0  0  0  0  0  0  0  0
    3.2177   -0.7614    0.6384 H   0  0  0  0  0  0  0  0  0  0  0  0
    2.2769   -0.1179   -0.7230 H   0  0  0  0  0  0  0  0  0  0  0  0
    2.9938    0.9946    0.4579 H   0  0  0  0  0  0  0  0  0  0  0  0
    5.2879    0.3389   -0.2222 H   0  0  0  0  0  0  0  0  0  0  0  0
    4.7031   -2.0410   -0.9459 H   0  0  0  0  0  0  0  0  0  0  0  0
    5.8240   -1.1865   -1.9983 H   0  0  0  0  0  0  0  0  0  0  0  0
    2.8199   -1.5202   -2.5361 H   0  0  0  0  0  0  0  0  0  0  0  0
    2.5705   -2.4624   -4.5695 H   0  0  0  0  0  0  0  0  0  0  0  0
    3.2710   -0.2957   -4.6522 H   0  0  0  0  0  0  0  0  0  0  0  0
    4.9754   -0.0799   -4.1626 H   0  0  0  0  0  0  0  0  0  0  0  0
   -0.0483    2.0689   -2.0365 H   0  0  0  0  0  0  0  0  0  0  0  0
   -0.7873    4.2871   -1.1478 H   0  0  0  0  0  0  0  0  0  0  0  0
    0.6856    6.2609   -1.3125 H   0  0  0  0  0  0  0  0  0  0  0  0
    2.6239    7.5144   -0.9264 H   0  0  0  0  0  0  0  0  0  0  0  0
    1.9079    7.8385   -2.5225 H   0  0  0  0  0  0  0  0  0  0  0  0
    5.5263    7.2169   -3.4057 H   0  0  0  0  0  0  0  0  0  0  0  0
    7.6124    8.8374   -4.0254 H   0  0  0  0  0  0  0  0  0  0  0  0
    8.4964   11.1809   -3.8710 H   0  0  0  0  0  0  0  0  0  0  0  0
    7.1097   12.9565   -2.7418 H   0  0  0  0  0  0  0  0  0  0  0  0
    4.8652   12.3528   -1.7890 H   0  0  0  0  0  0  0  0  0  0  0  0
    3.7102    3.8470   -3.2144 H   0  0  0  0  0  0  0  0  0  0  0  0
    4.1022    2.2228   -1.4315 H   0  0  0  0  0  0  0  0  0  0  0  0
    5.4594    1.4855   -2.3051 H   0  0  0  0  0  0  0  0  0  0  0  0
  1  2  1  0
  1 30  1  0
  1 31  1  0
  1 32  1  0
  2  3  1  0
  2 29  1  0
  2 33  1  1
  3  4  1  0
  3 34  1  0
  3 35  1  0
  4  5  1  0
  4  8  1  0
  4 36  1  1
  5  6  2  0
  5  7  1  0
  7 37  1  0
  8  9  1  0
  8 38  1  0
  8 39  1  0
  9 10  1  0
  9 29  1  0
 10 11  2  0
 10 12  1  0
 12 13  2  0
 12 28  1  0
 13 14  1  0
 13 40  1  0
 14 15  2  0
 14 41  1  0
 15 16  1  0
 15 42  1  0
 16 17  1  0
 16 28  2  0
 17 18  1  0
 18 19  1  0
 18 43  1  0
 18 44  1  0
 19 20  2  0
 19 27  1  0
 20 21  1  0
 20 45  1  0
 21 22  1  0
 21 26  1  0
 22 23  2  0
 22 46  1  0
 23 24  1  0
 23 47  1  0
 24 25  2  0
 24 48  1  0
 25 26  1  0
 25 49  1  0
 26 27  2  0
 28 50  1  0
 29 51  1  0
 29 52  1  0
M  END

