
     RDKit          3D

 32 33  0  0  0  0  0  0  0  0999 V2000
    1.0769    0.1931    0.7038 C   0  0  0  0  0  0  0  0  0  0  0  0
    2.5045    0.0994    0.1607 C   0  0  0  0  0  0  0  0  0  0  0  0
    2.8164    1.0752   -0.9790 C   0  0  2  0  0  0  0  0  0  0  0  0
    4.2172    0.8410   -1.5467 C   0  0  0  0  0  0  0  0  0  0  0  0
    4.5712    1.8323   -2.5470 N   0  0  0  0  0  0  0  0  0  0  0  0
    5.6114    1.4772   -3.4999 C   0  0  0  0  0  0  0  0  0  0  0  0
    5.0838    1.0944   -4.8863 C   0  0  0  0  0  0  0  0  0  0  0  0
    4.1060    3.1376   -2.4269 C   0  0  0  0  0  0  0  0  0  0  0  0
    4.5126    4.1726   -3.2849 C   0  0  0  0  0  0  0  0  0  0  0  0
    4.0406    5.4840   -3.1393 C   0  0  0  0  0  0  0  0  0  0  0  0
    4.6077    6.7053   -4.2524 Cl  0  0  0  0  0  0  0  0  0  0  0  0
    3.1324    5.7888   -2.1238 C   0  0  0  0  0  0  0  0  0  0  0  0
    2.5088    7.4031   -1.8967 Cl  0  0  0  0  0  0  0  0  0  0  0  0
    2.7019    4.7651   -1.2703 C   0  0  0  0  0  0  0  0  0  0  0  0
    3.1666    3.4549   -1.3984 C   0  0  0  0  0  0  0  0  0  0  0  0
    2.7566    2.4520   -0.5192 N   0  0  0  0  0  0  0  0  0  0  0  0
    0.8991   -0.5735    1.4740 H   0  0  0  0  0  0  0  0  0  0  0  0
    0.3308    0.0433   -0.0941 H   0  0  0  0  0  0  0  0  0  0  0  0
    0.8720    1.1679    1.1771 H   0  0  0  0  0  0  0  0  0  0  0  0
    2.6812   -0.9241   -0.2124 H   0  0  0  0  0  0  0  0  0  0  0  0
    3.2290    0.2697    0.9758 H   0  0  0  0  0  0  0  0  0  0  0  0
    2.0893    0.8946   -1.8022 H   0  0  0  0  0  0  0  0  0  0  0  0
    4.2433   -0.1569   -2.0147 H   0  0  0  0  0  0  0  0  0  0  0  0
    4.9446    0.8286   -0.7080 H   0  0  0  0  0  0  0  0  0  0  0  0
    6.1800    0.6331   -3.0761 H   0  0  0  0  0  0  0  0  0  0  0  0
    6.3368    2.3045   -3.5844 H   0  0  0  0  0  0  0  0  0  0  0  0
    4.4021    0.2310   -4.8236 H   0  0  0  0  0  0  0  0  0  0  0  0
    5.9150    0.8245   -5.5581 H   0  0  0  0  0  0  0  0  0  0  0  0
    4.5288    1.9258   -5.3473 H   0  0  0  0  0  0  0  0  0  0  0  0
    5.2099    3.9802   -4.0973 H   0  0  0  0  0  0  0  0  0  0  0  0
    1.9857    5.0072   -0.4821 H   0  0  0  0  0  0  0  0  0  0  0  0
    1.9284    2.6872    0.0160 H   0  0  0  0  0  0  0  0  0  0  0  0
  1  2  1  0
  1 17  1  0
  1 18  1  0
  1 19  1  0
  2  3  1  0
  2 20  1  0
  2 21  1  0
  3  4  1  0
  3 16  1  0
  3 22  1  6
  4  5  1  0
  4 23  1  0
  4 24  1  0
  5  6  1  0
  5  8  1  0
  6  7  1  0
  6 25  1  0
  6 26  1  0
  7 27  1  0
  7 28  1  0
  7 29  1  0
  8  9  1  0
  8 15  2  0
  9 10  2  0
  9 30  1  0
 10 11  1  0
 10 12  1  0
 12 13  1  0
 12 14  2  0
 14 15  1  0
 14 31  1  0
 15 16  1  0
 16 32  1  0
M  END

