
     RDKit          3D

 44 49  0  0  0  0  0  0  0  0999 V2000
    1.1529   -0.5557   -0.5018 F   0  0  0  0  0  0  0  0  0  0  0  0
    2.4280   -0.3062   -0.0590 B   0  0  1  0  0  0  0  0  0  0  0  0
    2.5209   -0.2447    1.3143 F   0  0  0  0  0  0  0  0  0  0  0  0
    3.3762   -1.2439   -0.6338 O   0  0  0  0  0  0  0  0  0  0  0  0
    4.6664   -0.9463   -0.6987 C   0  0  0  0  0  0  0  0  0  0  0  0
    5.6021   -1.9994   -0.7583 C   0  0  0  0  0  0  0  0  0  0  0  0
    6.9621   -1.7330   -0.8176 C   0  0  0  0  0  0  0  0  0  0  0  0
    7.4325   -0.4070   -0.8245 C   0  0  0  0  0  0  0  0  0  0  0  0
    6.5221    0.6384   -0.7959 C   0  0  0  0  0  0  0  0  0  0  0  0
    5.1295    0.4000   -0.7456 C   0  0  0  0  0  0  0  0  0  0  0  0
    4.1470    1.4798   -0.8332 C   0  0  0  0  0  0  0  0  0  0  0  0
    4.4762    2.8028   -1.1808 C   0  0  0  0  0  0  0  0  0  0  0  0
    3.4869    3.7816   -1.2941 C   0  0  0  0  0  0  0  0  0  0  0  0
    3.8135    5.0978   -1.6499 N   0  0  0  0  0  0  0  0  0  0  0  0
    4.6778    5.4847   -2.6936 C   0  0  0  0  0  0  0  0  0  0  0  0
    5.3585    4.7009   -3.6332 C   0  0  0  0  0  0  0  0  0  0  0  0
    6.1246    5.3572   -4.5991 C   0  0  0  0  0  0  0  0  0  0  0  0
    6.2087    6.7599   -4.6396 C   0  0  0  0  0  0  0  0  0  0  0  0
    5.5105    7.5371   -3.7164 C   0  0  0  0  0  0  0  0  0  0  0  0
    4.7345    6.9013   -2.7377 C   0  0  0  0  0  0  0  0  0  0  0  0
    3.8780    7.3956   -1.6759 C   0  0  0  0  0  0  0  0  0  0  0  0
    3.5630    8.6826   -1.2193 C   0  0  0  0  0  0  0  0  0  0  0  0
    2.7126    8.8247   -0.1238 C   0  0  0  0  0  0  0  0  0  0  0  0
    2.1892    7.6923    0.5246 C   0  0  0  0  0  0  0  0  0  0  0  0
    2.4890    6.3998    0.0885 C   0  0  0  0  0  0  0  0  0  0  0  0
    3.3233    6.2628   -1.0275 C   0  0  0  0  0  0  0  0  0  0  0  0
    2.1442    3.4085   -1.0625 C   0  0  0  0  0  0  0  0  0  0  0  0
    1.8744    2.0982   -0.7262 C   0  0  0  0  0  0  0  0  0  0  0  0
    2.8427    1.1699   -0.6021 N   0  0  0  0  0  0  0  0  0  0  0  0
    5.2155   -3.0198   -0.7381 H   0  0  0  0  0  0  0  0  0  0  0  0
    7.6732   -2.5627   -0.8473 H   0  0  0  0  0  0  0  0  0  0  0  0
    8.5042   -0.2005   -0.8516 H   0  0  0  0  0  0  0  0  0  0  0  0
    6.8966    1.6637   -0.7994 H   0  0  0  0  0  0  0  0  0  0  0  0
    5.5152    3.0678   -1.3579 H   0  0  0  0  0  0  0  0  0  0  0  0
    5.2915    3.6128   -3.6325 H   0  0  0  0  0  0  0  0  0  0  0  0
    6.6649    4.7631   -5.3400 H   0  0  0  0  0  0  0  0  0  0  0  0
    6.8186    7.2425   -5.4067 H   0  0  0  0  0  0  0  0  0  0  0  0
    5.5610    8.6277   -3.7584 H   0  0  0  0  0  0  0  0  0  0  0  0
    3.9847    9.5620   -1.7120 H   0  0  0  0  0  0  0  0  0  0  0  0
    2.4577    9.8219    0.2418 H   0  0  0  0  0  0  0  0  0  0  0  0
    1.5377    7.8209    1.3922 H   0  0  0  0  0  0  0  0  0  0  0  0
    2.0899    5.5347    0.6186 H   0  0  0  0  0  0  0  0  0  0  0  0
    1.3308    4.1227   -1.1808 H   0  0  0  0  0  0  0  0  0  0  0  0
    0.8609    1.7337   -0.5538 H   0  0  0  0  0  0  0  0  0  0  0  0
  2  1  1  1
  2  3  1  0
  2  4  1  0
  2 29  1  0
  4  5  1  0
  5  6  1  0
  5 10  2  0
  6  7  2  0
  6 30  1  0
  7  8  1  0
  7 31  1  0
  8  9  2  0
  8 32  1  0
  9 10  1  0
  9 33  1  0
 10 11  1  0
 11 12  1  0
 11 29  2  0
 12 13  2  0
 12 34  1  0
 13 14  1  0
 13 27  1  0
 14 15  1  0
 14 26  1  0
 15 16  2  0
 15 20  1  0
 16 17  1  0
 16 35  1  0
 17 18  2  0
 17 36  1  0
 18 19  1  0
 18 37  1  0
 19 20  2  0
 19 38  1  0
 20 21  1  0
 21 22  1  0
 21 26  2  0
 22 23  2  0
 22 39  1  0
 23 24  1  0
 23 40  1  0
 24 25  2  0
 24 41  1  0
 25 26  1  0
 25 42  1  0
 27 28  2  0
 27 43  1  0
 28 29  1  0
 28 44  1  0
M  CHG  2   2  -1  29   1
M  END

