
     RDKit          3D

 44 45  0  0  0  0  0  0  0  0999 V2000
    0.1197   -0.0284    2.7532 C   0  0  0  0  0  0  0  0  0  0  0  0
    1.2847   -0.7763    2.4914 O   0  0  0  0  0  0  0  0  0  0  0  0
    2.4916   -0.1519    2.4942 C   0  0  0  0  0  0  0  0  0  0  0  0
    2.6728    1.2124    2.7455 C   0  0  0  0  0  0  0  0  0  0  0  0
    3.9706    1.7617    2.7170 C   0  0  0  0  0  0  0  0  0  0  0  0
    4.1708    3.2287    3.0311 C   0  0  0  0  0  0  0  0  0  0  0  0
    4.3672    3.4955    4.5319 C   0  0  0  0  0  0  0  0  0  0  0  0
    4.3843    4.9875    4.8604 C   0  0  0  0  0  0  0  0  0  0  0  0
    3.7138    5.7948    4.2414 O   0  0  0  0  0  0  0  0  0  0  0  0
    5.1900    5.3155    5.9274 N   0  0  0  0  0  0  0  0  0  0  0  0
    5.4040    6.5681    6.5191 C   0  0  0  0  0  0  0  0  0  0  0  0
    4.8752    7.7758    6.0364 C   0  0  0  0  0  0  0  0  0  0  0  0
    5.1787    8.9707    6.6923 C   0  0  0  0  0  0  0  0  0  0  0  0
    6.0128    8.9936    7.8104 C   0  0  0  0  0  0  0  0  0  0  0  0
    6.5390    7.7902    8.2887 C   0  0  0  0  0  0  0  0  0  0  0  0
    7.6246    7.8111    9.6613 Cl  0  0  0  0  0  0  0  0  0  0  0  0
    6.2344    6.5715    7.6680 C   0  0  0  0  0  0  0  0  0  0  0  0
    6.7440    5.3700    8.0880 O   0  0  0  0  0  0  0  0  0  0  0  0
    6.1707    4.8127    9.2711 C   0  0  0  0  0  0  0  0  0  0  0  0
    5.0629    0.9431    2.4375 C   0  0  0  0  0  0  0  0  0  0  0  0
    4.8766   -0.4302    2.1850 C   0  0  0  0  0  0  0  0  0  0  0  0
    6.0024   -1.1414    1.9201 O   0  0  0  0  0  0  0  0  0  0  0  0
    5.8979   -2.5194    1.6452 C   0  0  0  0  0  0  0  0  0  0  0  0
    3.5941   -0.9810    2.2134 C   0  0  0  0  0  0  0  0  0  0  0  0
   -0.7229   -0.7310    2.6976 H   0  0  0  0  0  0  0  0  0  0  0  0
   -0.0330    0.7723    2.0071 H   0  0  0  0  0  0  0  0  0  0  0  0
    0.1391    0.4268    3.7601 H   0  0  0  0  0  0  0  0  0  0  0  0
    1.8244    1.8645    2.9534 H   0  0  0  0  0  0  0  0  0  0  0  0
    3.3049    3.8183    2.6949 H   0  0  0  0  0  0  0  0  0  0  0  0
    5.0446    3.6139    2.4811 H   0  0  0  0  0  0  0  0  0  0  0  0
    5.2791    2.9972    4.9002 H   0  0  0  0  0  0  0  0  0  0  0  0
    3.5253    3.0522    5.0944 H   0  0  0  0  0  0  0  0  0  0  0  0
    5.7365    4.5740    6.3542 H   0  0  0  0  0  0  0  0  0  0  0  0
    4.2338    7.7539    5.1589 H   0  0  0  0  0  0  0  0  0  0  0  0
    4.7628    9.9076    6.3140 H   0  0  0  0  0  0  0  0  0  0  0  0
    6.2670    9.9271    8.3140 H   0  0  0  0  0  0  0  0  0  0  0  0
    6.6709    3.8486    9.4375 H   0  0  0  0  0  0  0  0  0  0  0  0
    5.0861    4.6455    9.1466 H   0  0  0  0  0  0  0  0  0  0  0  0
    6.3410    5.4618   10.1435 H   0  0  0  0  0  0  0  0  0  0  0  0
    6.0788    1.3420    2.3997 H   0  0  0  0  0  0  0  0  0  0  0  0
    6.9187   -2.8807    1.4601 H   0  0  0  0  0  0  0  0  0  0  0  0
    5.2812   -2.7151    0.7493 H   0  0  0  0  0  0  0  0  0  0  0  0
    5.4696   -3.0783    2.4970 H   0  0  0  0  0  0  0  0  0  0  0  0
    3.3993   -2.0345    2.0199 H   0  0  0  0  0  0  0  0  0  0  0  0
  1  2  1  0
  1 25  1  0
  1 26  1  0
  1 27  1  0
  2  3  1  0
  3  4  2  0
  3 24  1  0
  4  5  1  0
  4 28  1  0
  5  6  1  0
  5 20  2  0
  6  7  1  0
  6 29  1  0
  6 30  1  0
  7  8  1  0
  7 31  1  0
  7 32  1  0
  8  9  2  0
  8 10  1  0
 10 11  1  0
 10 33  1  0
 11 12  2  0
 11 17  1  0
 12 13  1  0
 12 34  1  0
 13 14  2  0
 13 35  1  0
 14 15  1  0
 14 36  1  0
 15 16  1  0
 15 17  2  0
 17 18  1  0
 18 19  1  0
 19 37  1  0
 19 38  1  0
 19 39  1  0
 20 21  1  0
 20 40  1  0
 21 22  1  0
 21 24  2  0
 22 23  1  0
 23 41  1  0
 23 42  1  0
 23 43  1  0
 24 44  1  0
M  END

