
     RDKit          3D

 33 33  0  0  0  0  0  0  0  0999 V2000
    2.8146   -1.3605   -0.2268 N   0  0  0  0  0  0  0  0  0  0  0  0
    2.5098   -0.0434    0.0438 C   0  0  0  0  0  0  0  0  0  0  0  0
    1.6354    0.3236    0.9232 N   0  0  0  0  0  0  0  0  0  0  0  0
    1.1370   -0.7930    1.6134 O   0  0  0  0  0  0  0  0  0  0  0  0
    3.1720    1.0158   -0.7577 C   0  0  0  0  0  0  0  0  0  0  0  0
    3.2422    2.3383   -0.2866 C   0  0  0  0  0  0  0  0  0  0  0  0
    3.8624    3.3284   -1.0463 C   0  0  0  0  0  0  0  0  0  0  0  0
    4.4414    3.0463   -2.2943 C   0  0  0  0  0  0  0  0  0  0  0  0
    5.1084    4.1056   -3.1453 C   0  0  0  0  0  0  0  0  0  0  0  0
    5.6040    5.2246   -2.3618 N   0  0  0  0  0  0  0  0  0  0  0  0
    6.1996    6.2887   -3.1584 C   0  0  0  0  0  0  0  0  0  0  0  0
    6.6899    7.4509   -2.2951 C   0  0  0  0  0  0  0  0  0  0  0  0
    5.5852    8.1783   -1.5263 C   0  0  0  0  0  0  0  0  0  0  0  0
    6.0664    9.2986   -0.8105 O   0  0  0  0  0  0  0  0  0  0  0  0
    4.3525    1.7239   -2.7410 C   0  0  0  0  0  0  0  0  0  0  0  0
    4.8774    1.4083   -3.9420 F   0  0  0  0  0  0  0  0  0  0  0  0
    3.7353    0.7159   -2.0085 C   0  0  0  0  0  0  0  0  0  0  0  0
    2.4298   -2.0189    0.4429 H   0  0  0  0  0  0  0  0  0  0  0  0
    3.7633   -1.5579   -0.5226 H   0  0  0  0  0  0  0  0  0  0  0  0
    0.4965   -0.4011    2.2186 H   0  0  0  0  0  0  0  0  0  0  0  0
    2.8023    2.5729    0.6832 H   0  0  0  0  0  0  0  0  0  0  0  0
    3.9169    4.3541   -0.6774 H   0  0  0  0  0  0  0  0  0  0  0  0
    4.3681    4.5005   -3.8675 H   0  0  0  0  0  0  0  0  0  0  0  0
    5.8920    3.6249   -3.7693 H   0  0  0  0  0  0  0  0  0  0  0  0
    6.2819    4.8865   -1.6772 H   0  0  0  0  0  0  0  0  0  0  0  0
    5.4304    6.6561   -3.8626 H   0  0  0  0  0  0  0  0  0  0  0  0
    7.0393    5.9260   -3.7939 H   0  0  0  0  0  0  0  0  0  0  0  0
    7.2112    8.1838   -2.9332 H   0  0  0  0  0  0  0  0  0  0  0  0
    7.4481    7.0790   -1.5773 H   0  0  0  0  0  0  0  0  0  0  0  0
    5.0508    7.4647   -0.8712 H   0  0  0  0  0  0  0  0  0  0  0  0
    4.8393    8.5676   -2.2399 H   0  0  0  0  0  0  0  0  0  0  0  0
    6.6539    8.9786   -0.1137 H   0  0  0  0  0  0  0  0  0  0  0  0
    3.6771   -0.2844   -2.4399 H   0  0  0  0  0  0  0  0  0  0  0  0
  1  2  1  0
  1 18  1  0
  1 19  1  0
  2  3  2  0
  2  5  1  0
  3  4  1  0
  4 20  1  0
  5  6  2  0
  5 17  1  0
  6  7  1  0
  6 21  1  0
  7  8  2  0
  7 22  1  0
  8  9  1  0
  8 15  1  0
  9 10  1  0
  9 23  1  0
  9 24  1  0
 10 11  1  0
 10 25  1  0
 11 12  1  0
 11 26  1  0
 11 27  1  0
 12 13  1  0
 12 28  1  0
 12 29  1  0
 13 14  1  0
 13 30  1  0
 13 31  1  0
 14 32  1  0
 15 16  1  0
 15 17  2  0
 17 33  1  0
M  END

