
     RDKit          3D

 31 33  0  0  0  0  0  0  0  0999 V2000
    0.9816   -0.1584    0.0773 C   0  0  0  0  0  0  0  0  0  0  0  0
    2.5063    0.0531    0.0201 C   0  0  1  0  0  0  0  0  0  0  0  0
    2.9211    1.4109   -0.5451 C   0  0  0  0  0  0  0  0  0  0  0  0
    2.1169    2.5560   -0.4388 C   0  0  0  0  0  0  0  0  0  0  0  0
    2.5455    3.7879   -0.9487 C   0  0  0  0  0  0  0  0  0  0  0  0
    3.7861    3.8968   -1.5795 C   0  0  0  0  0  0  0  0  0  0  0  0
    4.5968    2.7622   -1.6978 C   0  0  0  0  0  0  0  0  0  0  0  0
    4.1666    1.5373   -1.1854 C   0  0  0  0  0  0  0  0  0  0  0  0
    3.1450   -0.1996    1.3764 C   0  0  0  0  0  0  0  0  0  0  0  0
    3.4842    0.7736    2.2950 C   0  0  0  0  0  0  0  0  0  0  0  0
    3.9827    0.2077    3.4440 N   0  0  0  0  0  0  0  0  0  0  0  0
    4.3171    0.7165    4.2512 H   0  0  0  0  0  0  0  0  0  0  0  0
    3.9902   -1.1587    3.3044 C   0  0  0  0  0  0  0  0  0  0  0  0
    4.4109   -2.1637    4.1842 C   0  0  0  0  0  0  0  0  0  0  0  0
    4.3402   -3.4420    3.8429 N   0  0  0  0  0  0  0  0  0  0  0  0
    3.8610   -3.7701    2.6301 C   0  0  0  0  0  0  0  0  0  0  0  0
    3.4225   -2.8366    1.6926 C   0  0  0  0  0  0  0  0  0  0  0  0
    2.7961   -3.4917    0.0098 Br  0  0  0  0  0  0  0  0  0  0  0  0
    3.4674   -1.4613    2.0079 C   0  0  0  0  0  0  0  0  0  0  0  0
    0.5199    0.0261   -0.9058 H   0  0  0  0  0  0  0  0  0  0  0  0
    0.5065    0.5067    0.8150 H   0  0  0  0  0  0  0  0  0  0  0  0
    0.7541   -1.1928    0.3725 H   0  0  0  0  0  0  0  0  0  0  0  0
    2.9079   -0.7057   -0.6691 H   0  0  0  0  0  0  0  0  0  0  0  0
    1.1385    2.4941    0.0417 H   0  0  0  0  0  0  0  0  0  0  0  0
    1.8995    4.6652   -0.8556 H   0  0  0  0  0  0  0  0  0  0  0  0
    4.1185    4.8570   -1.9823 H   0  0  0  0  0  0  0  0  0  0  0  0
    5.5674    2.8317   -2.1961 H   0  0  0  0  0  0  0  0  0  0  0  0
    4.8079    0.6562   -1.2819 H   0  0  0  0  0  0  0  0  0  0  0  0
    3.4086    1.8544    2.1943 H   0  0  0  0  0  0  0  0  0  0  0  0
    4.8100   -1.9203    5.1769 H   0  0  0  0  0  0  0  0  0  0  0  0
    3.8242   -4.8363    2.3854 H   0  0  0  0  0  0  0  0  0  0  0  0
  1  2  1  0
  1 20  1  0
  1 21  1  0
  1 22  1  0
  2  3  1  0
  2  9  1  0
  2 23  1  6
  3  4  2  0
  3  8  1  0
  4  5  1  0
  4 24  1  0
  5  6  2  0
  5 25  1  0
  6  7  1  0
  6 26  1  0
  7  8  2  0
  7 27  1  0
  8 28  1  0
  9 10  2  0
  9 19  1  0
 10 11  1  0
 10 29  1  0
 11 12  1  0
 11 13  1  0
 13 14  1  0
 13 19  2  0
 14 15  2  0
 14 30  1  0
 15 16  1  0
 16 17  2  0
 16 31  1  0
 17 18  1  0
 17 19  1  0
M  END

