
     RDKit          3D

 43 46  0  0  0  0  0  0  0  0999 V2000
   12.0332    4.4440   -9.3376 O   0  0  0  0  0  0  0  0  0  0  0  0
   11.9883    4.0408   -8.1977 C   0  0  0  0  0  0  0  0  0  0  0  0
   11.1273    4.5746   -7.1261 C   0  0  0  0  0  0  0  0  0  0  0  0
   11.1200    4.1231   -5.9212 N   0  0  0  0  0  0  0  0  0  0  0  0
   11.9264    3.1053   -5.5577 N   0  0  0  0  0  0  0  0  0  0  0  0
   11.7836    2.6686   -4.1960 C   0  0  0  0  0  0  0  0  0  0  0  0
   12.8603    2.1391   -3.4782 C   0  0  0  0  0  0  0  0  0  0  0  0
   12.6680    1.7576   -2.1505 C   0  0  0  0  0  0  0  0  0  0  0  0
   14.0610    1.1265   -1.3045 Cl  0  0  0  0  0  0  0  0  0  0  0  0
   11.4349    1.8799   -1.4777 C   0  0  0  0  0  0  0  0  0  0  0  0
   11.2387    1.4598   -0.0308 C   0  0  2  0  0  0  0  0  0  0  0  0
   10.2129    1.7190    0.2648 H   0  0  0  0  0  0  0  0  0  0  0  0
   12.2565    2.5522    1.0684 S   0  0  0  0  0  0  0  0  0  0  0  0
   11.0602    3.0634    2.2805 C   0  0  0  0  0  0  0  0  0  0  0  0
    9.8066    2.6122    2.2381 N   0  0  0  0  0  0  0  0  0  0  0  0
    8.9783    3.0495    3.1887 C   0  0  0  0  0  0  0  0  0  0  0  0
    9.3929    3.9319    4.1861 C   0  0  0  0  0  0  0  0  0  0  0  0
   10.7319    4.3354    4.1313 C   0  0  0  0  0  0  0  0  0  0  0  0
   11.5666    3.9083    3.1874 N   0  0  0  0  0  0  0  0  0  0  0  0
   11.3993   -0.0440    0.2070 C   0  0  0  0  0  0  0  0  0  0  0  0
   10.7415   -0.9306   -0.6625 C   0  0  0  0  0  0  0  0  0  0  0  0
   10.7894   -2.3110   -0.4656 C   0  0  0  0  0  0  0  0  0  0  0  0
   11.5046   -2.8233    0.6202 C   0  0  0  0  0  0  0  0  0  0  0  0
   11.5736   -4.5532    0.8762 Cl  0  0  0  0  0  0  0  0  0  0  0  0
   12.1629   -1.9633    1.5005 C   0  0  0  0  0  0  0  0  0  0  0  0
   12.1053   -0.5833    1.2888 C   0  0  0  0  0  0  0  0  0  0  0  0
   10.3843    2.4236   -2.2452 C   0  0  0  0  0  0  0  0  0  0  0  0
    8.7819    2.6163   -1.5598 Cl  0  0  0  0  0  0  0  0  0  0  0  0
   10.5398    2.8116   -3.5759 C   0  0  0  0  0  0  0  0  0  0  0  0
   12.7920    2.4384   -6.4593 C   0  0  0  0  0  0  0  0  0  0  0  0
   13.4846    1.4951   -6.1627 O   0  0  0  0  0  0  0  0  0  0  0  0
   12.7709    2.9812   -7.7353 N   0  0  0  0  0  0  0  0  0  0  0  0
   13.3910    2.5298   -8.4058 H   0  0  0  0  0  0  0  0  0  0  0  0
   10.4583    5.4052   -7.3658 H   0  0  0  0  0  0  0  0  0  0  0  0
   13.8376    2.0113   -3.9334 H   0  0  0  0  0  0  0  0  0  0  0  0
    7.9475    2.6781    3.1506 H   0  0  0  0  0  0  0  0  0  0  0  0
    8.7139    4.2856    4.9633 H   0  0  0  0  0  0  0  0  0  0  0  0
   11.1439    5.0276    4.8756 H   0  0  0  0  0  0  0  0  0  0  0  0
   10.1733   -0.5410   -1.5106 H   0  0  0  0  0  0  0  0  0  0  0  0
   10.2746   -2.9896   -1.1478 H   0  0  0  0  0  0  0  0  0  0  0  0
   12.7204   -2.3721    2.3449 H   0  0  0  0  0  0  0  0  0  0  0  0
   12.6282    0.0846    1.9754 H   0  0  0  0  0  0  0  0  0  0  0  0
    9.6983    3.2327   -4.1211 H   0  0  0  0  0  0  0  0  0  0  0  0
  1  2  2  0
  2  3  1  0
  2 32  1  0
  3  4  2  0
  3 34  1  0
  4  5  1  0
  5  6  1  0
  5 30  1  0
  6  7  2  0
  6 29  1  0
  7  8  1  0
  7 35  1  0
  8  9  1  0
  8 10  2  0
 10 11  1  0
 10 27  1  0
 11 12  1  1
 11 13  1  0
 11 20  1  0
 13 14  1  0
 14 15  2  0
 14 19  1  0
 15 16  1  0
 16 17  2  0
 16 36  1  0
 17 18  1  0
 17 37  1  0
 18 19  2  0
 18 38  1  0
 20 21  2  0
 20 26  1  0
 21 22  1  0
 21 39  1  0
 22 23  2  0
 22 40  1  0
 23 24  1  0
 23 25  1  0
 25 26  2  0
 25 41  1  0
 26 42  1  0
 27 28  1  0
 27 29  2  0
 29 43  1  0
 30 31  2  0
 30 32  1  0
 32 33  1  0
M  END

