
     RDKit          3D

 73 74  0  0  0  0  0  0  0  0999 V2000
    4.7449    2.0817   -1.2590 C   0  0  0  0  0  0  0  0  0  0  0  0
    3.8930    0.9960   -0.6716 C   0  0  0  0  0  0  0  0  0  0  0  0
    2.8277    1.1369    0.1379 C   0  0  0  0  0  0  0  0  0  0  0  0
    2.2692    2.3864    0.7050 C   0  0  0  0  0  0  0  0  0  0  0  0
    3.0195    3.2682    1.5131 C   0  0  0  0  0  0  0  0  0  0  0  0
    4.4609    3.0235    1.8897 C   0  0  0  0  0  0  0  0  0  0  0  0
    2.4768    4.3691    2.0413 N   0  0  0  0  0  0  0  0  0  0  0  0
    1.1945    4.6740    1.8348 C   0  0  0  0  0  0  0  0  0  0  0  0
    0.7908    6.0083    2.4176 C   0  0  0  0  0  0  0  0  0  0  0  0
    0.3269    3.8329    1.0999 C   0  0  0  0  0  0  0  0  0  0  0  0
   -1.1381    4.1640    0.8074 C   0  0  1  0  0  0  0  0  0  0  0  0
   -2.1477    3.5920    1.6170 O   0  0  0  0  0  0  0  0  0  0  0  0
   -2.3420    3.6327    3.0518 C   0  0  1  0  0  0  0  0  0  0  0  0
   -2.8180    5.0089    3.5392 C   0  0  0  0  0  0  0  0  0  0  0  0
   -3.4806    2.6180    3.2396 C   0  0  0  0  0  0  0  0  0  0  0  0
   -1.1146    3.1677    3.8501 C   0  0  0  0  0  0  0  0  0  0  0  0
   -1.3551    5.6258    0.3618 C   0  0  0  0  0  0  0  0  0  0  0  0
   -0.5621    6.1943   -0.3526 O   0  0  0  0  0  0  0  0  0  0  0  0
   -2.5412    6.1132    0.7311 O   0  0  0  0  0  0  0  0  0  0  0  0
   -3.0106    7.4057    0.2446 C   0  0  1  0  0  0  0  0  0  0  0  0
   -2.1368    8.5570    0.7330 C   0  0  0  0  0  0  0  0  0  0  0  0
   -3.2293    7.3841   -1.2650 C   0  0  0  0  0  0  0  0  0  0  0  0
    0.8869    2.6634    0.5256 C   0  0  0  0  0  0  0  0  0  0  0  0
    0.1488    1.7527   -0.2743 N   0  0  0  0  0  0  0  0  0  0  0  0
    0.3140    1.8005   -1.7247 C   0  0  0  0  0  0  0  0  0  0  0  0
    0.1883    0.4114   -2.3574 C   0  0  0  0  0  0  0  0  0  0  0  0
   -1.0889   -0.3547   -1.9362 C   0  0  2  0  0  0  0  0  0  0  0  0
   -0.9869   -1.8143   -2.4080 C   0  0  0  0  0  0  0  0  0  0  0  0
   -2.3445    0.2774   -2.5688 C   0  0  0  0  0  0  0  0  0  0  0  0
   -1.1699   -0.3180   -0.3910 C   0  0  0  0  0  0  0  0  0  0  0  0
   -1.0671    1.0950    0.1944 C   0  0  0  0  0  0  0  0  0  0  0  0
    4.8650    1.9325   -2.3459 H   0  0  0  0  0  0  0  0  0  0  0  0
    5.7637    2.0719   -0.8314 H   0  0  0  0  0  0  0  0  0  0  0  0
    4.3196    3.0824   -1.0958 H   0  0  0  0  0  0  0  0  0  0  0  0
    4.1615   -0.0267   -0.9648 H   0  0  0  0  0  0  0  0  0  0  0  0
    2.2684    0.2302    0.3945 H   0  0  0  0  0  0  0  0  0  0  0  0
    4.7291    1.9592    1.8540 H   0  0  0  0  0  0  0  0  0  0  0  0
    4.6345    3.4218    2.8990 H   0  0  0  0  0  0  0  0  0  0  0  0
    5.1428    3.5630    1.2108 H   0  0  0  0  0  0  0  0  0  0  0  0
    1.3566    6.1761    3.3444 H   0  0  0  0  0  0  0  0  0  0  0  0
   -0.2806    6.0980    2.6289 H   0  0  0  0  0  0  0  0  0  0  0  0
    1.0556    6.8117    1.7118 H   0  0  0  0  0  0  0  0  0  0  0  0
   -1.3256    3.6648   -0.1585 H   0  0  0  0  0  0  0  0  0  0  0  0
   -3.7053    5.3308    2.9777 H   0  0  0  0  0  0  0  0  0  0  0  0
   -2.0463    5.7818    3.4266 H   0  0  0  0  0  0  0  0  0  0  0  0
   -3.0759    4.9526    4.6088 H   0  0  0  0  0  0  0  0  0  0  0  0
   -4.3462    2.9066    2.6252 H   0  0  0  0  0  0  0  0  0  0  0  0
   -3.7945    2.5717    4.2937 H   0  0  0  0  0  0  0  0  0  0  0  0
   -3.1583    1.6137    2.9261 H   0  0  0  0  0  0  0  0  0  0  0  0
   -0.2987    3.9006    3.8428 H   0  0  0  0  0  0  0  0  0  0  0  0
   -0.7243    2.2171    3.4585 H   0  0  0  0  0  0  0  0  0  0  0  0
   -1.4057    3.0087    4.9006 H   0  0  0  0  0  0  0  0  0  0  0  0
   -3.9915    7.4778    0.7394 H   0  0  0  0  0  0  0  0  0  0  0  0
   -1.1541    8.5509    0.2434 H   0  0  0  0  0  0  0  0  0  0  0  0
   -1.9918    8.5000    1.8229 H   0  0  0  0  0  0  0  0  0  0  0  0
   -2.6374    9.5126    0.5096 H   0  0  0  0  0  0  0  0  0  0  0  0
   -2.2753    7.3288   -1.8066 H   0  0  0  0  0  0  0  0  0  0  0  0
   -3.7558    8.3017   -1.5721 H   0  0  0  0  0  0  0  0  0  0  0  0
   -3.8530    6.5234   -1.5520 H   0  0  0  0  0  0  0  0  0  0  0  0
    1.3047    2.2185   -1.9520 H   0  0  0  0  0  0  0  0  0  0  0  0
   -0.4259    2.4943   -2.1825 H   0  0  0  0  0  0  0  0  0  0  0  0
    1.0691   -0.1815   -2.0590 H   0  0  0  0  0  0  0  0  0  0  0  0
    0.2237    0.5081   -3.4569 H   0  0  0  0  0  0  0  0  0  0  0  0
   -0.9027   -1.8719   -3.5061 H   0  0  0  0  0  0  0  0  0  0  0  0
   -1.8780   -2.3916   -2.1096 H   0  0  0  0  0  0  0  0  0  0  0  0
   -0.1035   -2.3134   -1.9771 H   0  0  0  0  0  0  0  0  0  0  0  0
   -2.2870    0.2379   -3.6692 H   0  0  0  0  0  0  0  0  0  0  0  0
   -2.4830    1.3313   -2.2851 H   0  0  0  0  0  0  0  0  0  0  0  0
   -3.2528   -0.2674   -2.2622 H   0  0  0  0  0  0  0  0  0  0  0  0
   -0.3483   -0.9308    0.0193 H   0  0  0  0  0  0  0  0  0  0  0  0
   -2.1147   -0.7799   -0.0541 H   0  0  0  0  0  0  0  0  0  0  0  0
   -1.0327    1.0408    1.2909 H   0  0  0  0  0  0  0  0  0  0  0  0
   -1.9858    1.6635   -0.0486 H   0  0  0  0  0  0  0  0  0  0  0  0
  1  2  1  0
  1 32  1  0
  1 33  1  0
  1 34  1  0
  2  3  2  0
  2 35  1  0
  3  4  1  0
  3 36  1  0
  4  5  2  0
  4 23  1  0
  5  6  1  0
  5  7  1  0
  6 37  1  0
  6 38  1  0
  6 39  1  0
  7  8  2  0
  8  9  1  0
  8 10  1  0
  9 40  1  0
  9 41  1  0
  9 42  1  0
 10 11  1  0
 10 23  2  0
 11 12  1  0
 11 17  1  0
 11 43  1  6
 13 12  1  6
 13 14  1  0
 13 15  1  0
 13 16  1  0
 14 44  1  0
 14 45  1  0
 14 46  1  0
 15 47  1  0
 15 48  1  0
 15 49  1  0
 16 50  1  0
 16 51  1  0
 16 52  1  0
 17 18  2  0
 17 19  1  0
 19 20  1  0
 20 21  1  0
 20 22  1  0
 20 53  1  1
 21 54  1  0
 21 55  1  0
 21 56  1  0
 22 57  1  0
 22 58  1  0
 22 59  1  0
 23 24  1  0
 24 25  1  0
 24 31  1  0
 25 26  1  0
 25 60  1  0
 25 61  1  0
 26 27  1  0
 26 62  1  0
 26 63  1  0
 27 28  1  6
 27 29  1  0
 27 30  1  0
 28 64  1  0
 28 65  1  0
 28 66  1  0
 29 67  1  0
 29 68  1  0
 29 69  1  0
 30 31  1  0
 30 70  1  0
 30 71  1  0
 31 72  1  0
 31 73  1  0
M  END

