
     RDKit          3D

 52 55  0  0  0  0  0  0  0  0999 V2000
    3.8719    1.1020    0.0289 C   0  0  0  0  0  0  0  0  0  0  0  0
    2.9717   -0.3036   -0.6984 S   0  0  0  0  0  0  0  0  0  0  0  0
    3.3441   -1.5190    0.5234 C   0  0  0  0  0  0  0  0  0  0  0  0
    4.0645   -1.3287    1.6113 N   0  0  0  0  0  0  0  0  0  0  0  0
    4.1088   -2.5441    2.2309 C   0  0  0  0  0  0  0  0  0  0  0  0
    3.4084   -3.4979    1.5157 C   0  0  0  0  0  0  0  0  0  0  0  0
    3.0831   -4.9144    1.8071 C   0  0  0  0  0  0  0  0  0  0  0  0
    2.1251   -5.4850    1.3012 O   0  0  0  0  0  0  0  0  0  0  0  0
    3.9303   -5.5177    2.6997 N   0  0  0  0  0  0  0  0  0  0  0  0
    3.7462   -6.8841    3.1694 C   0  0  2  0  0  0  0  0  0  0  0  0
    3.6512   -6.9314    4.7078 C   0  0  0  0  0  0  0  0  0  0  0  0
    3.7572   -8.3617    5.2964 C   0  0  1  0  0  0  0  0  0  0  0  0
    2.5290   -9.2593    5.0445 C   0  0  0  0  0  0  0  0  0  0  0  0
    2.3884   -9.7137    3.5821 C   0  0  0  0  0  0  0  0  0  0  0  0
    3.7388  -10.1410    2.9830 C   0  0  0  0  0  0  0  0  0  0  0  0
    4.9019   -9.1959    3.3459 C   0  0  1  0  0  0  0  0  0  0  0  0
    4.8619   -7.8129    2.6467 C   0  0  0  0  0  0  0  0  0  0  0  0
    4.9468   -9.0682    4.8073 N   0  0  0  0  0  0  0  0  0  0  0  0
    6.2104   -8.6381    5.3651 C   0  0  0  0  0  0  0  0  0  0  0  0
    2.9036   -2.8140    0.4057 N   0  0  0  0  0  0  0  0  0  0  0  0
    2.1399   -3.3376   -0.6906 C   0  0  0  0  0  0  0  0  0  0  0  0
    0.7758   -3.0462   -0.7850 C   0  0  0  0  0  0  0  0  0  0  0  0
    0.0405   -3.5308   -1.8687 C   0  0  0  0  0  0  0  0  0  0  0  0
    0.6634   -4.3085   -2.8491 C   0  0  0  0  0  0  0  0  0  0  0  0
    2.0277   -4.5982   -2.7481 C   0  0  0  0  0  0  0  0  0  0  0  0
    2.7700   -4.1101   -1.6715 C   0  0  0  0  0  0  0  0  0  0  0  0
    3.7080    1.9447   -0.6568 H   0  0  0  0  0  0  0  0  0  0  0  0
    4.9436    0.8769    0.1065 H   0  0  0  0  0  0  0  0  0  0  0  0
    3.4780    1.3394    1.0255 H   0  0  0  0  0  0  0  0  0  0  0  0
    4.6143   -2.6708    3.1887 H   0  0  0  0  0  0  0  0  0  0  0  0
    4.7703   -5.0241    2.9789 H   0  0  0  0  0  0  0  0  0  0  0  0
    2.7896   -7.1882    2.7295 H   0  0  0  0  0  0  0  0  0  0  0  0
    2.7184   -6.4447    5.0374 H   0  0  0  0  0  0  0  0  0  0  0  0
    4.4763   -6.3262    5.1259 H   0  0  0  0  0  0  0  0  0  0  0  0
    3.8631   -8.2570    6.3895 H   0  0  0  0  0  0  0  0  0  0  0  0
    1.6111   -8.7463    5.3776 H   0  0  0  0  0  0  0  0  0  0  0  0
    2.6520  -10.1479    5.6860 H   0  0  0  0  0  0  0  0  0  0  0  0
    1.9381   -8.9137    2.9751 H   0  0  0  0  0  0  0  0  0  0  0  0
    1.6777  -10.5550    3.5247 H   0  0  0  0  0  0  0  0  0  0  0  0
    3.6591  -10.2389    1.8872 H   0  0  0  0  0  0  0  0  0  0  0  0
    4.0072  -11.1356    3.3766 H   0  0  0  0  0  0  0  0  0  0  0  0
    5.8344   -9.6939    3.0307 H   0  0  0  0  0  0  0  0  0  0  0  0
    4.7615   -7.9330    1.5554 H   0  0  0  0  0  0  0  0  0  0  0  0
    5.8350   -7.3158    2.8131 H   0  0  0  0  0  0  0  0  0  0  0  0
    7.0138   -9.3137    5.0278 H   0  0  0  0  0  0  0  0  0  0  0  0
    6.1697   -8.6980    6.4652 H   0  0  0  0  0  0  0  0  0  0  0  0
    6.5252   -7.6020    5.1060 H   0  0  0  0  0  0  0  0  0  0  0  0
    0.2987   -2.4490   -0.0059 H   0  0  0  0  0  0  0  0  0  0  0  0
   -1.0262   -3.3055   -1.9422 H   0  0  0  0  0  0  0  0  0  0  0  0
    0.0845   -4.6905   -3.6937 H   0  0  0  0  0  0  0  0  0  0  0  0
    2.5181   -5.2055   -3.5128 H   0  0  0  0  0  0  0  0  0  0  0  0
    3.8369   -4.3250   -1.5836 H   0  0  0  0  0  0  0  0  0  0  0  0
  1  2  1  0
  1 27  1  0
  1 28  1  0
  1 29  1  0
  2  3  2  0
  3  4  1  0
  3 20  1  0
  4  5  2  0
  5  6  1  0
  5 30  1  0
  6  7  2  0
  6 20  1  0
  7  8  1  0
  7  9  1  0
  9 10  1  0
  9 31  1  0
 10 11  1  0
 10 17  1  0
 10 32  1  6
 11 12  1  0
 11 33  1  0
 11 34  1  0
 12 13  1  0
 12 18  1  0
 12 35  1  1
 13 14  1  0
 13 36  1  0
 13 37  1  0
 14 15  1  0
 14 38  1  0
 14 39  1  0
 15 16  1  0
 15 40  1  0
 15 41  1  0
 16 17  1  0
 16 18  1  0
 16 42  1  6
 17 43  1  0
 17 44  1  0
 18 19  1  0
 19 45  1  0
 19 46  1  0
 19 47  1  0
 20 21  1  0
 21 22  2  0
 21 26  1  0
 22 23  1  0
 22 48  1  0
 23 24  2  0
 23 49  1  0
 24 25  1  0
 24 50  1  0
 25 26  2  0
 25 51  1  0
 26 52  1  0
M  CHG  2   2   1   8  -1
M  END

