
     RDKit          3D

 51 55  0  0  0  0  0  0  0  0999 V2000
   -0.7104    1.2882   -0.0306 C   0  0  0  0  0  0  0  0  0  0  0  0
    0.6529    1.2617   -0.3174 C   0  0  0  0  0  0  0  0  0  0  0  0
    1.3004    0.0176   -0.4310 C   0  0  0  0  0  0  0  0  0  0  0  0
    2.6755    0.0462   -0.7335 N   0  0  0  0  0  0  0  0  0  0  0  0
    3.6095   -0.9507   -0.8639 C   0  0  0  0  0  0  0  0  0  0  0  0
    4.9619   -0.5402   -1.1686 C   0  0  0  0  0  0  0  0  0  0  0  0
    5.9316   -1.4914   -1.3064 C   0  0  0  0  0  0  0  0  0  0  0  0
    5.5877   -2.8682   -1.1462 C   0  0  0  0  0  0  0  0  0  0  0  0
    6.5255   -3.8316   -1.2757 N   0  0  0  0  0  0  0  0  0  0  0  0
    6.1198   -5.0760   -1.1113 C   0  0  0  0  0  0  0  0  0  0  0  0
    4.7678   -5.3866   -0.8137 C   0  0  0  0  0  0  0  0  0  0  0  0
    3.8344   -4.4667   -0.6826 N   0  0  0  0  0  0  0  0  0  0  0  0
    4.2193   -3.1750   -0.8458 C   0  0  0  0  0  0  0  0  0  0  0  0
    3.2725   -2.2186   -0.7143 N   0  0  0  0  0  0  0  0  0  0  0  0
    0.5756   -1.1713   -0.2611 C   0  0  0  0  0  0  0  0  0  0  0  0
   -0.8028   -1.1451    0.0490 C   0  0  0  0  0  0  0  0  0  0  0  0
   -1.5062   -2.3353    0.2723 N   0  0  0  0  0  0  0  0  0  0  0  0
   -0.7911   -3.6076    0.1994 C   0  0  0  0  0  0  0  0  0  0  0  0
   -1.5758   -4.7253    0.9032 C   0  0  0  0  0  0  0  0  0  0  0  0
   -2.9555   -4.8615    0.4529 N   0  0  0  0  0  0  0  0  0  0  0  0
   -3.1650   -5.5709   -0.8045 C   0  0  0  0  0  0  0  0  0  0  0  0
   -2.8628   -7.0536   -0.7074 C   0  0  1  0  0  0  0  0  0  0  0  0
   -2.7508   -7.8753   -1.9664 C   0  0  0  0  0  0  0  0  0  0  0  0
   -1.5264   -7.6220   -1.1262 C   0  0  0  0  0  0  0  0  0  0  0  0
   -3.6260   -3.5765    0.5707 C   0  0  0  0  0  0  0  0  0  0  0  0
   -2.9046   -2.4282   -0.1486 C   0  0  0  0  0  0  0  0  0  0  0  0
   -1.4390    0.1150    0.1526 C   0  0  0  0  0  0  0  0  0  0  0  0
   -1.2197    2.2511    0.0634 H   0  0  0  0  0  0  0  0  0  0  0  0
    1.2113    2.1926   -0.4509 H   0  0  0  0  0  0  0  0  0  0  0  0
    3.0421    0.9810   -0.8610 H   0  0  0  0  0  0  0  0  0  0  0  0
    5.1953    0.5216   -1.2848 H   0  0  0  0  0  0  0  0  0  0  0  0
    6.9689   -1.2379   -1.5357 H   0  0  0  0  0  0  0  0  0  0  0  0
    6.8622   -5.8764   -1.2111 H   0  0  0  0  0  0  0  0  0  0  0  0
    4.4676   -6.4344   -0.6833 H   0  0  0  0  0  0  0  0  0  0  0  0
    1.1116   -2.1047   -0.3821 H   0  0  0  0  0  0  0  0  0  0  0  0
    0.1822   -3.5088    0.6989 H   0  0  0  0  0  0  0  0  0  0  0  0
   -0.5765   -3.8866   -0.8548 H   0  0  0  0  0  0  0  0  0  0  0  0
   -1.5916   -4.5054    1.9860 H   0  0  0  0  0  0  0  0  0  0  0  0
   -1.0454   -5.6792    0.7737 H   0  0  0  0  0  0  0  0  0  0  0  0
   -2.5940   -5.1497   -1.6640 H   0  0  0  0  0  0  0  0  0  0  0  0
   -4.2309   -5.4485   -1.0648 H   0  0  0  0  0  0  0  0  0  0  0  0
   -3.3479   -7.5345    0.1495 H   0  0  0  0  0  0  0  0  0  0  0  0
   -2.8282   -7.3527   -2.9254 H   0  0  0  0  0  0  0  0  0  0  0  0
   -3.1852   -8.8789   -1.9711 H   0  0  0  0  0  0  0  0  0  0  0  0
   -0.7750   -6.9297   -1.5196 H   0  0  0  0  0  0  0  0  0  0  0  0
   -1.1089   -8.4506   -0.5468 H   0  0  0  0  0  0  0  0  0  0  0  0
   -3.6953   -3.3204    1.6440 H   0  0  0  0  0  0  0  0  0  0  0  0
   -4.6551   -3.6595    0.1849 H   0  0  0  0  0  0  0  0  0  0  0  0
   -3.4307   -1.4930    0.0787 H   0  0  0  0  0  0  0  0  0  0  0  0
   -2.9684   -2.5695   -1.2500 H   0  0  0  0  0  0  0  0  0  0  0  0
   -2.4967    0.1878    0.4034 H   0  0  0  0  0  0  0  0  0  0  0  0
  1  2  2  0
  1 27  1  0
  1 28  1  0
  2  3  1  0
  2 29  1  0
  3  4  1  0
  3 15  2  0
  4  5  1  0
  4 30  1  0
  5  6  2  0
  5 14  1  0
  6  7  1  0
  6 31  1  0
  7  8  2  0
  7 32  1  0
  8  9  1  0
  8 13  1  0
  9 10  2  0
 10 11  1  0
 10 33  1  0
 11 12  2  0
 11 34  1  0
 12 13  1  0
 13 14  2  0
 15 16  1  0
 15 35  1  0
 16 17  1  0
 16 27  2  0
 17 18  1  0
 17 26  1  0
 18 19  1  0
 18 36  1  0
 18 37  1  0
 19 20  1  0
 19 38  1  0
 19 39  1  0
 20 21  1  0
 20 25  1  0
 21 22  1  0
 21 40  1  0
 21 41  1  0
 22 23  1  0
 22 24  1  0
 22 42  1  1
 23 24  1  0
 23 43  1  0
 23 44  1  0
 24 45  1  0
 24 46  1  0
 25 26  1  0
 25 47  1  0
 25 48  1  0
 26 49  1  0
 26 50  1  0
 27 51  1  0
M  END

