
     RDKit          3D

 30 31  0  0  0  0  0  0  0  0999 V2000
    1.7485    1.3326    0.9361 O   0  0  0  0  0  0  0  0  0  0  0  0
    2.3327    0.4772    0.2852 C   0  0  0  0  0  0  0  0  0  0  0  0
    2.4863   -0.8340    0.5815 N   0  0  0  0  0  0  0  0  0  0  0  0
    2.0262   -1.5576    1.6945 C   0  0  0  0  0  0  0  0  0  0  0  0
    2.3265   -2.9297    1.7563 C   0  0  0  0  0  0  0  0  0  0  0  0
    1.8998   -3.7040    2.8326 C   0  0  0  0  0  0  0  0  0  0  0  0
    1.1647   -3.1070    3.8613 C   0  0  0  0  0  0  0  0  0  0  0  0
    0.6254   -4.0722    5.2153 Cl  0  0  0  0  0  0  0  0  0  0  0  0
    0.8599   -1.7443    3.8113 C   0  0  0  0  0  0  0  0  0  0  0  0
    1.2864   -0.9666    2.7340 C   0  0  0  0  0  0  0  0  0  0  0  0
    3.0214    0.8194   -1.0582 C   0  0  0  0  0  0  0  0  0  0  0  0
    3.6071   -0.0344   -1.7086 O   0  0  0  0  0  0  0  0  0  0  0  0
    2.8691    2.1321   -1.3535 N   0  0  0  0  0  0  0  0  0  0  0  0
    3.3302    2.8576   -2.4641 C   0  0  0  0  0  0  0  0  0  0  0  0
    3.0241    4.2289   -2.5247 C   0  0  0  0  0  0  0  0  0  0  0  0
    3.4591    4.9928   -3.6059 C   0  0  0  0  0  0  0  0  0  0  0  0
    4.2006    4.4140   -4.6394 C   0  0  0  0  0  0  0  0  0  0  0  0
    4.4967    3.0503   -4.5649 C   0  0  0  0  0  0  0  0  0  0  0  0
    5.4235    2.3052   -5.8474 Cl  0  0  0  0  0  0  0  0  0  0  0  0
    4.0748    2.2588   -3.4946 C   0  0  0  0  0  0  0  0  0  0  0  0
    3.0193   -1.3366   -0.1287 H   0  0  0  0  0  0  0  0  0  0  0  0
    2.9014   -3.3963    0.9516 H   0  0  0  0  0  0  0  0  0  0  0  0
    2.1350   -4.7685    2.8768 H   0  0  0  0  0  0  0  0  0  0  0  0
    0.2855   -1.2889    4.6198 H   0  0  0  0  0  0  0  0  0  0  0  0
    1.0518    0.0950    2.6896 H   0  0  0  0  0  0  0  0  0  0  0  0
    2.3363    2.6344   -0.6430 H   0  0  0  0  0  0  0  0  0  0  0  0
    2.4446    4.6913   -1.7215 H   0  0  0  0  0  0  0  0  0  0  0  0
    3.2173    6.0576   -3.6459 H   0  0  0  0  0  0  0  0  0  0  0  0
    4.5454    5.0037   -5.4895 H   0  0  0  0  0  0  0  0  0  0  0  0
    4.3141    1.1991   -3.4534 H   0  0  0  0  0  0  0  0  0  0  0  0
  1  2  2  0
  2  3  1  0
  2 11  1  0
  3  4  1  0
  3 21  1  0
  4  5  2  0
  4 10  1  0
  5  6  1  0
  5 22  1  0
  6  7  2  0
  6 23  1  0
  7  8  1  0
  7  9  1  0
  9 10  2  0
  9 24  1  0
 10 25  1  0
 11 12  2  0
 11 13  1  0
 13 14  1  0
 13 26  1  0
 14 15  2  0
 14 20  1  0
 15 16  1  0
 15 27  1  0
 16 17  2  0
 16 28  1  0
 17 18  1  0
 17 29  1  0
 18 19  1  0
 18 20  2  0
 20 30  1  0
M  END

