
     RDKit          3D

 77 86  0  0  0  0  0  0  0  0999 V2000
    0.9952    0.3121    0.2740 C   0  0  0  0  0  0  0  0  0  0  0  0
    2.4949    0.4138    0.1352 C   0  0  0  0  0  0  0  0  0  0  0  0
    3.3171    0.6398    1.2440 C   0  0  0  0  0  0  0  0  0  0  0  0
    4.7119    0.7355    1.1315 C   0  0  0  0  0  0  0  0  0  0  0  0
    5.5498    0.9834    2.3641 C   0  0  0  0  0  0  0  0  0  0  0  0
    5.3027    0.6021   -0.1458 C   0  0  0  0  0  0  0  0  0  0  0  0
    6.7910    0.7000   -0.2811 C   0  0  0  0  0  0  0  0  0  0  0  0
    7.6047   -0.4411   -0.0443 C   0  0  0  0  0  0  0  0  0  0  0  0
    7.2083   -1.7672    0.2647 C   0  0  0  0  0  0  0  0  0  0  0  0
    8.3705   -2.5214    0.4330 C   0  0  0  0  0  0  0  0  0  0  0  0
    9.4517   -1.6482    0.2146 C   0  0  0  0  0  0  0  0  0  0  0  0
    9.0079   -0.4070   -0.0576 N   0  0  0  0  0  0  0  0  0  0  0  0
    9.8570    0.8349   -0.4906 B   0  0  2  0  0  0  0  0  0  0  0  0
   10.6939    0.5356   -1.8771 C   0  0  0  0  0  0  0  0  0  0  0  0
   12.0508    0.2618   -1.7334 C   0  0  0  0  0  0  0  0  0  0  0  0
   12.8960   -0.0715   -2.8202 C   0  0  0  0  0  0  0  0  0  0  0  0
   12.3879   -0.1298   -4.0960 C   0  0  0  0  0  0  0  0  0  0  0  0
   11.0107    0.1363   -4.3262 C   0  0  0  0  0  0  0  0  0  0  0  0
   10.4732    0.0769   -5.6432 C   0  0  0  0  0  0  0  0  0  0  0  0
    9.1392    0.3228   -5.8828 C   0  0  0  0  0  0  0  0  0  0  0  0
    8.2853    0.6391   -4.7996 C   0  0  0  0  0  0  0  0  0  0  0  0
    8.7791    0.7066   -3.5121 C   0  0  0  0  0  0  0  0  0  0  0  0
   10.1525    0.4645   -3.2142 C   0  0  0  0  0  0  0  0  0  0  0  0
   10.8510    1.2411    0.5628 O   0  0  0  0  0  0  0  0  0  0  0  0
   11.2560    2.5097    0.6685 C   0  0  0  0  0  0  0  0  0  0  0  0
   12.4344    2.8445    1.3427 C   0  0  0  0  0  0  0  0  0  0  0  0
   12.7672    4.1993    1.5197 C   0  0  0  0  0  0  0  0  0  0  0  0
   13.9121    4.5654    2.1449 O   0  0  0  0  0  0  0  0  0  0  0  0
   11.9223    5.2420    1.0961 C   0  0  0  0  0  0  0  0  0  0  0  0
   10.7187    4.9434    0.4476 C   0  0  0  0  0  0  0  0  0  0  0  0
    9.6684    5.9419    0.1258 C   0  0  0  0  0  0  0  0  0  0  0  0
    9.9231    7.3224    0.2134 C   0  0  0  0  0  0  0  0  0  0  0  0
    8.9290    8.2705   -0.0100 C   0  0  0  0  0  0  0  0  0  0  0  0
    7.6152    7.8844   -0.3297 C   0  0  0  0  0  0  0  0  0  0  0  0
    6.5297    8.9052   -0.5696 C   0  0  0  0  0  0  0  0  0  0  0  0
    7.3456    6.5172   -0.4299 C   0  0  0  0  0  0  0  0  0  0  0  0
    8.3331    5.5389   -0.2225 C   0  0  0  0  0  0  0  0  0  0  0  0
    8.0546    4.1164   -0.3670 C   0  0  0  0  0  0  0  0  0  0  0  0
    6.9365    3.2859   -0.4958 C   0  0  0  0  0  0  0  0  0  0  0  0
    7.4134    1.9297   -0.5195 C   0  0  0  0  0  0  0  0  0  0  0  0
    8.8046    1.9691   -0.5077 N   0  0  0  0  0  0  0  0  0  0  0  0
    9.1716    3.2338   -0.3090 C   0  0  0  0  0  0  0  0  0  0  0  0
   10.4474    3.5768    0.1758 C   0  0  0  0  0  0  0  0  0  0  0  0
    4.4934    0.3770   -1.2837 C   0  0  0  0  0  0  0  0  0  0  0  0
    5.0996    0.2398   -2.6598 C   0  0  0  0  0  0  0  0  0  0  0  0
    3.1062    0.2852   -1.1191 C   0  0  0  0  0  0  0  0  0  0  0  0
    0.6777    0.4038    1.3231 H   0  0  0  0  0  0  0  0  0  0  0  0
    0.6225   -0.6526   -0.1086 H   0  0  0  0  0  0  0  0  0  0  0  0
    0.4859    1.1027   -0.3023 H   0  0  0  0  0  0  0  0  0  0  0  0
    2.8628    0.7449    2.2337 H   0  0  0  0  0  0  0  0  0  0  0  0
    4.9171    1.0764    3.2585 H   0  0  0  0  0  0  0  0  0  0  0  0
    6.1434    1.9071    2.2709 H   0  0  0  0  0  0  0  0  0  0  0  0
    6.2665    0.1652    2.5377 H   0  0  0  0  0  0  0  0  0  0  0  0
    6.1771   -2.1037    0.3506 H   0  0  0  0  0  0  0  0  0  0  0  0
    8.4449   -3.5783    0.6804 H   0  0  0  0  0  0  0  0  0  0  0  0
   10.5195   -1.8610    0.2338 H   0  0  0  0  0  0  0  0  0  0  0  0
   12.4940    0.3063   -0.7368 H   0  0  0  0  0  0  0  0  0  0  0  0
   13.9547   -0.2759   -2.6370 H   0  0  0  0  0  0  0  0  0  0  0  0
   13.0284   -0.3801   -4.9466 H   0  0  0  0  0  0  0  0  0  0  0  0
   11.1469   -0.1713   -6.4686 H   0  0  0  0  0  0  0  0  0  0  0  0
    8.7402    0.2741   -6.8993 H   0  0  0  0  0  0  0  0  0  0  0  0
    7.2257    0.8338   -4.9852 H   0  0  0  0  0  0  0  0  0  0  0  0
    8.0964    0.9556   -2.7047 H   0  0  0  0  0  0  0  0  0  0  0  0
   13.0726    2.0506    1.7392 H   0  0  0  0  0  0  0  0  0  0  0  0
   14.4042    3.7766    2.4087 H   0  0  0  0  0  0  0  0  0  0  0  0
   12.2189    6.2602    1.3454 H   0  0  0  0  0  0  0  0  0  0  0  0
   10.9293    7.6676    0.4569 H   0  0  0  0  0  0  0  0  0  0  0  0
    9.1756    9.3332    0.0633 H   0  0  0  0  0  0  0  0  0  0  0  0
    6.9080    9.9319   -0.4591 H   0  0  0  0  0  0  0  0  0  0  0  0
    5.6948    8.7760    0.1395 H   0  0  0  0  0  0  0  0  0  0  0  0
    6.1068    8.8095   -1.5837 H   0  0  0  0  0  0  0  0  0  0  0  0
    6.3363    6.1899   -0.6960 H   0  0  0  0  0  0  0  0  0  0  0  0
    5.8852    3.5674   -0.5039 H   0  0  0  0  0  0  0  0  0  0  0  0
    5.5644    1.1840   -2.9875 H   0  0  0  0  0  0  0  0  0  0  0  0
    4.3360   -0.0330   -3.4024 H   0  0  0  0  0  0  0  0  0  0  0  0
    5.8896   -0.5264   -2.6853 H   0  0  0  0  0  0  0  0  0  0  0  0
    2.4844    0.1058   -2.0017 H   0  0  0  0  0  0  0  0  0  0  0  0
  1  2  1  0
  1 47  1  0
  1 48  1  0
  1 49  1  0
  2  3  2  0
  2 46  1  0
  3  4  1  0
  3 50  1  0
  4  5  1  0
  4  6  2  0
  5 51  1  0
  5 52  1  0
  5 53  1  0
  6  7  1  0
  6 44  1  0
  7  8  1  0
  7 40  2  0
  8  9  2  0
  8 12  1  0
  9 10  1  0
  9 54  1  0
 10 11  2  0
 10 55  1  0
 11 12  1  0
 11 56  1  0
 12 13  1  0
 13 14  1  6
 13 24  1  0
 13 41  1  0
 14 15  2  0
 14 23  1  0
 15 16  1  0
 15 57  1  0
 16 17  2  0
 16 58  1  0
 17 18  1  0
 17 59  1  0
 18 19  1  0
 18 23  2  0
 19 20  2  0
 19 60  1  0
 20 21  1  0
 20 61  1  0
 21 22  2  0
 21 62  1  0
 22 23  1  0
 22 63  1  0
 24 25  1  0
 25 26  2  0
 25 43  1  0
 26 27  1  0
 26 64  1  0
 27 28  1  0
 27 29  2  0
 28 65  1  0
 29 30  1  0
 29 66  1  0
 30 31  1  0
 30 43  2  0
 31 32  2  0
 31 37  1  0
 32 33  1  0
 32 67  1  0
 33 34  2  0
 33 68  1  0
 34 35  1  0
 34 36  1  0
 35 69  1  0
 35 70  1  0
 35 71  1  0
 36 37  2  0
 36 72  1  0
 37 38  1  0
 38 39  2  0
 38 42  1  0
 39 40  1  0
 39 73  1  0
 40 41  1  0
 41 42  2  0
 42 43  1  0
 44 45  1  0
 44 46  2  0
 45 74  1  0
 45 75  1  0
 45 76  1  0
 46 77  1  0
M  CHG  2  13  -1  41   1
M  END

