
     RDKit          3D

 51 52  0  0  0  0  0  0  0  0999 V2000
    0.9027    0.5066   -1.4971 C   0  0  0  0  0  0  0  0  0  0  0  0
    2.3950    0.3136   -1.7498 C   0  0  0  0  0  0  0  0  0  0  0  0
    2.9350   -0.9424   -1.2196 N   0  0  0  0  0  0  0  0  0  0  0  0
    2.2583   -2.1544   -1.6732 C   0  0  0  0  0  0  0  0  0  0  0  0
    2.3302   -2.3690   -3.1935 C   0  0  0  0  0  0  0  0  0  0  0  0
    1.4944   -1.9738   -3.9618 O   0  0  0  0  0  0  0  0  0  0  0  0
    3.4557   -2.9663   -3.6576 O   0  0  0  0  0  0  0  0  0  0  0  0
    4.3827   -0.9995   -1.3115 C   0  0  1  0  0  0  0  0  0  0  0  0
    5.1918   -0.0231   -0.4192 C   0  0  0  0  0  0  0  0  0  0  0  0
    6.1896   -1.1691   -0.1149 C   0  0  2  0  0  0  0  0  0  0  0  0
    7.3445   -1.1091   -0.9957 N   0  0  0  0  0  0  0  0  0  0  0  0
    8.2515   -2.1629   -1.0037 C   0  0  0  0  0  0  0  0  0  0  0  0
    8.0217   -3.2107   -0.4149 O   0  0  0  0  0  0  0  0  0  0  0  0
    9.3941   -1.9049   -1.7310 N   0  0  0  0  0  0  0  0  0  0  0  0
   10.4474   -2.9013   -2.0151 C   0  0  1  0  0  0  0  0  0  0  0  0
   11.0574   -3.4026   -0.6934 C   0  0  0  0  0  0  0  0  0  0  0  0
    9.8743   -4.0811   -2.8254 C   0  0  0  0  0  0  0  0  0  0  0  0
   11.5543   -2.2070   -2.8373 C   0  0  1  0  0  0  0  0  0  0  0  0
   11.2505   -1.4832   -4.1815 C   0  0  0  0  0  0  0  0  0  0  0  0
   12.3238   -0.4288   -3.8069 C   0  0  0  0  0  0  0  0  0  0  0  0
   12.2336   -0.9031   -2.3339 C   0  0  0  0  0  0  0  0  0  0  0  0
    5.1062   -2.1692   -0.5962 C   0  0  0  0  0  0  0  0  0  0  0  0
    0.6116    1.5358   -1.7583 H   0  0  0  0  0  0  0  0  0  0  0  0
    0.6585    0.3390   -0.4357 H   0  0  0  0  0  0  0  0  0  0  0  0
    0.2952   -0.1706   -2.1154 H   0  0  0  0  0  0  0  0  0  0  0  0
    2.9513    1.1266   -1.2549 H   0  0  0  0  0  0  0  0  0  0  0  0
    2.5967    0.4192   -2.8388 H   0  0  0  0  0  0  0  0  0  0  0  0
    1.1944   -2.1037   -1.4074 H   0  0  0  0  0  0  0  0  0  0  0  0
    2.6889   -3.0194   -1.1421 H   0  0  0  0  0  0  0  0  0  0  0  0
    4.0207   -3.2448   -2.9223 H   0  0  0  0  0  0  0  0  0  0  0  0
    4.7423   -0.9180   -2.3599 H   0  0  0  0  0  0  0  0  0  0  0  0
    4.6156    0.2462    0.4780 H   0  0  0  0  0  0  0  0  0  0  0  0
    5.5955    0.8920   -0.8813 H   0  0  0  0  0  0  0  0  0  0  0  0
    6.4940   -1.2900    0.9385 H   0  0  0  0  0  0  0  0  0  0  0  0
    7.7194   -0.1807   -1.1620 H   0  0  0  0  0  0  0  0  0  0  0  0
    9.3161   -1.1540   -2.4072 H   0  0  0  0  0  0  0  0  0  0  0  0
   10.2919   -3.8922   -0.0782 H   0  0  0  0  0  0  0  0  0  0  0  0
   11.4828   -2.5650   -0.1190 H   0  0  0  0  0  0  0  0  0  0  0  0
   11.8634   -4.1244   -0.8997 H   0  0  0  0  0  0  0  0  0  0  0  0
    9.0764   -4.5780   -2.2563 H   0  0  0  0  0  0  0  0  0  0  0  0
   10.6606   -4.8207   -3.0457 H   0  0  0  0  0  0  0  0  0  0  0  0
    9.4558   -3.7336   -3.7838 H   0  0  0  0  0  0  0  0  0  0  0  0
   12.3290   -2.9694   -3.0198 H   0  0  0  0  0  0  0  0  0  0  0  0
   10.2397   -1.0410   -4.2156 H   0  0  0  0  0  0  0  0  0  0  0  0
   11.3903   -2.0568   -5.1104 H   0  0  0  0  0  0  0  0  0  0  0  0
   12.0950    0.6270   -4.0183 H   0  0  0  0  0  0  0  0  0  0  0  0
   13.3010   -0.6660   -4.2556 H   0  0  0  0  0  0  0  0  0  0  0  0
   11.5371   -0.2863   -1.7443 H   0  0  0  0  0  0  0  0  0  0  0  0
   13.1713   -1.0024   -1.7661 H   0  0  0  0  0  0  0  0  0  0  0  0
    4.5151   -2.5323    0.2577 H   0  0  0  0  0  0  0  0  0  0  0  0
    5.4698   -3.0283   -1.1787 H   0  0  0  0  0  0  0  0  0  0  0  0
  1  2  1  0
  1 23  1  0
  1 24  1  0
  1 25  1  0
  2  3  1  0
  2 26  1  0
  2 27  1  0
  3  4  1  0
  3  8  1  0
  4  5  1  0
  4 28  1  0
  4 29  1  0
  5  6  2  0
  5  7  1  0
  7 30  1  0
  8  9  1  0
  8 22  1  0
  8 31  1  6
  9 10  1  0
  9 32  1  0
  9 33  1  0
 10 11  1  0
 10 22  1  0
 10 34  1  1
 11 12  1  0
 11 35  1  0
 12 13  2  0
 12 14  1  0
 15 14  1  1
 14 36  1  0
 15 16  1  0
 15 17  1  0
 15 18  1  0
 16 37  1  0
 16 38  1  0
 16 39  1  0
 17 40  1  0
 17 41  1  0
 17 42  1  0
 18 19  1  0
 18 21  1  0
 18 43  1  6
 19 20  1  0
 19 44  1  0
 19 45  1  0
 20 21  1  0
 20 46  1  0
 20 47  1  0
 21 48  1  0
 21 49  1  0
 22 50  1  0
 22 51  1  0
M  END

