
     RDKit          3D

 50 52  0  0  0  0  0  0  0  0999 V2000
   11.4784    3.4389   -2.7345 C   0  0  0  0  0  0  0  0  0  0  0  0
   10.2724    2.6819   -2.2506 C   0  0  0  0  0  0  0  0  0  0  0  0
    9.6021    1.7691   -3.0815 C   0  0  0  0  0  0  0  0  0  0  0  0
    8.4795    1.0605   -2.6517 C   0  0  0  0  0  0  0  0  0  0  0  0
    8.0130    1.2626   -1.3499 C   0  0  0  0  0  0  0  0  0  0  0  0
    6.5860    0.3429   -0.7605 S   0  0  1  0  0  0  0  0  0  0  0  0
    5.9903    1.1016    0.3395 O   0  0  0  0  0  0  0  0  0  0  0  0
    5.8109   -0.0616   -1.9371 O   0  0  0  0  0  0  0  0  0  0  0  0
    7.1684   -1.0966   -0.0746 N   0  0  0  0  0  0  0  0  0  0  0  0
    7.8960   -0.9794    1.2004 C   0  0  0  0  0  0  0  0  0  0  0  0
    7.9127   -2.3316    1.9177 C   0  0  0  0  0  0  0  0  0  0  0  0
    8.4725   -3.4337    1.0138 C   0  0  0  0  0  0  0  0  0  0  0  0
    7.7176   -3.4990   -0.3324 C   0  0  1  0  0  0  0  0  0  0  0  0
    8.2748   -4.1715   -1.0023 H   0  0  0  0  0  0  0  0  0  0  0  0
    6.3678   -4.2268   -0.1584 C   0  0  0  0  0  0  0  0  0  0  0  0
    6.3700   -5.4457   -0.1012 O   0  0  0  0  0  0  0  0  0  0  0  0
    5.2500   -3.4392   -0.0510 N   0  0  0  0  0  0  0  0  0  0  0  0
    3.9022   -3.8338    0.1268 C   0  0  0  0  0  0  0  0  0  0  0  0
    3.5181   -5.1858    0.1729 C   0  0  0  0  0  0  0  0  0  0  0  0
    2.1755   -5.5273    0.3464 C   0  0  0  0  0  0  0  0  0  0  0  0
    1.2032   -4.5357    0.4766 C   0  0  0  0  0  0  0  0  0  0  0  0
    1.5898   -3.1940    0.4316 C   0  0  0  0  0  0  0  0  0  0  0  0
    2.9260   -2.8123    0.2583 C   0  0  0  0  0  0  0  0  0  0  0  0
    3.2991   -1.3507    0.2089 C   0  0  0  0  0  0  0  0  0  0  0  0
    7.6942   -2.1141   -0.9983 C   0  0  0  0  0  0  0  0  0  0  0  0
    8.6373    2.1723   -0.4922 C   0  0  0  0  0  0  0  0  0  0  0  0
    9.7586    2.8649   -0.9505 C   0  0  0  0  0  0  0  0  0  0  0  0
   10.5304    4.0023    0.1323 Cl  0  0  0  0  0  0  0  0  0  0  0  0
   11.7300    3.1644   -3.7682 H   0  0  0  0  0  0  0  0  0  0  0  0
   12.3536    3.2393   -2.0952 H   0  0  0  0  0  0  0  0  0  0  0  0
   11.3047    4.5264   -2.6928 H   0  0  0  0  0  0  0  0  0  0  0  0
    9.9696    1.6201   -4.1000 H   0  0  0  0  0  0  0  0  0  0  0  0
    7.9549    0.3781   -3.3217 H   0  0  0  0  0  0  0  0  0  0  0  0
    7.3916   -0.2196    1.8110 H   0  0  0  0  0  0  0  0  0  0  0  0
    8.9375   -0.6417    1.0179 H   0  0  0  0  0  0  0  0  0  0  0  0
    6.8887   -2.5843    2.2384 H   0  0  0  0  0  0  0  0  0  0  0  0
    8.5192   -2.2375    2.8332 H   0  0  0  0  0  0  0  0  0  0  0  0
    8.4239   -4.4166    1.5062 H   0  0  0  0  0  0  0  0  0  0  0  0
    9.5389   -3.2310    0.8073 H   0  0  0  0  0  0  0  0  0  0  0  0
    5.4226   -2.4377   -0.0594 H   0  0  0  0  0  0  0  0  0  0  0  0
    4.2826   -5.9519    0.0752 H   0  0  0  0  0  0  0  0  0  0  0  0
    1.8952   -6.5835    0.3794 H   0  0  0  0  0  0  0  0  0  0  0  0
    0.1516   -4.7998    0.6126 H   0  0  0  0  0  0  0  0  0  0  0  0
    0.8342   -2.4097    0.5330 H   0  0  0  0  0  0  0  0  0  0  0  0
    2.4110   -0.7184    0.3479 H   0  0  0  0  0  0  0  0  0  0  0  0
    3.7570   -1.0647   -0.7527 H   0  0  0  0  0  0  0  0  0  0  0  0
    4.0194   -1.0691    0.9962 H   0  0  0  0  0  0  0  0  0  0  0  0
    7.0650   -2.1206   -1.8980 H   0  0  0  0  0  0  0  0  0  0  0  0
    8.7290   -1.8600   -1.3067 H   0  0  0  0  0  0  0  0  0  0  0  0
    8.2427    2.3565    0.5071 H   0  0  0  0  0  0  0  0  0  0  0  0
  1  2  1  0
  1 29  1  0
  1 30  1  0
  1 31  1  0
  2  3  2  0
  2 27  1  0
  3  4  1  0
  3 32  1  0
  4  5  2  0
  4 33  1  0
  6  5  1  6
  5 26  1  0
  6  7  2  0
  6  8  2  0
  6  9  1  0
  9 10  1  0
  9 25  1  0
 10 11  1  0
 10 34  1  0
 10 35  1  0
 11 12  1  0
 11 36  1  0
 11 37  1  0
 12 13  1  0
 12 38  1  0
 12 39  1  0
 13 14  1  6
 13 15  1  0
 13 25  1  0
 15 16  2  0
 15 17  1  0
 17 18  1  0
 17 40  1  0
 18 19  2  0
 18 23  1  0
 19 20  1  0
 19 41  1  0
 20 21  2  0
 20 42  1  0
 21 22  1  0
 21 43  1  0
 22 23  2  0
 22 44  1  0
 23 24  1  0
 24 45  1  0
 24 46  1  0
 24 47  1  0
 25 48  1  0
 25 49  1  0
 26 27  2  0
 26 50  1  0
 27 28  1  0
M  END

