
     RDKit          3D

 33 34  0  0  0  0  0  0  0  0999 V2000
    1.3739   -0.4968    0.8138 C   0  0  0  0  0  0  0  0  0  0  0  0
    2.6860   -0.2770    0.1079 C   0  0  0  0  0  0  0  0  0  0  0  0
    3.3477    0.9569    0.0988 C   0  0  0  0  0  0  0  0  0  0  0  0
    4.5732    1.1521   -0.5619 C   0  0  0  0  0  0  0  0  0  0  0  0
    5.2820    2.5090   -0.5343 C   0  0  1  0  0  0  0  0  0  0  0  0
    6.4831    2.5034   -1.2782 O   0  0  0  0  0  0  0  0  0  0  0  0
    4.3582    3.6717   -0.9764 C   0  0  0  0  0  0  0  0  0  0  0  0
    4.9901    5.0376   -0.8316 C   0  0  0  0  0  0  0  0  0  0  0  0
    4.9127    5.7314    0.3892 C   0  0  0  0  0  0  0  0  0  0  0  0
    5.5307    6.9744    0.5319 C   0  0  0  0  0  0  0  0  0  0  0  0
    6.2319    7.5478   -0.5321 C   0  0  0  0  0  0  0  0  0  0  0  0
    6.3124    6.8642   -1.7527 C   0  0  0  0  0  0  0  0  0  0  0  0
    6.9728    7.3636   -2.8306 O   0  0  0  0  0  0  0  0  0  0  0  0
    5.6915    5.6153   -1.8948 C   0  0  0  0  0  0  0  0  0  0  0  0
    5.1546    0.0596   -1.2172 C   0  0  0  0  0  0  0  0  0  0  0  0
    4.5178   -1.1853   -1.2334 C   0  0  0  0  0  0  0  0  0  0  0  0
    3.3023   -1.3315   -0.5790 C   0  0  0  0  0  0  0  0  0  0  0  0
    2.6886   -2.5302   -0.5931 F   0  0  0  0  0  0  0  0  0  0  0  0
    1.0263    0.4257    1.3004 H   0  0  0  0  0  0  0  0  0  0  0  0
    1.4603   -1.2809    1.5840 H   0  0  0  0  0  0  0  0  0  0  0  0
    0.5927   -0.8313    0.1116 H   0  0  0  0  0  0  0  0  0  0  0  0
    2.8828    1.7862    0.6394 H   0  0  0  0  0  0  0  0  0  0  0  0
    5.6005    2.7071    0.5044 H   0  0  0  0  0  0  0  0  0  0  0  0
    6.2563    2.4568   -2.2178 H   0  0  0  0  0  0  0  0  0  0  0  0
    3.4290    3.6348   -0.3882 H   0  0  0  0  0  0  0  0  0  0  0  0
    4.0660    3.4927   -2.0264 H   0  0  0  0  0  0  0  0  0  0  0  0
    4.3627    5.2969    1.2284 H   0  0  0  0  0  0  0  0  0  0  0  0
    5.4647    7.5112    1.4820 H   0  0  0  0  0  0  0  0  0  0  0  0
    6.7125    8.5248   -0.4187 H   0  0  0  0  0  0  0  0  0  0  0  0
    7.3581    8.2198   -2.6030 H   0  0  0  0  0  0  0  0  0  0  0  0
    5.7693    5.1106   -2.8602 H   0  0  0  0  0  0  0  0  0  0  0  0
    6.1245    0.1802   -1.7013 H   0  0  0  0  0  0  0  0  0  0  0  0
    4.9569   -2.0469   -1.7407 H   0  0  0  0  0  0  0  0  0  0  0  0
  1  2  1  0
  1 19  1  0
  1 20  1  0
  1 21  1  0
  2  3  2  0
  2 17  1  0
  3  4  1  0
  3 22  1  0
  4  5  1  0
  4 15  2  0
  5  6  1  0
  5  7  1  0
  5 23  1  1
  6 24  1  0
  7  8  1  0
  7 25  1  0
  7 26  1  0
  8  9  2  0
  8 14  1  0
  9 10  1  0
  9 27  1  0
 10 11  2  0
 10 28  1  0
 11 12  1  0
 11 29  1  0
 12 13  1  0
 12 14  2  0
 13 30  1  0
 14 31  1  0
 15 16  1  0
 15 32  1  0
 16 17  2  0
 16 33  1  0
 17 18  1  0
M  END

