
     RDKit          3D

 31 33  0  0  0  0  0  0  0  0999 V2000
    1.2377    0.6966   -0.3987 O   0  0  0  0  0  0  0  0  0  0  0  0
    2.3855    0.3434   -0.2722 C   0  0  0  0  0  0  0  0  0  0  0  0
    2.9292   -1.0857   -0.0971 C   0  0  0  0  0  0  0  0  0  0  0  0
    4.4205   -0.8932    0.0070 C   0  0  0  0  0  0  0  0  0  0  0  0
    5.4647   -1.7909    0.1750 C   0  0  0  0  0  0  0  0  0  0  0  0
    6.7936   -1.3251    0.2496 C   0  0  0  0  0  0  0  0  0  0  0  0
    7.9381   -2.3289    0.3249 C   0  0  1  0  0  0  0  0  0  0  0  0
    8.3621   -2.7002   -0.9817 O   0  0  0  0  0  0  0  0  0  0  0  0
    9.1052   -1.8901    1.2115 C   0  0  0  0  0  0  0  0  0  0  0  0
    8.8802   -1.4147    2.5146 C   0  0  0  0  0  0  0  0  0  0  0  0
    9.9427   -1.0596    3.3465 C   0  0  0  0  0  0  0  0  0  0  0  0
   11.2457   -1.1824    2.8653 C   0  0  0  0  0  0  0  0  0  0  0  0
   12.2714   -0.8378    3.6593 F   0  0  0  0  0  0  0  0  0  0  0  0
   11.5034   -1.6556    1.5828 C   0  0  0  0  0  0  0  0  0  0  0  0
   10.4271   -2.0134    0.7643 C   0  0  0  0  0  0  0  0  0  0  0  0
    7.0362    0.0530    0.1440 C   0  0  0  0  0  0  0  0  0  0  0  0
    5.9959    0.9759   -0.0320 C   0  0  0  0  0  0  0  0  0  0  0  0
    4.6934    0.4870   -0.0973 C   0  0  0  0  0  0  0  0  0  0  0  0
    3.4937    1.1818   -0.2578 N   0  0  0  0  0  0  0  0  0  0  0  0
    2.6170   -1.6999   -0.9582 H   0  0  0  0  0  0  0  0  0  0  0  0
    2.4733   -1.5389    0.7989 H   0  0  0  0  0  0  0  0  0  0  0  0
    5.2647   -2.8639    0.2471 H   0  0  0  0  0  0  0  0  0  0  0  0
    7.5356   -3.2626    0.7546 H   0  0  0  0  0  0  0  0  0  0  0  0
    8.4742   -1.8875   -1.4948 H   0  0  0  0  0  0  0  0  0  0  0  0
    7.8574   -1.3149    2.8873 H   0  0  0  0  0  0  0  0  0  0  0  0
    9.7784   -0.6881    4.3600 H   0  0  0  0  0  0  0  0  0  0  0  0
   12.5367   -1.7461    1.2415 H   0  0  0  0  0  0  0  0  0  0  0  0
   10.6092   -2.4075   -0.2365 H   0  0  0  0  0  0  0  0  0  0  0  0
    8.0623    0.4237    0.2123 H   0  0  0  0  0  0  0  0  0  0  0  0
    6.2062    2.0452   -0.1080 H   0  0  0  0  0  0  0  0  0  0  0  0
    3.4044    2.1863   -0.3575 H   0  0  0  0  0  0  0  0  0  0  0  0
  1  2  2  0
  2  3  1  0
  2 19  1  0
  3  4  1  0
  3 20  1  0
  3 21  1  0
  4  5  2  0
  4 18  1  0
  5  6  1  0
  5 22  1  0
  6  7  1  0
  6 16  2  0
  7  8  1  0
  7  9  1  0
  7 23  1  1
  8 24  1  0
  9 10  2  0
  9 15  1  0
 10 11  1  0
 10 25  1  0
 11 12  2  0
 11 26  1  0
 12 13  1  0
 12 14  1  0
 14 15  2  0
 14 27  1  0
 15 28  1  0
 16 17  1  0
 16 29  1  0
 17 18  2  0
 17 30  1  0
 18 19  1  0
 19 31  1  0
M  END

