
     RDKit          3D

 36 37  0  0  0  0  0  0  0  0999 V2000
    1.4030   -0.0908   -0.9175 C   0  0  0  0  0  0  0  0  0  0  0  0
    2.7898    0.0386   -0.2937 C   0  0  1  0  0  0  0  0  0  0  0  0
    2.8736    0.9577    0.9312 C   0  0  0  0  0  0  0  0  0  0  0  0
    4.2026    0.5632    1.5943 C   0  0  2  0  0  0  0  0  0  0  0  0
    5.3919    1.3755    1.0568 C   0  0  0  0  0  0  0  0  0  0  0  0
    4.3061   -0.8812    1.2991 N   0  0  0  0  0  0  0  0  0  0  0  0
    5.1249   -1.7262    2.0208 C   0  0  0  0  0  0  0  0  0  0  0  0
    5.9131   -1.1885    3.0790 C   0  0  0  0  0  0  0  0  0  0  0  0
    6.7905   -1.9666    3.8211 C   0  0  0  0  0  0  0  0  0  0  0  0
    6.9493   -3.3278    3.5612 C   0  0  0  0  0  0  0  0  0  0  0  0
    6.1747   -3.8752    2.5423 C   0  0  0  0  0  0  0  0  0  0  0  0
    6.3714   -5.5958    2.2227 Cl  0  0  0  0  0  0  0  0  0  0  0  0
    5.2540   -3.1358    1.7744 C   0  0  0  0  0  0  0  0  0  0  0  0
    4.4663   -3.8870    0.7478 C   0  0  0  0  0  0  0  0  0  0  0  0
    5.0468   -4.1038   -0.4839 N   0  0  0  0  0  0  0  0  0  0  0  0
    3.2755   -4.2655    1.0601 N   0  0  0  0  0  0  0  0  0  0  0  0
    2.6912   -4.9553   -0.0275 O   0  0  0  0  0  0  0  0  0  0  0  0
    3.3488   -1.2805    0.2561 C   0  0  0  0  0  0  0  0  0  0  0  0
    1.0459    0.8787   -1.3008 H   0  0  0  0  0  0  0  0  0  0  0  0
    0.6679   -0.4529   -0.1791 H   0  0  0  0  0  0  0  0  0  0  0  0
    1.4070   -0.8008   -1.7605 H   0  0  0  0  0  0  0  0  0  0  0  0
    3.4844    0.4201   -1.0633 H   0  0  0  0  0  0  0  0  0  0  0  0
    2.0332    0.7413    1.6129 H   0  0  0  0  0  0  0  0  0  0  0  0
    2.8328    2.0289    0.6801 H   0  0  0  0  0  0  0  0  0  0  0  0
    4.1328    0.7135    2.6846 H   0  0  0  0  0  0  0  0  0  0  0  0
    5.4277    1.3436   -0.0434 H   0  0  0  0  0  0  0  0  0  0  0  0
    6.3518    0.9904    1.4301 H   0  0  0  0  0  0  0  0  0  0  0  0
    5.3054    2.4299    1.3663 H   0  0  0  0  0  0  0  0  0  0  0  0
    5.8371   -0.1327    3.3254 H   0  0  0  0  0  0  0  0  0  0  0  0
    7.3687   -1.4975    4.6217 H   0  0  0  0  0  0  0  0  0  0  0  0
    7.6386   -3.9527    4.1282 H   0  0  0  0  0  0  0  0  0  0  0  0
    6.0598   -4.1124   -0.5004 H   0  0  0  0  0  0  0  0  0  0  0  0
    4.5989   -4.8337   -1.0317 H   0  0  0  0  0  0  0  0  0  0  0  0
    1.8572   -5.2642    0.3457 H   0  0  0  0  0  0  0  0  0  0  0  0
    2.5407   -1.8967    0.6843 H   0  0  0  0  0  0  0  0  0  0  0  0
    3.8326   -1.8797   -0.5284 H   0  0  0  0  0  0  0  0  0  0  0  0
  1  2  1  0
  1 19  1  0
  1 20  1  0
  1 21  1  0
  2  3  1  0
  2 18  1  0
  2 22  1  6
  3  4  1  0
  3 23  1  0
  3 24  1  0
  4  5  1  0
  4  6  1  0
  4 25  1  1
  5 26  1  0
  5 27  1  0
  5 28  1  0
  6  7  1  0
  6 18  1  0
  7  8  2  0
  7 13  1  0
  8  9  1  0
  8 29  1  0
  9 10  2  0
  9 30  1  0
 10 11  1  0
 10 31  1  0
 11 12  1  0
 11 13  2  0
 13 14  1  0
 14 15  1  0
 14 16  2  0
 15 32  1  0
 15 33  1  0
 16 17  1  0
 17 34  1  0
 18 35  1  0
 18 36  1  0
M  END

