
     RDKit          3D

 36 35  0  0  0  0  0  0  0  0999 V2000
    1.0885    0.0872    0.0904 C   0  0  0  0  0  0  0  0  0  0  0  0
    2.5052   -0.0366   -0.0231 O   0  0  0  0  0  0  0  0  0  0  0  0
    2.9577   -0.8365   -1.0107 C   0  0  0  0  0  0  0  0  0  0  0  0
    2.2268   -1.4255   -1.7690 O   0  0  0  0  0  0  0  0  0  0  0  0
    4.4714   -0.8826   -1.0238 C   0  0  0  0  0  0  0  0  0  0  0  0
    5.0481   -1.7739   -2.1207 C   0  0  0  0  0  0  0  0  0  0  0  0
    6.5784   -1.8117   -2.1236 C   0  0  0  0  0  0  0  0  0  0  0  0
    7.1676   -2.7039   -3.2197 C   0  0  0  0  0  0  0  0  0  0  0  0
    8.6984   -2.7465   -3.2302 C   0  0  0  0  0  0  0  0  0  0  0  0
    9.2821   -3.6486   -4.3206 C   0  0  0  0  0  0  0  0  0  0  0  0
   10.8116   -3.6918   -4.3370 C   0  0  0  0  0  0  0  0  0  0  0  0
   11.3948   -4.6663   -5.3693 C   0  0  1  0  0  0  0  0  0  0  0  0
   12.9225   -4.6355   -5.4093 C   0  0  0  0  0  0  0  0  0  0  0  0
   10.9163   -5.9909   -5.1681 O   0  0  0  0  0  0  0  0  0  0  0  0
    0.9056    0.7660    0.9328 H   0  0  0  0  0  0  0  0  0  0  0  0
    0.6217   -0.8912    0.2820 H   0  0  0  0  0  0  0  0  0  0  0  0
    0.6542    0.5010   -0.8327 H   0  0  0  0  0  0  0  0  0  0  0  0
    4.8013   -1.2104   -0.0219 H   0  0  0  0  0  0  0  0  0  0  0  0
    4.8336    0.1568   -1.1158 H   0  0  0  0  0  0  0  0  0  0  0  0
    4.6783   -1.4256   -3.1001 H   0  0  0  0  0  0  0  0  0  0  0  0
    4.6467   -2.7949   -2.0042 H   0  0  0  0  0  0  0  0  0  0  0  0
    6.9395   -2.1588   -1.1372 H   0  0  0  0  0  0  0  0  0  0  0  0
    6.9715   -0.7841   -2.2389 H   0  0  0  0  0  0  0  0  0  0  0  0
    6.8051   -2.3573   -4.2051 H   0  0  0  0  0  0  0  0  0  0  0  0
    6.7758   -3.7313   -3.1039 H   0  0  0  0  0  0  0  0  0  0  0  0
    9.0598   -3.0876   -2.2417 H   0  0  0  0  0  0  0  0  0  0  0  0
    9.0912   -1.7193   -3.3514 H   0  0  0  0  0  0  0  0  0  0  0  0
    8.9192   -3.3110   -5.3091 H   0  0  0  0  0  0  0  0  0  0  0  0
    8.9033   -4.6776   -4.2003 H   0  0  0  0  0  0  0  0  0  0  0  0
   11.1870   -3.9795   -3.3346 H   0  0  0  0  0  0  0  0  0  0  0  0
   11.2166   -2.6817   -4.5288 H   0  0  0  0  0  0  0  0  0  0  0  0
   11.0103   -4.3859   -6.3662 H   0  0  0  0  0  0  0  0  0  0  0  0
   13.3446   -4.9003   -4.4235 H   0  0  0  0  0  0  0  0  0  0  0  0
   13.3016   -3.6355   -5.6750 H   0  0  0  0  0  0  0  0  0  0  0  0
   13.2995   -5.3597   -6.1471 H   0  0  0  0  0  0  0  0  0  0  0  0
   11.2401   -6.2925   -4.3075 H   0  0  0  0  0  0  0  0  0  0  0  0
  1  2  1  0
  1 15  1  0
  1 16  1  0
  1 17  1  0
  2  3  1  0
  3  4  2  0
  3  5  1  0
  5  6  1  0
  5 18  1  0
  5 19  1  0
  6  7  1  0
  6 20  1  0
  6 21  1  0
  7  8  1  0
  7 22  1  0
  7 23  1  0
  8  9  1  0
  8 24  1  0
  8 25  1  0
  9 10  1  0
  9 26  1  0
  9 27  1  0
 10 11  1  0
 10 28  1  0
 10 29  1  0
 11 12  1  0
 11 30  1  0
 11 31  1  0
 12 13  1  0
 12 14  1  0
 12 32  1  6
 13 33  1  0
 13 34  1  0
 13 35  1  0
 14 36  1  0
M  END

