
     RDKit          3D

 31 31  0  0  0  0  0  0  0  0999 V2000
    0.8105    0.2186   -0.0336 C   0  0  0  0  0  0  0  0  0  0  0  0
    2.2404   -0.0683   -0.0488 N   0  0  0  0  0  0  0  0  0  0  0  0
    2.6831   -1.1355   -0.9521 C   0  0  1  0  0  0  0  0  0  0  0  0
    2.3134   -0.8102   -2.4017 C   0  0  0  0  0  0  0  0  0  0  0  0
    2.7647   -1.8534   -3.2280 O   0  0  0  0  0  0  0  0  0  0  0  0
    2.4816   -1.6679   -4.5882 C   0  0  0  0  0  0  0  0  0  0  0  0
    4.2103   -1.3367   -0.8320 C   0  0  0  0  0  0  0  0  0  0  0  0
    4.7606   -1.5429    0.5613 C   0  0  0  0  0  0  0  0  0  0  0  0
    4.9952   -2.8314    1.0578 C   0  0  0  0  0  0  0  0  0  0  0  0
    5.5368   -3.1234    2.2428 N   0  0  0  0  0  0  0  0  0  0  0  0
    5.8969   -2.0852    3.0037 C   0  0  0  0  0  0  0  0  0  0  0  0
    5.7231   -0.7545    2.6343 C   0  0  0  0  0  0  0  0  0  0  0  0
    5.1304   -0.4491    1.3917 C   0  0  0  0  0  0  0  0  0  0  0  0
    4.9551    0.8543    0.9746 N   0  0  0  0  0  0  0  0  0  0  0  0
    0.5806    0.8618    0.8298 H   0  0  0  0  0  0  0  0  0  0  0  0
    0.1708   -0.6873    0.0369 H   0  0  0  0  0  0  0  0  0  0  0  0
    0.5041    0.7724   -0.9346 H   0  0  0  0  0  0  0  0  0  0  0  0
    2.5128   -0.3477    0.8934 H   0  0  0  0  0  0  0  0  0  0  0  0
    2.1847   -2.0997   -0.7046 H   0  0  0  0  0  0  0  0  0  0  0  0
    2.7753    0.1594   -2.6885 H   0  0  0  0  0  0  0  0  0  0  0  0
    1.2161   -0.6920   -2.5082 H   0  0  0  0  0  0  0  0  0  0  0  0
    2.8714   -2.5387   -5.1354 H   0  0  0  0  0  0  0  0  0  0  0  0
    2.9617   -0.7532   -4.9921 H   0  0  0  0  0  0  0  0  0  0  0  0
    1.3914   -1.5908   -4.7789 H   0  0  0  0  0  0  0  0  0  0  0  0
    4.7060   -0.4606   -1.2865 H   0  0  0  0  0  0  0  0  0  0  0  0
    4.4684   -2.2018   -1.4583 H   0  0  0  0  0  0  0  0  0  0  0  0
    4.7281   -3.6880    0.4239 H   0  0  0  0  0  0  0  0  0  0  0  0
    6.3498   -2.3214    3.9748 H   0  0  0  0  0  0  0  0  0  0  0  0
    6.0368    0.0495    3.3064 H   0  0  0  0  0  0  0  0  0  0  0  0
    5.1029    1.5703    1.6767 H   0  0  0  0  0  0  0  0  0  0  0  0
    4.1466    1.0239    0.3761 H   0  0  0  0  0  0  0  0  0  0  0  0
  1  2  1  0
  1 15  1  0
  1 16  1  0
  1 17  1  0
  2  3  1  0
  2 18  1  0
  3  4  1  0
  3  7  1  0
  3 19  1  1
  4  5  1  0
  4 20  1  0
  4 21  1  0
  5  6  1  0
  6 22  1  0
  6 23  1  0
  6 24  1  0
  7  8  1  0
  7 25  1  0
  7 26  1  0
  8  9  2  0
  8 13  1  0
  9 10  1  0
  9 27  1  0
 10 11  2  0
 11 12  1  0
 11 28  1  0
 12 13  2  0
 12 29  1  0
 13 14  1  0
 14 30  1  0
 14 31  1  0
M  END

