
     RDKit          3D

 42 44  0  0  0  0  0  0  0  0999 V2000
    1.8271    0.9138    1.0386 C   0  0  0  0  0  0  0  0  0  0  0  0
    2.9347    0.3646    0.1693 C   0  0  0  0  0  0  0  0  0  0  0  0
    3.4790   -0.9383    0.4243 C   0  0  0  0  0  0  0  0  0  0  0  0
    2.5394   -1.9850    0.8494 C   0  0  0  0  0  0  0  0  0  0  0  0
    1.3220   -1.8197    0.9044 O   0  0  0  0  0  0  0  0  0  0  0  0
    3.1001   -3.3731    1.1627 C   0  0  0  0  0  0  0  0  0  0  0  0
    4.5250   -3.3896    1.7178 C   0  0  2  0  0  0  0  0  0  0  0  0
    4.6618   -2.9147    3.1644 C   0  0  0  0  0  0  0  0  0  0  0  0
    3.6085   -2.3368    3.8902 C   0  0  0  0  0  0  0  0  0  0  0  0
    3.7874   -1.9262    5.2170 C   0  0  0  0  0  0  0  0  0  0  0  0
    5.0216   -2.0887    5.8477 C   0  0  0  0  0  0  0  0  0  0  0  0
    6.0792   -2.6712    5.1406 C   0  0  0  0  0  0  0  0  0  0  0  0
    5.8968   -3.0780    3.8185 C   0  0  0  0  0  0  0  0  0  0  0  0
    5.4116   -2.5890    0.7450 C   0  0  0  0  0  0  0  0  0  0  0  0
    4.9200   -1.1752    0.4394 C   0  0  0  0  0  0  0  0  0  0  0  0
    5.7658   -0.2977    0.2458 O   0  0  0  0  0  0  0  0  0  0  0  0
    3.3674    1.1613   -0.8078 N   0  0  0  0  0  0  0  0  0  0  0  0
    4.2761    0.7541   -1.9025 C   0  0  0  0  0  0  0  0  0  0  0  0
    4.4349    2.0078   -2.7674 C   0  0  0  0  0  0  0  0  0  0  0  0
    3.1485    2.7986   -2.5119 C   0  0  0  0  0  0  0  0  0  0  0  0
    2.8769    2.5391   -1.0299 C   0  0  0  0  0  0  0  0  0  0  0  0
    1.6315    0.2546    1.8859 H   0  0  0  0  0  0  0  0  0  0  0  0
    0.8825    1.0190    0.4804 H   0  0  0  0  0  0  0  0  0  0  0  0
    2.1171    1.9091    1.4134 H   0  0  0  0  0  0  0  0  0  0  0  0
    3.0886   -3.9344    0.2104 H   0  0  0  0  0  0  0  0  0  0  0  0
    2.3742   -3.8737    1.8194 H   0  0  0  0  0  0  0  0  0  0  0  0
    4.8841   -4.4335    1.7014 H   0  0  0  0  0  0  0  0  0  0  0  0
    2.6281   -2.2040    3.4297 H   0  0  0  0  0  0  0  0  0  0  0  0
    2.9498   -1.4787    5.7589 H   0  0  0  0  0  0  0  0  0  0  0  0
    5.1597   -1.7690    6.8838 H   0  0  0  0  0  0  0  0  0  0  0  0
    7.0500   -2.8125    5.6232 H   0  0  0  0  0  0  0  0  0  0  0  0
    6.7316   -3.5383    3.2815 H   0  0  0  0  0  0  0  0  0  0  0  0
    5.4567   -3.1293   -0.2196 H   0  0  0  0  0  0  0  0  0  0  0  0
    6.4462   -2.4903    1.1016 H   0  0  0  0  0  0  0  0  0  0  0  0
    3.8022   -0.0837   -2.4436 H   0  0  0  0  0  0  0  0  0  0  0  0
    5.2258    0.4031   -1.4796 H   0  0  0  0  0  0  0  0  0  0  0  0
    4.5929    1.7629   -3.8277 H   0  0  0  0  0  0  0  0  0  0  0  0
    5.3093    2.5879   -2.4288 H   0  0  0  0  0  0  0  0  0  0  0  0
    2.3205    2.3954   -3.1186 H   0  0  0  0  0  0  0  0  0  0  0  0
    3.2359    3.8719   -2.7357 H   0  0  0  0  0  0  0  0  0  0  0  0
    1.8148    2.6268   -0.7726 H   0  0  0  0  0  0  0  0  0  0  0  0
    3.4407    3.2394   -0.3871 H   0  0  0  0  0  0  0  0  0  0  0  0
  1  2  1  0
  1 22  1  0
  1 23  1  0
  1 24  1  0
  2  3  2  0
  2 17  1  0
  3  4  1  0
  3 15  1  0
  4  5  2  0
  4  6  1  0
  6  7  1  0
  6 25  1  0
  6 26  1  0
  7  8  1  0
  7 14  1  0
  7 27  1  1
  8  9  2  0
  8 13  1  0
  9 10  1  0
  9 28  1  0
 10 11  2  0
 10 29  1  0
 11 12  1  0
 11 30  1  0
 12 13  2  0
 12 31  1  0
 13 32  1  0
 14 15  1  0
 14 33  1  0
 14 34  1  0
 15 16  2  0
 17 18  1  0
 17 21  1  0
 18 19  1  0
 18 35  1  0
 18 36  1  0
 19 20  1  0
 19 37  1  0
 19 38  1  0
 20 21  1  0
 20 39  1  0
 20 40  1  0
 21 41  1  0
 21 42  1  0
M  END

