
     RDKit          3D

 32 33  0  0  0  0  0  0  0  0999 V2000
    0.8634   -0.2405    0.6333 C   0  0  0  0  0  0  0  0  0  0  0  0
    2.3040   -0.4068    0.1517 C   0  0  0  0  0  0  0  0  0  0  0  0
    3.1684   -1.2343    1.1200 C   0  0  0  0  0  0  0  0  0  0  0  0
    4.6075   -1.3207    0.7049 C   0  0  0  0  0  0  0  0  0  0  0  0
    5.4372   -0.3031    0.6641 N   0  0  0  0  0  0  0  0  0  0  0  0
    6.6484   -0.7962    0.2522 C   0  0  0  0  0  0  0  0  0  0  0  0
    6.5709   -2.1503    0.0441 C   0  0  0  0  0  0  0  0  0  0  0  0
    5.2527   -2.4940    0.3320 N   0  0  0  0  0  0  0  0  0  0  0  0
    4.7057   -3.8010    0.2210 C   0  0  0  0  0  0  0  0  0  0  0  0
    3.7244   -4.0533   -0.7506 C   0  0  0  0  0  0  0  0  0  0  0  0
    3.1912   -5.3304   -0.9017 C   0  0  0  0  0  0  0  0  0  0  0  0
    3.6616   -6.3575   -0.0793 C   0  0  0  0  0  0  0  0  0  0  0  0
    3.1064   -7.7212   -0.2480 N   0  0  0  0  0  0  0  0  0  0  0  0
    2.2457   -7.8711   -1.0990 O   0  0  0  0  0  0  0  0  0  0  0  0
    3.5465   -8.5981    0.4736 O   0  0  0  0  0  0  0  0  0  0  0  0
    4.6303   -6.1358    0.8900 C   0  0  0  0  0  0  0  0  0  0  0  0
    5.1546   -4.8460    1.0591 C   0  0  0  0  0  0  0  0  0  0  0  0
    6.1376   -4.6320    2.1678 C   0  0  0  0  0  0  0  0  0  0  0  0
    6.5625   -5.5361    2.8478 O   0  0  0  0  0  0  0  0  0  0  0  0
    0.2722    0.3617   -0.0742 H   0  0  0  0  0  0  0  0  0  0  0  0
    0.8257    0.2648    1.6127 H   0  0  0  0  0  0  0  0  0  0  0  0
    0.3576   -1.2144    0.7454 H   0  0  0  0  0  0  0  0  0  0  0  0
    2.7820    0.5779    0.0232 H   0  0  0  0  0  0  0  0  0  0  0  0
    2.3142   -0.8817   -0.8459 H   0  0  0  0  0  0  0  0  0  0  0  0
    2.7426   -2.2430    1.2416 H   0  0  0  0  0  0  0  0  0  0  0  0
    3.1365   -0.7590    2.1152 H   0  0  0  0  0  0  0  0  0  0  0  0
    7.5183   -0.1530    0.1236 H   0  0  0  0  0  0  0  0  0  0  0  0
    7.2912   -2.8877   -0.3005 H   0  0  0  0  0  0  0  0  0  0  0  0
    3.3980   -3.2389   -1.3994 H   0  0  0  0  0  0  0  0  0  0  0  0
    2.4314   -5.5510   -1.6512 H   0  0  0  0  0  0  0  0  0  0  0  0
    4.9783   -6.9451    1.5325 H   0  0  0  0  0  0  0  0  0  0  0  0
    6.4481   -3.5774    2.3470 H   0  0  0  0  0  0  0  0  0  0  0  0
  1  2  1  0
  1 20  1  0
  1 21  1  0
  1 22  1  0
  2  3  1  0
  2 23  1  0
  2 24  1  0
  3  4  1  0
  3 25  1  0
  3 26  1  0
  4  5  2  0
  4  8  1  0
  5  6  1  0
  6  7  2  0
  6 27  1  0
  7  8  1  0
  7 28  1  0
  8  9  1  0
  9 10  2  0
  9 17  1  0
 10 11  1  0
 10 29  1  0
 11 12  2  0
 11 30  1  0
 12 13  1  0
 12 16  1  0
 13 14  2  0
 13 15  1  0
 16 17  2  0
 16 31  1  0
 17 18  1  0
 18 19  2  0
 18 32  1  0
M  CHG  2  13   1  15  -1
M  END

