
     RDKit          3D

 41 43  0  0  0  0  0  0  0  0999 V2000
    2.8140    1.2508   -0.1492 O   0  0  0  0  0  0  0  0  0  0  0  0
    2.6252   -0.1975    0.0035 S   0  0  1  0  0  0  0  0  0  0  0  0
    1.3214   -0.8284   -0.2253 O   0  0  0  0  0  0  0  0  0  0  0  0
    3.6833   -1.0347   -1.0220 N   0  0  0  0  0  0  0  0  0  0  0  0
    4.8368   -0.3317   -1.5943 C   0  0  1  0  0  0  0  0  0  0  0  0
    6.0053   -0.1210   -0.6227 C   0  0  0  0  0  0  0  0  0  0  0  0
    7.1782    0.2184   -1.5584 C   0  0  0  0  0  0  0  0  0  0  0  0
    6.9122   -0.5876   -2.8633 C   0  0  0  0  0  0  0  0  0  0  0  0
    5.4787   -1.1566   -2.7227 C   0  0  0  0  0  0  0  0  0  0  0  0
    3.1766   -0.6347    1.6492 C   0  0  0  0  0  0  0  0  0  0  0  0
    3.6489    0.3625    2.5071 C   0  0  0  0  0  0  0  0  0  0  0  0
    4.0243    0.0278    3.8063 C   0  0  0  0  0  0  0  0  0  0  0  0
    3.9243   -1.3007    4.2448 C   0  0  0  0  0  0  0  0  0  0  0  0
    4.3542   -1.5514    5.5149 O   0  0  0  0  0  0  0  0  0  0  0  0
    3.9786   -2.6889    6.2021 C   0  0  0  0  0  0  0  0  0  0  0  0
    4.9890   -3.5188    6.6950 C   0  0  0  0  0  0  0  0  0  0  0  0
    4.6473   -4.6353    7.4635 C   0  0  0  0  0  0  0  0  0  0  0  0
    3.3060   -4.9241    7.7322 C   0  0  0  0  0  0  0  0  0  0  0  0
    2.3029   -4.0850    7.2346 C   0  0  0  0  0  0  0  0  0  0  0  0
    2.6324   -2.9617    6.4721 C   0  0  0  0  0  0  0  0  0  0  0  0
    3.4452   -2.2990    3.3794 C   0  0  0  0  0  0  0  0  0  0  0  0
    3.0647   -1.9595    2.0829 C   0  0  0  0  0  0  0  0  0  0  0  0
    3.0872   -1.4838   -1.7186 H   0  0  0  0  0  0  0  0  0  0  0  0
    4.5282    0.6542   -1.9895 H   0  0  0  0  0  0  0  0  0  0  0  0
    6.1878   -1.0659   -0.0830 H   0  0  0  0  0  0  0  0  0  0  0  0
    5.8078    0.6608    0.1255 H   0  0  0  0  0  0  0  0  0  0  0  0
    8.1538   -0.0138   -1.1053 H   0  0  0  0  0  0  0  0  0  0  0  0
    7.1811    1.2988   -1.7755 H   0  0  0  0  0  0  0  0  0  0  0  0
    7.6430   -1.3992   -3.0002 H   0  0  0  0  0  0  0  0  0  0  0  0
    6.9984    0.0609   -3.7487 H   0  0  0  0  0  0  0  0  0  0  0  0
    5.5089   -2.2118   -2.4031 H   0  0  0  0  0  0  0  0  0  0  0  0
    4.9010   -1.1126   -3.6599 H   0  0  0  0  0  0  0  0  0  0  0  0
    3.7081    1.3922    2.1510 H   0  0  0  0  0  0  0  0  0  0  0  0
    4.3961    0.7823    4.5020 H   0  0  0  0  0  0  0  0  0  0  0  0
    6.0296   -3.2729    6.4747 H   0  0  0  0  0  0  0  0  0  0  0  0
    5.4365   -5.2837    7.8522 H   0  0  0  0  0  0  0  0  0  0  0  0
    3.0418   -5.7985    8.3314 H   0  0  0  0  0  0  0  0  0  0  0  0
    1.2528   -4.2997    7.4483 H   0  0  0  0  0  0  0  0  0  0  0  0
    1.8562   -2.2944    6.0916 H   0  0  0  0  0  0  0  0  0  0  0  0
    3.3705   -3.3324    3.7198 H   0  0  0  0  0  0  0  0  0  0  0  0
    2.6832   -2.7252    1.4048 H   0  0  0  0  0  0  0  0  0  0  0  0
  1  2  2  0
  2  3  2  0
  2  4  1  6
  2 10  1  0
  4  5  1  0
  4 23  1  0
  5  6  1  0
  5  9  1  0
  5 24  1  6
  6  7  1  0
  6 25  1  0
  6 26  1  0
  7  8  1  0
  7 27  1  0
  7 28  1  0
  8  9  1  0
  8 29  1  0
  8 30  1  0
  9 31  1  0
  9 32  1  0
 10 11  2  0
 10 22  1  0
 11 12  1  0
 11 33  1  0
 12 13  2  0
 12 34  1  0
 13 14  1  0
 13 21  1  0
 14 15  1  0
 15 16  2  0
 15 20  1  0
 16 17  1  0
 16 35  1  0
 17 18  2  0
 17 36  1  0
 18 19  1  0
 18 37  1  0
 19 20  2  0
 19 38  1  0
 20 39  1  0
 21 22  2  0
 21 40  1  0
 22 41  1  0
M  END

