
     RDKit          3D

 32 33  0  0  0  0  0  0  0  0999 V2000
    1.2560   -0.0968   -0.0167 C   0  0  0  0  0  0  0  0  0  0  0  0
    2.6193   -0.1230    0.6611 C   0  0  1  0  0  0  0  0  0  0  0  0
    2.5276   -0.0017    2.1807 C   0  0  0  0  0  0  0  0  0  0  0  0
    3.2209   -1.3732    0.2867 O   0  0  0  0  0  0  0  0  0  0  0  0
    4.5611   -1.5544    0.3184 C   0  0  0  0  0  0  0  0  0  0  0  0
    5.5170   -0.5834    0.6695 C   0  0  0  0  0  0  0  0  0  0  0  0
    6.8328   -0.8224    0.6633 N   0  0  0  0  0  0  0  0  0  0  0  0
    7.2672   -2.0282    0.3184 C   0  0  0  0  0  0  0  0  0  0  0  0
    6.4004   -3.0781   -0.0509 C   0  0  0  0  0  0  0  0  0  0  0  0
    7.0082   -4.4067   -0.3790 C   0  0  0  0  0  0  0  0  0  0  0  0
    8.1937   -4.6171   -0.2212 O   0  0  0  0  0  0  0  0  0  0  0  0
    6.1336   -5.5082   -0.9563 C   0  0  0  0  0  0  0  0  0  0  0  0
    5.3757   -5.1666   -2.0039 N   0  0  0  0  0  0  0  0  0  0  0  0
    4.6774   -6.1005   -2.6485 C   0  0  0  0  0  0  0  0  0  0  0  0
    4.6797   -7.4442   -2.2639 C   0  0  0  0  0  0  0  0  0  0  0  0
    5.4406   -7.8159   -1.1565 C   0  0  0  0  0  0  0  0  0  0  0  0
    6.1868   -6.8392   -0.4917 C   0  0  0  0  0  0  0  0  0  0  0  0
    7.1108   -7.3005    0.9090 Cl  0  0  0  0  0  0  0  0  0  0  0  0
    5.0267   -2.8266   -0.0474 C   0  0  0  0  0  0  0  0  0  0  0  0
    0.7327    0.8453    0.2076 H   0  0  0  0  0  0  0  0  0  0  0  0
    0.6353   -0.9342    0.3390 H   0  0  0  0  0  0  0  0  0  0  0  0
    1.3641   -0.1868   -1.1077 H   0  0  0  0  0  0  0  0  0  0  0  0
    3.2324    0.7021    0.2553 H   0  0  0  0  0  0  0  0  0  0  0  0
    1.9093   -0.8164    2.5894 H   0  0  0  0  0  0  0  0  0  0  0  0
    2.0665    0.9583    2.4613 H   0  0  0  0  0  0  0  0  0  0  0  0
    3.5183   -0.0529    2.6563 H   0  0  0  0  0  0  0  0  0  0  0  0
    5.2139    0.4238    0.9701 H   0  0  0  0  0  0  0  0  0  0  0  0
    8.3466   -2.2051    0.3255 H   0  0  0  0  0  0  0  0  0  0  0  0
    4.0837   -5.7652   -3.5062 H   0  0  0  0  0  0  0  0  0  0  0  0
    4.0911   -8.1832   -2.8121 H   0  0  0  0  0  0  0  0  0  0  0  0
    5.4655   -8.8479   -0.8013 H   0  0  0  0  0  0  0  0  0  0  0  0
    4.2974   -3.5842   -0.3320 H   0  0  0  0  0  0  0  0  0  0  0  0
  1  2  1  0
  1 20  1  0
  1 21  1  0
  1 22  1  0
  2  3  1  0
  2  4  1  0
  2 23  1  6
  3 24  1  0
  3 25  1  0
  3 26  1  0
  4  5  1  0
  5  6  2  0
  5 19  1  0
  6  7  1  0
  6 27  1  0
  7  8  2  0
  8  9  1  0
  8 28  1  0
  9 10  1  0
  9 19  2  0
 10 11  2  0
 10 12  1  0
 12 13  2  0
 12 17  1  0
 13 14  1  0
 14 15  2  0
 14 29  1  0
 15 16  1  0
 15 30  1  0
 16 17  2  0
 16 31  1  0
 17 18  1  0
 19 32  1  0
M  END

