
     RDKit          3D

 50 54  0  0  0  0  0  0  0  0999 V2000
    0.4549   -0.0066   -0.0430 C   0  0  0  0  0  0  0  0  0  0  0  0
    1.9204   -0.0080    0.2562 C   0  0  0  0  0  0  0  0  0  0  0  0
    2.7440    1.0688    0.5099 C   0  0  0  0  0  0  0  0  0  0  0  0
    2.4779    2.5198    0.5837 C   0  0  0  0  0  0  0  0  0  0  0  0
    1.3627    2.9892    0.3876 O   0  0  0  0  0  0  0  0  0  0  0  0
    3.5712    3.2894    0.8876 N   0  0  0  0  0  0  0  0  0  0  0  0
    3.5003    4.7343    0.9847 C   0  0  0  0  0  0  0  0  0  0  0  0
    4.5320    5.4441    0.1517 C   0  0  0  0  0  0  0  0  0  0  0  0
    5.4743    6.3549    0.5684 C   0  0  0  0  0  0  0  0  0  0  0  0
    6.2864    6.8581   -0.4946 C   0  0  0  0  0  0  0  0  0  0  0  0
    5.9543    6.3155   -1.7090 C   0  0  0  0  0  0  0  0  0  0  0  0
    4.6443    5.1921   -1.5716 S   0  0  0  0  0  0  0  0  0  0  0  0
    4.0381    0.6426    0.7414 O   0  0  0  0  0  0  0  0  0  0  0  0
    4.0387   -0.7012    0.6392 C   0  0  0  0  0  0  0  0  0  0  0  0
    2.7779   -1.1597    0.3417 C   0  0  0  0  0  0  0  0  0  0  0  0
    2.6098   -2.5955    0.1799 C   0  0  0  0  0  0  0  0  0  0  0  0
    1.5570   -3.2614   -0.2903 N   0  0  0  0  0  0  0  0  0  0  0  0
    1.9190   -4.5583   -0.2373 N   0  0  0  0  0  0  0  0  0  0  0  0
    1.0302   -5.5784   -0.7704 C   0  0  0  0  0  0  0  0  0  0  0  0
    1.2490   -5.8913   -2.2405 C   0  0  0  0  0  0  0  0  0  0  0  0
    1.4616   -7.2079   -2.6682 C   0  0  0  0  0  0  0  0  0  0  0  0
    1.6419   -7.5086   -4.0216 C   0  0  0  0  0  0  0  0  0  0  0  0
    1.6140   -6.4737   -4.9582 C   0  0  0  0  0  0  0  0  0  0  0  0
    1.8423   -6.8346   -6.6543 Cl  0  0  0  0  0  0  0  0  0  0  0  0
    1.4063   -5.1501   -4.5541 C   0  0  0  0  0  0  0  0  0  0  0  0
    1.2227   -4.8670   -3.2008 C   0  0  0  0  0  0  0  0  0  0  0  0
    3.1880   -4.7271    0.2429 C   0  0  0  0  0  0  0  0  0  0  0  0
    3.6798   -3.4691    0.5346 C   0  0  0  0  0  0  0  0  0  0  0  0
    4.9459   -2.9678    1.1820 C   0  0  0  0  0  0  0  0  0  0  0  0
    5.2857   -1.5188    0.7435 C   0  0  0  0  0  0  0  0  0  0  0  0
    0.0523    1.0122   -0.0046 H   0  0  0  0  0  0  0  0  0  0  0  0
   -0.0845   -0.6459    0.6748 H   0  0  0  0  0  0  0  0  0  0  0  0
    0.2662   -0.4367   -1.0401 H   0  0  0  0  0  0  0  0  0  0  0  0
    4.4635    2.8299    1.0268 H   0  0  0  0  0  0  0  0  0  0  0  0
    3.6262    5.0684    2.0307 H   0  0  0  0  0  0  0  0  0  0  0  0
    2.4767    5.0047    0.6818 H   0  0  0  0  0  0  0  0  0  0  0  0
    5.5796    6.6579    1.6123 H   0  0  0  0  0  0  0  0  0  0  0  0
    7.0870    7.5872   -0.3595 H   0  0  0  0  0  0  0  0  0  0  0  0
    6.4087    6.5076   -2.6802 H   0  0  0  0  0  0  0  0  0  0  0  0
    0.0082   -5.2056   -0.6037 H   0  0  0  0  0  0  0  0  0  0  0  0
    1.1528   -6.4916   -0.1691 H   0  0  0  0  0  0  0  0  0  0  0  0
    1.4870   -8.0207   -1.9362 H   0  0  0  0  0  0  0  0  0  0  0  0
    1.8069   -8.5361   -4.3500 H   0  0  0  0  0  0  0  0  0  0  0  0
    1.3867   -4.3529   -5.2990 H   0  0  0  0  0  0  0  0  0  0  0  0
    1.0624   -3.8352   -2.8785 H   0  0  0  0  0  0  0  0  0  0  0  0
    3.6268   -5.7182    0.3424 H   0  0  0  0  0  0  0  0  0  0  0  0
    5.7988   -3.6297    0.9675 H   0  0  0  0  0  0  0  0  0  0  0  0
    4.8128   -2.9780    2.2799 H   0  0  0  0  0  0  0  0  0  0  0  0
    5.7883   -1.5332   -0.2431 H   0  0  0  0  0  0  0  0  0  0  0  0
    5.9962   -1.0586    1.4477 H   0  0  0  0  0  0  0  0  0  0  0  0
  1  2  1  0
  1 31  1  0
  1 32  1  0
  1 33  1  0
  2  3  2  0
  2 15  1  0
  3  4  1  0
  3 13  1  0
  4  5  2  0
  4  6  1  0
  6  7  1  0
  6 34  1  0
  7  8  1  0
  7 35  1  0
  7 36  1  0
  8  9  2  0
  8 12  1  0
  9 10  1  0
  9 37  1  0
 10 11  2  0
 10 38  1  0
 11 12  1  0
 11 39  1  0
 13 14  1  0
 14 15  2  0
 14 30  1  0
 15 16  1  0
 16 17  2  0
 16 28  1  0
 17 18  1  0
 18 19  1  0
 18 27  1  0
 19 20  1  0
 19 40  1  0
 19 41  1  0
 20 21  2  0
 20 26  1  0
 21 22  1  0
 21 42  1  0
 22 23  2  0
 22 43  1  0
 23 24  1  0
 23 25  1  0
 25 26  2  0
 25 44  1  0
 26 45  1  0
 27 28  2  0
 27 46  1  0
 28 29  1  0
 29 30  1  0
 29 47  1  0
 29 48  1  0
 30 49  1  0
 30 50  1  0
M  END

