
     RDKit          3D

 54 55  0  0  0  0  0  0  0  0999 V2000
    3.5069   -2.4199    0.1598 C   0  0  0  0  0  0  0  0  0  0  0  0
    2.9878   -1.5554   -0.7160 C   0  0  0  0  0  0  0  0  0  0  0  0
    3.7476   -0.9212   -1.8504 C   0  0  0  0  0  0  0  0  0  0  0  0
    3.7087    0.5444   -1.7969 N   0  0  0  0  0  0  0  0  0  0  0  0
    4.3977    1.1566   -0.6687 C   0  0  0  0  0  0  0  0  0  0  0  0
    5.9325    1.1901   -0.7023 C   0  0  2  0  0  0  0  0  0  0  0  0
    6.2760    1.5866   -1.6767 H   0  0  0  0  0  0  0  0  0  0  0  0
    6.4180   -0.1296   -0.4996 O   0  0  0  0  0  0  0  0  0  0  0  0
    6.4960    2.0994    0.3995 C   0  0  0  0  0  0  0  0  0  0  0  0
    6.1652    3.4774    0.1894 O   0  0  0  0  0  0  0  0  0  0  0  0
    6.9985    4.2040   -0.5929 C   0  0  0  0  0  0  0  0  0  0  0  0
    7.9830    3.7434   -1.1171 O   0  0  0  0  0  0  0  0  0  0  0  0
    6.5264    5.6371   -0.7042 C   0  0  0  0  0  0  0  0  0  0  0  0
    7.4382    6.5208   -1.5533 C   0  0  0  0  0  0  0  0  0  0  0  0
    6.9390    7.9620   -1.6544 C   0  0  0  0  0  0  0  0  0  0  0  0
    3.8985    1.2044   -3.0762 C   0  0  0  0  0  0  0  0  0  0  0  0
    2.6370    1.1828   -3.9561 C   0  0  1  0  0  0  0  0  0  0  0  0
    2.3834    0.1552   -4.2551 H   0  0  0  0  0  0  0  0  0  0  0  0
    1.4488    1.9368   -3.3523 C   0  0  0  0  0  0  0  0  0  0  0  0
    1.4949    3.2088   -4.1716 C   0  0  0  0  0  0  0  0  0  0  0  0
    0.6834    4.4107   -3.9372 C   0  0  0  0  0  0  0  0  0  0  0  0
   -0.2191    4.4711   -2.8609 C   0  0  0  0  0  0  0  0  0  0  0  0
   -0.9974    5.6084   -2.6341 C   0  0  0  0  0  0  0  0  0  0  0  0
   -0.8747    6.7038   -3.4907 C   0  0  0  0  0  0  0  0  0  0  0  0
   -1.8421    8.1330   -3.2153 Cl  0  0  0  0  0  0  0  0  0  0  0  0
    0.0180    6.6687   -4.5704 C   0  0  0  0  0  0  0  0  0  0  0  0
    0.7877    5.5309   -4.7878 C   0  0  0  0  0  0  0  0  0  0  0  0
    2.3157    3.1325   -5.1615 N   0  0  0  0  0  0  0  0  0  0  0  0
    2.9391    1.9065   -5.1803 O   0  0  0  0  0  0  0  0  0  0  0  0
    2.9001   -2.8686    0.9516 H   0  0  0  0  0  0  0  0  0  0  0  0
    4.5632   -2.7044    0.1175 H   0  0  0  0  0  0  0  0  0  0  0  0
    1.9327   -1.2634   -0.6358 H   0  0  0  0  0  0  0  0  0  0  0  0
    3.2627   -1.2272   -2.7936 H   0  0  0  0  0  0  0  0  0  0  0  0
    4.7814   -1.3135   -1.8788 H   0  0  0  0  0  0  0  0  0  0  0  0
    4.0988    0.6268    0.2510 H   0  0  0  0  0  0  0  0  0  0  0  0
    4.0490    2.1980   -0.5679 H   0  0  0  0  0  0  0  0  0  0  0  0
    7.3567   -0.1517   -0.7292 H   0  0  0  0  0  0  0  0  0  0  0  0
    7.5899    1.9867    0.4408 H   0  0  0  0  0  0  0  0  0  0  0  0
    6.0644    1.8272    1.3740 H   0  0  0  0  0  0  0  0  0  0  0  0
    6.4209    6.0315    0.3221 H   0  0  0  0  0  0  0  0  0  0  0  0
    5.4981    5.6164   -1.1075 H   0  0  0  0  0  0  0  0  0  0  0  0
    7.5306    6.0785   -2.5590 H   0  0  0  0  0  0  0  0  0  0  0  0
    8.4555    6.4992   -1.1284 H   0  0  0  0  0  0  0  0  0  0  0  0
    5.9362    8.0113   -2.1111 H   0  0  0  0  0  0  0  0  0  0  0  0
    7.6145    8.5753   -2.2709 H   0  0  0  0  0  0  0  0  0  0  0  0
    6.8719    8.4376   -0.6613 H   0  0  0  0  0  0  0  0  0  0  0  0
    4.7370    0.7871   -3.6725 H   0  0  0  0  0  0  0  0  0  0  0  0
    4.1450    2.2636   -2.8965 H   0  0  0  0  0  0  0  0  0  0  0  0
    1.5791    2.0944   -2.2710 H   0  0  0  0  0  0  0  0  0  0  0  0
    0.4841    1.4200   -3.4938 H   0  0  0  0  0  0  0  0  0  0  0  0
   -0.3225    3.6203   -2.1841 H   0  0  0  0  0  0  0  0  0  0  0  0
   -1.6965    5.6480   -1.7972 H   0  0  0  0  0  0  0  0  0  0  0  0
    0.1016    7.5331   -5.2313 H   0  0  0  0  0  0  0  0  0  0  0  0
    1.4853    5.4915   -5.6262 H   0  0  0  0  0  0  0  0  0  0  0  0
  1  2  2  0
  1 30  1  0
  1 31  1  0
  2  3  1  0
  2 32  1  0
  3  4  1  0
  3 33  1  0
  3 34  1  0
  4  5  1  0
  4 16  1  0
  5  6  1  0
  5 35  1  0
  5 36  1  0
  6  7  1  6
  6  8  1  0
  6  9  1  0
  8 37  1  0
  9 10  1  0
  9 38  1  0
  9 39  1  0
 10 11  1  0
 11 12  2  0
 11 13  1  0
 13 14  1  0
 13 40  1  0
 13 41  1  0
 14 15  1  0
 14 42  1  0
 14 43  1  0
 15 44  1  0
 15 45  1  0
 15 46  1  0
 16 17  1  0
 16 47  1  0
 16 48  1  0
 17 18  1  6
 17 19  1  0
 17 29  1  0
 19 20  1  0
 19 49  1  0
 19 50  1  0
 20 21  1  0
 20 28  2  0
 21 22  2  0
 21 27  1  0
 22 23  1  0
 22 51  1  0
 23 24  2  0
 23 52  1  0
 24 25  1  0
 24 26  1  0
 26 27  2  0
 26 53  1  0
 27 54  1  0
 28 29  1  0
M  END

