
     RDKit          3D

 42 44  0  0  0  0  0  0  0  0999 V2000
    1.7452    1.3136    0.3900 C   0  0  0  0  0  0  0  0  0  0  0  0
    1.0651    0.9274   -0.8329 N   0  0  0  0  0  0  0  0  0  0  0  0
    1.5694    1.5443   -2.0533 C   0  0  0  0  0  0  0  0  0  0  0  0
    2.8610    0.9047   -2.5797 C   0  0  0  0  0  0  0  0  0  0  0  0
    2.6934   -0.5470   -2.6942 N   0  0  0  0  0  0  0  0  0  0  0  0
    3.3655   -1.2181   -3.6694 C   0  0  0  0  0  0  0  0  0  0  0  0
    3.9947   -0.6284   -4.6541 N   0  0  0  0  0  0  0  0  0  0  0  0
    4.5589   -1.5336   -5.5102 C   0  0  0  0  0  0  0  0  0  0  0  0
    5.2629   -1.0726   -6.5658 N   0  0  0  0  0  0  0  0  0  0  0  0
    4.3522   -2.8958   -5.2182 C   0  0  0  0  0  0  0  0  0  0  0  0
    5.0056   -3.9638   -5.9670 C   0  0  0  0  0  0  0  0  0  0  0  0
    5.8490   -3.6687   -6.8321 O   0  0  0  0  0  0  0  0  0  0  0  0
    4.7248   -5.3017   -5.7314 N   0  0  0  0  0  0  0  0  0  0  0  0
    3.5623   -5.8569   -5.0552 C   0  0  0  0  0  0  0  0  0  0  0  0
    2.8402   -6.8498   -5.9748 C   0  0  0  0  0  0  0  0  0  0  0  0
    3.7093   -7.8434   -6.4686 O   0  0  0  0  0  0  0  0  0  0  0  0
    4.7853   -7.2756   -7.1946 C   0  0  0  0  0  0  0  0  0  0  0  0
    5.5917   -6.3165   -6.3246 C   0  0  0  0  0  0  0  0  0  0  0  0
    3.4290   -2.9805   -3.6957 S   0  0  0  0  0  0  0  0  0  0  0  0
    2.1513   -1.2278   -1.5235 C   0  0  0  0  0  0  0  0  0  0  0  0
    0.8878   -0.5028   -1.0264 C   0  0  0  0  0  0  0  0  0  0  0  0
    1.7176    2.4103    0.4954 H   0  0  0  0  0  0  0  0  0  0  0  0
    2.8103    1.0023    0.4668 H   0  0  0  0  0  0  0  0  0  0  0  0
    1.2161    0.8855    1.2568 H   0  0  0  0  0  0  0  0  0  0  0  0
    1.7360    2.6195   -1.8790 H   0  0  0  0  0  0  0  0  0  0  0  0
    0.7914    1.4549   -2.8328 H   0  0  0  0  0  0  0  0  0  0  0  0
    3.7115    1.1282   -1.9049 H   0  0  0  0  0  0  0  0  0  0  0  0
    3.1233    1.2938   -3.5712 H   0  0  0  0  0  0  0  0  0  0  0  0
    5.4611   -0.0828   -6.6086 H   0  0  0  0  0  0  0  0  0  0  0  0
    5.8128   -1.7707   -7.0654 H   0  0  0  0  0  0  0  0  0  0  0  0
    2.8549   -5.0646   -4.7829 H   0  0  0  0  0  0  0  0  0  0  0  0
    3.8685   -6.3781   -4.1272 H   0  0  0  0  0  0  0  0  0  0  0  0
    2.3780   -6.2894   -6.8148 H   0  0  0  0  0  0  0  0  0  0  0  0
    2.0397   -7.3646   -5.4205 H   0  0  0  0  0  0  0  0  0  0  0  0
    4.4035   -6.7360   -8.0857 H   0  0  0  0  0  0  0  0  0  0  0  0
    5.4155   -8.1103   -7.5380 H   0  0  0  0  0  0  0  0  0  0  0  0
    6.3609   -5.8031   -6.9139 H   0  0  0  0  0  0  0  0  0  0  0  0
    6.0802   -6.8929   -5.5151 H   0  0  0  0  0  0  0  0  0  0  0  0
    2.9150   -1.2830   -0.7216 H   0  0  0  0  0  0  0  0  0  0  0  0
    1.8896   -2.2616   -1.7950 H   0  0  0  0  0  0  0  0  0  0  0  0
    0.5480   -0.9640   -0.0852 H   0  0  0  0  0  0  0  0  0  0  0  0
    0.0893   -0.6545   -1.7750 H   0  0  0  0  0  0  0  0  0  0  0  0
  1  2  1  0
  1 22  1  0
  1 23  1  0
  1 24  1  0
  2  3  1  0
  2 21  1  0
  3  4  1  0
  3 25  1  0
  3 26  1  0
  4  5  1  0
  4 27  1  0
  4 28  1  0
  5  6  1  0
  5 20  1  0
  6  7  2  0
  6 19  1  0
  7  8  1  0
  8  9  1  0
  8 10  2  0
  9 29  1  0
  9 30  1  0
 10 11  1  0
 10 19  1  0
 11 12  2  0
 11 13  1  0
 13 14  1  0
 13 18  1  0
 14 15  1  0
 14 31  1  0
 14 32  1  0
 15 16  1  0
 15 33  1  0
 15 34  1  0
 16 17  1  0
 17 18  1  0
 17 35  1  0
 17 36  1  0
 18 37  1  0
 18 38  1  0
 20 21  1  0
 20 39  1  0
 20 40  1  0
 21 41  1  0
 21 42  1  0
M  END

