
     RDKit          3D

 70 73  0  0  0  0  0  0  0  0999 V2000
    4.3734    2.4767    0.2966 C   0  0  0  0  0  0  0  0  0  0  0  0
    4.5521    2.7673   -1.4919 S   0  0  0  0  0  0  0  0  0  0  0  0
    4.3773    1.0993   -2.0379 C   0  0  0  0  0  0  0  0  0  0  0  0
    4.2105    0.0311   -1.2939 N   0  0  0  0  0  0  0  0  0  0  0  0
    4.1655   -1.0263   -2.1729 C   0  0  0  0  0  0  0  0  0  0  0  0
    4.2918   -0.6072   -3.4790 C   0  0  0  0  0  0  0  0  0  0  0  0
    4.4574   -1.3786   -4.7728 C   0  0  1  0  0  0  0  0  0  0  0  0
    5.9145   -1.8130   -4.9975 C   0  0  0  0  0  0  0  0  0  0  0  0
    6.7886   -0.8601   -5.6863 C   0  0  0  0  0  0  0  0  0  0  0  0
    6.4580    0.2849   -5.9741 O   0  0  0  0  0  0  0  0  0  0  0  0
    8.0008   -1.3466   -6.0256 O   0  0  0  0  0  0  0  0  0  0  0  0
    8.9363   -0.4588   -6.6817 C   0  0  0  0  0  0  0  0  0  0  0  0
    9.8707    0.2055   -5.6991 C   0  0  0  0  0  0  0  0  0  0  0  0
   11.1185   -0.3673   -5.4089 C   0  0  0  0  0  0  0  0  0  0  0  0
   11.9813    0.2302   -4.4859 C   0  0  0  0  0  0  0  0  0  0  0  0
   11.6032    1.4108   -3.8398 C   0  0  0  0  0  0  0  0  0  0  0  0
   10.3622    1.9909   -4.1224 C   0  0  0  0  0  0  0  0  0  0  0  0
    9.5017    1.3935   -5.0466 C   0  0  0  0  0  0  0  0  0  0  0  0
    6.3330   -3.0202   -4.4975 C   0  0  0  0  0  0  0  0  0  0  0  0
    7.7405   -3.5522   -4.4143 C   0  0  0  0  0  0  0  0  0  0  0  0
    5.3772   -3.8937   -4.0264 N   0  0  0  0  0  0  0  0  0  0  0  0
    4.0208   -3.7900   -4.3076 C   0  0  0  0  0  0  0  0  0  0  0  0
    3.2347   -5.0549   -4.0892 C   0  0  0  0  0  0  0  0  0  0  0  0
    3.5491   -2.6025   -4.7861 C   0  0  0  0  0  0  0  0  0  0  0  0
    2.1544   -2.5005   -5.2639 C   0  0  0  0  0  0  0  0  0  0  0  0
    1.3299   -3.3954   -5.2152 O   0  0  0  0  0  0  0  0  0  0  0  0
    1.8900   -1.2926   -5.8004 O   0  0  0  0  0  0  0  0  0  0  0  0
    0.5749   -1.0804   -6.3776 C   0  0  1  0  0  0  0  0  0  0  0  0
   -0.3986   -0.6419   -5.2899 C   0  0  0  0  0  0  0  0  0  0  0  0
    0.7522   -0.0610   -7.4920 C   0  0  0  0  0  0  0  0  0  0  0  0
    4.4104    0.7855   -3.3760 N   0  0  0  0  0  0  0  0  0  0  0  0
    4.5723    1.7007   -4.3938 N   0  0  0  0  0  0  0  0  0  0  0  0
    3.4562    2.3193   -4.9817 C   0  0  0  0  0  0  0  0  0  0  0  0
    3.6214    2.9179   -6.2457 C   0  0  0  0  0  0  0  0  0  0  0  0
    2.5721    3.6222   -6.8352 C   0  0  0  0  0  0  0  0  0  0  0  0
    1.3384    3.7412   -6.1852 C   0  0  0  0  0  0  0  0  0  0  0  0
    1.1723    3.1366   -4.9356 C   0  0  0  0  0  0  0  0  0  0  0  0
    2.2147    2.4283   -4.3326 C   0  0  0  0  0  0  0  0  0  0  0  0
    4.4791    3.4615    0.7724 H   0  0  0  0  0  0  0  0  0  0  0  0
    5.1535    1.7935    0.6572 H   0  0  0  0  0  0  0  0  0  0  0  0
    3.3881    2.0487    0.5240 H   0  0  0  0  0  0  0  0  0  0  0  0
    4.0504   -2.0496   -1.8183 H   0  0  0  0  0  0  0  0  0  0  0  0
    4.1661   -0.7160   -5.5968 H   0  0  0  0  0  0  0  0  0  0  0  0
    8.3687    0.2841   -7.2566 H   0  0  0  0  0  0  0  0  0  0  0  0
    9.4953   -1.1072   -7.3701 H   0  0  0  0  0  0  0  0  0  0  0  0
   11.4200   -1.2888   -5.9160 H   0  0  0  0  0  0  0  0  0  0  0  0
   12.9520   -0.2251   -4.2730 H   0  0  0  0  0  0  0  0  0  0  0  0
   12.2766    1.8808   -3.1183 H   0  0  0  0  0  0  0  0  0  0  0  0
   10.0627    2.9150   -3.6216 H   0  0  0  0  0  0  0  0  0  0  0  0
    8.5308    1.8440   -5.2644 H   0  0  0  0  0  0  0  0  0  0  0  0
    8.4534   -2.7727   -4.1245 H   0  0  0  0  0  0  0  0  0  0  0  0
    8.0711   -3.9430   -5.3894 H   0  0  0  0  0  0  0  0  0  0  0  0
    7.7934   -4.3710   -3.6792 H   0  0  0  0  0  0  0  0  0  0  0  0
    5.7010   -4.7710   -3.6386 H   0  0  0  0  0  0  0  0  0  0  0  0
    3.8472   -5.8087   -3.5688 H   0  0  0  0  0  0  0  0  0  0  0  0
    2.8953   -5.4771   -5.0471 H   0  0  0  0  0  0  0  0  0  0  0  0
    2.3235   -4.8623   -3.5093 H   0  0  0  0  0  0  0  0  0  0  0  0
    0.2429   -2.0467   -6.7875 H   0  0  0  0  0  0  0  0  0  0  0  0
   -0.0583    0.2941   -4.8213 H   0  0  0  0  0  0  0  0  0  0  0  0
   -0.4908   -1.4192   -4.5177 H   0  0  0  0  0  0  0  0  0  0  0  0
   -1.3969   -0.4713   -5.7238 H   0  0  0  0  0  0  0  0  0  0  0  0
    1.1223    0.8971   -7.0972 H   0  0  0  0  0  0  0  0  0  0  0  0
   -0.2119    0.1195   -7.9931 H   0  0  0  0  0  0  0  0  0  0  0  0
    1.4674   -0.4275   -8.2442 H   0  0  0  0  0  0  0  0  0  0  0  0
    5.3168    1.4125   -5.0348 H   0  0  0  0  0  0  0  0  0  0  0  0
    4.5827    2.8270   -6.7584 H   0  0  0  0  0  0  0  0  0  0  0  0
    2.7216    4.0810   -7.8163 H   0  0  0  0  0  0  0  0  0  0  0  0
    0.5191    4.2971   -6.6466 H   0  0  0  0  0  0  0  0  0  0  0  0
    0.2154    3.2186   -4.4127 H   0  0  0  0  0  0  0  0  0  0  0  0
    2.0697    1.9713   -3.3534 H   0  0  0  0  0  0  0  0  0  0  0  0
  1  2  1  0
  1 39  1  0
  1 40  1  0
  1 41  1  0
  2  3  1  0
  3  4  2  0
  3 31  1  0
  4  5  1  0
  5  6  2  0
  5 42  1  0
  6  7  1  0
  6 31  1  0
  7  8  1  0
  7 24  1  0
  7 43  1  6
  8  9  1  0
  8 19  2  0
  9 10  2  0
  9 11  1  0
 11 12  1  0
 12 13  1  0
 12 44  1  0
 12 45  1  0
 13 14  2  0
 13 18  1  0
 14 15  1  0
 14 46  1  0
 15 16  2  0
 15 47  1  0
 16 17  1  0
 16 48  1  0
 17 18  2  0
 17 49  1  0
 18 50  1  0
 19 20  1  0
 19 21  1  0
 20 51  1  0
 20 52  1  0
 20 53  1  0
 21 22  1  0
 21 54  1  0
 22 23  1  0
 22 24  2  0
 23 55  1  0
 23 56  1  0
 23 57  1  0
 24 25  1  0
 25 26  2  0
 25 27  1  0
 27 28  1  0
 28 29  1  0
 28 30  1  0
 28 58  1  6
 29 59  1  0
 29 60  1  0
 29 61  1  0
 30 62  1  0
 30 63  1  0
 30 64  1  0
 31 32  1  0
 32 33  1  0
 32 65  1  0
 33 34  2  0
 33 38  1  0
 34 35  1  0
 34 66  1  0
 35 36  2  0
 35 67  1  0
 36 37  1  0
 36 68  1  0
 37 38  2  0
 37 69  1  0
 38 70  1  0
M  END

