
     RDKit          3D

 51 54  0  0  0  0  0  0  0  0999 V2000
    2.7596    3.1844   11.0092 C   0  0  0  0  0  0  0  0  0  0  0  0
    2.0953    3.0482    9.7718 O   0  0  0  0  0  0  0  0  0  0  0  0
    2.7631    3.3146    8.6238 C   0  0  0  0  0  0  0  0  0  0  0  0
    4.1064    3.7222    8.5596 C   0  0  0  0  0  0  0  0  0  0  0  0
    4.6986    3.9729    7.3189 C   0  0  0  0  0  0  0  0  0  0  0  0
    3.9816    3.8205    6.1254 C   0  0  0  0  0  0  0  0  0  0  0  0
    4.6228    4.1172    4.7843 C   0  0  0  0  0  0  0  0  0  0  0  0
    5.8696    3.3879    4.5605 N   0  0  0  0  0  0  0  0  0  0  0  0
    7.0659    3.9525    4.8121 N   0  0  0  0  0  0  0  0  0  0  0  0
    7.9614    3.0616    4.5593 N   0  0  0  0  0  0  0  0  0  0  0  0
    7.3921    1.9112    4.1420 N   0  0  0  0  0  0  0  0  0  0  0  0
    6.0869    2.1158    4.1510 C   0  0  0  0  0  0  0  0  0  0  0  0
    5.0369    1.1183    3.7692 C   0  0  0  0  0  0  0  0  0  0  0  0
    4.2026    1.5941    2.6667 N   0  0  0  0  0  0  0  0  0  0  0  0
    4.8834    1.6941    1.3744 C   0  0  0  0  0  0  0  0  0  0  0  0
    5.0464    0.3456    0.6641 C   0  0  0  0  0  0  0  0  0  0  0  0
    3.7623   -0.3493    0.5433 N   0  0  0  0  0  0  0  0  0  0  0  0
    3.6197   -1.3591   -0.4205 C   0  0  0  0  0  0  0  0  0  0  0  0
    2.8987   -2.5469   -0.1636 C   0  0  0  0  0  0  0  0  0  0  0  0
    2.7340   -3.5130   -1.1587 C   0  0  0  0  0  0  0  0  0  0  0  0
    3.2832   -3.3535   -2.4306 C   0  0  0  0  0  0  0  0  0  0  0  0
    4.0052   -2.1828   -2.6813 C   0  0  0  0  0  0  0  0  0  0  0  0
    4.7062   -1.9312   -4.2684 Cl  0  0  0  0  0  0  0  0  0  0  0  0
    4.1764   -1.1994   -1.7109 C   0  0  0  0  0  0  0  0  0  0  0  0
    3.0584   -0.4780    1.8118 C   0  0  0  0  0  0  0  0  0  0  0  0
    2.9358    0.8888    2.5019 C   0  0  0  0  0  0  0  0  0  0  0  0
    2.6408    3.4095    6.2036 C   0  0  0  0  0  0  0  0  0  0  0  0
    2.0342    3.1618    7.4318 C   0  0  0  0  0  0  0  0  0  0  0  0
    2.0293    2.9221   11.7861 H   0  0  0  0  0  0  0  0  0  0  0  0
    3.1053    4.2201   11.1784 H   0  0  0  0  0  0  0  0  0  0  0  0
    3.6258    2.5031   11.0882 H   0  0  0  0  0  0  0  0  0  0  0  0
    4.6984    3.8498    9.4659 H   0  0  0  0  0  0  0  0  0  0  0  0
    5.7445    4.2900    7.2830 H   0  0  0  0  0  0  0  0  0  0  0  0
    4.8880    5.1811    4.6941 H   0  0  0  0  0  0  0  0  0  0  0  0
    3.9443    3.8518    3.9625 H   0  0  0  0  0  0  0  0  0  0  0  0
    4.3785    0.9442    4.6366 H   0  0  0  0  0  0  0  0  0  0  0  0
    5.5721    0.1685    3.5764 H   0  0  0  0  0  0  0  0  0  0  0  0
    5.8729    2.1562    1.5122 H   0  0  0  0  0  0  0  0  0  0  0  0
    4.2895    2.3650    0.7298 H   0  0  0  0  0  0  0  0  0  0  0  0
    5.7791   -0.2880    1.2085 H   0  0  0  0  0  0  0  0  0  0  0  0
    5.4726    0.5283   -0.3295 H   0  0  0  0  0  0  0  0  0  0  0  0
    2.4721   -2.7353    0.8203 H   0  0  0  0  0  0  0  0  0  0  0  0
    2.1725   -4.4222   -0.9277 H   0  0  0  0  0  0  0  0  0  0  0  0
    3.1636   -4.1083   -3.2081 H   0  0  0  0  0  0  0  0  0  0  0  0
    4.7238   -0.2975   -1.9796 H   0  0  0  0  0  0  0  0  0  0  0  0
    3.5570   -1.2089    2.4867 H   0  0  0  0  0  0  0  0  0  0  0  0
    2.0430   -0.8565    1.6258 H   0  0  0  0  0  0  0  0  0  0  0  0
    2.4551    0.7633    3.4853 H   0  0  0  0  0  0  0  0  0  0  0  0
    2.2738    1.5241    1.8879 H   0  0  0  0  0  0  0  0  0  0  0  0
    2.0579    3.2868    5.2859 H   0  0  0  0  0  0  0  0  0  0  0  0
    0.9918    2.8442    7.4983 H   0  0  0  0  0  0  0  0  0  0  0  0
  1  2  1  0
  1 29  1  0
  1 30  1  0
  1 31  1  0
  2  3  1  0
  3  4  2  0
  3 28  1  0
  4  5  1  0
  4 32  1  0
  5  6  2  0
  5 33  1  0
  6  7  1  0
  6 27  1  0
  7  8  1  0
  7 34  1  0
  7 35  1  0
  8  9  1  0
  8 12  1  0
  9 10  2  0
 10 11  1  0
 11 12  2  0
 12 13  1  0
 13 14  1  0
 13 36  1  0
 13 37  1  0
 14 15  1  0
 14 26  1  0
 15 16  1  0
 15 38  1  0
 15 39  1  0
 16 17  1  0
 16 40  1  0
 16 41  1  0
 17 18  1  0
 17 25  1  0
 18 19  2  0
 18 24  1  0
 19 20  1  0
 19 42  1  0
 20 21  2  0
 20 43  1  0
 21 22  1  0
 21 44  1  0
 22 23  1  0
 22 24  2  0
 24 45  1  0
 25 26  1  0
 25 46  1  0
 25 47  1  0
 26 48  1  0
 26 49  1  0
 27 28  2  0
 27 50  1  0
 28 51  1  0
M  END

