
     RDKit          3D

 55 58  0  0  0  0  0  0  0  0999 V2000
    0.7320    1.5952   -0.2737 C   0  0  0  0  0  0  0  0  0  0  0  0
    2.1294    1.9785   -0.7208 C   0  0  0  0  0  0  0  0  0  0  0  0
    2.8719    0.7854   -0.9384 O   0  0  0  0  0  0  0  0  0  0  0  0
    4.1666    0.8383   -1.3266 C   0  0  0  0  0  0  0  0  0  0  0  0
    4.8286    2.0500   -1.5485 C   0  0  0  0  0  0  0  0  0  0  0  0
    6.1736    2.0187   -1.9476 C   0  0  0  0  0  0  0  0  0  0  0  0
    6.8712    0.7905   -2.1191 C   0  0  0  0  0  0  0  0  0  0  0  0
    6.1938   -0.4027   -1.8941 C   0  0  0  0  0  0  0  0  0  0  0  0
    4.8381   -0.4242   -1.4982 C   0  0  0  0  0  0  0  0  0  0  0  0
    4.2475   -1.7332   -1.2897 C   0  0  0  0  0  0  0  0  0  0  0  0
    2.9749   -2.0857   -0.9397 C   0  0  0  0  0  0  0  0  0  0  0  0
    2.4690   -3.4353   -0.7597 C   0  0  0  0  0  0  0  0  0  0  0  0
    3.2407   -4.5589   -0.4796 C   0  0  0  0  0  0  0  0  0  0  0  0
    2.7009   -5.8883   -0.4709 C   0  0  0  0  0  0  0  0  0  0  0  0
    2.3189   -6.9865   -0.4618 N   0  0  0  0  0  0  0  0  0  0  0  0
    4.6432   -4.5127   -0.1890 C   0  0  0  0  0  0  0  0  0  0  0  0
    5.7803   -4.5185    0.0557 N   0  0  0  0  0  0  0  0  0  0  0  0
    0.9883   -3.5721   -0.8746 C   0  0  0  0  0  0  0  0  0  0  0  0
    0.2329   -4.2705    0.0852 C   0  0  0  0  0  0  0  0  0  0  0  0
   -1.1558   -4.3574   -0.0285 C   0  0  0  0  0  0  0  0  0  0  0  0
   -1.8135   -3.7578   -1.1062 C   0  0  0  0  0  0  0  0  0  0  0  0
   -1.0750   -3.0587   -2.0664 C   0  0  0  0  0  0  0  0  0  0  0  0
    0.3116   -2.9568   -1.9459 C   0  0  0  0  0  0  0  0  0  0  0  0
    8.2239    1.1331   -2.5191 C   0  0  0  0  0  0  0  0  0  0  0  0
    9.3676    0.3869   -2.8310 C   0  0  0  0  0  0  0  0  0  0  0  0
   10.5388    1.0581   -3.1861 C   0  0  0  0  0  0  0  0  0  0  0  0
   10.5757    2.4630   -3.2308 C   0  0  0  0  0  0  0  0  0  0  0  0
    9.4487    3.2298   -2.9234 C   0  0  0  0  0  0  0  0  0  0  0  0
    8.2760    2.5528   -2.5716 C   0  0  0  0  0  0  0  0  0  0  0  0
    7.0212    3.0691   -2.2335 N   0  0  0  0  0  0  0  0  0  0  0  0
    6.6939    4.4808   -2.1304 C   0  0  0  0  0  0  0  0  0  0  0  0
    6.9682    5.0807   -0.7495 C   0  0  0  0  0  0  0  0  0  0  0  0
    0.1312    2.5010   -0.0991 H   0  0  0  0  0  0  0  0  0  0  0  0
    0.7656    1.0158    0.6614 H   0  0  0  0  0  0  0  0  0  0  0  0
    0.2273    0.9868   -1.0394 H   0  0  0  0  0  0  0  0  0  0  0  0
    2.6322    2.5940    0.0478 H   0  0  0  0  0  0  0  0  0  0  0  0
    2.0956    2.5714   -1.6537 H   0  0  0  0  0  0  0  0  0  0  0  0
    4.3147    2.9984   -1.4105 H   0  0  0  0  0  0  0  0  0  0  0  0
    6.7115   -1.3572   -2.0162 H   0  0  0  0  0  0  0  0  0  0  0  0
    4.9608   -2.5399   -1.4701 H   0  0  0  0  0  0  0  0  0  0  0  0
    2.2332   -1.3006   -0.8165 H   0  0  0  0  0  0  0  0  0  0  0  0
    0.7330   -4.7339    0.9373 H   0  0  0  0  0  0  0  0  0  0  0  0
   -1.7260   -4.8979    0.7309 H   0  0  0  0  0  0  0  0  0  0  0  0
   -2.9000   -3.8335   -1.1972 H   0  0  0  0  0  0  0  0  0  0  0  0
   -1.5812   -2.5918   -2.9152 H   0  0  0  0  0  0  0  0  0  0  0  0
    0.8846   -2.4135   -2.7008 H   0  0  0  0  0  0  0  0  0  0  0  0
    9.3444   -0.7051   -2.7952 H   0  0  0  0  0  0  0  0  0  0  0  0
   11.4380    0.4876   -3.4299 H   0  0  0  0  0  0  0  0  0  0  0  0
   11.5041    2.9684   -3.5084 H   0  0  0  0  0  0  0  0  0  0  0  0
    9.4943    4.3200   -2.9564 H   0  0  0  0  0  0  0  0  0  0  0  0
    5.6332    4.6041   -2.4011 H   0  0  0  0  0  0  0  0  0  0  0  0
    7.2673    5.0168   -2.9030 H   0  0  0  0  0  0  0  0  0  0  0  0
    6.3778    4.5731    0.0290 H   0  0  0  0  0  0  0  0  0  0  0  0
    6.7039    6.1501   -0.7381 H   0  0  0  0  0  0  0  0  0  0  0  0
    8.0319    4.9881   -0.4815 H   0  0  0  0  0  0  0  0  0  0  0  0
  1  2  1  0
  1 33  1  0
  1 34  1  0
  1 35  1  0
  2  3  1  0
  2 36  1  0
  2 37  1  0
  3  4  1  0
  4  5  2  0
  4  9  1  0
  5  6  1  0
  5 38  1  0
  6  7  2  0
  6 30  1  0
  7  8  1  0
  7 24  1  0
  8  9  2  0
  8 39  1  0
  9 10  1  0
 10 11  2  0
 10 40  1  0
 11 12  1  0
 11 41  1  0
 12 13  2  0
 12 18  1  0
 13 14  1  0
 13 16  1  0
 14 15  3  0
 16 17  3  0
 18 19  2  0
 18 23  1  0
 19 20  1  0
 19 42  1  0
 20 21  2  0
 20 43  1  0
 21 22  1  0
 21 44  1  0
 22 23  2  0
 22 45  1  0
 23 46  1  0
 24 25  2  0
 24 29  1  0
 25 26  1  0
 25 47  1  0
 26 27  2  0
 26 48  1  0
 27 28  1  0
 27 49  1  0
 28 29  2  0
 28 50  1  0
 29 30  1  0
 30 31  1  0
 31 32  1  0
 31 51  1  0
 31 52  1  0
 32 53  1  0
 32 54  1  0
 32 55  1  0
M  END

