
     RDKit          3D

 68 69  0  0  0  0  0  0  0  0999 V2000
   20.4197   -7.2522    3.4887 C   0  0  0  0  0  0  0  0  0  0  0  0
   20.6784   -6.5945    2.3521 C   0  0  0  0  0  0  0  0  0  0  0  0
   19.8161   -6.7694    1.1495 C   0  0  0  0  0  0  0  0  0  0  0  0
   18.8465   -7.4938    1.0999 O   0  0  0  0  0  0  0  0  0  0  0  0
   20.3845   -5.7856   -0.2411 S   0  0  0  0  0  0  0  0  0  0  0  0
   19.1194   -6.2290   -1.4854 C   0  0  0  0  0  0  0  0  0  0  0  0
   17.8210   -5.4349   -1.3480 C   0  0  0  0  0  0  0  0  0  0  0  0
   16.7739   -5.8459   -2.4022 C   0  0  0  0  0  0  0  0  0  0  0  0
   15.5501   -4.9659   -2.4012 C   0  0  0  0  0  0  0  0  0  0  0  0
   14.3823   -5.1750   -1.7580 C   0  0  0  0  0  0  0  0  0  0  0  0
   14.0054   -6.3600   -0.9165 C   0  0  0  0  0  0  0  0  0  0  0  0
   13.1206   -3.9238   -1.9386 S   0  0  0  0  0  0  0  0  0  0  0  0
   14.2585   -2.6081   -2.5462 C   0  0  1  0  0  0  0  0  0  0  0  0
   14.7452   -1.6523   -1.4589 C   0  0  0  0  0  0  0  0  0  0  0  0
   13.3735   -0.6050   -0.8301 S   0  0  0  0  0  0  0  0  0  0  0  0
   14.2977    0.4188    0.3733 C   0  0  0  0  0  0  0  0  0  0  0  0
   15.3812    1.3406   -0.1854 C   0  0  0  0  0  0  0  0  0  0  0  0
   14.6850    2.6391   -1.2820 S   0  0  0  0  0  0  0  0  0  0  0  0
   16.2200    3.3334   -2.0132 C   0  0  0  0  0  0  0  0  0  0  0  0
   16.4428    2.9004   -3.4660 C   0  0  1  0  0  0  0  0  0  0  0  0
   17.9075    3.7443   -4.2092 S   0  0  0  0  0  0  0  0  0  0  0  0
   19.0298    2.3681   -4.0143 C   0  0  0  0  0  0  0  0  0  0  0  0
   20.4872    2.6926   -4.1730 C   0  0  0  0  0  0  0  0  0  0  0  0
   18.4780    1.1588   -3.7809 C   0  0  0  0  0  0  0  0  0  0  0  0
   19.1942   -0.1566   -3.6081 C   0  0  0  0  0  0  0  0  0  0  0  0
   19.4340   -0.5524   -2.1403 C   0  0  0  0  0  0  0  0  0  0  0  0
   20.0968   -1.9195   -1.9598 C   0  0  0  0  0  0  0  0  0  0  0  0
   21.8133   -1.9889   -2.6050 S   0  0  0  0  0  0  0  0  0  0  0  0
   21.7511   -3.4927   -3.5881 C   0  0  0  0  0  0  0  0  0  0  0  0
   20.7656   -4.1909   -3.6922 O   0  0  0  0  0  0  0  0  0  0  0  0
   23.0553   -3.7705   -4.2484 C   0  0  0  0  0  0  0  0  0  0  0  0
   23.2164   -4.8366   -5.0418 C   0  0  0  0  0  0  0  0  0  0  0  0
   16.6941    1.0898   -3.6857 S   0  0  0  0  0  0  0  0  0  0  0  0
   15.6796   -3.4588   -3.3551 S   0  0  0  0  0  0  0  0  0  0  0  0
   21.0459   -7.1319    4.3762 H   0  0  0  0  0  0  0  0  0  0  0  0
   19.5640   -7.9313    3.5459 H   0  0  0  0  0  0  0  0  0  0  0  0
   21.5275   -5.9092    2.2655 H   0  0  0  0  0  0  0  0  0  0  0  0
   18.9380   -7.3090   -1.3789 H   0  0  0  0  0  0  0  0  0  0  0  0
   19.6033   -6.0339   -2.4536 H   0  0  0  0  0  0  0  0  0  0  0  0
   18.0340   -4.3591   -1.4502 H   0  0  0  0  0  0  0  0  0  0  0  0
   17.3992   -5.5874   -0.3424 H   0  0  0  0  0  0  0  0  0  0  0  0
   16.4771   -6.8944   -2.2379 H   0  0  0  0  0  0  0  0  0  0  0  0
   17.2362   -5.8131   -3.4050 H   0  0  0  0  0  0  0  0  0  0  0  0
   14.7749   -7.1435   -0.9534 H   0  0  0  0  0  0  0  0  0  0  0  0
   13.0546   -6.8009   -1.2628 H   0  0  0  0  0  0  0  0  0  0  0  0
   13.8601   -6.0718    0.1383 H   0  0  0  0  0  0  0  0  0  0  0  0
   13.7247   -2.0535   -3.3317 H   0  0  0  0  0  0  0  0  0  0  0  0
   15.5122   -1.0012   -1.9058 H   0  0  0  0  0  0  0  0  0  0  0  0
   15.1964   -2.2224   -0.6305 H   0  0  0  0  0  0  0  0  0  0  0  0
   14.7514   -0.2451    1.1286 H   0  0  0  0  0  0  0  0  0  0  0  0
   13.5199    1.0041    0.8899 H   0  0  0  0  0  0  0  0  0  0  0  0
   16.1301    0.7704   -0.7536 H   0  0  0  0  0  0  0  0  0  0  0  0
   15.8950    1.8297    0.6597 H   0  0  0  0  0  0  0  0  0  0  0  0
   17.0847    3.0641   -1.3887 H   0  0  0  0  0  0  0  0  0  0  0  0
   16.1264    4.4308   -1.9852 H   0  0  0  0  0  0  0  0  0  0  0  0
   15.5688    3.1693   -4.0753 H   0  0  0  0  0  0  0  0  0  0  0  0
   20.6711    3.2170   -5.1268 H   0  0  0  0  0  0  0  0  0  0  0  0
   21.1068    1.7853   -4.1611 H   0  0  0  0  0  0  0  0  0  0  0  0
   20.8394    3.3595   -3.3677 H   0  0  0  0  0  0  0  0  0  0  0  0
   20.1587   -0.1231   -4.1376 H   0  0  0  0  0  0  0  0  0  0  0  0
   18.6056   -0.9528   -4.0976 H   0  0  0  0  0  0  0  0  0  0  0  0
   18.4658   -0.5869   -1.6122 H   0  0  0  0  0  0  0  0  0  0  0  0
   20.0275    0.2316   -1.6393 H   0  0  0  0  0  0  0  0  0  0  0  0
   19.5512   -2.7116   -2.4952 H   0  0  0  0  0  0  0  0  0  0  0  0
   20.1389   -2.1986   -0.8968 H   0  0  0  0  0  0  0  0  0  0  0  0
   23.8719   -3.0668   -4.0599 H   0  0  0  0  0  0  0  0  0  0  0  0
   22.3843   -5.5247   -5.2155 H   0  0  0  0  0  0  0  0  0  0  0  0
   24.1705   -5.0453   -5.5319 H   0  0  0  0  0  0  0  0  0  0  0  0
  1  2  2  0
  1 35  1  0
  1 36  1  0
  2  3  1  0
  2 37  1  0
  3  4  2  0
  3  5  1  0
  5  6  1  0
  6  7  1  0
  6 38  1  0
  6 39  1  0
  7  8  1  0
  7 40  1  0
  7 41  1  0
  8  9  1  0
  8 42  1  0
  8 43  1  0
  9 10  2  0
  9 34  1  0
 10 11  1  0
 10 12  1  0
 11 44  1  0
 11 45  1  0
 11 46  1  0
 12 13  1  0
 13 14  1  0
 13 34  1  0
 13 47  1  6
 14 15  1  0
 14 48  1  0
 14 49  1  0
 15 16  1  0
 16 17  1  0
 16 50  1  0
 16 51  1  0
 17 18  1  0
 17 52  1  0
 17 53  1  0
 18 19  1  0
 19 20  1  0
 19 54  1  0
 19 55  1  0
 20 21  1  0
 20 33  1  0
 20 56  1  6
 21 22  1  0
 22 23  1  0
 22 24  2  0
 23 57  1  0
 23 58  1  0
 23 59  1  0
 24 25  1  0
 24 33  1  0
 25 26  1  0
 25 60  1  0
 25 61  1  0
 26 27  1  0
 26 62  1  0
 26 63  1  0
 27 28  1  0
 27 64  1  0
 27 65  1  0
 28 29  2  0
 29 30  1  0
 29 31  1  0
 31 32  2  0
 31 66  1  0
 32 67  1  0
 32 68  1  0
M  CHG  2  28   1  30  -1
M  END

