
     RDKit          3D

 54 56  0  0  0  0  0  0  0  0999 V2000
    8.4754    0.5240    3.3044 C   0  0  0  0  0  0  0  0  0  0  0  0
    7.2219   -0.1059    2.7773 C   0  0  0  0  0  0  0  0  0  0  0  0
    6.0153   -0.3942    3.4709 C   0  0  0  0  0  0  0  0  0  0  0  0
    5.1735   -0.9660    2.5292 C   0  0  0  0  0  0  0  0  0  0  0  0
    3.7762   -1.4842    2.6525 C   0  0  0  0  0  0  0  0  0  0  0  0
    5.8841   -0.9822    1.3604 N   0  0  0  0  0  0  0  0  0  0  0  0
    5.5076   -1.5427    0.0801 C   0  0  0  0  0  0  0  0  0  0  0  0
    6.0345   -2.9592   -0.1324 C   0  0  2  0  0  0  0  0  0  0  0  0
    5.7879   -3.4615   -1.5534 C   0  0  0  0  0  0  0  0  0  0  0  0
    6.1708   -4.8639   -1.6758 N   0  0  0  0  0  0  0  0  0  0  0  0
    6.7387   -5.2742   -2.8792 C   0  0  0  0  0  0  0  0  0  0  0  0
    7.1538   -4.4680   -3.7025 O   0  0  0  0  0  0  0  0  0  0  0  0
    6.8292   -6.6306   -3.0892 N   0  0  0  0  0  0  0  0  0  0  0  0
    7.4780   -7.1635   -4.2884 C   0  0  1  0  0  0  0  0  0  0  0  0
    7.8912   -8.6260   -4.0616 C   0  0  0  0  0  0  0  0  0  0  0  0
    6.7003   -9.5990   -4.0436 C   0  0  0  0  0  0  0  0  0  0  0  0
    5.8070   -9.4602   -5.2890 C   0  0  2  0  0  0  0  0  0  0  0  0
    6.4856  -10.0708   -6.5249 C   0  0  0  0  0  0  0  0  0  0  0  0
    7.5135  -10.6920   -6.4985 O   0  0  0  0  0  0  0  0  0  0  0  0
    5.8293   -9.9037   -7.6963 O   0  0  0  0  0  0  0  0  0  0  0  0
    5.3847   -7.9855   -5.4889 C   0  0  0  0  0  0  0  0  0  0  0  0
    6.5896   -7.0413   -5.5445 C   0  0  0  0  0  0  0  0  0  0  0  0
    5.6364   -5.7455   -0.6512 C   0  0  0  0  0  0  0  0  0  0  0  0
    5.8699   -5.1360    0.7343 C   0  0  0  0  0  0  0  0  0  0  0  0
    5.3857   -3.8144    0.8045 O   0  0  0  0  0  0  0  0  0  0  0  0
    7.1263   -0.4727    1.5027 N   0  0  0  0  0  0  0  0  0  0  0  0
    8.2892    1.5434    3.6818 H   0  0  0  0  0  0  0  0  0  0  0  0
    9.2267    0.5840    2.5045 H   0  0  0  0  0  0  0  0  0  0  0  0
    8.9010   -0.0586    4.1384 H   0  0  0  0  0  0  0  0  0  0  0  0
    5.7839   -0.2072    4.5178 H   0  0  0  0  0  0  0  0  0  0  0  0
    3.4444   -1.4186    3.6978 H   0  0  0  0  0  0  0  0  0  0  0  0
    3.7135   -2.5351    2.3306 H   0  0  0  0  0  0  0  0  0  0  0  0
    3.0644   -0.9022    2.0411 H   0  0  0  0  0  0  0  0  0  0  0  0
    5.9151   -0.8868   -0.7032 H   0  0  0  0  0  0  0  0  0  0  0  0
    4.4108   -1.5424   -0.0038 H   0  0  0  0  0  0  0  0  0  0  0  0
    7.1239   -2.9599    0.0681 H   0  0  0  0  0  0  0  0  0  0  0  0
    6.3751   -2.8928   -2.2852 H   0  0  0  0  0  0  0  0  0  0  0  0
    4.7125   -3.3338   -1.7977 H   0  0  0  0  0  0  0  0  0  0  0  0
    6.3360   -7.2741   -2.4873 H   0  0  0  0  0  0  0  0  0  0  0  0
    8.3756   -6.5491   -4.4522 H   0  0  0  0  0  0  0  0  0  0  0  0
    8.4655   -8.7093   -3.1241 H   0  0  0  0  0  0  0  0  0  0  0  0
    8.5691   -8.9243   -4.8756 H   0  0  0  0  0  0  0  0  0  0  0  0
    6.0712   -9.4291   -3.1506 H   0  0  0  0  0  0  0  0  0  0  0  0
    7.0709  -10.6316   -3.9700 H   0  0  0  0  0  0  0  0  0  0  0  0
    4.8930  -10.0663   -5.1400 H   0  0  0  0  0  0  0  0  0  0  0  0
    5.0252   -9.3819   -7.5635 H   0  0  0  0  0  0  0  0  0  0  0  0
    4.7332   -7.6997   -4.6453 H   0  0  0  0  0  0  0  0  0  0  0  0
    4.7565   -7.8567   -6.3887 H   0  0  0  0  0  0  0  0  0  0  0  0
    6.2675   -5.9949   -5.6492 H   0  0  0  0  0  0  0  0  0  0  0  0
    7.2062   -7.2737   -6.4310 H   0  0  0  0  0  0  0  0  0  0  0  0
    6.1498   -6.7175   -0.6777 H   0  0  0  0  0  0  0  0  0  0  0  0
    4.5501   -5.9224   -0.7959 H   0  0  0  0  0  0  0  0  0  0  0  0
    6.9542   -5.1595    0.9635 H   0  0  0  0  0  0  0  0  0  0  0  0
    5.3384   -5.7195    1.5014 H   0  0  0  0  0  0  0  0  0  0  0  0
  1  2  1  0
  1 27  1  0
  1 28  1  0
  1 29  1  0
  2  3  1  0
  2 26  2  0
  3  4  2  0
  3 30  1  0
  4  5  1  0
  4  6  1  0
  5 31  1  0
  5 32  1  0
  5 33  1  0
  6  7  1  0
  6 26  1  0
  7  8  1  0
  7 34  1  0
  7 35  1  0
  8  9  1  0
  8 25  1  0
  8 36  1  1
  9 10  1  0
  9 37  1  0
  9 38  1  0
 10 11  1  0
 10 23  1  0
 11 12  2  0
 11 13  1  0
 13 14  1  0
 13 39  1  0
 14 15  1  0
 14 22  1  0
 14 40  1  6
 15 16  1  0
 15 41  1  0
 15 42  1  0
 16 17  1  0
 16 43  1  0
 16 44  1  0
 17 18  1  0
 17 21  1  0
 17 45  1  1
 18 19  2  0
 18 20  1  0
 20 46  1  0
 21 22  1  0
 21 47  1  0
 21 48  1  0
 22 49  1  0
 22 50  1  0
 23 24  1  0
 23 51  1  0
 23 52  1  0
 24 25  1  0
 24 53  1  0
 24 54  1  0
M  END

