
     RDKit          3D

 66 71  0  0  0  0  0  0  0  0999 V2000
    7.8710    1.0677   -1.0270 C   0  0  0  0  0  0  0  0  0  0  0  0
    6.9194    0.6438    0.0929 C   0  0  0  0  0  0  0  0  0  0  0  0
    5.5405    1.3017   -0.0172 C   0  0  0  0  0  0  0  0  0  0  0  0
    4.5363    0.8763    1.0616 C   0  0  0  0  0  0  0  0  0  0  0  0
    4.9542    1.1837    2.4358 N   0  0  0  0  0  0  0  0  0  0  0  0
    5.2563    2.4244    2.9683 C   0  0  0  0  0  0  0  0  0  0  0  0
    4.9499    3.7401    2.3794 C   0  0  0  0  0  0  0  0  0  0  0  0
    3.8068    4.0079    1.5993 C   0  0  0  0  0  0  0  0  0  0  0  0
    3.5556    5.2848    1.1076 C   0  0  0  0  0  0  0  0  0  0  0  0
    4.4394    6.3420    1.3883 C   0  0  0  0  0  0  0  0  0  0  0  0
    4.1576    7.6684    0.8564 C   0  0  0  0  0  0  0  0  0  0  0  0
    3.1638    8.0455    0.1028 N   0  0  0  0  0  0  0  0  0  0  0  0
    3.3290    9.3870   -0.1377 N   0  0  0  0  0  0  0  0  0  0  0  0
    4.4142    9.7545    0.4813 C   0  0  0  0  0  0  0  0  0  0  0  0
    5.0234   11.0791    0.5373 C   0  0  0  0  0  0  0  0  0  0  0  0
    4.4092   12.1445   -0.1478 C   0  0  0  0  0  0  0  0  0  0  0  0
    4.9753   13.4171   -0.1066 C   0  0  0  0  0  0  0  0  0  0  0  0
    6.1545   13.6423    0.6142 C   0  0  0  0  0  0  0  0  0  0  0  0
    6.7670   12.5862    1.2959 C   0  0  0  0  0  0  0  0  0  0  0  0
    6.2072   11.3081    1.2603 C   0  0  0  0  0  0  0  0  0  0  0  0
    4.9917    8.7084    1.1344 O   0  0  0  0  0  0  0  0  0  0  0  0
    5.5712    6.0904    2.1852 C   0  0  0  0  0  0  0  0  0  0  0  0
    5.8175    4.8120    2.6731 C   0  0  0  0  0  0  0  0  0  0  0  0
    5.8676    2.3032    4.1315 N   0  0  0  0  0  0  0  0  0  0  0  0
    5.9682    0.9665    4.4037 C   0  0  0  0  0  0  0  0  0  0  0  0
    6.5688    0.5080    5.6730 C   0  0  0  0  0  0  0  0  0  0  0  0
    6.2967   -0.7524    6.2383 C   0  0  0  0  0  0  0  0  0  0  0  0
    6.8835   -1.1352    7.4466 C   0  0  0  0  0  0  0  0  0  0  0  0
    7.7487   -0.2681    8.1202 C   0  0  0  0  0  0  0  0  0  0  0  0
    8.0143    0.9933    7.5768 C   0  0  0  0  0  0  0  0  0  0  0  0
    7.4294    1.3784    6.3705 C   0  0  0  0  0  0  0  0  0  0  0  0
    5.4139    0.2378    3.3493 C   0  0  0  0  0  0  0  0  0  0  0  0
    5.2953   -1.2201    3.1271 C   0  0  0  0  0  0  0  0  0  0  0  0
    4.0354   -1.8415    3.0269 C   0  0  0  0  0  0  0  0  0  0  0  0
    3.9319   -3.2204    2.8265 C   0  0  0  0  0  0  0  0  0  0  0  0
    5.0854   -4.0046    2.7295 C   0  0  0  0  0  0  0  0  0  0  0  0
    6.3428   -3.4010    2.8324 C   0  0  0  0  0  0  0  0  0  0  0  0
    6.4477   -2.0219    3.0260 C   0  0  0  0  0  0  0  0  0  0  0  0
    8.8556    0.5853   -0.9220 H   0  0  0  0  0  0  0  0  0  0  0  0
    8.0330    2.1585   -1.0235 H   0  0  0  0  0  0  0  0  0  0  0  0
    7.4719    0.7971   -2.0190 H   0  0  0  0  0  0  0  0  0  0  0  0
    7.3687    0.8948    1.0695 H   0  0  0  0  0  0  0  0  0  0  0  0
    6.8025   -0.4546    0.0872 H   0  0  0  0  0  0  0  0  0  0  0  0
    5.0871    1.0468   -0.9922 H   0  0  0  0  0  0  0  0  0  0  0  0
    5.6490    2.3991   -0.0138 H   0  0  0  0  0  0  0  0  0  0  0  0
    4.3851   -0.2097    1.0155 H   0  0  0  0  0  0  0  0  0  0  0  0
    3.5561    1.3330    0.8669 H   0  0  0  0  0  0  0  0  0  0  0  0
    3.0803    3.2208    1.3971 H   0  0  0  0  0  0  0  0  0  0  0  0
    2.6651    5.4860    0.5095 H   0  0  0  0  0  0  0  0  0  0  0  0
    3.4905   11.9527   -0.7049 H   0  0  0  0  0  0  0  0  0  0  0  0
    4.4944   14.2407   -0.6401 H   0  0  0  0  0  0  0  0  0  0  0  0
    6.5954   14.6419    0.6443 H   0  0  0  0  0  0  0  0  0  0  0  0
    7.6871   12.7584    1.8597 H   0  0  0  0  0  0  0  0  0  0  0  0
    6.6841   10.4830    1.7924 H   0  0  0  0  0  0  0  0  0  0  0  0
    6.2601    6.9041    2.4190 H   0  0  0  0  0  0  0  0  0  0  0  0
    6.6893    4.6174    3.2988 H   0  0  0  0  0  0  0  0  0  0  0  0
    5.6068   -1.4354    5.7417 H   0  0  0  0  0  0  0  0  0  0  0  0
    6.6543   -2.1173    7.8687 H   0  0  0  0  0  0  0  0  0  0  0  0
    8.2063   -0.5699    9.0659 H   0  0  0  0  0  0  0  0  0  0  0  0
    8.6821    1.6841    8.0987 H   0  0  0  0  0  0  0  0  0  0  0  0
    7.6239    2.3654    5.9482 H   0  0  0  0  0  0  0  0  0  0  0  0
    3.1300   -1.2368    3.1241 H   0  0  0  0  0  0  0  0  0  0  0  0
    2.9451   -3.6853    2.7551 H   0  0  0  0  0  0  0  0  0  0  0  0
    5.0045   -5.0837    2.5764 H   0  0  0  0  0  0  0  0  0  0  0  0
    7.2491   -4.0075    2.7582 H   0  0  0  0  0  0  0  0  0  0  0  0
    7.4307   -1.5527    3.1046 H   0  0  0  0  0  0  0  0  0  0  0  0
  1  2  1  0
  1 39  1  0
  1 40  1  0
  1 41  1  0
  2  3  1  0
  2 42  1  0
  2 43  1  0
  3  4  1  0
  3 44  1  0
  3 45  1  0
  4  5  1  0
  4 46  1  0
  4 47  1  0
  5  6  1  0
  5 32  1  0
  6  7  1  0
  6 24  2  0
  7  8  2  0
  7 23  1  0
  8  9  1  0
  8 48  1  0
  9 10  2  0
  9 49  1  0
 10 11  1  0
 10 22  1  0
 11 12  2  0
 11 21  1  0
 12 13  1  0
 13 14  2  0
 14 15  1  0
 14 21  1  0
 15 16  2  0
 15 20  1  0
 16 17  1  0
 16 50  1  0
 17 18  2  0
 17 51  1  0
 18 19  1  0
 18 52  1  0
 19 20  2  0
 19 53  1  0
 20 54  1  0
 22 23  2  0
 22 55  1  0
 23 56  1  0
 24 25  1  0
 25 26  1  0
 25 32  2  0
 26 27  2  0
 26 31  1  0
 27 28  1  0
 27 57  1  0
 28 29  2  0
 28 58  1  0
 29 30  1  0
 29 59  1  0
 30 31  2  0
 30 60  1  0
 31 61  1  0
 32 33  1  0
 33 34  2  0
 33 38  1  0
 34 35  1  0
 34 62  1  0
 35 36  2  0
 35 63  1  0
 36 37  1  0
 36 64  1  0
 37 38  2  0
 37 65  1  0
 38 66  1  0
M  END

