
     RDKit          3D

 52 54  0  0  0  0  0  0  0  0999 V2000
    3.6040   -0.6362   -4.8182 C   0  0  0  0  0  0  0  0  0  0  0  0
    3.4896    0.5083   -3.8657 C   0  0  0  0  0  0  0  0  0  0  0  0
    3.3314    0.4370   -2.5556 N   0  0  0  0  0  0  0  0  0  0  0  0
    3.2693    1.7430   -2.1528 C   0  0  0  0  0  0  0  0  0  0  0  0
    3.0391    2.1655   -0.7205 C   0  0  1  0  0  0  0  0  0  0  0  0
    3.3896    1.0569    0.2870 C   0  0  0  0  0  0  0  0  0  0  0  0
    4.9058    0.8945    0.4238 C   0  0  0  0  0  0  0  0  0  0  0  0
    5.5852    2.2371    0.7077 C   0  0  0  0  0  0  0  0  0  0  0  0
    5.2286    3.2262   -0.2998 N   0  0  0  0  0  0  0  0  0  0  0  0
    6.1130    4.3937   -0.3677 C   0  0  1  0  0  0  0  0  0  0  0  0
    5.9167    5.2048   -1.6512 C   0  0  0  0  0  0  0  0  0  0  0  0
    5.9041    5.3219    0.8594 C   0  0  0  0  0  0  0  0  0  0  0  0
    4.8865    6.0008    0.9068 O   0  0  0  0  0  0  0  0  0  0  0  0
    6.7926    5.3119    1.9213 N   0  0  0  0  0  0  0  0  0  0  0  0
    6.4638    6.1129    3.0952 C   0  0  0  0  0  0  0  0  0  0  0  0
    8.0848    4.6380    1.9695 C   0  0  0  0  0  0  0  0  0  0  0  0
    9.2719    5.5899    1.9654 C   0  0  0  0  0  0  0  0  0  0  0  0
    9.6196    6.2590    0.7829 C   0  0  0  0  0  0  0  0  0  0  0  0
    8.8933    6.0006   -0.3194 F   0  0  0  0  0  0  0  0  0  0  0  0
   10.6743    7.1583    0.6824 C   0  0  0  0  0  0  0  0  0  0  0  0
   11.4390    7.4138    1.8228 C   0  0  0  0  0  0  0  0  0  0  0  0
   11.1448    6.7731    3.0264 C   0  0  0  0  0  0  0  0  0  0  0  0
   10.0722    5.8755    3.0859 C   0  0  0  0  0  0  0  0  0  0  0  0
    9.7536    5.0958    4.6257 Cl  0  0  0  0  0  0  0  0  0  0  0  0
    3.7901    3.4636   -0.3709 C   0  0  0  0  0  0  0  0  0  0  0  0
    3.3804    2.6131   -3.1468 N   0  0  0  0  0  0  0  0  0  0  0  0
    3.5183    1.8149   -4.2266 N   0  0  0  0  0  0  0  0  0  0  0  0
    3.6357    2.2208   -5.1479 H   0  0  0  0  0  0  0  0  0  0  0  0
    3.7412   -1.5612   -4.2438 H   0  0  0  0  0  0  0  0  0  0  0  0
    4.4589   -0.5150   -5.5027 H   0  0  0  0  0  0  0  0  0  0  0  0
    2.6939   -0.7452   -5.4319 H   0  0  0  0  0  0  0  0  0  0  0  0
    1.9600    2.3869   -0.6252 H   0  0  0  0  0  0  0  0  0  0  0  0
    2.9260    0.1068   -0.0162 H   0  0  0  0  0  0  0  0  0  0  0  0
    2.9610    1.3369    1.2655 H   0  0  0  0  0  0  0  0  0  0  0  0
    5.3142    0.4751   -0.5100 H   0  0  0  0  0  0  0  0  0  0  0  0
    5.1452    0.1834    1.2328 H   0  0  0  0  0  0  0  0  0  0  0  0
    6.6801    2.1033    0.6975 H   0  0  0  0  0  0  0  0  0  0  0  0
    5.3145    2.5719    1.7380 H   0  0  0  0  0  0  0  0  0  0  0  0
    7.1332    3.9895   -0.3951 H   0  0  0  0  0  0  0  0  0  0  0  0
    4.9902    5.7929   -1.6102 H   0  0  0  0  0  0  0  0  0  0  0  0
    5.8734    4.5251   -2.5144 H   0  0  0  0  0  0  0  0  0  0  0  0
    6.7541    5.9066   -1.7798 H   0  0  0  0  0  0  0  0  0  0  0  0
    5.4282    6.4559    2.9986 H   0  0  0  0  0  0  0  0  0  0  0  0
    7.1219    6.9951    3.1816 H   0  0  0  0  0  0  0  0  0  0  0  0
    6.5792    5.5108    4.0111 H   0  0  0  0  0  0  0  0  0  0  0  0
    8.1767    3.9591    1.1165 H   0  0  0  0  0  0  0  0  0  0  0  0
    8.1349    4.0215    2.8794 H   0  0  0  0  0  0  0  0  0  0  0  0
   10.8799    7.6364   -0.2766 H   0  0  0  0  0  0  0  0  0  0  0  0
   12.2737    8.1166    1.7728 H   0  0  0  0  0  0  0  0  0  0  0  0
   11.7358    6.9611    3.9234 H   0  0  0  0  0  0  0  0  0  0  0  0
    3.5851    4.2182   -1.1389 H   0  0  0  0  0  0  0  0  0  0  0  0
    3.3870    3.8597    0.5854 H   0  0  0  0  0  0  0  0  0  0  0  0
  1  2  1  0
  1 29  1  0
  1 30  1  0
  1 31  1  0
  2  3  2  0
  2 27  1  0
  3  4  1  0
  4  5  1  0
  4 26  2  0
  5  6  1  0
  5 25  1  0
  5 32  1  6
  6  7  1  0
  6 33  1  0
  6 34  1  0
  7  8  1  0
  7 35  1  0
  7 36  1  0
  8  9  1  0
  8 37  1  0
  8 38  1  0
  9 10  1  0
  9 25  1  0
 10 11  1  0
 10 12  1  0
 10 39  1  6
 11 40  1  0
 11 41  1  0
 11 42  1  0
 12 13  2  0
 12 14  1  0
 14 15  1  0
 14 16  1  0
 15 43  1  0
 15 44  1  0
 15 45  1  0
 16 17  1  0
 16 46  1  0
 16 47  1  0
 17 18  2  0
 17 23  1  0
 18 19  1  0
 18 20  1  0
 20 21  2  0
 20 48  1  0
 21 22  1  0
 21 49  1  0
 22 23  2  0
 22 50  1  0
 23 24  1  0
 25 51  1  0
 25 52  1  0
 26 27  1  0
 27 28  1  0
M  END

