
     RDKit          3D

 74 76  0  0  0  0  0  0  0  0999 V2000
    6.9695   -0.0058   -2.3130 C   0  0  0  0  0  0  0  0  0  0  0  0
    5.6998    0.6534   -2.0745 N   0  0  0  0  0  0  0  0  0  0  0  0
    5.2213    0.5678   -0.7121 C   0  0  0  0  0  0  0  0  0  0  0  0
    3.9562    1.4404   -0.4846 C   0  0  1  0  0  0  0  0  0  0  0  0
    2.8329    1.0866   -1.3573 N   0  0  0  0  0  0  0  0  0  0  0  0
    2.3958   -0.2993   -1.4008 C   0  0  0  0  0  0  0  0  0  0  0  0
    3.4929    1.2284    0.8774 N   0  0  0  0  0  0  0  0  0  0  0  0
    4.3897    1.5611    1.9727 C   0  0  0  0  0  0  0  0  0  0  0  0
    4.3581    2.8201   -0.7982 N   0  0  0  0  0  0  0  0  0  0  0  0
    3.6747    3.9700   -0.5310 C   0  0  0  0  0  0  0  0  0  0  0  0
    2.2717    3.9525   -0.2921 C   0  0  0  0  0  0  0  0  0  0  0  0
    1.5781    5.1141    0.0041 C   0  0  0  0  0  0  0  0  0  0  0  0
    2.2275    6.3520    0.0658 C   0  0  0  0  0  0  0  0  0  0  0  0
    3.5986    6.4151   -0.1849 C   0  0  0  0  0  0  0  0  0  0  0  0
    4.3529    5.2429   -0.4907 C   0  0  0  0  0  0  0  0  0  0  0  0
    5.8003    5.3385   -0.7461 C   0  0  0  0  0  0  0  0  0  0  0  0
    6.4733    4.3487   -1.0539 O   0  0  0  0  0  0  0  0  0  0  0  0
    6.5250    6.6649   -0.5355 C   0  0  2  0  0  0  0  0  0  0  0  0
    5.6113    7.8883   -0.3423 C   0  0  0  0  0  0  0  0  0  0  0  0
    4.2575    7.7283   -0.1306 C   0  0  0  0  0  0  0  0  0  0  0  0
    3.4603    8.7601    0.1100 O   0  0  0  0  0  0  0  0  0  0  0  0
    6.1515    9.2770   -0.3391 C   0  0  0  0  0  0  0  0  0  0  0  0
    5.4595   10.2768   -0.1374 O   0  0  0  0  0  0  0  0  0  0  0  0
    7.6170    9.1299   -0.6401 C   0  0  0  0  0  0  0  0  0  0  0  0
    7.6958    8.3563   -1.7459 C   0  0  0  0  0  0  0  0  0  0  0  0
    7.8633    6.8719   -1.4863 C   0  0  1  0  0  0  0  0  0  0  0  0
    8.9453    6.5543   -0.6423 O   0  0  0  0  0  0  0  0  0  0  0  0
    7.8187    6.0939   -2.6931 N   0  0  0  0  0  0  0  0  0  0  0  0
    8.8703    6.2744   -3.6943 C   0  0  1  0  0  0  0  0  0  0  0  0
    9.1742    4.8885   -4.3175 C   0  0  0  0  0  0  0  0  0  0  0  0
    7.9696    4.2190   -4.7537 N   0  0  0  0  0  0  0  0  0  0  0  0
    8.1860    2.9125   -5.3390 C   0  0  0  0  0  0  0  0  0  0  0  0
    8.3354    7.2545   -4.6492 N   0  0  0  0  0  0  0  0  0  0  0  0
    9.0218    7.5203   -5.8975 C   0  0  0  0  0  0  0  0  0  0  0  0
   10.1210    6.8344   -3.1103 N   0  0  0  0  0  0  0  0  0  0  0  0
   11.4490    6.4124   -3.5423 C   0  0  0  0  0  0  0  0  0  0  0  0
    7.2369    0.0720   -3.3785 H   0  0  0  0  0  0  0  0  0  0  0  0
    6.9904   -1.0829   -2.0333 H   0  0  0  0  0  0  0  0  0  0  0  0
    7.7656    0.4961   -1.7381 H   0  0  0  0  0  0  0  0  0  0  0  0
    4.9934    0.3031   -2.7188 H   0  0  0  0  0  0  0  0  0  0  0  0
    6.0246    0.9282   -0.0497 H   0  0  0  0  0  0  0  0  0  0  0  0
    4.9779   -0.4628   -0.3771 H   0  0  0  0  0  0  0  0  0  0  0  0
    2.9890    1.4797   -2.2823 H   0  0  0  0  0  0  0  0  0  0  0  0
    2.1952   -0.6488   -0.3785 H   0  0  0  0  0  0  0  0  0  0  0  0
    3.1188   -1.0082   -1.8582 H   0  0  0  0  0  0  0  0  0  0  0  0
    1.4575   -0.3664   -1.9741 H   0  0  0  0  0  0  0  0  0  0  0  0
    2.5945    1.6889    0.9923 H   0  0  0  0  0  0  0  0  0  0  0  0
    4.8640    2.5595    1.8844 H   0  0  0  0  0  0  0  0  0  0  0  0
    5.1942    0.8151    2.0735 H   0  0  0  0  0  0  0  0  0  0  0  0
    3.8199    1.5410    2.9136 H   0  0  0  0  0  0  0  0  0  0  0  0
    5.3325    2.9670   -1.0684 H   0  0  0  0  0  0  0  0  0  0  0  0
    1.7429    3.0080   -0.4112 H   0  0  0  0  0  0  0  0  0  0  0  0
    0.4992    5.0609    0.1749 H   0  0  0  0  0  0  0  0  0  0  0  0
    1.6837    7.2674    0.2931 H   0  0  0  0  0  0  0  0  0  0  0  0
    7.0394    6.4954    0.4298 H   0  0  0  0  0  0  0  0  0  0  0  0
    4.0422    9.5810    0.0864 H   0  0  0  0  0  0  0  0  0  0  0  0
    8.2090    8.7893    0.2216 H   0  0  0  0  0  0  0  0  0  0  0  0
    6.9870    8.5506   -2.5588 H   0  0  0  0  0  0  0  0  0  0  0  0
    9.7078    6.5804   -1.2613 H   0  0  0  0  0  0  0  0  0  0  0  0
    7.6474    5.1119   -2.4859 H   0  0  0  0  0  0  0  0  0  0  0  0
    9.6597    4.2618   -3.5495 H   0  0  0  0  0  0  0  0  0  0  0  0
    9.9196    5.0139   -5.1326 H   0  0  0  0  0  0  0  0  0  0  0  0
    7.4420    4.8162   -5.3879 H   0  0  0  0  0  0  0  0  0  0  0  0
    8.5969    2.2252   -4.5802 H   0  0  0  0  0  0  0  0  0  0  0  0
    8.8887    2.9022   -6.2034 H   0  0  0  0  0  0  0  0  0  0  0  0
    7.2269    2.4899   -5.6768 H   0  0  0  0  0  0  0  0  0  0  0  0
    7.3367    7.1033   -4.7580 H   0  0  0  0  0  0  0  0  0  0  0  0
    9.1059    6.6563   -6.5917 H   0  0  0  0  0  0  0  0  0  0  0  0
   10.0435    7.8864   -5.7077 H   0  0  0  0  0  0  0  0  0  0  0  0
    8.4941    8.3240   -6.4345 H   0  0  0  0  0  0  0  0  0  0  0  0
   10.0354    7.8494   -3.1519 H   0  0  0  0  0  0  0  0  0  0  0  0
   11.6520    6.5201   -4.6257 H   0  0  0  0  0  0  0  0  0  0  0  0
   11.6441    5.3651   -3.2681 H   0  0  0  0  0  0  0  0  0  0  0  0
   12.1919    7.0224   -3.0052 H   0  0  0  0  0  0  0  0  0  0  0  0
  1  2  1  0
  1 37  1  0
  1 38  1  0
  1 39  1  0
  2  3  1  0
  2 40  1  0
  3  4  1  0
  3 41  1  0
  3 42  1  0
  4  5  1  6
  4  7  1  0
  4  9  1  0
  5  6  1  0
  5 43  1  0
  6 44  1  0
  6 45  1  0
  6 46  1  0
  7  8  1  0
  7 47  1  0
  8 48  1  0
  8 49  1  0
  8 50  1  0
  9 10  1  0
  9 51  1  0
 10 11  2  0
 10 15  1  0
 11 12  1  0
 11 52  1  0
 12 13  2  0
 12 53  1  0
 13 14  1  0
 13 54  1  0
 14 15  2  0
 14 20  1  0
 15 16  1  0
 16 17  2  0
 16 18  1  0
 18 19  1  0
 18 26  1  0
 18 55  1  1
 19 20  2  0
 19 22  1  0
 20 21  1  0
 21 56  1  0
 22 23  2  0
 22 24  1  0
 24 25  2  0
 24 57  1  0
 25 26  1  0
 25 58  1  0
 26 27  1  1
 26 28  1  0
 27 59  1  0
 29 28  1  1
 28 60  1  0
 29 30  1  0
 29 33  1  0
 29 35  1  0
 30 31  1  0
 30 61  1  0
 30 62  1  0
 31 32  1  0
 31 63  1  0
 32 64  1  0
 32 65  1  0
 32 66  1  0
 33 34  1  0
 33 67  1  0
 34 68  1  0
 34 69  1  0
 34 70  1  0
 35 36  1  0
 35 71  1  0
 36 72  1  0
 36 73  1  0
 36 74  1  0
M  END

