
     RDKit          3D

 40 42  0  0  0  0  0  0  0  0999 V2000
    4.0604    4.4053    3.1005 C   0  0  0  0  0  0  0  0  0  0  0  0
    4.4278    3.0562    3.6904 C   0  0  0  0  0  0  0  0  0  0  0  0
    4.7095    2.9472    4.8682 O   0  0  0  0  0  0  0  0  0  0  0  0
    4.4371    1.8525    2.7865 C   0  0  0  0  0  0  0  0  0  0  0  0
    4.1276    1.9155    1.4177 C   0  0  0  0  0  0  0  0  0  0  0  0
    4.1609    0.7493    0.6508 C   0  0  0  0  0  0  0  0  0  0  0  0
    4.4968   -0.4827    1.2152 C   0  0  0  0  0  0  0  0  0  0  0  0
    4.8069   -0.5527    2.5881 C   0  0  0  0  0  0  0  0  0  0  0  0
    5.1548   -1.7477    3.2447 N   0  0  0  0  0  0  0  0  0  0  0  0
    5.2387   -3.0197    2.7303 C   0  0  0  0  0  0  0  0  0  0  0  0
    5.0870   -3.2973    1.5522 O   0  0  0  0  0  0  0  0  0  0  0  0
    5.6244   -4.0857    3.7081 C   0  0  0  0  0  0  0  0  0  0  0  0
    6.4484   -5.1804    3.3365 C   0  0  0  0  0  0  0  0  0  0  0  0
    6.6759   -5.9904    4.3529 N   0  0  0  0  0  0  0  0  0  0  0  0
    6.0057   -5.4684    5.3979 N   0  0  0  0  0  0  0  0  0  0  0  0
    6.1518   -6.0871    6.6765 C   0  0  0  0  0  0  0  0  0  0  0  0
    6.3478   -7.4727    6.7514 C   0  0  0  0  0  0  0  0  0  0  0  0
    6.5179   -8.0221    8.0204 C   0  0  0  0  0  0  0  0  0  0  0  0
    6.4752   -7.1849    9.1403 C   0  0  0  0  0  0  0  0  0  0  0  0
    6.2700   -5.8183    8.9368 C   0  0  0  0  0  0  0  0  0  0  0  0
    6.1239   -5.2787    7.7247 N   0  0  0  0  0  0  0  0  0  0  0  0
    5.3352   -4.3192    5.0518 C   0  0  0  0  0  0  0  0  0  0  0  0
    4.3556   -3.5900    5.9386 C   0  0  1  0  0  0  0  0  0  0  0  0
    3.4334   -2.9761    5.1718 F   0  0  0  0  0  0  0  0  0  0  0  0
    3.6944   -4.4094    6.7598 F   0  0  0  0  0  0  0  0  0  0  0  0
    4.9431   -2.6295    6.6717 F   0  0  0  0  0  0  0  0  0  0  0  0
    4.7726    0.6185    3.3575 C   0  0  0  0  0  0  0  0  0  0  0  0
    4.1034    5.1610    3.8949 H   0  0  0  0  0  0  0  0  0  0  0  0
    3.0469    4.3843    2.6684 H   0  0  0  0  0  0  0  0  0  0  0  0
    4.7542    4.6843    2.2911 H   0  0  0  0  0  0  0  0  0  0  0  0
    3.8625    2.8634    0.9471 H   0  0  0  0  0  0  0  0  0  0  0  0
    3.9213    0.7940   -0.4146 H   0  0  0  0  0  0  0  0  0  0  0  0
    4.5260   -1.3890    0.6153 H   0  0  0  0  0  0  0  0  0  0  0  0
    5.3569   -1.6415    4.2320 H   0  0  0  0  0  0  0  0  0  0  0  0
    6.8785   -5.3714    2.3546 H   0  0  0  0  0  0  0  0  0  0  0  0
    6.3716   -8.0738    5.8432 H   0  0  0  0  0  0  0  0  0  0  0  0
    6.6757   -9.0974    8.1340 H   0  0  0  0  0  0  0  0  0  0  0  0
    6.6009   -7.5807   10.1501 H   0  0  0  0  0  0  0  0  0  0  0  0
    6.2323   -5.1255    9.7845 H   0  0  0  0  0  0  0  0  0  0  0  0
    5.0044    0.6003    4.4257 H   0  0  0  0  0  0  0  0  0  0  0  0
  1  2  1  0
  1 28  1  0
  1 29  1  0
  1 30  1  0
  2  3  2  0
  2  4  1  0
  4  5  2  0
  4 27  1  0
  5  6  1  0
  5 31  1  0
  6  7  2  0
  6 32  1  0
  7  8  1  0
  7 33  1  0
  8  9  1  0
  8 27  2  0
  9 10  1  0
  9 34  1  0
 10 11  2  0
 10 12  1  0
 12 13  1  0
 12 22  2  0
 13 14  2  0
 13 35  1  0
 14 15  1  0
 15 16  1  0
 15 22  1  0
 16 17  2  0
 16 21  1  0
 17 18  1  0
 17 36  1  0
 18 19  2  0
 18 37  1  0
 19 20  1  0
 19 38  1  0
 20 21  2  0
 20 39  1  0
 22 23  1  0
 23 24  1  6
 23 25  1  0
 23 26  1  0
 27 40  1  0
M  END

