
     RDKit          3D

 41 43  0  0  0  0  0  0  0  0999 V2000
    1.3885   -0.9672    1.1834 O   0  0  0  0  0  0  0  0  0  0  0  0
    2.1162   -0.2993    0.4705 C   0  0  0  0  0  0  0  0  0  0  0  0
    2.3134    1.0522    0.5687 N   0  0  0  0  0  0  0  0  0  0  0  0
    1.7638    1.9703    1.4853 C   0  0  0  0  0  0  0  0  0  0  0  0
    0.8629    1.6030    2.5016 C   0  0  0  0  0  0  0  0  0  0  0  0
    0.3656    2.5772    3.3675 C   0  0  0  0  0  0  0  0  0  0  0  0
    0.7388    3.9252    3.2604 C   0  0  0  0  0  0  0  0  0  0  0  0
    0.1448    4.9736    4.1827 C   0  0  0  0  0  0  0  0  0  0  0  0
    0.0221    4.5331    5.5562 N   0  0  0  0  0  0  0  0  0  0  0  0
    1.2715    4.3558    6.2866 C   0  0  0  0  0  0  0  0  0  0  0  0
    0.8131    4.1048    7.7335 C   0  0  0  0  0  0  0  0  0  0  0  0
   -0.5738    4.8023    7.8238 C   0  0  0  0  0  0  0  0  0  0  0  0
   -0.8059    5.3722    6.4121 C   0  0  0  0  0  0  0  0  0  0  0  0
    1.6431    4.2754    2.2492 C   0  0  0  0  0  0  0  0  0  0  0  0
    2.1477    3.3172    1.3706 C   0  0  0  0  0  0  0  0  0  0  0  0
    2.9610   -0.9465   -0.6366 C   0  0  1  0  0  0  0  0  0  0  0  0
    2.3657   -2.2659   -1.1684 C   0  0  0  0  0  0  0  0  0  0  0  0
    3.1879   -2.5444   -2.7942 S   0  0  0  0  0  0  0  0  0  0  0  0
    3.9180   -0.8042   -2.7684 C   0  0  0  0  0  0  0  0  0  0  0  0
    3.2077   -0.0475   -1.7668 N   0  0  0  0  0  0  0  0  0  0  0  0
    2.9534    1.4300   -0.1262 H   0  0  0  0  0  0  0  0  0  0  0  0
    0.5654    0.5613    2.5985 H   0  0  0  0  0  0  0  0  0  0  0  0
   -0.3263    2.2896    4.1627 H   0  0  0  0  0  0  0  0  0  0  0  0
   -0.8702    5.2269    3.8250 H   0  0  0  0  0  0  0  0  0  0  0  0
    0.7403    5.9139    4.0985 H   0  0  0  0  0  0  0  0  0  0  0  0
    1.9008    5.2764    6.2338 H   0  0  0  0  0  0  0  0  0  0  0  0
    1.8662    3.5311    5.8648 H   0  0  0  0  0  0  0  0  0  0  0  0
    1.5370    4.4997    8.4620 H   0  0  0  0  0  0  0  0  0  0  0  0
    0.7151    3.0256    7.9236 H   0  0  0  0  0  0  0  0  0  0  0  0
   -0.6032    5.5938    8.5876 H   0  0  0  0  0  0  0  0  0  0  0  0
   -1.3571    4.0734    8.0798 H   0  0  0  0  0  0  0  0  0  0  0  0
   -0.4830    6.4399    6.3713 H   0  0  0  0  0  0  0  0  0  0  0  0
   -1.8609    5.3403    6.0935 H   0  0  0  0  0  0  0  0  0  0  0  0
    1.9636    5.3162    2.1447 H   0  0  0  0  0  0  0  0  0  0  0  0
    2.8548    3.6144    0.5902 H   0  0  0  0  0  0  0  0  0  0  0  0
    3.9456   -1.1748   -0.1859 H   0  0  0  0  0  0  0  0  0  0  0  0
    1.2759   -2.1839   -1.2963 H   0  0  0  0  0  0  0  0  0  0  0  0
    2.5670   -3.1052   -0.4897 H   0  0  0  0  0  0  0  0  0  0  0  0
    3.8231   -0.3473   -3.7628 H   0  0  0  0  0  0  0  0  0  0  0  0
    4.9845   -0.8818   -2.5086 H   0  0  0  0  0  0  0  0  0  0  0  0
    2.3049    0.2413   -2.1519 H   0  0  0  0  0  0  0  0  0  0  0  0
  1  2  2  0
  2  3  1  0
  2 16  1  0
  3  4  1  0
  3 21  1  0
  4  5  2  0
  4 15  1  0
  5  6  1  0
  5 22  1  0
  6  7  2  0
  6 23  1  0
  7  8  1  0
  7 14  1  0
  8  9  1  0
  8 24  1  0
  8 25  1  0
  9 10  1  0
  9 13  1  0
 10 11  1  0
 10 26  1  0
 10 27  1  0
 11 12  1  0
 11 28  1  0
 11 29  1  0
 12 13  1  0
 12 30  1  0
 12 31  1  0
 13 32  1  0
 13 33  1  0
 14 15  2  0
 14 34  1  0
 15 35  1  0
 16 17  1  0
 16 20  1  0
 16 36  1  1
 17 18  1  0
 17 37  1  0
 17 38  1  0
 18 19  1  0
 19 20  1  0
 19 39  1  0
 19 40  1  0
 20 41  1  0
M  END

