
     RDKit          3D

 43 46  0  0  0  0  0  0  0  0999 V2000
    4.4335   -3.2591   -0.2469 C   0  0  0  0  0  0  0  0  0  0  0  0
    4.4217   -1.7632   -0.3053 C   0  0  0  0  0  0  0  0  0  0  0  0
    5.4748   -1.0152   -0.4386 N   0  0  0  0  0  0  0  0  0  0  0  0
    5.1853    0.3335   -0.4591 C   0  0  0  0  0  0  0  0  0  0  0  0
    6.3415    1.2914   -0.5383 C   0  0  0  0  0  0  0  0  0  0  0  0
    6.2068    2.5046   -0.5835 O   0  0  0  0  0  0  0  0  0  0  0  0
    7.5454    0.6303   -0.5490 N   0  0  0  0  0  0  0  0  0  0  0  0
    8.8424    1.1544   -0.6146 C   0  0  0  0  0  0  0  0  0  0  0  0
    9.1079    2.5164   -0.6200 C   0  0  0  0  0  0  0  0  0  0  0  0
   10.4381    2.9903   -0.6801 C   0  0  0  0  0  0  0  0  0  0  0  0
   11.5340    2.1502   -0.7339 C   0  0  0  0  0  0  0  0  0  0  0  0
   12.9457    2.6652   -0.7943 C   0  0  0  0  0  0  0  0  0  0  0  0
   11.2901    0.7381   -0.7325 C   0  0  0  0  0  0  0  0  0  0  0  0
   12.3696   -0.0894   -0.7875 N   0  0  0  0  0  0  0  0  0  0  0  0
   12.1857   -1.3903   -0.7938 C   0  0  0  0  0  0  0  0  0  0  0  0
   10.9076   -1.9968   -0.7492 C   0  0  0  0  0  0  0  0  0  0  0  0
    9.7958   -1.1831   -0.6916 C   0  0  0  0  0  0  0  0  0  0  0  0
    9.9454    0.2292   -0.6771 C   0  0  0  0  0  0  0  0  0  0  0  0
    3.8417    0.6559   -0.3297 C   0  0  0  0  0  0  0  0  0  0  0  0
    3.0968    1.9303   -0.2948 C   0  0  0  0  0  0  0  0  0  0  0  0
    3.3814    2.9803   -1.1884 C   0  0  0  0  0  0  0  0  0  0  0  0
    2.6285    4.1541   -1.1615 C   0  0  0  0  0  0  0  0  0  0  0  0
    1.5814    4.3070   -0.2472 C   0  0  0  0  0  0  0  0  0  0  0  0
    1.2877    3.2717    0.6444 C   0  0  0  0  0  0  0  0  0  0  0  0
    2.0356    2.0939    0.6188 C   0  0  0  0  0  0  0  0  0  0  0  0
    2.9390   -0.8398   -0.1940 S   0  0  0  0  0  0  0  0  0  0  0  0
    5.4688   -3.6093   -0.3560 H   0  0  0  0  0  0  0  0  0  0  0  0
    3.8244   -3.7004   -1.0522 H   0  0  0  0  0  0  0  0  0  0  0  0
    4.0347   -3.6286    0.7117 H   0  0  0  0  0  0  0  0  0  0  0  0
    7.4358   -0.3787   -0.5043 H   0  0  0  0  0  0  0  0  0  0  0  0
    8.2762    3.2152   -0.5766 H   0  0  0  0  0  0  0  0  0  0  0  0
   10.5969    4.0725   -0.6809 H   0  0  0  0  0  0  0  0  0  0  0  0
   12.9651    3.7649   -0.7824 H   0  0  0  0  0  0  0  0  0  0  0  0
   13.4594    2.3125   -1.7029 H   0  0  0  0  0  0  0  0  0  0  0  0
   13.5421    2.2914    0.0531 H   0  0  0  0  0  0  0  0  0  0  0  0
   13.0848   -2.0187   -0.8382 H   0  0  0  0  0  0  0  0  0  0  0  0
   10.8125   -3.0847   -0.7623 H   0  0  0  0  0  0  0  0  0  0  0  0
    8.8067   -1.6472   -0.6632 H   0  0  0  0  0  0  0  0  0  0  0  0
    4.2014    2.8761   -1.8964 H   0  0  0  0  0  0  0  0  0  0  0  0
    2.8641    4.9581   -1.8633 H   0  0  0  0  0  0  0  0  0  0  0  0
    0.9974    5.2307   -0.2290 H   0  0  0  0  0  0  0  0  0  0  0  0
    0.4755    3.3811    1.3674 H   0  0  0  0  0  0  0  0  0  0  0  0
    1.8063    1.2950    1.3285 H   0  0  0  0  0  0  0  0  0  0  0  0
  1  2  1  0
  1 27  1  0
  1 28  1  0
  1 29  1  0
  2  3  2  0
  2 26  1  0
  3  4  1  0
  4  5  1  0
  4 19  2  0
  5  6  2  0
  5  7  1  0
  7  8  1  0
  7 30  1  0
  8  9  2  0
  8 18  1  0
  9 10  1  0
  9 31  1  0
 10 11  2  0
 10 32  1  0
 11 12  1  0
 11 13  1  0
 12 33  1  0
 12 34  1  0
 12 35  1  0
 13 14  1  0
 13 18  2  0
 14 15  2  0
 15 16  1  0
 15 36  1  0
 16 17  2  0
 16 37  1  0
 17 18  1  0
 17 38  1  0
 19 20  1  0
 19 26  1  0
 20 21  2  0
 20 25  1  0
 21 22  1  0
 21 39  1  0
 22 23  2  0
 22 40  1  0
 23 24  1  0
 23 41  1  0
 24 25  2  0
 24 42  1  0
 25 43  1  0
M  END

