
     RDKit          3D

 46 45  0  0  0  0  0  0  0  0999 V2000
    0.3185    0.9125   -2.6578 C   0  0  0  0  0  0  0  0  0  0  0  0
    1.2962    0.1310   -3.5380 C   0  0  0  0  0  0  0  0  0  0  0  0
    2.7382    0.1784   -3.0206 C   0  0  0  0  0  0  0  0  0  0  0  0
    3.7590   -0.6736   -3.8112 C   0  0  1  0  0  0  0  0  0  0  0  0
    3.9775   -0.0923   -5.2112 C   0  0  0  0  0  0  0  0  0  0  0  0
    5.0069   -0.8134   -3.0409 N   0  0  0  0  0  0  0  0  0  0  0  0
    4.9542   -1.7267   -1.9181 C   0  0  0  0  0  0  0  0  0  0  0  0
    6.3124   -0.6236   -3.6264 C   0  0  0  0  0  0  0  0  0  0  0  0
    6.9848   -1.7684   -4.4123 C   0  0  0  0  0  0  0  0  0  0  0  0
    8.1649   -1.7022   -4.7243 O   0  0  0  0  0  0  0  0  0  0  0  0
    6.1950   -2.8288   -4.7431 N   0  0  0  0  0  0  0  0  0  0  0  0
    6.7285   -4.0129   -5.3870 C   0  0  1  0  0  0  0  0  0  0  0  0
    5.8888   -5.2106   -4.9216 C   0  0  0  0  0  0  0  0  0  0  0  0
    6.5455   -6.5709   -4.8715 C   0  0  0  0  0  0  0  0  0  0  0  0
    4.7409   -5.0460   -4.5605 O   0  0  0  0  0  0  0  0  0  0  0  0
    6.7818   -3.8416   -6.9448 C   0  0  1  0  0  0  0  0  0  0  0  0
    7.6516   -4.8835   -7.6578 C   0  0  0  0  0  0  0  0  0  0  0  0
    5.3909   -3.7391   -7.5789 C   0  0  0  0  0  0  0  0  0  0  0  0
   -0.7094    0.8624   -3.0512 H   0  0  0  0  0  0  0  0  0  0  0  0
    0.5993    1.9773   -2.5952 H   0  0  0  0  0  0  0  0  0  0  0  0
    0.3007    0.5171   -1.6282 H   0  0  0  0  0  0  0  0  0  0  0  0
    1.2464    0.5261   -4.5674 H   0  0  0  0  0  0  0  0  0  0  0  0
    0.9687   -0.9230   -3.6041 H   0  0  0  0  0  0  0  0  0  0  0  0
    2.7364   -0.1550   -1.9697 H   0  0  0  0  0  0  0  0  0  0  0  0
    3.1037    1.2212   -3.0020 H   0  0  0  0  0  0  0  0  0  0  0  0
    3.3028   -1.6816   -3.9481 H   0  0  0  0  0  0  0  0  0  0  0  0
    4.3680    0.9370   -5.1642 H   0  0  0  0  0  0  0  0  0  0  0  0
    3.0217   -0.0581   -5.7530 H   0  0  0  0  0  0  0  0  0  0  0  0
    4.6703   -0.6996   -5.8109 H   0  0  0  0  0  0  0  0  0  0  0  0
    4.0624   -1.5405   -1.2998 H   0  0  0  0  0  0  0  0  0  0  0  0
    5.8321   -1.5745   -1.2693 H   0  0  0  0  0  0  0  0  0  0  0  0
    4.9320   -2.8032   -2.1993 H   0  0  0  0  0  0  0  0  0  0  0  0
    7.0371   -0.3709   -2.8328 H   0  0  0  0  0  0  0  0  0  0  0  0
    6.3205    0.2472   -4.2984 H   0  0  0  0  0  0  0  0  0  0  0  0
    5.2399   -2.8924   -4.4057 H   0  0  0  0  0  0  0  0  0  0  0  0
    7.7712   -4.1405   -5.0507 H   0  0  0  0  0  0  0  0  0  0  0  0
    7.1809   -6.7660   -5.7459 H   0  0  0  0  0  0  0  0  0  0  0  0
    5.7804   -7.3512   -4.7636 H   0  0  0  0  0  0  0  0  0  0  0  0
    7.2054   -6.5969   -3.9864 H   0  0  0  0  0  0  0  0  0  0  0  0
    7.2903   -2.8700   -7.0599 H   0  0  0  0  0  0  0  0  0  0  0  0
    7.1679   -5.8727   -7.7100 H   0  0  0  0  0  0  0  0  0  0  0  0
    8.6321   -5.0034   -7.1687 H   0  0  0  0  0  0  0  0  0  0  0  0
    7.8395   -4.5682   -8.6964 H   0  0  0  0  0  0  0  0  0  0  0  0
    4.8475   -4.6978   -7.5336 H   0  0  0  0  0  0  0  0  0  0  0  0
    5.4721   -3.4546   -8.6401 H   0  0  0  0  0  0  0  0  0  0  0  0
    4.7702   -2.9815   -7.0773 H   0  0  0  0  0  0  0  0  0  0  0  0
  1  2  1  0
  1 19  1  0
  1 20  1  0
  1 21  1  0
  2  3  1  0
  2 22  1  0
  2 23  1  0
  3  4  1  0
  3 24  1  0
  3 25  1  0
  4  5  1  0
  4  6  1  0
  4 26  1  6
  5 27  1  0
  5 28  1  0
  5 29  1  0
  6  7  1  0
  6  8  1  0
  7 30  1  0
  7 31  1  0
  7 32  1  0
  8  9  1  0
  8 33  1  0
  8 34  1  0
  9 10  2  0
  9 11  1  0
 11 12  1  0
 11 35  1  0
 12 13  1  0
 12 16  1  0
 12 36  1  1
 13 14  1  0
 13 15  2  0
 14 37  1  0
 14 38  1  0
 14 39  1  0
 16 17  1  0
 16 18  1  0
 16 40  1  1
 17 41  1  0
 17 42  1  0
 17 43  1  0
 18 44  1  0
 18 45  1  0
 18 46  1  0
M  END

