
     RDKit          3D

 65 71  0  0  0  0  0  0  0  0999 V2000
    6.9486   -2.0260   -4.9154 C   0  0  0  0  0  0  0  0  0  0  0  0
    6.8233   -1.5188   -3.5111 C   0  0  0  0  0  0  0  0  0  0  0  0
    7.8857   -1.3601   -2.6243 C   0  0  0  0  0  0  0  0  0  0  0  0
    7.3780   -0.8630   -1.4025 C   0  0  0  0  0  0  0  0  0  0  0  0
    8.1322   -0.5356   -0.1569 C   0  0  0  0  0  0  0  0  0  0  0  0
    6.0444   -0.7127   -1.5115 N   0  0  0  0  0  0  0  0  0  0  0  0
    5.6474   -1.1031   -2.7943 C   0  0  0  0  0  0  0  0  0  0  0  0
    4.2926   -1.0444   -3.1740 C   0  0  0  0  0  0  0  0  0  0  0  0
    3.8908   -1.4673   -4.5542 C   0  0  0  0  0  0  0  0  0  0  0  0
    3.5409   -2.8135   -4.8020 C   0  0  0  0  0  0  0  0  0  0  0  0
    3.5576   -3.8030   -3.7631 C   0  0  0  0  0  0  0  0  0  0  0  0
    3.2169   -5.1080   -4.0156 C   0  0  0  0  0  0  0  0  0  0  0  0
    2.8363   -5.5112   -5.3276 C   0  0  0  0  0  0  0  0  0  0  0  0
    2.8063   -4.5977   -6.3509 C   0  0  0  0  0  0  0  0  0  0  0  0
    3.1530   -3.2216   -6.1360 C   0  0  0  0  0  0  0  0  0  0  0  0
    3.1245   -2.2734   -7.1860 C   0  0  0  0  0  0  0  0  0  0  0  0
    2.7232   -2.6963   -8.5668 C   0  0  0  0  0  0  0  0  0  0  0  0
    1.3752   -2.6683   -8.9629 C   0  0  0  0  0  0  0  0  0  0  0  0
    1.0009   -3.0627  -10.2508 C   0  0  0  0  0  0  0  0  0  0  0  0
    1.9690   -3.4915  -11.1637 C   0  0  0  0  0  0  0  0  0  0  0  0
    3.3133   -3.5237  -10.7811 C   0  0  0  0  0  0  0  0  0  0  0  0
    3.6871   -3.1292   -9.4931 C   0  0  0  0  0  0  0  0  0  0  0  0
    3.4752   -0.9261   -6.9328 C   0  0  0  0  0  0  0  0  0  0  0  0
    3.4577    0.0669   -7.9691 C   0  0  0  0  0  0  0  0  0  0  0  0
    3.7995    1.3713   -7.7159 C   0  0  0  0  0  0  0  0  0  0  0  0
    4.1834    1.7717   -6.4039 C   0  0  0  0  0  0  0  0  0  0  0  0
    4.2140    0.8572   -5.3814 C   0  0  0  0  0  0  0  0  0  0  0  0
    3.8642   -0.5172   -5.5994 C   0  0  0  0  0  0  0  0  0  0  0  0
    3.3114   -0.5921   -2.2708 C   0  0  0  0  0  0  0  0  0  0  0  0
    1.8874   -0.4387   -2.4052 C   0  0  0  0  0  0  0  0  0  0  0  0
    1.0092   -0.7261   -3.5846 C   0  0  0  0  0  0  0  0  0  0  0  0
    1.4400    0.0506   -1.1801 C   0  0  0  0  0  0  0  0  0  0  0  0
    2.5537    0.1930   -0.3217 C   0  0  0  0  0  0  0  0  0  0  0  0
    2.5732    0.6819    1.0883 C   0  0  0  0  0  0  0  0  0  0  0  0
    3.6645   -0.1917   -0.9784 N   0  0  0  0  0  0  0  0  0  0  0  0
    5.1047   -0.1878   -0.3862 B   0  0  1  0  0  0  0  0  0  0  0  0
    5.1683   -1.0312    0.7224 F   0  0  0  0  0  0  0  0  0  0  0  0
    5.4697    1.1082   -0.0243 F   0  0  0  0  0  0  0  0  0  0  0  0
    6.5954   -1.2894   -5.6534 H   0  0  0  0  0  0  0  0  0  0  0  0
    6.3622   -2.9437   -5.0766 H   0  0  0  0  0  0  0  0  0  0  0  0
    8.0013   -2.2527   -5.1397 H   0  0  0  0  0  0  0  0  0  0  0  0
    8.9333   -1.5786   -2.8262 H   0  0  0  0  0  0  0  0  0  0  0  0
    7.7525   -1.1268    0.6911 H   0  0  0  0  0  0  0  0  0  0  0  0
    9.2039   -0.7363   -0.2886 H   0  0  0  0  0  0  0  0  0  0  0  0
    7.9906    0.5226    0.1135 H   0  0  0  0  0  0  0  0  0  0  0  0
    3.8484   -3.5033   -2.7552 H   0  0  0  0  0  0  0  0  0  0  0  0
    3.2375   -5.8431   -3.2072 H   0  0  0  0  0  0  0  0  0  0  0  0
    2.5678   -6.5534   -5.5172 H   0  0  0  0  0  0  0  0  0  0  0  0
    2.5146   -4.9118   -7.3537 H   0  0  0  0  0  0  0  0  0  0  0  0
    0.6153   -2.3335   -8.2520 H   0  0  0  0  0  0  0  0  0  0  0  0
   -0.0524   -3.0342  -10.5417 H   0  0  0  0  0  0  0  0  0  0  0  0
    1.6766   -3.7999  -12.1707 H   0  0  0  0  0  0  0  0  0  0  0  0
    4.0767   -3.8578  -11.4886 H   0  0  0  0  0  0  0  0  0  0  0  0
    4.7391   -3.1558   -9.1978 H   0  0  0  0  0  0  0  0  0  0  0  0
    3.1643   -0.2343   -8.9754 H   0  0  0  0  0  0  0  0  0  0  0  0
    3.7780    2.1085   -8.5223 H   0  0  0  0  0  0  0  0  0  0  0  0
    4.4542    2.8130   -6.2124 H   0  0  0  0  0  0  0  0  0  0  0  0
    4.5089    1.1727   -4.3796 H   0  0  0  0  0  0  0  0  0  0  0  0
    1.2915   -0.1282   -4.4649 H   0  0  0  0  0  0  0  0  0  0  0  0
   -0.0373   -0.4934   -3.3384 H   0  0  0  0  0  0  0  0  0  0  0  0
    1.0593   -1.7829   -3.8888 H   0  0  0  0  0  0  0  0  0  0  0  0
    0.4101    0.2868   -0.9167 H   0  0  0  0  0  0  0  0  0  0  0  0
    1.5591    0.9365    1.4243 H   0  0  0  0  0  0  0  0  0  0  0  0
    3.2204    1.5682    1.1809 H   0  0  0  0  0  0  0  0  0  0  0  0
    2.9970   -0.0839    1.7567 H   0  0  0  0  0  0  0  0  0  0  0  0
  1  2  1  0
  1 39  1  0
  1 40  1  0
  1 41  1  0
  2  3  1  0
  2  7  2  0
  3  4  2  0
  3 42  1  0
  4  5  1  0
  4  6  1  0
  5 43  1  0
  5 44  1  0
  5 45  1  0
  6  7  1  0
  6 36  1  0
  7  8  1  0
  8  9  1  0
  8 29  2  0
  9 10  1  0
  9 28  2  0
 10 11  2  0
 10 15  1  0
 11 12  1  0
 11 46  1  0
 12 13  2  0
 12 47  1  0
 13 14  1  0
 13 48  1  0
 14 15  2  0
 14 49  1  0
 15 16  1  0
 16 17  1  0
 16 23  2  0
 17 18  2  0
 17 22  1  0
 18 19  1  0
 18 50  1  0
 19 20  2  0
 19 51  1  0
 20 21  1  0
 20 52  1  0
 21 22  2  0
 21 53  1  0
 22 54  1  0
 23 24  1  0
 23 28  1  0
 24 25  2  0
 24 55  1  0
 25 26  1  0
 25 56  1  0
 26 27  2  0
 26 57  1  0
 27 28  1  0
 27 58  1  0
 29 30  1  0
 29 35  1  0
 30 31  1  0
 30 32  2  0
 31 59  1  0
 31 60  1  0
 31 61  1  0
 32 33  1  0
 32 62  1  0
 33 34  1  0
 33 35  2  0
 34 63  1  0
 34 64  1  0
 34 65  1  0
 35 36  1  0
 36 37  1  1
 36 38  1  0
M  CHG  2  35   1  36  -1
M  END

