
     RDKit          3D

 48 51  0  0  0  0  0  0  0  0999 V2000
    2.2053    0.5328   -0.9679 C   0  0  0  0  0  0  0  0  0  0  0  0
    3.4138   -0.2527   -0.4422 C   0  0  1  0  0  0  0  0  0  0  0  0
    4.2495   -0.8074   -1.6152 C   0  0  0  0  0  0  0  0  0  0  0  0
    4.2951    0.6099    0.5075 C   0  0  0  0  0  0  0  0  0  0  0  0
    4.7604   -0.2542    1.5576 O   0  0  0  0  0  0  0  0  0  0  0  0
    3.9056   -1.3048    1.6246 C   0  0  0  0  0  0  0  0  0  0  0  0
    3.8821   -2.2516    2.6552 C   0  0  0  0  0  0  0  0  0  0  0  0
    4.7299   -2.0813    3.8908 C   0  0  0  0  0  0  0  0  0  0  0  0
    4.6640   -1.0718    4.5765 O   0  0  0  0  0  0  0  0  0  0  0  0
    5.5481   -3.1249    4.2296 N   0  0  0  0  0  0  0  0  0  0  0  0
    5.9261   -4.2699    3.3930 C   0  0  0  0  0  0  0  0  0  0  0  0
    7.2747   -4.7092    3.9770 C   0  0  0  0  0  0  0  0  0  0  0  0
    7.1902   -4.3225    5.4738 C   0  0  2  0  0  0  0  0  0  0  0  0
    8.5657   -4.1454    6.1444 C   0  0  0  0  0  0  0  0  0  0  0  0
    9.2856   -5.4886    6.3259 C   0  0  0  0  0  0  0  0  0  0  0  0
    8.3649   -6.5035    7.0039 C   0  0  0  0  0  0  0  0  0  0  0  0
    7.1289   -6.6252    6.3241 O   0  0  0  0  0  0  0  0  0  0  0  0
    6.4213   -5.4060    6.2646 C   0  0  0  0  0  0  0  0  0  0  0  0
    6.3851   -3.0113    5.4256 C   0  0  0  0  0  0  0  0  0  0  0  0
    2.9423   -3.2925    2.5332 C   0  0  0  0  0  0  0  0  0  0  0  0
    2.0704   -3.3750    1.4442 C   0  0  0  0  0  0  0  0  0  0  0  0
    2.1255   -2.4155    0.4206 C   0  0  0  0  0  0  0  0  0  0  0  0
    3.0487   -1.3801    0.5180 C   0  0  0  0  0  0  0  0  0  0  0  0
    2.5302    1.4001   -1.5667 H   0  0  0  0  0  0  0  0  0  0  0  0
    1.5762    0.9007   -0.1427 H   0  0  0  0  0  0  0  0  0  0  0  0
    1.5771   -0.0973   -1.6178 H   0  0  0  0  0  0  0  0  0  0  0  0
    4.5690    0.0060   -2.2884 H   0  0  0  0  0  0  0  0  0  0  0  0
    3.6638   -1.5291   -2.2062 H   0  0  0  0  0  0  0  0  0  0  0  0
    5.1503   -1.3243   -1.2492 H   0  0  0  0  0  0  0  0  0  0  0  0
    3.7029    1.4217    0.9670 H   0  0  0  0  0  0  0  0  0  0  0  0
    5.1733    1.0497    0.0127 H   0  0  0  0  0  0  0  0  0  0  0  0
    5.9928   -3.9845    2.3327 H   0  0  0  0  0  0  0  0  0  0  0  0
    5.1810   -5.0828    3.4605 H   0  0  0  0  0  0  0  0  0  0  0  0
    8.0947   -4.1484    3.4977 H   0  0  0  0  0  0  0  0  0  0  0  0
    7.4648   -5.7818    3.8299 H   0  0  0  0  0  0  0  0  0  0  0  0
    8.4163   -3.6768    7.1349 H   0  0  0  0  0  0  0  0  0  0  0  0
    9.1845   -3.4447    5.5585 H   0  0  0  0  0  0  0  0  0  0  0  0
   10.2031   -5.3607    6.9250 H   0  0  0  0  0  0  0  0  0  0  0  0
    9.5985   -5.8856    5.3451 H   0  0  0  0  0  0  0  0  0  0  0  0
    8.1848   -6.2007    8.0581 H   0  0  0  0  0  0  0  0  0  0  0  0
    8.8154   -7.5078    7.0186 H   0  0  0  0  0  0  0  0  0  0  0  0
    6.2204   -5.0273    7.2893 H   0  0  0  0  0  0  0  0  0  0  0  0
    5.4481   -5.6281    5.7999 H   0  0  0  0  0  0  0  0  0  0  0  0
    7.0484   -2.1309    5.3452 H   0  0  0  0  0  0  0  0  0  0  0  0
    5.7648   -2.8493    6.3230 H   0  0  0  0  0  0  0  0  0  0  0  0
    2.8784   -4.0383    3.3298 H   0  0  0  0  0  0  0  0  0  0  0  0
    1.3414   -4.1870    1.3938 H   0  0  0  0  0  0  0  0  0  0  0  0
    1.4505   -2.4857   -0.4370 H   0  0  0  0  0  0  0  0  0  0  0  0
  2  1  1  6
  1 24  1  0
  1 25  1  0
  1 26  1  0
  2  3  1  0
  2  4  1  0
  2 23  1  0
  3 27  1  0
  3 28  1  0
  3 29  1  0
  4  5  1  0
  4 30  1  0
  4 31  1  0
  5  6  1  0
  6  7  2  0
  6 23  1  0
  7  8  1  0
  7 20  1  0
  8  9  2  0
  8 10  1  0
 10 11  1  0
 10 19  1  0
 11 12  1  0
 11 32  1  0
 11 33  1  0
 13 12  1  6
 12 34  1  0
 12 35  1  0
 13 14  1  0
 13 18  1  0
 13 19  1  0
 14 15  1  0
 14 36  1  0
 14 37  1  0
 15 16  1  0
 15 38  1  0
 15 39  1  0
 16 17  1  0
 16 40  1  0
 16 41  1  0
 17 18  1  0
 18 42  1  0
 18 43  1  0
 19 44  1  0
 19 45  1  0
 20 21  2  0
 20 46  1  0
 21 22  1  0
 21 47  1  0
 22 23  2  0
 22 48  1  0
M  END

