
     RDKit          3D

 40 41  0  0  0  0  0  0  0  0999 V2000
    5.8605   -0.3466    1.1735 C   0  0  0  0  0  0  0  0  0  0  0  0
    4.6872   -0.4110    0.2101 C   0  0  0  0  0  0  0  0  0  0  0  0
    4.9441    0.3391   -0.9921 O   0  0  0  0  0  0  0  0  0  0  0  0
    4.6593    1.6458   -0.9811 C   0  0  0  0  0  0  0  0  0  0  0  0
    4.2277    2.2391   -0.0190 O   0  0  0  0  0  0  0  0  0  0  0  0
    5.0192    2.3247   -2.3063 C   0  0  1  0  0  0  0  0  0  0  0  0
    4.7893    1.4841   -3.4555 N   0  0  0  0  0  0  0  0  0  0  0  0
    3.5217    1.0945   -3.8762 C   0  0  0  0  0  0  0  0  0  0  0  0
    2.3630    1.2634   -3.0942 C   0  0  0  0  0  0  0  0  0  0  0  0
    1.1221    0.8104   -3.5554 C   0  0  0  0  0  0  0  0  0  0  0  0
    0.9714    0.1872   -4.7994 C   0  0  0  0  0  0  0  0  0  0  0  0
   -0.3684   -0.3084   -5.2884 C   0  0  0  0  0  0  0  0  0  0  0  0
    2.1320    0.0346   -5.5801 C   0  0  0  0  0  0  0  0  0  0  0  0
    3.3747    0.4723   -5.1361 C   0  0  0  0  0  0  0  0  0  0  0  0
    4.5338    3.8062   -2.4476 C   0  0  0  0  0  0  0  0  0  0  0  0
    5.9689    4.2074   -2.8882 C   0  0  2  0  0  0  0  0  0  0  0  0
    6.1709    4.2101   -4.2846 O   0  0  0  0  0  0  0  0  0  0  0  0
    5.6837    5.3560   -4.9383 C   0  0  0  0  0  0  0  0  0  0  0  0
    6.4832    2.8768   -2.3125 C   0  0  0  0  0  0  0  0  0  0  0  0
    5.6681   -0.9971    2.0419 H   0  0  0  0  0  0  0  0  0  0  0  0
    6.0080    0.6793    1.5426 H   0  0  0  0  0  0  0  0  0  0  0  0
    6.7881   -0.6877    0.6878 H   0  0  0  0  0  0  0  0  0  0  0  0
    3.7699   -0.0274    0.6806 H   0  0  0  0  0  0  0  0  0  0  0  0
    4.5108   -1.4389   -0.1377 H   0  0  0  0  0  0  0  0  0  0  0  0
    5.4502    1.6350   -4.2087 H   0  0  0  0  0  0  0  0  0  0  0  0
    2.4122    1.7610   -2.1246 H   0  0  0  0  0  0  0  0  0  0  0  0
    0.2434    0.9588   -2.9203 H   0  0  0  0  0  0  0  0  0  0  0  0
   -1.1811   -0.0051   -4.6110 H   0  0  0  0  0  0  0  0  0  0  0  0
   -0.3934   -1.4099   -5.3614 H   0  0  0  0  0  0  0  0  0  0  0  0
   -0.6063    0.0832   -6.2919 H   0  0  0  0  0  0  0  0  0  0  0  0
    2.0606   -0.4426   -6.5627 H   0  0  0  0  0  0  0  0  0  0  0  0
    4.2586    0.3286   -5.7649 H   0  0  0  0  0  0  0  0  0  0  0  0
    4.2544    4.2355   -1.4761 H   0  0  0  0  0  0  0  0  0  0  0  0
    3.7263    3.9711   -3.1751 H   0  0  0  0  0  0  0  0  0  0  0  0
    6.3762    5.1346   -2.4397 H   0  0  0  0  0  0  0  0  0  0  0  0
    5.9094    5.2498   -6.0093 H   0  0  0  0  0  0  0  0  0  0  0  0
    6.1717    6.2781   -4.5635 H   0  0  0  0  0  0  0  0  0  0  0  0
    4.5894    5.4769   -4.8221 H   0  0  0  0  0  0  0  0  0  0  0  0
    6.8840    2.9896   -1.2958 H   0  0  0  0  0  0  0  0  0  0  0  0
    7.2052    2.3260   -2.9339 H   0  0  0  0  0  0  0  0  0  0  0  0
  1  2  1  0
  1 20  1  0
  1 21  1  0
  1 22  1  0
  2  3  1  0
  2 23  1  0
  2 24  1  0
  3  4  1  0
  4  5  2  0
  6  4  1  1
  6  7  1  0
  6 15  1  0
  6 19  1  0
  7  8  1  0
  7 25  1  0
  8  9  2  0
  8 14  1  0
  9 10  1  0
  9 26  1  0
 10 11  2  0
 10 27  1  0
 11 12  1  0
 11 13  1  0
 12 28  1  0
 12 29  1  0
 12 30  1  0
 13 14  2  0
 13 31  1  0
 14 32  1  0
 15 16  1  0
 15 33  1  0
 15 34  1  0
 16 17  1  0
 16 19  1  0
 16 35  1  1
 17 18  1  0
 18 36  1  0
 18 37  1  0
 18 38  1  0
 19 39  1  0
 19 40  1  0
M  END

