
     RDKit          3D

 58 61  0  0  0  0  0  0  0  0999 V2000
    1.6194    0.2376   -0.9797 C   0  0  0  0  0  0  0  0  0  0  0  0
    2.9871    0.7292   -0.5032 C   0  0  0  0  0  0  0  0  0  0  0  0
    3.1856    0.5766    1.0082 C   0  0  0  0  0  0  0  0  0  0  0  0
    4.5597    1.0706    1.4772 C   0  0  0  0  0  0  0  0  0  0  0  0
    4.8276    0.8892    2.9060 N   0  0  0  0  0  0  0  0  0  0  0  0
    5.5334   -0.2504    3.3404 C   0  0  0  0  0  0  0  0  0  0  0  0
    5.8642   -1.3804    2.6231 C   0  0  0  0  0  0  0  0  0  0  0  0
    5.4541   -1.9774    1.3056 C   0  0  1  0  0  0  0  0  0  0  0  0
    6.3287   -3.2232    0.8916 C   0  0  1  0  0  0  0  0  0  0  0  0
    7.7837   -3.3628    1.2664 C   0  0  0  0  0  0  0  0  0  0  0  0
    8.3053   -4.5606    1.7776 C   0  0  0  0  0  0  0  0  0  0  0  0
    9.6585   -4.6961    2.0861 C   0  0  0  0  0  0  0  0  0  0  0  0
   10.5667   -3.6262    1.8955 C   0  0  0  0  0  0  0  0  0  0  0  0
   11.9100   -3.7516    2.2042 N   0  0  0  0  0  0  0  0  0  0  0  0
   12.8144   -2.6470    1.9675 C   0  0  0  0  0  0  0  0  0  0  0  0
   12.4210   -5.0057    2.7150 C   0  0  0  0  0  0  0  0  0  0  0  0
   10.0361   -2.4195    1.3729 C   0  0  0  0  0  0  0  0  0  0  0  0
    8.6822   -2.3025    1.0692 C   0  0  0  0  0  0  0  0  0  0  0  0
    5.2566   -4.1639    1.4823 C   0  0  0  0  0  0  0  0  0  0  0  0
    5.2022   -5.3262    1.7640 O   0  0  0  0  0  0  0  0  0  0  0  0
    4.2668   -2.9557    1.5733 C   0  0  0  0  0  0  0  0  0  0  0  0
    3.0859   -2.8355    1.7333 O   0  0  0  0  0  0  0  0  0  0  0  0
    6.0020   -0.2085    4.7212 C   0  0  0  0  0  0  0  0  0  0  0  0
    5.6821    0.7849    5.5768 C   0  0  0  0  0  0  0  0  0  0  0  0
    4.8456    1.8800    5.1475 C   0  0  0  0  0  0  0  0  0  0  0  0
    4.4588    2.9088    6.0227 C   0  0  0  0  0  0  0  0  0  0  0  0
    3.6639    3.9671    5.5921 C   0  0  0  0  0  0  0  0  0  0  0  0
    3.2479    3.9934    4.2575 C   0  0  0  0  0  0  0  0  0  0  0  0
    3.6171    2.9836    3.3676 C   0  0  0  0  0  0  0  0  0  0  0  0
    4.4242    1.9042    3.7876 C   0  0  0  0  0  0  0  0  0  0  0  0
    1.5071    0.3479   -2.0700 H   0  0  0  0  0  0  0  0  0  0  0  0
    0.8029    0.8037   -0.5012 H   0  0  0  0  0  0  0  0  0  0  0  0
    1.4718   -0.8258   -0.7302 H   0  0  0  0  0  0  0  0  0  0  0  0
    3.1232    1.7883   -0.7913 H   0  0  0  0  0  0  0  0  0  0  0  0
    3.7819    0.1740   -1.0358 H   0  0  0  0  0  0  0  0  0  0  0  0
    3.0474   -0.4765    1.3000 H   0  0  0  0  0  0  0  0  0  0  0  0
    2.3973    1.1356    1.5406 H   0  0  0  0  0  0  0  0  0  0  0  0
    4.6789    2.1394    1.2433 H   0  0  0  0  0  0  0  0  0  0  0  0
    5.3660    0.5689    0.9288 H   0  0  0  0  0  0  0  0  0  0  0  0
    6.4833   -2.0658    3.2060 H   0  0  0  0  0  0  0  0  0  0  0  0
    5.2642   -1.2770    0.4854 H   0  0  0  0  0  0  0  0  0  0  0  0
    6.2164   -3.3339   -0.2070 H   0  0  0  0  0  0  0  0  0  0  0  0
    7.6401   -5.4120    1.9340 H   0  0  0  0  0  0  0  0  0  0  0  0
   10.0050   -5.6512    2.4792 H   0  0  0  0  0  0  0  0  0  0  0  0
   12.8582   -2.3578    0.9000 H   0  0  0  0  0  0  0  0  0  0  0  0
   13.8282   -2.9323    2.2769 H   0  0  0  0  0  0  0  0  0  0  0  0
   12.5319   -1.7449    2.5418 H   0  0  0  0  0  0  0  0  0  0  0  0
   11.9351   -5.2984    3.6644 H   0  0  0  0  0  0  0  0  0  0  0  0
   13.4972   -4.9098    2.9089 H   0  0  0  0  0  0  0  0  0  0  0  0
   12.2809   -5.8407    2.0023 H   0  0  0  0  0  0  0  0  0  0  0  0
   10.6828   -1.5595    1.2028 H   0  0  0  0  0  0  0  0  0  0  0  0
    8.3165   -1.3515    0.6725 H   0  0  0  0  0  0  0  0  0  0  0  0
    6.6152   -1.0483    5.0509 H   0  0  0  0  0  0  0  0  0  0  0  0
    6.0389    0.7677    6.6097 H   0  0  0  0  0  0  0  0  0  0  0  0
    4.8019    2.8613    7.0599 H   0  0  0  0  0  0  0  0  0  0  0  0
    3.3693    4.7594    6.2835 H   0  0  0  0  0  0  0  0  0  0  0  0
    2.6181    4.8100    3.8954 H   0  0  0  0  0  0  0  0  0  0  0  0
    3.2518    3.0428    2.3449 H   0  0  0  0  0  0  0  0  0  0  0  0
  1  2  1  0
  1 31  1  0
  1 32  1  0
  1 33  1  0
  2  3  1  0
  2 34  1  0
  2 35  1  0
  3  4  1  0
  3 36  1  0
  3 37  1  0
  4  5  1  0
  4 38  1  0
  4 39  1  0
  5  6  1  0
  5 30  1  0
  6  7  2  0
  6 23  1  0
  7  8  1  0
  7 40  1  0
  8  9  1  0
  8 21  1  0
  8 41  1  6
  9 10  1  0
  9 19  1  0
  9 42  1  6
 10 11  2  0
 10 18  1  0
 11 12  1  0
 11 43  1  0
 12 13  2  0
 12 44  1  0
 13 14  1  0
 13 17  1  0
 14 15  1  0
 14 16  1  0
 15 45  1  0
 15 46  1  0
 15 47  1  0
 16 48  1  0
 16 49  1  0
 16 50  1  0
 17 18  2  0
 17 51  1  0
 18 52  1  0
 19 20  2  0
 19 21  1  0
 21 22  2  0
 23 24  2  0
 23 53  1  0
 24 25  1  0
 24 54  1  0
 25 26  1  0
 25 30  2  0
 26 27  2  0
 26 55  1  0
 27 28  1  0
 27 56  1  0
 28 29  2  0
 28 57  1  0
 29 30  1  0
 29 58  1  0
M  END

