
     RDKit          3D

 52 55  0  0  0  0  0  0  0  0999 V2000
    2.0094    0.5044    0.6083 C   0  0  0  0  0  0  0  0  0  0  0  0
    1.2707   -0.2109   -0.4157 N   0  0  0  0  0  0  0  0  0  0  0  0
    1.0799    0.5063   -1.6672 C   0  0  0  0  0  0  0  0  0  0  0  0
    2.3061    0.4917   -2.5955 C   0  0  0  0  0  0  0  0  0  0  0  0
    2.7550   -0.8759   -2.8260 N   0  0  0  0  0  0  0  0  0  0  0  0
    3.5944   -1.1356   -3.9230 C   0  0  0  0  0  0  0  0  0  0  0  0
    4.1332   -0.1091   -4.7264 C   0  0  0  0  0  0  0  0  0  0  0  0
    4.9289   -0.3771   -5.8429 C   0  0  0  0  0  0  0  0  0  0  0  0
    5.2331   -1.6998   -6.1934 C   0  0  0  0  0  0  0  0  0  0  0  0
    6.0328   -2.0572   -7.3031 N   0  0  0  0  0  0  0  0  0  0  0  0
    6.6480   -1.2488   -8.2202 C   0  0  0  0  0  0  0  0  0  0  0  0
    6.6227   -0.0280   -8.1955 O   0  0  0  0  0  0  0  0  0  0  0  0
    7.3768   -1.9986   -9.3366 C   0  0  0  0  0  0  0  0  0  0  0  0
    8.6699   -1.2724   -9.7227 C   0  0  0  0  0  0  0  0  0  0  0  0
    9.2892   -1.8117  -10.9202 N   0  0  0  0  0  0  0  0  0  0  0  0
   10.0316   -2.9821  -10.9079 C   0  0  0  0  0  0  0  0  0  0  0  0
   10.2857   -3.6920   -9.9735 O   0  0  0  0  0  0  0  0  0  0  0  0
   10.4493   -3.2180  -12.2056 O   0  0  0  0  0  0  0  0  0  0  0  0
    9.9583   -2.2181  -13.0053 C   0  0  0  0  0  0  0  0  0  0  0  0
   10.1268   -2.0545  -14.3692 C   0  0  0  0  0  0  0  0  0  0  0  0
    9.5121   -0.9328  -14.9514 C   0  0  0  0  0  0  0  0  0  0  0  0
    8.7687   -0.0314  -14.1791 C   0  0  0  0  0  0  0  0  0  0  0  0
    8.6063   -0.2082  -12.7952 C   0  0  0  0  0  0  0  0  0  0  0  0
    9.2172   -1.3203  -12.2221 C   0  0  0  0  0  0  0  0  0  0  0  0
    4.7115   -2.7340   -5.3965 C   0  0  0  0  0  0  0  0  0  0  0  0
    3.9107   -2.4626   -4.2940 C   0  0  0  0  0  0  0  0  0  0  0  0
    2.9727   -1.6250   -1.5856 C   0  0  0  0  0  0  0  0  0  0  0  0
    1.7296   -1.5651   -0.6875 C   0  0  0  0  0  0  0  0  0  0  0  0
    1.5163    1.4690    0.8115 H   0  0  0  0  0  0  0  0  0  0  0  0
    3.0740    0.7224    0.3707 H   0  0  0  0  0  0  0  0  0  0  0  0
    1.9965   -0.0764    1.5451 H   0  0  0  0  0  0  0  0  0  0  0  0
    0.7933    1.5488   -1.4534 H   0  0  0  0  0  0  0  0  0  0  0  0
    0.2384    0.0372   -2.2087 H   0  0  0  0  0  0  0  0  0  0  0  0
    3.1184    1.1238   -2.1720 H   0  0  0  0  0  0  0  0  0  0  0  0
    2.0190    0.9423   -3.5571 H   0  0  0  0  0  0  0  0  0  0  0  0
    3.9454    0.9359   -4.4815 H   0  0  0  0  0  0  0  0  0  0  0  0
    5.3306    0.4385   -6.4398 H   0  0  0  0  0  0  0  0  0  0  0  0
    6.1560   -3.0539   -7.4367 H   0  0  0  0  0  0  0  0  0  0  0  0
    6.7007   -2.0247  -10.2096 H   0  0  0  0  0  0  0  0  0  0  0  0
    7.6000   -3.0413   -9.0620 H   0  0  0  0  0  0  0  0  0  0  0  0
    9.3994   -1.3448   -8.9018 H   0  0  0  0  0  0  0  0  0  0  0  0
    8.4550   -0.2076   -9.8826 H   0  0  0  0  0  0  0  0  0  0  0  0
   10.7101   -2.7672  -14.9542 H   0  0  0  0  0  0  0  0  0  0  0  0
    9.6176   -0.7636  -16.0253 H   0  0  0  0  0  0  0  0  0  0  0  0
    8.3022    0.8307  -14.6612 H   0  0  0  0  0  0  0  0  0  0  0  0
    8.0246    0.4978  -12.1999 H   0  0  0  0  0  0  0  0  0  0  0  0
    4.9256   -3.7768   -5.6520 H   0  0  0  0  0  0  0  0  0  0  0  0
    3.5040   -3.3015   -3.7278 H   0  0  0  0  0  0  0  0  0  0  0  0
    3.8570   -1.2245   -1.0424 H   0  0  0  0  0  0  0  0  0  0  0  0
    3.1955   -2.6749   -1.8153 H   0  0  0  0  0  0  0  0  0  0  0  0
    1.9351   -2.0815    0.2644 H   0  0  0  0  0  0  0  0  0  0  0  0
    0.9130   -2.1131   -1.1922 H   0  0  0  0  0  0  0  0  0  0  0  0
  1  2  1  0
  1 29  1  0
  1 30  1  0
  1 31  1  0
  2  3  1  0
  2 28  1  0
  3  4  1  0
  3 32  1  0
  3 33  1  0
  4  5  1  0
  4 34  1  0
  4 35  1  0
  5  6  1  0
  5 27  1  0
  6  7  2  0
  6 26  1  0
  7  8  1  0
  7 36  1  0
  8  9  2  0
  8 37  1  0
  9 10  1  0
  9 25  1  0
 10 11  1  0
 10 38  1  0
 11 12  2  0
 11 13  1  0
 13 14  1  0
 13 39  1  0
 13 40  1  0
 14 15  1  0
 14 41  1  0
 14 42  1  0
 15 16  1  0
 15 24  1  0
 16 17  2  0
 16 18  1  0
 18 19  1  0
 19 20  1  0
 19 24  2  0
 20 21  2  0
 20 43  1  0
 21 22  1  0
 21 44  1  0
 22 23  2  0
 22 45  1  0
 23 24  1  0
 23 46  1  0
 25 26  2  0
 25 47  1  0
 26 48  1  0
 27 28  1  0
 27 49  1  0
 27 50  1  0
 28 51  1  0
 28 52  1  0
M  END

