
     RDKit          3D

 20 20  0  0  0  0  0  0  0  0999 V2000
    1.4076   -0.8730   -0.4513 N   0  0  0  0  0  0  0  0  0  0  0  0
    2.3655    0.0452   -0.1885 C   0  0  0  0  0  0  0  0  0  0  0  0
    2.7443    0.8476   -1.0336 O   0  0  0  0  0  0  0  0  0  0  0  0
    2.9205    0.0190    1.2605 C   0  0  1  0  0  0  0  0  0  0  0  0
    3.2874   -1.3827    1.6545 C   0  0  0  0  0  0  0  0  0  0  0  0
    2.2319   -2.1718    1.9694 F   0  0  0  0  0  0  0  0  0  0  0  0
    4.5331   -1.8713    1.6131 C   0  0  0  0  0  0  0  0  0  0  0  0
    5.6324   -0.9815    1.2323 C   0  0  0  0  0  0  0  0  0  0  0  0
    5.4452    0.3459    1.1289 C   0  0  0  0  0  0  0  0  0  0  0  0
    4.1136    0.9937    1.4967 C   0  0  1  0  0  0  0  0  0  0  0  0
    3.9407    2.2129    0.8476 O   0  0  0  0  0  0  0  0  0  0  0  0
    4.0859    1.2348    2.8841 O   0  0  0  0  0  0  0  0  0  0  0  0
    1.0246   -0.9081   -1.3893 H   0  0  0  0  0  0  0  0  0  0  0  0
    1.1332   -1.5697    0.2301 H   0  0  0  0  0  0  0  0  0  0  0  0
    2.1178    0.3808    1.9253 H   0  0  0  0  0  0  0  0  0  0  0  0
    4.7172   -2.9196    1.8560 H   0  0  0  0  0  0  0  0  0  0  0  0
    6.6111   -1.4281    1.0376 H   0  0  0  0  0  0  0  0  0  0  0  0
    6.2480    1.0310    0.8426 H   0  0  0  0  0  0  0  0  0  0  0  0
    3.6506    2.0063   -0.0674 H   0  0  0  0  0  0  0  0  0  0  0  0
    4.8022    1.8571    3.0770 H   0  0  0  0  0  0  0  0  0  0  0  0
  1  2  1  0
  1 13  1  0
  1 14  1  0
  2  3  2  0
  2  4  1  0
  4  5  1  0
  4 10  1  0
  4 15  1  1
  5  6  1  0
  5  7  2  0
  7  8  1  0
  7 16  1  0
  8  9  2  0
  8 17  1  0
  9 10  1  0
  9 18  1  0
 10 11  1  6
 10 12  1  0
 11 19  1  0
 12 20  1  0
M  END

