
     RDKit          3D

 33 35  0  0  0  0  0  0  0  0999 V2000
    1.2664    1.5777   -0.3106 C   0  0  0  0  0  0  0  0  0  0  0  0
    1.8267    0.2985    0.2789 C   0  0  0  0  0  0  0  0  0  0  0  0
    1.3878   -0.7870   -0.0436 O   0  0  0  0  0  0  0  0  0  0  0  0
    2.9487    0.3938    1.2843 C   0  0  0  0  0  0  0  0  0  0  0  0
    3.4965    1.6131    1.7085 C   0  0  0  0  0  0  0  0  0  0  0  0
    4.5217    1.6177    2.6593 C   0  0  0  0  0  0  0  0  0  0  0  0
    5.0142    0.4204    3.1727 C   0  0  0  0  0  0  0  0  0  0  0  0
    4.4754   -0.8099    2.7480 C   0  0  0  0  0  0  0  0  0  0  0  0
    4.9925   -1.9849    3.3256 N   0  0  0  0  0  0  0  0  0  0  0  0
    5.0841   -3.2420    2.8225 C   0  0  0  0  0  0  0  0  0  0  0  0
    4.7757   -3.7449    1.5579 C   0  0  0  0  0  0  0  0  0  0  0  0
    5.0000   -5.1188    1.3133 C   0  0  0  0  0  0  0  0  0  0  0  0
    4.6673   -5.6955   -0.0606 C   0  0  1  0  0  0  0  0  0  0  0  0
    4.2330   -4.7390   -0.9023 F   0  0  0  0  0  0  0  0  0  0  0  0
    5.7416   -6.2653   -0.6155 F   0  0  0  0  0  0  0  0  0  0  0  0
    3.7072   -6.6221    0.0290 F   0  0  0  0  0  0  0  0  0  0  0  0
    5.4808   -5.9943    2.1752 N   0  0  0  0  0  0  0  0  0  0  0  0
    5.7896   -5.5151    3.3839 C   0  0  0  0  0  0  0  0  0  0  0  0
    6.3038   -6.1151    4.4559 N   0  0  0  0  0  0  0  0  0  0  0  0
    6.4006   -5.1218    5.3584 C   0  0  0  0  0  0  0  0  0  0  0  0
    5.9872   -3.9147    4.9632 N   0  0  0  0  0  0  0  0  0  0  0  0
    5.5931   -4.1649    3.6990 N   0  0  0  0  0  0  0  0  0  0  0  0
    3.4339   -0.8120    1.8147 C   0  0  0  0  0  0  0  0  0  0  0  0
    0.4733    1.3199   -1.0236 H   0  0  0  0  0  0  0  0  0  0  0  0
    2.0514    2.1528   -0.8276 H   0  0  0  0  0  0  0  0  0  0  0  0
    0.8519    2.2258    0.4786 H   0  0  0  0  0  0  0  0  0  0  0  0
    3.1298    2.5597    1.3093 H   0  0  0  0  0  0  0  0  0  0  0  0
    4.9490    2.5642    2.9984 H   0  0  0  0  0  0  0  0  0  0  0  0
    5.8262    0.4293    3.9047 H   0  0  0  0  0  0  0  0  0  0  0  0
    5.4109   -1.9070    4.2529 H   0  0  0  0  0  0  0  0  0  0  0  0
    4.3903   -3.1040    0.7721 H   0  0  0  0  0  0  0  0  0  0  0  0
    6.7926   -5.2695    6.3654 H   0  0  0  0  0  0  0  0  0  0  0  0
    2.9477   -1.7309    1.4897 H   0  0  0  0  0  0  0  0  0  0  0  0
  1  2  1  0
  1 24  1  0
  1 25  1  0
  1 26  1  0
  2  3  2  0
  2  4  1  0
  4  5  2  0
  4 23  1  0
  5  6  1  0
  5 27  1  0
  6  7  2  0
  6 28  1  0
  7  8  1  0
  7 29  1  0
  8  9  1  0
  8 23  2  0
  9 10  1  0
  9 30  1  0
 10 11  2  0
 10 22  1  0
 11 12  1  0
 11 31  1  0
 12 13  1  0
 12 17  2  0
 13 14  1  6
 13 15  1  0
 13 16  1  0
 17 18  1  0
 18 19  2  0
 18 22  1  0
 19 20  1  0
 20 21  2  0
 20 32  1  0
 21 22  1  0
 23 33  1  0
M  END

