
     RDKit          3D

 42 45  0  0  0  0  0  0  0  0999 V2000
    2.2415   -0.4782    1.3753 C   0  0  0  0  0  0  0  0  0  0  0  0
    3.4565   -0.2570    0.6170 N   0  0  0  0  0  0  0  0  0  0  0  0
    4.0727    1.0272    0.7948 C   0  0  0  0  0  0  0  0  0  0  0  0
    4.7882    1.0992    2.0789 N   0  0  0  0  0  0  0  0  0  0  0  0
    5.1516    2.4217    2.5018 C   0  0  0  0  0  0  0  0  0  0  0  0
    6.4868    2.5768    2.4154 C   0  0  0  0  0  0  0  0  0  0  0  0
    7.3945    3.7237    2.7174 C   0  0  0  0  0  0  0  0  0  0  0  0
    7.9776    4.2966    1.5154 N   0  0  0  0  0  0  0  0  0  0  0  0
    8.7176    3.5891    0.7465 C   0  0  0  0  0  0  0  0  0  0  0  0
    9.2876    4.3388   -0.4315 C   0  0  0  0  0  0  0  0  0  0  0  0
   10.0641    5.4858   -0.1984 C   0  0  0  0  0  0  0  0  0  0  0  0
   10.6002    6.2295   -1.2500 C   0  0  0  0  0  0  0  0  0  0  0  0
   10.3489    5.8447   -2.5701 C   0  0  0  0  0  0  0  0  0  0  0  0
    9.5573    4.7250   -2.8309 C   0  0  0  0  0  0  0  0  0  0  0  0
    9.0339    3.9824   -1.7681 C   0  0  0  0  0  0  0  0  0  0  0  0
    8.0000    2.6179   -2.1503 Cl  0  0  0  0  0  0  0  0  0  0  0  0
    9.1115    2.1522    0.8853 C   0  0  0  0  0  0  0  0  0  0  0  0
   10.3811    1.7853    0.3912 C   0  0  0  0  0  0  0  0  0  0  0  0
   10.7976    0.4617    0.3456 C   0  0  0  0  0  0  0  0  0  0  0  0
   12.3939    0.0631   -0.2542 Cl  0  0  0  0  0  0  0  0  0  0  0  0
    9.9285   -0.5576    0.7537 C   0  0  0  0  0  0  0  0  0  0  0  0
    8.6808   -0.2292    1.2612 C   0  0  0  0  0  0  0  0  0  0  0  0
    8.2589    1.1169    1.3789 C   0  0  0  0  0  0  0  0  0  0  0  0
    7.0368    1.3632    1.9667 N   0  0  0  0  0  0  0  0  0  0  0  0
    6.0175    0.3614    2.0655 N   0  0  0  0  0  0  0  0  0  0  0  0
    1.8628   -1.4961    1.1940 H   0  0  0  0  0  0  0  0  0  0  0  0
    1.4214    0.2405    1.1479 H   0  0  0  0  0  0  0  0  0  0  0  0
    2.4618   -0.3921    2.4508 H   0  0  0  0  0  0  0  0  0  0  0  0
    3.3375   -0.4675   -0.3697 H   0  0  0  0  0  0  0  0  0  0  0  0
    3.3480    1.8725    0.8258 H   0  0  0  0  0  0  0  0  0  0  0  0
    4.7623    1.2178   -0.0490 H   0  0  0  0  0  0  0  0  0  0  0  0
    4.4032    3.1398    2.8300 H   0  0  0  0  0  0  0  0  0  0  0  0
    8.1933    3.3861    3.4080 H   0  0  0  0  0  0  0  0  0  0  0  0
    6.8215    4.5046    3.2379 H   0  0  0  0  0  0  0  0  0  0  0  0
   10.2375    5.7863    0.8370 H   0  0  0  0  0  0  0  0  0  0  0  0
   11.2095    7.1116   -1.0393 H   0  0  0  0  0  0  0  0  0  0  0  0
   10.7609    6.4199   -3.4029 H   0  0  0  0  0  0  0  0  0  0  0  0
    9.3307    4.4222   -3.8545 H   0  0  0  0  0  0  0  0  0  0  0  0
   11.0488    2.5608    0.0159 H   0  0  0  0  0  0  0  0  0  0  0  0
   10.2374   -1.6018    0.6798 H   0  0  0  0  0  0  0  0  0  0  0  0
    7.9967   -1.0171    1.5751 H   0  0  0  0  0  0  0  0  0  0  0  0
    6.1000   -0.0359    3.0088 H   0  0  0  0  0  0  0  0  0  0  0  0
  1  2  1  0
  1 26  1  0
  1 27  1  0
  1 28  1  0
  2  3  1  0
  2 29  1  0
  3  4  1  0
  3 30  1  0
  3 31  1  0
  4  5  1  0
  4 25  1  0
  5  6  2  0
  5 32  1  0
  6  7  1  0
  6 24  1  0
  7  8  1  0
  7 33  1  0
  7 34  1  0
  8  9  2  0
  9 10  1  0
  9 17  1  0
 10 11  2  0
 10 15  1  0
 11 12  1  0
 11 35  1  0
 12 13  2  0
 12 36  1  0
 13 14  1  0
 13 37  1  0
 14 15  2  0
 14 38  1  0
 15 16  1  0
 17 18  1  0
 17 23  2  0
 18 19  2  0
 18 39  1  0
 19 20  1  0
 19 21  1  0
 21 22  2  0
 21 40  1  0
 22 23  1  0
 22 41  1  0
 23 24  1  0
 24 25  1  0
 25 42  1  0
M  END

