
     RDKit          3D

 48 49  0  0  0  0  0  0  0  0999 V2000
    2.1641   -0.4374   -0.7831 C   0  0  0  0  0  0  0  0  0  0  0  0
    2.5809   -0.6037    0.6780 C   0  0  0  0  0  0  0  0  0  0  0  0
    3.2925    0.5487    1.2092 N   0  0  0  0  0  0  0  0  0  0  0  0
    4.6914    0.7083    1.1716 C   0  0  0  0  0  0  0  0  0  0  0  0
    5.4414   -0.1198    0.7016 O   0  0  0  0  0  0  0  0  0  0  0  0
    5.0102    2.0154    1.8133 C   0  0  0  0  0  0  0  0  0  0  0  0
    6.4019    2.4188    2.0724 C   0  0  0  0  0  0  0  0  0  0  0  0
    7.4349    2.0998    1.1659 C   0  0  0  0  0  0  0  0  0  0  0  0
    8.7583    2.4441    1.4464 C   0  0  0  0  0  0  0  0  0  0  0  0
    9.0805    3.1055    2.6356 C   0  0  0  0  0  0  0  0  0  0  0  0
    8.0657    3.4200    3.5456 C   0  0  0  0  0  0  0  0  0  0  0  0
    6.7406    3.0812    3.2711 C   0  0  0  0  0  0  0  0  0  0  0  0
    3.8193    2.5957    2.1915 C   0  0  0  0  0  0  0  0  0  0  0  0
    3.5564    3.8439    2.7036 N   0  0  0  0  0  0  0  0  0  0  0  0
    2.3137    4.1053    3.4367 C   0  0  0  0  0  0  0  0  0  0  0  0
    2.1574    3.2440    4.6971 C   0  0  0  0  0  0  0  0  0  0  0  0
    3.1909    3.3858    5.6401 O   0  0  0  0  0  0  0  0  0  0  0  0
    3.1044    4.5215    6.4585 C   0  0  0  0  0  0  0  0  0  0  0  0
    4.2789    4.9896    2.1400 C   0  0  0  0  0  0  0  0  0  0  0  0
    4.5515    6.1716    3.0630 C   0  0  0  0  0  0  0  0  0  0  0  0
    5.3016    5.7872    4.1829 O   0  0  0  0  0  0  0  0  0  0  0  0
    5.7559    6.8654    4.9588 C   0  0  0  0  0  0  0  0  0  0  0  0
    2.6928    1.6382    1.8024 C   0  0  0  0  0  0  0  0  0  0  0  0
    1.4949    1.7802    1.9488 O   0  0  0  0  0  0  0  0  0  0  0  0
    1.6338   -1.3384   -1.1308 H   0  0  0  0  0  0  0  0  0  0  0  0
    3.0442   -0.2905   -1.4280 H   0  0  0  0  0  0  0  0  0  0  0  0
    1.4889    0.4237   -0.9050 H   0  0  0  0  0  0  0  0  0  0  0  0
    3.2494   -1.4700    0.7900 H   0  0  0  0  0  0  0  0  0  0  0  0
    1.6972   -0.7608    1.3143 H   0  0  0  0  0  0  0  0  0  0  0  0
    7.1949    1.5675    0.2456 H   0  0  0  0  0  0  0  0  0  0  0  0
    9.5445    2.1902    0.7305 H   0  0  0  0  0  0  0  0  0  0  0  0
   10.1182    3.3717    2.8536 H   0  0  0  0  0  0  0  0  0  0  0  0
    8.3063    3.9313    4.4813 H   0  0  0  0  0  0  0  0  0  0  0  0
    5.9570    3.3320    3.9875 H   0  0  0  0  0  0  0  0  0  0  0  0
    1.4254    3.9487    2.8037 H   0  0  0  0  0  0  0  0  0  0  0  0
    2.3247    5.1638    3.7250 H   0  0  0  0  0  0  0  0  0  0  0  0
    2.1319    2.1815    4.4176 H   0  0  0  0  0  0  0  0  0  0  0  0
    1.1703    3.4794    5.1472 H   0  0  0  0  0  0  0  0  0  0  0  0
    3.9438    4.4831    7.1682 H   0  0  0  0  0  0  0  0  0  0  0  0
    2.1567    4.5396    7.0351 H   0  0  0  0  0  0  0  0  0  0  0  0
    3.1833    5.4688    5.8929 H   0  0  0  0  0  0  0  0  0  0  0  0
    3.7139    5.3917    1.2729 H   0  0  0  0  0  0  0  0  0  0  0  0
    5.2400    4.6326    1.7535 H   0  0  0  0  0  0  0  0  0  0  0  0
    3.6116    6.6721    3.3789 H   0  0  0  0  0  0  0  0  0  0  0  0
    5.1021    6.9206    2.4551 H   0  0  0  0  0  0  0  0  0  0  0  0
    6.3294    6.4545    5.8020 H   0  0  0  0  0  0  0  0  0  0  0  0
    4.9179    7.4690    5.3634 H   0  0  0  0  0  0  0  0  0  0  0  0
    6.4145    7.5420    4.3780 H   0  0  0  0  0  0  0  0  0  0  0  0
  1  2  1  0
  1 25  1  0
  1 26  1  0
  1 27  1  0
  2  3  1  0
  2 28  1  0
  2 29  1  0
  3  4  1  0
  3 23  1  0
  4  5  2  0
  4  6  1  0
  6  7  1  0
  6 13  2  0
  7  8  2  0
  7 12  1  0
  8  9  1  0
  8 30  1  0
  9 10  2  0
  9 31  1  0
 10 11  1  0
 10 32  1  0
 11 12  2  0
 11 33  1  0
 12 34  1  0
 13 14  1  0
 13 23  1  0
 14 15  1  0
 14 19  1  0
 15 16  1  0
 15 35  1  0
 15 36  1  0
 16 17  1  0
 16 37  1  0
 16 38  1  0
 17 18  1  0
 18 39  1  0
 18 40  1  0
 18 41  1  0
 19 20  1  0
 19 42  1  0
 19 43  1  0
 20 21  1  0
 20 44  1  0
 20 45  1  0
 21 22  1  0
 22 46  1  0
 22 47  1  0
 22 48  1  0
 23 24  2  0
M  END

