
     RDKit          3D

 28 29  0  0  0  0  0  0  0  0999 V2000
    1.8577    1.5782    0.5611 C   0  0  0  0  0  0  0  0  0  0  0  0
    1.9629    0.3582   -0.1439 O   0  0  0  0  0  0  0  0  0  0  0  0
    2.6497    0.3147   -1.2997 C   0  0  0  0  0  0  0  0  0  0  0  0
    3.2973    1.4117   -1.8877 C   0  0  0  0  0  0  0  0  0  0  0  0
    3.9865    1.2687   -3.0943 C   0  0  0  0  0  0  0  0  0  0  0  0
    4.0479    0.0346   -3.7491 C   0  0  0  0  0  0  0  0  0  0  0  0
    4.8049   -0.0953   -5.0445 C   0  0  1  0  0  0  0  0  0  0  0  0
    6.6230   -0.8799   -4.7377 Br  0  0  0  0  0  0  0  0  0  0  0  0
    4.1048   -0.8878   -6.1045 C   0  0  0  0  0  0  0  0  0  0  0  0
    4.2267   -2.1561   -6.6212 C   0  0  0  0  0  0  0  0  0  0  0  0
    3.1957   -2.2969   -7.5966 C   0  0  0  0  0  0  0  0  0  0  0  0
    2.5347   -1.0987   -7.5908 C   0  0  0  0  0  0  0  0  0  0  0  0
    1.4175   -0.6435   -8.3705 N   0  0  0  0  0  0  0  0  0  0  0  0
    0.9563   -1.4540   -9.1639 O   0  0  0  0  0  0  0  0  0  0  0  0
    1.0203    0.4948   -8.1868 O   0  0  0  0  0  0  0  0  0  0  0  0
    3.0700   -0.2400   -6.7013 O   0  0  0  0  0  0  0  0  0  0  0  0
    3.4010   -1.0680   -3.1651 C   0  0  0  0  0  0  0  0  0  0  0  0
    2.7153   -0.9343   -1.9648 C   0  0  0  0  0  0  0  0  0  0  0  0
    1.9185   -2.3138   -1.2605 Cl  0  0  0  0  0  0  0  0  0  0  0  0
    1.2595    1.3659    1.4566 H   0  0  0  0  0  0  0  0  0  0  0  0
    1.3468    2.3525   -0.0379 H   0  0  0  0  0  0  0  0  0  0  0  0
    2.8476    1.9569    0.8710 H   0  0  0  0  0  0  0  0  0  0  0  0
    3.2646    2.3892   -1.4069 H   0  0  0  0  0  0  0  0  0  0  0  0
    4.4826    2.1406   -3.5285 H   0  0  0  0  0  0  0  0  0  0  0  0
    5.0208    0.9049   -5.4415 H   0  0  0  0  0  0  0  0  0  0  0  0
    4.9790   -2.8882   -6.3407 H   0  0  0  0  0  0  0  0  0  0  0  0
    2.9626   -3.1505   -8.2266 H   0  0  0  0  0  0  0  0  0  0  0  0
    3.4284   -2.0478   -3.6445 H   0  0  0  0  0  0  0  0  0  0  0  0
  1  2  1  0
  1 20  1  0
  1 21  1  0
  1 22  1  0
  2  3  1  0
  3  4  2  0
  3 18  1  0
  4  5  1  0
  4 23  1  0
  5  6  2  0
  5 24  1  0
  6  7  1  0
  6 17  1  0
  7  8  1  0
  7  9  1  0
  7 25  1  6
  9 10  2  0
  9 16  1  0
 10 11  1  0
 10 26  1  0
 11 12  2  0
 11 27  1  0
 12 13  1  0
 12 16  1  0
 13 14  2  0
 13 15  1  0
 17 18  2  0
 17 28  1  0
 18 19  1  0
M  CHG  2  13   1  15  -1
M  END

