
     RDKit          3D

 36 36  0  0  0  0  0  0  0  0999 V2000
    0.6552   -1.8034    0.6494 C   0  0  0  0  0  0  0  0  0  0  0  0
    2.0251   -2.0099    0.0280 C   0  0  0  0  0  0  0  0  0  0  0  0
    2.9180   -1.0910    0.6306 O   0  0  0  0  0  0  0  0  0  0  0  0
    4.3109   -1.2529    0.4262 C   0  0  1  0  0  0  0  0  0  0  0  0
    4.6624   -1.1490   -1.0676 C   0  0  0  0  0  0  0  0  0  0  0  0
    4.9158   -0.0807    1.2436 C   0  0  0  0  0  0  0  0  0  0  0  0
    6.4372    0.0099    1.3595 C   0  0  0  0  0  0  0  0  0  0  0  0
    4.7849   -2.5858    1.0852 C   0  0  0  0  0  0  0  0  0  0  0  0
    4.1650   -3.0500    2.0126 O   0  0  0  0  0  0  0  0  0  0  0  0
    6.0208   -3.2881    0.5149 C   0  0  0  0  0  0  0  0  0  0  0  0
    6.7186   -4.2296    1.4501 C   0  0  0  0  0  0  0  0  0  0  0  0
    6.1823   -5.2625    2.2657 C   0  0  0  0  0  0  0  0  0  0  0  0
    7.1337   -5.9045    2.9365 N   0  0  0  0  0  0  0  0  0  0  0  0
    8.2831   -5.3159    2.5765 N   0  0  0  0  0  0  0  0  0  0  0  0
    9.5276   -5.7395    3.1810 C   0  0  0  0  0  0  0  0  0  0  0  0
    8.0846   -4.3020    1.6902 C   0  0  0  0  0  0  0  0  0  0  0  0
   -0.0852   -2.4773    0.1901 H   0  0  0  0  0  0  0  0  0  0  0  0
    0.3187   -0.7647    0.5058 H   0  0  0  0  0  0  0  0  0  0  0  0
    0.6957   -2.0058    1.7303 H   0  0  0  0  0  0  0  0  0  0  0  0
    1.9743   -1.8478   -1.0673 H   0  0  0  0  0  0  0  0  0  0  0  0
    2.3571   -3.0517    0.1932 H   0  0  0  0  0  0  0  0  0  0  0  0
    4.1877   -0.2442   -1.4774 H   0  0  0  0  0  0  0  0  0  0  0  0
    4.2998   -2.0138   -1.6433 H   0  0  0  0  0  0  0  0  0  0  0  0
    5.7447   -1.0690   -1.2371 H   0  0  0  0  0  0  0  0  0  0  0  0
    4.4653   -0.1591    2.2455 H   0  0  0  0  0  0  0  0  0  0  0  0
    4.5117    0.8416    0.7936 H   0  0  0  0  0  0  0  0  0  0  0  0
    6.8681   -0.8436    1.9070 H   0  0  0  0  0  0  0  0  0  0  0  0
    6.7144    0.9190    1.9158 H   0  0  0  0  0  0  0  0  0  0  0  0
    6.9343    0.0711    0.3775 H   0  0  0  0  0  0  0  0  0  0  0  0
    6.7308   -2.5490    0.1182 H   0  0  0  0  0  0  0  0  0  0  0  0
    5.6467   -3.8267   -0.3793 H   0  0  0  0  0  0  0  0  0  0  0  0
    5.1382   -5.5430    2.3887 H   0  0  0  0  0  0  0  0  0  0  0  0
    9.5939   -6.8364    3.1516 H   0  0  0  0  0  0  0  0  0  0  0  0
    9.5901   -5.4126    4.2318 H   0  0  0  0  0  0  0  0  0  0  0  0
   10.3697   -5.3111    2.6207 H   0  0  0  0  0  0  0  0  0  0  0  0
    8.9132   -3.7164    1.2951 H   0  0  0  0  0  0  0  0  0  0  0  0
  1  2  1  0
  1 17  1  0
  1 18  1  0
  1 19  1  0
  2  3  1  0
  2 20  1  0
  2 21  1  0
  4  3  1  6
  4  5  1  0
  4  6  1  0
  4  8  1  0
  5 22  1  0
  5 23  1  0
  5 24  1  0
  6  7  1  0
  6 25  1  0
  6 26  1  0
  7 27  1  0
  7 28  1  0
  7 29  1  0
  8  9  2  0
  8 10  1  0
 10 11  1  0
 10 30  1  0
 10 31  1  0
 11 12  1  0
 11 16  2  0
 12 13  2  0
 12 32  1  0
 13 14  1  0
 14 15  1  0
 14 16  1  0
 15 33  1  0
 15 34  1  0
 15 35  1  0
 16 36  1  0
M  END

