
     RDKit          3D

 79 81  0  0  0  0  0  0  0  0999 V2000
    8.2728    1.0547   -9.8691 C   0  0  0  0  0  0  0  0  0  0  0  0
    8.8085   -0.1416   -9.1074 C   0  0  0  0  0  0  0  0  0  0  0  0
    8.1218   -0.2150   -7.8633 O   0  0  0  0  0  0  0  0  0  0  0  0
    8.4100   -1.1985   -6.9860 C   0  0  0  0  0  0  0  0  0  0  0  0
    9.3714   -2.2005   -7.2032 C   0  0  0  0  0  0  0  0  0  0  0  0
    9.5913   -3.1732   -6.2247 C   0  0  0  0  0  0  0  0  0  0  0  0
    8.8563   -3.1464   -5.0396 C   0  0  0  0  0  0  0  0  0  0  0  0
    9.0946   -4.4664   -3.8609 S   0  0  1  0  0  0  0  0  0  0  0  0
    7.8338   -5.1982   -3.6573 O   0  0  0  0  0  0  0  0  0  0  0  0
   10.2891   -5.2128   -4.2720 O   0  0  0  0  0  0  0  0  0  0  0  0
    9.3505   -3.6806   -2.3820 N   0  0  0  0  0  0  0  0  0  0  0  0
    8.5302   -4.1199   -1.2559 C   0  0  0  0  0  0  0  0  0  0  0  0
    7.0872   -3.5922   -1.3252 C   0  0  0  0  0  0  0  0  0  0  0  0
    6.8958   -2.4244   -1.6604 O   0  0  0  0  0  0  0  0  0  0  0  0
    6.0627   -4.4248   -0.9666 N   0  0  0  0  0  0  0  0  0  0  0  0
    6.2572   -5.8602   -0.7194 C   0  0  0  0  0  0  0  0  0  0  0  0
    6.9250   -6.2052    0.6026 C   0  0  0  0  0  0  0  0  0  0  0  0
    6.8262   -5.3794    1.7318 C   0  0  0  0  0  0  0  0  0  0  0  0
    7.4091   -5.7443    2.9488 C   0  0  0  0  0  0  0  0  0  0  0  0
    8.0952   -6.9528    3.0329 C   0  0  0  0  0  0  0  0  0  0  0  0
    8.6591   -7.3086    4.1973 F   0  0  0  0  0  0  0  0  0  0  0  0
    8.2140   -7.7971    1.9312 C   0  0  0  0  0  0  0  0  0  0  0  0
    7.6295   -7.4139    0.7224 C   0  0  0  0  0  0  0  0  0  0  0  0
    4.7036   -3.8525   -1.0767 C   0  0  1  0  0  0  0  0  0  0  0  0
    4.0921   -3.9667   -2.4947 C   0  0  0  0  0  0  0  0  0  0  0  0
    4.0107   -5.3590   -3.1224 C   0  0  0  0  0  0  0  0  0  0  0  0
    3.7493   -4.3991    0.0023 C   0  0  0  0  0  0  0  0  0  0  0  0
    3.3483   -5.5581    0.0034 O   0  0  0  0  0  0  0  0  0  0  0  0
    3.3677   -3.4742    0.9251 N   0  0  0  0  0  0  0  0  0  0  0  0
    2.3875   -3.6810    2.0191 C   0  0  1  0  0  0  0  0  0  0  0  0
    2.8828   -4.7827    2.9732 C   0  0  0  0  0  0  0  0  0  0  0  0
    2.2888   -2.3442    2.7691 C   0  0  0  0  0  0  0  0  0  0  0  0
    1.0152   -4.0554    1.4286 C   0  0  0  0  0  0  0  0  0  0  0  0
   10.3707   -2.6933   -2.2358 C   0  0  0  0  0  0  0  0  0  0  0  0
   10.0467   -1.4452   -1.6758 C   0  0  0  0  0  0  0  0  0  0  0  0
   11.0351   -0.4780   -1.4910 C   0  0  0  0  0  0  0  0  0  0  0  0
   12.3385   -0.7531   -1.9006 C   0  0  0  0  0  0  0  0  0  0  0  0
   13.2877    0.1815   -1.7371 F   0  0  0  0  0  0  0  0  0  0  0  0
   12.6778   -1.9751   -2.4757 C   0  0  0  0  0  0  0  0  0  0  0  0
   11.6935   -2.9536   -2.6308 C   0  0  0  0  0  0  0  0  0  0  0  0
    7.8943   -2.1498   -4.8084 C   0  0  0  0  0  0  0  0  0  0  0  0
    7.6796   -1.1822   -5.7792 C   0  0  0  0  0  0  0  0  0  0  0  0
    8.7825    1.1446  -10.8407 H   0  0  0  0  0  0  0  0  0  0  0  0
    8.4379    1.9832   -9.3015 H   0  0  0  0  0  0  0  0  0  0  0  0
    7.1924    0.9487  -10.0504 H   0  0  0  0  0  0  0  0  0  0  0  0
    9.8954   -0.0408   -8.9294 H   0  0  0  0  0  0  0  0  0  0  0  0
    8.6497   -1.0754   -9.6781 H   0  0  0  0  0  0  0  0  0  0  0  0
    9.9534   -2.2337   -8.1237 H   0  0  0  0  0  0  0  0  0  0  0  0
   10.3357   -3.9562   -6.3766 H   0  0  0  0  0  0  0  0  0  0  0  0
    8.9827   -3.6958   -0.3471 H   0  0  0  0  0  0  0  0  0  0  0  0
    8.5836   -5.2082   -1.1494 H   0  0  0  0  0  0  0  0  0  0  0  0
    6.8186   -6.3015   -1.5571 H   0  0  0  0  0  0  0  0  0  0  0  0
    5.2592   -6.3172   -0.7279 H   0  0  0  0  0  0  0  0  0  0  0  0
    6.2848   -4.4335    1.6627 H   0  0  0  0  0  0  0  0  0  0  0  0
    7.3380   -5.1062    3.8319 H   0  0  0  0  0  0  0  0  0  0  0  0
    8.7651   -8.7344    2.0297 H   0  0  0  0  0  0  0  0  0  0  0  0
    7.7259   -8.0708   -0.1470 H   0  0  0  0  0  0  0  0  0  0  0  0
    4.8479   -2.7787   -0.9009 H   0  0  0  0  0  0  0  0  0  0  0  0
    4.6881   -3.3073   -3.1458 H   0  0  0  0  0  0  0  0  0  0  0  0
    3.0844   -3.5162   -2.4436 H   0  0  0  0  0  0  0  0  0  0  0  0
    5.0145   -5.7697   -3.3084 H   0  0  0  0  0  0  0  0  0  0  0  0
    3.5035   -5.2966   -4.0986 H   0  0  0  0  0  0  0  0  0  0  0  0
    3.4479   -6.0594   -2.4891 H   0  0  0  0  0  0  0  0  0  0  0  0
    3.7410   -2.5386    0.8184 H   0  0  0  0  0  0  0  0  0  0  0  0
    3.8554   -4.5108    3.4128 H   0  0  0  0  0  0  0  0  0  0  0  0
    2.9970   -5.7349    2.4387 H   0  0  0  0  0  0  0  0  0  0  0  0
    2.1625   -4.9228    3.7944 H   0  0  0  0  0  0  0  0  0  0  0  0
    3.2637   -2.0516    3.1928 H   0  0  0  0  0  0  0  0  0  0  0  0
    1.5725   -2.4262    3.5997 H   0  0  0  0  0  0  0  0  0  0  0  0
    1.9400   -1.5370    2.1035 H   0  0  0  0  0  0  0  0  0  0  0  0
    1.0824   -4.9927    0.8602 H   0  0  0  0  0  0  0  0  0  0  0  0
    0.6511   -3.2620    0.7564 H   0  0  0  0  0  0  0  0  0  0  0  0
    0.2773   -4.1865    2.2356 H   0  0  0  0  0  0  0  0  0  0  0  0
    9.0083   -1.2480   -1.4018 H   0  0  0  0  0  0  0  0  0  0  0  0
   10.8046    0.4949   -1.0522 H   0  0  0  0  0  0  0  0  0  0  0  0
   13.7107   -2.1566   -2.7795 H   0  0  0  0  0  0  0  0  0  0  0  0
   11.9419   -3.9234   -3.0622 H   0  0  0  0  0  0  0  0  0  0  0  0
    7.3410   -2.1208   -3.8663 H   0  0  0  0  0  0  0  0  0  0  0  0
    6.9466   -0.3870   -5.6303 H   0  0  0  0  0  0  0  0  0  0  0  0
  1  2  1  0
  1 43  1  0
  1 44  1  0
  1 45  1  0
  2  3  1  0
  2 46  1  0
  2 47  1  0
  3  4  1  0
  4  5  2  0
  4 42  1  0
  5  6  1  0
  5 48  1  0
  6  7  2  0
  6 49  1  0
  7  8  1  0
  7 41  1  0
  8  9  2  0
  8 10  2  0
  8 11  1  1
 11 12  1  0
 11 34  1  0
 12 13  1  0
 12 50  1  0
 12 51  1  0
 13 14  2  0
 13 15  1  0
 15 16  1  0
 15 24  1  0
 16 17  1  0
 16 52  1  0
 16 53  1  0
 17 18  2  0
 17 23  1  0
 18 19  1  0
 18 54  1  0
 19 20  2  0
 19 55  1  0
 20 21  1  0
 20 22  1  0
 22 23  2  0
 22 56  1  0
 23 57  1  0
 24 25  1  0
 24 27  1  0
 24 58  1  1
 25 26  1  0
 25 59  1  0
 25 60  1  0
 26 61  1  0
 26 62  1  0
 26 63  1  0
 27 28  2  0
 27 29  1  0
 30 29  1  6
 29 64  1  0
 30 31  1  0
 30 32  1  0
 30 33  1  0
 31 65  1  0
 31 66  1  0
 31 67  1  0
 32 68  1  0
 32 69  1  0
 32 70  1  0
 33 71  1  0
 33 72  1  0
 33 73  1  0
 34 35  2  0
 34 40  1  0
 35 36  1  0
 35 74  1  0
 36 37  2  0
 36 75  1  0
 37 38  1  0
 37 39  1  0
 39 40  2  0
 39 76  1  0
 40 77  1  0
 41 42  2  0
 41 78  1  0
 42 79  1  0
M  END

