
     RDKit          3D

 20 22  0  0  0  0  0  0  0  0999 V2000
    0.9563   -0.5001    0.3523 O   0  0  0  0  0  0  0  0  0  0  0  0
    2.1094   -0.3308    0.0674 C   0  0  0  0  0  0  0  0  0  0  0  0
    3.1424   -1.1341   -0.7443 C   0  0  0  0  0  0  0  0  0  0  0  0
    3.8946    0.2040   -0.9838 C   0  0  2  0  0  0  0  0  0  0  0  0
    3.0593    0.8671    0.2222 C   0  0  1  0  0  0  0  0  0  0  0  0
    2.5181    2.3372    0.1967 C   0  0  0  0  0  0  0  0  0  0  0  0
    2.4472    3.0751   -1.2040 C   0  0  0  0  0  0  0  0  0  0  0  0
    3.6216    2.4408   -1.9052 C   0  0  2  0  0  0  0  0  0  0  0  0
    3.8734    1.8404   -3.1859 O   0  0  0  0  0  0  0  0  0  0  0  0
    3.3511    1.0318   -2.1230 C   0  0  1  0  0  0  0  0  0  0  0  0
    2.7646   -1.6863   -1.6177 H   0  0  0  0  0  0  0  0  0  0  0  0
    3.6987   -1.8301   -0.0962 H   0  0  0  0  0  0  0  0  0  0  0  0
    4.9881    0.2101   -0.8890 H   0  0  0  0  0  0  0  0  0  0  0  0
    3.6031    0.7076    1.1704 H   0  0  0  0  0  0  0  0  0  0  0  0
    3.1562    2.9428    0.8581 H   0  0  0  0  0  0  0  0  0  0  0  0
    1.5189    2.3235    0.6617 H   0  0  0  0  0  0  0  0  0  0  0  0
    2.5193    4.1625   -1.0499 H   0  0  0  0  0  0  0  0  0  0  0  0
    1.4996    2.8619   -1.7212 H   0  0  0  0  0  0  0  0  0  0  0  0
    4.5731    2.6630   -1.3985 H   0  0  0  0  0  0  0  0  0  0  0  0
    2.2967    0.7863   -2.3189 H   0  0  0  0  0  0  0  0  0  0  0  0
  1  2  2  0
  2  3  1  0
  2  5  1  0
  3  4  1  0
  3 11  1  0
  3 12  1  0
  4  5  1  0
  4 10  1  0
  4 13  1  1
  5  6  1  0
  5 14  1  1
  6  7  1  0
  6 15  1  0
  6 16  1  0
  7  8  1  0
  7 17  1  0
  7 18  1  0
  8  9  1  0
  8 10  1  0
  8 19  1  1
  9 10  1  0
 10 20  1  6
M  END

