
     RDKit          3D

 48 51  0  0  0  0  0  0  0  0999 V2000
    3.0124    0.7217    0.7123 C   0  0  0  0  0  0  0  0  0  0  0  0
    2.8493   -0.5967    0.2415 O   0  0  0  0  0  0  0  0  0  0  0  0
    3.0787   -0.8679   -1.0716 C   0  0  0  0  0  0  0  0  0  0  0  0
    3.4813    0.0792   -2.0185 C   0  0  0  0  0  0  0  0  0  0  0  0
    3.7562   -0.3320   -3.3273 C   0  0  0  0  0  0  0  0  0  0  0  0
    3.5893   -1.6614   -3.7051 C   0  0  0  0  0  0  0  0  0  0  0  0
    3.1172   -2.6176   -2.7871 C   0  0  0  0  0  0  0  0  0  0  0  0
    2.9774   -4.0862   -3.1424 C   0  0  1  0  0  0  0  0  0  0  0  0
    1.7202   -4.7661   -2.7370 N   0  0  0  0  0  0  0  0  0  0  0  0
    0.5661   -4.1652   -3.4299 C   0  0  0  0  0  0  0  0  0  0  0  0
    0.6630   -4.2581   -4.9641 C   0  0  0  0  0  0  0  0  0  0  0  0
    2.0956   -3.9220   -5.4251 C   0  0  0  0  0  0  0  0  0  0  0  0
    3.1564   -4.4835   -4.5589 N   0  0  0  0  0  0  0  0  0  0  0  0
    2.9929   -5.9422   -4.4283 C   0  0  0  0  0  0  0  0  0  0  0  0
    2.0004   -6.1318   -3.2097 C   0  0  0  0  0  0  0  0  0  0  0  0
    2.9174   -2.2255   -1.4506 C   0  0  0  0  0  0  0  0  0  0  0  0
    2.7114   -3.1629   -0.4832 O   0  0  0  0  0  0  0  0  0  0  0  0
    1.4299   -3.2638    0.1372 C   0  0  0  0  0  0  0  0  0  0  0  0
    1.5762   -3.8190    1.5337 C   0  0  0  0  0  0  0  0  0  0  0  0
    2.6493   -3.4331    2.3512 C   0  0  0  0  0  0  0  0  0  0  0  0
    2.7541   -3.9170    3.6572 C   0  0  0  0  0  0  0  0  0  0  0  0
    1.7853   -4.7882    4.1677 C   0  0  0  0  0  0  0  0  0  0  0  0
    0.7138   -5.1778    3.3596 C   0  0  0  0  0  0  0  0  0  0  0  0
    0.6154   -4.7000    2.0490 C   0  0  0  0  0  0  0  0  0  0  0  0
    2.7830    0.7000    1.7860 H   0  0  0  0  0  0  0  0  0  0  0  0
    2.3223    1.4254    0.2125 H   0  0  0  0  0  0  0  0  0  0  0  0
    4.0477    1.0818    0.5737 H   0  0  0  0  0  0  0  0  0  0  0  0
    3.6153    1.1242   -1.7388 H   0  0  0  0  0  0  0  0  0  0  0  0
    4.1149    0.3996   -4.0555 H   0  0  0  0  0  0  0  0  0  0  0  0
    3.8532   -1.9759   -4.7136 H   0  0  0  0  0  0  0  0  0  0  0  0
    3.7795   -4.5966   -2.5784 H   0  0  0  0  0  0  0  0  0  0  0  0
    0.5061   -3.1104   -3.1167 H   0  0  0  0  0  0  0  0  0  0  0  0
   -0.3543   -4.6530   -3.0681 H   0  0  0  0  0  0  0  0  0  0  0  0
   -0.0626   -3.5782   -5.4418 H   0  0  0  0  0  0  0  0  0  0  0  0
    0.3878   -5.2748   -5.2927 H   0  0  0  0  0  0  0  0  0  0  0  0
    2.2178   -2.8318   -5.4609 H   0  0  0  0  0  0  0  0  0  0  0  0
    2.2693   -4.2873   -6.4502 H   0  0  0  0  0  0  0  0  0  0  0  0
    3.9678   -6.4038   -4.2032 H   0  0  0  0  0  0  0  0  0  0  0  0
    2.6234   -6.3809   -5.3664 H   0  0  0  0  0  0  0  0  0  0  0  0
    2.4856   -6.7059   -2.4041 H   0  0  0  0  0  0  0  0  0  0  0  0
    1.0714   -6.6545   -3.4795 H   0  0  0  0  0  0  0  0  0  0  0  0
    0.7972   -3.9270   -0.4752 H   0  0  0  0  0  0  0  0  0  0  0  0
    0.9600   -2.2654    0.1803 H   0  0  0  0  0  0  0  0  0  0  0  0
    3.4005   -2.7543    1.9440 H   0  0  0  0  0  0  0  0  0  0  0  0
    3.5980   -3.6127    4.2825 H   0  0  0  0  0  0  0  0  0  0  0  0
    1.8688   -5.1662    5.1901 H   0  0  0  0  0  0  0  0  0  0  0  0
   -0.0436   -5.8650    3.7462 H   0  0  0  0  0  0  0  0  0  0  0  0
   -0.2174   -5.0204    1.4157 H   0  0  0  0  0  0  0  0  0  0  0  0
  1  2  1  0
  1 25  1  0
  1 26  1  0
  1 27  1  0
  2  3  1  0
  3  4  2  0
  3 16  1  0
  4  5  1  0
  4 28  1  0
  5  6  2  0
  5 29  1  0
  6  7  1  0
  6 30  1  0
  7  8  1  0
  7 16  2  0
  8  9  1  0
  8 13  1  0
  8 31  1  1
  9 10  1  0
  9 15  1  0
 10 11  1  0
 10 32  1  0
 10 33  1  0
 11 12  1  0
 11 34  1  0
 11 35  1  0
 12 13  1  0
 12 36  1  0
 12 37  1  0
 13 14  1  0
 14 15  1  0
 14 38  1  0
 14 39  1  0
 15 40  1  0
 15 41  1  0
 16 17  1  0
 17 18  1  0
 18 19  1  0
 18 42  1  0
 18 43  1  0
 19 20  2  0
 19 24  1  0
 20 21  1  0
 20 44  1  0
 21 22  2  0
 21 45  1  0
 22 23  1  0
 22 46  1  0
 23 24  2  0
 23 47  1  0
 24 48  1  0
M  END

