
     RDKit          3D

 32 34  0  0  0  0  0  0  0  0999 V2000
    1.1225    0.1795   -2.0961 Cl  0  0  0  0  0  0  0  0  0  0  0  0
    2.8039   -0.2280   -1.8263 C   0  0  0  0  0  0  0  0  0  0  0  0
    3.7894    0.6549   -2.2682 C   0  0  0  0  0  0  0  0  0  0  0  0
    5.1198    0.2908   -2.0311 C   0  0  0  0  0  0  0  0  0  0  0  0
    6.3958    1.3623   -2.5669 Cl  0  0  0  0  0  0  0  0  0  0  0  0
    5.4627   -0.8923   -1.3864 C   0  0  0  0  0  0  0  0  0  0  0  0
    4.4510   -1.7779   -0.9447 C   0  0  0  0  0  0  0  0  0  0  0  0
    4.8119   -2.9460   -0.3097 N   0  0  0  0  0  0  0  0  0  0  0  0
    3.9032   -4.0173    0.0948 C   0  0  2  0  0  0  0  0  0  0  0  0
    3.2417   -3.7362    1.4568 C   0  0  0  0  0  0  0  0  0  0  0  0
    4.2515   -3.7453    2.5955 C   0  0  0  0  0  0  0  0  0  0  0  0
    4.9756   -5.4029    2.8628 S   0  0  0  0  0  0  0  0  0  0  0  0
    5.1663   -5.9876    1.1948 C   0  0  0  0  0  0  0  0  0  0  0  0
    5.8608   -7.2064    1.0518 C   0  0  0  0  0  0  0  0  0  0  0  0
    6.0493   -7.7801   -0.2013 C   0  0  0  0  0  0  0  0  0  0  0  0
    5.5484   -7.1459   -1.3450 C   0  0  0  0  0  0  0  0  0  0  0  0
    4.8602   -5.9434   -1.2066 C   0  0  0  0  0  0  0  0  0  0  0  0
    4.6500   -5.3456    0.0491 C   0  0  0  0  0  0  0  0  0  0  0  0
    3.1025   -1.4253   -1.1736 C   0  0  0  0  0  0  0  0  0  0  0  0
    3.5361    1.5854   -2.7728 H   0  0  0  0  0  0  0  0  0  0  0  0
    6.5146   -1.1344   -1.2248 H   0  0  0  0  0  0  0  0  0  0  0  0
    5.7995   -3.1654   -0.2929 H   0  0  0  0  0  0  0  0  0  0  0  0
    3.0987   -4.0800   -0.6586 H   0  0  0  0  0  0  0  0  0  0  0  0
    2.4543   -4.4858    1.6423 H   0  0  0  0  0  0  0  0  0  0  0  0
    2.7525   -2.7494    1.4187 H   0  0  0  0  0  0  0  0  0  0  0  0
    3.7833   -3.4814    3.5550 H   0  0  0  0  0  0  0  0  0  0  0  0
    5.0559   -3.0181    2.4013 H   0  0  0  0  0  0  0  0  0  0  0  0
    6.2576   -7.6992    1.9434 H   0  0  0  0  0  0  0  0  0  0  0  0
    6.5915   -8.7253   -0.2866 H   0  0  0  0  0  0  0  0  0  0  0  0
    5.6910   -7.5884   -2.3334 H   0  0  0  0  0  0  0  0  0  0  0  0
    4.4627   -5.4418   -2.0942 H   0  0  0  0  0  0  0  0  0  0  0  0
    2.2833   -2.0644   -0.8503 H   0  0  0  0  0  0  0  0  0  0  0  0
  1  2  1  0
  2  3  2  0
  2 19  1  0
  3  4  1  0
  3 20  1  0
  4  5  1  0
  4  6  2  0
  6  7  1  0
  6 21  1  0
  7  8  1  0
  7 19  2  0
  8  9  1  0
  8 22  1  0
  9 10  1  0
  9 18  1  0
  9 23  1  6
 10 11  1  0
 10 24  1  0
 10 25  1  0
 11 12  1  0
 11 26  1  0
 11 27  1  0
 12 13  1  0
 13 14  2  0
 13 18  1  0
 14 15  1  0
 14 28  1  0
 15 16  2  0
 15 29  1  0
 16 17  1  0
 16 30  1  0
 17 18  2  0
 17 31  1  0
 19 32  1  0
M  END

