
     RDKit          3D

 68 71  0  0  0  0  0  0  0  0999 V2000
   25.9451   -1.6137   -2.2538 C   0  0  0  0  0  0  0  0  0  0  0  0
   26.3029   -0.9328   -1.0721 O   0  0  0  0  0  0  0  0  0  0  0  0
   25.7900    0.2994   -0.8329 C   0  0  0  0  0  0  0  0  0  0  0  0
   24.9003    0.9725   -1.6842 C   0  0  0  0  0  0  0  0  0  0  0  0
   24.4357    2.2460   -1.3359 C   0  0  0  0  0  0  0  0  0  0  0  0
   24.8334    2.8816   -0.1516 C   0  0  0  0  0  0  0  0  0  0  0  0
   24.3014    4.2433    0.2249 C   0  0  0  0  0  0  0  0  0  0  0  0
   23.0074    4.3195    1.0626 C   0  0  0  0  0  0  0  0  0  0  0  0
   22.5267    5.4050    1.3378 O   0  0  0  0  0  0  0  0  0  0  0  0
   22.4876    3.1138    1.4501 N   0  0  0  0  0  0  0  0  0  0  0  0
   21.3372    2.8502    2.2222 C   0  0  0  0  0  0  0  0  0  0  0  0
   21.0125    1.5132    2.4916 C   0  0  0  0  0  0  0  0  0  0  0  0
   19.8936    1.1763    3.2545 C   0  0  0  0  0  0  0  0  0  0  0  0
   19.0360    2.1699    3.7681 C   0  0  0  0  0  0  0  0  0  0  0  0
   17.8746    1.8641    4.5067 N   0  0  0  0  0  0  0  0  0  0  0  0
   17.6576    2.5797    5.7644 C   0  0  0  0  0  0  0  0  0  0  0  0
   16.1901    2.5461    6.1938 C   0  0  0  0  0  0  0  0  0  0  0  0
   15.6529    1.1001    6.2885 C   0  0  2  0  0  0  0  0  0  0  0  0
   16.1739    0.3270    7.4176 N   0  0  0  0  0  0  0  0  0  0  0  0
   15.6133    0.6044    8.7397 C   0  0  2  0  0  0  0  0  0  0  0  0
   15.3716    1.6830    8.8617 H   0  0  0  0  0  0  0  0  0  0  0  0
   16.6385    0.2382    9.8126 C   0  0  0  0  0  0  0  0  0  0  0  0
   14.2875   -0.1829    8.9172 C   0  0  0  0  0  0  0  0  0  0  0  0
   13.5040    0.1694   10.1586 C   0  0  0  0  0  0  0  0  0  0  0  0
   13.5183   -0.6280   11.3114 C   0  0  0  0  0  0  0  0  0  0  0  0
   12.7864   -0.2336   12.4332 C   0  0  0  0  0  0  0  0  0  0  0  0
   12.0584    0.9577   12.3689 C   0  0  0  0  0  0  0  0  0  0  0  0
   12.0251    1.7311   11.2807 N   0  0  0  0  0  0  0  0  0  0  0  0
   12.7258    1.3403   10.2161 C   0  0  0  0  0  0  0  0  0  0  0  0
   15.9481    0.3892    4.9584 C   0  0  0  0  0  0  0  0  0  0  0  0
   17.4225    0.4805    4.5505 C   0  0  0  0  0  0  0  0  0  0  0  0
   19.3721    3.5112    3.4821 C   0  0  0  0  0  0  0  0  0  0  0  0
   20.4950    3.8545    2.7352 C   0  0  0  0  0  0  0  0  0  0  0  0
   25.7274    2.1884    0.6885 C   0  0  0  0  0  0  0  0  0  0  0  0
   26.1994    0.9219    0.3600 C   0  0  0  0  0  0  0  0  0  0  0  0
   26.4751   -2.5754   -2.2338 H   0  0  0  0  0  0  0  0  0  0  0  0
   26.2498   -1.0568   -3.1583 H   0  0  0  0  0  0  0  0  0  0  0  0
   24.8580   -1.8062   -2.3054 H   0  0  0  0  0  0  0  0  0  0  0  0
   24.5667    0.5217   -2.6190 H   0  0  0  0  0  0  0  0  0  0  0  0
   23.7458    2.7573   -2.0138 H   0  0  0  0  0  0  0  0  0  0  0  0
   24.0970    4.8485   -0.6726 H   0  0  0  0  0  0  0  0  0  0  0  0
   25.0507    4.8112    0.8004 H   0  0  0  0  0  0  0  0  0  0  0  0
   22.9991    2.2952    1.1373 H   0  0  0  0  0  0  0  0  0  0  0  0
   21.6543    0.7130    2.1096 H   0  0  0  0  0  0  0  0  0  0  0  0
   19.7042    0.1217    3.4535 H   0  0  0  0  0  0  0  0  0  0  0  0
   17.9866    3.6205    5.6568 H   0  0  0  0  0  0  0  0  0  0  0  0
   18.2935    2.1418    6.5695 H   0  0  0  0  0  0  0  0  0  0  0  0
   15.5916    3.1063    5.4555 H   0  0  0  0  0  0  0  0  0  0  0  0
   16.0797    3.0652    7.1605 H   0  0  0  0  0  0  0  0  0  0  0  0
   14.5583    1.1442    6.4120 H   0  0  0  0  0  0  0  0  0  0  0  0
   17.1894    0.3739    7.4499 H   0  0  0  0  0  0  0  0  0  0  0  0
   16.2366    0.3956   10.8239 H   0  0  0  0  0  0  0  0  0  0  0  0
   17.5473    0.8546    9.7141 H   0  0  0  0  0  0  0  0  0  0  0  0
   16.9320   -0.8208    9.7172 H   0  0  0  0  0  0  0  0  0  0  0  0
   14.5279   -1.2583    8.9040 H   0  0  0  0  0  0  0  0  0  0  0  0
   13.6580    0.0053    8.0324 H   0  0  0  0  0  0  0  0  0  0  0  0
   14.0958   -1.5572   11.3261 H   0  0  0  0  0  0  0  0  0  0  0  0
   12.7773   -0.8394   13.3425 H   0  0  0  0  0  0  0  0  0  0  0  0
   11.4742    1.2980   13.2325 H   0  0  0  0  0  0  0  0  0  0  0  0
   12.6677    1.9914    9.3333 H   0  0  0  0  0  0  0  0  0  0  0  0
   15.3409    0.8529    4.1630 H   0  0  0  0  0  0  0  0  0  0  0  0
   15.6551   -0.6692    5.0379 H   0  0  0  0  0  0  0  0  0  0  0  0
   17.5417    0.0388    3.5505 H   0  0  0  0  0  0  0  0  0  0  0  0
   18.0444   -0.1346    5.2416 H   0  0  0  0  0  0  0  0  0  0  0  0
   18.7215    4.3151    3.8319 H   0  0  0  0  0  0  0  0  0  0  0  0
   20.7255    4.8968    2.5263 H   0  0  0  0  0  0  0  0  0  0  0  0
   26.0639    2.6567    1.6183 H   0  0  0  0  0  0  0  0  0  0  0  0
   26.8969    0.3891    1.0095 H   0  0  0  0  0  0  0  0  0  0  0  0
  1  2  1  0
  1 36  1  0
  1 37  1  0
  1 38  1  0
  2  3  1  0
  3  4  2  0
  3 35  1  0
  4  5  1  0
  4 39  1  0
  5  6  2  0
  5 40  1  0
  6  7  1  0
  6 34  1  0
  7  8  1  0
  7 41  1  0
  7 42  1  0
  8  9  2  0
  8 10  1  0
 10 11  1  0
 10 43  1  0
 11 12  2  0
 11 33  1  0
 12 13  1  0
 12 44  1  0
 13 14  2  0
 13 45  1  0
 14 15  1  0
 14 32  1  0
 15 16  1  0
 15 31  1  0
 16 17  1  0
 16 46  1  0
 16 47  1  0
 17 18  1  0
 17 48  1  0
 17 49  1  0
 18 19  1  0
 18 30  1  0
 18 50  1  1
 19 20  1  0
 19 51  1  0
 20 21  1  6
 20 22  1  0
 20 23  1  0
 22 52  1  0
 22 53  1  0
 22 54  1  0
 23 24  1  0
 23 55  1  0
 23 56  1  0
 24 25  2  0
 24 29  1  0
 25 26  1  0
 25 57  1  0
 26 27  2  0
 26 58  1  0
 27 28  1  0
 27 59  1  0
 28 29  2  0
 29 60  1  0
 30 31  1  0
 30 61  1  0
 30 62  1  0
 31 63  1  0
 31 64  1  0
 32 33  2  0
 32 65  1  0
 33 66  1  0
 34 35  2  0
 34 67  1  0
 35 68  1  0
M  END

