
     RDKit          3D

 54 57  0  0  0  0  0  0  0  0999 V2000
    0.9659   -0.1119    1.0230 C   0  0  0  0  0  0  0  0  0  0  0  0
    2.3022    0.1407    0.3961 C   0  0  0  0  0  0  0  0  0  0  0  0
    2.8249    1.3699   -0.0308 C   0  0  0  0  0  0  0  0  0  0  0  0
    2.1451    2.6886    0.0511 C   0  0  0  0  0  0  0  0  0  0  0  0
    0.9428    2.8041    0.2575 O   0  0  0  0  0  0  0  0  0  0  0  0
    2.9934    3.7623   -0.1205 N   0  0  0  0  0  0  0  0  0  0  0  0
    2.7065    5.1436   -0.1542 C   0  0  0  0  0  0  0  0  0  0  0  0
    1.3985    5.6624   -0.0046 C   0  0  0  0  0  0  0  0  0  0  0  0
    1.1616    7.0374   -0.0500 C   0  0  0  0  0  0  0  0  0  0  0  0
    2.2326    7.9163   -0.2448 C   0  0  0  0  0  0  0  0  0  0  0  0
    2.2703    9.2991   -0.3199 N   0  0  0  0  0  0  0  0  0  0  0  0
    3.5308    9.6031   -0.5163 C   0  0  0  0  0  0  0  0  0  0  0  0
    4.0092   10.8804   -0.7015 N   0  0  0  0  0  0  0  0  0  0  0  0
    5.4209   11.1932   -0.5362 C   0  0  0  0  0  0  0  0  0  0  0  0
    5.7462   12.5008   -1.2614 C   0  0  0  0  0  0  0  0  0  0  0  0
    4.8952   13.5467   -0.8576 O   0  0  0  0  0  0  0  0  0  0  0  0
    3.5372   13.2385   -1.1189 C   0  0  0  0  0  0  0  0  0  0  0  0
    3.1021   11.9814   -0.3783 C   0  0  0  0  0  0  0  0  0  0  0  0
    4.3550    8.4881   -0.5611 N   0  0  0  0  0  0  0  0  0  0  0  0
    5.3545    8.4736   -0.7026 H   0  0  0  0  0  0  0  0  0  0  0  0
    3.5358    7.3785   -0.3918 C   0  0  0  0  0  0  0  0  0  0  0  0
    3.7980    6.0129   -0.3517 C   0  0  0  0  0  0  0  0  0  0  0  0
    4.1042    1.0461   -0.5523 C   0  0  0  0  0  0  0  0  0  0  0  0
    4.3548   -0.2457   -0.4567 N   0  0  0  0  0  0  0  0  0  0  0  0
    3.2619   -0.7972    0.1144 N   0  0  0  0  0  0  0  0  0  0  0  0
    3.2923   -2.2629    0.4246 C   0  0  1  0  0  0  0  0  0  0  0  0
    4.4905   -2.8959   -0.3013 C   0  0  0  0  0  0  0  0  0  0  0  0
    3.4669   -2.4479    1.9438 C   0  0  0  0  0  0  0  0  0  0  0  0
    2.0059   -2.9415   -0.0797 C   0  0  0  0  0  0  0  0  0  0  0  0
    0.5406    0.8494    1.3324 H   0  0  0  0  0  0  0  0  0  0  0  0
    1.0242   -0.7850    1.8900 H   0  0  0  0  0  0  0  0  0  0  0  0
    0.2602   -0.5522    0.2997 H   0  0  0  0  0  0  0  0  0  0  0  0
    3.9761    3.5348   -0.2002 H   0  0  0  0  0  0  0  0  0  0  0  0
    0.5811    4.9630    0.1498 H   0  0  0  0  0  0  0  0  0  0  0  0
    0.1483    7.4275    0.0667 H   0  0  0  0  0  0  0  0  0  0  0  0
    6.0442   10.3973   -0.9731 H   0  0  0  0  0  0  0  0  0  0  0  0
    5.6910   11.2870    0.5370 H   0  0  0  0  0  0  0  0  0  0  0  0
    5.6636   12.3351   -2.3560 H   0  0  0  0  0  0  0  0  0  0  0  0
    6.7776   12.8112   -1.0342 H   0  0  0  0  0  0  0  0  0  0  0  0
    3.3804   13.1040   -2.2088 H   0  0  0  0  0  0  0  0  0  0  0  0
    2.9423   14.1021   -0.7867 H   0  0  0  0  0  0  0  0  0  0  0  0
    2.0839   11.6822   -0.6587 H   0  0  0  0  0  0  0  0  0  0  0  0
    3.1036   12.1740    0.7138 H   0  0  0  0  0  0  0  0  0  0  0  0
    4.8118    5.6196   -0.4708 H   0  0  0  0  0  0  0  0  0  0  0  0
    4.8437    1.6973   -1.0214 H   0  0  0  0  0  0  0  0  0  0  0  0
    5.4419   -2.4621    0.0293 H   0  0  0  0  0  0  0  0  0  0  0  0
    4.4197   -2.7536   -1.3886 H   0  0  0  0  0  0  0  0  0  0  0  0
    4.4953   -3.9755   -0.0864 H   0  0  0  0  0  0  0  0  0  0  0  0
    4.3914   -1.9574    2.2844 H   0  0  0  0  0  0  0  0  0  0  0  0
    3.5356   -3.5194    2.1874 H   0  0  0  0  0  0  0  0  0  0  0  0
    2.6255   -2.0280    2.5136 H   0  0  0  0  0  0  0  0  0  0  0  0
    1.8485   -2.7306   -1.1487 H   0  0  0  0  0  0  0  0  0  0  0  0
    1.1109   -2.6287    0.4716 H   0  0  0  0  0  0  0  0  0  0  0  0
    2.1015   -4.0312    0.0410 H   0  0  0  0  0  0  0  0  0  0  0  0
  1  2  1  0
  1 30  1  0
  1 31  1  0
  1 32  1  0
  2  3  2  0
  2 25  1  0
  3  4  1  0
  3 23  1  0
  4  5  2  0
  4  6  1  0
  6  7  1  0
  6 33  1  0
  7  8  2  0
  7 22  1  0
  8  9  1  0
  8 34  1  0
  9 10  2  0
  9 35  1  0
 10 11  1  0
 10 21  1  0
 11 12  2  0
 12 13  1  0
 12 19  1  0
 13 14  1  0
 13 18  1  0
 14 15  1  0
 14 36  1  0
 14 37  1  0
 15 16  1  0
 15 38  1  0
 15 39  1  0
 16 17  1  0
 17 18  1  0
 17 40  1  0
 17 41  1  0
 18 42  1  0
 18 43  1  0
 19 20  1  0
 19 21  1  0
 21 22  2  0
 22 44  1  0
 23 24  2  0
 23 45  1  0
 24 25  1  0
 25 26  1  0
 26 27  1  6
 26 28  1  0
 26 29  1  0
 27 46  1  0
 27 47  1  0
 27 48  1  0
 28 49  1  0
 28 50  1  0
 28 51  1  0
 29 52  1  0
 29 53  1  0
 29 54  1  0
M  END

