
     RDKit          3D

 43 45  0  0  0  0  0  0  0  0999 V2000
    2.1690   -1.2628   -0.2303 C   0  0  0  0  0  0  0  0  0  0  0  0
    1.0863   -0.9960    0.8296 C   0  0  0  0  0  0  0  0  0  0  0  0
    0.0719    0.0551    0.3433 C   0  0  2  0  0  0  0  0  0  0  0  0
    0.8266    1.3116   -0.1291 C   0  0  0  0  0  0  0  0  0  0  0  0
    1.9084    0.9575   -1.1631 C   0  0  0  0  0  0  0  0  0  0  0  0
    2.8476   -0.0594   -0.7011 N   0  0  0  0  0  0  0  0  0  0  0  0
   -1.0309    0.3642    1.3824 C   0  0  0  0  0  0  0  0  0  0  0  0
   -2.3353    0.3429    0.5640 C   0  0  2  0  0  0  0  0  0  0  0  0
   -3.4871   -0.0576    1.2629 O   0  0  0  0  0  0  0  0  0  0  0  0
   -4.0459    0.9121    2.1242 C   0  0  0  0  0  0  0  0  0  0  0  0
   -5.3536    0.3682    2.7063 C   0  0  1  0  0  0  0  0  0  0  0  0
   -5.1593   -0.9311    3.5158 C   0  0  0  0  0  0  0  0  0  0  0  0
   -4.5879   -0.6602    4.9082 C   0  0  0  0  0  0  0  0  0  0  0  0
   -5.3704    0.2753    5.6273 O   0  0  0  0  0  0  0  0  0  0  0  0
   -5.4484    1.5280    4.9795 C   0  0  0  0  0  0  0  0  0  0  0  0
   -6.0736    1.4116    3.5855 C   0  0  0  0  0  0  0  0  0  0  0  0
   -1.9928   -0.6889   -0.5113 C   0  0  0  0  0  0  0  0  0  0  0  0
   -0.6299   -0.4817   -0.8083 O   0  0  0  0  0  0  0  0  0  0  0  0
    1.6910   -1.7472   -1.0986 H   0  0  0  0  0  0  0  0  0  0  0  0
    2.9202   -1.9703    0.1575 H   0  0  0  0  0  0  0  0  0  0  0  0
    1.5540   -0.6334    1.7637 H   0  0  0  0  0  0  0  0  0  0  0  0
    0.5515   -1.9291    1.0779 H   0  0  0  0  0  0  0  0  0  0  0  0
    1.2980    1.7912    0.7480 H   0  0  0  0  0  0  0  0  0  0  0  0
    0.1070    2.0346   -0.5502 H   0  0  0  0  0  0  0  0  0  0  0  0
    2.4704    1.8598   -1.4554 H   0  0  0  0  0  0  0  0  0  0  0  0
    1.4124    0.5801   -2.0733 H   0  0  0  0  0  0  0  0  0  0  0  0
    3.4298    0.3230    0.0452 H   0  0  0  0  0  0  0  0  0  0  0  0
   -0.8493    1.3130    1.9077 H   0  0  0  0  0  0  0  0  0  0  0  0
   -1.0931   -0.4382    2.1360 H   0  0  0  0  0  0  0  0  0  0  0  0
   -2.5062    1.3324    0.0934 H   0  0  0  0  0  0  0  0  0  0  0  0
   -4.2560    1.8450    1.5606 H   0  0  0  0  0  0  0  0  0  0  0  0
   -3.3272    1.1799    2.9238 H   0  0  0  0  0  0  0  0  0  0  0  0
   -5.9920    0.1381    1.8362 H   0  0  0  0  0  0  0  0  0  0  0  0
   -4.5081   -1.6260    2.9633 H   0  0  0  0  0  0  0  0  0  0  0  0
   -6.1394   -1.4234    3.6354 H   0  0  0  0  0  0  0  0  0  0  0  0
   -3.5390   -0.2998    4.8368 H   0  0  0  0  0  0  0  0  0  0  0  0
   -4.5723   -1.5824    5.5093 H   0  0  0  0  0  0  0  0  0  0  0  0
   -4.4383    1.9875    4.9168 H   0  0  0  0  0  0  0  0  0  0  0  0
   -6.0594    2.1785    5.6245 H   0  0  0  0  0  0  0  0  0  0  0  0
   -6.0859    2.4020    3.0973 H   0  0  0  0  0  0  0  0  0  0  0  0
   -7.1256    1.1034    3.7073 H   0  0  0  0  0  0  0  0  0  0  0  0
   -2.5815   -0.5724   -1.4343 H   0  0  0  0  0  0  0  0  0  0  0  0
   -2.1880   -1.7014   -0.1026 H   0  0  0  0  0  0  0  0  0  0  0  0
  1  2  1  0
  1  6  1  0
  1 19  1  0
  1 20  1  0
  2  3  1  0
  2 21  1  0
  2 22  1  0
  3  4  1  0
  3  7  1  0
  3 18  1  6
  4  5  1  0
  4 23  1  0
  4 24  1  0
  5  6  1  0
  5 25  1  0
  5 26  1  0
  6 27  1  0
  7  8  1  0
  7 28  1  0
  7 29  1  0
  8  9  1  0
  8 17  1  0
  8 30  1  6
  9 10  1  0
 10 11  1  0
 10 31  1  0
 10 32  1  0
 11 12  1  0
 11 16  1  0
 11 33  1  6
 12 13  1  0
 12 34  1  0
 12 35  1  0
 13 14  1  0
 13 36  1  0
 13 37  1  0
 14 15  1  0
 15 16  1  0
 15 38  1  0
 15 39  1  0
 16 40  1  0
 16 41  1  0
 17 18  1  0
 17 42  1  0
 17 43  1  0
M  END

