
     RDKit          3D

 53 57  0  0  0  0  0  0  0  0999 V2000
    1.2735   -0.6137    0.8607 C   0  0  0  0  0  0  0  0  0  0  0  0
    2.4194   -0.1546    0.1048 N   0  0  0  0  0  0  0  0  0  0  0  0
    2.7705    1.2504    0.1069 C   0  0  0  0  0  0  0  0  0  0  0  0
    3.1470   -1.0511   -0.6539 C   0  0  0  0  0  0  0  0  0  0  0  0
    4.2629   -0.6308   -1.4296 C   0  0  0  0  0  0  0  0  0  0  0  0
    4.9843   -1.5470   -2.1800 C   0  0  0  0  0  0  0  0  0  0  0  0
    4.6631   -2.9141   -2.2210 C   0  0  0  0  0  0  0  0  0  0  0  0
    5.5084   -3.9087   -2.9866 C   0  0  1  0  0  0  0  0  0  0  0  0
    5.9184   -3.4251   -4.3703 C   0  0  0  0  0  0  0  0  0  0  0  0
    5.1557   -3.1256   -5.4998 C   0  0  0  0  0  0  0  0  0  0  0  0
    5.8079   -2.6957   -6.6556 C   0  0  0  0  0  0  0  0  0  0  0  0
    7.2186   -2.5554   -6.7147 C   0  0  0  0  0  0  0  0  0  0  0  0
    7.8269   -2.0793   -7.8649 N   0  0  0  0  0  0  0  0  0  0  0  0
    7.9745   -2.8632   -5.5673 C   0  0  0  0  0  0  0  0  0  0  0  0
    7.3001   -3.2895   -4.4263 C   0  0  0  0  0  0  0  0  0  0  0  0
    7.8625   -3.6741   -3.1037 C   0  0  0  0  0  0  0  0  0  0  0  0
    9.0103   -3.6959   -2.7445 O   0  0  0  0  0  0  0  0  0  0  0  0
    6.8224   -4.0232   -2.3023 O   0  0  0  0  0  0  0  0  0  0  0  0
    4.8573   -5.2748   -2.9875 C   0  0  0  0  0  0  0  0  0  0  0  0
    5.3805   -6.3430   -3.7352 C   0  0  0  0  0  0  0  0  0  0  0  0
    4.8399   -7.6194   -3.6966 C   0  0  0  0  0  0  0  0  0  0  0  0
    3.7100   -7.9010   -2.8796 C   0  0  0  0  0  0  0  0  0  0  0  0
    3.1571   -9.1662   -2.8273 N   0  0  0  0  0  0  0  0  0  0  0  0
    2.0212   -9.4213   -1.9673 C   0  0  0  0  0  0  0  0  0  0  0  0
    3.7362  -10.2459   -3.5994 C   0  0  0  0  0  0  0  0  0  0  0  0
    3.1742   -6.8359   -2.1277 C   0  0  0  0  0  0  0  0  0  0  0  0
    3.7452   -5.5607   -2.1851 C   0  0  0  0  0  0  0  0  0  0  0  0
    3.1335   -4.6150   -1.4139 O   0  0  0  0  0  0  0  0  0  0  0  0
    3.5610   -3.3190   -1.4570 C   0  0  0  0  0  0  0  0  0  0  0  0
    2.8103   -2.4193   -0.6939 C   0  0  0  0  0  0  0  0  0  0  0  0
    0.8320    0.2307    1.4054 H   0  0  0  0  0  0  0  0  0  0  0  0
    1.5485   -1.3852    1.6035 H   0  0  0  0  0  0  0  0  0  0  0  0
    0.4877   -1.0455    0.2122 H   0  0  0  0  0  0  0  0  0  0  0  0
    2.0918    1.7939    0.7768 H   0  0  0  0  0  0  0  0  0  0  0  0
    2.6893    1.7077   -0.8974 H   0  0  0  0  0  0  0  0  0  0  0  0
    3.8017    1.4214    0.4663 H   0  0  0  0  0  0  0  0  0  0  0  0
    4.5686    0.4139   -1.4428 H   0  0  0  0  0  0  0  0  0  0  0  0
    5.8392   -1.1909   -2.7598 H   0  0  0  0  0  0  0  0  0  0  0  0
    4.0672   -3.2234   -5.4904 H   0  0  0  0  0  0  0  0  0  0  0  0
    5.2193   -2.4542   -7.5456 H   0  0  0  0  0  0  0  0  0  0  0  0
    7.3096   -2.1694   -8.7310 H   0  0  0  0  0  0  0  0  0  0  0  0
    8.8188   -2.2581   -7.9656 H   0  0  0  0  0  0  0  0  0  0  0  0
    9.0638   -2.7719   -5.5584 H   0  0  0  0  0  0  0  0  0  0  0  0
    6.2521   -6.1624   -4.3689 H   0  0  0  0  0  0  0  0  0  0  0  0
    5.2983   -8.4015   -4.2994 H   0  0  0  0  0  0  0  0  0  0  0  0
    1.1458   -8.8020   -2.2383 H   0  0  0  0  0  0  0  0  0  0  0  0
    2.2490   -9.2223   -0.9032 H   0  0  0  0  0  0  0  0  0  0  0  0
    1.7246  -10.4745   -2.0550 H   0  0  0  0  0  0  0  0  0  0  0  0
    4.7853  -10.4513   -3.3155 H   0  0  0  0  0  0  0  0  0  0  0  0
    3.7215  -10.0378   -4.6853 H   0  0  0  0  0  0  0  0  0  0  0  0
    3.1593  -11.1642   -3.4299 H   0  0  0  0  0  0  0  0  0  0  0  0
    2.3090   -6.9590   -1.4797 H   0  0  0  0  0  0  0  0  0  0  0  0
    1.9682   -2.8273   -0.1389 H   0  0  0  0  0  0  0  0  0  0  0  0
  1  2  1  0
  1 31  1  0
  1 32  1  0
  1 33  1  0
  2  3  1  0
  2  4  1  0
  3 34  1  0
  3 35  1  0
  3 36  1  0
  4  5  2  0
  4 30  1  0
  5  6  1  0
  5 37  1  0
  6  7  2  0
  6 38  1  0
  7  8  1  0
  7 29  1  0
  8  9  1  0
  8 18  1  1
  8 19  1  0
  9 10  2  0
  9 15  1  0
 10 11  1  0
 10 39  1  0
 11 12  2  0
 11 40  1  0
 12 13  1  0
 12 14  1  0
 13 41  1  0
 13 42  1  0
 14 15  2  0
 14 43  1  0
 15 16  1  0
 16 17  2  0
 16 18  1  0
 19 20  2  0
 19 27  1  0
 20 21  1  0
 20 44  1  0
 21 22  2  0
 21 45  1  0
 22 23  1  0
 22 26  1  0
 23 24  1  0
 23 25  1  0
 24 46  1  0
 24 47  1  0
 24 48  1  0
 25 49  1  0
 25 50  1  0
 25 51  1  0
 26 27  2  0
 26 52  1  0
 27 28  1  0
 28 29  1  0
 29 30  2  0
 30 53  1  0
M  END

