
     RDKit          3D

 50 53  0  0  0  0  0  0  0  0999 V2000
    0.7003   -5.9750    3.5885 C   0  0  0  0  0  0  0  0  0  0  0  0
    1.3227   -5.8371    2.1986 C   0  0  0  0  0  0  0  0  0  0  0  0
    2.1740   -4.6687    2.0551 N   0  0  0  0  0  0  0  0  0  0  0  0
    3.5595   -4.7308    2.1639 C   0  0  0  0  0  0  0  0  0  0  0  0
    4.2411   -5.7247    2.3562 O   0  0  0  0  0  0  0  0  0  0  0  0
    4.0195   -3.4250    1.9931 N   0  0  0  0  0  0  0  0  0  0  0  0
    5.4282   -3.1156    2.0155 C   0  0  0  0  0  0  0  0  0  0  0  0
    5.8865   -2.6185    3.3981 C   0  0  0  0  0  0  0  0  0  0  0  0
    5.1706   -1.8414    4.0103 O   0  0  0  0  0  0  0  0  0  0  0  0
    7.1092   -3.0363    3.8743 N   0  0  0  0  0  0  0  0  0  0  0  0
    7.6056   -2.3982    5.0994 C   0  0  0  0  0  0  0  0  0  0  0  0
    8.6392   -1.2960    4.8551 C   0  0  1  0  0  0  0  0  0  0  0  0
    8.1435   -0.0574    4.0902 C   0  0  0  0  0  0  0  0  0  0  0  0
    9.1778    0.9949    4.4959 C   0  0  0  0  0  0  0  0  0  0  0  0
    9.5940    0.6538    5.8145 O   0  0  0  0  0  0  0  0  0  0  0  0
    9.1502   -0.6503    6.1543 C   0  0  0  0  0  0  0  0  0  0  0  0
    8.0106   -3.9127    3.1632 C   0  0  1  0  0  0  0  0  0  0  0  0
    8.6387   -5.0712    3.9033 C   0  0  0  0  0  0  0  0  0  0  0  0
    7.6263   -5.3364    2.8289 C   0  0  0  0  0  0  0  0  0  0  0  0
    2.9442   -2.5584    1.8180 C   0  0  0  0  0  0  0  0  0  0  0  0
    2.8767   -1.1818    1.6284 C   0  0  0  0  0  0  0  0  0  0  0  0
    1.6094   -0.6101    1.4422 C   0  0  0  0  0  0  0  0  0  0  0  0
    0.4497   -1.3953    1.4565 C   0  0  0  0  0  0  0  0  0  0  0  0
    0.5154   -2.7816    1.6629 C   0  0  0  0  0  0  0  0  0  0  0  0
    1.7737   -3.3512    1.8434 C   0  0  0  0  0  0  0  0  0  0  0  0
    0.0627   -6.8723    3.6315 H   0  0  0  0  0  0  0  0  0  0  0  0
    0.0786   -5.1024    3.8431 H   0  0  0  0  0  0  0  0  0  0  0  0
    1.4830   -6.0740    4.3561 H   0  0  0  0  0  0  0  0  0  0  0  0
    0.5408   -5.7908    1.4221 H   0  0  0  0  0  0  0  0  0  0  0  0
    1.9572   -6.7080    1.9783 H   0  0  0  0  0  0  0  0  0  0  0  0
    5.6301   -2.3019    1.2983 H   0  0  0  0  0  0  0  0  0  0  0  0
    5.9676   -4.0043    1.6765 H   0  0  0  0  0  0  0  0  0  0  0  0
    8.0453   -3.1768    5.7424 H   0  0  0  0  0  0  0  0  0  0  0  0
    6.7328   -1.9820    5.6193 H   0  0  0  0  0  0  0  0  0  0  0  0
    9.5050   -1.7223    4.3164 H   0  0  0  0  0  0  0  0  0  0  0  0
    7.1350    0.2185    4.4381 H   0  0  0  0  0  0  0  0  0  0  0  0
    8.0921   -0.2059    3.0008 H   0  0  0  0  0  0  0  0  0  0  0  0
    8.7725    2.0208    4.4978 H   0  0  0  0  0  0  0  0  0  0  0  0
   10.0502    0.9815    3.8121 H   0  0  0  0  0  0  0  0  0  0  0  0
    8.3345   -0.5910    6.9042 H   0  0  0  0  0  0  0  0  0  0  0  0
    9.9821   -1.2134    6.6121 H   0  0  0  0  0  0  0  0  0  0  0  0
    8.6643   -3.4088    2.4379 H   0  0  0  0  0  0  0  0  0  0  0  0
    8.3230   -5.2424    4.9357 H   0  0  0  0  0  0  0  0  0  0  0  0
    9.6940   -5.2843    3.7123 H   0  0  0  0  0  0  0  0  0  0  0  0
    6.6288   -5.6773    3.1189 H   0  0  0  0  0  0  0  0  0  0  0  0
    7.9693   -5.7303    1.8677 H   0  0  0  0  0  0  0  0  0  0  0  0
    3.7758   -0.5654    1.6569 H   0  0  0  0  0  0  0  0  0  0  0  0
    1.5282    0.4694    1.2959 H   0  0  0  0  0  0  0  0  0  0  0  0
   -0.5249   -0.9225    1.3141 H   0  0  0  0  0  0  0  0  0  0  0  0
   -0.3911   -3.3893    1.6830 H   0  0  0  0  0  0  0  0  0  0  0  0
  1  2  1  0
  1 26  1  0
  1 27  1  0
  1 28  1  0
  2  3  1  0
  2 29  1  0
  2 30  1  0
  3  4  1  0
  3 25  1  0
  4  5  2  0
  4  6  1  0
  6  7  1  0
  6 20  1  0
  7  8  1  0
  7 31  1  0
  7 32  1  0
  8  9  2  0
  8 10  1  0
 10 11  1  0
 10 17  1  0
 11 12  1  0
 11 33  1  0
 11 34  1  0
 12 13  1  0
 12 16  1  0
 12 35  1  6
 13 14  1  0
 13 36  1  0
 13 37  1  0
 14 15  1  0
 14 38  1  0
 14 39  1  0
 15 16  1  0
 16 40  1  0
 16 41  1  0
 17 18  1  0
 17 19  1  0
 17 42  1  6
 18 19  1  0
 18 43  1  0
 18 44  1  0
 19 45  1  0
 19 46  1  0
 20 21  1  0
 20 25  2  0
 21 22  2  0
 21 47  1  0
 22 23  1  0
 22 48  1  0
 23 24  2  0
 23 49  1  0
 24 25  1  0
 24 50  1  0
M  END

