
     RDKit          3D

 23 23  0  0  0  0  0  0  0  0999 V2000
    1.2721    0.6571    0.8903 C   0  0  0  0  0  0  0  0  0  0  0  0
    2.6563    0.2948    0.3528 C   0  0  0  0  0  0  0  0  0  0  0  0
    2.7517    0.2754   -1.1799 C   0  0  1  0  0  0  0  0  0  0  0  0
    2.5989    1.6166   -1.7804 N   0  0  0  0  0  0  0  0  0  0  0  0
    1.7190    1.8035   -2.8588 C   0  0  0  0  0  0  0  0  0  0  0  0
    1.8251    1.2828   -4.1260 C   0  0  0  0  0  0  0  0  0  0  0  0
    0.7286    1.6279   -4.9756 C   0  0  0  0  0  0  0  0  0  0  0  0
   -0.1955    2.4174   -4.3452 C   0  0  0  0  0  0  0  0  0  0  0  0
   -1.6177    3.1170   -5.0280 Cl  0  0  0  0  0  0  0  0  0  0  0  0
    0.2312    2.7280   -2.6810 S   0  0  0  0  0  0  0  0  0  0  0  0
    4.0847   -0.3733   -1.6221 C   0  0  0  0  0  0  0  0  0  0  0  0
    4.4069   -1.4794   -1.2791 O   0  0  0  0  0  0  0  0  0  0  0  0
    4.8345    0.3991   -2.4152 O   0  0  0  0  0  0  0  0  0  0  0  0
    1.2676    0.6561    1.9911 H   0  0  0  0  0  0  0  0  0  0  0  0
    0.5121   -0.0647    0.5502 H   0  0  0  0  0  0  0  0  0  0  0  0
    0.9430    1.6572    0.5628 H   0  0  0  0  0  0  0  0  0  0  0  0
    2.9517   -0.7069    0.6990 H   0  0  0  0  0  0  0  0  0  0  0  0
    3.4201    0.9912    0.7464 H   0  0  0  0  0  0  0  0  0  0  0  0
    1.9583   -0.3831   -1.5741 H   0  0  0  0  0  0  0  0  0  0  0  0
    2.5527    2.3579   -1.0869 H   0  0  0  0  0  0  0  0  0  0  0  0
    2.6768    0.6807   -4.4460 H   0  0  0  0  0  0  0  0  0  0  0  0
    0.6404    1.3298   -6.0202 H   0  0  0  0  0  0  0  0  0  0  0  0
    4.3459    1.2497   -2.4844 H   0  0  0  0  0  0  0  0  0  0  0  0
  1  2  1  0
  1 14  1  0
  1 15  1  0
  1 16  1  0
  2  3  1  0
  2 17  1  0
  2 18  1  0
  3  4  1  0
  3 11  1  0
  3 19  1  6
  4  5  1  0
  4 20  1  0
  5  6  2  0
  5 10  1  0
  6  7  1  0
  6 21  1  0
  7  8  2  0
  7 22  1  0
  8  9  1  0
  8 10  1  0
 11 12  2  0
 11 13  1  0
 13 23  1  0
M  END

