
     RDKit          3D

 31 30  0  0  0  0  0  0  0  0999 V2000
    2.6548    1.1666   -0.7560 C   0  0  0  0  0  0  0  0  0  0  0  0
    2.4494   -0.1170    0.0594 C   0  0  1  0  0  0  0  0  0  0  0  0
    0.9557   -0.4113    0.2509 C   0  0  0  0  0  0  0  0  0  0  0  0
    3.1454   -1.3378   -0.5721 C   0  0  0  0  0  0  0  0  0  0  0  0
    4.6649   -1.2527   -0.7054 C   0  0  1  0  0  0  0  0  0  0  0  0
    4.9546   -0.3536   -1.2758 H   0  0  0  0  0  0  0  0  0  0  0  0
    5.2970   -1.1265    0.6152 N   0  0  0  0  0  0  0  0  0  0  0  0
    6.5404   -0.6400    0.8023 C   0  0  0  0  0  0  0  0  0  0  0  0
    7.2721   -0.3535   -0.1587 O   0  0  0  0  0  0  0  0  0  0  0  0
    7.0086   -0.4728    2.2331 C   0  0  0  0  0  0  0  0  0  0  0  0
    7.5533    0.9266    2.5989 C   0  0  0  0  0  0  0  0  0  0  0  0
    8.3665    1.4841    1.6688 N   0  0  0  0  0  0  0  0  0  0  0  0
    7.2887    1.4252    3.6750 O   0  0  0  0  0  0  0  0  0  0  0  0
    5.2390   -2.4637   -1.4901 C   0  0  0  0  0  0  0  0  0  0  0  0
    4.5573   -3.3804   -1.8658 O   0  0  0  0  0  0  0  0  0  0  0  0
    6.5487   -2.3989   -1.7339 O   0  0  0  0  0  0  0  0  0  0  0  0
    2.1278    2.0149   -0.2915 H   0  0  0  0  0  0  0  0  0  0  0  0
    2.2602    1.0500   -1.7800 H   0  0  0  0  0  0  0  0  0  0  0  0
    3.7164    1.4494   -0.8359 H   0  0  0  0  0  0  0  0  0  0  0  0
    2.8837    0.0530    1.0631 H   0  0  0  0  0  0  0  0  0  0  0  0
    0.4615   -0.5869   -0.7198 H   0  0  0  0  0  0  0  0  0  0  0  0
    0.4424    0.4321    0.7392 H   0  0  0  0  0  0  0  0  0  0  0  0
    0.7954   -1.3081    0.8710 H   0  0  0  0  0  0  0  0  0  0  0  0
    2.7393   -1.5168   -1.5802 H   0  0  0  0  0  0  0  0  0  0  0  0
    2.8999   -2.2514   -0.0028 H   0  0  0  0  0  0  0  0  0  0  0  0
    4.7554   -1.4094    1.4245 H   0  0  0  0  0  0  0  0  0  0  0  0
    7.8331   -1.1909    2.3861 H   0  0  0  0  0  0  0  0  0  0  0  0
    6.2216   -0.6995    2.9633 H   0  0  0  0  0  0  0  0  0  0  0  0
    8.4390    1.0664    0.7439 H   0  0  0  0  0  0  0  0  0  0  0  0
    8.7258    2.4146    1.8477 H   0  0  0  0  0  0  0  0  0  0  0  0
    6.9406   -1.5809   -1.3406 H   0  0  0  0  0  0  0  0  0  0  0  0
  1  2  1  0
  1 17  1  0
  1 18  1  0
  1 19  1  0
  2  3  1  0
  2  4  1  0
  2 20  1  1
  3 21  1  0
  3 22  1  0
  3 23  1  0
  4  5  1  0
  4 24  1  0
  4 25  1  0
  5  6  1  6
  5  7  1  0
  5 14  1  0
  7  8  1  0
  7 26  1  0
  8  9  2  0
  8 10  1  0
 10 11  1  0
 10 27  1  0
 10 28  1  0
 11 12  1  0
 11 13  2  0
 12 29  1  0
 12 30  1  0
 14 15  2  0
 14 16  1  0
 16 31  1  0
M  END

