
     RDKit          3D

 38 39  0  0  0  0  0  0  0  0999 V2000
    2.5115   -1.2751    0.8807 C   0  0  0  0  0  0  0  0  0  0  0  0
    2.1802   -0.0746   -0.0167 C   0  0  1  0  0  0  0  0  0  0  0  0
    1.0854    0.0734    0.0119 H   0  0  0  0  0  0  0  0  0  0  0  0
    2.7779    1.1273    0.5487 N   0  0  0  0  0  0  0  0  0  0  0  0
    2.4710    2.3860   -0.1137 C   0  0  0  0  0  0  0  0  0  0  0  0
    2.9517    3.6046    0.7083 C   0  0  1  0  0  0  0  0  0  0  0  0
    4.4842    3.7105    0.8336 C   0  0  0  0  0  0  0  0  0  0  0  0
    5.1507    4.1938   -0.4621 C   0  0  0  0  0  0  0  0  0  0  0  0
    4.5132    5.5058   -0.9355 C   0  0  0  0  0  0  0  0  0  0  0  0
    2.9947    5.3564   -1.0519 C   0  0  0  0  0  0  0  0  0  0  0  0
    2.4426    4.8856    0.2150 N   0  0  0  0  0  0  0  0  0  0  0  0
    2.5454   -0.3704   -1.4784 C   0  0  0  0  0  0  0  0  0  0  0  0
    3.8756   -0.3138   -1.9230 C   0  0  0  0  0  0  0  0  0  0  0  0
    4.2009   -0.6178   -3.2464 C   0  0  0  0  0  0  0  0  0  0  0  0
    3.2065   -0.9846   -4.1588 C   0  0  0  0  0  0  0  0  0  0  0  0
    1.8834   -1.0375   -3.7166 C   0  0  0  0  0  0  0  0  0  0  0  0
    0.5020   -1.5272   -4.9428 Br  0  0  0  0  0  0  0  0  0  0  0  0
    1.5482   -0.7335   -2.3944 C   0  0  0  0  0  0  0  0  0  0  0  0
    2.1975   -1.0676    1.9148 H   0  0  0  0  0  0  0  0  0  0  0  0
    3.5964   -1.4753    0.8835 H   0  0  0  0  0  0  0  0  0  0  0  0
    2.0082   -2.1874    0.5271 H   0  0  0  0  0  0  0  0  0  0  0  0
    3.7822    1.0072    0.6684 H   0  0  0  0  0  0  0  0  0  0  0  0
    1.3710    2.4570   -0.1961 H   0  0  0  0  0  0  0  0  0  0  0  0
    2.8554    2.4391   -1.1537 H   0  0  0  0  0  0  0  0  0  0  0  0
    2.5446    3.4569    1.7236 H   0  0  0  0  0  0  0  0  0  0  0  0
    4.9130    2.7488    1.1627 H   0  0  0  0  0  0  0  0  0  0  0  0
    4.7016    4.4341    1.6372 H   0  0  0  0  0  0  0  0  0  0  0  0
    5.0455    3.4288   -1.2530 H   0  0  0  0  0  0  0  0  0  0  0  0
    6.2344    4.3245   -0.3037 H   0  0  0  0  0  0  0  0  0  0  0  0
    4.9362    5.8216   -1.9039 H   0  0  0  0  0  0  0  0  0  0  0  0
    4.7344    6.3032   -0.2046 H   0  0  0  0  0  0  0  0  0  0  0  0
    2.7668    4.6919   -1.9162 H   0  0  0  0  0  0  0  0  0  0  0  0
    2.5371    6.3326   -1.2838 H   0  0  0  0  0  0  0  0  0  0  0  0
    1.4252    4.8862    0.1940 H   0  0  0  0  0  0  0  0  0  0  0  0
    4.6693   -0.0244   -1.2287 H   0  0  0  0  0  0  0  0  0  0  0  0
    5.2413   -0.5692   -3.5785 H   0  0  0  0  0  0  0  0  0  0  0  0
    3.4541   -1.2212   -5.1947 H   0  0  0  0  0  0  0  0  0  0  0  0
    0.5039   -0.7781   -2.0762 H   0  0  0  0  0  0  0  0  0  0  0  0
  1  2  1  0
  1 19  1  0
  1 20  1  0
  1 21  1  0
  2  3  1  6
  2  4  1  0
  2 12  1  0
  4  5  1  0
  4 22  1  0
  5  6  1  0
  5 23  1  0
  5 24  1  0
  6  7  1  0
  6 11  1  0
  6 25  1  1
  7  8  1  0
  7 26  1  0
  7 27  1  0
  8  9  1  0
  8 28  1  0
  8 29  1  0
  9 10  1  0
  9 30  1  0
  9 31  1  0
 10 11  1  0
 10 32  1  0
 10 33  1  0
 11 34  1  0
 12 13  2  0
 12 18  1  0
 13 14  1  0
 13 35  1  0
 14 15  2  0
 14 36  1  0
 15 16  1  0
 15 37  1  0
 16 17  1  0
 16 18  2  0
 18 38  1  0
M  END

