
     RDKit          3D

 51 52  0  0  0  0  0  0  0  0999 V2000
    1.1197   -1.2323    0.1936 C   0  0  0  0  0  0  0  0  0  0  0  0
    2.5544   -0.7205    0.3191 C   0  0  0  0  0  0  0  0  0  0  0  0
    3.5585   -1.7976    0.3183 N   0  0  0  0  0  0  0  0  0  0  0  0
    3.5785   -2.6112   -0.8795 C   0  0  0  0  0  0  0  0  0  0  0  0
    4.0336   -1.8843   -2.1660 C   0  0  0  0  0  0  0  0  0  0  0  0
    4.4667   -0.7476   -2.1554 O   0  0  0  0  0  0  0  0  0  0  0  0
    3.8970   -2.6649   -3.2937 N   0  0  0  0  0  0  0  0  0  0  0  0
    4.2160   -2.3554   -4.6289 C   0  0  0  0  0  0  0  0  0  0  0  0
    4.9623   -1.2130   -4.9683 C   0  0  0  0  0  0  0  0  0  0  0  0
    5.2811   -0.9507   -6.3009 C   0  0  0  0  0  0  0  0  0  0  0  0
    4.8721   -1.8102   -7.3221 C   0  0  0  0  0  0  0  0  0  0  0  0
    4.1224   -2.9400   -6.9974 C   0  0  0  0  0  0  0  0  0  0  0  0
    3.7858   -3.2197   -5.6687 C   0  0  0  0  0  0  0  0  0  0  0  0
    2.9130   -4.4127   -5.3724 C   0  0  1  0  0  0  0  0  0  0  0  0
    3.4698   -5.2252   -4.4299 F   0  0  0  0  0  0  0  0  0  0  0  0
    1.7142   -4.0464   -4.8716 F   0  0  0  0  0  0  0  0  0  0  0  0
    2.6829   -5.1689   -6.4482 F   0  0  0  0  0  0  0  0  0  0  0  0
    4.9197   -1.5172    0.8196 C   0  0  1  0  0  0  0  0  0  0  0  0
    5.0666   -0.2462    1.6643 C   0  0  0  0  0  0  0  0  0  0  0  0
    5.4699   -2.7002    1.6556 C   0  0  0  0  0  0  0  0  0  0  0  0
    6.6646   -2.8148    1.8644 O   0  0  0  0  0  0  0  0  0  0  0  0
    4.4924   -3.5260    2.1472 N   0  0  0  0  0  0  0  0  0  0  0  0
    4.6091   -4.6473    2.9771 C   0  0  0  0  0  0  0  0  0  0  0  0
    5.8455   -5.1169    3.4634 C   0  0  0  0  0  0  0  0  0  0  0  0
    5.8829   -6.2431    4.2883 C   0  0  0  0  0  0  0  0  0  0  0  0
    4.7192   -6.9222    4.6475 C   0  0  0  0  0  0  0  0  0  0  0  0
    3.4833   -6.4551    4.1637 C   0  0  0  0  0  0  0  0  0  0  0  0
    2.2648   -7.1322    4.5149 C   0  0  0  0  0  0  0  0  0  0  0  0
    1.2795   -7.6781    4.7970 N   0  0  0  0  0  0  0  0  0  0  0  0
    3.4314   -5.3243    3.3338 C   0  0  0  0  0  0  0  0  0  0  0  0
    0.4177   -0.3939    0.3233 H   0  0  0  0  0  0  0  0  0  0  0  0
    0.8940   -1.9870    0.9649 H   0  0  0  0  0  0  0  0  0  0  0  0
    0.9045   -1.6753   -0.7915 H   0  0  0  0  0  0  0  0  0  0  0  0
    2.6376   -0.1915    1.2767 H   0  0  0  0  0  0  0  0  0  0  0  0
    2.7552    0.0231   -0.4749 H   0  0  0  0  0  0  0  0  0  0  0  0
    2.5827   -3.0485   -1.0622 H   0  0  0  0  0  0  0  0  0  0  0  0
    4.2544   -3.4715   -0.7252 H   0  0  0  0  0  0  0  0  0  0  0  0
    3.5401   -3.6000   -3.1322 H   0  0  0  0  0  0  0  0  0  0  0  0
    5.2781   -0.5400   -4.1755 H   0  0  0  0  0  0  0  0  0  0  0  0
    5.8646   -0.0574   -6.5377 H   0  0  0  0  0  0  0  0  0  0  0  0
    5.1284   -1.6031   -8.3631 H   0  0  0  0  0  0  0  0  0  0  0  0
    3.7835   -3.6187   -7.7809 H   0  0  0  0  0  0  0  0  0  0  0  0
    5.6275   -1.4143   -0.0200 H   0  0  0  0  0  0  0  0  0  0  0  0
    4.4251   -0.2648    2.5595 H   0  0  0  0  0  0  0  0  0  0  0  0
    4.8376    0.6532    1.0760 H   0  0  0  0  0  0  0  0  0  0  0  0
    6.1112   -0.1815    1.9990 H   0  0  0  0  0  0  0  0  0  0  0  0
    3.5629   -3.2504    1.8248 H   0  0  0  0  0  0  0  0  0  0  0  0
    6.7550   -4.5890    3.1841 H   0  0  0  0  0  0  0  0  0  0  0  0
    6.8485   -6.5962    4.6582 H   0  0  0  0  0  0  0  0  0  0  0  0
    4.7550   -7.8015    5.2923 H   0  0  0  0  0  0  0  0  0  0  0  0
    2.4644   -4.9725    2.9671 H   0  0  0  0  0  0  0  0  0  0  0  0
  1  2  1  0
  1 31  1  0
  1 32  1  0
  1 33  1  0
  2  3  1  0
  2 34  1  0
  2 35  1  0
  3  4  1  0
  3 18  1  0
  4  5  1  0
  4 36  1  0
  4 37  1  0
  5  6  2  0
  5  7  1  0
  7  8  1  0
  7 38  1  0
  8  9  2  0
  8 13  1  0
  9 10  1  0
  9 39  1  0
 10 11  2  0
 10 40  1  0
 11 12  1  0
 11 41  1  0
 12 13  2  0
 12 42  1  0
 13 14  1  0
 14 15  1  1
 14 16  1  0
 14 17  1  0
 18 19  1  0
 18 20  1  0
 18 43  1  6
 19 44  1  0
 19 45  1  0
 19 46  1  0
 20 21  2  0
 20 22  1  0
 22 23  1  0
 22 47  1  0
 23 24  2  0
 23 30  1  0
 24 25  1  0
 24 48  1  0
 25 26  2  0
 25 49  1  0
 26 27  1  0
 26 50  1  0
 27 28  1  0
 27 30  2  0
 28 29  3  0
 30 51  1  0
M  END

