
     RDKit          3D

 88 91  0  0  0  0  0  0  0  0999 V2000
    0.8736    0.1513   -0.2548 C   0  0  0  0  0  0  0  0  0  0  0  0
    1.5555    0.6009   -1.4195 O   0  0  0  0  0  0  0  0  0  0  0  0
    2.3135    1.7843   -1.4618 C   0  0  1  0  0  0  0  0  0  0  0  0
    3.0094    1.6084   -2.2956 H   0  0  0  0  0  0  0  0  0  0  0  0
    1.5928    2.9184   -1.8703 O   0  0  0  0  0  0  0  0  0  0  0  0
    0.7366    3.5464   -0.9174 C   0  0  2  0  0  0  0  0  0  0  0  0
   -0.0124    2.8265   -0.5433 H   0  0  0  0  0  0  0  0  0  0  0  0
   -0.0270    4.6416   -1.6541 C   0  0  0  0  0  0  0  0  0  0  0  0
   -0.8534    4.0871   -2.6505 O   0  0  0  0  0  0  0  0  0  0  0  0
   -0.4443    4.2551   -3.9970 C   0  0  0  0  0  0  0  0  0  0  0  0
   -1.0286    3.1256   -4.8365 C   0  0  0  0  0  0  0  0  0  0  0  0
   -0.3799    1.7695   -4.5452 C   0  0  0  0  0  0  0  0  0  0  0  0
   -1.0894    0.5867   -5.2035 C   0  0  0  0  0  0  0  0  0  0  0  0
   -0.3642   -0.7704   -4.9397 C   0  0  1  0  0  0  0  0  0  0  0  0
   -0.1273   -1.1226   -3.5580 N   0  0  0  0  0  0  0  0  0  0  0  0
   -1.1763   -1.8805   -5.5890 C   0  0  0  0  0  0  0  0  0  0  0  0
   -1.8564   -2.6642   -4.9799 O   0  0  0  0  0  0  0  0  0  0  0  0
   -1.1898   -1.9580   -7.1445 C   0  0  1  0  0  0  0  0  0  0  0  0
   -0.0376   -1.5149   -7.6782 F   0  0  0  0  0  0  0  0  0  0  0  0
   -1.3873   -3.2066   -7.5566 F   0  0  0  0  0  0  0  0  0  0  0  0
   -2.1833   -1.1923   -7.6316 F   0  0  0  0  0  0  0  0  0  0  0  0
    1.5642    4.0598    0.2699 C   0  0  1  0  0  0  0  0  0  0  0  0
    2.2704    4.8266   -0.1001 H   0  0  0  0  0  0  0  0  0  0  0  0
    0.6712    4.6058    1.2215 O   0  0  0  0  0  0  0  0  0  0  0  0
    1.1418    5.7046    2.0056 C   0  0  0  0  0  0  0  0  0  0  0  0
    1.2137    7.0108    1.2412 C   0  0  0  0  0  0  0  0  0  0  0  0
    0.0415    7.6234    0.7660 C   0  0  0  0  0  0  0  0  0  0  0  0
    0.1010    8.8215    0.0522 C   0  0  0  0  0  0  0  0  0  0  0  0
    1.3377    9.4288   -0.1978 C   0  0  0  0  0  0  0  0  0  0  0  0
    2.5098    8.8317    0.2714 C   0  0  0  0  0  0  0  0  0  0  0  0
    2.4459    7.6291    0.9848 C   0  0  0  0  0  0  0  0  0  0  0  0
    2.3739    2.9051    0.8822 C   0  0  2  0  0  0  0  0  0  0  0  0
    1.6556    2.2399    1.3911 H   0  0  0  0  0  0  0  0  0  0  0  0
    3.2800    3.4440    1.8300 O   0  0  0  0  0  0  0  0  0  0  0  0
    3.4601    2.6959    3.0211 C   0  0  0  0  0  0  0  0  0  0  0  0
    4.5657    3.2993    3.8556 C   0  0  0  0  0  0  0  0  0  0  0  0
    5.5936    4.0530    3.2703 C   0  0  0  0  0  0  0  0  0  0  0  0
    6.6350    4.5617    4.0531 C   0  0  0  0  0  0  0  0  0  0  0  0
    6.6658    4.3216    5.4295 C   0  0  0  0  0  0  0  0  0  0  0  0
    5.6435    3.5724    6.0211 C   0  0  0  0  0  0  0  0  0  0  0  0
    4.6003    3.0699    5.2397 C   0  0  0  0  0  0  0  0  0  0  0  0
    3.1458    2.1224   -0.1937 C   0  0  1  0  0  0  0  0  0  0  0  0
    3.9444    2.8050   -0.5492 H   0  0  0  0  0  0  0  0  0  0  0  0
    3.7280    0.9911    0.4144 O   0  0  0  0  0  0  0  0  0  0  0  0
    4.7222    0.3155   -0.3477 C   0  0  0  0  0  0  0  0  0  0  0  0
    5.4629   -0.6548    0.5389 C   0  0  0  0  0  0  0  0  0  0  0  0
    5.3904   -2.0354    0.3116 C   0  0  0  0  0  0  0  0  0  0  0  0
    6.0800   -2.9315    1.1356 C   0  0  0  0  0  0  0  0  0  0  0  0
    6.8442   -2.4532    2.2025 C   0  0  0  0  0  0  0  0  0  0  0  0
    6.9189   -1.0758    2.4410 C   0  0  0  0  0  0  0  0  0  0  0  0
    6.2347   -0.1838    1.6137 C   0  0  0  0  0  0  0  0  0  0  0  0
    0.4576   -0.8333   -0.5131 H   0  0  0  0  0  0  0  0  0  0  0  0
    0.0379    0.8124    0.0306 H   0  0  0  0  0  0  0  0  0  0  0  0
    1.5607    0.0280    0.5944 H   0  0  0  0  0  0  0  0  0  0  0  0
    0.6895    5.3710   -2.0749 H   0  0  0  0  0  0  0  0  0  0  0  0
   -0.6545    5.1726   -0.9225 H   0  0  0  0  0  0  0  0  0  0  0  0
    0.6585    4.2458   -4.0708 H   0  0  0  0  0  0  0  0  0  0  0  0
   -0.7973    5.2351   -4.3785 H   0  0  0  0  0  0  0  0  0  0  0  0
   -0.9170    3.3834   -5.9048 H   0  0  0  0  0  0  0  0  0  0  0  0
   -2.1141    3.0790   -4.6383 H   0  0  0  0  0  0  0  0  0  0  0  0
   -0.3505    1.6235   -3.4560 H   0  0  0  0  0  0  0  0  0  0  0  0
    0.6752    1.7952   -4.8754 H   0  0  0  0  0  0  0  0  0  0  0  0
   -1.1746    0.7580   -6.2903 H   0  0  0  0  0  0  0  0  0  0  0  0
   -2.1227    0.5119   -4.8178 H   0  0  0  0  0  0  0  0  0  0  0  0
    0.6083   -0.7254   -5.4622 H   0  0  0  0  0  0  0  0  0  0  0  0
   -1.0094   -1.2462   -3.0620 H   0  0  0  0  0  0  0  0  0  0  0  0
    0.4322   -0.4210   -3.0733 H   0  0  0  0  0  0  0  0  0  0  0  0
    2.1225    5.4686    2.4444 H   0  0  0  0  0  0  0  0  0  0  0  0
    0.4103    5.7909    2.8246 H   0  0  0  0  0  0  0  0  0  0  0  0
   -0.9269    7.1555    0.9652 H   0  0  0  0  0  0  0  0  0  0  0  0
   -0.8198    9.2884   -0.3070 H   0  0  0  0  0  0  0  0  0  0  0  0
    1.3845   10.3684   -0.7545 H   0  0  0  0  0  0  0  0  0  0  0  0
    3.4785    9.3017    0.0824 H   0  0  0  0  0  0  0  0  0  0  0  0
    3.3655    7.1657    1.3541 H   0  0  0  0  0  0  0  0  0  0  0  0
    3.7128    1.6499    2.7718 H   0  0  0  0  0  0  0  0  0  0  0  0
    2.5191    2.6770    3.6064 H   0  0  0  0  0  0  0  0  0  0  0  0
    5.5624    4.2457    2.1968 H   0  0  0  0  0  0  0  0  0  0  0  0
    7.4271    5.1511    3.5833 H   0  0  0  0  0  0  0  0  0  0  0  0
    7.4797    4.7203    6.0405 H   0  0  0  0  0  0  0  0  0  0  0  0
    5.6540    3.3849    7.0980 H   0  0  0  0  0  0  0  0  0  0  0  0
    3.7997    2.4927    5.7125 H   0  0  0  0  0  0  0  0  0  0  0  0
    5.4263    1.0624   -0.7680 H   0  0  0  0  0  0  0  0  0  0  0  0
    4.2609   -0.2257   -1.1929 H   0  0  0  0  0  0  0  0  0  0  0  0
    4.7874   -2.4143   -0.5185 H   0  0  0  0  0  0  0  0  0  0  0  0
    6.0153   -4.0057    0.9446 H   0  0  0  0  0  0  0  0  0  0  0  0
    7.3824   -3.1515    2.8486 H   0  0  0  0  0  0  0  0  0  0  0  0
    7.5158   -0.6955    3.2740 H   0  0  0  0  0  0  0  0  0  0  0  0
    6.2972    0.8912    1.8039 H   0  0  0  0  0  0  0  0  0  0  0  0
  1  2  1  0
  1 52  1  0
  1 53  1  0
  1 54  1  0
  2  3  1  0
  3  4  1  6
  3  5  1  0
  3 42  1  0
  5  6  1  0
  6  7  1  1
  6  8  1  0
  6 22  1  0
  8  9  1  0
  8 55  1  0
  8 56  1  0
  9 10  1  0
 10 11  1  0
 10 57  1  0
 10 58  1  0
 11 12  1  0
 11 59  1  0
 11 60  1  0
 12 13  1  0
 12 61  1  0
 12 62  1  0
 13 14  1  0
 13 63  1  0
 13 64  1  0
 14 15  1  0
 14 16  1  0
 14 65  1  6
 15 66  1  0
 15 67  1  0
 16 17  2  0
 16 18  1  0
 18 19  1  6
 18 20  1  0
 18 21  1  0
 22 23  1  6
 22 24  1  0
 22 32  1  0
 24 25  1  0
 25 26  1  0
 25 68  1  0
 25 69  1  0
 26 27  2  0
 26 31  1  0
 27 28  1  0
 27 70  1  0
 28 29  2  0
 28 71  1  0
 29 30  1  0
 29 72  1  0
 30 31  2  0
 30 73  1  0
 31 74  1  0
 32 33  1  1
 32 34  1  0
 32 42  1  0
 34 35  1  0
 35 36  1  0
 35 75  1  0
 35 76  1  0
 36 37  2  0
 36 41  1  0
 37 38  1  0
 37 77  1  0
 38 39  2  0
 38 78  1  0
 39 40  1  0
 39 79  1  0
 40 41  2  0
 40 80  1  0
 41 81  1  0
 42 43  1  6
 42 44  1  0
 44 45  1  0
 45 46  1  0
 45 82  1  0
 45 83  1  0
 46 47  2  0
 46 51  1  0
 47 48  1  0
 47 84  1  0
 48 49  2  0
 48 85  1  0
 49 50  1  0
 49 86  1  0
 50 51  2  0
 50 87  1  0
 51 88  1  0
M  END

