
     RDKit          3D

 40 40  0  0  0  0  0  0  0  0999 V2000
    3.4014    0.6643    0.1633 C   0  0  0  0  0  0  0  0  0  0  0  0
    2.3345    0.0849   -0.7858 C   0  0  1  0  0  0  0  0  0  0  0  0
    1.2388    1.1005   -1.1130 C   0  0  0  0  0  0  0  0  0  0  0  0
    2.9568   -0.4827   -2.0602 C   0  0  0  0  0  0  0  0  0  0  0  0
    2.5955   -0.1479   -3.1677 O   0  0  0  0  0  0  0  0  0  0  0  0
    4.0535   -1.5385   -1.9033 C   0  0  0  0  0  0  0  0  0  0  0  0
    4.4161   -2.0826   -3.1983 N   0  0  0  0  0  0  0  0  0  0  0  0
    6.0472   -2.1485   -3.6425 S   0  0  1  0  0  0  0  0  0  0  0  0
    6.1230   -1.7000   -5.0357 O   0  0  0  0  0  0  0  0  0  0  0  0
    6.8443   -1.4996   -2.5876 O   0  0  0  0  0  0  0  0  0  0  0  0
    6.3873   -3.9295   -3.6135 C   0  0  0  0  0  0  0  0  0  0  0  0
    7.7228   -4.3043   -4.2790 C   0  0  1  0  0  0  0  0  0  0  0  0
    8.9726   -3.7862   -3.5332 C   0  0  0  0  0  0  0  0  0  0  0  0
    9.2372   -4.5314   -2.2174 C   0  0  0  0  0  0  0  0  0  0  0  0
    9.3191   -6.0492   -2.4294 C   0  0  0  0  0  0  0  0  0  0  0  0
    8.0756   -6.5877   -3.1500 C   0  0  0  0  0  0  0  0  0  0  0  0
    7.8166   -5.8359   -4.4640 C   0  0  0  0  0  0  0  0  0  0  0  0
    2.9193    1.0742    1.0641 H   0  0  0  0  0  0  0  0  0  0  0  0
    3.9570    1.4841   -0.3206 H   0  0  0  0  0  0  0  0  0  0  0  0
    4.1294   -0.0909    0.4957 H   0  0  0  0  0  0  0  0  0  0  0  0
    1.8758   -0.7855   -0.2763 H   0  0  0  0  0  0  0  0  0  0  0  0
    1.6602    1.9809   -1.6226 H   0  0  0  0  0  0  0  0  0  0  0  0
    0.7423    1.4398   -0.1909 H   0  0  0  0  0  0  0  0  0  0  0  0
    0.4796    0.6699   -1.7813 H   0  0  0  0  0  0  0  0  0  0  0  0
    3.6894   -2.3221   -1.2124 H   0  0  0  0  0  0  0  0  0  0  0  0
    4.9287   -1.0717   -1.4187 H   0  0  0  0  0  0  0  0  0  0  0  0
    3.8932   -1.6190   -3.9502 H   0  0  0  0  0  0  0  0  0  0  0  0
    5.5402   -4.3721   -4.1573 H   0  0  0  0  0  0  0  0  0  0  0  0
    6.3154   -4.2244   -2.5565 H   0  0  0  0  0  0  0  0  0  0  0  0
    7.6999   -3.8406   -5.2788 H   0  0  0  0  0  0  0  0  0  0  0  0
    8.8894   -2.7052   -3.3492 H   0  0  0  0  0  0  0  0  0  0  0  0
    9.8398   -3.9270   -4.2029 H   0  0  0  0  0  0  0  0  0  0  0  0
    8.4385   -4.2998   -1.4895 H   0  0  0  0  0  0  0  0  0  0  0  0
   10.1700   -4.1582   -1.7627 H   0  0  0  0  0  0  0  0  0  0  0  0
    9.4580   -6.5675   -1.4656 H   0  0  0  0  0  0  0  0  0  0  0  0
   10.2140   -6.2804   -3.0369 H   0  0  0  0  0  0  0  0  0  0  0  0
    7.1978   -6.4962   -2.4840 H   0  0  0  0  0  0  0  0  0  0  0  0
    8.1867   -7.6659   -3.3541 H   0  0  0  0  0  0  0  0  0  0  0  0
    6.9053   -6.2177   -4.9556 H   0  0  0  0  0  0  0  0  0  0  0  0
    8.6497   -6.0396   -5.1601 H   0  0  0  0  0  0  0  0  0  0  0  0
  1  2  1  0
  1 18  1  0
  1 19  1  0
  1 20  1  0
  2  3  1  0
  2  4  1  0
  2 21  1  1
  3 22  1  0
  3 23  1  0
  3 24  1  0
  4  5  2  0
  4  6  1  0
  6  7  1  0
  6 25  1  0
  6 26  1  0
  8  7  1  1
  7 27  1  0
  8  9  2  0
  8 10  2  0
  8 11  1  0
 11 12  1  0
 11 28  1  0
 11 29  1  0
 12 13  1  0
 12 17  1  0
 12 30  1  6
 13 14  1  0
 13 31  1  0
 13 32  1  0
 14 15  1  0
 14 33  1  0
 14 34  1  0
 15 16  1  0
 15 35  1  0
 15 36  1  0
 16 17  1  0
 16 37  1  0
 16 38  1  0
 17 39  1  0
 17 40  1  0
M  END

