
     RDKit          3D

 60 63  0  0  0  0  0  0  0  0999 V2000
    5.1893    9.3235    2.1377 C   0  0  0  0  0  0  0  0  0  0  0  0
    4.9715    7.8290    1.8946 C   0  0  0  0  0  0  0  0  0  0  0  0
    4.3098    7.1133    3.0778 C   0  0  0  0  0  0  0  0  0  0  0  0
    3.9935    5.6266    2.8454 C   0  0  0  0  0  0  0  0  0  0  0  0
    5.1897    4.7019    2.5756 C   0  0  0  0  0  0  0  0  0  0  0  0
    6.1739    4.6193    3.7344 C   0  0  0  0  0  0  0  0  0  0  0  0
    7.1717    3.6601    3.4079 O   0  0  0  0  0  0  0  0  0  0  0  0
    8.2667    3.5129    4.1900 C   0  0  0  0  0  0  0  0  0  0  0  0
    8.4674    4.2245    5.3833 C   0  0  0  0  0  0  0  0  0  0  0  0
    9.6610    4.0852    6.0968 C   0  0  0  0  0  0  0  0  0  0  0  0
   10.6720    3.2456    5.6249 C   0  0  0  0  0  0  0  0  0  0  0  0
   10.4657    2.5294    4.4467 C   0  0  0  0  0  0  0  0  0  0  0  0
    9.2603    2.6097    3.7221 C   0  0  0  0  0  0  0  0  0  0  0  0
    9.1212    1.7763    2.5271 C   0  0  0  0  0  0  0  0  0  0  0  0
    8.0581    1.1268    1.9974 C   0  0  0  0  0  0  0  0  0  0  0  0
    6.3744    1.0503    2.5358 S   0  0  0  0  0  0  0  0  0  0  0  0
    5.9738   -0.3449    1.3566 C   0  0  1  0  0  0  0  0  0  0  0  0
    4.9542   -0.0916    0.3516 N   0  0  0  0  0  0  0  0  0  0  0  0
    5.6511   -0.0903   -0.9483 C   0  0  2  0  0  0  0  0  0  0  0  0
    4.7675   -0.5213   -2.0828 C   0  0  0  0  0  0  0  0  0  0  0  0
    4.8159   -1.7389   -2.6503 C   0  0  0  0  0  0  0  0  0  0  0  0
    3.9873   -2.2448   -3.7561 C   0  0  0  0  0  0  0  0  0  0  0  0
    4.1769   -3.5710   -4.1908 C   0  0  0  0  0  0  0  0  0  0  0  0
    3.4169   -4.1075   -5.2324 C   0  0  0  0  0  0  0  0  0  0  0  0
    2.4476   -3.3256   -5.8655 C   0  0  0  0  0  0  0  0  0  0  0  0
    2.2468   -2.0039   -5.4477 C   0  0  0  0  0  0  0  0  0  0  0  0
    3.0058   -1.4701   -4.4079 C   0  0  0  0  0  0  0  0  0  0  0  0
    6.8027   -0.9928   -0.6987 N   0  0  0  0  0  0  0  0  0  0  0  0
    7.1917   -0.5869    0.6083 N   0  0  0  0  0  0  0  0  0  0  0  0
    8.2458    0.3004    0.7653 C   0  0  0  0  0  0  0  0  0  0  0  0
    9.1757    0.3633   -0.0175 O   0  0  0  0  0  0  0  0  0  0  0  0
    5.6646    9.8099    1.2710 H   0  0  0  0  0  0  0  0  0  0  0  0
    5.8384    9.4971    3.0126 H   0  0  0  0  0  0  0  0  0  0  0  0
    4.2351    9.8425    2.3291 H   0  0  0  0  0  0  0  0  0  0  0  0
    5.9414    7.3551    1.6623 H   0  0  0  0  0  0  0  0  0  0  0  0
    4.3466    7.6882    0.9934 H   0  0  0  0  0  0  0  0  0  0  0  0
    3.3648    7.6317    3.3210 H   0  0  0  0  0  0  0  0  0  0  0  0
    4.9445    7.2334    3.9754 H   0  0  0  0  0  0  0  0  0  0  0  0
    3.2988    5.5429    1.9912 H   0  0  0  0  0  0  0  0  0  0  0  0
    3.4358    5.2430    3.7191 H   0  0  0  0  0  0  0  0  0  0  0  0
    5.7390    5.0209    1.6742 H   0  0  0  0  0  0  0  0  0  0  0  0
    4.8253    3.6847    2.3628 H   0  0  0  0  0  0  0  0  0  0  0  0
    5.6566    4.3222    4.6673 H   0  0  0  0  0  0  0  0  0  0  0  0
    6.6528    5.5976    3.9184 H   0  0  0  0  0  0  0  0  0  0  0  0
    7.6980    4.8996    5.7567 H   0  0  0  0  0  0  0  0  0  0  0  0
    9.7996    4.6501    7.0223 H   0  0  0  0  0  0  0  0  0  0  0  0
   11.6130    3.1473    6.1707 H   0  0  0  0  0  0  0  0  0  0  0  0
   11.2482    1.8638    4.0727 H   0  0  0  0  0  0  0  0  0  0  0  0
   10.0561    1.5637    1.9952 H   0  0  0  0  0  0  0  0  0  0  0  0
    5.6862   -1.2055    1.9810 H   0  0  0  0  0  0  0  0  0  0  0  0
    4.2727   -0.8487    0.3607 H   0  0  0  0  0  0  0  0  0  0  0  0
    6.0056    0.9448   -1.1384 H   0  0  0  0  0  0  0  0  0  0  0  0
    4.0496    0.2342   -2.4170 H   0  0  0  0  0  0  0  0  0  0  0  0
    5.5554   -2.4430   -2.2544 H   0  0  0  0  0  0  0  0  0  0  0  0
    4.9348   -4.1871   -3.6991 H   0  0  0  0  0  0  0  0  0  0  0  0
    3.5835   -5.1397   -5.5507 H   0  0  0  0  0  0  0  0  0  0  0  0
    1.8511   -3.7408   -6.6818 H   0  0  0  0  0  0  0  0  0  0  0  0
    1.4919   -1.3848   -5.9394 H   0  0  0  0  0  0  0  0  0  0  0  0
    2.8348   -0.4359   -4.1010 H   0  0  0  0  0  0  0  0  0  0  0  0
    7.6065   -0.7964   -1.3034 H   0  0  0  0  0  0  0  0  0  0  0  0
  1  2  1  0
  1 32  1  0
  1 33  1  0
  1 34  1  0
  2  3  1  0
  2 35  1  0
  2 36  1  0
  3  4  1  0
  3 37  1  0
  3 38  1  0
  4  5  1  0
  4 39  1  0
  4 40  1  0
  5  6  1  0
  5 41  1  0
  5 42  1  0
  6  7  1  0
  6 43  1  0
  6 44  1  0
  7  8  1  0
  8  9  2  0
  8 13  1  0
  9 10  1  0
  9 45  1  0
 10 11  2  0
 10 46  1  0
 11 12  1  0
 11 47  1  0
 12 13  2  0
 12 48  1  0
 13 14  1  0
 14 15  2  0
 14 49  1  0
 15 16  1  0
 15 30  1  0
 16 17  1  0
 17 18  1  0
 17 29  1  0
 17 50  1  1
 18 19  1  0
 18 51  1  0
 19 20  1  0
 19 28  1  0
 19 52  1  6
 20 21  2  0
 20 53  1  0
 21 22  1  0
 21 54  1  0
 22 23  2  0
 22 27  1  0
 23 24  1  0
 23 55  1  0
 24 25  2  0
 24 56  1  0
 25 26  1  0
 25 57  1  0
 26 27  2  0
 26 58  1  0
 27 59  1  0
 28 29  1  0
 28 60  1  0
 29 30  1  0
 30 31  2  0
M  END

