
     RDKit          3D

 48 50  0  0  0  0  0  0  0  0999 V2000
   10.6075    2.1936   -1.5449 N   0  0  0  0  0  0  0  0  0  0  0  0
   11.3120    1.6496   -0.8030 C   0  0  0  0  0  0  0  0  0  0  0  0
   12.1807    0.9701    0.1626 C   0  0  0  0  0  0  0  0  0  0  0  0
   11.6122    0.9634    1.5949 C   0  0  0  0  0  0  0  0  0  0  0  0
   10.3344    0.1506    1.7439 C   0  0  0  0  0  0  0  0  0  0  0  0
   10.6333   -1.1929    1.4111 O   0  0  0  0  0  0  0  0  0  0  0  0
    9.6516   -2.1384    1.4711 C   0  0  0  0  0  0  0  0  0  0  0  0
    8.3246   -1.8783    1.8394 C   0  0  0  0  0  0  0  0  0  0  0  0
    7.4189   -2.9453    1.8618 C   0  0  0  0  0  0  0  0  0  0  0  0
    7.7887   -4.2473    1.5324 C   0  0  0  0  0  0  0  0  0  0  0  0
    9.1257   -4.5020    1.1649 C   0  0  0  0  0  0  0  0  0  0  0  0
    9.6162   -5.7755    0.8296 N   0  0  0  0  0  0  0  0  0  0  0  0
    8.9098   -6.9669    0.7129 C   0  0  0  0  0  0  0  0  0  0  0  0
    7.6928   -7.0307    0.7904 O   0  0  0  0  0  0  0  0  0  0  0  0
    9.6939   -8.0878    0.4723 N   0  0  0  0  0  0  0  0  0  0  0  0
   11.1169   -8.2345    0.7608 C   0  0  0  0  0  0  0  0  0  0  0  0
   11.3580   -9.2195    1.9156 C   0  0  0  0  0  0  0  0  0  0  0  0
   10.6727  -10.5637    1.6517 C   0  0  2  0  0  0  0  0  0  0  0  0
    9.1912  -10.3554    1.3283 C   0  0  0  0  0  0  0  0  0  0  0  0
    9.0161   -9.3506    0.1841 C   0  0  0  0  0  0  0  0  0  0  0  0
   10.8560  -11.4047    2.7811 O   0  0  0  0  0  0  0  0  0  0  0  0
   11.2871  -12.6762    2.3284 C   0  0  0  0  0  0  0  0  0  0  0  0
   12.0374  -12.3278    1.0455 C   0  0  0  0  0  0  0  0  0  0  0  0
   11.2928  -11.2302    0.5466 O   0  0  0  0  0  0  0  0  0  0  0  0
   10.0442   -3.4413    1.1395 C   0  0  0  0  0  0  0  0  0  0  0  0
   13.1647    1.4665    0.1466 H   0  0  0  0  0  0  0  0  0  0  0  0
   12.3345   -0.0668   -0.1763 H   0  0  0  0  0  0  0  0  0  0  0  0
   11.4148    1.9953    1.9271 H   0  0  0  0  0  0  0  0  0  0  0  0
   12.3798    0.5452    2.2656 H   0  0  0  0  0  0  0  0  0  0  0  0
    9.5409    0.5457    1.0819 H   0  0  0  0  0  0  0  0  0  0  0  0
    9.9667    0.2181    2.7846 H   0  0  0  0  0  0  0  0  0  0  0  0
    7.9894   -0.8748    2.0990 H   0  0  0  0  0  0  0  0  0  0  0  0
    6.3809   -2.7495    2.1436 H   0  0  0  0  0  0  0  0  0  0  0  0
    7.0697   -5.0615    1.5397 H   0  0  0  0  0  0  0  0  0  0  0  0
   10.5805   -5.7830    0.5272 H   0  0  0  0  0  0  0  0  0  0  0  0
   11.5682   -7.2686    1.0198 H   0  0  0  0  0  0  0  0  0  0  0  0
   11.6346   -8.6086   -0.1407 H   0  0  0  0  0  0  0  0  0  0  0  0
   10.9608   -8.8059    2.8563 H   0  0  0  0  0  0  0  0  0  0  0  0
   12.4377   -9.3905    2.0519 H   0  0  0  0  0  0  0  0  0  0  0  0
    8.6863   -9.9845    2.2341 H   0  0  0  0  0  0  0  0  0  0  0  0
    8.7434  -11.3246    1.0581 H   0  0  0  0  0  0  0  0  0  0  0  0
    7.9560   -9.1312    0.0158 H   0  0  0  0  0  0  0  0  0  0  0  0
    9.4426   -9.7777   -0.7405 H   0  0  0  0  0  0  0  0  0  0  0  0
   10.4286  -13.3446    2.1233 H   0  0  0  0  0  0  0  0  0  0  0  0
   11.9169  -13.1367    3.1041 H   0  0  0  0  0  0  0  0  0  0  0  0
   12.0377  -13.1322    0.2943 H   0  0  0  0  0  0  0  0  0  0  0  0
   13.0852  -12.0401    1.2592 H   0  0  0  0  0  0  0  0  0  0  0  0
   11.0887   -3.6070    0.8628 H   0  0  0  0  0  0  0  0  0  0  0  0
  1  2  3  0
  2  3  1  0
  3  4  1  0
  3 26  1  0
  3 27  1  0
  4  5  1  0
  4 28  1  0
  4 29  1  0
  5  6  1  0
  5 30  1  0
  5 31  1  0
  6  7  1  0
  7  8  2  0
  7 25  1  0
  8  9  1  0
  8 32  1  0
  9 10  2  0
  9 33  1  0
 10 11  1  0
 10 34  1  0
 11 12  1  0
 11 25  2  0
 12 13  1  0
 12 35  1  0
 13 14  2  0
 13 15  1  0
 15 16  1  0
 15 20  1  0
 16 17  1  0
 16 36  1  0
 16 37  1  0
 17 18  1  0
 17 38  1  0
 17 39  1  0
 18 19  1  0
 18 21  1  1
 18 24  1  0
 19 20  1  0
 19 40  1  0
 19 41  1  0
 20 42  1  0
 20 43  1  0
 21 22  1  0
 22 23  1  0
 22 44  1  0
 22 45  1  0
 23 24  1  0
 23 46  1  0
 23 47  1  0
 25 48  1  0
M  END

