
     RDKit          3D

 30 31  0  0  0  0  0  0  0  0999 V2000
    5.0728    2.3090   -1.1559 C   0  0  0  0  0  0  0  0  0  0  0  0
    4.6197    1.1289   -0.3407 C   0  0  0  0  0  0  0  0  0  0  0  0
    3.4975    1.1980    0.5029 C   0  0  0  0  0  0  0  0  0  0  0  0
    3.1868    0.0275    1.2056 C   0  0  0  0  0  0  0  0  0  0  0  0
    2.0470    0.0034    2.1020 C   0  0  0  0  0  0  0  0  0  0  0  0
    1.1306    0.0091    2.8123 N   0  0  0  0  0  0  0  0  0  0  0  0
    3.8888   -1.0986    1.1004 N   0  0  0  0  0  0  0  0  0  0  0  0
    4.9474   -1.0678    0.2658 C   0  0  0  0  0  0  0  0  0  0  0  0
    5.6831   -2.2114    0.1284 N   0  0  0  0  0  0  0  0  0  0  0  0
    5.3822   -3.4232    0.8721 C   0  0  0  0  0  0  0  0  0  0  0  0
    5.0938   -4.5555   -0.1047 C   0  0  0  0  0  0  0  0  0  0  0  0
    6.1696   -4.6416   -1.0783 N   0  0  0  0  0  0  0  0  0  0  0  0
    7.0215   -3.6375   -1.4379 C   0  0  0  0  0  0  0  0  0  0  0  0
    7.9063   -3.7975   -2.2604 O   0  0  0  0  0  0  0  0  0  0  0  0
    6.8443   -2.2647   -0.7656 C   0  0  2  0  0  0  0  0  0  0  0  0
    8.1476   -1.8280   -0.0814 C   0  0  0  0  0  0  0  0  0  0  0  0
    5.3331    0.0093   -0.4486 N   0  0  0  0  0  0  0  0  0  0  0  0
    4.4335    3.1889   -1.0023 H   0  0  0  0  0  0  0  0  0  0  0  0
    5.0720    2.0468   -2.2258 H   0  0  0  0  0  0  0  0  0  0  0  0
    6.1108    2.5682   -0.8936 H   0  0  0  0  0  0  0  0  0  0  0  0
    2.9032    2.1045    0.6107 H   0  0  0  0  0  0  0  0  0  0  0  0
    4.5198   -3.2359    1.5205 H   0  0  0  0  0  0  0  0  0  0  0  0
    6.2456   -3.6921    1.5087 H   0  0  0  0  0  0  0  0  0  0  0  0
    4.1184   -4.3815   -0.5974 H   0  0  0  0  0  0  0  0  0  0  0  0
    5.0204   -5.5099    0.4427 H   0  0  0  0  0  0  0  0  0  0  0  0
    6.3004   -5.5031   -1.6007 H   0  0  0  0  0  0  0  0  0  0  0  0
    6.6496   -1.5665   -1.5916 H   0  0  0  0  0  0  0  0  0  0  0  0
    8.3740   -2.4560    0.7953 H   0  0  0  0  0  0  0  0  0  0  0  0
    8.0640   -0.7813    0.2447 H   0  0  0  0  0  0  0  0  0  0  0  0
    8.9789   -1.9170   -0.7943 H   0  0  0  0  0  0  0  0  0  0  0  0
  1  2  1  0
  1 18  1  0
  1 19  1  0
  1 20  1  0
  2  3  2  0
  2 17  1  0
  3  4  1  0
  3 21  1  0
  4  5  1  0
  4  7  2  0
  5  6  3  0
  7  8  1  0
  8  9  1  0
  8 17  2  0
  9 10  1  0
  9 15  1  0
 10 11  1  0
 10 22  1  0
 10 23  1  0
 11 12  1  0
 11 24  1  0
 11 25  1  0
 12 13  1  0
 12 26  1  0
 13 14  2  0
 13 15  1  0
 15 16  1  0
 15 27  1  6
 16 28  1  0
 16 29  1  0
 16 30  1  0
M  END

