
     RDKit          3D

 39 40  0  0  0  0  0  0  0  0999 V2000
    4.0116   -2.0232    1.4331 F   0  0  0  0  0  0  0  0  0  0  0  0
    3.9991   -0.7098    1.8476 C   0  0  1  0  0  0  0  0  0  0  0  0
    5.1157   -0.1518    1.2653 F   0  0  0  0  0  0  0  0  0  0  0  0
    2.7321   -0.0991    1.2235 C   0  0  0  0  0  0  0  0  0  0  0  0
    2.2921    1.1692    1.7742 N   0  0  0  0  0  0  0  0  0  0  0  0
    3.2675    2.2417    1.5644 C   0  0  0  0  0  0  0  0  0  0  0  0
    3.0857    3.5226    2.3903 C   0  0  0  0  0  0  0  0  0  0  0  0
    1.9216    4.4257    1.9618 C   0  0  0  0  0  0  0  0  0  0  0  0
    0.5298    3.9814    2.4467 C   0  0  0  0  0  0  0  0  0  0  0  0
    0.3326    2.4649    2.5964 C   0  0  0  0  0  0  0  0  0  0  0  0
    0.9091    1.5819    1.4602 C   0  0  2  0  0  0  0  0  0  0  0  0
   -0.0567    0.4505    1.1094 C   0  0  0  0  0  0  0  0  0  0  0  0
   -0.4550   -0.6736    2.4831 Cl  0  0  0  0  0  0  0  0  0  0  0  0
    4.1409   -0.6667    3.3562 C   0  0  0  0  0  0  0  0  0  0  0  0
    5.3956   -0.4386    3.9367 C   0  0  0  0  0  0  0  0  0  0  0  0
    5.5453   -0.4664    5.3262 C   0  0  0  0  0  0  0  0  0  0  0  0
    4.4434   -0.7254    6.1451 C   0  0  0  0  0  0  0  0  0  0  0  0
    3.1899   -0.9544    5.5685 C   0  0  0  0  0  0  0  0  0  0  0  0
    3.0364   -0.9238    4.1810 C   0  0  0  0  0  0  0  0  0  0  0  0
    1.9598   -0.8573    1.3916 H   0  0  0  0  0  0  0  0  0  0  0  0
    2.9382   -0.0742    0.1287 H   0  0  0  0  0  0  0  0  0  0  0  0
    3.3058    2.5264    0.4849 H   0  0  0  0  0  0  0  0  0  0  0  0
    4.2583    1.8374    1.8005 H   0  0  0  0  0  0  0  0  0  0  0  0
    4.0235    4.0918    2.2728 H   0  0  0  0  0  0  0  0  0  0  0  0
    3.0172    3.2666    3.4614 H   0  0  0  0  0  0  0  0  0  0  0  0
    1.9317    4.4906    0.8590 H   0  0  0  0  0  0  0  0  0  0  0  0
    2.1063    5.4540    2.3146 H   0  0  0  0  0  0  0  0  0  0  0  0
   -0.2324    4.3894    1.7598 H   0  0  0  0  0  0  0  0  0  0  0  0
    0.3163    4.4402    3.4273 H   0  0  0  0  0  0  0  0  0  0  0  0
   -0.7465    2.2679    2.7014 H   0  0  0  0  0  0  0  0  0  0  0  0
    0.7915    2.1082    3.5298 H   0  0  0  0  0  0  0  0  0  0  0  0
    0.9117    2.1786    0.5157 H   0  0  0  0  0  0  0  0  0  0  0  0
    0.3025   -0.1801    0.2874 H   0  0  0  0  0  0  0  0  0  0  0  0
   -1.0143    0.8923    0.8062 H   0  0  0  0  0  0  0  0  0  0  0  0
    6.2555   -0.2390    3.2959 H   0  0  0  0  0  0  0  0  0  0  0  0
    6.5285   -0.2870    5.7687 H   0  0  0  0  0  0  0  0  0  0  0  0
    4.5599   -0.7476    7.2318 H   0  0  0  0  0  0  0  0  0  0  0  0
    2.3228   -1.1542    6.2031 H   0  0  0  0  0  0  0  0  0  0  0  0
    2.0503   -1.0920    3.7459 H   0  0  0  0  0  0  0  0  0  0  0  0
  2  1  1  6
  2  3  1  0
  2  4  1  0
  2 14  1  0
  4  5  1  0
  4 20  1  0
  4 21  1  0
  5  6  1  0
  5 11  1  0
  6  7  1  0
  6 22  1  0
  6 23  1  0
  7  8  1  0
  7 24  1  0
  7 25  1  0
  8  9  1  0
  8 26  1  0
  8 27  1  0
  9 10  1  0
  9 28  1  0
  9 29  1  0
 10 11  1  0
 10 30  1  0
 10 31  1  0
 11 12  1  0
 11 32  1  6
 12 13  1  0
 12 33  1  0
 12 34  1  0
 14 15  2  0
 14 19  1  0
 15 16  1  0
 15 35  1  0
 16 17  2  0
 16 36  1  0
 17 18  1  0
 17 37  1  0
 18 19  2  0
 18 38  1  0
 19 39  1  0
M  END

