
     RDKit          3D

 40 41  0  0  0  0  0  0  0  0999 V2000
    4.2189    0.3043    2.6659 C   0  0  0  0  0  0  0  0  0  0  0  0
    4.1503   -0.5012    1.5186 O   0  0  0  0  0  0  0  0  0  0  0  0
    3.3115   -1.6269    1.6626 C   0  0  0  0  0  0  0  0  0  0  0  0
    3.2948   -2.4511    0.3807 C   0  0  0  0  0  0  0  0  0  0  0  0
    4.5063   -3.2318    0.1614 N   0  0  0  0  0  0  0  0  0  0  0  0
    4.3462   -4.4494   -0.6270 C   0  0  0  0  0  0  0  0  0  0  0  0
    4.2765   -4.1968   -2.1365 C   0  0  0  0  0  0  0  0  0  0  0  0
    5.4254   -3.4052   -2.5814 N   0  0  0  0  0  0  0  0  0  0  0  0
    5.9959   -3.7365   -3.7989 C   0  0  0  0  0  0  0  0  0  0  0  0
    5.7452   -4.7859   -4.3714 O   0  0  0  0  0  0  0  0  0  0  0  0
    6.8772   -2.7900   -4.3171 N   0  0  0  0  0  0  0  0  0  0  0  0
    7.6743   -2.8936   -5.4637 C   0  0  0  0  0  0  0  0  0  0  0  0
    7.7477   -4.0520   -6.2573 C   0  0  0  0  0  0  0  0  0  0  0  0
    8.5862   -4.0401   -7.3671 C   0  0  0  0  0  0  0  0  0  0  0  0
    8.6533   -5.1459   -8.1210 F   0  0  0  0  0  0  0  0  0  0  0  0
    9.3582   -2.9420   -7.7401 C   0  0  0  0  0  0  0  0  0  0  0  0
    9.2658   -1.8039   -6.9364 C   0  0  0  0  0  0  0  0  0  0  0  0
   10.2084   -0.3887   -7.3476 Cl  0  0  0  0  0  0  0  0  0  0  0  0
    8.4431   -1.7638   -5.8127 C   0  0  0  0  0  0  0  0  0  0  0  0
    5.6784   -2.1924   -1.8080 C   0  0  0  0  0  0  0  0  0  0  0  0
    5.6784   -2.4954   -0.2950 C   0  0  0  0  0  0  0  0  0  0  0  0
    4.8838    1.1521    2.4450 H   0  0  0  0  0  0  0  0  0  0  0  0
    4.6255   -0.2468    3.5378 H   0  0  0  0  0  0  0  0  0  0  0  0
    3.2232    0.7018    2.9498 H   0  0  0  0  0  0  0  0  0  0  0  0
    2.2753   -1.2964    1.8900 H   0  0  0  0  0  0  0  0  0  0  0  0
    3.6528   -2.2656    2.5026 H   0  0  0  0  0  0  0  0  0  0  0  0
    3.0348   -1.7678   -0.4573 H   0  0  0  0  0  0  0  0  0  0  0  0
    2.4563   -3.1606    0.4700 H   0  0  0  0  0  0  0  0  0  0  0  0
    3.4414   -4.9857   -0.2990 H   0  0  0  0  0  0  0  0  0  0  0  0
    5.2092   -5.1079   -0.4211 H   0  0  0  0  0  0  0  0  0  0  0  0
    3.3378   -3.6626   -2.3882 H   0  0  0  0  0  0  0  0  0  0  0  0
    4.2832   -5.1385   -2.6986 H   0  0  0  0  0  0  0  0  0  0  0  0
    6.9070   -1.8857   -3.8674 H   0  0  0  0  0  0  0  0  0  0  0  0
    7.1568   -4.9311   -6.0164 H   0  0  0  0  0  0  0  0  0  0  0  0
    9.9988   -2.9811   -8.6202 H   0  0  0  0  0  0  0  0  0  0  0  0
    8.4030   -0.8543   -5.2102 H   0  0  0  0  0  0  0  0  0  0  0  0
    4.9257   -1.4127   -2.0432 H   0  0  0  0  0  0  0  0  0  0  0  0
    6.6688   -1.7820   -2.0514 H   0  0  0  0  0  0  0  0  0  0  0  0
    5.7569   -1.5541    0.2635 H   0  0  0  0  0  0  0  0  0  0  0  0
    6.5735   -3.1034   -0.0714 H   0  0  0  0  0  0  0  0  0  0  0  0
  1  2  1  0
  1 22  1  0
  1 23  1  0
  1 24  1  0
  2  3  1  0
  3  4  1  0
  3 25  1  0
  3 26  1  0
  4  5  1  0
  4 27  1  0
  4 28  1  0
  5  6  1  0
  5 21  1  0
  6  7  1  0
  6 29  1  0
  6 30  1  0
  7  8  1  0
  7 31  1  0
  7 32  1  0
  8  9  1  0
  8 20  1  0
  9 10  2  0
  9 11  1  0
 11 12  1  0
 11 33  1  0
 12 13  2  0
 12 19  1  0
 13 14  1  0
 13 34  1  0
 14 15  1  0
 14 16  2  0
 16 17  1  0
 16 35  1  0
 17 18  1  0
 17 19  2  0
 19 36  1  0
 20 21  1  0
 20 37  1  0
 20 38  1  0
 21 39  1  0
 21 40  1  0
M  END

