
     RDKit          3D

 44 45  0  0  0  0  0  0  0  0999 V2000
    2.8828   -0.8764    1.2532 C   0  0  0  0  0  0  0  0  0  0  0  0
    2.8646   -0.0560   -0.0363 C   0  0  0  0  0  0  0  0  0  0  0  0
    2.9746   -0.8789   -1.2506 N   0  0  0  0  0  0  0  0  0  0  0  0
    1.7197   -1.3472   -1.8482 C   0  0  0  0  0  0  0  0  0  0  0  0
    1.1471   -0.3810   -2.9040 C   0  0  0  0  0  0  0  0  0  0  0  0
   -0.1223   -0.9152   -3.5236 C   0  0  0  0  0  0  0  0  0  0  0  0
   -1.3901   -0.4580   -3.1401 C   0  0  0  0  0  0  0  0  0  0  0  0
   -2.5279   -1.0167   -3.7316 C   0  0  0  0  0  0  0  0  0  0  0  0
   -2.4829   -1.9792   -4.6548 N   0  0  0  0  0  0  0  0  0  0  0  0
   -1.2751   -2.4189   -5.0216 C   0  0  0  0  0  0  0  0  0  0  0  0
   -0.0781   -1.9284   -4.4940 C   0  0  0  0  0  0  0  0  0  0  0  0
    4.2286   -1.1769   -1.6714 C   0  0  0  0  0  0  0  0  0  0  0  0
    5.2353   -0.8285   -1.0534 O   0  0  0  0  0  0  0  0  0  0  0  0
    4.4344   -1.9687   -2.9988 C   0  0  0  0  0  0  0  0  0  0  0  0
    3.5444   -2.2581   -3.7855 O   0  0  0  0  0  0  0  0  0  0  0  0
    5.7558   -2.2528   -3.1354 N   0  0  0  0  0  0  0  0  0  0  0  0
    6.4312   -2.9228   -4.1685 C   0  0  0  0  0  0  0  0  0  0  0  0
    5.7594   -3.4579   -5.2804 C   0  0  0  0  0  0  0  0  0  0  0  0
    6.4683   -4.1204   -6.2839 C   0  0  0  0  0  0  0  0  0  0  0  0
    7.8532   -4.2495   -6.1787 C   0  0  0  0  0  0  0  0  0  0  0  0
    8.9462   -5.2557   -7.7005 I   0  0  0  0  0  0  0  0  0  0  0  0
    8.5301   -3.7200   -5.0767 C   0  0  0  0  0  0  0  0  0  0  0  0
    7.8388   -3.0526   -4.0590 C   0  0  0  0  0  0  0  0  0  0  0  0
    8.5848   -2.4875   -2.8746 C   0  0  0  0  0  0  0  0  0  0  0  0
    2.7659   -0.2141    2.1257 H   0  0  0  0  0  0  0  0  0  0  0  0
    3.8394   -1.4097    1.3551 H   0  0  0  0  0  0  0  0  0  0  0  0
    2.0647   -1.6143    1.2782 H   0  0  0  0  0  0  0  0  0  0  0  0
    3.7006    0.6565   -0.0352 H   0  0  0  0  0  0  0  0  0  0  0  0
    1.9302    0.5214   -0.1153 H   0  0  0  0  0  0  0  0  0  0  0  0
    0.9963   -1.4711   -1.0266 H   0  0  0  0  0  0  0  0  0  0  0  0
    1.8707   -2.3315   -2.3011 H   0  0  0  0  0  0  0  0  0  0  0  0
    1.9108   -0.2466   -3.6838 H   0  0  0  0  0  0  0  0  0  0  0  0
    0.9579    0.6028   -2.4443 H   0  0  0  0  0  0  0  0  0  0  0  0
   -1.4962    0.3335   -2.3926 H   0  0  0  0  0  0  0  0  0  0  0  0
   -3.5248   -0.6622   -3.4415 H   0  0  0  0  0  0  0  0  0  0  0  0
   -1.2535   -3.2078   -5.7834 H   0  0  0  0  0  0  0  0  0  0  0  0
    0.8825   -2.3248   -4.8334 H   0  0  0  0  0  0  0  0  0  0  0  0
    6.3014   -1.8639   -2.3652 H   0  0  0  0  0  0  0  0  0  0  0  0
    4.6795   -3.3487   -5.3508 H   0  0  0  0  0  0  0  0  0  0  0  0
    5.9312   -4.5301   -7.1408 H   0  0  0  0  0  0  0  0  0  0  0  0
    9.6141   -3.8226   -4.9980 H   0  0  0  0  0  0  0  0  0  0  0  0
    9.6634   -2.6766   -2.9630 H   0  0  0  0  0  0  0  0  0  0  0  0
    8.2485   -2.9367   -1.9238 H   0  0  0  0  0  0  0  0  0  0  0  0
    8.4484   -1.3958   -2.7835 H   0  0  0  0  0  0  0  0  0  0  0  0
  1  2  1  0
  1 25  1  0
  1 26  1  0
  1 27  1  0
  2  3  1  0
  2 28  1  0
  2 29  1  0
  3  4  1  0
  3 12  1  0
  4  5  1  0
  4 30  1  0
  4 31  1  0
  5  6  1  0
  5 32  1  0
  5 33  1  0
  6  7  2  0
  6 11  1  0
  7  8  1  0
  7 34  1  0
  8  9  2  0
  8 35  1  0
  9 10  1  0
 10 11  2  0
 10 36  1  0
 11 37  1  0
 12 13  2  0
 12 14  1  0
 14 15  2  0
 14 16  1  0
 16 17  1  0
 16 38  1  0
 17 18  2  0
 17 23  1  0
 18 19  1  0
 18 39  1  0
 19 20  2  0
 19 40  1  0
 20 21  1  0
 20 22  1  0
 22 23  2  0
 22 41  1  0
 23 24  1  0
 24 42  1  0
 24 43  1  0
 24 44  1  0
M  END

