
     RDKit          3D

 22 22  0  0  0  0  0  0  0  0999 V2000
    1.2771   -0.3412   -0.0089 C   0  0  0  0  0  0  0  0  0  0  0  0
    2.6785    0.0141    0.1377 N   0  0  0  0  0  0  0  0  0  0  0  0
    3.3803    0.4098   -1.0682 C   0  0  0  0  0  0  0  0  0  0  0  0
    3.2299   -0.0140    1.4033 C   0  0  0  0  0  0  0  0  0  0  0  0
    2.5882   -0.1716    2.4168 O   0  0  0  0  0  0  0  0  0  0  0  0
    4.6447    0.1153    1.4121 N   0  0  0  0  0  0  0  0  0  0  0  0
    5.4004    0.5915    2.4839 C   0  0  0  0  0  0  0  0  0  0  0  0
    4.9446    1.2247    3.4075 O   0  0  0  0  0  0  0  0  0  0  0  0
    6.8646    0.2926    2.3921 C   0  0  0  0  0  0  0  0  0  0  0  0
    7.8280    1.0310    3.1577 C   0  0  0  0  0  0  0  0  0  0  0  0
    9.0844    0.6751    3.0360 N   0  0  0  0  0  0  0  0  0  0  0  0
    9.1922   -0.6203    1.9801 S   0  0  0  0  0  0  0  0  0  0  0  0
    7.5046   -0.6938    1.6692 C   0  0  0  0  0  0  0  0  0  0  0  0
    1.1563   -1.1721   -0.7266 H   0  0  0  0  0  0  0  0  0  0  0  0
    0.6867    0.5181   -0.3739 H   0  0  0  0  0  0  0  0  0  0  0  0
    0.8872   -0.6446    0.9692 H   0  0  0  0  0  0  0  0  0  0  0  0
    2.6957    0.9760   -1.7204 H   0  0  0  0  0  0  0  0  0  0  0  0
    3.7525   -0.4537   -1.6548 H   0  0  0  0  0  0  0  0  0  0  0  0
    4.2244    1.0733   -0.8365 H   0  0  0  0  0  0  0  0  0  0  0  0
    5.1573   -0.1984    0.5977 H   0  0  0  0  0  0  0  0  0  0  0  0
    7.5576    1.8583    3.8196 H   0  0  0  0  0  0  0  0  0  0  0  0
    7.0720   -1.4572    1.0217 H   0  0  0  0  0  0  0  0  0  0  0  0
  1  2  1  0
  1 14  1  0
  1 15  1  0
  1 16  1  0
  2  3  1  0
  2  4  1  0
  3 17  1  0
  3 18  1  0
  3 19  1  0
  4  5  2  0
  4  6  1  0
  6  7  1  0
  6 20  1  0
  7  8  2  0
  7  9  1  0
  9 10  1  0
  9 13  2  0
 10 11  2  0
 10 21  1  0
 11 12  1  0
 12 13  1  0
 13 22  1  0
M  END

