
     RDKit          3D

 33 35  0  0  0  0  0  0  0  0999 V2000
    3.2426    5.3177   -0.8386 N   0  0  0  0  0  0  0  0  0  0  0  0
    3.4534    4.6048   -1.9869 C   0  0  0  0  0  0  0  0  0  0  0  0
    3.4671    5.1362   -3.0851 O   0  0  0  0  0  0  0  0  0  0  0  0
    3.6599    3.1191   -1.8216 C   0  0  0  0  0  0  0  0  0  0  0  0
    3.3358    2.4062   -0.6565 C   0  0  0  0  0  0  0  0  0  0  0  0
    3.5612    1.0290   -0.6100 C   0  0  0  0  0  0  0  0  0  0  0  0
    4.1014    0.3417   -1.6987 C   0  0  0  0  0  0  0  0  0  0  0  0
    4.4158    1.0501   -2.8750 C   0  0  0  0  0  0  0  0  0  0  0  0
    4.9517    0.4508   -4.0272 N   0  0  0  0  0  0  0  0  0  0  0  0
    5.2827   -0.8708   -4.2462 C   0  0  0  0  0  0  0  0  0  0  0  0
    5.1439   -1.7495   -3.4002 O   0  0  0  0  0  0  0  0  0  0  0  0
    5.8213   -1.1453   -5.5875 C   0  0  0  0  0  0  0  0  0  0  0  0
    6.0660   -0.3374   -6.7051 C   0  0  0  0  0  0  0  0  0  0  0  0
    6.5753   -1.0258   -7.7398 N   0  0  0  0  0  0  0  0  0  0  0  0
    6.6697   -2.2898   -7.3142 C   0  0  0  0  0  0  0  0  0  0  0  0
    7.1392   -3.4397   -7.9889 C   0  0  0  0  0  0  0  0  0  0  0  0
    7.1404   -4.6517   -7.3345 C   0  0  0  0  0  0  0  0  0  0  0  0
    6.6731   -4.7394   -5.9940 C   0  0  0  0  0  0  0  0  0  0  0  0
    6.2168   -3.6260   -5.3357 C   0  0  0  0  0  0  0  0  0  0  0  0
    6.2172   -2.4182   -5.9922 N   0  0  0  0  0  0  0  0  0  0  0  0
    4.1840    2.4341   -2.9208 C   0  0  0  0  0  0  0  0  0  0  0  0
    3.1774    6.3246   -0.9323 H   0  0  0  0  0  0  0  0  0  0  0  0
    3.4593    4.9381    0.0725 H   0  0  0  0  0  0  0  0  0  0  0  0
    2.8805    2.9061    0.2012 H   0  0  0  0  0  0  0  0  0  0  0  0
    3.3044    0.4689    0.2928 H   0  0  0  0  0  0  0  0  0  0  0  0
    4.2776   -0.7300   -1.6575 H   0  0  0  0  0  0  0  0  0  0  0  0
    5.1114    1.0912   -4.7953 H   0  0  0  0  0  0  0  0  0  0  0  0
    5.8839    0.7363   -6.7884 H   0  0  0  0  0  0  0  0  0  0  0  0
    7.4870   -3.3219   -9.0156 H   0  0  0  0  0  0  0  0  0  0  0  0
    7.4998   -5.5496   -7.8418 H   0  0  0  0  0  0  0  0  0  0  0  0
    6.6703   -5.6953   -5.4680 H   0  0  0  0  0  0  0  0  0  0  0  0
    5.8427   -3.6039   -4.3141 H   0  0  0  0  0  0  0  0  0  0  0  0
    4.4021    3.0154   -3.8206 H   0  0  0  0  0  0  0  0  0  0  0  0
  1  2  1  0
  1 22  1  0
  1 23  1  0
  2  3  2  0
  2  4  1  0
  4  5  2  0
  4 21  1  0
  5  6  1  0
  5 24  1  0
  6  7  2  0
  6 25  1  0
  7  8  1  0
  7 26  1  0
  8  9  1  0
  8 21  2  0
  9 10  1  0
  9 27  1  0
 10 11  2  0
 10 12  1  0
 12 13  2  0
 12 20  1  0
 13 14  1  0
 13 28  1  0
 14 15  2  0
 15 16  1  0
 15 20  1  0
 16 17  2  0
 16 29  1  0
 17 18  1  0
 17 30  1  0
 18 19  2  0
 18 31  1  0
 19 20  1  0
 19 32  1  0
 21 33  1  0
M  END

