
     RDKit          3D

 61 64  0  0  0  0  0  0  0  0999 V2000
    3.5780    3.3676    3.1381 C   0  0  0  0  0  0  0  0  0  0  0  0
    3.0172    2.8365    1.8053 C   0  0  1  0  0  0  0  0  0  0  0  0
    1.5873    3.3727    1.6040 C   0  0  0  0  0  0  0  0  0  0  0  0
    3.9073    3.3181    0.6440 C   0  0  0  0  0  0  0  0  0  0  0  0
    2.9556    1.2709    1.7742 C   0  0  2  0  0  0  0  0  0  0  0  0
    2.3764    0.9925    0.8871 H   0  0  0  0  0  0  0  0  0  0  0  0
    2.2275    0.7166    2.9050 N   0  0  0  0  0  0  0  0  0  0  0  0
    1.2580   -0.2101    2.7406 C   0  0  0  0  0  0  0  0  0  0  0  0
    0.7945   -0.5978    1.6823 O   0  0  0  0  0  0  0  0  0  0  0  0
    0.7689   -0.7306    3.9787 N   0  0  0  0  0  0  0  0  0  0  0  0
    1.3252   -0.3623    5.1542 N   0  0  0  0  0  0  0  0  0  0  0  0
    0.6596   -1.0154    6.1026 C   0  0  0  0  0  0  0  0  0  0  0  0
    1.0343   -0.8557    7.5194 C   0  0  0  0  0  0  0  0  0  0  0  0
    2.2908   -0.3234    7.8661 C   0  0  0  0  0  0  0  0  0  0  0  0
    2.6552   -0.1617    9.2020 C   0  0  0  0  0  0  0  0  0  0  0  0
    1.7710   -0.5304   10.2127 C   0  0  0  0  0  0  0  0  0  0  0  0
    2.1038   -0.3857   11.4977 F   0  0  0  0  0  0  0  0  0  0  0  0
    0.5203   -1.0584    9.8819 C   0  0  0  0  0  0  0  0  0  0  0  0
   -0.3248   -1.4014   10.8592 F   0  0  0  0  0  0  0  0  0  0  0  0
    0.1511   -1.2205    8.5518 C   0  0  0  0  0  0  0  0  0  0  0  0
   -0.3606   -1.8356    5.5159 C   0  0  0  0  0  0  0  0  0  0  0  0
   -0.2633   -1.6218    4.1578 C   0  0  0  0  0  0  0  0  0  0  0  0
   -1.1384   -2.2770    3.1393 C   0  0  0  0  0  0  0  0  0  0  0  0
   -2.3233   -2.9012    3.8929 C   0  0  0  0  0  0  0  0  0  0  0  0
   -1.8999   -3.6226    5.0338 O   0  0  0  0  0  0  0  0  0  0  0  0
   -1.3693   -2.8108    6.0623 C   0  0  0  0  0  0  0  0  0  0  0  0
    4.3475    0.6084    1.7368 C   0  0  0  0  0  0  0  0  0  0  0  0
    5.1194    0.7259    2.6823 O   0  0  0  0  0  0  0  0  0  0  0  0
    4.6738   -0.1199    0.6351 N   0  0  0  0  0  0  0  0  0  0  0  0
    3.8088   -0.4752   -0.5067 C   0  0  0  0  0  0  0  0  0  0  0  0
    4.5823   -1.6068   -1.1905 C   0  0  0  0  0  0  0  0  0  0  0  0
    6.0535   -1.2807   -0.8835 C   0  0  2  0  0  0  0  0  0  0  0  0
    6.3928   -0.4623   -1.5518 H   0  0  0  0  0  0  0  0  0  0  0  0
    6.9345   -2.3762   -0.9445 O   0  0  0  0  0  0  0  0  0  0  0  0
    5.9891   -0.7577    0.5534 C   0  0  0  0  0  0  0  0  0  0  0  0
    3.6375    4.4677    3.1067 H   0  0  0  0  0  0  0  0  0  0  0  0
    4.5785    2.9635    3.3422 H   0  0  0  0  0  0  0  0  0  0  0  0
    2.9210    3.1046    3.9830 H   0  0  0  0  0  0  0  0  0  0  0  0
    1.5812    4.4740    1.6388 H   0  0  0  0  0  0  0  0  0  0  0  0
    0.9101    3.0084    2.3918 H   0  0  0  0  0  0  0  0  0  0  0  0
    1.1719    3.0633    0.6308 H   0  0  0  0  0  0  0  0  0  0  0  0
    3.8850    4.4175    0.5792 H   0  0  0  0  0  0  0  0  0  0  0  0
    3.5582    2.9241   -0.3254 H   0  0  0  0  0  0  0  0  0  0  0  0
    4.9571    3.0165    0.7819 H   0  0  0  0  0  0  0  0  0  0  0  0
    2.5998    0.8269    3.8459 H   0  0  0  0  0  0  0  0  0  0  0  0
    2.9840   -0.0422    7.0731 H   0  0  0  0  0  0  0  0  0  0  0  0
    3.6287    0.2456    9.4828 H   0  0  0  0  0  0  0  0  0  0  0  0
   -0.8452   -1.6144    8.3517 H   0  0  0  0  0  0  0  0  0  0  0  0
   -0.5722   -3.0504    2.5931 H   0  0  0  0  0  0  0  0  0  0  0  0
   -1.4825   -1.5577    2.3816 H   0  0  0  0  0  0  0  0  0  0  0  0
   -2.8565   -3.6174    3.2510 H   0  0  0  0  0  0  0  0  0  0  0  0
   -3.0416   -2.1064    4.1826 H   0  0  0  0  0  0  0  0  0  0  0  0
   -0.9096   -3.4949    6.7934 H   0  0  0  0  0  0  0  0  0  0  0  0
   -2.1903   -2.2749    6.5882 H   0  0  0  0  0  0  0  0  0  0  0  0
    3.6807    0.3870   -1.1866 H   0  0  0  0  0  0  0  0  0  0  0  0
    2.8105   -0.7924   -0.1715 H   0  0  0  0  0  0  0  0  0  0  0  0
    4.3613   -1.6816   -2.2665 H   0  0  0  0  0  0  0  0  0  0  0  0
    4.3487   -2.5774   -0.7232 H   0  0  0  0  0  0  0  0  0  0  0  0
    7.0553   -2.6235   -1.8699 H   0  0  0  0  0  0  0  0  0  0  0  0
    6.7872   -0.0446    0.8048 H   0  0  0  0  0  0  0  0  0  0  0  0
    6.0733   -1.6064    1.2555 H   0  0  0  0  0  0  0  0  0  0  0  0
  2  1  1  1
  1 36  1  0
  1 37  1  0
  1 38  1  0
  2  3  1  0
  2  4  1  0
  2  5  1  0
  3 39  1  0
  3 40  1  0
  3 41  1  0
  4 42  1  0
  4 43  1  0
  4 44  1  0
  5  6  1  6
  5  7  1  0
  5 27  1  0
  7  8  1  0
  7 45  1  0
  8  9  2  0
  8 10  1  0
 10 11  1  0
 10 22  1  0
 11 12  2  0
 12 13  1  0
 12 21  1  0
 13 14  2  0
 13 20  1  0
 14 15  1  0
 14 46  1  0
 15 16  2  0
 15 47  1  0
 16 17  1  0
 16 18  1  0
 18 19  1  0
 18 20  2  0
 20 48  1  0
 21 22  2  0
 21 26  1  0
 22 23  1  0
 23 24  1  0
 23 49  1  0
 23 50  1  0
 24 25  1  0
 24 51  1  0
 24 52  1  0
 25 26  1  0
 26 53  1  0
 26 54  1  0
 27 28  2  0
 27 29  1  0
 29 30  1  0
 29 35  1  0
 30 31  1  0
 30 55  1  0
 30 56  1  0
 31 32  1  0
 31 57  1  0
 31 58  1  0
 32 33  1  6
 32 34  1  0
 32 35  1  0
 34 59  1  0
 35 60  1  0
 35 61  1  0
M  END

