
     RDKit          3D

 40 42  0  0  0  0  0  0  0  0999 V2000
    1.3231   -2.4162   -1.5975 C   0  0  0  0  0  0  0  0  0  0  0  0
    2.7111   -1.9949   -1.5604 N   0  0  0  0  0  0  0  0  0  0  0  0
    3.3537   -1.8682   -0.3755 C   0  0  0  0  0  0  0  0  0  0  0  0
    2.8554   -2.1444    0.6971 O   0  0  0  0  0  0  0  0  0  0  0  0
    4.7174   -1.4136   -0.4392 N   0  0  0  0  0  0  0  0  0  0  0  0
    5.5466   -1.6488    0.6388 C   0  0  0  0  0  0  0  0  0  0  0  0
    6.8330   -1.2720    0.3083 C   0  0  0  0  0  0  0  0  0  0  0  0
    8.0443   -1.3406    1.1369 C   0  0  0  0  0  0  0  0  0  0  0  0
    8.0222   -1.7714    2.4650 C   0  0  0  0  0  0  0  0  0  0  0  0
    9.2494   -1.7973    3.1606 C   0  0  0  0  0  0  0  0  0  0  0  0
    9.3449   -2.2207    4.4512 N   0  0  0  0  0  0  0  0  0  0  0  0
   10.3925   -1.4150    2.5635 N   0  0  0  0  0  0  0  0  0  0  0  0
   10.2943   -1.0218    1.2960 C   0  0  0  0  0  0  0  0  0  0  0  0
    9.1999   -0.9600    0.5460 N   0  0  0  0  0  0  0  0  0  0  0  0
    6.7830   -0.7835   -1.0374 C   0  0  0  0  0  0  0  0  0  0  0  0
    5.4847   -0.8678   -1.4890 C   0  0  0  0  0  0  0  0  0  0  0  0
    4.9325   -0.3381   -2.7590 C   0  0  0  0  0  0  0  0  0  0  0  0
    3.9793    0.6988   -2.7088 C   0  0  0  0  0  0  0  0  0  0  0  0
    3.4673    1.2509   -3.8811 C   0  0  0  0  0  0  0  0  0  0  0  0
    2.2845    2.5365   -3.7890 Cl  0  0  0  0  0  0  0  0  0  0  0  0
    3.8978    0.7896   -5.1277 C   0  0  0  0  0  0  0  0  0  0  0  0
    4.8443   -0.2333   -5.1766 C   0  0  0  0  0  0  0  0  0  0  0  0
    5.3797   -0.8180   -4.0165 C   0  0  0  0  0  0  0  0  0  0  0  0
    6.4032   -1.9212   -4.1362 C   0  0  0  0  0  0  0  0  0  0  0  0
    0.9978   -2.4679   -2.6450 H   0  0  0  0  0  0  0  0  0  0  0  0
    0.6724   -1.7097   -1.0568 H   0  0  0  0  0  0  0  0  0  0  0  0
    1.1966   -3.4071   -1.1335 H   0  0  0  0  0  0  0  0  0  0  0  0
    3.1793   -1.7445   -2.4219 H   0  0  0  0  0  0  0  0  0  0  0  0
    5.1235   -2.0946    1.5336 H   0  0  0  0  0  0  0  0  0  0  0  0
    7.0938   -2.0761    2.9517 H   0  0  0  0  0  0  0  0  0  0  0  0
    8.5194   -2.3818    5.0094 H   0  0  0  0  0  0  0  0  0  0  0  0
   10.2367   -2.1069    4.9156 H   0  0  0  0  0  0  0  0  0  0  0  0
   11.2318   -0.7099    0.8162 H   0  0  0  0  0  0  0  0  0  0  0  0
    7.6304   -0.3719   -1.5794 H   0  0  0  0  0  0  0  0  0  0  0  0
    3.6453    1.0825   -1.7437 H   0  0  0  0  0  0  0  0  0  0  0  0
    3.4941    1.2264   -6.0425 H   0  0  0  0  0  0  0  0  0  0  0  0
    5.1770   -0.5966   -6.1528 H   0  0  0  0  0  0  0  0  0  0  0  0
    6.3854   -2.3644   -5.1428 H   0  0  0  0  0  0  0  0  0  0  0  0
    6.2339   -2.7185   -3.3973 H   0  0  0  0  0  0  0  0  0  0  0  0
    7.4241   -1.5454   -3.9581 H   0  0  0  0  0  0  0  0  0  0  0  0
  1  2  1  0
  1 25  1  0
  1 26  1  0
  1 27  1  0
  2  3  1  0
  2 28  1  0
  3  4  2  0
  3  5  1  0
  5  6  1  0
  5 16  1  0
  6  7  2  0
  6 29  1  0
  7  8  1  0
  7 15  1  0
  8  9  2  0
  8 14  1  0
  9 10  1  0
  9 30  1  0
 10 11  1  0
 10 12  2  0
 11 31  1  0
 11 32  1  0
 12 13  1  0
 13 14  2  0
 13 33  1  0
 15 16  2  0
 15 34  1  0
 16 17  1  0
 17 18  2  0
 17 23  1  0
 18 19  1  0
 18 35  1  0
 19 20  1  0
 19 21  2  0
 21 22  1  0
 21 36  1  0
 22 23  2  0
 22 37  1  0
 23 24  1  0
 24 38  1  0
 24 39  1  0
 24 40  1  0
M  END

