
     RDKit          3D

 42 44  0  0  0  0  0  0  0  0999 V2000
   10.2871    3.3778   -7.2873 C   0  0  0  0  0  0  0  0  0  0  0  0
    9.8700    2.5393   -6.1057 C   0  0  0  0  0  0  0  0  0  0  0  0
    8.5504    2.0804   -5.9635 C   0  0  0  0  0  0  0  0  0  0  0  0
    8.1720    1.3053   -4.8686 C   0  0  0  0  0  0  0  0  0  0  0  0
    9.1107    0.9651   -3.8827 C   0  0  0  0  0  0  0  0  0  0  0  0
    8.6464    0.1362   -2.7382 C   0  0  0  0  0  0  0  0  0  0  0  0
    7.5054   -0.2285   -2.5742 O   0  0  0  0  0  0  0  0  0  0  0  0
    9.6487   -0.1711   -1.8706 O   0  0  0  0  0  0  0  0  0  0  0  0
    9.3039   -0.9735   -0.7275 C   0  0  0  0  0  0  0  0  0  0  0  0
    9.5259   -2.4362   -0.9618 C   0  0  0  0  0  0  0  0  0  0  0  0
    8.5962   -3.4239   -1.1472 C   0  0  0  0  0  0  0  0  0  0  0  0
    7.1045   -3.3492   -1.1656 C   0  0  0  0  0  0  0  0  0  0  0  0
    9.3144   -4.7068   -1.3303 C   0  0  0  0  0  0  0  0  0  0  0  0
    8.8871   -5.8181   -1.5355 O   0  0  0  0  0  0  0  0  0  0  0  0
   10.6852   -4.3439   -1.2169 N   0  0  0  0  0  0  0  0  0  0  0  0
   11.9784   -4.9127   -1.4194 C   0  0  0  0  0  0  0  0  0  0  0  0
   12.2123   -6.0767   -1.6437 O   0  0  0  0  0  0  0  0  0  0  0  0
   12.8907   -3.7601   -1.2841 C   0  0  0  0  0  0  0  0  0  0  0  0
   14.3701   -3.9269   -1.3988 C   0  0  0  0  0  0  0  0  0  0  0  0
   12.1452   -2.6366   -1.0437 C   0  0  0  0  0  0  0  0  0  0  0  0
   12.5838   -1.2272   -0.8209 C   0  0  0  0  0  0  0  0  0  0  0  0
   10.8007   -2.9956   -0.9937 N   0  0  0  0  0  0  0  0  0  0  0  0
   10.4340    1.4198   -4.0135 C   0  0  0  0  0  0  0  0  0  0  0  0
   10.8023    2.1951   -5.1101 C   0  0  0  0  0  0  0  0  0  0  0  0
    9.4488    3.5562   -7.9760 H   0  0  0  0  0  0  0  0  0  0  0  0
   11.0952    2.8882   -7.8560 H   0  0  0  0  0  0  0  0  0  0  0  0
   10.6736    4.3582   -6.9619 H   0  0  0  0  0  0  0  0  0  0  0  0
    7.8080    2.3350   -6.7247 H   0  0  0  0  0  0  0  0  0  0  0  0
    7.1458    0.9498   -4.7596 H   0  0  0  0  0  0  0  0  0  0  0  0
    8.2505   -0.8101   -0.4723 H   0  0  0  0  0  0  0  0  0  0  0  0
    9.9356   -0.6034    0.0910 H   0  0  0  0  0  0  0  0  0  0  0  0
    6.7502   -2.3756   -1.5319 H   0  0  0  0  0  0  0  0  0  0  0  0
    6.6765   -3.5284   -0.1635 H   0  0  0  0  0  0  0  0  0  0  0  0
    6.7122   -4.1411   -1.8215 H   0  0  0  0  0  0  0  0  0  0  0  0
   14.6307   -4.4276   -2.3456 H   0  0  0  0  0  0  0  0  0  0  0  0
   14.7600   -4.5682   -0.5903 H   0  0  0  0  0  0  0  0  0  0  0  0
   14.9029   -2.9660   -1.3584 H   0  0  0  0  0  0  0  0  0  0  0  0
   13.6595   -1.1354   -1.0158 H   0  0  0  0  0  0  0  0  0  0  0  0
   12.4033   -0.9098    0.2199 H   0  0  0  0  0  0  0  0  0  0  0  0
   12.0456   -0.5318   -1.4814 H   0  0  0  0  0  0  0  0  0  0  0  0
   11.1715    1.1662   -3.2516 H   0  0  0  0  0  0  0  0  0  0  0  0
   11.8355    2.5426   -5.1991 H   0  0  0  0  0  0  0  0  0  0  0  0
  1  2  1  0
  1 25  1  0
  1 26  1  0
  1 27  1  0
  2  3  2  0
  2 24  1  0
  3  4  1  0
  3 28  1  0
  4  5  2  0
  4 29  1  0
  5  6  1  0
  5 23  1  0
  6  7  2  0
  6  8  1  0
  8  9  1  0
  9 10  1  0
  9 30  1  0
  9 31  1  0
 10 11  2  0
 10 22  1  0
 11 12  1  0
 11 13  1  0
 12 32  1  0
 12 33  1  0
 12 34  1  0
 13 14  2  0
 13 15  1  0
 15 16  1  0
 15 22  1  0
 16 17  2  0
 16 18  1  0
 18 19  1  0
 18 20  2  0
 19 35  1  0
 19 36  1  0
 19 37  1  0
 20 21  1  0
 20 22  1  0
 21 38  1  0
 21 39  1  0
 21 40  1  0
 23 24  2  0
 23 41  1  0
 24 42  1  0
M  END

