
     RDKit          3D

 53 56  0  0  0  0  0  0  0  0999 V2000
    3.9547   -0.7142    0.8460 C   0  0  0  0  0  0  0  0  0  0  0  0
    4.9896   -0.2224    0.0261 O   0  0  0  0  0  0  0  0  0  0  0  0
    4.6748    0.4362   -1.1184 C   0  0  0  0  0  0  0  0  0  0  0  0
    3.3676    0.6492   -1.5798 C   0  0  0  0  0  0  0  0  0  0  0  0
    3.1561    1.3487   -2.7735 C   0  0  0  0  0  0  0  0  0  0  0  0
    4.2300    1.8275   -3.5297 C   0  0  0  0  0  0  0  0  0  0  0  0
    4.0172    2.5293   -4.7528 N   0  0  0  0  0  0  0  0  0  0  0  0
    4.3899    3.8784   -4.9048 C   0  0  0  0  0  0  0  0  0  0  0  0
    4.7471    4.6135   -4.0128 O   0  0  0  0  0  0  0  0  0  0  0  0
    4.2495    4.1185   -6.3645 C   0  0  0  0  0  0  0  0  0  0  0  0
    4.3833    5.1489   -7.1900 N   0  0  0  0  0  0  0  0  0  0  0  0
    4.0958    4.6062   -8.3839 N   0  0  0  0  0  0  0  0  0  0  0  0
    4.1130    5.1995   -9.2065 H   0  0  0  0  0  0  0  0  0  0  0  0
    3.7762    3.2660   -8.3579 C   0  0  0  0  0  0  0  0  0  0  0  0
    3.4397    2.4924   -9.5957 C   0  0  0  0  0  0  0  0  0  0  0  0
    4.6510    1.9455  -10.3936 C   0  0  1  0  0  0  0  0  0  0  0  0
    5.5063    0.9869   -9.5578 C   0  0  0  0  0  0  0  0  0  0  0  0
    4.1698    1.2812  -11.6887 C   0  0  0  0  0  0  0  0  0  0  0  0
    3.8834    2.9311   -7.0190 C   0  0  0  0  0  0  0  0  0  0  0  0
    3.7418    1.8083   -6.0270 C   0  0  2  0  0  0  0  0  0  0  0  0
    2.3927    1.1028   -6.0589 C   0  0  0  0  0  0  0  0  0  0  0  0
    1.2027    1.7976   -5.8205 C   0  0  0  0  0  0  0  0  0  0  0  0
   -0.0161    1.2510   -5.8209 N   0  0  0  0  0  0  0  0  0  0  0  0
   -0.0912   -0.0566   -6.0717 C   0  0  0  0  0  0  0  0  0  0  0  0
    1.0160   -0.8673   -6.3328 C   0  0  0  0  0  0  0  0  0  0  0  0
    2.2900   -0.2776   -6.3324 C   0  0  0  0  0  0  0  0  0  0  0  0
    3.4372   -0.9484   -6.5863 O   0  0  0  0  0  0  0  0  0  0  0  0
    3.4040   -2.3509   -6.7673 C   0  0  0  0  0  0  0  0  0  0  0  0
    5.5368    1.6116   -3.0565 C   0  0  0  0  0  0  0  0  0  0  0  0
    5.7588    0.9295   -1.8670 C   0  0  0  0  0  0  0  0  0  0  0  0
    4.4382   -1.1923    1.7086 H   0  0  0  0  0  0  0  0  0  0  0  0
    3.3350   -1.4656    0.3230 H   0  0  0  0  0  0  0  0  0  0  0  0
    3.2963    0.0957    1.2091 H   0  0  0  0  0  0  0  0  0  0  0  0
    2.5058    0.2911   -1.0164 H   0  0  0  0  0  0  0  0  0  0  0  0
    2.1360    1.5326   -3.1133 H   0  0  0  0  0  0  0  0  0  0  0  0
    2.8334    3.1283  -10.2646 H   0  0  0  0  0  0  0  0  0  0  0  0
    2.7913    1.6478   -9.3089 H   0  0  0  0  0  0  0  0  0  0  0  0
    5.2831    2.8107  -10.6694 H   0  0  0  0  0  0  0  0  0  0  0  0
    4.9110    0.1237   -9.2134 H   0  0  0  0  0  0  0  0  0  0  0  0
    5.9188    1.4824   -8.6656 H   0  0  0  0  0  0  0  0  0  0  0  0
    6.3526    0.5991  -10.1472 H   0  0  0  0  0  0  0  0  0  0  0  0
    3.5295    0.4094  -11.4698 H   0  0  0  0  0  0  0  0  0  0  0  0
    5.0191    0.9263  -12.2938 H   0  0  0  0  0  0  0  0  0  0  0  0
    3.5823    1.9770  -12.3098 H   0  0  0  0  0  0  0  0  0  0  0  0
    4.5214    1.0444   -6.1761 H   0  0  0  0  0  0  0  0  0  0  0  0
    1.2567    2.8714   -5.6046 H   0  0  0  0  0  0  0  0  0  0  0  0
   -1.0937   -0.5016   -6.0701 H   0  0  0  0  0  0  0  0  0  0  0  0
    0.8735   -1.9293   -6.5317 H   0  0  0  0  0  0  0  0  0  0  0  0
    2.8156   -2.6337   -7.6576 H   0  0  0  0  0  0  0  0  0  0  0  0
    2.9885   -2.8633   -5.8826 H   0  0  0  0  0  0  0  0  0  0  0  0
    4.4447   -2.6692   -6.9107 H   0  0  0  0  0  0  0  0  0  0  0  0
    6.3831    1.9974   -3.6286 H   0  0  0  0  0  0  0  0  0  0  0  0
    6.7692    0.7641   -1.4878 H   0  0  0  0  0  0  0  0  0  0  0  0
  1  2  1  0
  1 31  1  0
  1 32  1  0
  1 33  1  0
  2  3  1  0
  3  4  2  0
  3 30  1  0
  4  5  1  0
  4 34  1  0
  5  6  2  0
  5 35  1  0
  6  7  1  0
  6 29  1  0
  7  8  1  0
  7 20  1  0
  8  9  2  0
  8 10  1  0
 10 11  2  0
 10 19  1  0
 11 12  1  0
 12 13  1  0
 12 14  1  0
 14 15  1  0
 14 19  2  0
 15 16  1  0
 15 36  1  0
 15 37  1  0
 16 17  1  0
 16 18  1  0
 16 38  1  6
 17 39  1  0
 17 40  1  0
 17 41  1  0
 18 42  1  0
 18 43  1  0
 18 44  1  0
 19 20  1  0
 20 21  1  0
 20 45  1  6
 21 22  2  0
 21 26  1  0
 22 23  1  0
 22 46  1  0
 23 24  2  0
 24 25  1  0
 24 47  1  0
 25 26  2  0
 25 48  1  0
 26 27  1  0
 27 28  1  0
 28 49  1  0
 28 50  1  0
 28 51  1  0
 29 30  2  0
 29 52  1  0
 30 53  1  0
M  END

