
     RDKit          3D

 43 44  0  0  0  0  0  0  0  0999 V2000
    1.7027    1.8922   -3.0276 C   0  0  0  0  0  0  0  0  0  0  0  0
    2.3558    0.5085   -3.0239 C   0  0  0  0  0  0  0  0  0  0  0  0
    3.4798    0.3929   -2.1091 N   0  0  0  0  0  0  0  0  0  0  0  0
    4.7600    0.7074   -2.4067 C   0  0  0  0  0  0  0  0  0  0  0  0
    5.6517    0.5974   -1.3884 N   0  0  0  0  0  0  0  0  0  0  0  0
    6.9112    0.8712   -1.6698 C   0  0  0  0  0  0  0  0  0  0  0  0
    7.3227    1.2488   -2.9601 C   0  0  0  0  0  0  0  0  0  0  0  0
    9.0076    1.6930   -3.3090 S   0  0  1  0  0  0  0  0  0  0  0  0
    9.0396    2.1771   -4.6954 O   0  0  0  0  0  0  0  0  0  0  0  0
    9.4913    2.5468   -2.2194 O   0  0  0  0  0  0  0  0  0  0  0  0
    9.8313    0.2091   -3.1765 N   0  0  0  0  0  0  0  0  0  0  0  0
    9.6117   -0.6981   -4.3196 C   0  0  0  0  0  0  0  0  0  0  0  0
    9.5212   -2.1719   -3.9150 C   0  0  0  0  0  0  0  0  0  0  0  0
    8.3419   -2.5116   -3.0036 C   0  0  0  0  0  0  0  0  0  0  0  0
    8.3322   -3.8672   -2.6104 O   0  0  0  0  0  0  0  0  0  0  0  0
   11.1954    0.2208   -2.6265 C   0  0  1  0  0  0  0  0  0  0  0  0
   12.2720    1.2727   -3.0211 C   0  0  0  0  0  0  0  0  0  0  0  0
   12.8249    1.1472   -1.5760 C   0  0  0  0  0  0  0  0  0  0  0  0
   11.4763    0.5155   -1.1335 C   0  0  0  0  0  0  0  0  0  0  0  0
    6.3218    1.3626   -3.9308 C   0  0  0  0  0  0  0  0  0  0  0  0
    5.0496    1.0948   -3.6667 N   0  0  0  0  0  0  0  0  0  0  0  0
    0.8466    1.9099   -3.7212 H   0  0  0  0  0  0  0  0  0  0  0  0
    2.4224    2.6585   -3.3534 H   0  0  0  0  0  0  0  0  0  0  0  0
    1.3345    2.1659   -2.0255 H   0  0  0  0  0  0  0  0  0  0  0  0
    2.7205    0.2656   -4.0320 H   0  0  0  0  0  0  0  0  0  0  0  0
    1.6198   -0.2627   -2.7437 H   0  0  0  0  0  0  0  0  0  0  0  0
    3.3155    0.1653   -1.1349 H   0  0  0  0  0  0  0  0  0  0  0  0
    7.6378    0.7986   -0.8522 H   0  0  0  0  0  0  0  0  0  0  0  0
   10.4053   -0.5594   -5.0762 H   0  0  0  0  0  0  0  0  0  0  0  0
    8.6755   -0.4032   -4.8164 H   0  0  0  0  0  0  0  0  0  0  0  0
   10.4486   -2.5048   -3.4195 H   0  0  0  0  0  0  0  0  0  0  0  0
    9.4454   -2.7647   -4.8459 H   0  0  0  0  0  0  0  0  0  0  0  0
    7.3912   -2.2182   -3.4971 H   0  0  0  0  0  0  0  0  0  0  0  0
    8.4092   -1.9212   -2.0772 H   0  0  0  0  0  0  0  0  0  0  0  0
    8.2297   -4.4108   -3.4026 H   0  0  0  0  0  0  0  0  0  0  0  0
   11.5886   -0.7808   -2.8553 H   0  0  0  0  0  0  0  0  0  0  0  0
   11.8291    2.2616   -3.1965 H   0  0  0  0  0  0  0  0  0  0  0  0
   12.9407    1.0215   -3.8591 H   0  0  0  0  0  0  0  0  0  0  0  0
   13.1199    2.0818   -1.0781 H   0  0  0  0  0  0  0  0  0  0  0  0
   13.6633    0.4358   -1.5098 H   0  0  0  0  0  0  0  0  0  0  0  0
   10.7913    1.2737   -0.7373 H   0  0  0  0  0  0  0  0  0  0  0  0
   11.5050   -0.3514   -0.4547 H   0  0  0  0  0  0  0  0  0  0  0  0
    6.5763    1.6915   -4.9443 H   0  0  0  0  0  0  0  0  0  0  0  0
  1  2  1  0
  1 22  1  0
  1 23  1  0
  1 24  1  0
  2  3  1  0
  2 25  1  0
  2 26  1  0
  3  4  1  0
  3 27  1  0
  4  5  2  0
  4 21  1  0
  5  6  1  0
  6  7  2  0
  6 28  1  0
  7  8  1  0
  7 20  1  0
  8  9  2  0
  8 10  2  0
  8 11  1  6
 11 12  1  0
 11 16  1  0
 12 13  1  0
 12 29  1  0
 12 30  1  0
 13 14  1  0
 13 31  1  0
 13 32  1  0
 14 15  1  0
 14 33  1  0
 14 34  1  0
 15 35  1  0
 16 17  1  0
 16 19  1  0
 16 36  1  1
 17 18  1  0
 17 37  1  0
 17 38  1  0
 18 19  1  0
 18 39  1  0
 18 40  1  0
 19 41  1  0
 19 42  1  0
 20 21  2  0
 20 43  1  0
M  END

