
     RDKit          3D

 85 87  0  0  0  0  0  0  0  0999 V2000
   -6.8777   -1.5905    5.4052 C   0  0  0  0  0  0  0  0  0  0  0  0
   -6.3709   -2.8014    5.6618 C   0  0  0  0  0  0  0  0  0  0  0  0
   -4.9245   -3.2139    5.7839 C   0  0  0  0  0  0  0  0  0  0  0  0
   -3.8265   -2.1255    5.8437 C   0  0  2  0  0  0  0  0  0  0  0  0
   -2.8717   -2.6751    5.9049 H   0  0  0  0  0  0  0  0  0  0  0  0
   -3.8955   -1.2601    7.1060 C   0  0  0  0  0  0  0  0  0  0  0  0
   -3.4432   -2.0167    8.3514 C   0  0  0  0  0  0  0  0  0  0  0  0
   -2.6698   -2.9729    8.2728 O   0  0  0  0  0  0  0  0  0  0  0  0
   -3.9393   -1.5400    9.5197 N   0  0  0  0  0  0  0  0  0  0  0  0
   -3.5160   -1.9084   10.8781 C   0  0  2  0  0  0  0  0  0  0  0  0
   -2.4774   -1.5633   11.0410 H   0  0  0  0  0  0  0  0  0  0  0  0
   -3.5048   -3.4326   11.1367 C   0  0  0  0  0  0  0  0  0  0  0  0
   -2.3526   -4.0816   10.6973 O   0  0  0  0  0  0  0  0  0  0  0  0
   -4.4453   -1.1979   11.8866 C   0  0  0  0  0  0  0  0  0  0  0  0
   -4.5650    0.3004   11.7029 C   0  0  0  0  0  0  0  0  0  0  0  0
   -5.7377    0.8781   11.1896 C   0  0  0  0  0  0  0  0  0  0  0  0
   -5.8365    2.2613   10.9979 C   0  0  0  0  0  0  0  0  0  0  0  0
   -4.7607    3.0909   11.3200 C   0  0  0  0  0  0  0  0  0  0  0  0
   -3.5869    2.5297   11.8361 C   0  0  0  0  0  0  0  0  0  0  0  0
   -3.4913    1.1499   12.0241 C   0  0  0  0  0  0  0  0  0  0  0  0
   -3.7545   -1.2544    4.5812 C   0  0  0  0  0  0  0  0  0  0  0  0
   -3.9833   -0.0522    4.5895 O   0  0  0  0  0  0  0  0  0  0  0  0
   -3.4039   -1.9237    3.4438 N   0  0  0  0  0  0  0  0  0  0  0  0
   -3.2965   -1.2914    2.1438 C   0  0  0  0  0  0  0  0  0  0  0  0
   -1.8629   -1.3151    1.5920 C   0  0  2  0  0  0  0  0  0  0  0  0
   -1.4818   -2.3414    1.7108 H   0  0  0  0  0  0  0  0  0  0  0  0
   -0.9346   -0.5741    2.4295 O   0  0  0  0  0  0  0  0  0  0  0  0
   -1.0141    0.7701    2.5343 C   0  0  0  0  0  0  0  0  0  0  0  0
   -1.8729    1.4382    2.0110 O   0  0  0  0  0  0  0  0  0  0  0  0
    0.1063    1.3062    3.4198 C   0  0  2  0  0  0  0  0  0  0  0  0
    0.9942    0.6938    3.1955 H   0  0  0  0  0  0  0  0  0  0  0  0
   -0.2265    1.0660    4.9216 C   0  0  0  0  0  0  0  0  0  0  0  0
   -1.3931    1.8549    5.4510 C   0  0  0  0  0  0  0  0  0  0  0  0
   -1.3195    2.7350    6.4554 C   0  0  0  0  0  0  0  0  0  0  0  0
    0.4147    2.7855    3.1119 C   0  0  0  0  0  0  0  0  0  0  0  0
    1.1411    3.0099    1.8013 C   0  0  0  0  0  0  0  0  0  0  0  0
    0.4414    3.2627    0.6096 C   0  0  0  0  0  0  0  0  0  0  0  0
    1.1244    3.4510   -0.5956 C   0  0  0  0  0  0  0  0  0  0  0  0
    2.5204    3.3906   -0.6334 C   0  0  0  0  0  0  0  0  0  0  0  0
    3.2299    3.1408    0.5452 C   0  0  0  0  0  0  0  0  0  0  0  0
    2.5442    2.9533    1.7482 C   0  0  0  0  0  0  0  0  0  0  0  0
   -1.7312   -0.9635    0.1181 C   0  0  0  0  0  0  0  0  0  0  0  0
   -0.6973   -1.5620   -0.6197 C   0  0  0  0  0  0  0  0  0  0  0  0
   -0.5278   -1.2824   -1.9776 C   0  0  0  0  0  0  0  0  0  0  0  0
   -1.4016   -0.4022   -2.6216 C   0  0  0  0  0  0  0  0  0  0  0  0
   -2.4365    0.1978   -1.8980 C   0  0  0  0  0  0  0  0  0  0  0  0
   -2.5978   -0.0752   -0.5373 C   0  0  0  0  0  0  0  0  0  0  0  0
   -7.9601   -1.4506    5.3309 H   0  0  0  0  0  0  0  0  0  0  0  0
   -6.2543   -0.7064    5.2505 H   0  0  0  0  0  0  0  0  0  0  0  0
   -7.0729   -3.6363    5.7914 H   0  0  0  0  0  0  0  0  0  0  0  0
   -4.7039   -3.9096    4.9516 H   0  0  0  0  0  0  0  0  0  0  0  0
   -4.8119   -3.8419    6.6854 H   0  0  0  0  0  0  0  0  0  0  0  0
   -4.9025   -0.8445    7.2551 H   0  0  0  0  0  0  0  0  0  0  0  0
   -3.2254   -0.3918    6.9886 H   0  0  0  0  0  0  0  0  0  0  0  0
   -4.4955   -0.6927    9.4519 H   0  0  0  0  0  0  0  0  0  0  0  0
   -4.4398   -3.8597   10.7103 H   0  0  0  0  0  0  0  0  0  0  0  0
   -3.5601   -3.5810   12.2288 H   0  0  0  0  0  0  0  0  0  0  0  0
   -2.2737   -3.8707    9.7438 H   0  0  0  0  0  0  0  0  0  0  0  0
   -4.0554   -1.4141   12.8939 H   0  0  0  0  0  0  0  0  0  0  0  0
   -5.4460   -1.6588   11.8288 H   0  0  0  0  0  0  0  0  0  0  0  0
   -6.5918    0.2375   10.9488 H   0  0  0  0  0  0  0  0  0  0  0  0
   -6.7601    2.6894   10.5997 H   0  0  0  0  0  0  0  0  0  0  0  0
   -4.8354    4.1713   11.1734 H   0  0  0  0  0  0  0  0  0  0  0  0
   -2.7419    3.1726   12.0959 H   0  0  0  0  0  0  0  0  0  0  0  0
   -2.5699    0.7231   12.4313 H   0  0  0  0  0  0  0  0  0  0  0  0
   -3.1951   -2.9127    3.5149 H   0  0  0  0  0  0  0  0  0  0  0  0
   -3.6582   -0.2624    2.2556 H   0  0  0  0  0  0  0  0  0  0  0  0
   -3.9447   -1.8102    1.4171 H   0  0  0  0  0  0  0  0  0  0  0  0
    0.6783    1.2948    5.5091 H   0  0  0  0  0  0  0  0  0  0  0  0
   -0.4230   -0.0130    5.0503 H   0  0  0  0  0  0  0  0  0  0  0  0
   -2.3633    1.6598    4.9792 H   0  0  0  0  0  0  0  0  0  0  0  0
   -0.3733    2.9523    6.9641 H   0  0  0  0  0  0  0  0  0  0  0  0
   -2.2048    3.2708    6.8099 H   0  0  0  0  0  0  0  0  0  0  0  0
    1.0321    3.1763    3.9369 H   0  0  0  0  0  0  0  0  0  0  0  0
   -0.5286    3.3507    3.1260 H   0  0  0  0  0  0  0  0  0  0  0  0
   -0.6497    3.3013    0.6325 H   0  0  0  0  0  0  0  0  0  0  0  0
    0.5602    3.6466   -1.5115 H   0  0  0  0  0  0  0  0  0  0  0  0
    3.0537    3.5409   -1.5758 H   0  0  0  0  0  0  0  0  0  0  0  0
    4.3224    3.0975    0.5293 H   0  0  0  0  0  0  0  0  0  0  0  0
    3.1094    2.7677    2.6671 H   0  0  0  0  0  0  0  0  0  0  0  0
   -0.0142   -2.2565   -0.1216 H   0  0  0  0  0  0  0  0  0  0  0  0
    0.2845   -1.7568   -2.5340 H   0  0  0  0  0  0  0  0  0  0  0  0
   -1.2763   -0.1836   -3.6852 H   0  0  0  0  0  0  0  0  0  0  0  0
   -3.1206    0.8912   -2.3940 H   0  0  0  0  0  0  0  0  0  0  0  0
   -3.3910    0.4246    0.0189 H   0  0  0  0  0  0  0  0  0  0  0  0
  1  2  2  0
  1 48  1  0
  1 49  1  0
  2  3  1  0
  2 50  1  0
  3  4  1  0
  3 51  1  0
  3 52  1  0
  4  5  1  1
  4  6  1  0
  4 21  1  0
  6  7  1  0
  6 53  1  0
  6 54  1  0
  7  8  2  0
  7  9  1  0
  9 10  1  0
  9 55  1  0
 10 11  1  1
 10 12  1  0
 10 14  1  0
 12 13  1  0
 12 56  1  0
 12 57  1  0
 13 58  1  0
 14 15  1  0
 14 59  1  0
 14 60  1  0
 15 16  2  0
 15 20  1  0
 16 17  1  0
 16 61  1  0
 17 18  2  0
 17 62  1  0
 18 19  1  0
 18 63  1  0
 19 20  2  0
 19 64  1  0
 20 65  1  0
 21 22  2  0
 21 23  1  0
 23 24  1  0
 23 66  1  0
 24 25  1  0
 24 67  1  0
 24 68  1  0
 25 26  1  6
 25 27  1  0
 25 42  1  0
 27 28  1  0
 28 29  2  0
 28 30  1  0
 30 31  1  6
 30 32  1  0
 30 35  1  0
 32 33  1  0
 32 69  1  0
 32 70  1  0
 33 34  2  0
 33 71  1  0
 34 72  1  0
 34 73  1  0
 35 36  1  0
 35 74  1  0
 35 75  1  0
 36 37  2  0
 36 41  1  0
 37 38  1  0
 37 76  1  0
 38 39  2  0
 38 77  1  0
 39 40  1  0
 39 78  1  0
 40 41  2  0
 40 79  1  0
 41 80  1  0
 42 43  2  0
 42 47  1  0
 43 44  1  0
 43 81  1  0
 44 45  2  0
 44 82  1  0
 45 46  1  0
 45 83  1  0
 46 47  2  0
 46 84  1  0
 47 85  1  0
M  END

