
     RDKit          3D

 63 63  0  0  0  0  0  0  0  0999 V2000
    0.2568   -0.3007    0.1118 C   0  0  0  0  0  0  0  0  0  0  0  0
    1.7862   -0.3090    0.1026 C   0  0  0  0  0  0  0  0  0  0  0  0
    2.4116    0.5790    1.1829 C   0  0  0  0  0  0  0  0  0  0  0  0
    3.9430    0.5764    1.1807 C   0  0  0  0  0  0  0  0  0  0  0  0
    4.5680    1.4642    2.2609 C   0  0  0  0  0  0  0  0  0  0  0  0
    6.0996    1.4614    2.2582 C   0  0  0  0  0  0  0  0  0  0  0  0
    6.7248    2.3490    3.3385 C   0  0  0  0  0  0  0  0  0  0  0  0
    8.2563    2.3462    3.3353 C   0  0  0  0  0  0  0  0  0  0  0  0
    8.8817    3.2336    4.4156 C   0  0  0  0  0  0  0  0  0  0  0  0
   10.4133    3.2309    4.4116 C   0  0  0  0  0  0  0  0  0  0  0  0
   11.0389    4.1180    5.4920 C   0  0  0  0  0  0  0  0  0  0  0  0
   12.5707    4.1151    5.4868 C   0  0  0  0  0  0  0  0  0  0  0  0
   13.1880    5.0050    6.5715 C   0  0  0  0  0  0  0  0  0  0  0  0
   14.7217    4.9806    6.6396 C   0  0  0  0  0  0  0  0  0  0  0  0
   15.4266    5.5743    5.4143 C   0  0  0  0  0  0  0  0  0  0  0  0
   16.9429    5.5809    5.5697 C   0  0  0  0  0  0  0  0  0  0  0  0
   17.5940    6.2257    4.4611 O   0  0  0  0  0  0  0  0  0  0  0  0
   17.8593    5.4768    3.3728 C   0  0  0  0  0  0  0  0  0  0  0  0
   17.5833    4.3023    3.2844 O   0  0  0  0  0  0  0  0  0  0  0  0
   18.5385    6.2730    2.2852 C   0  0  1  0  0  0  0  0  0  0  0  0
   19.8232    5.6529    1.6596 C   0  0  0  0  0  0  0  0  0  0  0  0
   19.3086    6.0608    0.2575 C   0  0  0  0  0  0  0  0  0  0  0  0
   17.8938    6.2145    0.8672 C   0  0  0  0  0  0  0  0  0  0  0  0
   -0.1576   -0.9490   -0.6769 H   0  0  0  0  0  0  0  0  0  0  0  0
   -0.1397    0.7157   -0.0511 H   0  0  0  0  0  0  0  0  0  0  0  0
   -0.1404   -0.6566    1.0774 H   0  0  0  0  0  0  0  0  0  0  0  0
    2.1509    0.0155   -0.8892 H   0  0  0  0  0  0  0  0  0  0  0  0
    2.1502   -1.3450    0.2296 H   0  0  0  0  0  0  0  0  0  0  0  0
    2.0474    0.2550    2.1760 H   0  0  0  0  0  0  0  0  0  0  0  0
    2.0481    1.6162    1.0566 H   0  0  0  0  0  0  0  0  0  0  0  0
    4.3066    0.9003    0.1875 H   0  0  0  0  0  0  0  0  0  0  0  0
    4.3059   -0.4608    1.3066 H   0  0  0  0  0  0  0  0  0  0  0  0
    4.2047    1.1404    3.2542 H   0  0  0  0  0  0  0  0  0  0  0  0
    4.2052    2.5016    2.1352 H   0  0  0  0  0  0  0  0  0  0  0  0
    6.4629    1.7854    1.2650 H   0  0  0  0  0  0  0  0  0  0  0  0
    6.4625    0.4241    2.3837 H   0  0  0  0  0  0  0  0  0  0  0  0
    6.3617    2.0248    4.3317 H   0  0  0  0  0  0  0  0  0  0  0  0
    6.3618    3.3863    3.2131 H   0  0  0  0  0  0  0  0  0  0  0  0
    8.6194    2.6704    2.3421 H   0  0  0  0  0  0  0  0  0  0  0  0
    8.6193    1.3089    3.4605 H   0  0  0  0  0  0  0  0  0  0  0  0
    8.5191    2.9091    5.4089 H   0  0  0  0  0  0  0  0  0  0  0  0
    8.5185    4.2709    4.2907 H   0  0  0  0  0  0  0  0  0  0  0  0
   10.7759    3.5556    3.4184 H   0  0  0  0  0  0  0  0  0  0  0  0
   10.7765    2.1938    4.5362 H   0  0  0  0  0  0  0  0  0  0  0  0
   10.6764    3.7938    6.4855 H   0  0  0  0  0  0  0  0  0  0  0  0
   10.6761    5.1555    5.3671 H   0  0  0  0  0  0  0  0  0  0  0  0
   12.9259    4.4327    4.4903 H   0  0  0  0  0  0  0  0  0  0  0  0
   12.9346    3.0787    5.6176 H   0  0  0  0  0  0  0  0  0  0  0  0
   12.7887    4.6942    7.5536 H   0  0  0  0  0  0  0  0  0  0  0  0
   12.8472    6.0473    6.4268 H   0  0  0  0  0  0  0  0  0  0  0  0
   15.0620    3.9390    6.7880 H   0  0  0  0  0  0  0  0  0  0  0  0
   15.0435    5.5341    7.5404 H   0  0  0  0  0  0  0  0  0  0  0  0
   15.0817    6.6103    5.2475 H   0  0  0  0  0  0  0  0  0  0  0  0
   15.1737    4.9993    4.5095 H   0  0  0  0  0  0  0  0  0  0  0  0
   17.3277    4.5541    5.6654 H   0  0  0  0  0  0  0  0  0  0  0  0
   17.2466    6.1624    6.4532 H   0  0  0  0  0  0  0  0  0  0  0  0
   18.6983    7.3059    2.6234 H   0  0  0  0  0  0  0  0  0  0  0  0
   19.8234    4.5609    1.7936 H   0  0  0  0  0  0  0  0  0  0  0  0
   20.7882    6.0594    1.9987 H   0  0  0  0  0  0  0  0  0  0  0  0
   19.4325    5.3341   -0.5597 H   0  0  0  0  0  0  0  0  0  0  0  0
   19.7240    7.0269   -0.0699 H   0  0  0  0  0  0  0  0  0  0  0  0
   17.2985    5.2960    0.7549 H   0  0  0  0  0  0  0  0  0  0  0  0
   17.2856    7.0793    0.5609 H   0  0  0  0  0  0  0  0  0  0  0  0
  1  2  1  0
  1 24  1  0
  1 25  1  0
  1 26  1  0
  2  3  1  0
  2 27  1  0
  2 28  1  0
  3  4  1  0
  3 29  1  0
  3 30  1  0
  4  5  1  0
  4 31  1  0
  4 32  1  0
  5  6  1  0
  5 33  1  0
  5 34  1  0
  6  7  1  0
  6 35  1  0
  6 36  1  0
  7  8  1  0
  7 37  1  0
  7 38  1  0
  8  9  1  0
  8 39  1  0
  8 40  1  0
  9 10  1  0
  9 41  1  0
  9 42  1  0
 10 11  1  0
 10 43  1  0
 10 44  1  0
 11 12  1  0
 11 45  1  0
 11 46  1  0
 12 13  1  0
 12 47  1  0
 12 48  1  0
 13 14  1  0
 13 49  1  0
 13 50  1  0
 14 15  1  0
 14 51  1  0
 14 52  1  0
 15 16  1  0
 15 53  1  0
 15 54  1  0
 16 17  1  0
 16 55  1  0
 16 56  1  0
 17 18  1  0
 18 19  2  0
 18 20  1  0
 20 21  1  0
 20 23  1  0
 20 57  1  1
 21 22  1  0
 21 58  1  0
 21 59  1  0
 22 23  1  0
 22 60  1  0
 22 61  1  0
 23 62  1  0
 23 63  1  0
M  END

