
     RDKit          3D

 33 35  0  0  0  0  0  0  0  0999 V2000
    2.8043    0.3543    1.3068 O   0  0  0  0  0  0  0  0  0  0  0  0
    2.8111    0.1912   -0.1412 S   0  0  1  0  0  0  0  0  0  0  0  0
    1.5824   -0.0058   -0.9126 O   0  0  0  0  0  0  0  0  0  0  0  0
    3.5585    1.5357   -0.7637 N   0  0  0  0  0  0  0  0  0  0  0  0
    3.6238    1.8000   -2.1971 C   0  0  0  0  0  0  0  0  0  0  0  0
    3.6149    3.2880   -2.4975 C   0  0  0  0  0  0  0  0  0  0  0  0
    2.7292    4.1430   -1.8286 C   0  0  0  0  0  0  0  0  0  0  0  0
    2.6678    5.5193   -2.1168 C   0  0  0  0  0  0  0  0  0  0  0  0
    3.5185    5.9958   -3.0991 C   0  0  0  0  0  0  0  0  0  0  0  0
    4.4056    5.1512   -3.7701 C   0  0  0  0  0  0  0  0  0  0  0  0
    4.4826    3.7988   -3.4891 C   0  0  0  0  0  0  0  0  0  0  0  0
    5.1469    5.8846   -4.6550 O   0  0  0  0  0  0  0  0  0  0  0  0
    4.5842    7.1944   -4.6514 C   0  0  0  0  0  0  0  0  0  0  0  0
    3.6847    7.2763   -3.5499 O   0  0  0  0  0  0  0  0  0  0  0  0
    3.8631   -1.2375   -0.5279 C   0  0  0  0  0  0  0  0  0  0  0  0
    3.2885   -2.2764   -1.2691 C   0  0  0  0  0  0  0  0  0  0  0  0
    4.0096   -3.4322   -1.5655 C   0  0  0  0  0  0  0  0  0  0  0  0
    5.3262   -3.5455   -1.1099 C   0  0  0  0  0  0  0  0  0  0  0  0
    6.2472   -4.9798   -1.4687 Cl  0  0  0  0  0  0  0  0  0  0  0  0
    5.9231   -2.5207   -0.3698 C   0  0  0  0  0  0  0  0  0  0  0  0
    5.1864   -1.3707   -0.0767 C   0  0  0  0  0  0  0  0  0  0  0  0
    5.9817   -0.1140    0.8405 Cl  0  0  0  0  0  0  0  0  0  0  0  0
    4.3306    1.8575   -0.1834 H   0  0  0  0  0  0  0  0  0  0  0  0
    2.7385    1.3193   -2.6430 H   0  0  0  0  0  0  0  0  0  0  0  0
    4.5142    1.3352   -2.6601 H   0  0  0  0  0  0  0  0  0  0  0  0
    2.0749    3.7256   -1.0607 H   0  0  0  0  0  0  0  0  0  0  0  0
    1.9820    6.1851   -1.5907 H   0  0  0  0  0  0  0  0  0  0  0  0
    5.1913    3.1573   -4.0168 H   0  0  0  0  0  0  0  0  0  0  0  0
    4.0330    7.3658   -5.5975 H   0  0  0  0  0  0  0  0  0  0  0  0
    5.3850    7.9428   -4.5350 H   0  0  0  0  0  0  0  0  0  0  0  0
    2.2581   -2.1589   -1.6085 H   0  0  0  0  0  0  0  0  0  0  0  0
    3.5580   -4.2405   -2.1418 H   0  0  0  0  0  0  0  0  0  0  0  0
    6.9513   -2.6142   -0.0209 H   0  0  0  0  0  0  0  0  0  0  0  0
  1  2  2  0
  2  3  2  0
  2  4  1  6
  2 15  1  0
  4  5  1  0
  4 23  1  0
  5  6  1  0
  5 24  1  0
  5 25  1  0
  6  7  2  0
  6 11  1  0
  7  8  1  0
  7 26  1  0
  8  9  2  0
  8 27  1  0
  9 10  1  0
  9 14  1  0
 10 11  2  0
 10 12  1  0
 11 28  1  0
 12 13  1  0
 13 14  1  0
 13 29  1  0
 13 30  1  0
 15 16  2  0
 15 21  1  0
 16 17  1  0
 16 31  1  0
 17 18  2  0
 17 32  1  0
 18 19  1  0
 18 20  1  0
 20 21  2  0
 20 33  1  0
 21 22  1  0
M  END

