
     RDKit          3D

 81 84  0  0  0  0  0  0  0  0999 V2000
    5.4099   -5.4731    0.6525 C   0  0  0  0  0  0  0  0  0  0  0  0
    5.1851   -4.0324    1.0979 C   0  0  0  0  0  0  0  0  0  0  0  0
    6.5632   -2.9965    0.5214 S   0  0  1  0  0  0  0  0  0  0  0  0
    7.7594   -3.3873    1.2861 O   0  0  0  0  0  0  0  0  0  0  0  0
    6.5970   -3.0449   -0.9529 O   0  0  0  0  0  0  0  0  0  0  0  0
    6.1296   -1.3070    1.0432 C   0  0  0  0  0  0  0  0  0  0  0  0
    6.7241   -0.8955    2.2431 C   0  0  0  0  0  0  0  0  0  0  0  0
    6.4910    0.3785    2.7544 C   0  0  0  0  0  0  0  0  0  0  0  0
    5.6638    1.2439    2.0350 C   0  0  0  0  0  0  0  0  0  0  0  0
    5.3658    2.8543    2.6382 Cl  0  0  0  0  0  0  0  0  0  0  0  0
    5.0822    0.8478    0.8298 C   0  0  0  0  0  0  0  0  0  0  0  0
    5.2916   -0.4396    0.3115 C   0  0  0  0  0  0  0  0  0  0  0  0
    4.6651   -0.7846   -1.0342 C   0  0  0  0  0  0  0  0  0  0  0  0
    3.2486   -0.3999   -1.1441 N   0  0  0  0  0  0  0  0  0  0  0  0
    2.9434    0.7875   -1.8208 C   0  0  0  0  0  0  0  0  0  0  0  0
    3.7917    1.5386   -2.2579 O   0  0  0  0  0  0  0  0  0  0  0  0
    1.5959    1.0631   -1.9609 N   0  0  0  0  0  0  0  0  0  0  0  0
    1.4174    1.9208   -2.4688 H   0  0  0  0  0  0  0  0  0  0  0  0
    0.5482    0.2964   -1.4798 C   0  0  0  0  0  0  0  0  0  0  0  0
   -0.8076    0.6756   -1.6542 C   0  0  0  0  0  0  0  0  0  0  0  0
   -1.1384    1.9825   -2.3482 C   0  0  0  0  0  0  0  0  0  0  0  0
   -1.8223   -0.1857   -1.1853 C   0  0  0  0  0  0  0  0  0  0  0  0
   -3.2880    0.1637   -1.4232 C   0  0  0  0  0  0  0  0  0  0  0  0
   -3.9997   -0.8881   -2.1268 N   0  0  0  0  0  0  0  0  0  0  0  0
   -3.6088   -1.0280   -3.5249 C   0  0  0  0  0  0  0  0  0  0  0  0
   -4.2051   -2.2990   -4.1307 C   0  0  0  0  0  0  0  0  0  0  0  0
   -5.7276   -2.3296   -3.9671 C   0  0  0  0  0  0  0  0  0  0  0  0
   -6.1100   -2.1029   -2.4962 C   0  0  2  0  0  0  0  0  0  0  0  0
   -5.7070   -2.9408   -1.9050 H   0  0  0  0  0  0  0  0  0  0  0  0
   -7.5515   -2.1121   -2.2631 N   0  0  0  0  0  0  0  0  0  0  0  0
   -8.4416   -1.2461   -2.8296 C   0  0  0  0  0  0  0  0  0  0  0  0
   -8.1481   -0.3312   -3.5772 O   0  0  0  0  0  0  0  0  0  0  0  0
   -9.6938   -1.5638   -2.4266 O   0  0  0  0  0  0  0  0  0  0  0  0
  -10.8666   -0.8039   -2.8634 C   0  0  1  0  0  0  0  0  0  0  0  0
  -11.0185   -0.8997   -4.3854 C   0  0  0  0  0  0  0  0  0  0  0  0
  -12.0193   -1.5224   -2.1586 C   0  0  0  0  0  0  0  0  0  0  0  0
  -10.7610    0.6485   -2.3855 C   0  0  0  0  0  0  0  0  0  0  0  0
   -5.4466   -0.8251   -1.9511 C   0  0  0  0  0  0  0  0  0  0  0  0
   -1.4714   -1.3786   -0.4913 C   0  0  0  0  0  0  0  0  0  0  0  0
   -2.4777   -2.3679    0.0766 C   0  0  1  0  0  0  0  0  0  0  0  0
   -3.5776   -1.7817    0.5852 F   0  0  0  0  0  0  0  0  0  0  0  0
   -2.8813   -3.2804   -0.8256 F   0  0  0  0  0  0  0  0  0  0  0  0
   -1.9268   -3.0675    1.0906 F   0  0  0  0  0  0  0  0  0  0  0  0
   -0.1330   -1.7081   -0.3090 C   0  0  0  0  0  0  0  0  0  0  0  0
    0.8812   -0.8892   -0.8065 C   0  0  0  0  0  0  0  0  0  0  0  0
    2.2930   -1.2788   -0.6158 C   0  0  0  0  0  0  0  0  0  0  0  0
    2.6325   -2.2977   -0.0404 O   0  0  0  0  0  0  0  0  0  0  0  0
    4.5826   -6.1038    1.0127 H   0  0  0  0  0  0  0  0  0  0  0  0
    6.3529   -5.8688    1.0576 H   0  0  0  0  0  0  0  0  0  0  0  0
    5.4459   -5.5405   -0.4445 H   0  0  0  0  0  0  0  0  0  0  0  0
    5.1844   -3.9247    2.1931 H   0  0  0  0  0  0  0  0  0  0  0  0
    4.2658   -3.5902    0.6883 H   0  0  0  0  0  0  0  0  0  0  0  0
    7.3856   -1.5900    2.7636 H   0  0  0  0  0  0  0  0  0  0  0  0
    6.9501    0.7030    3.6892 H   0  0  0  0  0  0  0  0  0  0  0  0
    4.4815    1.5667    0.2722 H   0  0  0  0  0  0  0  0  0  0  0  0
    4.7509   -1.8511   -1.2512 H   0  0  0  0  0  0  0  0  0  0  0  0
    5.1989   -0.2356   -1.8208 H   0  0  0  0  0  0  0  0  0  0  0  0
   -0.2726    2.6545   -2.4243 H   0  0  0  0  0  0  0  0  0  0  0  0
   -1.9038    2.5507   -1.8030 H   0  0  0  0  0  0  0  0  0  0  0  0
   -1.5174    1.8232   -3.3716 H   0  0  0  0  0  0  0  0  0  0  0  0
   -3.3714    1.1325   -1.9506 H   0  0  0  0  0  0  0  0  0  0  0  0
   -3.7718    0.3053   -0.4453 H   0  0  0  0  0  0  0  0  0  0  0  0
   -2.5091   -1.0700   -3.5815 H   0  0  0  0  0  0  0  0  0  0  0  0
   -3.9300   -0.1412   -4.1227 H   0  0  0  0  0  0  0  0  0  0  0  0
   -3.7536   -3.1691   -3.6248 H   0  0  0  0  0  0  0  0  0  0  0  0
   -3.9327   -2.3625   -5.1970 H   0  0  0  0  0  0  0  0  0  0  0  0
   -6.1407   -3.2919   -4.3123 H   0  0  0  0  0  0  0  0  0  0  0  0
   -6.1921   -1.5371   -4.5750 H   0  0  0  0  0  0  0  0  0  0  0  0
   -7.9422   -2.8254   -1.6610 H   0  0  0  0  0  0  0  0  0  0  0  0
  -11.0513   -1.9544   -4.7008 H   0  0  0  0  0  0  0  0  0  0  0  0
  -10.1840   -0.4031   -4.8963 H   0  0  0  0  0  0  0  0  0  0  0  0
  -11.9606   -0.4215   -4.6964 H   0  0  0  0  0  0  0  0  0  0  0  0
  -12.0658   -2.5772   -2.4693 H   0  0  0  0  0  0  0  0  0  0  0  0
  -12.9779   -1.0425   -2.4076 H   0  0  0  0  0  0  0  0  0  0  0  0
  -11.8859   -1.4903   -1.0666 H   0  0  0  0  0  0  0  0  0  0  0  0
   -9.9244    1.1639   -2.8739 H   0  0  0  0  0  0  0  0  0  0  0  0
  -10.6119    0.6824   -1.2947 H   0  0  0  0  0  0  0  0  0  0  0  0
  -11.6937    1.1857   -2.6187 H   0  0  0  0  0  0  0  0  0  0  0  0
   -5.6671   -0.7433   -0.8754 H   0  0  0  0  0  0  0  0  0  0  0  0
   -5.8949    0.0564   -2.4569 H   0  0  0  0  0  0  0  0  0  0  0  0
    0.1601   -2.6101    0.2270 H   0  0  0  0  0  0  0  0  0  0  0  0
  1  2  1  0
  1 48  1  0
  1 49  1  0
  1 50  1  0
  3  2  1  1
  2 51  1  0
  2 52  1  0
  3  4  2  0
  3  5  2  0
  3  6  1  0
  6  7  2  0
  6 12  1  0
  7  8  1  0
  7 53  1  0
  8  9  2  0
  8 54  1  0
  9 10  1  0
  9 11  1  0
 11 12  2  0
 11 55  1  0
 12 13  1  0
 13 14  1  0
 13 56  1  0
 13 57  1  0
 14 15  1  0
 14 46  1  0
 15 16  2  0
 15 17  1  0
 17 18  1  0
 17 19  1  0
 19 20  2  0
 19 45  1  0
 20 21  1  0
 20 22  1  0
 21 58  1  0
 21 59  1  0
 21 60  1  0
 22 23  1  0
 22 39  2  0
 23 24  1  0
 23 61  1  0
 23 62  1  0
 24 25  1  0
 24 38  1  0
 25 26  1  0
 25 63  1  0
 25 64  1  0
 26 27  1  0
 26 65  1  0
 26 66  1  0
 27 28  1  0
 27 67  1  0
 27 68  1  0
 28 29  1  1
 28 30  1  0
 28 38  1  0
 30 31  1  0
 30 69  1  0
 31 32  2  0
 31 33  1  0
 34 33  1  1
 34 35  1  0
 34 36  1  0
 34 37  1  0
 35 70  1  0
 35 71  1  0
 35 72  1  0
 36 73  1  0
 36 74  1  0
 36 75  1  0
 37 76  1  0
 37 77  1  0
 37 78  1  0
 38 79  1  0
 38 80  1  0
 39 40  1  0
 39 44  1  0
 40 41  1  1
 40 42  1  0
 40 43  1  0
 44 45  2  0
 44 81  1  0
 45 46  1  0
 46 47  2  0
M  END

