
     RDKit          3D

 78 82  0  0  0  0  0  0  0  0999 V2000
    1.8412   -6.7567    2.7320 C   0  0  0  0  0  0  0  0  0  0  0  0
    2.0746   -6.0868    3.9399 O   0  0  0  0  0  0  0  0  0  0  0  0
    3.4372   -5.8804    4.2233 C   0  0  0  0  0  0  0  0  0  0  0  0
    3.5509   -5.1473    5.5607 C   0  0  0  0  0  0  0  0  0  0  0  0
    4.9693   -4.8872    5.9775 C   0  0  0  0  0  0  0  0  0  0  0  0
    5.6390   -3.6801    6.0073 C   0  0  0  0  0  0  0  0  0  0  0  0
    6.9714   -3.9641    6.4993 C   0  0  0  0  0  0  0  0  0  0  0  0
    7.1360   -5.3178    6.6529 N   0  0  0  0  0  0  0  0  0  0  0  0
    5.9495   -5.8794    6.4203 C   0  0  0  0  0  0  0  0  0  0  0  0
    5.8559   -7.2182    6.9950 C   0  0  0  0  0  0  0  0  0  0  0  0
    4.9530   -7.6724    7.9076 C   0  0  0  0  0  0  0  0  0  0  0  0
    5.4934   -8.4953    9.0049 C   0  0  0  0  0  0  0  0  0  0  0  0
    5.7155   -7.7890   10.1735 N   0  0  0  0  0  0  0  0  0  0  0  0
    5.4375   -6.8178   10.2590 H   0  0  0  0  0  0  0  0  0  0  0  0
    6.8525   -8.2644   10.8111 C   0  0  0  0  0  0  0  0  0  0  0  0
    7.2230   -9.4331   10.1461 C   0  0  0  0  0  0  0  0  0  0  0  0
    6.3712   -9.5923    9.0185 C   0  0  0  0  0  0  0  0  0  0  0  0
    6.4094  -10.6882    7.9882 C   0  0  0  0  0  0  0  0  0  0  0  0
    7.8144  -11.1564    7.5837 C   0  0  0  0  0  0  0  0  0  0  0  0
    8.5385  -11.7986    8.6134 O   0  0  0  0  0  0  0  0  0  0  0  0
    8.1670  -13.1280    8.8674 C   0  0  0  0  0  0  0  0  0  0  0  0
    7.6226   -7.2398   11.5142 C   0  0  0  0  0  0  0  0  0  0  0  0
    8.8074   -6.8960   11.0426 N   0  0  0  0  0  0  0  0  0  0  0  0
    8.9960   -5.5690   11.4209 C   0  0  0  0  0  0  0  0  0  0  0  0
    9.7183   -4.7906   10.5337 C   0  0  0  0  0  0  0  0  0  0  0  0
    9.6086   -3.3758   10.2924 C   0  0  0  0  0  0  0  0  0  0  0  0
    9.1723   -2.9254    9.0603 C   0  0  0  0  0  0  0  0  0  0  0  0
    8.7884   -3.7698    8.0314 N   0  0  0  0  0  0  0  0  0  0  0  0
    8.7449   -4.7852    8.0902 H   0  0  0  0  0  0  0  0  0  0  0  0
    7.8625   -3.1539    7.2241 C   0  0  0  0  0  0  0  0  0  0  0  0
    7.8492   -1.7604    7.6000 C   0  0  0  0  0  0  0  0  0  0  0  0
    8.6510   -1.6032    8.7087 C   0  0  0  0  0  0  0  0  0  0  0  0
    8.9114   -0.3661    9.5181 C   0  0  0  0  0  0  0  0  0  0  0  0
    8.3644    0.9342    8.9178 C   0  0  0  0  0  0  0  0  0  0  0  0
    6.9703    0.9507    8.7153 O   0  0  0  0  0  0  0  0  0  0  0  0
    6.1949    1.0778    9.8842 C   0  0  0  0  0  0  0  0  0  0  0  0
    7.9404   -5.1514   12.3677 C   0  0  0  0  0  0  0  0  0  0  0  0
    7.8002   -3.8117   13.0320 C   0  0  0  0  0  0  0  0  0  0  0  0
    6.8225   -2.8883   12.2693 C   0  0  0  0  0  0  0  0  0  0  0  0
    6.9766   -1.5159   12.5680 O   0  0  0  0  0  0  0  0  0  0  0  0
    6.5364   -1.1214   13.8453 C   0  0  0  0  0  0  0  0  0  0  0  0
    7.0671   -6.2034   12.3946 C   0  0  0  0  0  0  0  0  0  0  0  0
    0.7533   -6.8665    2.6103 H   0  0  0  0  0  0  0  0  0  0  0  0
    2.3000   -7.7672    2.7191 H   0  0  0  0  0  0  0  0  0  0  0  0
    2.2375   -6.1965    1.8598 H   0  0  0  0  0  0  0  0  0  0  0  0
    3.9218   -5.2830    3.4223 H   0  0  0  0  0  0  0  0  0  0  0  0
    3.9791   -6.8485    4.2721 H   0  0  0  0  0  0  0  0  0  0  0  0
    3.0227   -5.7562    6.3150 H   0  0  0  0  0  0  0  0  0  0  0  0
    2.9985   -4.1976    5.4817 H   0  0  0  0  0  0  0  0  0  0  0  0
    5.2278   -2.7006    5.7622 H   0  0  0  0  0  0  0  0  0  0  0  0
    6.8329   -7.7106    6.9975 H   0  0  0  0  0  0  0  0  0  0  0  0
    4.0114   -7.1348    8.0727 H   0  0  0  0  0  0  0  0  0  0  0  0
    8.0616  -10.0752   10.4019 H   0  0  0  0  0  0  0  0  0  0  0  0
    5.8878  -10.3454    7.0787 H   0  0  0  0  0  0  0  0  0  0  0  0
    5.8289  -11.5609    8.3417 H   0  0  0  0  0  0  0  0  0  0  0  0
    8.4220  -10.2877    7.2832 H   0  0  0  0  0  0  0  0  0  0  0  0
    7.7336  -11.8284    6.7042 H   0  0  0  0  0  0  0  0  0  0  0  0
    8.8530  -13.5241    9.6307 H   0  0  0  0  0  0  0  0  0  0  0  0
    8.2517  -13.7587    7.9586 H   0  0  0  0  0  0  0  0  0  0  0  0
    7.1329  -13.2248    9.2526 H   0  0  0  0  0  0  0  0  0  0  0  0
   10.1852   -5.3913    9.7435 H   0  0  0  0  0  0  0  0  0  0  0  0
    9.6198   -2.6526   11.1103 H   0  0  0  0  0  0  0  0  0  0  0  0
    7.2410   -0.9881    7.1360 H   0  0  0  0  0  0  0  0  0  0  0  0
   10.0007   -0.2422    9.6551 H   0  0  0  0  0  0  0  0  0  0  0  0
    8.5059   -0.5134   10.5365 H   0  0  0  0  0  0  0  0  0  0  0  0
    8.8147    1.0989    7.9254 H   0  0  0  0  0  0  0  0  0  0  0  0
    8.6714    1.7815    9.5648 H   0  0  0  0  0  0  0  0  0  0  0  0
    5.1414    1.1333    9.5733 H   0  0  0  0  0  0  0  0  0  0  0  0
    6.4451    2.0070   10.4362 H   0  0  0  0  0  0  0  0  0  0  0  0
    6.3116    0.2243   10.5780 H   0  0  0  0  0  0  0  0  0  0  0  0
    8.7763   -3.3054   13.0885 H   0  0  0  0  0  0  0  0  0  0  0  0
    7.4578   -3.9498   14.0705 H   0  0  0  0  0  0  0  0  0  0  0  0
    5.7792   -3.2133   12.4582 H   0  0  0  0  0  0  0  0  0  0  0  0
    7.0021   -2.9771   11.1888 H   0  0  0  0  0  0  0  0  0  0  0  0
    6.6179   -0.0261   13.9010 H   0  0  0  0  0  0  0  0  0  0  0  0
    7.1475   -1.5554   14.6594 H   0  0  0  0  0  0  0  0  0  0  0  0
    5.4791   -1.4051   14.0190 H   0  0  0  0  0  0  0  0  0  0  0  0
    6.1333   -6.2738   12.9553 H   0  0  0  0  0  0  0  0  0  0  0  0
  1  2  1  0
  1 43  1  0
  1 44  1  0
  1 45  1  0
  2  3  1  0
  3  4  1  0
  3 46  1  0
  3 47  1  0
  4  5  1  0
  4 48  1  0
  4 49  1  0
  5  6  2  0
  5  9  1  0
  6  7  1  0
  6 50  1  0
  7  8  2  0
  7 30  1  0
  8  9  1  0
  9 10  2  0
 10 11  1  0
 10 51  1  0
 11 12  2  0
 11 52  1  0
 12 13  1  0
 12 17  1  0
 13 14  1  0
 13 15  1  0
 15 16  1  0
 15 22  2  0
 16 17  2  0
 16 53  1  0
 17 18  1  0
 18 19  1  0
 18 54  1  0
 18 55  1  0
 19 20  1  0
 19 56  1  0
 19 57  1  0
 20 21  1  0
 21 58  1  0
 21 59  1  0
 21 60  1  0
 22 23  1  0
 22 42  1  0
 23 24  2  0
 24 25  1  0
 24 37  1  0
 25 26  2  0
 25 61  1  0
 26 27  1  0
 26 62  1  0
 27 28  1  0
 27 32  2  0
 28 29  1  0
 28 30  1  0
 30 31  2  0
 31 32  1  0
 31 63  1  0
 32 33  1  0
 33 34  1  0
 33 64  1  0
 33 65  1  0
 34 35  1  0
 34 66  1  0
 34 67  1  0
 35 36  1  0
 36 68  1  0
 36 69  1  0
 36 70  1  0
 37 38  1  0
 37 42  2  0
 38 39  1  0
 38 71  1  0
 38 72  1  0
 39 40  1  0
 39 73  1  0
 39 74  1  0
 40 41  1  0
 41 75  1  0
 41 76  1  0
 41 77  1  0
 42 78  1  0
M  END

