
     RDKit          3D

 36 36  0  0  0  0  0  0  0  0999 V2000
    3.0599   -0.4236   -1.4156 C   0  0  0  0  0  0  0  0  0  0  0  0
    2.6640   -0.3706    0.0641 C   0  0  1  0  0  0  0  0  0  0  0  0
    3.2766   -1.4132    0.7957 O   0  0  0  0  0  0  0  0  0  0  0  0
    2.9779    0.9873    0.7452 C   0  0  1  0  0  0  0  0  0  0  0  0
    2.2742    1.0761    2.1009 C   0  0  0  0  0  0  0  0  0  0  0  0
    4.4392    1.0653    0.8815 N   0  0  0  0  0  0  0  0  0  0  0  0
    4.9979    2.1961    1.6159 C   0  0  0  0  0  0  0  0  0  0  0  0
    6.5295    2.1993    1.5822 C   0  0  0  0  0  0  0  0  0  0  0  0
    7.1757    2.4018    0.2072 C   0  0  1  0  0  0  0  0  0  0  0  0
    6.8479    3.7319   -0.5009 C   0  0  0  0  0  0  0  0  0  0  0  0
    7.9488    3.9066   -1.5766 C   0  0  0  0  0  0  0  0  0  0  0  0
    9.1128    2.9640   -1.1519 C   0  0  0  0  0  0  0  0  0  0  0  0
    8.7146    2.4181    0.2316 C   0  0  0  0  0  0  0  0  0  0  0  0
    2.8069   -1.4118   -1.8281 H   0  0  0  0  0  0  0  0  0  0  0  0
    4.1459   -0.2867   -1.5548 H   0  0  0  0  0  0  0  0  0  0  0  0
    2.5340    0.3460   -2.0050 H   0  0  0  0  0  0  0  0  0  0  0  0
    1.5726   -0.5307    0.1252 H   0  0  0  0  0  0  0  0  0  0  0  0
    4.1204   -1.0290    1.0968 H   0  0  0  0  0  0  0  0  0  0  0  0
    2.5827    1.8029    0.0987 H   0  0  0  0  0  0  0  0  0  0  0  0
    2.6192    0.2678    2.7632 H   0  0  0  0  0  0  0  0  0  0  0  0
    1.1879    0.9619    1.9638 H   0  0  0  0  0  0  0  0  0  0  0  0
    2.4429    2.0420    2.5990 H   0  0  0  0  0  0  0  0  0  0  0  0
    4.8473    1.0529   -0.0518 H   0  0  0  0  0  0  0  0  0  0  0  0
    4.6800    2.1275    2.6677 H   0  0  0  0  0  0  0  0  0  0  0  0
    4.6141    3.1717    1.2416 H   0  0  0  0  0  0  0  0  0  0  0  0
    6.8871    1.2480    2.0134 H   0  0  0  0  0  0  0  0  0  0  0  0
    6.8825    3.0015    2.2554 H   0  0  0  0  0  0  0  0  0  0  0  0
    6.8732    1.5705   -0.4607 H   0  0  0  0  0  0  0  0  0  0  0  0
    6.9038    4.5494    0.2401 H   0  0  0  0  0  0  0  0  0  0  0  0
    5.8321    3.7603   -0.9261 H   0  0  0  0  0  0  0  0  0  0  0  0
    8.2726    4.9565   -1.6485 H   0  0  0  0  0  0  0  0  0  0  0  0
    7.5718    3.6317   -2.5744 H   0  0  0  0  0  0  0  0  0  0  0  0
   10.0880    3.4747   -1.1357 H   0  0  0  0  0  0  0  0  0  0  0  0
    9.2073    2.1316   -1.8684 H   0  0  0  0  0  0  0  0  0  0  0  0
    9.0515    3.1056    1.0290 H   0  0  0  0  0  0  0  0  0  0  0  0
    9.1529    1.4313    0.4515 H   0  0  0  0  0  0  0  0  0  0  0  0
  1  2  1  0
  1 14  1  0
  1 15  1  0
  1 16  1  0
  2  3  1  0
  2  4  1  0
  2 17  1  6
  3 18  1  0
  4  5  1  0
  4  6  1  0
  4 19  1  6
  5 20  1  0
  5 21  1  0
  5 22  1  0
  6  7  1  0
  6 23  1  0
  7  8  1  0
  7 24  1  0
  7 25  1  0
  8  9  1  0
  8 26  1  0
  8 27  1  0
  9 10  1  0
  9 13  1  0
  9 28  1  6
 10 11  1  0
 10 29  1  0
 10 30  1  0
 11 12  1  0
 11 31  1  0
 11 32  1  0
 12 13  1  0
 12 33  1  0
 12 34  1  0
 13 35  1  0
 13 36  1  0
M  END

