
     RDKit          3D

 49 50  0  0  0  0  0  0  0  0999 V2000
    0.7839   -1.0704    2.3071 C   0  0  0  0  0  0  0  0  0  0  0  0
    2.2999   -0.9085    2.4269 C   0  0  0  0  0  0  0  0  0  0  0  0
    3.0629   -0.9862    1.0904 C   0  0  1  0  0  0  0  0  0  0  0  0
    2.7235    0.1485    0.1112 C   0  0  0  0  0  0  0  0  0  0  0  0
    3.4218    0.0362   -1.2441 C   0  0  0  0  0  0  0  0  0  0  0  0
    4.5090   -1.0248    1.3516 N   0  0  0  0  0  0  0  0  0  0  0  0
    5.1100    0.0803    1.8391 N   0  0  0  0  0  0  0  0  0  0  0  0
    6.3791   -0.2541    2.0012 C   0  0  0  0  0  0  0  0  0  0  0  0
    6.6209   -1.6023    1.6186 C   0  0  0  0  0  0  0  0  0  0  0  0
    7.8836   -2.3774    1.6443 C   0  0  0  0  0  0  0  0  0  0  0  0
    7.9335   -3.5945    1.4842 O   0  0  0  0  0  0  0  0  0  0  0  0
    9.0213   -1.6456    1.8761 N   0  0  0  0  0  0  0  0  0  0  0  0
   10.3289   -2.2710    1.9013 C   0  0  0  0  0  0  0  0  0  0  0  0
   10.9561   -2.4389    0.5108 C   0  0  0  0  0  0  0  0  0  0  0  0
   12.3144   -3.1399    0.5814 C   0  0  0  0  0  0  0  0  0  0  0  0
   12.9547   -3.2736   -0.7312 N   0  0  0  0  0  0  0  0  0  0  0  0
   12.8513   -4.4182   -1.4474 C   0  0  0  0  0  0  0  0  0  0  0  0
   13.4352   -4.5270   -2.6822 C   0  0  0  0  0  0  0  0  0  0  0  0
   14.1442   -3.3816   -3.1393 C   0  0  0  0  0  0  0  0  0  0  0  0
   14.2554   -2.2638   -2.4741 N   0  0  0  0  0  0  0  0  0  0  0  0
   13.6541   -2.1241   -1.2390 C   0  0  0  0  0  0  0  0  0  0  0  0
   13.6809   -1.1107   -0.5687 O   0  0  0  0  0  0  0  0  0  0  0  0
    5.3662   -2.0731    1.2070 C   0  0  0  0  0  0  0  0  0  0  0  0
    4.9604   -3.4198    0.6998 C   0  0  0  0  0  0  0  0  0  0  0  0
    0.3187   -1.0973    3.3048 H   0  0  0  0  0  0  0  0  0  0  0  0
    0.5153   -2.0091    1.7931 H   0  0  0  0  0  0  0  0  0  0  0  0
    0.3161   -0.2417    1.7531 H   0  0  0  0  0  0  0  0  0  0  0  0
    2.6991   -1.6986    3.0855 H   0  0  0  0  0  0  0  0  0  0  0  0
    2.5509    0.0489    2.9124 H   0  0  0  0  0  0  0  0  0  0  0  0
    2.8240   -1.9474    0.6078 H   0  0  0  0  0  0  0  0  0  0  0  0
    2.9827    1.1056    0.5917 H   0  0  0  0  0  0  0  0  0  0  0  0
    1.6317    0.1508   -0.0372 H   0  0  0  0  0  0  0  0  0  0  0  0
    4.5168    0.0830   -1.1383 H   0  0  0  0  0  0  0  0  0  0  0  0
    3.1188    0.8592   -1.9101 H   0  0  0  0  0  0  0  0  0  0  0  0
    3.1714   -0.9101   -1.7530 H   0  0  0  0  0  0  0  0  0  0  0  0
    7.0767    0.4800    2.4071 H   0  0  0  0  0  0  0  0  0  0  0  0
    8.9711   -0.6354    1.8404 H   0  0  0  0  0  0  0  0  0  0  0  0
   10.2087   -3.2584    2.3730 H   0  0  0  0  0  0  0  0  0  0  0  0
   10.9908   -1.6697    2.5467 H   0  0  0  0  0  0  0  0  0  0  0  0
   11.0930   -1.4526    0.0401 H   0  0  0  0  0  0  0  0  0  0  0  0
   10.2659   -3.0253   -0.1175 H   0  0  0  0  0  0  0  0  0  0  0  0
   12.2104   -4.1494    1.0095 H   0  0  0  0  0  0  0  0  0  0  0  0
   13.0027   -2.5622    1.2148 H   0  0  0  0  0  0  0  0  0  0  0  0
   12.2874   -5.2317   -0.9826 H   0  0  0  0  0  0  0  0  0  0  0  0
   13.3658   -5.4422   -3.2686 H   0  0  0  0  0  0  0  0  0  0  0  0
   14.6441   -3.4209   -4.1183 H   0  0  0  0  0  0  0  0  0  0  0  0
    5.8384   -4.0761    0.7163 H   0  0  0  0  0  0  0  0  0  0  0  0
    4.5690   -3.3672   -0.3299 H   0  0  0  0  0  0  0  0  0  0  0  0
    4.1775   -3.8714    1.3313 H   0  0  0  0  0  0  0  0  0  0  0  0
  1  2  1  0
  1 25  1  0
  1 26  1  0
  1 27  1  0
  2  3  1  0
  2 28  1  0
  2 29  1  0
  3  4  1  0
  3  6  1  0
  3 30  1  6
  4  5  1  0
  4 31  1  0
  4 32  1  0
  5 33  1  0
  5 34  1  0
  5 35  1  0
  6  7  1  0
  6 23  1  0
  7  8  2  0
  8  9  1  0
  8 36  1  0
  9 10  1  0
  9 23  2  0
 10 11  2  0
 10 12  1  0
 12 13  1  0
 12 37  1  0
 13 14  1  0
 13 38  1  0
 13 39  1  0
 14 15  1  0
 14 40  1  0
 14 41  1  0
 15 16  1  0
 15 42  1  0
 15 43  1  0
 16 17  1  0
 16 21  1  0
 17 18  2  0
 17 44  1  0
 18 19  1  0
 18 45  1  0
 19 20  2  0
 19 46  1  0
 20 21  1  0
 21 22  2  0
 23 24  1  0
 24 47  1  0
 24 48  1  0
 24 49  1  0
M  END

