
     RDKit          3D

 65 68  0  0  0  0  0  0  0  0999 V2000
   11.5108   -4.6320    6.3438 C   0  0  0  0  0  0  0  0  0  0  0  0
   11.1101   -5.9355    5.6440 C   0  0  1  0  0  0  0  0  0  0  0  0
   11.1963   -7.1277    6.6046 C   0  0  0  0  0  0  0  0  0  0  0  0
    9.6993   -5.8522    5.0105 C   0  0  0  0  0  0  0  0  0  0  0  0
    9.5491   -4.8248    3.9101 C   0  0  0  0  0  0  0  0  0  0  0  0
   10.0638   -5.0586    2.6274 C   0  0  0  0  0  0  0  0  0  0  0  0
    9.9470   -4.1092    1.6075 C   0  0  0  0  0  0  0  0  0  0  0  0
    9.3056   -2.8779    1.8195 C   0  0  0  0  0  0  0  0  0  0  0  0
    9.1422   -1.8124    0.7173 C   0  0  1  0  0  0  0  0  0  0  0  0
    9.7795   -2.2483   -0.6155 C   0  0  0  0  0  0  0  0  0  0  0  0
    7.6337   -1.5816    0.4609 C   0  0  0  0  0  0  0  0  0  0  0  0
    9.7646   -0.4606    1.1757 C   0  0  0  0  0  0  0  0  0  0  0  0
   11.2619   -0.4716    1.4998 C   0  0  0  0  0  0  0  0  0  0  0  0
   11.7664    0.8825    2.0087 C   0  0  0  0  0  0  0  0  0  0  0  0
   13.2615    0.8635    2.3443 C   0  0  0  0  0  0  0  0  0  0  0  0
   13.7705    2.1377    2.8371 N   0  0  0  0  0  0  0  0  0  0  0  0
   13.9408    2.4397    4.1724 C   0  0  0  0  0  0  0  0  0  0  0  0
   14.3625    3.6598    4.3845 N   0  0  0  0  0  0  0  0  0  0  0  0
   14.4740    4.2011    3.1267 C   0  0  0  0  0  0  0  0  0  0  0  0
   14.9103    5.5178    2.7566 C   0  0  0  0  0  0  0  0  0  0  0  0
   15.2403    6.3972    3.7382 N   0  0  0  0  0  0  0  0  0  0  0  0
   14.9810    5.8733    1.4922 N   0  0  0  0  0  0  0  0  0  0  0  0
   14.6298    4.9873    0.5100 C   0  0  0  0  0  0  0  0  0  0  0  0
   14.7263    5.4278   -0.8365 C   0  0  0  0  0  0  0  0  0  0  0  0
   14.3952    4.6020   -1.8956 C   0  0  0  0  0  0  0  0  0  0  0  0
   13.9471    3.2864   -1.6575 C   0  0  0  0  0  0  0  0  0  0  0  0
   13.8380    2.8177   -0.3578 C   0  0  0  0  0  0  0  0  0  0  0  0
   14.1714    3.6389    0.7469 C   0  0  0  0  0  0  0  0  0  0  0  0
   14.1127    3.2842    2.1363 C   0  0  0  0  0  0  0  0  0  0  0  0
    8.7858   -2.6499    3.1070 C   0  0  0  0  0  0  0  0  0  0  0  0
    8.9048   -3.5967    4.1257 C   0  0  0  0  0  0  0  0  0  0  0  0
   12.5320   -4.7007    6.7528 H   0  0  0  0  0  0  0  0  0  0  0  0
   10.8309   -4.4114    7.1854 H   0  0  0  0  0  0  0  0  0  0  0  0
   11.4805   -3.7731    5.6558 H   0  0  0  0  0  0  0  0  0  0  0  0
   11.8278   -6.1115    4.8208 H   0  0  0  0  0  0  0  0  0  0  0  0
   10.4865   -7.0126    7.4421 H   0  0  0  0  0  0  0  0  0  0  0  0
   12.2058   -7.2214    7.0367 H   0  0  0  0  0  0  0  0  0  0  0  0
   10.9589   -8.0763    6.0960 H   0  0  0  0  0  0  0  0  0  0  0  0
    8.9654   -5.6464    5.8095 H   0  0  0  0  0  0  0  0  0  0  0  0
    9.4452   -6.8479    4.6072 H   0  0  0  0  0  0  0  0  0  0  0  0
   10.5637   -6.0083    2.4124 H   0  0  0  0  0  0  0  0  0  0  0  0
   10.3644   -4.3508    0.6294 H   0  0  0  0  0  0  0  0  0  0  0  0
    9.2925   -3.1500   -1.0179 H   0  0  0  0  0  0  0  0  0  0  0  0
   10.8545   -2.4630   -0.5241 H   0  0  0  0  0  0  0  0  0  0  0  0
    9.6622   -1.4491   -1.3647 H   0  0  0  0  0  0  0  0  0  0  0  0
    7.1431   -2.5138    0.1398 H   0  0  0  0  0  0  0  0  0  0  0  0
    7.4860   -0.8279   -0.3302 H   0  0  0  0  0  0  0  0  0  0  0  0
    7.1147   -1.2240    1.3631 H   0  0  0  0  0  0  0  0  0  0  0  0
    9.2155   -0.1003    2.0624 H   0  0  0  0  0  0  0  0  0  0  0  0
    9.5715    0.2873    0.3855 H   0  0  0  0  0  0  0  0  0  0  0  0
   11.8406   -0.7564    0.6035 H   0  0  0  0  0  0  0  0  0  0  0  0
   11.4693   -1.2491    2.2560 H   0  0  0  0  0  0  0  0  0  0  0  0
   11.2067    1.1793    2.9129 H   0  0  0  0  0  0  0  0  0  0  0  0
   11.5713    1.6656    1.2562 H   0  0  0  0  0  0  0  0  0  0  0  0
   13.8569    0.5594    1.4699 H   0  0  0  0  0  0  0  0  0  0  0  0
   13.4589    0.1142    3.1272 H   0  0  0  0  0  0  0  0  0  0  0  0
   13.7376    1.6928    4.9418 H   0  0  0  0  0  0  0  0  0  0  0  0
   15.2681    6.0790    4.6967 H   0  0  0  0  0  0  0  0  0  0  0  0
   15.6295    7.2931    3.4791 H   0  0  0  0  0  0  0  0  0  0  0  0
   15.0745    6.4502   -0.9967 H   0  0  0  0  0  0  0  0  0  0  0  0
   14.4799    4.9707   -2.9213 H   0  0  0  0  0  0  0  0  0  0  0  0
   13.6845    2.6355   -2.4950 H   0  0  0  0  0  0  0  0  0  0  0  0
   13.4882    1.7982   -0.1941 H   0  0  0  0  0  0  0  0  0  0  0  0
    8.2686   -1.7130    3.3281 H   0  0  0  0  0  0  0  0  0  0  0  0
    8.4809   -3.3782    5.1103 H   0  0  0  0  0  0  0  0  0  0  0  0
  1  2  1  0
  1 32  1  0
  1 33  1  0
  1 34  1  0
  2  3  1  0
  2  4  1  0
  2 35  1  6
  3 36  1  0
  3 37  1  0
  3 38  1  0
  4  5  1  0
  4 39  1  0
  4 40  1  0
  5  6  2  0
  5 31  1  0
  6  7  1  0
  6 41  1  0
  7  8  2  0
  7 42  1  0
  8  9  1  0
  8 30  1  0
  9 10  1  6
  9 11  1  0
  9 12  1  0
 10 43  1  0
 10 44  1  0
 10 45  1  0
 11 46  1  0
 11 47  1  0
 11 48  1  0
 12 13  1  0
 12 49  1  0
 12 50  1  0
 13 14  1  0
 13 51  1  0
 13 52  1  0
 14 15  1  0
 14 53  1  0
 14 54  1  0
 15 16  1  0
 15 55  1  0
 15 56  1  0
 16 17  1  0
 16 29  1  0
 17 18  2  0
 17 57  1  0
 18 19  1  0
 19 20  1  0
 19 29  2  0
 20 21  1  0
 20 22  2  0
 21 58  1  0
 21 59  1  0
 22 23  1  0
 23 24  1  0
 23 28  2  0
 24 25  2  0
 24 60  1  0
 25 26  1  0
 25 61  1  0
 26 27  2  0
 26 62  1  0
 27 28  1  0
 27 63  1  0
 28 29  1  0
 30 31  2  0
 30 64  1  0
 31 65  1  0
M  END

