
     RDKit          3D

 47 49  0  0  0  0  0  0  0  0999 V2000
    2.7265    0.9225    0.8555 C   0  0  0  0  0  0  0  0  0  0  0  0
    2.5297   -0.3154    0.2108 O   0  0  0  0  0  0  0  0  0  0  0  0
    3.1683   -0.5524   -0.9560 C   0  0  0  0  0  0  0  0  0  0  0  0
    4.0250    0.3268   -1.5979 C   0  0  0  0  0  0  0  0  0  0  0  0
    4.6481   -0.0212   -2.8262 C   0  0  0  0  0  0  0  0  0  0  0  0
    5.5399    0.8272   -3.5469 C   0  0  0  0  0  0  0  0  0  0  0  0
    6.1253    0.4538   -4.7369 C   0  0  0  0  0  0  0  0  0  0  0  0
    7.0260    1.3671   -5.4222 C   0  0  0  0  0  0  0  0  0  0  0  0
    7.6860    1.1696   -6.5919 C   0  0  0  0  0  0  0  0  0  0  0  0
    8.5818    2.1228   -7.2400 C   0  0  0  0  0  0  0  0  0  0  0  0
    8.8842    3.4063   -6.7224 C   0  0  0  0  0  0  0  0  0  0  0  0
    9.7427    4.2711   -7.3808 C   0  0  0  0  0  0  0  0  0  0  0  0
   10.3538    3.8999   -8.6053 C   0  0  0  0  0  0  0  0  0  0  0  0
   11.2621    4.7313   -9.3659 C   0  0  0  0  0  0  0  0  0  0  0  0
   11.7494    5.9900   -9.1503 C   0  0  0  0  0  0  0  0  0  0  0  0
   11.4372    6.8201   -8.0326 C   0  0  0  0  0  0  0  0  0  0  0  0
   11.2416    7.5649   -7.1587 N   0  0  0  0  0  0  0  0  0  0  0  0
   12.7016    6.5556  -10.1818 C   0  0  0  0  0  0  0  0  0  0  0  0
   13.0336    5.9437  -11.1630 O   0  0  0  0  0  0  0  0  0  0  0  0
   13.1675    7.7944   -9.9473 O   0  0  0  0  0  0  0  0  0  0  0  0
   10.0526    2.6186   -9.1237 C   0  0  0  0  0  0  0  0  0  0  0  0
    9.1918    1.7554   -8.4602 C   0  0  0  0  0  0  0  0  0  0  0  0
    5.8180   -0.8819   -5.2911 C   0  0  0  0  0  0  0  0  0  0  0  0
    6.2432   -1.3582   -6.3129 O   0  0  0  0  0  0  0  0  0  0  0  0
    4.9449   -1.6645   -4.5493 O   0  0  0  0  0  0  0  0  0  0  0  0
    4.3765   -1.2826   -3.3796 C   0  0  0  0  0  0  0  0  0  0  0  0
    3.5142   -2.1885   -2.7494 C   0  0  0  0  0  0  0  0  0  0  0  0
    2.9076   -1.8371   -1.5445 C   0  0  0  0  0  0  0  0  0  0  0  0
    2.0662   -2.6250   -0.8561 O   0  0  0  0  0  0  0  0  0  0  0  0
    1.7502   -3.9084   -1.3572 C   0  0  0  0  0  0  0  0  0  0  0  0
    2.1186    0.8992    1.7694 H   0  0  0  0  0  0  0  0  0  0  0  0
    2.3964    1.7693    0.2264 H   0  0  0  0  0  0  0  0  0  0  0  0
    3.7854    1.0766    1.1324 H   0  0  0  0  0  0  0  0  0  0  0  0
    4.2376    1.3062   -1.1698 H   0  0  0  0  0  0  0  0  0  0  0  0
    5.7664    1.8155   -3.1345 H   0  0  0  0  0  0  0  0  0  0  0  0
    7.1592    2.3182   -4.8954 H   0  0  0  0  0  0  0  0  0  0  0  0
    7.5442    0.2176   -7.1052 H   0  0  0  0  0  0  0  0  0  0  0  0
    8.4361    3.7341   -5.7826 H   0  0  0  0  0  0  0  0  0  0  0  0
    9.9420    5.2477   -6.9401 H   0  0  0  0  0  0  0  0  0  0  0  0
   11.6445    4.2899  -10.2927 H   0  0  0  0  0  0  0  0  0  0  0  0
   12.8132    8.1604   -9.1207 H   0  0  0  0  0  0  0  0  0  0  0  0
   10.5100    2.3069  -10.0663 H   0  0  0  0  0  0  0  0  0  0  0  0
    8.9773    0.7714   -8.8842 H   0  0  0  0  0  0  0  0  0  0  0  0
    3.3410   -3.1520   -3.2250 H   0  0  0  0  0  0  0  0  0  0  0  0
    1.0569   -4.3599   -0.6360 H   0  0  0  0  0  0  0  0  0  0  0  0
    2.6492   -4.5438   -1.4415 H   0  0  0  0  0  0  0  0  0  0  0  0
    1.2582   -3.8490   -2.3438 H   0  0  0  0  0  0  0  0  0  0  0  0
  1  2  1  0
  1 31  1  0
  1 32  1  0
  1 33  1  0
  2  3  1  0
  3  4  2  0
  3 28  1  0
  4  5  1  0
  4 34  1  0
  5  6  1  0
  5 26  2  0
  6  7  2  0
  6 35  1  0
  7  8  1  0
  7 23  1  0
  8  9  2  0
  8 36  1  0
  9 10  1  0
  9 37  1  0
 10 11  2  0
 10 22  1  0
 11 12  1  0
 11 38  1  0
 12 13  2  0
 12 39  1  0
 13 14  1  0
 13 21  1  0
 14 15  2  0
 14 40  1  0
 15 16  1  0
 15 18  1  0
 16 17  3  0
 18 19  2  0
 18 20  1  0
 20 41  1  0
 21 22  2  0
 21 42  1  0
 22 43  1  0
 23 24  2  0
 23 25  1  0
 25 26  1  0
 26 27  1  0
 27 28  2  0
 27 44  1  0
 28 29  1  0
 29 30  1  0
 30 45  1  0
 30 46  1  0
 30 47  1  0
M  END

