
     RDKit          3D

 36 37  0  0  0  0  0  0  0  0999 V2000
    0.9226   -0.1343   -0.1991 C   0  0  0  0  0  0  0  0  0  0  0  0
    2.4171   -0.0980   -0.0149 C   0  0  0  0  0  0  0  0  0  0  0  0
    3.1359    1.0891   -0.1770 C   0  0  0  0  0  0  0  0  0  0  0  0
    4.5284    1.1459   -0.0117 C   0  0  0  0  0  0  0  0  0  0  0  0
    5.1953    2.4861   -0.2029 C   0  0  0  0  0  0  0  0  0  0  0  0
    4.5079    3.4738   -0.3946 O   0  0  0  0  0  0  0  0  0  0  0  0
    6.7230    2.5723   -0.1661 C   0  0  1  0  0  0  0  0  0  0  0  0
    7.3432    2.0337   -1.4854 C   0  0  0  0  0  0  0  0  0  0  0  0
    7.1822    3.0107   -2.6566 C   0  0  0  0  0  0  0  0  0  0  0  0
    7.7731    4.3855   -2.3212 C   0  0  0  0  0  0  0  0  0  0  0  0
    7.1391    4.9668   -1.0520 C   0  0  0  0  0  0  0  0  0  0  0  0
    7.2365    3.9964    0.1352 C   0  0  0  0  0  0  0  0  0  0  0  0
    5.2131   -0.0297    0.3309 C   0  0  0  0  0  0  0  0  0  0  0  0
    4.5444   -1.2484    0.5084 C   0  0  0  0  0  0  0  0  0  0  0  0
    5.2969   -2.4997    0.8793 C   0  0  0  0  0  0  0  0  0  0  0  0
    3.1495   -1.2516    0.3277 C   0  0  0  0  0  0  0  0  0  0  0  0
    2.2815   -2.7630    0.5410 Cl  0  0  0  0  0  0  0  0  0  0  0  0
    0.5374    0.8613   -0.4594 H   0  0  0  0  0  0  0  0  0  0  0  0
    0.4154   -0.4762    0.7177 H   0  0  0  0  0  0  0  0  0  0  0  0
    0.6352   -0.8392   -0.9963 H   0  0  0  0  0  0  0  0  0  0  0  0
    2.6160    2.0130   -0.4378 H   0  0  0  0  0  0  0  0  0  0  0  0
    7.0593    1.9126    0.6506 H   0  0  0  0  0  0  0  0  0  0  0  0
    6.9132    1.0517   -1.7409 H   0  0  0  0  0  0  0  0  0  0  0  0
    8.4200    1.8639   -1.3045 H   0  0  0  0  0  0  0  0  0  0  0  0
    6.1115    3.1226   -2.9047 H   0  0  0  0  0  0  0  0  0  0  0  0
    7.6663    2.5899   -3.5542 H   0  0  0  0  0  0  0  0  0  0  0  0
    7.6353    5.0782   -3.1684 H   0  0  0  0  0  0  0  0  0  0  0  0
    8.8659    4.2827   -2.1789 H   0  0  0  0  0  0  0  0  0  0  0  0
    6.0786    5.1913   -1.2414 H   0  0  0  0  0  0  0  0  0  0  0  0
    7.6272    5.9197   -0.7850 H   0  0  0  0  0  0  0  0  0  0  0  0
    6.6961    4.4080    1.0027 H   0  0  0  0  0  0  0  0  0  0  0  0
    8.2955    3.9055    0.4382 H   0  0  0  0  0  0  0  0  0  0  0  0
    6.2948   -0.0194    0.4735 H   0  0  0  0  0  0  0  0  0  0  0  0
    6.3736   -2.2981    0.9723 H   0  0  0  0  0  0  0  0  0  0  0  0
    5.1553   -3.2899    0.1244 H   0  0  0  0  0  0  0  0  0  0  0  0
    4.9375   -2.9140    1.8353 H   0  0  0  0  0  0  0  0  0  0  0  0
  1  2  1  0
  1 18  1  0
  1 19  1  0
  1 20  1  0
  2  3  2  0
  2 16  1  0
  3  4  1  0
  3 21  1  0
  4  5  1  0
  4 13  2  0
  5  6  2  0
  5  7  1  0
  7  8  1  0
  7 12  1  0
  7 22  1  1
  8  9  1  0
  8 23  1  0
  8 24  1  0
  9 10  1  0
  9 25  1  0
  9 26  1  0
 10 11  1  0
 10 27  1  0
 10 28  1  0
 11 12  1  0
 11 29  1  0
 11 30  1  0
 12 31  1  0
 12 32  1  0
 13 14  1  0
 13 33  1  0
 14 15  1  0
 14 16  2  0
 15 34  1  0
 15 35  1  0
 15 36  1  0
 16 17  1  0
M  END

