
     RDKit          3D

 41 43  0  0  0  0  0  0  0  0999 V2000
    0.9376    0.1084   -0.7450 C   0  0  0  0  0  0  0  0  0  0  0  0
    2.4352    0.0427   -0.6008 C   0  0  0  0  0  0  0  0  0  0  0  0
    3.2308    1.1790   -0.8118 C   0  0  0  0  0  0  0  0  0  0  0  0
    4.6267    1.1767   -0.6924 C   0  0  0  0  0  0  0  0  0  0  0  0
    5.4276    2.4345   -0.9414 C   0  0  1  0  0  0  0  0  0  0  0  0
    6.0639    2.3900   -2.6872 Cl  0  0  0  0  0  0  0  0  0  0  0  0
    4.7140    3.7638   -0.6957 C   0  0  0  0  0  0  0  0  0  0  0  0
    5.6331    4.9875   -0.7470 C   0  0  2  0  0  0  0  0  0  0  0  0
    6.6793    5.0978    0.4153 C   0  0  0  0  0  0  0  0  0  0  0  0
    6.5002    6.5478    0.9231 C   0  0  2  0  0  0  0  0  0  0  0  0
    5.1754    6.6295    1.7161 C   0  0  0  0  0  0  0  0  0  0  0  0
    4.0889    6.5125    0.5999 C   0  0  0  0  0  0  0  0  0  0  0  0
    4.9265    6.3696   -0.6922 C   0  0  1  0  0  0  0  0  0  0  0  0
    6.1237    7.2908   -0.3770 C   0  0  0  0  0  0  0  0  0  0  0  0
    5.2847   -0.0289   -0.3511 C   0  0  0  0  0  0  0  0  0  0  0  0
    6.7874   -0.1174   -0.2316 C   0  0  0  0  0  0  0  0  0  0  0  0
    4.5056   -1.1717   -0.1336 C   0  0  0  0  0  0  0  0  0  0  0  0
    3.1156   -1.1342   -0.2536 C   0  0  0  0  0  0  0  0  0  0  0  0
    2.1424   -2.7509    0.0671 Br  0  0  0  0  0  0  0  0  0  0  0  0
    0.6136    1.1207   -1.0261 H   0  0  0  0  0  0  0  0  0  0  0  0
    0.4316   -0.1689    0.1942 H   0  0  0  0  0  0  0  0  0  0  0  0
    0.5784   -0.5954   -1.5135 H   0  0  0  0  0  0  0  0  0  0  0  0
    2.7204    2.1037   -1.0870 H   0  0  0  0  0  0  0  0  0  0  0  0
    6.3483    2.4049   -0.3467 H   0  0  0  0  0  0  0  0  0  0  0  0
    4.2351    3.6876    0.2960 H   0  0  0  0  0  0  0  0  0  0  0  0
    3.9031    3.8846   -1.4326 H   0  0  0  0  0  0  0  0  0  0  0  0
    6.1725    4.9403   -1.7060 H   0  0  0  0  0  0  0  0  0  0  0  0
    7.7042    4.9258    0.0502 H   0  0  0  0  0  0  0  0  0  0  0  0
    6.4964    4.3648    1.2195 H   0  0  0  0  0  0  0  0  0  0  0  0
    7.3705    6.9369    1.4722 H   0  0  0  0  0  0  0  0  0  0  0  0
    5.0973    7.5904    2.2493 H   0  0  0  0  0  0  0  0  0  0  0  0
    5.0988    5.8336    2.4740 H   0  0  0  0  0  0  0  0  0  0  0  0
    3.4708    7.4228    0.5502 H   0  0  0  0  0  0  0  0  0  0  0  0
    3.3961    5.6729    0.7600 H   0  0  0  0  0  0  0  0  0  0  0  0
    4.3663    6.6008   -1.6111 H   0  0  0  0  0  0  0  0  0  0  0  0
    5.8362    8.3419   -0.2113 H   0  0  0  0  0  0  0  0  0  0  0  0
    6.9124    7.2574   -1.1458 H   0  0  0  0  0  0  0  0  0  0  0  0
    7.1700    0.4999    0.5995 H   0  0  0  0  0  0  0  0  0  0  0  0
    7.2807    0.2355   -1.1509 H   0  0  0  0  0  0  0  0  0  0  0  0
    7.1075   -1.1524   -0.0458 H   0  0  0  0  0  0  0  0  0  0  0  0
    4.9918   -2.1122    0.1324 H   0  0  0  0  0  0  0  0  0  0  0  0
  1  2  1  0
  1 20  1  0
  1 21  1  0
  1 22  1  0
  2  3  2  0
  2 18  1  0
  3  4  1  0
  3 23  1  0
  4  5  1  0
  4 15  2  0
  5  6  1  0
  5  7  1  0
  5 24  1  1
  7  8  1  0
  7 25  1  0
  7 26  1  0
  8  9  1  0
  8 13  1  0
  8 27  1  6
  9 10  1  0
  9 28  1  0
  9 29  1  0
 10 11  1  0
 10 14  1  0
 10 30  1  1
 11 12  1  0
 11 31  1  0
 11 32  1  0
 12 13  1  0
 12 33  1  0
 12 34  1  0
 13 14  1  0
 13 35  1  6
 14 36  1  0
 14 37  1  0
 15 16  1  0
 15 17  1  0
 16 38  1  0
 16 39  1  0
 16 40  1  0
 17 18  2  0
 17 41  1  0
 18 19  1  0
M  END

