
     RDKit          3D

 38 38  0  0  0  0  0  0  0  0999 V2000
    1.2502   -0.3413    0.1045 C   0  0  0  0  0  0  0  0  0  0  0  0
    2.7400   -0.0689    0.3082 C   0  0  0  0  0  0  0  0  0  0  0  0
    3.1183    1.4209    0.5776 C   0  0  1  0  0  0  0  0  0  0  0  0
    2.7272    2.1883   -0.6171 C   0  0  0  0  0  0  0  0  0  0  0  0
    2.3825    2.7584   -1.5667 N   0  0  0  0  0  0  0  0  0  0  0  0
    2.3710    2.0029    1.8223 C   0  0  0  0  0  0  0  0  0  0  0  0
    2.6516    1.2725    3.1363 C   0  0  0  0  0  0  0  0  0  0  0  0
    4.6738    1.4803    0.8053 C   0  0  0  0  0  0  0  0  0  0  0  0
    5.2615    0.4477    1.0948 O   0  0  0  0  0  0  0  0  0  0  0  0
    5.3415    2.6651    0.6868 N   0  0  0  0  0  0  0  0  0  0  0  0
    4.7917    4.0314    0.6708 C   0  0  0  0  0  0  0  0  0  0  0  0
    5.9991    4.9229    0.3410 C   0  0  2  0  0  0  0  0  0  0  0  0
    6.1909    5.1262   -1.1667 C   0  0  0  0  0  0  0  0  0  0  0  0
    7.1498    4.1679    1.0386 C   0  0  0  0  0  0  0  0  0  0  0  0
    6.8135    2.6665    0.9088 C   0  0  2  0  0  0  0  0  0  0  0  0
    7.5839    1.9380   -0.1971 C   0  0  0  0  0  0  0  0  0  0  0  0
    1.0986   -1.4010   -0.1535 H   0  0  0  0  0  0  0  0  0  0  0  0
    0.8281    0.2614   -0.7156 H   0  0  0  0  0  0  0  0  0  0  0  0
    0.6571   -0.1417    1.0109 H   0  0  0  0  0  0  0  0  0  0  0  0
    3.3043   -0.3979   -0.5777 H   0  0  0  0  0  0  0  0  0  0  0  0
    3.1400   -0.6608    1.1417 H   0  0  0  0  0  0  0  0  0  0  0  0
    1.2913    1.9857    1.6059 H   0  0  0  0  0  0  0  0  0  0  0  0
    2.6306    3.0665    1.9283 H   0  0  0  0  0  0  0  0  0  0  0  0
    2.2923    0.2326    3.1164 H   0  0  0  0  0  0  0  0  0  0  0  0
    2.1369    1.7832    3.9652 H   0  0  0  0  0  0  0  0  0  0  0  0
    3.7263    1.2433    3.3729 H   0  0  0  0  0  0  0  0  0  0  0  0
    4.3903    4.2961    1.6665 H   0  0  0  0  0  0  0  0  0  0  0  0
    3.9830    4.1402   -0.0621 H   0  0  0  0  0  0  0  0  0  0  0  0
    5.8588    5.9122    0.8060 H   0  0  0  0  0  0  0  0  0  0  0  0
    6.2282    4.1697   -1.7099 H   0  0  0  0  0  0  0  0  0  0  0  0
    7.1251    5.6716   -1.3757 H   0  0  0  0  0  0  0  0  0  0  0  0
    5.3584    5.7100   -1.5904 H   0  0  0  0  0  0  0  0  0  0  0  0
    7.1817    4.4525    2.1026 H   0  0  0  0  0  0  0  0  0  0  0  0
    8.1349    4.4064    0.6100 H   0  0  0  0  0  0  0  0  0  0  0  0
    7.0132    2.1353    1.8538 H   0  0  0  0  0  0  0  0  0  0  0  0
    7.4371    2.4119   -1.1792 H   0  0  0  0  0  0  0  0  0  0  0  0
    7.2661    0.8888   -0.2572 H   0  0  0  0  0  0  0  0  0  0  0  0
    8.6614    1.9562    0.0327 H   0  0  0  0  0  0  0  0  0  0  0  0
  1  2  1  0
  1 17  1  0
  1 18  1  0
  1 19  1  0
  2  3  1  0
  2 20  1  0
  2 21  1  0
  3  4  1  6
  3  6  1  0
  3  8  1  0
  4  5  3  0
  6  7  1  0
  6 22  1  0
  6 23  1  0
  7 24  1  0
  7 25  1  0
  7 26  1  0
  8  9  2  0
  8 10  1  0
 10 11  1  0
 10 15  1  0
 11 12  1  0
 11 27  1  0
 11 28  1  0
 12 13  1  0
 12 14  1  0
 12 29  1  1
 13 30  1  0
 13 31  1  0
 13 32  1  0
 14 15  1  0
 14 33  1  0
 14 34  1  0
 15 16  1  0
 15 35  1  1
 16 36  1  0
 16 37  1  0
 16 38  1  0
M  END

