
     RDKit          3D

 49 51  0  0  0  0  0  0  0  0999 V2000
    3.0988    1.1604   -1.5929 C   0  0  0  0  0  0  0  0  0  0  0  0
    3.4500   -0.1816   -1.3835 O   0  0  0  0  0  0  0  0  0  0  0  0
    3.7845   -0.4896   -0.0605 C   0  0  0  0  0  0  0  0  0  0  0  0
    4.1356   -1.9776   -0.0147 C   0  0  0  0  0  0  0  0  0  0  0  0
    4.5502   -2.4344    1.3195 N   0  0  0  0  0  0  0  0  0  0  0  0
    3.6882   -2.6020    2.3666 C   0  0  0  0  0  0  0  0  0  0  0  0
    4.0380   -2.9977    3.4746 O   0  0  0  0  0  0  0  0  0  0  0  0
    2.1830   -2.4027    2.0943 C   0  0  0  0  0  0  0  0  0  0  0  0
    1.6405   -3.0437    1.2076 O   0  0  0  0  0  0  0  0  0  0  0  0
    1.5047   -1.5732    2.9281 N   0  0  0  0  0  0  0  0  0  0  0  0
    1.9696   -0.8189    4.0906 C   0  0  0  0  0  0  0  0  0  0  0  0
    1.3724   -1.3101    5.3975 C   0  0  0  0  0  0  0  0  0  0  0  0
    1.7661   -2.5479    5.9274 C   0  0  0  0  0  0  0  0  0  0  0  0
    1.2205   -3.0437    7.1256 C   0  0  0  0  0  0  0  0  0  0  0  0
    0.2732   -2.2584    7.7609 C   0  0  0  0  0  0  0  0  0  0  0  0
   -0.1234   -1.0248    7.2413 C   0  0  0  0  0  0  0  0  0  0  0  0
    0.4058   -0.5238    6.0648 C   0  0  0  0  0  0  0  0  0  0  0  0
   -1.0406   -0.4533    8.0803 O   0  0  0  0  0  0  0  0  0  0  0  0
   -1.3469   -1.4416    9.0606 C   0  0  0  0  0  0  0  0  0  0  0  0
   -0.3865   -2.4864    8.9369 O   0  0  0  0  0  0  0  0  0  0  0  0
    5.9352   -2.8657    1.5246 C   0  0  1  0  0  0  0  0  0  0  0  0
    6.2266   -4.2253    0.8143 C   0  0  0  0  0  0  0  0  0  0  0  0
    7.7310   -4.3310    0.5950 C   0  0  0  0  0  0  0  0  0  0  0  0
    8.1588   -2.6694   -0.0255 S   0  0  2  0  0  0  0  0  0  0  0  0
    7.6089   -2.5576   -1.3879 O   0  0  0  0  0  0  0  0  0  0  0  0
    9.5505   -2.3112    0.2606 O   0  0  0  0  0  0  0  0  0  0  0  0
    6.9936   -1.8142    1.1046 C   0  0  0  0  0  0  0  0  0  0  0  0
    2.8579    1.2815   -2.6588 H   0  0  0  0  0  0  0  0  0  0  0  0
    3.9286    1.8508   -1.3380 H   0  0  0  0  0  0  0  0  0  0  0  0
    2.2128    1.4556   -0.9946 H   0  0  0  0  0  0  0  0  0  0  0  0
    2.9405   -0.2666    0.6256 H   0  0  0  0  0  0  0  0  0  0  0  0
    4.6451    0.1216    0.2898 H   0  0  0  0  0  0  0  0  0  0  0  0
    4.9677   -2.1550   -0.7108 H   0  0  0  0  0  0  0  0  0  0  0  0
    3.2739   -2.5608   -0.3623 H   0  0  0  0  0  0  0  0  0  0  0  0
    0.4990   -1.5983    2.7713 H   0  0  0  0  0  0  0  0  0  0  0  0
    1.7124    0.2440    3.9473 H   0  0  0  0  0  0  0  0  0  0  0  0
    3.0635   -0.8894    4.1265 H   0  0  0  0  0  0  0  0  0  0  0  0
    2.5181   -3.1305    5.3903 H   0  0  0  0  0  0  0  0  0  0  0  0
    1.5312   -4.0026    7.5433 H   0  0  0  0  0  0  0  0  0  0  0  0
    0.0882    0.4468    5.6778 H   0  0  0  0  0  0  0  0  0  0  0  0
   -2.3632   -1.8451    8.8786 H   0  0  0  0  0  0  0  0  0  0  0  0
   -1.2871   -0.9979   10.0678 H   0  0  0  0  0  0  0  0  0  0  0  0
    6.0274   -3.0274    2.6050 H   0  0  0  0  0  0  0  0  0  0  0  0
    5.7198   -4.2589   -0.1615 H   0  0  0  0  0  0  0  0  0  0  0  0
    5.8362   -5.0544    1.4224 H   0  0  0  0  0  0  0  0  0  0  0  0
    8.0404   -5.0568   -0.1692 H   0  0  0  0  0  0  0  0  0  0  0  0
    8.3062   -4.4875    1.5203 H   0  0  0  0  0  0  0  0  0  0  0  0
    6.5977   -0.9665    0.5330 H   0  0  0  0  0  0  0  0  0  0  0  0
    7.5831   -1.4400    1.9519 H   0  0  0  0  0  0  0  0  0  0  0  0
  1  2  1  0
  1 28  1  0
  1 29  1  0
  1 30  1  0
  2  3  1  0
  3  4  1  0
  3 31  1  0
  3 32  1  0
  4  5  1  0
  4 33  1  0
  4 34  1  0
  5  6  1  0
  5 21  1  0
  6  7  2  0
  6  8  1  0
  8  9  2  0
  8 10  1  0
 10 11  1  0
 10 35  1  0
 11 12  1  0
 11 36  1  0
 11 37  1  0
 12 13  2  0
 12 17  1  0
 13 14  1  0
 13 38  1  0
 14 15  2  0
 14 39  1  0
 15 16  1  0
 15 20  1  0
 16 17  2  0
 16 18  1  0
 17 40  1  0
 18 19  1  0
 19 20  1  0
 19 41  1  0
 19 42  1  0
 21 22  1  0
 21 27  1  0
 21 43  1  1
 22 23  1  0
 22 44  1  0
 22 45  1  0
 24 23  1  1
 23 46  1  0
 23 47  1  0
 24 25  2  0
 24 26  2  0
 24 27  1  0
 27 48  1  0
 27 49  1  0
M  END

