
     RDKit          3D

 45 47  0  0  0  0  0  0  0  0999 V2000
    0.0780   -3.2528    2.1166 C   0  0  0  0  0  0  0  0  0  0  0  0
   -0.7767   -3.5305    0.8707 C   0  0  0  0  0  0  0  0  0  0  0  0
   -1.5594   -2.3289    0.3808 C   0  0  0  0  0  0  0  0  0  0  0  0
   -2.9630   -2.3517    0.4454 C   0  0  0  0  0  0  0  0  0  0  0  0
   -3.7301   -1.2490    0.0686 C   0  0  0  0  0  0  0  0  0  0  0  0
   -5.6344   -1.3421    0.1839 Br  0  0  0  0  0  0  0  0  0  0  0  0
   -3.1197   -0.0782   -0.3832 C   0  0  0  0  0  0  0  0  0  0  0  0
   -1.7286   -0.0422   -0.4665 C   0  0  0  0  0  0  0  0  0  0  0  0
   -0.9499   -1.1480   -0.0998 C   0  0  0  0  0  0  0  0  0  0  0  0
    0.4142   -0.9597   -0.1680 O   0  0  0  0  0  0  0  0  0  0  0  0
    1.2490   -1.8067   -0.9401 C   0  0  0  0  0  0  0  0  0  0  0  0
    0.6428   -2.2773   -2.2633 C   0  0  0  0  0  0  0  0  0  0  0  0
    0.3545   -3.4426   -2.4522 O   0  0  0  0  0  0  0  0  0  0  0  0
    0.4068   -1.3526   -3.2771 N   0  0  0  0  0  0  0  0  0  0  0  0
    0.7668   -0.0193   -3.4016 C   0  0  0  0  0  0  0  0  0  0  0  0
    1.4198    0.6814   -2.5333 N   0  0  0  0  0  0  0  0  0  0  0  0
    1.6346    1.9770   -2.9645 C   0  0  0  0  0  0  0  0  0  0  0  0
    2.3414    2.9213   -2.0763 C   0  0  0  0  0  0  0  0  0  0  0  0
    2.8686    4.1353   -2.5475 C   0  0  0  0  0  0  0  0  0  0  0  0
    3.5174    5.0170   -1.6826 C   0  0  0  0  0  0  0  0  0  0  0  0
    3.6685    4.7221   -0.3188 C   0  0  0  0  0  0  0  0  0  0  0  0
    4.3623    5.6752    0.6228 C   0  0  0  0  0  0  0  0  0  0  0  0
    3.1452    3.5038    0.1463 C   0  0  0  0  0  0  0  0  0  0  0  0
    2.4955    2.6175   -0.7104 C   0  0  0  0  0  0  0  0  0  0  0  0
    1.1212    2.2515   -4.2111 C   0  0  0  0  0  0  0  0  0  0  0  0
    0.3385    0.8509   -4.8758 S   0  0  0  0  0  0  0  0  0  0  0  0
    0.6278   -4.1578    2.4208 H   0  0  0  0  0  0  0  0  0  0  0  0
   -0.5515   -2.9386    2.9643 H   0  0  0  0  0  0  0  0  0  0  0  0
    0.8104   -2.4512    1.9367 H   0  0  0  0  0  0  0  0  0  0  0  0
   -1.4935   -4.3357    1.0970 H   0  0  0  0  0  0  0  0  0  0  0  0
   -0.1489   -3.9208    0.0532 H   0  0  0  0  0  0  0  0  0  0  0  0
   -3.4599   -3.2527    0.8108 H   0  0  0  0  0  0  0  0  0  0  0  0
   -3.7174    0.7880   -0.6709 H   0  0  0  0  0  0  0  0  0  0  0  0
   -1.2119    0.8531   -0.8168 H   0  0  0  0  0  0  0  0  0  0  0  0
    1.5207   -2.7232   -0.3952 H   0  0  0  0  0  0  0  0  0  0  0  0
    2.1535   -1.2156   -1.1381 H   0  0  0  0  0  0  0  0  0  0  0  0
   -0.0462   -1.7829   -4.0795 H   0  0  0  0  0  0  0  0  0  0  0  0
    2.7906    4.3926   -3.6066 H   0  0  0  0  0  0  0  0  0  0  0  0
    3.9231    5.9526   -2.0782 H   0  0  0  0  0  0  0  0  0  0  0  0
    4.7956    6.5324    0.0866 H   0  0  0  0  0  0  0  0  0  0  0  0
    5.1752    5.1746    1.1745 H   0  0  0  0  0  0  0  0  0  0  0  0
    3.6613    6.0720    1.3770 H   0  0  0  0  0  0  0  0  0  0  0  0
    3.2473    3.2442    1.2043 H   0  0  0  0  0  0  0  0  0  0  0  0
    2.0871    1.6793   -0.3303 H   0  0  0  0  0  0  0  0  0  0  0  0
    1.1278    3.1895   -4.7607 H   0  0  0  0  0  0  0  0  0  0  0  0
  1  2  1  0
  1 27  1  0
  1 28  1  0
  1 29  1  0
  2  3  1  0
  2 30  1  0
  2 31  1  0
  3  4  2  0
  3  9  1  0
  4  5  1  0
  4 32  1  0
  5  6  1  0
  5  7  2  0
  7  8  1  0
  7 33  1  0
  8  9  2  0
  8 34  1  0
  9 10  1  0
 10 11  1  0
 11 12  1  0
 11 35  1  0
 11 36  1  0
 12 13  2  0
 12 14  1  0
 14 15  1  0
 14 37  1  0
 15 16  2  0
 15 26  1  0
 16 17  1  0
 17 18  1  0
 17 25  2  0
 18 19  2  0
 18 24  1  0
 19 20  1  0
 19 38  1  0
 20 21  2  0
 20 39  1  0
 21 22  1  0
 21 23  1  0
 22 40  1  0
 22 41  1  0
 22 42  1  0
 23 24  2  0
 23 43  1  0
 24 44  1  0
 25 26  1  0
 25 45  1  0
M  END

