
     RDKit          3D

 42 44  0  0  0  0  0  0  0  0999 V2000
    0.2718   -1.3993    0.8510 C   0  0  0  0  0  0  0  0  0  0  0  0
    1.4390   -0.6755    0.5289 O   0  0  0  0  0  0  0  0  0  0  0  0
    2.3422   -0.4023    1.5018 C   0  0  0  0  0  0  0  0  0  0  0  0
    3.4952    0.2952    1.1025 C   0  0  0  0  0  0  0  0  0  0  0  0
    4.4816    0.6089    2.0321 C   0  0  0  0  0  0  0  0  0  0  0  0
    4.3539    0.2491    3.3837 C   0  0  0  0  0  0  0  0  0  0  0  0
    5.4135    0.6625    4.3907 C   0  0  1  0  0  0  0  0  0  0  0  0
    5.0004    1.8977    5.2340 C   0  0  0  0  0  0  0  0  0  0  0  0
    5.7201    1.7061    6.5713 C   0  0  0  0  0  0  0  0  0  0  0  0
    5.6068    0.1978    6.7930 C   0  0  0  0  0  0  0  0  0  0  0  0
    5.7166   -0.3475    5.4332 N   0  0  0  0  0  0  0  0  0  0  0  0
    5.9285   -1.6918    5.2856 C   0  0  0  0  0  0  0  0  0  0  0  0
    5.8851   -2.4543    6.2417 O   0  0  0  0  0  0  0  0  0  0  0  0
    6.2665   -2.2346    3.9171 C   0  0  0  0  0  0  0  0  0  0  0  0
    7.2660   -1.6754    3.1075 C   0  0  0  0  0  0  0  0  0  0  0  0
    7.6340   -2.2830    1.9019 C   0  0  0  0  0  0  0  0  0  0  0  0
    6.9979   -3.4494    1.4795 C   0  0  0  0  0  0  0  0  0  0  0  0
    6.0092   -3.9979    2.2995 C   0  0  0  0  0  0  0  0  0  0  0  0
    5.3276   -5.2376    1.8631 N   0  0  0  0  0  0  0  0  0  0  0  0
    5.6912   -5.7394    0.8114 O   0  0  0  0  0  0  0  0  0  0  0  0
    4.4431   -5.6780    2.5782 O   0  0  0  0  0  0  0  0  0  0  0  0
    5.6478   -3.4251    3.5153 C   0  0  0  0  0  0  0  0  0  0  0  0
    3.1980   -0.4395    3.7704 C   0  0  0  0  0  0  0  0  0  0  0  0
    2.1994   -0.7710    2.8492 C   0  0  0  0  0  0  0  0  0  0  0  0
   -0.2958   -1.5086   -0.0828 H   0  0  0  0  0  0  0  0  0  0  0  0
   -0.3538   -0.8646    1.5884 H   0  0  0  0  0  0  0  0  0  0  0  0
    0.5072   -2.4040    1.2459 H   0  0  0  0  0  0  0  0  0  0  0  0
    3.5965    0.5705    0.0508 H   0  0  0  0  0  0  0  0  0  0  0  0
    5.3770    1.1413    1.6977 H   0  0  0  0  0  0  0  0  0  0  0  0
    6.3329    0.9144    3.8336 H   0  0  0  0  0  0  0  0  0  0  0  0
    3.9094    1.8808    5.3869 H   0  0  0  0  0  0  0  0  0  0  0  0
    5.2454    2.8381    4.7189 H   0  0  0  0  0  0  0  0  0  0  0  0
    5.2754    2.2906    7.3902 H   0  0  0  0  0  0  0  0  0  0  0  0
    6.7804    1.9979    6.4871 H   0  0  0  0  0  0  0  0  0  0  0  0
    4.6384   -0.0781    7.2500 H   0  0  0  0  0  0  0  0  0  0  0  0
    6.3917   -0.2289    7.4336 H   0  0  0  0  0  0  0  0  0  0  0  0
    7.7819   -0.7691    3.4311 H   0  0  0  0  0  0  0  0  0  0  0  0
    8.4237   -1.8435    1.2883 H   0  0  0  0  0  0  0  0  0  0  0  0
    7.2508   -3.9437    0.5422 H   0  0  0  0  0  0  0  0  0  0  0  0
    4.8966   -3.9036    4.1420 H   0  0  0  0  0  0  0  0  0  0  0  0
    3.0683   -0.7405    4.8136 H   0  0  0  0  0  0  0  0  0  0  0  0
    1.3208   -1.3177    3.1919 H   0  0  0  0  0  0  0  0  0  0  0  0
  1  2  1  0
  1 25  1  0
  1 26  1  0
  1 27  1  0
  2  3  1  0
  3  4  2  0
  3 24  1  0
  4  5  1  0
  4 28  1  0
  5  6  2  0
  5 29  1  0
  6  7  1  0
  6 23  1  0
  7  8  1  0
  7 11  1  0
  7 30  1  6
  8  9  1  0
  8 31  1  0
  8 32  1  0
  9 10  1  0
  9 33  1  0
  9 34  1  0
 10 11  1  0
 10 35  1  0
 10 36  1  0
 11 12  1  0
 12 13  2  0
 12 14  1  0
 14 15  2  0
 14 22  1  0
 15 16  1  0
 15 37  1  0
 16 17  2  0
 16 38  1  0
 17 18  1  0
 17 39  1  0
 18 19  1  0
 18 22  2  0
 19 20  2  0
 19 21  1  0
 22 40  1  0
 23 24  2  0
 23 41  1  0
 24 42  1  0
M  CHG  2  19   1  21  -1
M  END

