
     RDKit          3D

 55 58  0  0  0  0  0  0  0  0999 V2000
    4.2974    2.5022    2.4427 C   0  0  0  0  0  0  0  0  0  0  0  0
    2.8908    2.0759    1.9972 C   0  0  2  0  0  0  0  0  0  0  0  0
    2.2540    1.1348    3.0302 C   0  0  0  0  0  0  0  0  0  0  0  0
    2.8223    1.4802    0.5634 C   0  0  2  0  0  0  0  0  0  0  0  0
    1.7659    1.2232    0.3794 H   0  0  0  0  0  0  0  0  0  0  0  0
    3.6504    0.1930    0.3669 C   0  0  0  0  0  0  0  0  0  0  0  0
    3.4991   -0.3946   -1.0412 C   0  0  0  0  0  0  0  0  0  0  0  0
    3.8811    0.6152   -2.1344 C   0  0  1  0  0  0  0  0  0  0  0  0
    4.9518    0.8636   -1.9962 H   0  0  0  0  0  0  0  0  0  0  0  0
    3.7092    0.0406   -3.5426 C   0  0  0  0  0  0  0  0  0  0  0  0
    3.0708    1.9089   -1.9494 C   0  0  0  0  0  0  0  0  0  0  0  0
    3.2351    2.4761   -0.5368 C   0  0  1  0  0  0  0  0  0  0  0  0
    4.2947    2.7383   -0.3921 H   0  0  0  0  0  0  0  0  0  0  0  0
    2.5922    3.7773   -0.4126 O   0  0  0  0  0  0  0  0  0  0  0  0
    1.2697    3.9228   -0.5200 C   0  0  0  0  0  0  0  0  0  0  0  0
    0.4654    3.0504   -0.7440 O   0  0  0  0  0  0  0  0  0  0  0  0
    0.8800    5.3813   -0.2651 C   0  0  1  0  0  0  0  0  0  0  0  0
    1.6961    6.0760   -0.5044 H   0  0  0  0  0  0  0  0  0  0  0  0
   -0.2663    5.6916   -1.0168 O   0  0  0  0  0  0  0  0  0  0  0  0
   -1.4421    5.8575   -0.2913 C   0  0  2  0  0  0  0  0  0  0  0  0
   -1.8292    7.2902   -0.2323 N   0  0  0  0  0  0  0  0  0  0  0  0
   -0.9357    8.3694   -0.2818 C   0  0  0  0  0  0  0  0  0  0  0  0
    0.2626    8.3334   -0.3212 O   0  0  0  0  0  0  0  0  0  0  0  0
   -1.8911    9.9249   -0.2852 S   0  0  0  0  0  0  0  0  0  0  0  0
   -3.4005    9.0294   -0.2138 C   0  0  0  0  0  0  0  0  0  0  0  0
   -4.7343    9.4231   -0.1776 C   0  0  0  0  0  0  0  0  0  0  0  0
   -5.7273    8.5332   -0.1306 N   0  0  0  0  0  0  0  0  0  0  0  0
   -5.3919    7.2311   -0.1169 C   0  0  0  0  0  0  0  0  0  0  0  0
   -6.4066    6.3312   -0.0592 N   0  0  0  0  0  0  0  0  0  0  0  0
   -4.1354    6.7359   -0.1424 N   0  0  0  0  0  0  0  0  0  0  0  0
   -3.1704    7.6386   -0.1947 C   0  0  0  0  0  0  0  0  0  0  0  0
   -1.2708    5.2161    1.0914 C   0  0  0  0  0  0  0  0  0  0  0  0
    0.4659    5.5706    1.5346 S   0  0  0  0  0  0  0  0  0  0  0  0
    4.2560    2.9730    3.4381 H   0  0  0  0  0  0  0  0  0  0  0  0
    4.7474    3.2381    1.7578 H   0  0  0  0  0  0  0  0  0  0  0  0
    4.9858    1.6441    2.5185 H   0  0  0  0  0  0  0  0  0  0  0  0
    2.2701    2.9876    1.9813 H   0  0  0  0  0  0  0  0  0  0  0  0
    2.8517    0.2210    3.1839 H   0  0  0  0  0  0  0  0  0  0  0  0
    1.2413    0.8257    2.7234 H   0  0  0  0  0  0  0  0  0  0  0  0
    2.1678    1.6340    4.0088 H   0  0  0  0  0  0  0  0  0  0  0  0
    3.3493   -0.5564    1.1154 H   0  0  0  0  0  0  0  0  0  0  0  0
    4.7185    0.4043    0.5544 H   0  0  0  0  0  0  0  0  0  0  0  0
    2.4509   -0.7106   -1.1975 H   0  0  0  0  0  0  0  0  0  0  0  0
    4.1163   -1.3043   -1.1381 H   0  0  0  0  0  0  0  0  0  0  0  0
    2.6555   -0.2235   -3.7349 H   0  0  0  0  0  0  0  0  0  0  0  0
    4.3125   -0.8717   -3.6785 H   0  0  0  0  0  0  0  0  0  0  0  0
    4.0167    0.7653   -4.3139 H   0  0  0  0  0  0  0  0  0  0  0  0
    2.0050    1.7054   -2.1374 H   0  0  0  0  0  0  0  0  0  0  0  0
    3.3925    2.6709   -2.6793 H   0  0  0  0  0  0  0  0  0  0  0  0
   -2.2677    5.3673   -0.8268 H   0  0  0  0  0  0  0  0  0  0  0  0
   -5.0153   10.4823   -0.1890 H   0  0  0  0  0  0  0  0  0  0  0  0
   -7.3578    6.6667   -0.1110 H   0  0  0  0  0  0  0  0  0  0  0  0
   -6.2035    5.3445   -0.1286 H   0  0  0  0  0  0  0  0  0  0  0  0
   -1.4423    4.1326    1.0164 H   0  0  0  0  0  0  0  0  0  0  0  0
   -1.9484    5.6494    1.8379 H   0  0  0  0  0  0  0  0  0  0  0  0
  1  2  1  0
  1 34  1  0
  1 35  1  0
  1 36  1  0
  2  3  1  0
  2  4  1  0
  2 37  1  6
  3 38  1  0
  3 39  1  0
  3 40  1  0
  4  5  1  6
  4  6  1  0
  4 12  1  0
  6  7  1  0
  6 41  1  0
  6 42  1  0
  7  8  1  0
  7 43  1  0
  7 44  1  0
  8  9  1  1
  8 10  1  0
  8 11  1  0
 10 45  1  0
 10 46  1  0
 10 47  1  0
 11 12  1  0
 11 48  1  0
 11 49  1  0
 12 13  1  1
 12 14  1  0
 14 15  1  0
 15 16  2  0
 15 17  1  0
 17 18  1  6
 17 19  1  0
 17 33  1  0
 19 20  1  0
 20 21  1  0
 20 32  1  0
 20 50  1  6
 21 22  1  0
 21 31  1  0
 22 23  2  0
 22 24  1  0
 24 25  1  0
 25 26  1  0
 25 31  2  0
 26 27  2  0
 26 51  1  0
 27 28  1  0
 28 29  1  0
 28 30  2  0
 29 52  1  0
 29 53  1  0
 30 31  1  0
 32 33  1  0
 32 54  1  0
 32 55  1  0
M  END

