
     RDKit          3D

 26 26  0  0  0  0  0  0  0  0999 V2000
    1.1562    0.2192   -0.6553 O   0  0  0  0  0  0  0  0  0  0  0  0
    2.2978    0.1367   -0.2522 C   0  0  0  0  0  0  0  0  0  0  0  0
    2.9482   -1.2211   -0.0085 C   0  0  0  0  0  0  0  0  0  0  0  0
    1.9479   -2.3768    0.0005 C   0  0  0  0  0  0  0  0  0  0  0  0
    1.3252   -2.6088    1.3604 C   0  0  1  0  0  0  0  0  0  0  0  0
    2.2536   -2.9780    2.2690 F   0  0  0  0  0  0  0  0  0  0  0  0
    0.7265   -1.5056    1.8442 F   0  0  0  0  0  0  0  0  0  0  0  0
    0.4041   -3.5840    1.3137 F   0  0  0  0  0  0  0  0  0  0  0  0
    3.0855    1.4022   -0.0121 C   0  0  0  0  0  0  0  0  0  0  0  0
    2.3822    2.6175   -0.1170 C   0  0  0  0  0  0  0  0  0  0  0  0
    3.0099    3.8412    0.0874 C   0  0  0  0  0  0  0  0  0  0  0  0
    2.2456    5.1389   -0.0163 C   0  0  1  0  0  0  0  0  0  0  0  0
    0.9614    4.9476   -0.3467 F   0  0  0  0  0  0  0  0  0  0  0  0
    2.2702    5.8135    1.1485 F   0  0  0  0  0  0  0  0  0  0  0  0
    2.7885    5.9504   -0.9437 F   0  0  0  0  0  0  0  0  0  0  0  0
    4.3792    3.8826    0.3982 C   0  0  0  0  0  0  0  0  0  0  0  0
    5.1016    2.6994    0.4991 C   0  0  0  0  0  0  0  0  0  0  0  0
    4.4516    1.4813    0.2941 C   0  0  0  0  0  0  0  0  0  0  0  0
    5.1948    0.3693    0.3888 F   0  0  0  0  0  0  0  0  0  0  0  0
    3.5422   -1.2003    0.9167 H   0  0  0  0  0  0  0  0  0  0  0  0
    3.6904   -1.3657   -0.8125 H   0  0  0  0  0  0  0  0  0  0  0  0
    2.4385   -3.3192   -0.2826 H   0  0  0  0  0  0  0  0  0  0  0  0
    1.1332   -2.1827   -0.7111 H   0  0  0  0  0  0  0  0  0  0  0  0
    1.3217    2.5618   -0.3648 H   0  0  0  0  0  0  0  0  0  0  0  0
    4.8787    4.8405    0.5583 H   0  0  0  0  0  0  0  0  0  0  0  0
    6.1677    2.6937    0.7321 H   0  0  0  0  0  0  0  0  0  0  0  0
  1  2  2  0
  2  3  1  0
  2  9  1  0
  3  4  1  0
  3 20  1  0
  3 21  1  0
  4  5  1  0
  4 22  1  0
  4 23  1  0
  5  6  1  1
  5  7  1  0
  5  8  1  0
  9 10  2  0
  9 18  1  0
 10 11  1  0
 10 24  1  0
 11 12  1  0
 11 16  2  0
 12 13  1  6
 12 14  1  0
 12 15  1  0
 16 17  1  0
 16 25  1  0
 17 18  2  0
 17 26  1  0
 18 19  1  0
M  END

