
     RDKit          3D

 35 36  0  0  0  0  0  0  0  0999 V2000
    7.6485   -5.7527    1.8009 C   0  0  0  0  0  0  0  0  0  0  0  0
    7.4546   -4.2583    1.9577 C   0  0  0  0  0  0  0  0  0  0  0  0
    6.2182   -3.9045    1.3255 O   0  0  0  0  0  0  0  0  0  0  0  0
    5.8382   -2.6033    1.3437 C   0  0  0  0  0  0  0  0  0  0  0  0
    6.5849   -1.7001    1.9393 N   0  0  0  0  0  0  0  0  0  0  0  0
    6.1720   -0.4215    1.9349 C   0  0  0  0  0  0  0  0  0  0  0  0
    4.9899   -0.0207    1.3252 C   0  0  0  0  0  0  0  0  0  0  0  0
    4.1898   -0.9803    0.6853 C   0  0  0  0  0  0  0  0  0  0  0  0
    4.6097   -2.3112    0.6850 C   0  0  0  0  0  0  0  0  0  0  0  0
    3.9346   -3.3904    0.1028 N   0  0  0  0  0  0  0  0  0  0  0  0
    2.7494   -3.3740   -0.5927 C   0  0  0  0  0  0  0  0  0  0  0  0
    2.1254   -2.3528   -0.8370 O   0  0  0  0  0  0  0  0  0  0  0  0
    2.2614   -4.7224   -1.0586 C   0  0  0  0  0  0  0  0  0  0  0  0
    2.6688   -5.9409   -0.4953 C   0  0  0  0  0  0  0  0  0  0  0  0
    2.1485   -7.1459   -0.9778 C   0  0  0  0  0  0  0  0  0  0  0  0
    1.2216   -7.1432   -2.0193 C   0  0  0  0  0  0  0  0  0  0  0  0
    0.7912   -5.9314   -2.5862 C   0  0  0  0  0  0  0  0  0  0  0  0
   -0.2110   -5.9250   -3.7056 C   0  0  0  0  0  0  0  0  0  0  0  0
    0.5235   -6.4701   -5.2827 Cl  0  0  0  0  0  0  0  0  0  0  0  0
    1.3154   -4.7320   -2.0953 C   0  0  0  0  0  0  0  0  0  0  0  0
    8.5935   -6.0600    2.2748 H   0  0  0  0  0  0  0  0  0  0  0  0
    7.6889   -6.0376    0.7379 H   0  0  0  0  0  0  0  0  0  0  0  0
    6.8280   -6.3110    2.2786 H   0  0  0  0  0  0  0  0  0  0  0  0
    8.2744   -3.6860    1.4933 H   0  0  0  0  0  0  0  0  0  0  0  0
    7.4180   -3.9562    3.0172 H   0  0  0  0  0  0  0  0  0  0  0  0
    6.8205    0.3012    2.4414 H   0  0  0  0  0  0  0  0  0  0  0  0
    4.6861    1.0279    1.3407 H   0  0  0  0  0  0  0  0  0  0  0  0
    3.2583   -0.7175    0.1887 H   0  0  0  0  0  0  0  0  0  0  0  0
    4.4371   -4.2677    0.1751 H   0  0  0  0  0  0  0  0  0  0  0  0
    3.3687   -5.9655    0.3439 H   0  0  0  0  0  0  0  0  0  0  0  0
    2.4639   -8.0913   -0.5299 H   0  0  0  0  0  0  0  0  0  0  0  0
    0.8262   -8.0885   -2.4007 H   0  0  0  0  0  0  0  0  0  0  0  0
   -0.6130   -4.9195   -3.8806 H   0  0  0  0  0  0  0  0  0  0  0  0
   -1.0434   -6.6143   -3.5113 H   0  0  0  0  0  0  0  0  0  0  0  0
    0.9963   -3.7707   -2.5040 H   0  0  0  0  0  0  0  0  0  0  0  0
  1  2  1  0
  1 21  1  0
  1 22  1  0
  1 23  1  0
  2  3  1  0
  2 24  1  0
  2 25  1  0
  3  4  1  0
  4  5  2  0
  4  9  1  0
  5  6  1  0
  6  7  2  0
  6 26  1  0
  7  8  1  0
  7 27  1  0
  8  9  2  0
  8 28  1  0
  9 10  1  0
 10 11  1  0
 10 29  1  0
 11 12  2  0
 11 13  1  0
 13 14  2  0
 13 20  1  0
 14 15  1  0
 14 30  1  0
 15 16  2  0
 15 31  1  0
 16 17  1  0
 16 32  1  0
 17 18  1  0
 17 20  2  0
 18 19  1  0
 18 33  1  0
 18 34  1  0
 20 35  1  0
M  END

