
     RDKit          3D

 41 41  0  0  0  0  0  0  0  0999 V2000
    3.7867    0.6987    0.9836 C   0  0  0  0  0  0  0  0  0  0  0  0
    3.9220   -0.7368    0.9363 N   0  0  0  0  0  0  0  0  0  0  0  0
    4.4418   -1.3842   -0.1803 C   0  0  0  0  0  0  0  0  0  0  0  0
    4.6862   -0.7404   -1.4038 C   0  0  0  0  0  0  0  0  0  0  0  0
    5.2163   -1.4483   -2.4975 C   0  0  0  0  0  0  0  0  0  0  0  0
    5.4509   -0.8561   -3.7016 O   0  0  0  0  0  0  0  0  0  0  0  0
    5.7896    0.7196   -4.2222 Si  0  0  1  0  0  4  0  0  0  0  0  0
    4.2260    1.7766   -4.1491 C   0  0  0  0  0  0  0  0  0  0  0  0
    7.1326    1.4715   -3.1323 C   0  0  0  0  0  0  0  0  0  0  0  0
    6.3740    0.4677   -6.0294 C   0  0  1  0  0  0  0  0  0  0  0  0
    5.2435   -0.1928   -6.8454 C   0  0  0  0  0  0  0  0  0  0  0  0
    6.7381    1.8269   -6.6619 C   0  0  0  0  0  0  0  0  0  0  0  0
    7.6121   -0.4521   -6.0461 C   0  0  0  0  0  0  0  0  0  0  0  0
    5.5068   -2.8090   -2.3650 C   0  0  0  0  0  0  0  0  0  0  0  0
    5.2428   -3.4567   -1.1520 C   0  0  0  0  0  0  0  0  0  0  0  0
    4.7104   -2.7756   -0.0580 C   0  0  0  0  0  0  0  0  0  0  0  0
    4.4682   -3.3790    1.2006 N   0  0  0  0  0  0  0  0  0  0  0  0
    3.4124    0.9944    1.9747 H   0  0  0  0  0  0  0  0  0  0  0  0
    3.0520    1.0481    0.2388 H   0  0  0  0  0  0  0  0  0  0  0  0
    4.7344    1.2463    0.7964 H   0  0  0  0  0  0  0  0  0  0  0  0
    4.2366   -1.1713    1.8009 H   0  0  0  0  0  0  0  0  0  0  0  0
    4.4659    0.3210   -1.5094 H   0  0  0  0  0  0  0  0  0  0  0  0
    3.9309    1.9936   -3.1100 H   0  0  0  0  0  0  0  0  0  0  0  0
    3.3789    1.2689   -4.6372 H   0  0  0  0  0  0  0  0  0  0  0  0
    4.3790    2.7442   -4.6551 H   0  0  0  0  0  0  0  0  0  0  0  0
    6.7956    1.5442   -2.0860 H   0  0  0  0  0  0  0  0  0  0  0  0
    7.3955    2.4876   -3.4700 H   0  0  0  0  0  0  0  0  0  0  0  0
    8.0489    0.8603   -3.1437 H   0  0  0  0  0  0  0  0  0  0  0  0
    4.3462    0.4454   -6.9015 H   0  0  0  0  0  0  0  0  0  0  0  0
    4.9422   -1.1585   -6.4100 H   0  0  0  0  0  0  0  0  0  0  0  0
    5.5762   -0.3799   -7.8828 H   0  0  0  0  0  0  0  0  0  0  0  0
    5.8787    2.5172   -6.6922 H   0  0  0  0  0  0  0  0  0  0  0  0
    7.0774    1.6870   -7.7043 H   0  0  0  0  0  0  0  0  0  0  0  0
    7.5553    2.3327   -6.1210 H   0  0  0  0  0  0  0  0  0  0  0  0
    7.3964   -1.4283   -5.5849 H   0  0  0  0  0  0  0  0  0  0  0  0
    8.4657   -0.0075   -5.5083 H   0  0  0  0  0  0  0  0  0  0  0  0
    7.9411   -0.6355   -7.0853 H   0  0  0  0  0  0  0  0  0  0  0  0
    5.9219   -3.3506   -3.2163 H   0  0  0  0  0  0  0  0  0  0  0  0
    5.4512   -4.5273   -1.0586 H   0  0  0  0  0  0  0  0  0  0  0  0
    4.7063   -4.3672    1.2116 H   0  0  0  0  0  0  0  0  0  0  0  0
    3.4951   -3.2731    1.4933 H   0  0  0  0  0  0  0  0  0  0  0  0
  1  2  1  0
  1 18  1  0
  1 19  1  0
  1 20  1  0
  2  3  1  0
  2 21  1  0
  3  4  2  0
  3 16  1  0
  4  5  1  0
  4 22  1  0
  5  6  1  0
  5 14  2  0
  7  6  1  1
  7  8  1  0
  7  9  1  0
  7 10  1  0
  8 23  1  0
  8 24  1  0
  8 25  1  0
  9 26  1  0
  9 27  1  0
  9 28  1  0
 10 11  1  6
 10 12  1  0
 10 13  1  0
 11 29  1  0
 11 30  1  0
 11 31  1  0
 12 32  1  0
 12 33  1  0
 12 34  1  0
 13 35  1  0
 13 36  1  0
 13 37  1  0
 14 15  1  0
 14 38  1  0
 15 16  2  0
 15 39  1  0
 16 17  1  0
 17 40  1  0
 17 41  1  0
M  END

