
     RDKit          3D

 45 46  0  0  0  0  0  0  0  0999 V2000
    0.9416    0.1445   -0.2177 C   0  0  0  0  0  0  0  0  0  0  0  0
    2.4640    0.0458   -0.0090 C   0  0  1  0  0  0  0  0  0  0  0  0
    2.8606   -1.2160    0.7851 C   0  0  0  0  0  0  0  0  0  0  0  0
    2.5342   -1.1059    2.2773 C   0  0  0  0  0  0  0  0  0  0  0  0
    2.0602   -0.0786    2.7489 O   0  0  0  0  0  0  0  0  0  0  0  0
    2.8120   -2.1971    3.0676 N   0  0  0  0  0  0  0  0  0  0  0  0
    3.3371   -3.4709    2.5795 C   0  0  0  0  0  0  0  0  0  0  0  0
    4.8672   -3.5697    2.6108 C   0  0  0  0  0  0  0  0  0  0  0  0
    5.4196   -3.3759    3.8966 O   0  0  0  0  0  0  0  0  0  0  0  0
    2.4864   -2.1187    4.5040 C   0  0  0  0  0  0  0  0  0  0  0  0
    1.1384   -2.7175    4.8605 C   0  0  0  0  0  0  0  0  0  0  0  0
    1.0552   -3.9316    5.5577 C   0  0  0  0  0  0  0  0  0  0  0  0
   -0.1869   -4.4913    5.8780 C   0  0  0  0  0  0  0  0  0  0  0  0
   -1.3638   -3.8396    5.5031 C   0  0  0  0  0  0  0  0  0  0  0  0
   -1.2923   -2.6243    4.8115 C   0  0  0  0  0  0  0  0  0  0  0  0
   -0.0527   -2.0662    4.4937 C   0  0  0  0  0  0  0  0  0  0  0  0
    3.2251    0.1509   -1.3222 C   0  0  0  0  0  0  0  0  0  0  0  0
    4.0491    1.2530   -1.6015 C   0  0  0  0  0  0  0  0  0  0  0  0
    4.7455    1.3844   -2.8063 C   0  0  0  0  0  0  0  0  0  0  0  0
    4.6145    0.3825   -3.7635 C   0  0  0  0  0  0  0  0  0  0  0  0
    5.2728    0.4866   -4.9254 F   0  0  0  0  0  0  0  0  0  0  0  0
    3.8121   -0.7344   -3.5428 C   0  0  0  0  0  0  0  0  0  0  0  0
    3.1368   -0.8215   -2.3287 C   0  0  0  0  0  0  0  0  0  0  0  0
    2.3652   -1.9088   -2.1243 F   0  0  0  0  0  0  0  0  0  0  0  0
    0.4282    0.1400    0.7542 H   0  0  0  0  0  0  0  0  0  0  0  0
    0.5662   -0.6949   -0.8234 H   0  0  0  0  0  0  0  0  0  0  0  0
    0.6800    1.0804   -0.7356 H   0  0  0  0  0  0  0  0  0  0  0  0
    2.7640    0.9075    0.6062 H   0  0  0  0  0  0  0  0  0  0  0  0
    3.9434   -1.3987    0.6804 H   0  0  0  0  0  0  0  0  0  0  0  0
    2.3671   -2.1023    0.3557 H   0  0  0  0  0  0  0  0  0  0  0  0
    2.9858   -3.6687    1.5563 H   0  0  0  0  0  0  0  0  0  0  0  0
    2.9127   -4.2678    3.2103 H   0  0  0  0  0  0  0  0  0  0  0  0
    5.3063   -2.8651    1.8777 H   0  0  0  0  0  0  0  0  0  0  0  0
    5.1553   -4.5847    2.2890 H   0  0  0  0  0  0  0  0  0  0  0  0
    5.4019   -2.4302    4.0922 H   0  0  0  0  0  0  0  0  0  0  0  0
    2.5091   -1.0551    4.7757 H   0  0  0  0  0  0  0  0  0  0  0  0
    3.2795   -2.6433    5.0540 H   0  0  0  0  0  0  0  0  0  0  0  0
    1.9737   -4.4427    5.8625 H   0  0  0  0  0  0  0  0  0  0  0  0
   -0.2328   -5.4377    6.4235 H   0  0  0  0  0  0  0  0  0  0  0  0
   -2.3357   -4.2732    5.7528 H   0  0  0  0  0  0  0  0  0  0  0  0
   -2.2106   -2.1052    4.5237 H   0  0  0  0  0  0  0  0  0  0  0  0
    0.0061   -1.1125    3.9637 H   0  0  0  0  0  0  0  0  0  0  0  0
    4.1450    2.0361   -0.8449 H   0  0  0  0  0  0  0  0  0  0  0  0
    5.3822    2.2467   -3.0109 H   0  0  0  0  0  0  0  0  0  0  0  0
    3.7117   -1.5178   -4.2948 H   0  0  0  0  0  0  0  0  0  0  0  0
  1  2  1  0
  1 25  1  0
  1 26  1  0
  1 27  1  0
  2  3  1  0
  2 17  1  0
  2 28  1  1
  3  4  1  0
  3 29  1  0
  3 30  1  0
  4  5  2  0
  4  6  1  0
  6  7  1  0
  6 10  1  0
  7  8  1  0
  7 31  1  0
  7 32  1  0
  8  9  1  0
  8 33  1  0
  8 34  1  0
  9 35  1  0
 10 11  1  0
 10 36  1  0
 10 37  1  0
 11 12  2  0
 11 16  1  0
 12 13  1  0
 12 38  1  0
 13 14  2  0
 13 39  1  0
 14 15  1  0
 14 40  1  0
 15 16  2  0
 15 41  1  0
 16 42  1  0
 17 18  2  0
 17 23  1  0
 18 19  1  0
 18 43  1  0
 19 20  2  0
 19 44  1  0
 20 21  1  0
 20 22  1  0
 22 23  2  0
 22 45  1  0
 23 24  1  0
M  END

