
     RDKit          3D

 47 50  0  0  0  0  0  0  0  0999 V2000
    1.1126   -0.6545   -0.7054 C   0  0  0  0  0  0  0  0  0  0  0  0
    2.4415   -0.1318   -0.2694 C   0  0  0  0  0  0  0  0  0  0  0  0
    3.5721   -0.1644   -0.9524 N   0  0  0  0  0  0  0  0  0  0  0  0
    4.4865    0.4109   -0.1141 C   0  0  0  0  0  0  0  0  0  0  0  0
    5.9536    0.5450   -0.4487 C   0  0  1  0  0  0  0  0  0  0  0  0
    6.2173    0.5575   -1.9662 C   0  0  0  0  0  0  0  0  0  0  0  0
    5.7970    1.8882   -2.5996 C   0  0  0  0  0  0  0  0  0  0  0  0
    6.4260    3.0739   -1.8633 C   0  0  0  0  0  0  0  0  0  0  0  0
    6.1173    3.0032   -0.4390 N   0  0  0  0  0  0  0  0  0  0  0  0
    6.2588    4.2151    0.3157 C   0  0  0  0  0  0  0  0  0  0  0  0
    7.7052    4.7077    0.5408 C   0  0  0  0  0  0  0  0  0  0  0  0
    8.6628    4.1169    0.0672 O   0  0  0  0  0  0  0  0  0  0  0  0
    7.8416    5.8491    1.3041 N   0  0  0  0  0  0  0  0  0  0  0  0
    6.7180    6.5574    1.9539 C   0  0  0  0  0  0  0  0  0  0  0  0
    7.3329    7.8553    2.5264 C   0  0  0  0  0  0  0  0  0  0  0  0
    8.8211    7.6144    2.4277 C   0  0  0  0  0  0  0  0  0  0  0  0
    9.8793    8.3721    2.9192 C   0  0  0  0  0  0  0  0  0  0  0  0
   11.1943    7.9623    2.6571 C   0  0  0  0  0  0  0  0  0  0  0  0
   11.4287    6.8073    1.9040 C   0  0  0  0  0  0  0  0  0  0  0  0
   10.3744    6.0335    1.4013 C   0  0  0  0  0  0  0  0  0  0  0  0
    9.0672    6.4510    1.6782 C   0  0  0  0  0  0  0  0  0  0  0  0
    6.5850    1.7838    0.2087 C   0  0  0  0  0  0  0  0  0  0  0  0
    3.9774    0.7958    1.0490 N   0  0  0  0  0  0  0  0  0  0  0  0
    2.6799    0.4423    0.9349 N   0  0  0  0  0  0  0  0  0  0  0  0
    2.0308    0.6301    1.6903 H   0  0  0  0  0  0  0  0  0  0  0  0
    0.9606   -0.4382   -1.7721 H   0  0  0  0  0  0  0  0  0  0  0  0
    0.2893   -0.2030   -0.1316 H   0  0  0  0  0  0  0  0  0  0  0  0
    1.0581   -1.7487   -0.5793 H   0  0  0  0  0  0  0  0  0  0  0  0
    6.4580   -0.3423   -0.0226 H   0  0  0  0  0  0  0  0  0  0  0  0
    5.6908   -0.2811   -2.4451 H   0  0  0  0  0  0  0  0  0  0  0  0
    7.2991    0.4032   -2.1248 H   0  0  0  0  0  0  0  0  0  0  0  0
    4.6987    1.9788   -2.5657 H   0  0  0  0  0  0  0  0  0  0  0  0
    6.0934    1.9144   -3.6619 H   0  0  0  0  0  0  0  0  0  0  0  0
    6.0198    4.0204   -2.2600 H   0  0  0  0  0  0  0  0  0  0  0  0
    7.5211    3.0933   -2.0456 H   0  0  0  0  0  0  0  0  0  0  0  0
    5.7752    4.0837    1.3014 H   0  0  0  0  0  0  0  0  0  0  0  0
    5.6949    5.0231   -0.1875 H   0  0  0  0  0  0  0  0  0  0  0  0
    6.2908    5.9304    2.7558 H   0  0  0  0  0  0  0  0  0  0  0  0
    5.9135    6.7618    1.2334 H   0  0  0  0  0  0  0  0  0  0  0  0
    6.9956    8.0450    3.5571 H   0  0  0  0  0  0  0  0  0  0  0  0
    7.0387    8.7344    1.9269 H   0  0  0  0  0  0  0  0  0  0  0  0
    9.6871    9.2774    3.5019 H   0  0  0  0  0  0  0  0  0  0  0  0
   12.0346    8.5464    3.0398 H   0  0  0  0  0  0  0  0  0  0  0  0
   12.4562    6.4941    1.7009 H   0  0  0  0  0  0  0  0  0  0  0  0
   10.5479    5.1352    0.8144 H   0  0  0  0  0  0  0  0  0  0  0  0
    6.2967    1.8191    1.2702 H   0  0  0  0  0  0  0  0  0  0  0  0
    7.6891    1.6886    0.1639 H   0  0  0  0  0  0  0  0  0  0  0  0
  1  2  1  0
  1 26  1  0
  1 27  1  0
  1 28  1  0
  2  3  2  0
  2 24  1  0
  3  4  1  0
  4  5  1  0
  4 23  2  0
  5  6  1  0
  5 22  1  0
  5 29  1  1
  6  7  1  0
  6 30  1  0
  6 31  1  0
  7  8  1  0
  7 32  1  0
  7 33  1  0
  8  9  1  0
  8 34  1  0
  8 35  1  0
  9 10  1  0
  9 22  1  0
 10 11  1  0
 10 36  1  0
 10 37  1  0
 11 12  2  0
 11 13  1  0
 13 14  1  0
 13 21  1  0
 14 15  1  0
 14 38  1  0
 14 39  1  0
 15 16  1  0
 15 40  1  0
 15 41  1  0
 16 17  1  0
 16 21  2  0
 17 18  2  0
 17 42  1  0
 18 19  1  0
 18 43  1  0
 19 20  2  0
 19 44  1  0
 20 21  1  0
 20 45  1  0
 22 46  1  0
 22 47  1  0
 23 24  1  0
 24 25  1  0
M  END

