
     RDKit          3D

 27 27  0  0  0  0  0  0  0  0999 V2000
    5.2779    2.1747   -0.4991 C   0  0  0  0  0  0  0  0  0  0  0  0
    4.0524    1.9506    0.3712 C   0  0  0  0  0  0  0  0  0  0  0  0
    4.4022    1.3921    1.6510 O   0  0  0  0  0  0  0  0  0  0  0  0
    4.5189    0.0552    1.7378 C   0  0  0  0  0  0  0  0  0  0  0  0
    4.3430   -0.6982    0.8066 O   0  0  0  0  0  0  0  0  0  0  0  0
    4.8859   -0.3929    3.1147 C   0  0  0  0  0  0  0  0  0  0  0  0
    5.1239    0.4924    4.1748 C   0  0  0  0  0  0  0  0  0  0  0  0
    5.4581    0.0693    5.3937 N   0  0  0  0  0  0  0  0  0  0  0  0
    5.5729   -1.2368    5.6288 C   0  0  0  0  0  0  0  0  0  0  0  0
    5.3448   -2.2152    4.6296 C   0  0  0  0  0  0  0  0  0  0  0  0
    5.4951   -3.6000    4.8665 N   0  0  0  0  0  0  0  0  0  0  0  0
    5.3317   -4.4171    3.7476 O   0  0  0  0  0  0  0  0  0  0  0  0
    5.3957   -4.2530    6.1125 C   0  0  0  0  0  0  0  0  0  0  0  0
    5.3304   -5.6153    6.0163 N   0  0  0  0  0  0  0  0  0  0  0  0
    5.4218   -3.6423    7.1627 O   0  0  0  0  0  0  0  0  0  0  0  0
    4.9989   -1.7671    3.3500 C   0  0  0  0  0  0  0  0  0  0  0  0
    4.9842    2.6752   -1.4358 H   0  0  0  0  0  0  0  0  0  0  0  0
    5.7538    1.2175   -0.7582 H   0  0  0  0  0  0  0  0  0  0  0  0
    6.0153    2.8111    0.0144 H   0  0  0  0  0  0  0  0  0  0  0  0
    3.3345    1.2810   -0.1248 H   0  0  0  0  0  0  0  0  0  0  0  0
    3.5532    2.9008    0.6103 H   0  0  0  0  0  0  0  0  0  0  0  0
    5.0457    1.5720    4.0204 H   0  0  0  0  0  0  0  0  0  0  0  0
    5.8434   -1.5475    6.6376 H   0  0  0  0  0  0  0  0  0  0  0  0
    6.2207   -4.5064    3.3621 H   0  0  0  0  0  0  0  0  0  0  0  0
    5.0334   -6.0442    5.1494 H   0  0  0  0  0  0  0  0  0  0  0  0
    5.1356   -6.0918    6.8878 H   0  0  0  0  0  0  0  0  0  0  0  0
    4.8082   -2.4627    2.5346 H   0  0  0  0  0  0  0  0  0  0  0  0
  1  2  1  0
  1 17  1  0
  1 18  1  0
  1 19  1  0
  2  3  1  0
  2 20  1  0
  2 21  1  0
  3  4  1  0
  4  5  2  0
  4  6  1  0
  6  7  2  0
  6 16  1  0
  7  8  1  0
  7 22  1  0
  8  9  2  0
  9 10  1  0
  9 23  1  0
 10 11  1  0
 10 16  2  0
 11 12  1  0
 11 13  1  0
 12 24  1  0
 13 14  1  0
 13 15  2  0
 14 25  1  0
 14 26  1  0
 16 27  1  0
M  END

