
     RDKit          3D

 21 21  0  0  0  0  0  0  0  0999 V2000
    1.6806   -0.2150    1.3206 O   0  0  0  0  0  0  0  0  0  0  0  0
    2.5943   -0.1848    0.5077 C   0  0  0  0  0  0  0  0  0  0  0  0
    3.0341   -1.4562   -0.2254 C   0  0  0  0  0  0  0  0  0  0  0  0
    3.8870   -1.2887   -1.3902 N   0  0  0  0  0  0  0  0  0  0  0  0
    4.9127   -0.2895   -1.1431 C   0  0  0  0  0  0  0  0  0  0  0  0
    4.3310    1.0772   -0.7844 C   0  0  0  0  0  0  0  0  0  0  0  0
    3.2981    0.9665    0.2506 N   0  0  0  0  0  0  0  0  0  0  0  0
    2.8477    2.1855    0.9114 C   0  0  0  0  0  0  0  0  0  0  0  0
    3.1900    2.2801    2.3912 C   0  0  0  0  0  0  0  0  0  0  0  0
    5.3436    2.3251    2.8146 I   0  0  0  0  0  0  0  0  0  0  0  0
    2.1171   -2.0040   -0.4881 H   0  0  0  0  0  0  0  0  0  0  0  0
    3.5506   -2.0780    0.5302 H   0  0  0  0  0  0  0  0  0  0  0  0
    3.3291   -1.0267   -2.2023 H   0  0  0  0  0  0  0  0  0  0  0  0
    5.5636   -0.1891   -2.0265 H   0  0  0  0  0  0  0  0  0  0  0  0
    5.5496   -0.6453   -0.3140 H   0  0  0  0  0  0  0  0  0  0  0  0
    3.9016    1.5513   -1.6909 H   0  0  0  0  0  0  0  0  0  0  0  0
    5.1294    1.7429   -0.4186 H   0  0  0  0  0  0  0  0  0  0  0  0
    1.7451    2.2301    0.8557 H   0  0  0  0  0  0  0  0  0  0  0  0
    3.2491    3.0489    0.3605 H   0  0  0  0  0  0  0  0  0  0  0  0
    2.8042    1.4147    2.9402 H   0  0  0  0  0  0  0  0  0  0  0  0
    2.7999    3.2075    2.8288 H   0  0  0  0  0  0  0  0  0  0  0  0
  1  2  2  0
  2  3  1  0
  2  7  1  0
  3  4  1  0
  3 11  1  0
  3 12  1  0
  4  5  1  0
  4 13  1  0
  5  6  1  0
  5 14  1  0
  5 15  1  0
  6  7  1  0
  6 16  1  0
  6 17  1  0
  7  8  1  0
  8  9  1  0
  8 18  1  0
  8 19  1  0
  9 10  1  0
  9 20  1  0
  9 21  1  0
M  END

