
     RDKit          3D

 46 49  0  0  0  0  0  0  0  0999 V2000
    4.8622    4.4310   -1.8793 C   0  0  0  0  0  0  0  0  0  0  0  0
    6.1220    3.6824   -1.5156 C   0  0  0  0  0  0  0  0  0  0  0  0
    7.3160    4.3732   -1.2326 C   0  0  0  0  0  0  0  0  0  0  0  0
    8.4853    3.6990   -0.8989 C   0  0  0  0  0  0  0  0  0  0  0  0
    8.4982    2.2952   -0.8367 C   0  0  0  0  0  0  0  0  0  0  0  0
    9.6872    1.7184   -0.5004 O   0  0  0  0  0  0  0  0  0  0  0  0
    9.7779    0.3138   -0.4113 C   0  0  0  0  0  0  0  0  0  0  0  0
   11.2225    0.0038   -0.0394 C   0  0  0  0  0  0  0  0  0  0  0  0
   11.3800   -1.4015    0.2058 O   0  0  0  0  0  0  0  0  0  0  0  0
   11.6238   -2.1920   -0.8496 C   0  0  0  0  0  0  0  0  0  0  0  0
   11.7494   -1.8175   -1.9850 O   0  0  0  0  0  0  0  0  0  0  0  0
   11.7653   -3.6431   -0.3951 C   0  0  0  0  0  0  0  0  0  0  0  0
   11.5437   -4.5640   -1.4945 N   0  0  0  0  0  0  0  0  0  0  0  0
   12.5978   -5.1770   -2.1281 C   0  0  0  0  0  0  0  0  0  0  0  0
   12.5031   -5.9829   -3.1370 N   0  0  0  0  0  0  0  0  0  0  0  0
   11.2287   -6.1949   -3.5824 C   0  0  0  0  0  0  0  0  0  0  0  0
   10.1074   -5.6036   -3.0212 C   0  0  0  0  0  0  0  0  0  0  0  0
    8.9586   -5.9679   -3.6505 O   0  0  0  0  0  0  0  0  0  0  0  0
    9.3342   -6.8232   -4.6489 C   0  0  0  0  0  0  0  0  0  0  0  0
    8.4747   -7.4472   -5.5511 C   0  0  0  0  0  0  0  0  0  0  0  0
    9.0664   -8.2852   -6.4969 C   0  0  0  0  0  0  0  0  0  0  0  0
   10.4628   -8.4893   -6.5363 C   0  0  0  0  0  0  0  0  0  0  0  0
   11.3089   -7.8589   -5.6277 C   0  0  0  0  0  0  0  0  0  0  0  0
   10.7337   -7.0118   -4.6673 C   0  0  0  0  0  0  0  0  0  0  0  0
   10.1804   -4.6910   -1.9116 C   0  0  0  0  0  0  0  0  0  0  0  0
    9.2944   -4.0791   -1.3430 O   0  0  0  0  0  0  0  0  0  0  0  0
    7.3236    1.5861   -1.1135 C   0  0  0  0  0  0  0  0  0  0  0  0
    6.1559    2.2858   -1.4480 C   0  0  0  0  0  0  0  0  0  0  0  0
    4.5644    5.1332   -1.0823 H   0  0  0  0  0  0  0  0  0  0  0  0
    4.0202    3.7439   -2.0502 H   0  0  0  0  0  0  0  0  0  0  0  0
    4.9975    5.0277   -2.7975 H   0  0  0  0  0  0  0  0  0  0  0  0
    7.3280    5.4666   -1.2755 H   0  0  0  0  0  0  0  0  0  0  0  0
    9.4097    4.2379   -0.6805 H   0  0  0  0  0  0  0  0  0  0  0  0
    9.5234   -0.1680   -1.3721 H   0  0  0  0  0  0  0  0  0  0  0  0
    9.0978   -0.0854    0.3642 H   0  0  0  0  0  0  0  0  0  0  0  0
   11.4893    0.5074    0.8994 H   0  0  0  0  0  0  0  0  0  0  0  0
   11.9020    0.3275   -0.8403 H   0  0  0  0  0  0  0  0  0  0  0  0
   11.0395   -3.8335    0.4059 H   0  0  0  0  0  0  0  0  0  0  0  0
   12.7786   -3.7893    0.0080 H   0  0  0  0  0  0  0  0  0  0  0  0
   13.5848   -4.9481   -1.7103 H   0  0  0  0  0  0  0  0  0  0  0  0
    7.3971   -7.2811   -5.5117 H   0  0  0  0  0  0  0  0  0  0  0  0
    8.4322   -8.7958   -7.2259 H   0  0  0  0  0  0  0  0  0  0  0  0
   10.8821   -9.1540   -7.2952 H   0  0  0  0  0  0  0  0  0  0  0  0
   12.3897   -8.0113   -5.6524 H   0  0  0  0  0  0  0  0  0  0  0  0
    7.2992    0.4967   -1.0763 H   0  0  0  0  0  0  0  0  0  0  0  0
    5.2475    1.7152   -1.6620 H   0  0  0  0  0  0  0  0  0  0  0  0
  1  2  1  0
  1 29  1  0
  1 30  1  0
  1 31  1  0
  2  3  2  0
  2 28  1  0
  3  4  1  0
  3 32  1  0
  4  5  2  0
  4 33  1  0
  5  6  1  0
  5 27  1  0
  6  7  1  0
  7  8  1  0
  7 34  1  0
  7 35  1  0
  8  9  1  0
  8 36  1  0
  8 37  1  0
  9 10  1  0
 10 11  2  0
 10 12  1  0
 12 13  1  0
 12 38  1  0
 12 39  1  0
 13 14  1  0
 13 25  1  0
 14 15  2  0
 14 40  1  0
 15 16  1  0
 16 17  2  0
 16 24  1  0
 17 18  1  0
 17 25  1  0
 18 19  1  0
 19 20  1  0
 19 24  2  0
 20 21  2  0
 20 41  1  0
 21 22  1  0
 21 42  1  0
 22 23  2  0
 22 43  1  0
 23 24  1  0
 23 44  1  0
 25 26  2  0
 27 28  2  0
 27 45  1  0
 28 46  1  0
M  END

