
     RDKit          3D

 21 22  0  0  0  0  0  0  0  0999 V2000
    1.2239   -0.4884    0.5750 C   0  0  0  0  0  0  0  0  0  0  0  0
    1.6405    0.0963   -0.6513 O   0  0  0  0  0  0  0  0  0  0  0  0
    2.6872   -0.4702   -1.2685 C   0  0  0  0  0  0  0  0  0  0  0  0
    3.1621    0.0638   -2.5163 C   0  0  0  0  0  0  0  0  0  0  0  0
    4.2289   -0.6722   -2.9549 C   0  0  0  0  0  0  0  0  0  0  0  0
    5.1022   -0.5064   -4.1710 C   0  0  1  0  0  0  0  0  0  0  0  0
    5.9473   -1.6897   -4.3144 N   0  0  0  0  0  0  0  0  0  0  0  0
    6.3223   -2.0140   -5.4877 C   0  0  0  0  0  0  0  0  0  0  0  0
    5.9364   -1.2384   -6.6888 C   0  0  0  0  0  0  0  0  0  0  0  0
    5.0498   -0.3127   -6.6814 N   0  0  0  0  0  0  0  0  0  0  0  0
    4.3750   -0.0586   -5.4533 C   0  0  0  0  0  0  0  0  0  0  0  0
    3.3236    0.5253   -5.4543 O   0  0  0  0  0  0  0  0  0  0  0  0
    4.5616   -1.9483   -1.8142 S   0  0  0  0  0  0  0  0  0  0  0  0
    3.3151   -1.5129   -0.7817 N   0  0  0  0  0  0  0  0  0  0  0  0
    0.3720    0.1084    0.9258 H   0  0  0  0  0  0  0  0  0  0  0  0
    2.0351   -0.4678    1.3206 H   0  0  0  0  0  0  0  0  0  0  0  0
    0.9187   -1.5374    0.4309 H   0  0  0  0  0  0  0  0  0  0  0  0
    2.7176    0.9103   -3.0335 H   0  0  0  0  0  0  0  0  0  0  0  0
    5.8104    0.3270   -3.9630 H   0  0  0  0  0  0  0  0  0  0  0  0
    6.9691   -2.8940   -5.6133 H   0  0  0  0  0  0  0  0  0  0  0  0
    6.4461   -1.4669   -7.6382 H   0  0  0  0  0  0  0  0  0  0  0  0
  1  2  1  0
  1 15  1  0
  1 16  1  0
  1 17  1  0
  2  3  1  0
  3  4  1  0
  3 14  2  0
  4  5  2  0
  4 18  1  0
  5  6  1  0
  5 13  1  0
  6  7  1  0
  6 11  1  0
  6 19  1  1
  7  8  2  0
  8  9  1  0
  8 20  1  0
  9 10  2  0
  9 21  1  0
 10 11  1  0
 11 12  2  0
 13 14  1  0
M  END

