
     RDKit          3D

 45 48  0  0  0  0  0  0  0  0999 V2000
    1.6394   -1.4170    1.4413 C   0  0  0  0  0  0  0  0  0  0  0  0
    1.6382   -0.0143    1.1101 N   0  0  0  0  0  0  0  0  0  0  0  0
    2.5445    0.8817    1.6661 C   0  0  0  0  0  0  0  0  0  0  0  0
    3.6808    0.4670    2.3815 C   0  0  0  0  0  0  0  0  0  0  0  0
    4.5979    1.3962    2.8952 C   0  0  0  0  0  0  0  0  0  0  0  0
    4.3956    2.7687    2.7174 C   0  0  0  0  0  0  0  0  0  0  0  0
    5.2251    3.7504    3.1791 O   0  0  0  0  0  0  0  0  0  0  0  0
    6.3729    3.3962    3.9270 C   0  0  0  0  0  0  0  0  0  0  0  0
    7.1067    4.6782    4.3157 C   0  0  1  0  0  0  0  0  0  0  0  0
    6.2814    5.6356    5.2133 C   0  0  1  0  0  0  0  0  0  0  0  0
    6.0878    5.0359    6.6219 C   0  0  0  0  0  0  0  0  0  0  0  0
    7.4605    4.7899    7.2804 C   0  0  2  0  0  0  0  0  0  0  0  0
    8.2194    6.1273    7.3947 C   0  0  0  0  0  0  0  0  0  0  0  0
    8.4192    6.7311    5.9899 C   0  0  2  0  0  0  0  0  0  0  0  0
    7.0428    6.9714    5.3374 C   0  0  0  0  0  0  0  0  0  0  0  0
    9.2317    5.7474    5.1236 C   0  0  0  0  0  0  0  0  0  0  0  0
    8.4720    4.4102    4.9983 C   0  0  1  0  0  0  0  0  0  0  0  0
    8.2769    3.8133    6.4095 C   0  0  0  0  0  0  0  0  0  0  0  0
    3.2566    3.1938    2.0102 C   0  0  0  0  0  0  0  0  0  0  0  0
    2.3548    2.2732    1.4956 C   0  0  0  0  0  0  0  0  0  0  0  0
    0.8046   -1.9115    0.9236 H   0  0  0  0  0  0  0  0  0  0  0  0
    1.5389   -1.6206    2.5283 H   0  0  0  0  0  0  0  0  0  0  0  0
    2.5683   -1.9066    1.1008 H   0  0  0  0  0  0  0  0  0  0  0  0
    0.7332    0.3819    0.8901 H   0  0  0  0  0  0  0  0  0  0  0  0
    3.8704   -0.5946    2.5462 H   0  0  0  0  0  0  0  0  0  0  0  0
    5.4667    1.0234    3.4384 H   0  0  0  0  0  0  0  0  0  0  0  0
    7.0436    2.7580    3.3182 H   0  0  0  0  0  0  0  0  0  0  0  0
    6.0761    2.8032    4.8114 H   0  0  0  0  0  0  0  0  0  0  0  0
    7.3021    5.2021    3.3626 H   0  0  0  0  0  0  0  0  0  0  0  0
    5.3013    5.8061    4.7412 H   0  0  0  0  0  0  0  0  0  0  0  0
    5.5128    4.0959    6.5735 H   0  0  0  0  0  0  0  0  0  0  0  0
    5.4910    5.7297    7.2393 H   0  0  0  0  0  0  0  0  0  0  0  0
    7.3186    4.3577    8.2859 H   0  0  0  0  0  0  0  0  0  0  0  0
    9.1971    5.9688    7.8829 H   0  0  0  0  0  0  0  0  0  0  0  0
    7.6552    6.8297    8.0329 H   0  0  0  0  0  0  0  0  0  0  0  0
    8.9636    7.6876    6.0714 H   0  0  0  0  0  0  0  0  0  0  0  0
    7.1687    7.4291    4.3408 H   0  0  0  0  0  0  0  0  0  0  0  0
    6.4565    7.6845    5.9428 H   0  0  0  0  0  0  0  0  0  0  0  0
   10.2240    5.5749    5.5758 H   0  0  0  0  0  0  0  0  0  0  0  0
    9.4076    6.1774    4.1225 H   0  0  0  0  0  0  0  0  0  0  0  0
    9.0611    3.7115    4.3783 H   0  0  0  0  0  0  0  0  0  0  0  0
    9.2628    3.6280    6.8705 H   0  0  0  0  0  0  0  0  0  0  0  0
    7.7712    2.8342    6.3582 H   0  0  0  0  0  0  0  0  0  0  0  0
    3.1000    4.2661    1.8736 H   0  0  0  0  0  0  0  0  0  0  0  0
    1.4805    2.6300    0.9423 H   0  0  0  0  0  0  0  0  0  0  0  0
  1  2  1  0
  1 21  1  0
  1 22  1  0
  1 23  1  0
  2  3  1  0
  2 24  1  0
  3  4  2  0
  3 20  1  0
  4  5  1  0
  4 25  1  0
  5  6  2  0
  5 26  1  0
  6  7  1  0
  6 19  1  0
  7  8  1  0
  8  9  1  0
  8 27  1  0
  8 28  1  0
  9 10  1  0
  9 17  1  0
  9 29  1  6
 10 11  1  0
 10 15  1  0
 10 30  1  6
 11 12  1  0
 11 31  1  0
 11 32  1  0
 12 13  1  0
 12 18  1  0
 12 33  1  1
 13 14  1  0
 13 34  1  0
 13 35  1  0
 14 15  1  0
 14 16  1  0
 14 36  1  1
 15 37  1  0
 15 38  1  0
 16 17  1  0
 16 39  1  0
 16 40  1  0
 17 18  1  0
 17 41  1  6
 18 42  1  0
 18 43  1  0
 19 20  2  0
 19 44  1  0
 20 45  1  0
M  END

