
     RDKit          3D

 38 39  0  0  0  0  0  0  0  0999 V2000
    2.2114   -0.2263    1.7329 C   0  0  0  0  0  0  0  0  0  0  0  0
    3.3157   -0.2728    0.7070 C   0  0  0  0  0  0  0  0  0  0  0  0
    4.3686    0.6761    0.7151 C   0  0  0  0  0  0  0  0  0  0  0  0
    4.3715    1.8187    1.7005 C   0  0  0  0  0  0  0  0  0  0  0  0
    3.3893    2.4234    2.0370 O   0  0  0  0  0  0  0  0  0  0  0  0
    5.5874    2.1696    2.1813 O   0  0  0  0  0  0  0  0  0  0  0  0
    5.4015    0.6194   -0.2361 C   0  0  0  0  0  0  0  0  0  0  0  0
    5.4197   -0.3663   -1.2187 C   0  0  0  0  0  0  0  0  0  0  0  0
    4.3946   -1.3094   -1.2528 C   0  0  0  0  0  0  0  0  0  0  0  0
    3.3619   -1.2542   -0.3092 C   0  0  0  0  0  0  0  0  0  0  0  0
    2.0973   -2.5525   -0.4694 S   0  0  1  0  0  0  0  0  0  0  0  0
    2.5154   -3.3388   -1.6492 O   0  0  0  0  0  0  0  0  0  0  0  0
    1.9026   -3.2184    0.8191 O   0  0  0  0  0  0  0  0  0  0  0  0
    0.6879   -1.7264   -0.8349 N   0  0  0  0  0  0  0  0  0  0  0  0
   -0.5229   -1.9173   -0.0244 C   0  0  0  0  0  0  0  0  0  0  0  0
   -1.3585   -0.6414   -0.1254 C   0  0  0  0  0  0  0  0  0  0  0  0
   -1.6057   -0.2712   -1.4685 O   0  0  0  0  0  0  0  0  0  0  0  0
   -0.4168   -0.0739   -2.2044 C   0  0  0  0  0  0  0  0  0  0  0  0
    0.4307   -1.3542   -2.2374 C   0  0  2  0  0  0  0  0  0  0  0  0
   -0.2968   -2.4673   -3.0515 C   0  0  0  0  0  0  0  0  0  0  0  0
   -0.0373   -3.7738   -2.6279 O   0  0  0  0  0  0  0  0  0  0  0  0
    1.3830    0.4030    1.3700 H   0  0  0  0  0  0  0  0  0  0  0  0
    2.5516    0.2283    2.6700 H   0  0  0  0  0  0  0  0  0  0  0  0
    1.8316   -1.2318    1.9419 H   0  0  0  0  0  0  0  0  0  0  0  0
    6.2516    1.5101    1.9347 H   0  0  0  0  0  0  0  0  0  0  0  0
    6.1874    1.3795   -0.2246 H   0  0  0  0  0  0  0  0  0  0  0  0
    6.2224   -0.3989   -1.9583 H   0  0  0  0  0  0  0  0  0  0  0  0
    4.3791   -2.0985   -2.0045 H   0  0  0  0  0  0  0  0  0  0  0  0
   -0.2414   -2.1104    1.0185 H   0  0  0  0  0  0  0  0  0  0  0  0
   -1.0880   -2.7915   -0.3902 H   0  0  0  0  0  0  0  0  0  0  0  0
   -0.8395    0.1831    0.4046 H   0  0  0  0  0  0  0  0  0  0  0  0
   -2.3396   -0.7940    0.3490 H   0  0  0  0  0  0  0  0  0  0  0  0
    0.1807    0.7524   -1.7702 H   0  0  0  0  0  0  0  0  0  0  0  0
   -0.7173    0.2124   -3.2244 H   0  0  0  0  0  0  0  0  0  0  0  0
    1.4010   -1.1221   -2.7027 H   0  0  0  0  0  0  0  0  0  0  0  0
   -0.0467   -2.3042   -4.1214 H   0  0  0  0  0  0  0  0  0  0  0  0
   -1.3828   -2.3158   -2.9524 H   0  0  0  0  0  0  0  0  0  0  0  0
    0.9241   -3.8912   -2.5360 H   0  0  0  0  0  0  0  0  0  0  0  0
  1  2  1  0
  1 22  1  0
  1 23  1  0
  1 24  1  0
  2  3  2  0
  2 10  1  0
  3  4  1  0
  3  7  1  0
  4  5  2  0
  4  6  1  0
  6 25  1  0
  7  8  2  0
  7 26  1  0
  8  9  1  0
  8 27  1  0
  9 10  2  0
  9 28  1  0
 11 10  1  1
 11 12  2  0
 11 13  2  0
 11 14  1  0
 14 15  1  0
 14 19  1  0
 15 16  1  0
 15 29  1  0
 15 30  1  0
 16 17  1  0
 16 31  1  0
 16 32  1  0
 17 18  1  0
 18 19  1  0
 18 33  1  0
 18 34  1  0
 19 20  1  0
 19 35  1  6
 20 21  1  0
 20 36  1  0
 20 37  1  0
 21 38  1  0
M  END

