
     RDKit          3D

 39 40  0  0  0  0  0  0  0  0999 V2000
    0.9400    0.0096   -0.5113 C   0  0  0  0  0  0  0  0  0  0  0  0
    2.3863    0.0244   -0.3921 N   0  0  0  0  0  0  0  0  0  0  0  0
    2.9661   -1.2609   -0.7470 C   0  0  0  0  0  0  0  0  0  0  0  0
    4.4708   -1.3840   -0.4957 C   0  0  0  0  0  0  0  0  0  0  0  0
    5.3795   -0.6261   -1.4640 C   0  0  0  0  0  0  0  0  0  0  0  0
    5.4979    0.8151   -1.2020 N   0  0  0  0  0  0  0  0  0  0  0  0
    6.5507    1.4341   -1.8333 C   0  0  0  0  0  0  0  0  0  0  0  0
    7.2216    0.8176   -2.6661 O   0  0  0  0  0  0  0  0  0  0  0  0
    6.9061    2.8498   -1.4719 C   0  0  0  0  0  0  0  0  0  0  0  0
    6.9034    3.2789   -0.1387 C   0  0  0  0  0  0  0  0  0  0  0  0
    7.2815    4.5717    0.2224 C   0  0  0  0  0  0  0  0  0  0  0  0
    7.6538    5.4649   -0.7820 C   0  0  0  0  0  0  0  0  0  0  0  0
    7.6965    5.0671   -2.1197 C   0  0  0  0  0  0  0  0  0  0  0  0
    8.0865    6.0650   -3.1756 C   0  0  1  0  0  0  0  0  0  0  0  0
    8.4375    7.2520   -2.6608 F   0  0  0  0  0  0  0  0  0  0  0  0
    9.1391    5.6355   -3.9214 F   0  0  0  0  0  0  0  0  0  0  0  0
    7.0863    6.2930   -4.0534 F   0  0  0  0  0  0  0  0  0  0  0  0
    7.3676    3.7331   -2.4985 C   0  0  0  0  0  0  0  0  0  0  0  0
    7.4493    3.3023   -3.7907 N   0  0  0  0  0  0  0  0  0  0  0  0
    4.3943    1.5287   -0.5570 C   0  0  0  0  0  0  0  0  0  0  0  0
    2.9884    1.1675   -1.0610 C   0  0  0  0  0  0  0  0  0  0  0  0
    0.5213   -0.8089    0.0955 H   0  0  0  0  0  0  0  0  0  0  0  0
    0.5813   -0.1333   -1.5571 H   0  0  0  0  0  0  0  0  0  0  0  0
    0.5166    0.9555   -0.1383 H   0  0  0  0  0  0  0  0  0  0  0  0
    2.7692   -1.5145   -1.8180 H   0  0  0  0  0  0  0  0  0  0  0  0
    2.4486   -2.0312   -0.1511 H   0  0  0  0  0  0  0  0  0  0  0  0
    4.7260   -2.4508   -0.6071 H   0  0  0  0  0  0  0  0  0  0  0  0
    4.7036   -1.1206    0.5497 H   0  0  0  0  0  0  0  0  0  0  0  0
    5.0380   -0.7942   -2.5028 H   0  0  0  0  0  0  0  0  0  0  0  0
    6.3966   -1.0406   -1.4259 H   0  0  0  0  0  0  0  0  0  0  0  0
    6.6087    2.5707    0.6387 H   0  0  0  0  0  0  0  0  0  0  0  0
    7.2797    4.8815    1.2688 H   0  0  0  0  0  0  0  0  0  0  0  0
    7.9294    6.4900   -0.5306 H   0  0  0  0  0  0  0  0  0  0  0  0
    7.9712    3.8585   -4.4542 H   0  0  0  0  0  0  0  0  0  0  0  0
    7.5049    2.2906   -3.8969 H   0  0  0  0  0  0  0  0  0  0  0  0
    4.5487    2.5978   -0.7393 H   0  0  0  0  0  0  0  0  0  0  0  0
    4.4007    1.3785    0.5370 H   0  0  0  0  0  0  0  0  0  0  0  0
    3.0029    1.0637   -2.1716 H   0  0  0  0  0  0  0  0  0  0  0  0
    2.3496    2.0383   -0.8447 H   0  0  0  0  0  0  0  0  0  0  0  0
  1  2  1  0
  1 22  1  0
  1 23  1  0
  1 24  1  0
  2  3  1  0
  2 21  1  0
  3  4  1  0
  3 25  1  0
  3 26  1  0
  4  5  1  0
  4 27  1  0
  4 28  1  0
  5  6  1  0
  5 29  1  0
  5 30  1  0
  6  7  1  0
  6 20  1  0
  7  8  2  0
  7  9  1  0
  9 10  2  0
  9 18  1  0
 10 11  1  0
 10 31  1  0
 11 12  2  0
 11 32  1  0
 12 13  1  0
 12 33  1  0
 13 14  1  0
 13 18  2  0
 14 15  1  1
 14 16  1  0
 14 17  1  0
 18 19  1  0
 19 34  1  0
 19 35  1  0
 20 21  1  0
 20 36  1  0
 20 37  1  0
 21 38  1  0
 21 39  1  0
M  END

