
     RDKit          3D

 33 35  0  0  0  0  0  0  0  0999 V2000
    0.9230   -0.0216   -0.4159 N   0  0  0  0  0  0  0  0  0  0  0  0
    1.9156    0.4405    0.3693 C   0  0  0  0  0  0  0  0  0  0  0  0
    2.2234    1.6236    0.4669 O   0  0  0  0  0  0  0  0  0  0  0  0
    2.7112   -0.5551    1.1793 C   0  0  0  0  0  0  0  0  0  0  0  0
    3.6084    0.0391    2.0173 N   0  0  0  0  0  0  0  0  0  0  0  0
    3.6830    1.0539    2.0324 H   0  0  0  0  0  0  0  0  0  0  0  0
    4.3119   -0.8934    2.7338 C   0  0  0  0  0  0  0  0  0  0  0  0
    5.3173   -0.7299    3.6992 C   0  0  0  0  0  0  0  0  0  0  0  0
    5.8551   -1.8733    4.2717 C   0  0  0  0  0  0  0  0  0  0  0  0
    5.3877   -3.1534    3.8904 C   0  0  0  0  0  0  0  0  0  0  0  0
    6.0971   -4.5576    4.6596 Cl  0  0  0  0  0  0  0  0  0  0  0  0
    4.3896   -3.3304    2.9425 C   0  0  0  0  0  0  0  0  0  0  0  0
    3.8421   -2.1784    2.3404 C   0  0  0  0  0  0  0  0  0  0  0  0
    2.8207   -1.9426    1.3459 C   0  0  0  0  0  0  0  0  0  0  0  0
    2.0039   -3.2520    0.4775 S   0  0  1  0  0  0  0  0  0  0  0  0
    2.0100   -4.4382    1.3411 O   0  0  0  0  0  0  0  0  0  0  0  0
    0.7215   -2.7413   -0.0545 O   0  0  0  0  0  0  0  0  0  0  0  0
    3.0474   -3.6185   -0.9454 C   0  0  0  0  0  0  0  0  0  0  0  0
    3.8006   -4.7942   -0.9460 C   0  0  0  0  0  0  0  0  0  0  0  0
    4.5922   -5.1003   -2.0550 C   0  0  0  0  0  0  0  0  0  0  0  0
    4.6136   -4.2255   -3.1459 C   0  0  0  0  0  0  0  0  0  0  0  0
    5.6023   -4.6034   -4.5306 Cl  0  0  0  0  0  0  0  0  0  0  0  0
    3.8495   -3.0508   -3.1473 C   0  0  0  0  0  0  0  0  0  0  0  0
    3.0569   -2.7486   -2.0416 C   0  0  0  0  0  0  0  0  0  0  0  0
    0.3686    0.6736   -0.9029 H   0  0  0  0  0  0  0  0  0  0  0  0
    0.6114   -0.9966   -0.3591 H   0  0  0  0  0  0  0  0  0  0  0  0
    5.6665    0.2622    3.9925 H   0  0  0  0  0  0  0  0  0  0  0  0
    6.6398   -1.7988    5.0258 H   0  0  0  0  0  0  0  0  0  0  0  0
    4.0256   -4.3236    2.6859 H   0  0  0  0  0  0  0  0  0  0  0  0
    3.7545   -5.4671   -0.0883 H   0  0  0  0  0  0  0  0  0  0  0  0
    5.1876   -6.0142   -2.0792 H   0  0  0  0  0  0  0  0  0  0  0  0
    3.8752   -2.3876   -4.0132 H   0  0  0  0  0  0  0  0  0  0  0  0
    2.4484   -1.8420   -2.0346 H   0  0  0  0  0  0  0  0  0  0  0  0
  1  2  1  0
  1 25  1  0
  1 26  1  0
  2  3  2  0
  2  4  1  0
  4  5  1  0
  4 14  2  0
  5  6  1  0
  5  7  1  0
  7  8  2  0
  7 13  1  0
  8  9  1  0
  8 27  1  0
  9 10  2  0
  9 28  1  0
 10 11  1  0
 10 12  1  0
 12 13  2  0
 12 29  1  0
 13 14  1  0
 15 14  1  1
 15 16  2  0
 15 17  2  0
 15 18  1  0
 18 19  2  0
 18 24  1  0
 19 20  1  0
 19 30  1  0
 20 21  2  0
 20 31  1  0
 21 22  1  0
 21 23  1  0
 23 24  2  0
 23 32  1  0
 24 33  1  0
M  END

