
     RDKit          3D

 65 68  0  0  0  0  0  0  0  0999 V2000
    0.4743    0.5223    2.1412 C   0  0  0  0  0  0  0  0  0  0  0  0
    1.8808    0.4570    2.1920 O   0  0  0  0  0  0  0  0  0  0  0  0
    2.6079    1.5414    1.8092 C   0  0  0  0  0  0  0  0  0  0  0  0
    2.0588    2.7448    1.3490 C   0  0  0  0  0  0  0  0  0  0  0  0
    2.9285    3.7816    0.9906 C   0  0  0  0  0  0  0  0  0  0  0  0
    4.3114    3.6515    1.0747 C   0  0  0  0  0  0  0  0  0  0  0  0
    4.8620    2.4368    1.5388 C   0  0  0  0  0  0  0  0  0  0  0  0
    6.2656    2.2624    1.6450 N   0  0  0  0  0  0  0  0  0  0  0  0
    7.1920    3.2925    1.7561 C   0  0  0  0  0  0  0  0  0  0  0  0
    6.9892    4.4828    1.6827 O   0  0  0  0  0  0  0  0  0  0  0  0
    8.5634    2.6465    2.0296 C   0  0  0  0  0  0  0  0  0  0  0  0
    9.5627    3.3081    2.2134 O   0  0  0  0  0  0  0  0  0  0  0  0
    8.3493    1.2011    2.0043 C   0  0  0  0  0  0  0  0  0  0  0  0
    9.3047    0.2248    2.1232 C   0  0  0  0  0  0  0  0  0  0  0  0
    9.0393   -1.0733    1.9150 O   0  0  0  0  0  0  0  0  0  0  0  0
   10.7095    0.4656    2.5280 C   0  0  0  0  0  0  0  0  0  0  0  0
   10.9951    1.1226    3.7284 C   0  0  0  0  0  0  0  0  0  0  0  0
   12.3065    1.3224    4.1812 C   0  0  0  0  0  0  0  0  0  0  0  0
   12.5721    2.0491    5.4771 C   0  0  0  0  0  0  0  0  0  0  0  0
   13.3440    0.8408    3.3757 C   0  0  0  0  0  0  0  0  0  0  0  0
   13.0949    0.1942    2.1605 C   0  0  0  0  0  0  0  0  0  0  0  0
   11.7793    0.0031    1.7207 C   0  0  0  0  0  0  0  0  0  0  0  0
   11.4503   -0.5733    0.5396 O   0  0  0  0  0  0  0  0  0  0  0  0
   12.4691   -1.0345   -0.3177 C   0  0  0  0  0  0  0  0  0  0  0  0
    6.8699    0.9234    1.7551 C   0  0  2  0  0  0  0  0  0  0  0  0
    6.6008    0.0459    0.5287 C   0  0  0  0  0  0  0  0  0  0  0  0
    6.8852    0.5065   -0.7604 C   0  0  0  0  0  0  0  0  0  0  0  0
    6.6858   -0.3420   -1.8545 C   0  0  0  0  0  0  0  0  0  0  0  0
    6.2183   -1.6420   -1.6785 C   0  0  0  0  0  0  0  0  0  0  0  0
    5.9272   -2.1182   -0.3881 C   0  0  0  0  0  0  0  0  0  0  0  0
    5.4575   -3.3842   -0.3146 O   0  0  0  0  0  0  0  0  0  0  0  0
    5.1373   -4.0098    0.9378 C   0  0  1  0  0  0  0  0  0  0  0  0
    4.1481   -5.1199    0.6086 C   0  0  0  0  0  0  0  0  0  0  0  0
    6.4002   -4.5291    1.6230 C   0  0  0  0  0  0  0  0  0  0  0  0
    6.1206   -1.2636    0.7133 C   0  0  0  0  0  0  0  0  0  0  0  0
    4.0001    1.3937    1.9032 C   0  0  0  0  0  0  0  0  0  0  0  0
    0.1018   -0.4482    2.4965 H   0  0  0  0  0  0  0  0  0  0  0  0
    0.1056    0.6908    1.1130 H   0  0  0  0  0  0  0  0  0  0  0  0
    0.0742    1.3186    2.7948 H   0  0  0  0  0  0  0  0  0  0  0  0
    0.9815    2.8848    1.2651 H   0  0  0  0  0  0  0  0  0  0  0  0
    2.5086    4.7246    0.6308 H   0  0  0  0  0  0  0  0  0  0  0  0
    4.9665    4.4751    0.8068 H   0  0  0  0  0  0  0  0  0  0  0  0
    8.2071   -1.1831    1.4177 H   0  0  0  0  0  0  0  0  0  0  0  0
   10.1592    1.4827    4.3321 H   0  0  0  0  0  0  0  0  0  0  0  0
   12.0038    1.6088    6.3131 H   0  0  0  0  0  0  0  0  0  0  0  0
   12.2732    3.1087    5.4064 H   0  0  0  0  0  0  0  0  0  0  0  0
   13.6390    2.0204    5.7441 H   0  0  0  0  0  0  0  0  0  0  0  0
   14.3813    0.9768    3.6954 H   0  0  0  0  0  0  0  0  0  0  0  0
   13.9361   -0.1504    1.5594 H   0  0  0  0  0  0  0  0  0  0  0  0
   11.9673   -1.4549   -1.1995 H   0  0  0  0  0  0  0  0  0  0  0  0
   13.0795   -1.8242    0.1563 H   0  0  0  0  0  0  0  0  0  0  0  0
   13.1362   -0.2154   -0.6417 H   0  0  0  0  0  0  0  0  0  0  0  0
    6.4484    0.4072    2.6375 H   0  0  0  0  0  0  0  0  0  0  0  0
    7.2608    1.5207   -0.9100 H   0  0  0  0  0  0  0  0  0  0  0  0
    6.9032    0.0165   -2.8639 H   0  0  0  0  0  0  0  0  0  0  0  0
    6.0595   -2.3127   -2.5250 H   0  0  0  0  0  0  0  0  0  0  0  0
    4.6335   -3.2709    1.5870 H   0  0  0  0  0  0  0  0  0  0  0  0
    4.6089   -5.8552   -0.0697 H   0  0  0  0  0  0  0  0  0  0  0  0
    3.2550   -4.7084    0.1155 H   0  0  0  0  0  0  0  0  0  0  0  0
    3.8340   -5.6404    1.5262 H   0  0  0  0  0  0  0  0  0  0  0  0
    6.9040   -5.2672    0.9793 H   0  0  0  0  0  0  0  0  0  0  0  0
    6.1448   -5.0177    2.5764 H   0  0  0  0  0  0  0  0  0  0  0  0
    7.1163   -3.7228    1.8405 H   0  0  0  0  0  0  0  0  0  0  0  0
    5.8770   -1.5989    1.7230 H   0  0  0  0  0  0  0  0  0  0  0  0
    4.3659    0.4377    2.2702 H   0  0  0  0  0  0  0  0  0  0  0  0
  1  2  1  0
  1 37  1  0
  1 38  1  0
  1 39  1  0
  2  3  1  0
  3  4  2  0
  3 36  1  0
  4  5  1  0
  4 40  1  0
  5  6  2  0
  5 41  1  0
  6  7  1  0
  6 42  1  0
  7  8  1  0
  7 36  2  0
  8  9  1  0
  8 25  1  0
  9 10  2  0
  9 11  1  0
 11 12  2  0
 11 13  1  0
 13 14  2  0
 13 25  1  0
 14 15  1  0
 14 16  1  0
 15 43  1  0
 16 17  2  0
 16 22  1  0
 17 18  1  0
 17 44  1  0
 18 19  1  0
 18 20  2  0
 19 45  1  0
 19 46  1  0
 19 47  1  0
 20 21  1  0
 20 48  1  0
 21 22  2  0
 21 49  1  0
 22 23  1  0
 23 24  1  0
 24 50  1  0
 24 51  1  0
 24 52  1  0
 25 26  1  0
 25 53  1  1
 26 27  2  0
 26 35  1  0
 27 28  1  0
 27 54  1  0
 28 29  2  0
 28 55  1  0
 29 30  1  0
 29 56  1  0
 30 31  1  0
 30 35  2  0
 31 32  1  0
 32 33  1  0
 32 34  1  0
 32 57  1  1
 33 58  1  0
 33 59  1  0
 33 60  1  0
 34 61  1  0
 34 62  1  0
 34 63  1  0
 35 64  1  0
 36 65  1  0
M  END

