
     RDKit          3D

 47 48  0  0  0  0  0  0  0  0999 V2000
    1.4063   -0.8018   -0.5801 C   0  0  0  0  0  0  0  0  0  0  0  0
    2.4181    0.2614   -0.1326 C   0  0  1  0  0  0  0  0  0  0  0  0
    3.0231   -0.1498    1.1326 N   0  0  0  0  0  0  0  0  0  0  0  0
    2.9107    0.5596    2.2938 C   0  0  0  0  0  0  0  0  0  0  0  0
    2.3246    1.6329    2.3623 O   0  0  0  0  0  0  0  0  0  0  0  0
    3.5791   -0.0668    3.5139 C   0  0  0  0  0  0  0  0  0  0  0  0
    4.7917    0.7234    4.0420 C   0  0  0  0  0  0  0  0  0  0  0  0
    4.5265    2.1751    4.4919 C   0  0  1  0  0  0  0  0  0  0  0  0
    3.5410    2.3335    5.6617 C   0  0  0  0  0  0  0  0  0  0  0  0
    4.1585    1.9218    7.0042 C   0  0  0  0  0  0  0  0  0  0  0  0
    5.4857    2.6622    7.2090 C   0  0  0  0  0  0  0  0  0  0  0  0
    6.3946    2.4636    5.9955 C   0  0  0  0  0  0  0  0  0  0  0  0
    5.7636    2.8325    4.7832 O   0  0  0  0  0  0  0  0  0  0  0  0
    3.5079    0.5631   -1.2002 C   0  0  1  0  0  0  0  0  0  0  0  0
    2.9314    1.0584   -2.5458 C   0  0  0  0  0  0  0  0  0  0  0  0
    2.4266    2.5032   -2.4674 C   0  0  0  0  0  0  0  0  0  0  0  0
    3.5024    3.3771   -2.0197 N   0  0  0  0  0  0  0  0  0  0  0  0
    4.0098    3.0206   -0.6971 C   0  0  0  0  0  0  0  0  0  0  0  0
    4.5569    1.5899   -0.7209 C   0  0  0  0  0  0  0  0  0  0  0  0
    0.6951   -1.0150    0.2321 H   0  0  0  0  0  0  0  0  0  0  0  0
    1.9113   -1.7462   -0.8500 H   0  0  0  0  0  0  0  0  0  0  0  0
    0.8259   -0.4743   -1.4544 H   0  0  0  0  0  0  0  0  0  0  0  0
    1.8741    1.1846    0.1123 H   0  0  0  0  0  0  0  0  0  0  0  0
    3.5134   -1.0367    1.1550 H   0  0  0  0  0  0  0  0  0  0  0  0
    3.8956   -1.1003    3.2957 H   0  0  0  0  0  0  0  0  0  0  0  0
    2.8037   -0.1348    4.2943 H   0  0  0  0  0  0  0  0  0  0  0  0
    5.5704    0.7699    3.2616 H   0  0  0  0  0  0  0  0  0  0  0  0
    5.2263    0.1407    4.8708 H   0  0  0  0  0  0  0  0  0  0  0  0
    4.1195    2.7213    3.6306 H   0  0  0  0  0  0  0  0  0  0  0  0
    2.6120    1.7822    5.4499 H   0  0  0  0  0  0  0  0  0  0  0  0
    3.2592    3.3991    5.7122 H   0  0  0  0  0  0  0  0  0  0  0  0
    4.3364    0.8308    7.0291 H   0  0  0  0  0  0  0  0  0  0  0  0
    3.4594    2.1365    7.8296 H   0  0  0  0  0  0  0  0  0  0  0  0
    6.0025    2.3192    8.1217 H   0  0  0  0  0  0  0  0  0  0  0  0
    5.2884    3.7417    7.3332 H   0  0  0  0  0  0  0  0  0  0  0  0
    6.7418    1.4095    5.9618 H   0  0  0  0  0  0  0  0  0  0  0  0
    7.2958    3.0929    6.0692 H   0  0  0  0  0  0  0  0  0  0  0  0
    4.0295   -0.3952   -1.3896 H   0  0  0  0  0  0  0  0  0  0  0  0
    2.1308    0.3972   -2.9120 H   0  0  0  0  0  0  0  0  0  0  0  0
    3.7385    1.0234   -3.2965 H   0  0  0  0  0  0  0  0  0  0  0  0
    1.5279    2.5476   -1.8082 H   0  0  0  0  0  0  0  0  0  0  0  0
    2.0948    2.8303   -3.4670 H   0  0  0  0  0  0  0  0  0  0  0  0
    3.2014    4.3494   -2.0348 H   0  0  0  0  0  0  0  0  0  0  0  0
    3.2420    3.1077    0.1027 H   0  0  0  0  0  0  0  0  0  0  0  0
    4.8215    3.7177   -0.4315 H   0  0  0  0  0  0  0  0  0  0  0  0
    4.9398    1.3180    0.2747 H   0  0  0  0  0  0  0  0  0  0  0  0
    5.4122    1.5592   -1.4168 H   0  0  0  0  0  0  0  0  0  0  0  0
  1  2  1  0
  1 20  1  0
  1 21  1  0
  1 22  1  0
  2  3  1  0
  2 14  1  0
  2 23  1  1
  3  4  1  0
  3 24  1  0
  4  5  2  0
  4  6  1  0
  6  7  1  0
  6 25  1  0
  6 26  1  0
  7  8  1  0
  7 27  1  0
  7 28  1  0
  8  9  1  0
  8 13  1  0
  8 29  1  6
  9 10  1  0
  9 30  1  0
  9 31  1  0
 10 11  1  0
 10 32  1  0
 10 33  1  0
 11 12  1  0
 11 34  1  0
 11 35  1  0
 12 13  1  0
 12 36  1  0
 12 37  1  0
 14 15  1  0
 14 19  1  0
 14 38  1  6
 15 16  1  0
 15 39  1  0
 15 40  1  0
 16 17  1  0
 16 41  1  0
 16 42  1  0
 17 18  1  0
 17 43  1  0
 18 19  1  0
 18 44  1  0
 18 45  1  0
 19 46  1  0
 19 47  1  0
M  END

