
     RDKit          3D

 40 41  0  0  0  0  0  0  0  0999 V2000
    3.6141    0.6511    1.1155 N   0  0  0  0  0  0  0  0  0  0  0  0
    4.1330    0.5343   -0.2363 C   0  0  0  0  0  0  0  0  0  0  0  0
    3.1196    1.0457   -1.2777 C   0  0  1  0  0  0  0  0  0  0  0  0
    2.5296    2.2926   -0.7846 N   0  0  0  0  0  0  0  0  0  0  0  0
    1.2870    2.6829   -1.1587 C   0  0  0  0  0  0  0  0  0  0  0  0
    0.6171    2.1575   -2.0312 O   0  0  0  0  0  0  0  0  0  0  0  0
    0.7339    3.9303   -0.4414 C   0  0  0  0  0  0  0  0  0  0  0  0
    0.8576    3.8177    1.3713 S   0  0  1  0  0  0  0  0  0  0  0  0
    0.1509    2.6071    1.8089 O   0  0  0  0  0  0  0  0  0  0  0  0
    2.2738    4.0339    1.7242 O   0  0  0  0  0  0  0  0  0  0  0  0
   -0.0927    5.2777    1.9720 C   0  0  0  0  0  0  0  0  0  0  0  0
   -0.0393    5.3252    3.4704 C   0  0  0  0  0  0  0  0  0  0  0  0
    0.9852    6.0245    4.1264 C   0  0  0  0  0  0  0  0  0  0  0  0
    1.0634    6.0400    5.5196 C   0  0  0  0  0  0  0  0  0  0  0  0
    0.1118    5.3382    6.2649 C   0  0  0  0  0  0  0  0  0  0  0  0
    0.2057    5.3596    8.1685 Br  0  0  0  0  0  0  0  0  0  0  0  0
   -0.9073    4.6202    5.6326 C   0  0  0  0  0  0  0  0  0  0  0  0
   -0.9738    4.6139    4.2388 C   0  0  0  0  0  0  0  0  0  0  0  0
    3.7861    1.1956   -2.6359 C   0  0  1  0  0  0  0  0  0  0  0  0
    3.9143   -0.0073   -3.5423 C   0  0  0  0  0  0  0  0  0  0  0  0
    2.9931    1.1238   -3.9143 C   0  0  0  0  0  0  0  0  0  0  0  0
    4.3237    0.4367    1.8130 H   0  0  0  0  0  0  0  0  0  0  0  0
    2.8229    0.0281    1.2783 H   0  0  0  0  0  0  0  0  0  0  0  0
    4.4340   -0.4872   -0.5469 H   0  0  0  0  0  0  0  0  0  0  0  0
    5.0443    1.1553   -0.3008 H   0  0  0  0  0  0  0  0  0  0  0  0
    2.3002    0.3098   -1.3800 H   0  0  0  0  0  0  0  0  0  0  0  0
    2.8854    2.6206    0.1172 H   0  0  0  0  0  0  0  0  0  0  0  0
   -0.3267    4.0190   -0.7075 H   0  0  0  0  0  0  0  0  0  0  0  0
    1.2869    4.8343   -0.7377 H   0  0  0  0  0  0  0  0  0  0  0  0
   -1.1139    5.1446    1.5877 H   0  0  0  0  0  0  0  0  0  0  0  0
    0.3740    6.1557    1.5035 H   0  0  0  0  0  0  0  0  0  0  0  0
    1.7375    6.5598    3.5424 H   0  0  0  0  0  0  0  0  0  0  0  0
    1.8594    6.5908    6.0230 H   0  0  0  0  0  0  0  0  0  0  0  0
   -1.6403    4.0692    6.2237 H   0  0  0  0  0  0  0  0  0  0  0  0
   -1.7595    4.0395    3.7426 H   0  0  0  0  0  0  0  0  0  0  0  0
    4.6345    1.8907   -2.6259 H   0  0  0  0  0  0  0  0  0  0  0  0
    3.4608   -0.9466   -3.2097 H   0  0  0  0  0  0  0  0  0  0  0  0
    4.8451   -0.1386   -4.1013 H   0  0  0  0  0  0  0  0  0  0  0  0
    1.9155    0.9756   -3.8189 H   0  0  0  0  0  0  0  0  0  0  0  0
    3.2903    1.7844   -4.7338 H   0  0  0  0  0  0  0  0  0  0  0  0
  1  2  1  0
  1 22  1  0
  1 23  1  0
  2  3  1  0
  2 24  1  0
  2 25  1  0
  3  4  1  0
  3 19  1  0
  3 26  1  6
  4  5  1  0
  4 27  1  0
  5  6  2  0
  5  7  1  0
  8  7  1  6
  7 28  1  0
  7 29  1  0
  8  9  2  0
  8 10  2  0
  8 11  1  0
 11 12  1  0
 11 30  1  0
 11 31  1  0
 12 13  2  0
 12 18  1  0
 13 14  1  0
 13 32  1  0
 14 15  2  0
 14 33  1  0
 15 16  1  0
 15 17  1  0
 17 18  2  0
 17 34  1  0
 18 35  1  0
 19 20  1  0
 19 21  1  0
 19 36  1  1
 20 21  1  0
 20 37  1  0
 20 38  1  0
 21 39  1  0
 21 40  1  0
M  END

