
     RDKit          3D

 46 49  0  0  0  0  0  0  0  0999 V2000
    4.6700    4.2179   -2.6307 C   0  0  0  0  0  0  0  0  0  0  0  0
    5.4114    2.9086   -2.3997 C   0  0  0  0  0  0  0  0  0  0  0  0
    5.8984    2.3207   -3.3456 O   0  0  0  0  0  0  0  0  0  0  0  0
    5.5291    2.4025   -0.9874 C   0  0  0  0  0  0  0  0  0  0  0  0
    5.6070    3.3719    0.0310 C   0  0  0  0  0  0  0  0  0  0  0  0
    5.7367    3.0335    1.3752 C   0  0  0  0  0  0  0  0  0  0  0  0
    5.7540    1.6846    1.7350 C   0  0  0  0  0  0  0  0  0  0  0  0
    5.6541    0.7050    0.7526 C   0  0  0  0  0  0  0  0  0  0  0  0
    5.5559    1.0210   -0.6227 C   0  0  0  0  0  0  0  0  0  0  0  0
    5.4275   -0.1278   -1.5311 C   0  0  0  0  0  0  0  0  0  0  0  0
    5.7856   -0.4361   -2.8343 C   0  0  0  0  0  0  0  0  0  0  0  0
    5.4395   -1.7911   -3.0487 C   0  0  0  0  0  0  0  0  0  0  0  0
    4.8863   -2.2561   -1.8677 C   0  0  0  0  0  0  0  0  0  0  0  0
    4.3580   -3.5277   -1.5049 C   0  0  0  0  0  0  0  0  0  0  0  0
    3.8259   -3.9065   -0.3104 C   0  0  0  0  0  0  0  0  0  0  0  0
    3.6173   -2.9514    1.1542 S   0  0  0  0  0  0  0  0  0  0  0  0
    2.8974   -4.3110    2.0361 C   0  0  0  0  0  0  0  0  0  0  0  0
    2.4374   -4.1810    3.6055 S   0  0  0  0  0  0  0  0  0  0  0  0
    2.8168   -5.4233    1.2113 N   0  0  0  0  0  0  0  0  0  0  0  0
    2.2669   -6.6779    1.6362 C   0  0  0  0  0  0  0  0  0  0  0  0
    3.0707   -7.8237    1.6217 C   0  0  0  0  0  0  0  0  0  0  0  0
    2.5356   -9.0487    2.0115 C   0  0  0  0  0  0  0  0  0  0  0  0
    1.1928   -9.1479    2.4042 C   0  0  0  0  0  0  0  0  0  0  0  0
    0.6841  -10.5008    2.8233 C   0  0  0  0  0  0  0  0  0  0  0  0
    1.4096  -11.4059    3.1392 O   0  0  0  0  0  0  0  0  0  0  0  0
   -0.6583  -10.6668    2.8257 O   0  0  0  0  0  0  0  0  0  0  0  0
    0.4005   -7.9891    2.4247 C   0  0  0  0  0  0  0  0  0  0  0  0
    0.9303   -6.7583    2.0396 C   0  0  0  0  0  0  0  0  0  0  0  0
    3.3255   -5.2850   -0.1089 C   0  0  0  0  0  0  0  0  0  0  0  0
    3.3319   -6.1815   -0.9211 O   0  0  0  0  0  0  0  0  0  0  0  0
    4.8868   -1.2463   -0.9528 O   0  0  0  0  0  0  0  0  0  0  0  0
    4.4454    4.2973   -3.7022 H   0  0  0  0  0  0  0  0  0  0  0  0
    5.3064    5.0749   -2.3541 H   0  0  0  0  0  0  0  0  0  0  0  0
    3.7448    4.2864   -2.0395 H   0  0  0  0  0  0  0  0  0  0  0  0
    5.5798    4.4278   -0.2407 H   0  0  0  0  0  0  0  0  0  0  0  0
    5.8157    3.8158    2.1334 H   0  0  0  0  0  0  0  0  0  0  0  0
    5.8442    1.3904    2.7834 H   0  0  0  0  0  0  0  0  0  0  0  0
    5.6599   -0.3440    1.0472 H   0  0  0  0  0  0  0  0  0  0  0  0
    6.2515    0.2510   -3.5288 H   0  0  0  0  0  0  0  0  0  0  0  0
    5.5798   -2.3713   -3.9584 H   0  0  0  0  0  0  0  0  0  0  0  0
    4.3820   -4.3017   -2.2777 H   0  0  0  0  0  0  0  0  0  0  0  0
    4.1117   -7.7528    1.3045 H   0  0  0  0  0  0  0  0  0  0  0  0
    3.1488   -9.9514    2.0201 H   0  0  0  0  0  0  0  0  0  0  0  0
   -1.0961   -9.9075    2.4168 H   0  0  0  0  0  0  0  0  0  0  0  0
   -0.6368   -8.0219    2.7705 H   0  0  0  0  0  0  0  0  0  0  0  0
    0.3134   -5.8599    2.0638 H   0  0  0  0  0  0  0  0  0  0  0  0
  1  2  1  0
  1 32  1  0
  1 33  1  0
  1 34  1  0
  2  3  2  0
  2  4  1  0
  4  5  2  0
  4  9  1  0
  5  6  1  0
  5 35  1  0
  6  7  2  0
  6 36  1  0
  7  8  1  0
  7 37  1  0
  8  9  2  0
  8 38  1  0
  9 10  1  0
 10 11  2  0
 10 31  1  0
 11 12  1  0
 11 39  1  0
 12 13  2  0
 12 40  1  0
 13 14  1  0
 13 31  1  0
 14 15  2  0
 14 41  1  0
 15 16  1  0
 15 29  1  0
 16 17  1  0
 17 18  2  0
 17 19  1  0
 19 20  1  0
 19 29  1  0
 20 21  2  0
 20 28  1  0
 21 22  1  0
 21 42  1  0
 22 23  2  0
 22 43  1  0
 23 24  1  0
 23 27  1  0
 24 25  2  0
 24 26  1  0
 26 44  1  0
 27 28  2  0
 27 45  1  0
 28 46  1  0
 29 30  2  0
M  END

