
     RDKit          3D

 30 32  0  0  0  0  0  0  0  0999 V2000
    0.9869    0.0443   -0.1164 N   0  0  0  0  0  0  0  0  0  0  0  0
    2.4323   -0.0204    0.0053 C   0  0  2  0  0  0  0  0  0  0  0  0
    2.8690   -0.6611    1.2083 O   0  0  0  0  0  0  0  0  0  0  0  0
    2.9944    1.4087   -0.0675 C   0  0  0  0  0  0  0  0  0  0  0  0
    2.7745    2.0267   -1.4487 C   0  0  0  0  0  0  0  0  0  0  0  0
    3.5109    1.2222   -2.5226 C   0  0  0  0  0  0  0  0  0  0  0  0
    3.3829   -0.2831   -2.3818 C   0  0  0  0  0  0  0  0  0  0  0  0
    3.7567   -1.0021   -3.4213 N   0  0  0  0  0  0  0  0  0  0  0  0
    3.7600   -2.3581   -3.3407 C   0  0  0  0  0  0  0  0  0  0  0  0
    4.1533   -3.1199   -4.4772 C   0  0  0  0  0  0  0  0  0  0  0  0
    4.1853   -4.4975   -4.4189 C   0  0  0  0  0  0  0  0  0  0  0  0
    3.8286   -5.1788   -3.2256 C   0  0  0  0  0  0  0  0  0  0  0  0
    3.4416   -4.4682   -2.1084 C   0  0  0  0  0  0  0  0  0  0  0  0
    3.3934   -3.0473   -2.1397 C   0  0  0  0  0  0  0  0  0  0  0  0
    2.9898   -2.2512   -1.0381 C   0  0  0  0  0  0  0  0  0  0  0  0
    2.9571   -0.8769   -1.1473 C   0  0  0  0  0  0  0  0  0  0  0  0
    0.5754    0.5833    0.6473 H   0  0  0  0  0  0  0  0  0  0  0  0
    0.5807   -0.8904   -0.0993 H   0  0  0  0  0  0  0  0  0  0  0  0
    2.5837   -0.1131    1.9522 H   0  0  0  0  0  0  0  0  0  0  0  0
    4.0688    1.3624    0.1758 H   0  0  0  0  0  0  0  0  0  0  0  0
    2.5123    2.0190    0.7185 H   0  0  0  0  0  0  0  0  0  0  0  0
    3.1196    3.0731   -1.4621 H   0  0  0  0  0  0  0  0  0  0  0  0
    1.6937    2.0363   -1.6592 H   0  0  0  0  0  0  0  0  0  0  0  0
    4.5926    1.4509   -2.4808 H   0  0  0  0  0  0  0  0  0  0  0  0
    3.1906    1.5025   -3.5377 H   0  0  0  0  0  0  0  0  0  0  0  0
    4.4275   -2.5729   -5.3814 H   0  0  0  0  0  0  0  0  0  0  0  0
    4.4898   -5.0742   -5.2963 H   0  0  0  0  0  0  0  0  0  0  0  0
    3.8623   -6.2709   -3.1965 H   0  0  0  0  0  0  0  0  0  0  0  0
    3.1643   -4.9868   -1.1861 H   0  0  0  0  0  0  0  0  0  0  0  0
    2.7125   -2.7267   -0.0943 H   0  0  0  0  0  0  0  0  0  0  0  0
  1  2  1  0
  1 17  1  0
  1 18  1  0
  2  3  1  1
  2  4  1  0
  2 16  1  0
  3 19  1  0
  4  5  1  0
  4 20  1  0
  4 21  1  0
  5  6  1  0
  5 22  1  0
  5 23  1  0
  6  7  1  0
  6 24  1  0
  6 25  1  0
  7  8  1  0
  7 16  2  0
  8  9  2  0
  9 10  1  0
  9 14  1  0
 10 11  2  0
 10 26  1  0
 11 12  1  0
 11 27  1  0
 12 13  2  0
 12 28  1  0
 13 14  1  0
 13 29  1  0
 14 15  2  0
 15 16  1  0
 15 30  1  0
M  END

