
     RDKit          3D

 60 62  0  0  0  0  0  0  0  0999 V2000
    1.9732    0.9484   -2.7851 C   0  0  0  0  0  0  0  0  0  0  0  0
    2.2530    0.4539   -1.3655 C   0  0  0  0  0  0  0  0  0  0  0  0
    2.7557    1.4946   -0.4674 N   0  0  0  0  0  0  0  0  0  0  0  0
    1.7900    2.3164    0.2439 C   0  0  0  0  0  0  0  0  0  0  0  0
    1.3991    1.7739    1.6392 C   0  0  0  0  0  0  0  0  0  0  0  0
    0.3567    2.6280    2.3247 C   0  0  0  0  0  0  0  0  0  0  0  0
   -1.0117    2.4258    2.0800 C   0  0  0  0  0  0  0  0  0  0  0  0
   -1.9772    3.2428    2.6742 C   0  0  0  0  0  0  0  0  0  0  0  0
   -1.5901    4.2816    3.5263 C   0  0  0  0  0  0  0  0  0  0  0  0
   -0.2322    4.4945    3.7804 C   0  0  0  0  0  0  0  0  0  0  0  0
    0.7296    3.6746    3.1835 C   0  0  0  0  0  0  0  0  0  0  0  0
    4.1206    1.7099   -0.4492 C   0  0  0  0  0  0  0  0  0  0  0  0
    4.8887    1.1028   -1.1862 O   0  0  0  0  0  0  0  0  0  0  0  0
    4.5826    2.6705    0.4383 N   0  0  0  0  0  0  0  0  0  0  0  0
    6.0016    2.9259    0.5433 C   0  0  1  0  0  0  0  0  0  0  0  0
    6.3403    4.2648    1.2110 C   0  0  0  0  0  0  0  0  0  0  0  0
    7.8199    4.1129    1.5726 C   0  0  0  0  0  0  0  0  0  0  0  0
    7.9813    2.6686    1.7955 N   0  0  0  0  0  0  0  0  0  0  0  0
    9.1348    2.2016    2.3677 C   0  0  0  0  0  0  0  0  0  0  0  0
   10.0265    2.9835    2.6806 O   0  0  0  0  0  0  0  0  0  0  0  0
    9.2541    0.6861    2.5594 C   0  0  1  0  0  0  0  0  0  0  0  0
    9.8196    0.0172    1.2788 C   0  0  0  0  0  0  0  0  0  0  0  0
   11.3182    0.2816    1.0859 C   0  0  0  0  0  0  0  0  0  0  0  0
   12.1231   -0.1708    2.3108 C   0  0  0  0  0  0  0  0  0  0  0  0
   11.6220    0.5131    3.5887 C   0  0  0  0  0  0  0  0  0  0  0  0
   10.1120    0.3144    3.7893 C   0  0  0  0  0  0  0  0  0  0  0  0
    6.8022    1.9086    1.3864 C   0  0  0  0  0  0  0  0  0  0  0  0
    1.5719    0.1310   -3.4061 H   0  0  0  0  0  0  0  0  0  0  0  0
    2.9039    1.3072   -3.2491 H   0  0  0  0  0  0  0  0  0  0  0  0
    1.2376    1.7698   -2.7951 H   0  0  0  0  0  0  0  0  0  0  0  0
    3.0013   -0.3498   -1.3983 H   0  0  0  0  0  0  0  0  0  0  0  0
    1.3377    0.0338   -0.9153 H   0  0  0  0  0  0  0  0  0  0  0  0
    0.8803    2.3980   -0.3731 H   0  0  0  0  0  0  0  0  0  0  0  0
    2.1727    3.3454    0.3351 H   0  0  0  0  0  0  0  0  0  0  0  0
    2.3034    1.7046    2.2672 H   0  0  0  0  0  0  0  0  0  0  0  0
    1.0264    0.7432    1.5210 H   0  0  0  0  0  0  0  0  0  0  0  0
   -1.3258    1.6108    1.4208 H   0  0  0  0  0  0  0  0  0  0  0  0
   -3.0370    3.0645    2.4744 H   0  0  0  0  0  0  0  0  0  0  0  0
   -2.3441    4.9194    3.9943 H   0  0  0  0  0  0  0  0  0  0  0  0
    0.0804    5.2999    4.4502 H   0  0  0  0  0  0  0  0  0  0  0  0
    1.7894    3.8450    3.3976 H   0  0  0  0  0  0  0  0  0  0  0  0
    4.0105    2.9369    1.2295 H   0  0  0  0  0  0  0  0  0  0  0  0
    6.4066    2.9060   -0.4795 H   0  0  0  0  0  0  0  0  0  0  0  0
    5.7348    4.3855    2.1277 H   0  0  0  0  0  0  0  0  0  0  0  0
    6.1402    5.1294    0.5617 H   0  0  0  0  0  0  0  0  0  0  0  0
    8.1199    4.6755    2.4688 H   0  0  0  0  0  0  0  0  0  0  0  0
    8.4797    4.4500    0.7532 H   0  0  0  0  0  0  0  0  0  0  0  0
    8.2415    0.2855    2.7263 H   0  0  0  0  0  0  0  0  0  0  0  0
    9.2527    0.3470    0.3921 H   0  0  0  0  0  0  0  0  0  0  0  0
    9.6538   -1.0721    1.3640 H   0  0  0  0  0  0  0  0  0  0  0  0
   11.4855    1.3594    0.9174 H   0  0  0  0  0  0  0  0  0  0  0  0
   11.6698   -0.2392    0.1790 H   0  0  0  0  0  0  0  0  0  0  0  0
   13.1957    0.0397    2.1621 H   0  0  0  0  0  0  0  0  0  0  0  0
   12.0340   -1.2693    2.4157 H   0  0  0  0  0  0  0  0  0  0  0  0
   11.8303    1.5916    3.5316 H   0  0  0  0  0  0  0  0  0  0  0  0
   12.1619    0.1199    4.4674 H   0  0  0  0  0  0  0  0  0  0  0  0
    9.7694    0.8851    4.6679 H   0  0  0  0  0  0  0  0  0  0  0  0
    9.9161   -0.7506    4.0124 H   0  0  0  0  0  0  0  0  0  0  0  0
    6.1967    1.5834    2.2558 H   0  0  0  0  0  0  0  0  0  0  0  0
    7.0506    1.0176    0.7937 H   0  0  0  0  0  0  0  0  0  0  0  0
  1  2  1  0
  1 28  1  0
  1 29  1  0
  1 30  1  0
  2  3  1  0
  2 31  1  0
  2 32  1  0
  3  4  1  0
  3 12  1  0
  4  5  1  0
  4 33  1  0
  4 34  1  0
  5  6  1  0
  5 35  1  0
  5 36  1  0
  6  7  2  0
  6 11  1  0
  7  8  1  0
  7 37  1  0
  8  9  2  0
  8 38  1  0
  9 10  1  0
  9 39  1  0
 10 11  2  0
 10 40  1  0
 11 41  1  0
 12 13  2  0
 12 14  1  0
 14 15  1  0
 14 42  1  0
 15 16  1  0
 15 27  1  0
 15 43  1  6
 16 17  1  0
 16 44  1  0
 16 45  1  0
 17 18  1  0
 17 46  1  0
 17 47  1  0
 18 19  1  0
 18 27  1  0
 19 20  2  0
 19 21  1  0
 21 22  1  0
 21 26  1  0
 21 48  1  1
 22 23  1  0
 22 49  1  0
 22 50  1  0
 23 24  1  0
 23 51  1  0
 23 52  1  0
 24 25  1  0
 24 53  1  0
 24 54  1  0
 25 26  1  0
 25 55  1  0
 25 56  1  0
 26 57  1  0
 26 58  1  0
 27 59  1  0
 27 60  1  0
M  END

