
     RDKit          3D

 51 52  0  0  0  0  0  0  0  0999 V2000
    0.8921    1.4452    1.2867 C   0  0  0  0  0  0  0  0  0  0  0  0
    2.3988    1.3350    0.9961 C   0  0  1  0  0  0  0  0  0  0  0  0
    2.8433   -0.0100    0.5848 N   0  0  0  0  0  0  0  0  0  0  0  0
    2.3685   -0.4479   -0.7311 C   0  0  0  0  0  0  0  0  0  0  0  0
    2.8538    0.5195   -1.8135 C   0  0  0  0  0  0  0  0  0  0  0  0
    2.4470    1.9606   -1.4815 C   0  0  0  0  0  0  0  0  0  0  0  0
    2.8761    2.3703   -0.0519 C   0  0  2  0  0  0  0  0  0  0  0  0
    4.3855    2.6814   -0.0197 C   0  0  0  0  0  0  0  0  0  0  0  0
    4.7946    3.7873   -0.3482 O   0  0  0  0  0  0  0  0  0  0  0  0
    5.2035    1.6601    0.3525 N   0  0  0  0  0  0  0  0  0  0  0  0
    6.6487    1.7880    0.3916 C   0  0  0  0  0  0  0  0  0  0  0  0
    7.2044    2.1950    1.7636 C   0  0  0  0  0  0  0  0  0  0  0  0
    6.7488    1.3022    2.9260 C   0  0  0  0  0  0  0  0  0  0  0  0
    6.9137   -0.1285    2.6789 N   0  0  0  0  0  0  0  0  0  0  0  0
    8.3019   -0.5918    2.6223 C   0  0  0  0  0  0  0  0  0  0  0  0
    8.9479   -0.8047    4.0023 C   0  0  0  0  0  0  0  0  0  0  0  0
    8.0914   -1.7509    4.8534 C   0  0  0  0  0  0  0  0  0  0  0  0
    6.6384   -1.2579    4.9061 C   0  0  0  0  0  0  0  0  0  0  0  0
    6.0516   -1.0019    3.4957 C   0  0  2  0  0  0  0  0  0  0  0  0
    5.7074   -2.2984    2.7482 C   0  0  0  0  0  0  0  0  0  0  0  0
    0.5874    0.6965    2.0371 H   0  0  0  0  0  0  0  0  0  0  0  0
    0.2721    1.2910    0.3905 H   0  0  0  0  0  0  0  0  0  0  0  0
    0.6481    2.4403    1.6913 H   0  0  0  0  0  0  0  0  0  0  0  0
    2.9237    1.5535    1.9424 H   0  0  0  0  0  0  0  0  0  0  0  0
    2.5992   -0.6943    1.2988 H   0  0  0  0  0  0  0  0  0  0  0  0
    1.2609   -0.5261   -0.7837 H   0  0  0  0  0  0  0  0  0  0  0  0
    2.7630   -1.4600   -0.9174 H   0  0  0  0  0  0  0  0  0  0  0  0
    2.4406    0.2196   -2.7908 H   0  0  0  0  0  0  0  0  0  0  0  0
    3.9511    0.4494   -1.8941 H   0  0  0  0  0  0  0  0  0  0  0  0
    1.3509    2.0595   -1.5696 H   0  0  0  0  0  0  0  0  0  0  0  0
    2.8818    2.6712   -2.2017 H   0  0  0  0  0  0  0  0  0  0  0  0
    2.4100    3.3400    0.1782 H   0  0  0  0  0  0  0  0  0  0  0  0
    4.7610    0.7621    0.5597 H   0  0  0  0  0  0  0  0  0  0  0  0
    6.9384    2.5458   -0.3518 H   0  0  0  0  0  0  0  0  0  0  0  0
    7.0814    0.8223    0.0890 H   0  0  0  0  0  0  0  0  0  0  0  0
    6.8926    3.2287    1.9892 H   0  0  0  0  0  0  0  0  0  0  0  0
    8.3061    2.2213    1.6947 H   0  0  0  0  0  0  0  0  0  0  0  0
    5.6723    1.4763    3.0839 H   0  0  0  0  0  0  0  0  0  0  0  0
    7.2507    1.6543    3.8549 H   0  0  0  0  0  0  0  0  0  0  0  0
    8.8911    0.1220    2.0271 H   0  0  0  0  0  0  0  0  0  0  0  0
    8.3337   -1.5450    2.0644 H   0  0  0  0  0  0  0  0  0  0  0  0
    9.0528    0.1655    4.5203 H   0  0  0  0  0  0  0  0  0  0  0  0
    9.9696   -1.2029    3.8780 H   0  0  0  0  0  0  0  0  0  0  0  0
    8.5011   -1.8385    5.8737 H   0  0  0  0  0  0  0  0  0  0  0  0
    8.1299   -2.7672    4.4207 H   0  0  0  0  0  0  0  0  0  0  0  0
    6.6039   -0.3133    5.4776 H   0  0  0  0  0  0  0  0  0  0  0  0
    6.0019   -1.9737    5.4543 H   0  0  0  0  0  0  0  0  0  0  0  0
    5.1022   -0.4563    3.6265 H   0  0  0  0  0  0  0  0  0  0  0  0
    6.5899   -2.9273    2.5547 H   0  0  0  0  0  0  0  0  0  0  0  0
    5.2461   -2.0596    1.7778 H   0  0  0  0  0  0  0  0  0  0  0  0
    4.9971   -2.9047    3.3337 H   0  0  0  0  0  0  0  0  0  0  0  0
  1  2  1  0
  1 21  1  0
  1 22  1  0
  1 23  1  0
  2  3  1  0
  2  7  1  0
  2 24  1  1
  3  4  1  0
  3 25  1  0
  4  5  1  0
  4 26  1  0
  4 27  1  0
  5  6  1  0
  5 28  1  0
  5 29  1  0
  6  7  1  0
  6 30  1  0
  6 31  1  0
  7  8  1  0
  7 32  1  1
  8  9  2  0
  8 10  1  0
 10 11  1  0
 10 33  1  0
 11 12  1  0
 11 34  1  0
 11 35  1  0
 12 13  1  0
 12 36  1  0
 12 37  1  0
 13 14  1  0
 13 38  1  0
 13 39  1  0
 14 15  1  0
 14 19  1  0
 15 16  1  0
 15 40  1  0
 15 41  1  0
 16 17  1  0
 16 42  1  0
 16 43  1  0
 17 18  1  0
 17 44  1  0
 17 45  1  0
 18 19  1  0
 18 46  1  0
 18 47  1  0
 19 20  1  0
 19 48  1  1
 20 49  1  0
 20 50  1  0
 20 51  1  0
M  END

