
     RDKit          3D

 36 37  0  0  0  0  0  0  0  0999 V2000
    1.6070    0.0143    1.7532 C   0  0  0  0  0  0  0  0  0  0  0  0
    2.8733    0.1640    0.9475 C   0  0  0  0  0  0  0  0  0  0  0  0
    4.0419    0.6941    1.5220 C   0  0  0  0  0  0  0  0  0  0  0  0
    5.2082    0.8541    0.7737 C   0  0  0  0  0  0  0  0  0  0  0  0
    5.2110    0.4700   -0.5705 C   0  0  0  0  0  0  0  0  0  0  0  0
    6.6980    0.6987   -1.5474 S   0  0  1  0  0  0  0  0  0  0  0  0
    6.3331    0.4903   -2.9524 O   0  0  0  0  0  0  0  0  0  0  0  0
    7.3475    1.9372   -1.1072 O   0  0  0  0  0  0  0  0  0  0  0  0
    7.6940   -0.5801   -1.0211 N   0  0  0  0  0  0  0  0  0  0  0  0
    7.3987   -1.8779   -1.6222 C   0  0  0  0  0  0  0  0  0  0  0  0
    9.1071   -0.2801   -0.8039 C   0  0  0  0  0  0  0  0  0  0  0  0
    9.6574   -0.8958    0.4725 C   0  0  0  0  0  0  0  0  0  0  0  0
    8.8144   -1.3155    1.5116 C   0  0  0  0  0  0  0  0  0  0  0  0
    9.3107   -1.8581    2.6982 C   0  0  0  0  0  0  0  0  0  0  0  0
   10.6886   -1.9821    2.8493 C   0  0  0  0  0  0  0  0  0  0  0  0
   11.1857   -2.5026    3.9793 F   0  0  0  0  0  0  0  0  0  0  0  0
   11.5699   -1.5762    1.8514 C   0  0  0  0  0  0  0  0  0  0  0  0
   11.0422   -1.0372    0.6755 C   0  0  0  0  0  0  0  0  0  0  0  0
   12.1710   -0.5140   -0.5609 Cl  0  0  0  0  0  0  0  0  0  0  0  0
    4.0622   -0.0478   -1.1736 C   0  0  0  0  0  0  0  0  0  0  0  0
    2.9045   -0.2013   -0.4087 C   0  0  0  0  0  0  0  0  0  0  0  0
    1.7947    0.1280    2.8307 H   0  0  0  0  0  0  0  0  0  0  0  0
    1.1397   -0.9694    1.5878 H   0  0  0  0  0  0  0  0  0  0  0  0
    0.8639    0.7767    1.4624 H   0  0  0  0  0  0  0  0  0  0  0  0
    4.0356    0.9943    2.5733 H   0  0  0  0  0  0  0  0  0  0  0  0
    6.1059    1.2857    1.2204 H   0  0  0  0  0  0  0  0  0  0  0  0
    6.3196   -2.0842   -1.5784 H   0  0  0  0  0  0  0  0  0  0  0  0
    7.9113   -2.6568   -1.0382 H   0  0  0  0  0  0  0  0  0  0  0  0
    7.7263   -1.9406   -2.6752 H   0  0  0  0  0  0  0  0  0  0  0  0
    9.2218    0.8137   -0.7587 H   0  0  0  0  0  0  0  0  0  0  0  0
    9.7114   -0.6177   -1.6647 H   0  0  0  0  0  0  0  0  0  0  0  0
    7.7370   -1.2077    1.3722 H   0  0  0  0  0  0  0  0  0  0  0  0
    8.6480   -2.1838    3.5020 H   0  0  0  0  0  0  0  0  0  0  0  0
   12.6460   -1.6786    1.9920 H   0  0  0  0  0  0  0  0  0  0  0  0
    4.0828   -0.3111   -2.2325 H   0  0  0  0  0  0  0  0  0  0  0  0
    2.0042   -0.6079   -0.8781 H   0  0  0  0  0  0  0  0  0  0  0  0
  1  2  1  0
  1 22  1  0
  1 23  1  0
  1 24  1  0
  2  3  2  0
  2 21  1  0
  3  4  1  0
  3 25  1  0
  4  5  2  0
  4 26  1  0
  5  6  1  0
  5 20  1  0
  6  7  2  0
  6  8  2  0
  6  9  1  1
  9 10  1  0
  9 11  1  0
 10 27  1  0
 10 28  1  0
 10 29  1  0
 11 12  1  0
 11 30  1  0
 11 31  1  0
 12 13  2  0
 12 18  1  0
 13 14  1  0
 13 32  1  0
 14 15  2  0
 14 33  1  0
 15 16  1  0
 15 17  1  0
 17 18  2  0
 17 34  1  0
 18 19  1  0
 20 21  2  0
 20 35  1  0
 21 36  1  0
M  END

