
     RDKit          3D

 48 50  0  0  0  0  0  0  0  0999 V2000
    0.7208    0.1832    1.0880 C   0  0  0  0  0  0  0  0  0  0  0  0
    2.1710   -0.2606    1.0695 C   0  0  0  0  0  0  0  0  0  0  0  0
    2.9773    0.8646    1.3734 O   0  0  0  0  0  0  0  0  0  0  0  0
    4.3176    0.7297    1.4196 C   0  0  0  0  0  0  0  0  0  0  0  0
    5.0082   -0.4480    1.1892 C   0  0  0  0  0  0  0  0  0  0  0  0
    6.4194   -0.5058    1.2613 C   0  0  0  0  0  0  0  0  0  0  0  0
    7.1729    0.6161    1.5640 C   0  0  0  0  0  0  0  0  0  0  0  0
    8.5765    0.5895    1.6567 N   0  0  0  0  0  0  0  0  0  0  0  0
    9.4345   -0.4397    1.4060 C   0  0  0  0  0  0  0  0  0  0  0  0
    9.1198   -1.5605    1.0400 O   0  0  0  0  0  0  0  0  0  0  0  0
   10.9334   -0.0920    1.6570 C   0  0  1  0  0  0  0  0  0  0  0  0
   11.7220   -0.5221    0.4158 C   0  0  0  0  0  0  0  0  0  0  0  0
   10.9940    1.3319    1.8359 O   0  0  0  0  0  0  0  0  0  0  0  0
   12.2377    1.9356    2.1560 C   0  0  0  0  0  0  0  0  0  0  0  0
   12.0133    3.4290    2.3131 C   0  0  0  0  0  0  0  0  0  0  0  0
   11.3363   -0.7957    2.9589 C   0  0  1  0  0  0  0  0  0  0  0  0
   11.5124   -2.2870    3.0569 C   0  0  0  0  0  0  0  0  0  0  0  0
   12.7039   -1.3847    3.2286 C   0  0  0  0  0  0  0  0  0  0  0  0
    6.4965    1.8642    1.8000 C   0  0  0  0  0  0  0  0  0  0  0  0
    7.1619    3.0836    2.1003 C   0  0  0  0  0  0  0  0  0  0  0  0
    6.4358    4.2350    2.3175 C   0  0  0  0  0  0  0  0  0  0  0  0
    5.0244    4.1699    2.2332 C   0  0  0  0  0  0  0  0  0  0  0  0
    4.3677    3.0669    1.9526 N   0  0  0  0  0  0  0  0  0  0  0  0
    5.0615    1.9233    1.7336 C   0  0  0  0  0  0  0  0  0  0  0  0
    0.0592   -0.6659    0.8555 H   0  0  0  0  0  0  0  0  0  0  0  0
    0.5488    0.9759    0.3441 H   0  0  0  0  0  0  0  0  0  0  0  0
    0.4492    0.5787    2.0785 H   0  0  0  0  0  0  0  0  0  0  0  0
    2.4457   -0.6661    0.0767 H   0  0  0  0  0  0  0  0  0  0  0  0
    2.3463   -1.0634    1.8114 H   0  0  0  0  0  0  0  0  0  0  0  0
    4.4733   -1.3658    0.9463 H   0  0  0  0  0  0  0  0  0  0  0  0
    6.9325   -1.4462    1.0740 H   0  0  0  0  0  0  0  0  0  0  0  0
    9.0601    1.4440    1.9115 H   0  0  0  0  0  0  0  0  0  0  0  0
   11.3972    0.0812   -0.4452 H   0  0  0  0  0  0  0  0  0  0  0  0
   11.5211   -1.5761    0.1853 H   0  0  0  0  0  0  0  0  0  0  0  0
   12.8046   -0.3844    0.5456 H   0  0  0  0  0  0  0  0  0  0  0  0
   12.9767    1.7462    1.3552 H   0  0  0  0  0  0  0  0  0  0  0  0
   12.6493    1.5071    3.0875 H   0  0  0  0  0  0  0  0  0  0  0  0
   11.6083    3.8623    1.3853 H   0  0  0  0  0  0  0  0  0  0  0  0
   12.9619    3.9371    2.5470 H   0  0  0  0  0  0  0  0  0  0  0  0
   11.3032    3.6345    3.1299 H   0  0  0  0  0  0  0  0  0  0  0  0
   10.8458   -0.3231    3.8177 H   0  0  0  0  0  0  0  0  0  0  0  0
   11.4303   -2.8706    2.1376 H   0  0  0  0  0  0  0  0  0  0  0  0
   11.0986   -2.7878    3.9363 H   0  0  0  0  0  0  0  0  0  0  0  0
   13.4508   -1.3696    2.4305 H   0  0  0  0  0  0  0  0  0  0  0  0
   13.1243   -1.2489    4.2294 H   0  0  0  0  0  0  0  0  0  0  0  0
    8.2520    3.1305    2.1565 H   0  0  0  0  0  0  0  0  0  0  0  0
    6.9320    5.1806    2.5476 H   0  0  0  0  0  0  0  0  0  0  0  0
    4.4259    5.0740    2.4047 H   0  0  0  0  0  0  0  0  0  0  0  0
  1  2  1  0
  1 25  1  0
  1 26  1  0
  1 27  1  0
  2  3  1  0
  2 28  1  0
  2 29  1  0
  3  4  1  0
  4  5  2  0
  4 24  1  0
  5  6  1  0
  5 30  1  0
  6  7  2  0
  6 31  1  0
  7  8  1  0
  7 19  1  0
  8  9  1  0
  8 32  1  0
  9 10  2  0
  9 11  1  0
 11 12  1  0
 11 13  1  1
 11 16  1  0
 12 33  1  0
 12 34  1  0
 12 35  1  0
 13 14  1  0
 14 15  1  0
 14 36  1  0
 14 37  1  0
 15 38  1  0
 15 39  1  0
 15 40  1  0
 16 17  1  0
 16 18  1  0
 16 41  1  1
 17 18  1  0
 17 42  1  0
 17 43  1  0
 18 44  1  0
 18 45  1  0
 19 20  1  0
 19 24  2  0
 20 21  2  0
 20 46  1  0
 21 22  1  0
 21 47  1  0
 22 23  2  0
 22 48  1  0
 23 24  1  0
M  END

