
     RDKit          3D

 46 49  0  0  0  0  0  0  0  0999 V2000
    1.1221    0.1892    1.2679 F   0  0  0  0  0  0  0  0  0  0  0  0
    2.3671    0.1436    0.7702 C   0  0  0  0  0  0  0  0  0  0  0  0
    2.8826   -1.0724    0.3333 C   0  0  0  0  0  0  0  0  0  0  0  0
    4.1810   -1.1120   -0.1857 C   0  0  0  0  0  0  0  0  0  0  0  0
    4.9661    0.0464   -0.2647 C   0  0  0  0  0  0  0  0  0  0  0  0
    6.4059    0.0738   -0.7804 C   0  0  1  0  0  0  0  0  0  0  0  0
    6.9422   -1.2333   -1.3773 C   0  0  0  0  0  0  0  0  0  0  0  0
    6.3209   -1.4995   -2.6696 N   0  0  0  0  0  0  0  0  0  0  0  0
    6.5690   -2.8207   -3.2190 C   0  0  0  0  0  0  0  0  0  0  0  0
    8.0046   -3.1117   -3.5789 C   0  0  0  0  0  0  0  0  0  0  0  0
    8.9472   -3.6052   -2.8336 N   0  0  0  0  0  0  0  0  0  0  0  0
   10.0467   -3.5741   -3.6654 C   0  0  0  0  0  0  0  0  0  0  0  0
   11.3800   -4.0457   -3.2595 C   0  0  0  0  0  0  0  0  0  0  0  0
   12.4681   -3.9848   -4.1472 C   0  0  0  0  0  0  0  0  0  0  0  0
   13.7222   -4.4428   -3.7461 C   0  0  0  0  0  0  0  0  0  0  0  0
   13.9070   -4.9622   -2.4616 C   0  0  0  0  0  0  0  0  0  0  0  0
   12.8251   -5.0204   -1.5755 C   0  0  0  0  0  0  0  0  0  0  0  0
   13.0287   -5.5282   -0.1683 C   0  0  1  0  0  0  0  0  0  0  0  0
   14.0163   -6.4386   -0.1043 F   0  0  0  0  0  0  0  0  0  0  0  0
   13.3612   -4.5299    0.6731 F   0  0  0  0  0  0  0  0  0  0  0  0
   11.9166   -6.1003    0.3234 F   0  0  0  0  0  0  0  0  0  0  0  0
   11.5639   -4.5670   -1.9713 C   0  0  0  0  0  0  0  0  0  0  0  0
    9.7913   -3.0862   -4.8585 N   0  0  0  0  0  0  0  0  0  0  0  0
    8.4421   -2.7773   -4.8046 O   0  0  0  0  0  0  0  0  0  0  0  0
    6.5063   -0.3884   -3.5980 C   0  0  0  0  0  0  0  0  0  0  0  0
    5.9825    0.8958   -2.9625 C   0  0  0  0  0  0  0  0  0  0  0  0
    6.6015    1.1385   -1.7111 O   0  0  0  0  0  0  0  0  0  0  0  0
    4.4094    1.2582    0.1807 C   0  0  0  0  0  0  0  0  0  0  0  0
    3.1158    1.3173    0.6984 C   0  0  0  0  0  0  0  0  0  0  0  0
    2.2650   -1.9705    0.3967 H   0  0  0  0  0  0  0  0  0  0  0  0
    4.5690   -2.0660   -0.5434 H   0  0  0  0  0  0  0  0  0  0  0  0
    7.0589    0.3350    0.0691 H   0  0  0  0  0  0  0  0  0  0  0  0
    6.7518   -2.0771   -0.6965 H   0  0  0  0  0  0  0  0  0  0  0  0
    8.0452   -1.1328   -1.4576 H   0  0  0  0  0  0  0  0  0  0  0  0
    5.9525   -2.9516   -4.1224 H   0  0  0  0  0  0  0  0  0  0  0  0
    6.2629   -3.5795   -2.4826 H   0  0  0  0  0  0  0  0  0  0  0  0
   12.3173   -3.5794   -5.1493 H   0  0  0  0  0  0  0  0  0  0  0  0
   14.5648   -4.3986   -4.4400 H   0  0  0  0  0  0  0  0  0  0  0  0
   14.8866   -5.3279   -2.1485 H   0  0  0  0  0  0  0  0  0  0  0  0
   10.7133   -4.6186   -1.2910 H   0  0  0  0  0  0  0  0  0  0  0  0
    5.9507   -0.5942   -4.5281 H   0  0  0  0  0  0  0  0  0  0  0  0
    7.5743   -0.2468   -3.8744 H   0  0  0  0  0  0  0  0  0  0  0  0
    4.8839    0.8304   -2.8487 H   0  0  0  0  0  0  0  0  0  0  0  0
    6.2156    1.7612   -3.6010 H   0  0  0  0  0  0  0  0  0  0  0  0
    5.0040    2.1719    0.1089 H   0  0  0  0  0  0  0  0  0  0  0  0
    2.6791    2.2550    1.0482 H   0  0  0  0  0  0  0  0  0  0  0  0
  1  2  1  0
  2  3  2  0
  2 29  1  0
  3  4  1  0
  3 30  1  0
  4  5  2  0
  4 31  1  0
  5  6  1  0
  5 28  1  0
  6  7  1  0
  6 27  1  0
  6 32  1  1
  7  8  1  0
  7 33  1  0
  7 34  1  0
  8  9  1  0
  8 25  1  0
  9 10  1  0
  9 35  1  0
  9 36  1  0
 10 11  2  0
 10 24  1  0
 11 12  1  0
 12 13  1  0
 12 23  2  0
 13 14  2  0
 13 22  1  0
 14 15  1  0
 14 37  1  0
 15 16  2  0
 15 38  1  0
 16 17  1  0
 16 39  1  0
 17 18  1  0
 17 22  2  0
 18 19  1  6
 18 20  1  0
 18 21  1  0
 22 40  1  0
 23 24  1  0
 25 26  1  0
 25 41  1  0
 25 42  1  0
 26 27  1  0
 26 43  1  0
 26 44  1  0
 28 29  2  0
 28 45  1  0
 29 46  1  0
M  END

