
     RDKit          3D

 34 34  0  0  0  0  0  0  0  0999 V2000
    0.7809   -0.8391   -1.3880 C   0  0  0  0  0  0  0  0  0  0  0  0
    2.2974   -0.6103   -1.3558 C   0  0  1  0  0  0  0  0  0  0  0  0
    2.6400    0.7014   -0.6344 C   0  0  0  0  0  0  0  0  0  0  0  0
    3.0050   -1.8328   -0.7420 C   0  0  0  0  0  0  0  0  0  0  0  0
    4.5224   -1.7460   -0.7526 C   0  0  0  0  0  0  0  0  0  0  0  0
    5.0413   -3.0017   -0.3108 O   0  0  0  0  0  0  0  0  0  0  0  0
    6.3706   -3.1599   -0.2038 C   0  0  0  0  0  0  0  0  0  0  0  0
    7.3276   -2.1837   -0.4815 C   0  0  0  0  0  0  0  0  0  0  0  0
    8.7114   -2.4519   -0.3344 C   0  0  0  0  0  0  0  0  0  0  0  0
    9.7599   -1.4832   -0.5961 C   0  0  0  0  0  0  0  0  0  0  0  0
    9.7067   -0.1672   -0.9805 C   0  0  0  0  0  0  0  0  0  0  0  0
    8.5012    0.5746   -1.2145 C   0  0  0  0  0  0  0  0  0  0  0  0
    7.5288    1.1820   -1.4037 N   0  0  0  0  0  0  0  0  0  0  0  0
   10.9303    0.5625   -1.1696 C   0  0  0  0  0  0  0  0  0  0  0  0
   11.9222    1.1473   -1.3211 N   0  0  0  0  0  0  0  0  0  0  0  0
    9.1157   -3.7335    0.0939 C   0  0  0  0  0  0  0  0  0  0  0  0
    8.1687   -4.7185    0.3744 C   0  0  0  0  0  0  0  0  0  0  0  0
    6.8191   -4.4327    0.2276 C   0  0  0  0  0  0  0  0  0  0  0  0
    5.9099   -5.3666    0.4930 F   0  0  0  0  0  0  0  0  0  0  0  0
    0.2619    0.0002   -1.8780 H   0  0  0  0  0  0  0  0  0  0  0  0
    0.3738   -0.9318   -0.3665 H   0  0  0  0  0  0  0  0  0  0  0  0
    0.5220   -1.7604   -1.9344 H   0  0  0  0  0  0  0  0  0  0  0  0
    2.6435   -0.5178   -2.4032 H   0  0  0  0  0  0  0  0  0  0  0  0
    2.3714    0.6460    0.4350 H   0  0  0  0  0  0  0  0  0  0  0  0
    2.0826    1.5450   -1.0717 H   0  0  0  0  0  0  0  0  0  0  0  0
    3.7103    0.9527   -0.7011 H   0  0  0  0  0  0  0  0  0  0  0  0
    2.7154   -2.7414   -1.2963 H   0  0  0  0  0  0  0  0  0  0  0  0
    2.6639   -1.9809    0.2981 H   0  0  0  0  0  0  0  0  0  0  0  0
    4.8871   -0.9447   -0.0872 H   0  0  0  0  0  0  0  0  0  0  0  0
    4.8968   -1.5297   -1.7708 H   0  0  0  0  0  0  0  0  0  0  0  0
    6.9977   -1.2047   -0.8157 H   0  0  0  0  0  0  0  0  0  0  0  0
   10.7744   -1.8683   -0.4591 H   0  0  0  0  0  0  0  0  0  0  0  0
   10.1781   -3.9575    0.2097 H   0  0  0  0  0  0  0  0  0  0  0  0
    8.4587   -5.7163    0.7086 H   0  0  0  0  0  0  0  0  0  0  0  0
  1  2  1  0
  1 20  1  0
  1 21  1  0
  1 22  1  0
  2  3  1  0
  2  4  1  0
  2 23  1  6
  3 24  1  0
  3 25  1  0
  3 26  1  0
  4  5  1  0
  4 27  1  0
  4 28  1  0
  5  6  1  0
  5 29  1  0
  5 30  1  0
  6  7  1  0
  7  8  2  0
  7 18  1  0
  8  9  1  0
  8 31  1  0
  9 10  1  0
  9 16  2  0
 10 11  2  0
 10 32  1  0
 11 12  1  0
 11 14  1  0
 12 13  3  0
 14 15  3  0
 16 17  1  0
 16 33  1  0
 17 18  2  0
 17 34  1  0
 18 19  1  0
M  END

