
     RDKit          3D

 61 64  0  0  0  0  0  0  0  0999 V2000
    8.5737   -3.2299   -1.9452 C   0  0  0  0  0  0  0  0  0  0  0  0
    7.0608   -3.3358   -1.6968 C   0  0  0  0  0  0  0  0  0  0  0  0
    6.7090   -3.6866   -0.2672 C   0  0  0  0  0  0  0  0  0  0  0  0
    6.5302   -2.6922    0.7061 C   0  0  0  0  0  0  0  0  0  0  0  0
    6.2440   -2.9943    2.0390 C   0  0  0  0  0  0  0  0  0  0  0  0
    6.1283   -4.3378    2.4356 C   0  0  0  0  0  0  0  0  0  0  0  0
    5.8404   -4.7375    3.7568 N   0  0  0  0  0  0  0  0  0  0  0  0
    5.6152   -3.9618    4.8648 C   0  0  0  0  0  0  0  0  0  0  0  0
    5.6291   -2.7452    4.8752 O   0  0  0  0  0  0  0  0  0  0  0  0
    5.3775   -4.7438    6.1743 C   0  0  0  0  0  0  0  0  0  0  0  0
    4.9345   -6.1823    6.0642 C   0  0  0  0  0  0  0  0  0  0  0  0
    5.8471   -7.2428    6.1823 C   0  0  0  0  0  0  0  0  0  0  0  0
    5.4488   -8.5752    6.0536 C   0  0  0  0  0  0  0  0  0  0  0  0
    4.0996   -8.8812    5.8209 C   0  0  0  0  0  0  0  0  0  0  0  0
    3.6315  -10.1966    5.6481 N   0  0  0  0  0  0  0  0  0  0  0  0
    4.0695  -11.3842    6.1205 C   0  0  0  0  0  0  0  0  0  0  0  0
    4.9369  -11.8593    7.0586 C   0  0  0  0  0  0  0  0  0  0  0  0
    5.9294  -11.0540    8.2108 Cl  0  0  0  0  0  0  0  0  0  0  0  0
    4.8965  -13.3408    7.0534 C   0  0  0  0  0  0  0  0  0  0  0  0
    5.5221  -14.1101    7.7342 O   0  0  0  0  0  0  0  0  0  0  0  0
    3.9288  -13.7225    6.0623 N   0  0  0  0  0  0  0  0  0  0  0  0
    3.5819  -15.0646    5.7299 C   0  0  0  0  0  0  0  0  0  0  0  0
    3.5022  -16.0405    6.7355 C   0  0  0  0  0  0  0  0  0  0  0  0
    3.1687  -17.3549    6.4000 C   0  0  0  0  0  0  0  0  0  0  0  0
    2.8983  -17.7028    5.0776 C   0  0  0  0  0  0  0  0  0  0  0  0
    2.9711  -16.7256    4.0744 C   0  0  0  0  0  0  0  0  0  0  0  0
    2.6736  -17.1396    2.6688 C   0  0  0  0  0  0  0  0  0  0  0  0
    2.3604  -18.2603    2.3397 O   0  0  0  0  0  0  0  0  0  0  0  0
    2.7938  -16.1230    1.7939 O   0  0  0  0  0  0  0  0  0  0  0  0
    2.5216  -16.4311    0.4280 C   0  0  0  0  0  0  0  0  0  0  0  0
    3.3206  -15.4078    4.3975 C   0  0  0  0  0  0  0  0  0  0  0  0
    3.4014  -12.5868    5.4767 C   0  0  0  0  0  0  0  0  0  0  0  0
    2.5563  -12.5029    4.6133 O   0  0  0  0  0  0  0  0  0  0  0  0
    3.1746   -7.8286    5.6926 C   0  0  0  0  0  0  0  0  0  0  0  0
    3.5896   -6.5053    5.8086 C   0  0  0  0  0  0  0  0  0  0  0  0
    6.3029   -5.3466    1.4718 C   0  0  0  0  0  0  0  0  0  0  0  0
    6.5883   -5.0224    0.1470 C   0  0  0  0  0  0  0  0  0  0  0  0
    8.7868   -2.9723   -2.9955 H   0  0  0  0  0  0  0  0  0  0  0  0
    9.0812   -4.1817   -1.7196 H   0  0  0  0  0  0  0  0  0  0  0  0
    9.0275   -2.4549   -1.3068 H   0  0  0  0  0  0  0  0  0  0  0  0
    6.6344   -4.0948   -2.3747 H   0  0  0  0  0  0  0  0  0  0  0  0
    6.5818   -2.3790   -1.9653 H   0  0  0  0  0  0  0  0  0  0  0  0
    6.6114   -1.6399    0.4165 H   0  0  0  0  0  0  0  0  0  0  0  0
    6.1041   -2.2075    2.7764 H   0  0  0  0  0  0  0  0  0  0  0  0
    5.7772   -5.7398    3.9003 H   0  0  0  0  0  0  0  0  0  0  0  0
    4.6438   -4.1434    6.7325 H   0  0  0  0  0  0  0  0  0  0  0  0
    6.3210   -4.6748    6.7415 H   0  0  0  0  0  0  0  0  0  0  0  0
    6.9014   -7.0260    6.3768 H   0  0  0  0  0  0  0  0  0  0  0  0
    6.1889   -9.3699    6.1331 H   0  0  0  0  0  0  0  0  0  0  0  0
    2.8432  -10.3165    5.0107 H   0  0  0  0  0  0  0  0  0  0  0  0
    3.7141  -15.7744    7.7698 H   0  0  0  0  0  0  0  0  0  0  0  0
    3.1147  -18.1106    7.1871 H   0  0  0  0  0  0  0  0  0  0  0  0
    2.6282  -18.7225    4.7980 H   0  0  0  0  0  0  0  0  0  0  0  0
    2.6684  -15.4989   -0.1312 H   0  0  0  0  0  0  0  0  0  0  0  0
    1.4884  -16.7906    0.3064 H   0  0  0  0  0  0  0  0  0  0  0  0
    3.2051  -17.2108    0.0588 H   0  0  0  0  0  0  0  0  0  0  0  0
    3.3706  -14.6586    3.6107 H   0  0  0  0  0  0  0  0  0  0  0  0
    2.1207   -8.0571    5.5130 H   0  0  0  0  0  0  0  0  0  0  0  0
    2.8511   -5.7049    5.7102 H   0  0  0  0  0  0  0  0  0  0  0  0
    6.2102   -6.3972    1.7646 H   0  0  0  0  0  0  0  0  0  0  0  0
    6.7150   -5.8285   -0.5820 H   0  0  0  0  0  0  0  0  0  0  0  0
  1  2  1  0
  1 38  1  0
  1 39  1  0
  1 40  1  0
  2  3  1  0
  2 41  1  0
  2 42  1  0
  3  4  2  0
  3 37  1  0
  4  5  1  0
  4 43  1  0
  5  6  2  0
  5 44  1  0
  6  7  1  0
  6 36  1  0
  7  8  1  0
  7 45  1  0
  8  9  2  0
  8 10  1  0
 10 11  1  0
 10 46  1  0
 10 47  1  0
 11 12  2  0
 11 35  1  0
 12 13  1  0
 12 48  1  0
 13 14  2  0
 13 49  1  0
 14 15  1  0
 14 34  1  0
 15 16  1  0
 15 50  1  0
 16 17  2  0
 16 32  1  0
 17 18  1  0
 17 19  1  0
 19 20  2  0
 19 21  1  0
 21 22  1  0
 21 32  1  0
 22 23  2  0
 22 31  1  0
 23 24  1  0
 23 51  1  0
 24 25  2  0
 24 52  1  0
 25 26  1  0
 25 53  1  0
 26 27  1  0
 26 31  2  0
 27 28  2  0
 27 29  1  0
 29 30  1  0
 30 54  1  0
 30 55  1  0
 30 56  1  0
 31 57  1  0
 32 33  2  0
 34 35  2  0
 34 58  1  0
 35 59  1  0
 36 37  2  0
 36 60  1  0
 37 61  1  0
M  END

