
     RDKit          3D

 48 51  0  0  0  0  0  0  0  0999 V2000
    2.0346   -0.0770    1.3821 O   0  0  0  0  0  0  0  0  0  0  0  0
    1.7271   -0.1991    0.2105 C   0  0  0  0  0  0  0  0  0  0  0  0
    2.4956    0.6085   -0.8453 C   0  0  0  0  0  0  0  0  0  0  0  0
    1.8575    0.6589   -2.5560 S   0  0  0  0  0  0  0  0  0  0  0  0
    0.5443    1.8366   -2.4015 C   0  0  0  0  0  0  0  0  0  0  0  0
    0.2707    2.3832   -1.2249 N   0  0  0  0  0  0  0  0  0  0  0  0
   -0.7309    3.2816   -1.1469 C   0  0  0  0  0  0  0  0  0  0  0  0
   -1.5134    3.7028   -2.1298 N   0  0  0  0  0  0  0  0  0  0  0  0
   -1.2370    3.1484   -3.3171 C   0  0  0  0  0  0  0  0  0  0  0  0
   -0.2104    2.1957   -3.5396 C   0  0  0  0  0  0  0  0  0  0  0  0
   -0.2902    1.9040   -4.9333 C   0  0  0  0  0  0  0  0  0  0  0  0
   -1.2555    2.5972   -5.4941 N   0  0  0  0  0  0  0  0  0  0  0  0
   -1.8445    3.3600   -4.5329 N   0  0  0  0  0  0  0  0  0  0  0  0
   -2.9321    4.2154   -4.8871 C   0  0  0  0  0  0  0  0  0  0  0  0
   -3.3667    4.2381   -6.2216 C   0  0  0  0  0  0  0  0  0  0  0  0
   -4.4274    5.0669   -6.5870 C   0  0  0  0  0  0  0  0  0  0  0  0
   -5.0612    5.8746   -5.6377 C   0  0  0  0  0  0  0  0  0  0  0  0
   -4.6213    5.8450   -4.3123 C   0  0  0  0  0  0  0  0  0  0  0  0
   -3.5605    5.0217   -3.9259 C   0  0  0  0  0  0  0  0  0  0  0  0
    0.7687   -1.0536   -0.2358 N   0  0  0  0  0  0  0  0  0  0  0  0
   -0.0106   -1.8705    0.6728 C   0  0  0  0  0  0  0  0  0  0  0  0
   -1.2378   -1.1360    1.2123 C   0  0  0  0  0  0  0  0  0  0  0  0
   -1.9460   -2.0536    2.0197 O   0  0  0  0  0  0  0  0  0  0  0  0
   -3.0833   -1.6627    2.6548 C   0  0  0  0  0  0  0  0  0  0  0  0
   -3.6316   -0.3739    2.5723 C   0  0  0  0  0  0  0  0  0  0  0  0
   -4.8118   -0.0799    3.2675 C   0  0  0  0  0  0  0  0  0  0  0  0
   -5.4504   -1.0496    4.0406 C   0  0  0  0  0  0  0  0  0  0  0  0
   -4.8963   -2.3346    4.1184 C   0  0  0  0  0  0  0  0  0  0  0  0
   -3.7239   -2.6427    3.4335 C   0  0  0  0  0  0  0  0  0  0  0  0
    3.5078    0.1837   -0.9314 H   0  0  0  0  0  0  0  0  0  0  0  0
    2.5839    1.6341   -0.4665 H   0  0  0  0  0  0  0  0  0  0  0  0
   -0.9136    3.7066   -0.1535 H   0  0  0  0  0  0  0  0  0  0  0  0
    0.3147    1.2243   -5.5327 H   0  0  0  0  0  0  0  0  0  0  0  0
   -2.8669    3.6059   -6.9538 H   0  0  0  0  0  0  0  0  0  0  0  0
   -4.7600    5.0790   -7.6280 H   0  0  0  0  0  0  0  0  0  0  0  0
   -5.8916    6.5218   -5.9297 H   0  0  0  0  0  0  0  0  0  0  0  0
   -5.1069    6.4709   -3.5593 H   0  0  0  0  0  0  0  0  0  0  0  0
   -3.2185    4.9996   -2.8931 H   0  0  0  0  0  0  0  0  0  0  0  0
    0.5575   -1.0614   -1.2281 H   0  0  0  0  0  0  0  0  0  0  0  0
    0.6292   -2.1626    1.5180 H   0  0  0  0  0  0  0  0  0  0  0  0
   -0.3331   -2.7866    0.1545 H   0  0  0  0  0  0  0  0  0  0  0  0
   -1.8698   -0.7785    0.3764 H   0  0  0  0  0  0  0  0  0  0  0  0
   -0.9147   -0.2561    1.7969 H   0  0  0  0  0  0  0  0  0  0  0  0
   -3.1512    0.4032    1.9775 H   0  0  0  0  0  0  0  0  0  0  0  0
   -5.2309    0.9275    3.1978 H   0  0  0  0  0  0  0  0  0  0  0  0
   -6.3701   -0.8103    4.5792 H   0  0  0  0  0  0  0  0  0  0  0  0
   -5.3840   -3.1056    4.7208 H   0  0  0  0  0  0  0  0  0  0  0  0
   -3.2773   -3.6379    3.4833 H   0  0  0  0  0  0  0  0  0  0  0  0
  1  2  2  0
  2  3  1  0
  2 20  1  0
  3  4  1  0
  3 30  1  0
  3 31  1  0
  4  5  1  0
  5  6  2  0
  5 10  1  0
  6  7  1  0
  7  8  2  0
  7 32  1  0
  8  9  1  0
  9 10  2  0
  9 13  1  0
 10 11  1  0
 11 12  2  0
 11 33  1  0
 12 13  1  0
 13 14  1  0
 14 15  2  0
 14 19  1  0
 15 16  1  0
 15 34  1  0
 16 17  2  0
 16 35  1  0
 17 18  1  0
 17 36  1  0
 18 19  2  0
 18 37  1  0
 19 38  1  0
 20 21  1  0
 20 39  1  0
 21 22  1  0
 21 40  1  0
 21 41  1  0
 22 23  1  0
 22 42  1  0
 22 43  1  0
 23 24  1  0
 24 25  2  0
 24 29  1  0
 25 26  1  0
 25 44  1  0
 26 27  2  0
 26 45  1  0
 27 28  1  0
 27 46  1  0
 28 29  2  0
 28 47  1  0
 29 48  1  0
M  END

