
     RDKit          3D

 24 24  0  0  0  0  0  0  0  0999 V2000
    1.2250    0.4792   -0.0446 C   0  0  0  0  0  0  0  0  0  0  0  0
    2.4108    0.2414   -0.0008 C   0  0  0  0  0  0  0  0  0  0  0  0
    3.8505   -0.0930    0.0064 C   0  0  1  0  0  0  0  0  0  0  0  0
    4.0196   -1.5672    0.4152 C   0  0  0  0  0  0  0  0  0  0  0  0
    4.4400    0.2052   -1.3838 C   0  0  0  0  0  0  0  0  0  0  0  0
    4.4015    0.7998    1.0136 O   0  0  0  0  0  0  0  0  0  0  0  0
    5.6904    0.8495    1.3822 C   0  0  0  0  0  0  0  0  0  0  0  0
    5.9254    1.7474    2.3418 N   0  0  0  0  0  0  0  0  0  0  0  0
    7.1941    1.8390    2.7442 C   0  0  0  0  0  0  0  0  0  0  0  0
    8.2269    1.0682    2.2255 C   0  0  0  0  0  0  0  0  0  0  0  0
    7.8621    0.1514    1.2150 C   0  0  0  0  0  0  0  0  0  0  0  0
    8.7645   -0.6833    0.6304 N   0  0  0  0  0  0  0  0  0  0  0  0
    6.5887    0.0549    0.8000 N   0  0  0  0  0  0  0  0  0  0  0  0
    0.1747    0.7006   -0.0719 H   0  0  0  0  0  0  0  0  0  0  0  0
    3.4686   -2.2080   -0.2890 H   0  0  0  0  0  0  0  0  0  0  0  0
    3.6066   -1.7259    1.4221 H   0  0  0  0  0  0  0  0  0  0  0  0
    5.0801   -1.8458    0.4091 H   0  0  0  0  0  0  0  0  0  0  0  0
    3.9030   -0.3821   -2.1434 H   0  0  0  0  0  0  0  0  0  0  0  0
    5.5053   -0.0531   -1.4089 H   0  0  0  0  0  0  0  0  0  0  0  0
    4.3172    1.2720   -1.6212 H   0  0  0  0  0  0  0  0  0  0  0  0
    7.4024    2.5741    3.5315 H   0  0  0  0  0  0  0  0  0  0  0  0
    9.2544    1.1648    2.5791 H   0  0  0  0  0  0  0  0  0  0  0  0
    9.7542   -0.5661    0.7918 H   0  0  0  0  0  0  0  0  0  0  0  0
    8.4628   -1.2351   -0.1619 H   0  0  0  0  0  0  0  0  0  0  0  0
  1  2  3  0
  1 14  1  0
  3  2  1  6
  3  4  1  0
  3  5  1  0
  3  6  1  0
  4 15  1  0
  4 16  1  0
  4 17  1  0
  5 18  1  0
  5 19  1  0
  5 20  1  0
  6  7  1  0
  7  8  2  0
  7 13  1  0
  8  9  1  0
  9 10  2  0
  9 21  1  0
 10 11  1  0
 10 22  1  0
 11 12  1  0
 11 13  2  0
 12 23  1  0
 12 24  1  0
M  END

