
     RDKit          3D

 36 38  0  0  0  0  0  0  0  0999 V2000
    1.0663   -0.0294   -0.4920 O   0  0  0  0  0  0  0  0  0  0  0  0
    2.2678    0.0095   -0.3296 C   0  0  0  0  0  0  0  0  0  0  0  0
    3.0728   -1.1178   -0.3743 N   0  0  0  0  0  0  0  0  0  0  0  0
    4.3460   -1.0272   -0.1848 C   0  0  0  0  0  0  0  0  0  0  0  0
    5.1828   -2.0768   -0.1840 N   0  0  0  0  0  0  0  0  0  0  0  0
    4.7567   -3.4478   -0.4676 C   0  0  0  0  0  0  0  0  0  0  0  0
    4.9050   -3.8478   -1.9229 C   0  0  0  0  0  0  0  0  0  0  0  0
    6.0203   -4.5792   -2.3567 C   0  0  0  0  0  0  0  0  0  0  0  0
    6.1750   -4.9309   -3.7001 C   0  0  0  0  0  0  0  0  0  0  0  0
    5.1961   -4.5405   -4.6105 C   0  0  0  0  0  0  0  0  0  0  0  0
    5.3340   -4.8741   -5.9004 F   0  0  0  0  0  0  0  0  0  0  0  0
    4.0732   -3.8163   -4.2118 C   0  0  0  0  0  0  0  0  0  0  0  0
    3.9323   -3.4737   -2.8664 C   0  0  0  0  0  0  0  0  0  0  0  0
    5.0479    0.1290    0.0553 O   0  0  0  0  0  0  0  0  0  0  0  0
    4.3701    1.3001    0.0965 C   0  0  0  0  0  0  0  0  0  0  0  0
    5.0433    2.5126    0.3471 C   0  0  0  0  0  0  0  0  0  0  0  0
    6.5064    2.5784    0.5361 N   0  0  0  0  0  0  0  0  0  0  0  0
    7.1822    1.6826    0.0622 O   0  0  0  0  0  0  0  0  0  0  0  0
    6.9393    3.5441    1.1428 O   0  0  0  0  0  0  0  0  0  0  0  0
    4.3272    3.7045    0.4307 C   0  0  0  0  0  0  0  0  0  0  0  0
    2.9426    3.7100    0.2394 C   0  0  0  0  0  0  0  0  0  0  0  0
    2.1856    5.0185    0.2636 C   0  0  1  0  0  0  0  0  0  0  0  0
    2.7890    5.9209    1.0539 F   0  0  0  0  0  0  0  0  0  0  0  0
    2.1044    5.5576   -0.9655 F   0  0  0  0  0  0  0  0  0  0  0  0
    0.9319    4.8515    0.7089 F   0  0  0  0  0  0  0  0  0  0  0  0
    2.2722    2.5118   -0.0107 C   0  0  0  0  0  0  0  0  0  0  0  0
    2.9781    1.3082   -0.0772 C   0  0  0  0  0  0  0  0  0  0  0  0
    6.1735   -1.8609   -0.1381 H   0  0  0  0  0  0  0  0  0  0  0  0
    3.7076   -3.5216   -0.1527 H   0  0  0  0  0  0  0  0  0  0  0  0
    5.3523   -4.1162    0.1724 H   0  0  0  0  0  0  0  0  0  0  0  0
    6.7820   -4.8893   -1.6350 H   0  0  0  0  0  0  0  0  0  0  0  0
    7.0363   -5.5034   -4.0496 H   0  0  0  0  0  0  0  0  0  0  0  0
    3.3244   -3.5369   -4.9554 H   0  0  0  0  0  0  0  0  0  0  0  0
    3.0565   -2.9085   -2.5382 H   0  0  0  0  0  0  0  0  0  0  0  0
    4.8750    4.6194    0.6544 H   0  0  0  0  0  0  0  0  0  0  0  0
    1.1902    2.4721   -0.1513 H   0  0  0  0  0  0  0  0  0  0  0  0
  1  2  2  0
  2  3  1  0
  2 27  1  0
  3  4  2  0
  4  5  1  0
  4 14  1  0
  5  6  1  0
  5 28  1  0
  6  7  1  0
  6 29  1  0
  6 30  1  0
  7  8  2  0
  7 13  1  0
  8  9  1  0
  8 31  1  0
  9 10  2  0
  9 32  1  0
 10 11  1  0
 10 12  1  0
 12 13  2  0
 12 33  1  0
 13 34  1  0
 14 15  1  0
 15 16  1  0
 15 27  2  0
 16 17  1  0
 16 20  2  0
 17 18  2  0
 17 19  1  0
 20 21  1  0
 20 35  1  0
 21 22  1  0
 21 26  2  0
 22 23  1  1
 22 24  1  0
 22 25  1  0
 26 27  1  0
 26 36  1  0
M  CHG  2  17   1  19  -1
M  END

