
     RDKit          3D

 40 41  0  0  0  0  0  0  0  0999 V2000
    1.1528    0.1270   -0.1092 C   0  0  0  0  0  0  0  0  0  0  0  0
    2.6609    0.0204    0.0886 C   0  0  1  0  0  0  0  0  0  0  0  0
    3.3822    1.3455    1.1628 S   0  0  0  0  0  0  0  0  0  0  0  0
    2.4668    1.1814    2.7370 C   0  0  0  0  0  0  0  0  0  0  0  0
    2.7812   -0.0616    3.5603 C   0  0  0  0  0  0  0  0  0  0  0  0
    2.1083    0.0972    4.7984 O   0  0  0  0  0  0  0  0  0  0  0  0
    2.1831   -0.8770    5.7418 C   0  0  0  0  0  0  0  0  0  0  0  0
    1.4857   -0.6340    6.9386 C   0  0  0  0  0  0  0  0  0  0  0  0
    1.5120   -1.5794    7.9592 C   0  0  0  0  0  0  0  0  0  0  0  0
    2.2246   -2.7769    7.8180 C   0  0  0  0  0  0  0  0  0  0  0  0
    2.9102   -3.0014    6.6250 C   0  0  0  0  0  0  0  0  0  0  0  0
    3.8109   -4.4882    6.4161 Cl  0  0  0  0  0  0  0  0  0  0  0  0
    2.9031   -2.0699    5.5794 C   0  0  0  0  0  0  0  0  0  0  0  0
    3.0858   -1.4133    0.4848 C   0  0  0  0  0  0  0  0  0  0  0  0
    2.2792   -2.3271    0.4790 O   0  0  0  0  0  0  0  0  0  0  0  0
    4.4153   -1.5469    0.7861 N   0  0  0  0  0  0  0  0  0  0  0  0
    5.1394   -2.7036    1.1379 C   0  0  0  0  0  0  0  0  0  0  0  0
    4.5647   -3.9859    1.2037 C   0  0  0  0  0  0  0  0  0  0  0  0
    5.3605   -5.0776    1.5614 C   0  0  0  0  0  0  0  0  0  0  0  0
    6.7177   -4.9211    1.8546 C   0  0  0  0  0  0  0  0  0  0  0  0
    7.2865   -3.6453    1.7878 C   0  0  0  0  0  0  0  0  0  0  0  0
    6.5068   -2.5455    1.4330 C   0  0  0  0  0  0  0  0  0  0  0  0
    0.8828    1.1365   -0.4502 H   0  0  0  0  0  0  0  0  0  0  0  0
    0.6042   -0.0964    0.8174 H   0  0  0  0  0  0  0  0  0  0  0  0
    0.8216   -0.6085   -0.8562 H   0  0  0  0  0  0  0  0  0  0  0  0
    3.1663    0.2389   -0.8693 H   0  0  0  0  0  0  0  0  0  0  0  0
    1.3848    1.2554    2.5522 H   0  0  0  0  0  0  0  0  0  0  0  0
    2.7568    2.0767    3.3085 H   0  0  0  0  0  0  0  0  0  0  0  0
    3.8711   -0.1551    3.7173 H   0  0  0  0  0  0  0  0  0  0  0  0
    2.4295   -0.9763    3.0513 H   0  0  0  0  0  0  0  0  0  0  0  0
    0.9335    0.3020    7.0384 H   0  0  0  0  0  0  0  0  0  0  0  0
    0.9677   -1.3853    8.8869 H   0  0  0  0  0  0  0  0  0  0  0  0
    2.2492   -3.5219    8.6139 H   0  0  0  0  0  0  0  0  0  0  0  0
    3.4524   -2.2950    4.6669 H   0  0  0  0  0  0  0  0  0  0  0  0
    4.9280   -0.6711    0.8473 H   0  0  0  0  0  0  0  0  0  0  0  0
    3.5084   -4.1094    0.9773 H   0  0  0  0  0  0  0  0  0  0  0  0
    4.9030   -6.0691    1.6116 H   0  0  0  0  0  0  0  0  0  0  0  0
    7.3270   -5.7836    2.1339 H   0  0  0  0  0  0  0  0  0  0  0  0
    8.3462   -3.5018    2.0137 H   0  0  0  0  0  0  0  0  0  0  0  0
    6.9591   -1.5504    1.3807 H   0  0  0  0  0  0  0  0  0  0  0  0
  1  2  1  0
  1 23  1  0
  1 24  1  0
  1 25  1  0
  2  3  1  0
  2 14  1  0
  2 26  1  6
  3  4  1  0
  4  5  1  0
  4 27  1  0
  4 28  1  0
  5  6  1  0
  5 29  1  0
  5 30  1  0
  6  7  1  0
  7  8  2  0
  7 13  1  0
  8  9  1  0
  8 31  1  0
  9 10  2  0
  9 32  1  0
 10 11  1  0
 10 33  1  0
 11 12  1  0
 11 13  2  0
 13 34  1  0
 14 15  2  0
 14 16  1  0
 16 17  1  0
 16 35  1  0
 17 18  2  0
 17 22  1  0
 18 19  1  0
 18 36  1  0
 19 20  2  0
 19 37  1  0
 20 21  1  0
 20 38  1  0
 21 22  2  0
 21 39  1  0
 22 40  1  0
M  END

