
     RDKit          3D

 51 53  0  0  0  0  0  0  0  0999 V2000
    0.1540   -0.1285    1.4566 C   0  0  0  0  0  0  0  0  0  0  0  0
    1.4221   -0.4373    0.8171 N   0  0  0  0  0  0  0  0  0  0  0  0
    2.4859    0.5429    1.0875 C   0  0  0  0  0  0  0  0  0  0  0  0
    2.2550    1.8834    0.4475 C   0  0  0  0  0  0  0  0  0  0  0  0
    1.9941    3.1280    1.0809 C   0  0  0  0  0  0  0  0  0  0  0  0
    1.8523    4.1111    0.2044 N   0  0  0  0  0  0  0  0  0  0  0  0
    2.0133    3.5368   -1.0050 N   0  0  0  0  0  0  0  0  0  0  0  0
    1.9251    4.3212   -2.1907 C   0  0  0  0  0  0  0  0  0  0  0  0
    1.8537    5.7176   -2.0819 C   0  0  0  0  0  0  0  0  0  0  0  0
    1.7717    6.4964   -3.2367 C   0  0  0  0  0  0  0  0  0  0  0  0
    1.7636    5.8978   -4.5004 C   0  0  0  0  0  0  0  0  0  0  0  0
    1.8335    4.5054   -4.5984 C   0  0  0  0  0  0  0  0  0  0  0  0
    1.9106    3.7091   -3.4531 C   0  0  0  0  0  0  0  0  0  0  0  0
    2.2611    2.1975   -0.9042 C   0  0  0  0  0  0  0  0  0  0  0  0
    1.8423   -1.8029    0.9224 C   0  0  0  0  0  0  0  0  0  0  0  0
    2.4991   -2.2765   -0.3339 N   0  0  0  0  0  0  0  0  0  0  0  0
    2.3340   -1.6039   -1.4924 C   0  0  0  0  0  0  0  0  0  0  0  0
    2.9612   -2.0037   -2.6452 C   0  0  0  0  0  0  0  0  0  0  0  0
    2.8245   -0.9917   -4.0929 S   0  0  1  0  0  0  0  0  0  0  0  0
    2.0430    0.2021   -3.7112 O   0  0  0  0  0  0  0  0  0  0  0  0
    4.1522   -0.8412   -4.6905 O   0  0  0  0  0  0  0  0  0  0  0  0
    1.9311   -1.9642   -5.1563 N   0  0  0  0  0  0  0  0  0  0  0  0
    0.5058   -2.0521   -4.8580 C   0  0  0  0  0  0  0  0  0  0  0  0
    2.2660   -1.8335   -6.5738 C   0  0  0  0  0  0  0  0  0  0  0  0
    3.8045   -3.1558   -2.6250 C   0  0  0  0  0  0  0  0  0  0  0  0
    3.9521   -3.8548   -1.4630 C   0  0  0  0  0  0  0  0  0  0  0  0
    3.2861   -3.4635   -0.2273 C   0  0  0  0  0  0  0  0  0  0  0  0
    3.3540   -4.0494    0.8411 O   0  0  0  0  0  0  0  0  0  0  0  0
   -0.1465    0.8967    1.1953 H   0  0  0  0  0  0  0  0  0  0  0  0
    0.1930   -0.1969    2.5657 H   0  0  0  0  0  0  0  0  0  0  0  0
   -0.6308   -0.8116    1.0975 H   0  0  0  0  0  0  0  0  0  0  0  0
    3.4302    0.1157    0.7138 H   0  0  0  0  0  0  0  0  0  0  0  0
    2.6224    0.6830    2.1814 H   0  0  0  0  0  0  0  0  0  0  0  0
    1.9099    3.3343    2.1489 H   0  0  0  0  0  0  0  0  0  0  0  0
    1.8623    6.1672   -1.0899 H   0  0  0  0  0  0  0  0  0  0  0  0
    1.7168    7.5842   -3.1446 H   0  0  0  0  0  0  0  0  0  0  0  0
    1.7022    6.5119   -5.4020 H   0  0  0  0  0  0  0  0  0  0  0  0
    1.8246    4.0229   -5.5790 H   0  0  0  0  0  0  0  0  0  0  0  0
    1.9503    2.6238   -3.5594 H   0  0  0  0  0  0  0  0  0  0  0  0
    2.4240    1.5764   -1.7820 H   0  0  0  0  0  0  0  0  0  0  0  0
    0.9750   -2.4531    1.1153 H   0  0  0  0  0  0  0  0  0  0  0  0
    2.5711   -2.0084    1.7270 H   0  0  0  0  0  0  0  0  0  0  0  0
    1.6949   -0.7217   -1.4358 H   0  0  0  0  0  0  0  0  0  0  0  0
    0.3519   -2.2450   -3.7865 H   0  0  0  0  0  0  0  0  0  0  0  0
    0.0852   -2.9035   -5.4150 H   0  0  0  0  0  0  0  0  0  0  0  0
   -0.0472   -1.1349   -5.1322 H   0  0  0  0  0  0  0  0  0  0  0  0
    3.3542   -1.7699   -6.6908 H   0  0  0  0  0  0  0  0  0  0  0  0
    1.8029   -0.9443   -7.0432 H   0  0  0  0  0  0  0  0  0  0  0  0
    1.9041   -2.7323   -7.0972 H   0  0  0  0  0  0  0  0  0  0  0  0
    4.3261   -3.4585   -3.5357 H   0  0  0  0  0  0  0  0  0  0  0  0
    4.5830   -4.7423   -1.3969 H   0  0  0  0  0  0  0  0  0  0  0  0
  1  2  1  0
  1 29  1  0
  1 30  1  0
  1 31  1  0
  2  3  1  0
  2 15  1  0
  3  4  1  0
  3 32  1  0
  3 33  1  0
  4  5  1  0
  4 14  2  0
  5  6  2  0
  5 34  1  0
  6  7  1  0
  7  8  1  0
  7 14  1  0
  8  9  2  0
  8 13  1  0
  9 10  1  0
  9 35  1  0
 10 11  2  0
 10 36  1  0
 11 12  1  0
 11 37  1  0
 12 13  2  0
 12 38  1  0
 13 39  1  0
 14 40  1  0
 15 16  1  0
 15 41  1  0
 15 42  1  0
 16 17  1  0
 16 27  1  0
 17 18  2  0
 17 43  1  0
 18 19  1  0
 18 25  1  0
 19 20  2  0
 19 21  2  0
 19 22  1  6
 22 23  1  0
 22 24  1  0
 23 44  1  0
 23 45  1  0
 23 46  1  0
 24 47  1  0
 24 48  1  0
 24 49  1  0
 25 26  2  0
 25 50  1  0
 26 27  1  0
 26 51  1  0
 27 28  2  0
M  END

