
     RDKit          3D

 44 45  0  0  0  0  0  0  0  0999 V2000
    2.3671    0.9187   -1.1759 C   0  0  0  0  0  0  0  0  0  0  0  0
    2.2349    0.2258    0.0437 O   0  0  0  0  0  0  0  0  0  0  0  0
    3.1130    0.4844    1.0507 C   0  0  0  0  0  0  0  0  0  0  0  0
    4.1847    1.3792    0.9624 C   0  0  0  0  0  0  0  0  0  0  0  0
    5.0211    1.5980    2.0659 C   0  0  0  0  0  0  0  0  0  0  0  0
    4.8120    0.9402    3.2801 C   0  0  0  0  0  0  0  0  0  0  0  0
    5.6981    1.2217    4.4982 C   0  0  1  0  0  0  0  0  0  0  0  0
    4.9731    2.1153    5.5145 C   0  0  0  0  0  0  0  0  0  0  0  0
    6.2062    0.0429    5.1978 N   0  0  0  0  0  0  0  0  0  0  0  0
    6.9592   -0.9527    4.4345 C   0  0  1  0  0  0  0  0  0  0  0  0
    8.2670   -0.3573    3.9040 C   0  0  0  0  0  0  0  0  0  0  0  0
    7.2514   -2.1696    5.3312 C   0  0  0  0  0  0  0  0  0  0  0  0
    6.0316   -2.9123    5.8449 C   0  0  1  0  0  0  0  0  0  0  0  0
    5.2775   -3.8665    4.9500 C   0  0  0  0  0  0  0  0  0  0  0  0
    6.0922   -4.3975    6.1033 C   0  0  0  0  0  0  0  0  0  0  0  0
    3.7429    0.0312    3.3531 C   0  0  0  0  0  0  0  0  0  0  0  0
    2.8986   -0.2076    2.2704 C   0  0  0  0  0  0  0  0  0  0  0  0
    1.8437   -1.0600    2.4369 O   0  0  0  0  0  0  0  0  0  0  0  0
    1.8337   -2.2500    1.6635 C   0  0  0  0  0  0  0  0  0  0  0  0
    1.5500    0.5728   -1.8234 H   0  0  0  0  0  0  0  0  0  0  0  0
    3.3314    0.7036   -1.6718 H   0  0  0  0  0  0  0  0  0  0  0  0
    2.2764    2.0113   -1.0384 H   0  0  0  0  0  0  0  0  0  0  0  0
    4.3755    1.9198    0.0349 H   0  0  0  0  0  0  0  0  0  0  0  0
    5.8499    2.3057    1.9690 H   0  0  0  0  0  0  0  0  0  0  0  0
    6.5692    1.7898    4.1306 H   0  0  0  0  0  0  0  0  0  0  0  0
    4.0768    1.6099    5.9132 H   0  0  0  0  0  0  0  0  0  0  0  0
    4.6412    3.0556    5.0492 H   0  0  0  0  0  0  0  0  0  0  0  0
    5.6411    2.3464    6.3584 H   0  0  0  0  0  0  0  0  0  0  0  0
    5.4422   -0.4083    5.6970 H   0  0  0  0  0  0  0  0  0  0  0  0
    6.3782   -1.3197    3.5592 H   0  0  0  0  0  0  0  0  0  0  0  0
    8.8678    0.0518    4.7328 H   0  0  0  0  0  0  0  0  0  0  0  0
    8.0875    0.4517    3.1798 H   0  0  0  0  0  0  0  0  0  0  0  0
    8.8606   -1.1288    3.3883 H   0  0  0  0  0  0  0  0  0  0  0  0
    7.8644   -1.8342    6.1871 H   0  0  0  0  0  0  0  0  0  0  0  0
    7.8738   -2.8748    4.7536 H   0  0  0  0  0  0  0  0  0  0  0  0
    5.4178   -2.3531    6.5615 H   0  0  0  0  0  0  0  0  0  0  0  0
    5.6628   -4.0232    3.9375 H   0  0  0  0  0  0  0  0  0  0  0  0
    4.1866   -3.9035    5.0200 H   0  0  0  0  0  0  0  0  0  0  0  0
    7.0287   -4.9162    5.8747 H   0  0  0  0  0  0  0  0  0  0  0  0
    5.5639   -4.7975    6.9735 H   0  0  0  0  0  0  0  0  0  0  0  0
    3.5328   -0.5229    4.2714 H   0  0  0  0  0  0  0  0  0  0  0  0
    0.9537   -2.8259    1.9838 H   0  0  0  0  0  0  0  0  0  0  0  0
    2.7409   -2.8542    1.8504 H   0  0  0  0  0  0  0  0  0  0  0  0
    1.7555   -2.0401    0.5854 H   0  0  0  0  0  0  0  0  0  0  0  0
  1  2  1  0
  1 20  1  0
  1 21  1  0
  1 22  1  0
  2  3  1  0
  3  4  2  0
  3 17  1  0
  4  5  1  0
  4 23  1  0
  5  6  2  0
  5 24  1  0
  6  7  1  0
  6 16  1  0
  7  8  1  0
  7  9  1  0
  7 25  1  6
  8 26  1  0
  8 27  1  0
  8 28  1  0
  9 10  1  0
  9 29  1  0
 10 11  1  0
 10 12  1  0
 10 30  1  6
 11 31  1  0
 11 32  1  0
 11 33  1  0
 12 13  1  0
 12 34  1  0
 12 35  1  0
 13 14  1  0
 13 15  1  0
 13 36  1  1
 14 15  1  0
 14 37  1  0
 14 38  1  0
 15 39  1  0
 15 40  1  0
 16 17  2  0
 16 41  1  0
 17 18  1  0
 18 19  1  0
 19 42  1  0
 19 43  1  0
 19 44  1  0
M  END

