
     RDKit          3D

 42 43  0  0  0  0  0  0  0  0999 V2000
    4.1723    1.6104    1.2158 C   0  0  0  0  0  0  0  0  0  0  0  0
    3.7640    0.4964    0.2537 C   0  0  1  0  0  0  0  0  0  0  0  0
    3.8984    0.9339   -1.1320 N   0  0  0  0  0  0  0  0  0  0  0  0
    3.0797    0.4541   -2.1217 C   0  0  0  0  0  0  0  0  0  0  0  0
    2.2053   -0.3667   -1.8703 O   0  0  0  0  0  0  0  0  0  0  0  0
    3.3311    1.0518   -3.5020 C   0  0  1  0  0  0  0  0  0  0  0  0
    3.0342    0.0503   -4.6388 C   0  0  0  0  0  0  0  0  0  0  0  0
    1.5402   -0.1416   -4.9323 C   0  0  0  0  0  0  0  0  0  0  0  0
    0.8377    1.2008   -5.1636 C   0  0  0  0  0  0  0  0  0  0  0  0
    1.0578    2.1462   -3.9753 C   0  0  0  0  0  0  0  0  0  0  0  0
    2.5459    2.3901   -3.6615 C   0  0  2  0  0  0  0  0  0  0  0  0
    3.2378    3.3121   -4.6847 C   0  0  0  0  0  0  0  0  0  0  0  0
    4.5670    3.7036   -4.2198 N   0  0  0  0  0  0  0  0  0  0  0  0
    4.5442   -0.7833    0.5040 C   0  0  0  0  0  0  0  0  0  0  0  0
    5.6665   -0.8626    1.1596 N   0  0  0  0  0  0  0  0  0  0  0  0
    6.1517   -2.1489    1.1984 C   0  0  0  0  0  0  0  0  0  0  0  0
    7.4352   -2.4249    1.9150 C   0  0  0  0  0  0  0  0  0  0  0  0
    7.9382   -3.5152    1.9951 O   0  0  0  0  0  0  0  0  0  0  0  0
    7.9782   -1.3269    2.4662 O   0  0  0  0  0  0  0  0  0  0  0  0
    5.3816   -3.0852    0.5574 C   0  0  0  0  0  0  0  0  0  0  0  0
    3.9933   -2.3310   -0.1271 S   0  0  0  0  0  0  0  0  0  0  0  0
    3.5610    2.5054    1.0286 H   0  0  0  0  0  0  0  0  0  0  0  0
    5.2350    1.8710    1.0939 H   0  0  0  0  0  0  0  0  0  0  0  0
    4.0287    1.2958    2.2591 H   0  0  0  0  0  0  0  0  0  0  0  0
    2.6974    0.2583    0.3833 H   0  0  0  0  0  0  0  0  0  0  0  0
    4.6923    1.5137   -1.3820 H   0  0  0  0  0  0  0  0  0  0  0  0
    4.3976    1.3268   -3.5474 H   0  0  0  0  0  0  0  0  0  0  0  0
    3.5025   -0.9186   -4.4007 H   0  0  0  0  0  0  0  0  0  0  0  0
    3.5382    0.4146   -5.5515 H   0  0  0  0  0  0  0  0  0  0  0  0
    1.0733   -0.6565   -4.0787 H   0  0  0  0  0  0  0  0  0  0  0  0
    1.4183   -0.7948   -5.8130 H   0  0  0  0  0  0  0  0  0  0  0  0
   -0.2431    1.0444   -5.3180 H   0  0  0  0  0  0  0  0  0  0  0  0
    1.2133    1.6662   -6.0938 H   0  0  0  0  0  0  0  0  0  0  0  0
    0.5790    1.7062   -3.0843 H   0  0  0  0  0  0  0  0  0  0  0  0
    0.5577    3.1144   -4.1524 H   0  0  0  0  0  0  0  0  0  0  0  0
    2.6005    2.9241   -2.6944 H   0  0  0  0  0  0  0  0  0  0  0  0
    2.5645    4.1720   -4.8858 H   0  0  0  0  0  0  0  0  0  0  0  0
    3.3566    2.7879   -5.6467 H   0  0  0  0  0  0  0  0  0  0  0  0
    4.4949    4.4265   -3.5027 H   0  0  0  0  0  0  0  0  0  0  0  0
    5.1160    4.1072   -4.9777 H   0  0  0  0  0  0  0  0  0  0  0  0
    7.3847   -0.5780    2.2636 H   0  0  0  0  0  0  0  0  0  0  0  0
    5.5829   -4.1515    0.4713 H   0  0  0  0  0  0  0  0  0  0  0  0
  1  2  1  0
  1 22  1  0
  1 23  1  0
  1 24  1  0
  2  3  1  0
  2 14  1  0
  2 25  1  1
  3  4  1  0
  3 26  1  0
  4  5  2  0
  4  6  1  0
  6  7  1  0
  6 11  1  0
  6 27  1  1
  7  8  1  0
  7 28  1  0
  7 29  1  0
  8  9  1  0
  8 30  1  0
  8 31  1  0
  9 10  1  0
  9 32  1  0
  9 33  1  0
 10 11  1  0
 10 34  1  0
 10 35  1  0
 11 12  1  0
 11 36  1  1
 12 13  1  0
 12 37  1  0
 12 38  1  0
 13 39  1  0
 13 40  1  0
 14 15  2  0
 14 21  1  0
 15 16  1  0
 16 17  1  0
 16 20  2  0
 17 18  2  0
 17 19  1  0
 19 41  1  0
 20 21  1  0
 20 42  1  0
M  END

