
     RDKit          3D

 46 47  0  0  0  0  0  0  0  0999 V2000
    5.1778    1.3655   -2.9087 C   0  0  0  0  0  0  0  0  0  0  0  0
    5.5102    0.1084   -2.1284 C   0  0  0  0  0  0  0  0  0  0  0  0
    4.3905   -0.2459   -1.3297 O   0  0  0  0  0  0  0  0  0  0  0  0
    4.5048   -1.4343   -0.5624 C   0  0  1  0  0  0  0  0  0  0  0  0
    5.2152   -1.2371    0.7925 C   0  0  0  0  0  0  0  0  0  0  0  0
    4.5879   -0.1863    1.6813 C   0  0  0  0  0  0  0  0  0  0  0  0
    3.5482   -0.5061    2.5646 C   0  0  0  0  0  0  0  0  0  0  0  0
    2.9440    0.4646    3.3720 C   0  0  0  0  0  0  0  0  0  0  0  0
    3.3791    1.7965    3.3055 C   0  0  0  0  0  0  0  0  0  0  0  0
    2.8654    2.8140    4.0437 O   0  0  0  0  0  0  0  0  0  0  0  0
    1.8095    2.5618    4.9540 C   0  0  0  0  0  0  0  0  0  0  0  0
    1.4412    3.8834    5.6271 C   0  0  0  0  0  0  0  0  0  0  0  0
    0.3166    3.7294    6.6269 C   0  0  0  0  0  0  0  0  0  0  0  0
    0.5760    3.4390    7.9741 C   0  0  0  0  0  0  0  0  0  0  0  0
   -0.4600    3.2598    8.8941 C   0  0  0  0  0  0  0  0  0  0  0  0
   -1.7944    3.3671    8.4795 C   0  0  0  0  0  0  0  0  0  0  0  0
   -2.8443    3.2064    9.3267 O   0  0  0  0  0  0  0  0  0  0  0  0
   -2.0735    3.6579    7.1362 C   0  0  0  0  0  0  0  0  0  0  0  0
   -1.0283    3.8340    6.2314 C   0  0  0  0  0  0  0  0  0  0  0  0
    4.4230    2.1324    2.4259 C   0  0  0  0  0  0  0  0  0  0  0  0
    5.0111    1.1541    1.6309 C   0  0  0  0  0  0  0  0  0  0  0  0
    3.0861   -2.0037   -0.3686 C   0  0  0  0  0  0  0  0  0  0  0  0
    2.8729   -2.9826    0.2980 O   0  0  0  0  0  0  0  0  0  0  0  0
    2.1319   -1.3289   -1.0097 O   0  0  0  0  0  0  0  0  0  0  0  0
    6.0339    1.6647   -3.5331 H   0  0  0  0  0  0  0  0  0  0  0  0
    4.9381    2.1945   -2.2256 H   0  0  0  0  0  0  0  0  0  0  0  0
    4.3115    1.1997   -3.5680 H   0  0  0  0  0  0  0  0  0  0  0  0
    6.3951    0.2768   -1.4863 H   0  0  0  0  0  0  0  0  0  0  0  0
    5.7583   -0.7276   -2.8126 H   0  0  0  0  0  0  0  0  0  0  0  0
    5.0601   -2.2004   -1.1401 H   0  0  0  0  0  0  0  0  0  0  0  0
    6.2708   -0.9869    0.5985 H   0  0  0  0  0  0  0  0  0  0  0  0
    5.2062   -2.2194    1.2886 H   0  0  0  0  0  0  0  0  0  0  0  0
    3.1937   -1.5382    2.6242 H   0  0  0  0  0  0  0  0  0  0  0  0
    2.1402    0.1681    4.0459 H   0  0  0  0  0  0  0  0  0  0  0  0
    2.1213    1.8191    5.7125 H   0  0  0  0  0  0  0  0  0  0  0  0
    0.9333    2.1430    4.4242 H   0  0  0  0  0  0  0  0  0  0  0  0
    1.1631    4.6037    4.8407 H   0  0  0  0  0  0  0  0  0  0  0  0
    2.3435    4.2821    6.1183 H   0  0  0  0  0  0  0  0  0  0  0  0
    1.6110    3.3570    8.3194 H   0  0  0  0  0  0  0  0  0  0  0  0
   -0.2310    3.0396    9.9420 H   0  0  0  0  0  0  0  0  0  0  0  0
   -2.5157    3.0130   10.2144 H   0  0  0  0  0  0  0  0  0  0  0  0
   -3.1160    3.7459    6.8235 H   0  0  0  0  0  0  0  0  0  0  0  0
   -1.2646    4.0665    5.1886 H   0  0  0  0  0  0  0  0  0  0  0  0
    4.7563    3.1716    2.3896 H   0  0  0  0  0  0  0  0  0  0  0  0
    5.8271    1.4379    0.9600 H   0  0  0  0  0  0  0  0  0  0  0  0
    2.5789   -0.5753   -1.4473 H   0  0  0  0  0  0  0  0  0  0  0  0
  1  2  1  0
  1 25  1  0
  1 26  1  0
  1 27  1  0
  2  3  1  0
  2 28  1  0
  2 29  1  0
  3  4  1  0
  4  5  1  0
  4 22  1  0
  4 30  1  6
  5  6  1  0
  5 31  1  0
  5 32  1  0
  6  7  2  0
  6 21  1  0
  7  8  1  0
  7 33  1  0
  8  9  2  0
  8 34  1  0
  9 10  1  0
  9 20  1  0
 10 11  1  0
 11 12  1  0
 11 35  1  0
 11 36  1  0
 12 13  1  0
 12 37  1  0
 12 38  1  0
 13 14  2  0
 13 19  1  0
 14 15  1  0
 14 39  1  0
 15 16  2  0
 15 40  1  0
 16 17  1  0
 16 18  1  0
 17 41  1  0
 18 19  2  0
 18 42  1  0
 19 43  1  0
 20 21  2  0
 20 44  1  0
 21 45  1  0
 22 23  2  0
 22 24  1  0
 24 46  1  0
M  END

