
     RDKit          3D

 37 37  0  0  0  0  0  0  0  0999 V2000
    6.1608   -0.8211    0.9423 O   0  0  0  0  0  0  0  0  0  0  0  0
    5.2867   -1.6282    0.7443 C   0  0  0  0  0  0  0  0  0  0  0  0
    4.2372   -1.7003    1.5902 O   0  0  0  0  0  0  0  0  0  0  0  0
    5.2604   -2.5541   -0.4620 C   0  0  0  0  0  0  0  0  0  0  0  0
    4.7060   -1.8697   -1.7320 C   0  0  0  0  0  0  0  0  0  0  0  0
    5.3617   -0.5154   -2.0615 C   0  0  0  0  0  0  0  0  0  0  0  0
    6.8088   -0.5144   -1.9909 N   0  0  0  0  0  0  0  0  0  0  0  0
    7.5630   -1.0463   -3.0106 C   0  0  0  0  0  0  0  0  0  0  0  0
    7.0757   -1.4507   -4.0583 O   0  0  0  0  0  0  0  0  0  0  0  0
    8.9220   -1.0839   -2.7494 N   0  0  0  0  0  0  0  0  0  0  0  0
    9.8687   -1.4940   -3.7673 C   0  0  1  0  0  0  0  0  0  0  0  0
   10.9348   -0.3897   -3.9261 C   0  0  0  0  0  0  0  0  0  0  0  0
   11.5603   -0.0880   -2.6947 O   0  0  0  0  0  0  0  0  0  0  0  0
   10.5266   -2.8424   -3.4803 C   0  0  0  0  0  0  0  0  0  0  0  0
   11.0532   -3.6028   -4.5368 C   0  0  0  0  0  0  0  0  0  0  0  0
   11.7176   -4.8079   -4.3049 C   0  0  0  0  0  0  0  0  0  0  0  0
   11.8656   -5.2657   -2.9918 C   0  0  0  0  0  0  0  0  0  0  0  0
   12.6966   -6.7755   -2.6887 Cl  0  0  0  0  0  0  0  0  0  0  0  0
   11.3485   -4.5317   -1.9224 C   0  0  0  0  0  0  0  0  0  0  0  0
   10.6825   -3.3282   -2.1743 C   0  0  0  0  0  0  0  0  0  0  0  0
    3.6259   -2.3964    1.3109 H   0  0  0  0  0  0  0  0  0  0  0  0
    4.6834   -3.4698   -0.2495 H   0  0  0  0  0  0  0  0  0  0  0  0
    6.3003   -2.8618   -0.6439 H   0  0  0  0  0  0  0  0  0  0  0  0
    3.6163   -1.7181   -1.6370 H   0  0  0  0  0  0  0  0  0  0  0  0
    4.8629   -2.5570   -2.5776 H   0  0  0  0  0  0  0  0  0  0  0  0
    4.9969    0.2630   -1.3736 H   0  0  0  0  0  0  0  0  0  0  0  0
    5.0642   -0.2234   -3.0791 H   0  0  0  0  0  0  0  0  0  0  0  0
    7.2031   -0.4348   -1.0574 H   0  0  0  0  0  0  0  0  0  0  0  0
    9.3004   -0.4962   -2.0126 H   0  0  0  0  0  0  0  0  0  0  0  0
    9.3078   -1.5784   -4.7110 H   0  0  0  0  0  0  0  0  0  0  0  0
   10.4424    0.5372   -4.2597 H   0  0  0  0  0  0  0  0  0  0  0  0
   11.6669   -0.6830   -4.7020 H   0  0  0  0  0  0  0  0  0  0  0  0
   12.0839   -0.8573   -2.4281 H   0  0  0  0  0  0  0  0  0  0  0  0
   10.9331   -3.2533   -5.5666 H   0  0  0  0  0  0  0  0  0  0  0  0
   12.1148   -5.3969   -5.1333 H   0  0  0  0  0  0  0  0  0  0  0  0
   11.4623   -4.9046   -0.9029 H   0  0  0  0  0  0  0  0  0  0  0  0
   10.2518   -2.7704   -1.3401 H   0  0  0  0  0  0  0  0  0  0  0  0
  1  2  2  0
  2  3  1  0
  2  4  1  0
  3 21  1  0
  4  5  1  0
  4 22  1  0
  4 23  1  0
  5  6  1  0
  5 24  1  0
  5 25  1  0
  6  7  1  0
  6 26  1  0
  6 27  1  0
  7  8  1  0
  7 28  1  0
  8  9  2  0
  8 10  1  0
 10 11  1  0
 10 29  1  0
 11 12  1  0
 11 14  1  0
 11 30  1  6
 12 13  1  0
 12 31  1  0
 12 32  1  0
 13 33  1  0
 14 15  2  0
 14 20  1  0
 15 16  1  0
 15 34  1  0
 16 17  2  0
 16 35  1  0
 17 18  1  0
 17 19  1  0
 19 20  2  0
 19 36  1  0
 20 37  1  0
M  END

