
     RDKit          3D

 94107  0  0  0  0  0  0  0  0999 V2000
   -4.0131    4.0053    0.0165 C   0  0  0  0  0  0  0  0  0  0  0  0
   -2.6640    3.8982   -0.2649 C   0  0  0  0  0  0  0  0  0  0  0  0
   -2.0529    2.6432   -0.5089 C   0  0  0  0  0  0  0  0  0  0  0  0
   -0.6614    2.5268   -0.8460 C   0  0  0  0  0  0  0  0  0  0  0  0
   -0.0957    1.3103   -1.1023 C   0  0  0  0  0  0  0  0  0  0  0  0
   -0.8606    0.0987   -1.0013 C   0  0  0  0  0  0  0  0  0  0  0  0
   -0.2852   -1.1746   -1.2370 C   0  0  0  0  0  0  0  0  0  0  0  0
   -1.0171   -2.3386   -1.0949 C   0  0  0  0  0  0  0  0  0  0  0  0
   -2.3757   -2.3027   -0.6811 C   0  0  0  0  0  0  0  0  0  0  0  0
   -2.9424   -1.0456   -0.4638 C   0  0  0  0  0  0  0  0  0  0  0  0
   -2.2373    0.1637   -0.6357 C   0  0  0  0  0  0  0  0  0  0  0  0
   -2.8591    1.4696   -0.4318 C   0  0  0  0  0  0  0  0  0  0  0  0
   -4.2386    1.6203   -0.1800 C   0  0  0  0  0  0  0  0  0  0  0  0
   -4.8473    2.8557    0.0475 C   0  0  0  0  0  0  0  0  0  0  0  0
   -6.3155    2.9487    0.2947 C   0  0  0  0  0  0  0  0  0  0  0  0
   -7.0182    4.1665    0.2169 C   0  0  0  0  0  0  0  0  0  0  0  0
   -8.3921    4.2216    0.4631 C   0  0  0  0  0  0  0  0  0  0  0  0
   -9.1160    3.0659    0.7604 C   0  0  0  0  0  0  0  0  0  0  0  0
   -8.4502    1.8254    0.8028 C   0  0  0  0  0  0  0  0  0  0  0  0
   -7.0646    1.8000    0.6076 C   0  0  0  0  0  0  0  0  0  0  0  0
   -9.2215    0.5873    1.0677 C   0  0  0  0  0  0  0  0  0  0  0  0
   -8.7279   -0.6755    0.7180 C   0  0  0  0  0  0  0  0  0  0  0  0
   -9.4210   -1.8661    0.9970 C   0  0  0  0  0  0  0  0  0  0  0  0
  -10.6735   -1.7516    1.6282 C   0  0  0  0  0  0  0  0  0  0  0  0
  -11.2050   -0.4980    1.9400 C   0  0  0  0  0  0  0  0  0  0  0  0
  -10.4960    0.6723    1.6614 C   0  0  0  0  0  0  0  0  0  0  0  0
  -11.0480    2.0421    2.0383 C   0  0  2  0  0  0  0  0  0  0  0  0
  -12.4661    2.0050    2.1502 O   0  0  0  0  0  0  0  0  0  0  0  0
  -13.2317    2.5100    1.0612 C   0  0  0  0  0  0  0  0  0  0  0  0
  -12.5258    2.2991   -0.2640 C   0  0  0  0  0  0  0  0  0  0  0  0
  -11.2108    2.8457   -0.2644 O   0  0  0  0  0  0  0  0  0  0  0  0
  -10.6231    3.1086    0.9810 C   0  0  2  0  0  0  0  0  0  0  0  0
  -11.0383    4.4035    1.4004 O   0  0  0  0  0  0  0  0  0  0  0  0
  -11.2933    4.6021    2.7870 C   0  0  0  0  0  0  0  0  0  0  0  0
  -10.4098    3.7220    3.6496 C   0  0  0  0  0  0  0  0  0  0  0  0
  -10.5198    2.3457    3.3011 O   0  0  0  0  0  0  0  0  0  0  0  0
   -8.8283   -3.1822    0.6270 C   0  0  0  0  0  0  0  0  0  0  0  0
   -9.6126   -4.3304    0.4108 C   0  0  0  0  0  0  0  0  0  0  0  0
   -9.0175   -5.5512    0.0841 C   0  0  0  0  0  0  0  0  0  0  0  0
   -7.6334   -5.6584   -0.0660 C   0  0  0  0  0  0  0  0  0  0  0  0
   -6.8260   -4.5168    0.1038 C   0  0  0  0  0  0  0  0  0  0  0  0
   -7.4367   -3.3141    0.4797 C   0  0  0  0  0  0  0  0  0  0  0  0
   -5.3598   -4.6182   -0.0907 C   0  0  0  0  0  0  0  0  0  0  0  0
   -4.5716   -3.4885   -0.3375 C   0  0  0  0  0  0  0  0  0  0  0  0
   -3.1721   -3.5460   -0.4670 C   0  0  0  0  0  0  0  0  0  0  0  0
   -2.5749   -4.8177   -0.3726 C   0  0  0  0  0  0  0  0  0  0  0  0
   -3.3496   -5.9642   -0.1809 C   0  0  0  0  0  0  0  0  0  0  0  0
   -4.7359   -5.8803   -0.0442 C   0  0  0  0  0  0  0  0  0  0  0  0
   -5.5840   -7.1196    0.2146 C   0  0  2  0  0  0  0  0  0  0  0  0
   -4.9285   -8.2908   -0.2584 O   0  0  0  0  0  0  0  0  0  0  0  0
   -5.3497   -8.8288   -1.5075 C   0  0  0  0  0  0  0  0  0  0  0  0
   -5.8342   -7.7434   -2.4489 C   0  0  0  0  0  0  0  0  0  0  0  0
   -6.8574   -6.9437   -1.8645 O   0  0  0  0  0  0  0  0  0  0  0  0
   -6.9799   -6.9753   -0.4681 C   0  0  2  0  0  0  0  0  0  0  0  0
   -7.8080   -8.0799   -0.1229 O   0  0  0  0  0  0  0  0  0  0  0  0
   -7.4829   -8.8107    1.0550 C   0  0  0  0  0  0  0  0  0  0  0  0
   -6.8487   -7.9220    2.1072 C   0  0  0  0  0  0  0  0  0  0  0  0
   -5.7120   -7.2255    1.6068 O   0  0  0  0  0  0  0  0  0  0  0  0
   -4.4331    4.9919    0.2176 H   0  0  0  0  0  0  0  0  0  0  0  0
   -2.0452    4.7991   -0.3015 H   0  0  0  0  0  0  0  0  0  0  0  0
   -0.0624    3.4394   -0.9081 H   0  0  0  0  0  0  0  0  0  0  0  0
    0.9604    1.2382   -1.3763 H   0  0  0  0  0  0  0  0  0  0  0  0
    0.7645   -1.2284   -1.5389 H   0  0  0  0  0  0  0  0  0  0  0  0
   -0.5346   -3.2939   -1.3072 H   0  0  0  0  0  0  0  0  0  0  0  0
   -3.9690   -0.9917   -0.1110 H   0  0  0  0  0  0  0  0  0  0  0  0
   -4.8610    0.7294   -0.1986 H   0  0  0  0  0  0  0  0  0  0  0  0
   -6.4972    5.0885   -0.0458 H   0  0  0  0  0  0  0  0  0  0  0  0
   -8.9220    5.1744    0.4181 H   0  0  0  0  0  0  0  0  0  0  0  0
   -6.5505    0.8491    0.7322 H   0  0  0  0  0  0  0  0  0  0  0  0
   -7.7858   -0.7310    0.1749 H   0  0  0  0  0  0  0  0  0  0  0  0
  -11.2389   -2.6480    1.8908 H   0  0  0  0  0  0  0  0  0  0  0  0
  -12.1838   -0.4161    2.4151 H   0  0  0  0  0  0  0  0  0  0  0  0
  -13.4413    3.5841    1.2104 H   0  0  0  0  0  0  0  0  0  0  0  0
  -14.1919    1.9700    1.0650 H   0  0  0  0  0  0  0  0  0  0  0  0
  -13.0916    2.7876   -1.0742 H   0  0  0  0  0  0  0  0  0  0  0  0
  -12.4630    1.2198   -0.4914 H   0  0  0  0  0  0  0  0  0  0  0  0
  -11.0914    5.6633    3.0029 H   0  0  0  0  0  0  0  0  0  0  0  0
  -12.3567    4.4028    3.0096 H   0  0  0  0  0  0  0  0  0  0  0  0
  -10.6970    3.8228    4.7091 H   0  0  0  0  0  0  0  0  0  0  0  0
   -9.3542    4.0322    3.5490 H   0  0  0  0  0  0  0  0  0  0  0  0
  -10.7004   -4.2734    0.4859 H   0  0  0  0  0  0  0  0  0  0  0  0
   -9.6305   -6.4412   -0.0670 H   0  0  0  0  0  0  0  0  0  0  0  0
   -6.8015   -2.4579    0.7014 H   0  0  0  0  0  0  0  0  0  0  0  0
   -5.0767   -2.5325   -0.4597 H   0  0  0  0  0  0  0  0  0  0  0  0
   -1.4912   -4.9250   -0.4410 H   0  0  0  0  0  0  0  0  0  0  0  0
   -2.8765   -6.9460   -0.1280 H   0  0  0  0  0  0  0  0  0  0  0  0
   -6.1485   -9.5752   -1.3493 H   0  0  0  0  0  0  0  0  0  0  0  0
   -4.4806   -9.3450   -1.9452 H   0  0  0  0  0  0  0  0  0  0  0  0
   -6.2460   -8.1960   -3.3658 H   0  0  0  0  0  0  0  0  0  0  0  0
   -4.9916   -7.0894   -2.7371 H   0  0  0  0  0  0  0  0  0  0  0  0
   -8.4234   -9.2359    1.4400 H   0  0  0  0  0  0  0  0  0  0  0  0
   -6.8041   -9.6463    0.8079 H   0  0  0  0  0  0  0  0  0  0  0  0
   -6.5175   -8.5306    2.9646 H   0  0  0  0  0  0  0  0  0  0  0  0
   -7.5857   -7.1849    2.4736 H   0  0  0  0  0  0  0  0  0  0  0  0
  1  2  2  0
  1 14  1  0
  1 59  1  0
  2  3  1  0
  2 60  1  0
  3  4  2  0
  3 12  1  0
  4  5  1  0
  4 61  1  0
  5  6  2  0
  5 62  1  0
  6  7  1  0
  6 11  1  0
  7  8  2  0
  7 63  1  0
  8  9  1  0
  8 64  1  0
  9 10  2  0
  9 45  1  0
 10 11  1  0
 10 65  1  0
 11 12  2  0
 12 13  1  0
 13 14  2  0
 13 66  1  0
 14 15  1  0
 15 16  2  0
 15 20  1  0
 16 17  1  0
 16 67  1  0
 17 18  2  0
 17 68  1  0
 18 19  1  0
 18 32  1  0
 19 20  2  0
 19 21  1  0
 20 69  1  0
 21 22  2  0
 21 26  1  0
 22 23  1  0
 22 70  1  0
 23 24  2  0
 23 37  1  0
 24 25  1  0
 24 71  1  0
 25 26  2  0
 25 72  1  0
 26 27  1  0
 27 28  1  1
 27 32  1  0
 27 36  1  0
 28 29  1  0
 29 30  1  0
 29 73  1  0
 29 74  1  0
 30 31  1  0
 30 75  1  0
 30 76  1  0
 32 31  1  6
 32 33  1  0
 33 34  1  0
 34 35  1  0
 34 77  1  0
 34 78  1  0
 35 36  1  0
 35 79  1  0
 35 80  1  0
 37 38  2  0
 37 42  1  0
 38 39  1  0
 38 81  1  0
 39 40  2  0
 39 82  1  0
 40 41  1  0
 40 54  1  0
 41 42  2  0
 41 43  1  0
 42 83  1  0
 43 44  1  0
 43 48  2  0
 44 45  2  0
 44 84  1  0
 45 46  1  0
 46 47  2  0
 46 85  1  0
 47 48  1  0
 47 86  1  0
 48 49  1  0
 49 50  1  6
 49 54  1  0
 49 58  1  0
 50 51  1  0
 51 52  1  0
 51 87  1  0
 51 88  1  0
 52 53  1  0
 52 89  1  0
 52 90  1  0
 54 53  1  6
 54 55  1  0
 55 56  1  0
 56 57  1  0
 56 91  1  0
 56 92  1  0
 57 58  1  0
 57 93  1  0
 57 94  1  0
M  END

