
     RDKit          3D

 42 42  0  0  0  0  0  0  0  0999 V2000
    7.6936    7.1872   -2.3209 C   0  0  0  0  0  0  0  0  0  0  0  0
    7.2410    5.9320   -1.8833 O   0  0  0  0  0  0  0  0  0  0  0  0
    5.9085    5.9209   -1.4254 C   0  0  0  0  0  0  0  0  0  0  0  0
    5.5952    4.5157   -0.9392 C   0  0  0  0  0  0  0  0  0  0  0  0
    6.5161    4.1049    0.1007 N   0  0  0  0  0  0  0  0  0  0  0  0
    6.1147    3.5718    1.2847 C   0  0  0  0  0  0  0  0  0  0  0  0
    4.9506    3.3804    1.5932 O   0  0  0  0  0  0  0  0  0  0  0  0
    7.2385    3.2130    2.2737 C   0  0  0  0  0  0  0  0  0  0  0  0
    8.6039    3.3399    1.7972 N   0  0  0  0  0  0  0  0  0  0  0  0
    9.1826    2.1719    1.1126 C   0  0  0  0  0  0  0  0  0  0  0  0
    9.5882    1.0490    2.0469 C   0  0  0  0  0  0  0  0  0  0  0  0
    8.8654   -0.1487    2.1013 C   0  0  0  0  0  0  0  0  0  0  0  0
    9.2396   -1.1768    2.9747 C   0  0  0  0  0  0  0  0  0  0  0  0
   10.3474   -1.0389    3.8202 C   0  0  0  0  0  0  0  0  0  0  0  0
   10.7617   -2.1400    4.7659 C   0  0  0  0  0  0  0  0  0  0  0  0
   11.0727    0.1655    3.7596 C   0  0  0  0  0  0  0  0  0  0  0  0
   10.7048    1.1909    2.8911 C   0  0  0  0  0  0  0  0  0  0  0  0
    9.4288    4.4136    2.0779 C   0  0  0  0  0  0  0  0  0  0  0  0
    8.8012    5.6087    2.7805 C   0  0  0  0  0  0  0  0  0  0  0  0
   10.6094    4.4134    1.7656 O   0  0  0  0  0  0  0  0  0  0  0  0
    8.7387    7.0746   -2.6432 H   0  0  0  0  0  0  0  0  0  0  0  0
    7.6519    7.9471   -1.5146 H   0  0  0  0  0  0  0  0  0  0  0  0
    7.0984    7.5651   -3.1765 H   0  0  0  0  0  0  0  0  0  0  0  0
    5.2060    6.2031   -2.2372 H   0  0  0  0  0  0  0  0  0  0  0  0
    5.7732    6.6510   -0.6000 H   0  0  0  0  0  0  0  0  0  0  0  0
    5.6485    3.8213   -1.7972 H   0  0  0  0  0  0  0  0  0  0  0  0
    4.5789    4.4624   -0.5234 H   0  0  0  0  0  0  0  0  0  0  0  0
    7.5062    4.2441   -0.0708 H   0  0  0  0  0  0  0  0  0  0  0  0
    7.0535    2.1738    2.5889 H   0  0  0  0  0  0  0  0  0  0  0  0
    7.0687    3.8216    3.1720 H   0  0  0  0  0  0  0  0  0  0  0  0
   10.0570    2.5377    0.5585 H   0  0  0  0  0  0  0  0  0  0  0  0
    8.4416    1.8031    0.3857 H   0  0  0  0  0  0  0  0  0  0  0  0
    7.9993   -0.2892    1.4472 H   0  0  0  0  0  0  0  0  0  0  0  0
    8.6572   -2.1025    2.9956 H   0  0  0  0  0  0  0  0  0  0  0  0
   10.0967   -3.0128    4.6885 H   0  0  0  0  0  0  0  0  0  0  0  0
   10.7446   -1.7957    5.8137 H   0  0  0  0  0  0  0  0  0  0  0  0
   11.7900   -2.4806    4.5581 H   0  0  0  0  0  0  0  0  0  0  0  0
   11.9477    0.2972    4.4037 H   0  0  0  0  0  0  0  0  0  0  0  0
   11.2854    2.1161    2.8525 H   0  0  0  0  0  0  0  0  0  0  0  0
    7.8736    5.9426    2.2921 H   0  0  0  0  0  0  0  0  0  0  0  0
    9.5375    6.4212    2.7676 H   0  0  0  0  0  0  0  0  0  0  0  0
    8.5623    5.3702    3.8297 H   0  0  0  0  0  0  0  0  0  0  0  0
  1  2  1  0
  1 21  1  0
  1 22  1  0
  1 23  1  0
  2  3  1  0
  3  4  1  0
  3 24  1  0
  3 25  1  0
  4  5  1  0
  4 26  1  0
  4 27  1  0
  5  6  1  0
  5 28  1  0
  6  7  2  0
  6  8  1  0
  8  9  1  0
  8 29  1  0
  8 30  1  0
  9 10  1  0
  9 18  1  0
 10 11  1  0
 10 31  1  0
 10 32  1  0
 11 12  2  0
 11 17  1  0
 12 13  1  0
 12 33  1  0
 13 14  2  0
 13 34  1  0
 14 15  1  0
 14 16  1  0
 15 35  1  0
 15 36  1  0
 15 37  1  0
 16 17  2  0
 16 38  1  0
 17 39  1  0
 18 19  1  0
 18 20  2  0
 19 40  1  0
 19 41  1  0
 19 42  1  0
M  END

