
     RDKit          3D

 48 50  0  0  0  0  0  0  0  0999 V2000
    1.0773    1.1177   -1.5459 C   0  0  0  0  0  0  0  0  0  0  0  0
    2.5983    1.0166   -1.5077 C   0  0  0  0  0  0  0  0  0  0  0  0
    3.1494    1.5097    0.1844 S   0  0  0  0  0  0  0  0  0  0  0  0
    4.8614    1.1721    0.2542 C   0  0  0  0  0  0  0  0  0  0  0  0
    5.6298    1.0101    1.3789 C   0  0  0  0  0  0  0  0  0  0  0  0
    5.2643    1.0565    2.7955 C   0  0  0  0  0  0  0  0  0  0  0  0
    6.0130    0.3473    3.7684 C   0  0  0  0  0  0  0  0  0  0  0  0
    5.6513    0.3647    5.1064 C   0  0  0  0  0  0  0  0  0  0  0  0
    4.5326    1.1016    5.5385 C   0  0  0  0  0  0  0  0  0  0  0  0
    4.2600    1.0553    6.8631 O   0  0  0  0  0  0  0  0  0  0  0  0
    3.1545    1.7701    7.3705 C   0  0  0  0  0  0  0  0  0  0  0  0
    3.7888    1.8281    4.5959 C   0  0  0  0  0  0  0  0  0  0  0  0
    4.1563    1.7985    3.2494 C   0  0  0  0  0  0  0  0  0  0  0  0
    7.0438    0.7637    0.9206 C   0  0  0  0  0  0  0  0  0  0  0  0
    8.0315    0.5633    1.5890 O   0  0  0  0  0  0  0  0  0  0  0  0
    7.0405    0.8212   -0.4843 N   0  0  0  0  0  0  0  0  0  0  0  0
    8.1668    0.5673   -1.3233 C   0  0  0  0  0  0  0  0  0  0  0  0
    8.5662   -0.7600   -1.5395 C   0  0  0  0  0  0  0  0  0  0  0  0
    9.6107   -1.0896   -2.4060 C   0  0  0  0  0  0  0  0  0  0  0  0
   10.0397   -2.5209   -2.6200 C   0  0  0  0  0  0  0  0  0  0  0  0
   10.2504   -0.0327   -3.0785 C   0  0  0  0  0  0  0  0  0  0  0  0
    9.8785    1.2896   -2.8647 C   0  0  0  0  0  0  0  0  0  0  0  0
    8.8427    1.6172   -1.9741 C   0  0  0  0  0  0  0  0  0  0  0  0
    8.5457    2.9356   -1.8409 O   0  0  0  0  0  0  0  0  0  0  0  0
    8.3286    3.4988   -0.5555 C   0  0  0  0  0  0  0  0  0  0  0  0
    5.7481    1.0691   -0.9628 C   0  0  0  0  0  0  0  0  0  0  0  0
    5.4443    1.1667   -2.1272 O   0  0  0  0  0  0  0  0  0  0  0  0
    0.7149    0.8388   -2.5479 H   0  0  0  0  0  0  0  0  0  0  0  0
    0.7344    2.1443   -1.3398 H   0  0  0  0  0  0  0  0  0  0  0  0
    0.6037    0.4456   -0.8130 H   0  0  0  0  0  0  0  0  0  0  0  0
    3.0756    1.6726   -2.2444 H   0  0  0  0  0  0  0  0  0  0  0  0
    2.9410   -0.0096   -1.7000 H   0  0  0  0  0  0  0  0  0  0  0  0
    6.8901   -0.2192    3.4596 H   0  0  0  0  0  0  0  0  0  0  0  0
    6.2242   -0.1905    5.8518 H   0  0  0  0  0  0  0  0  0  0  0  0
    3.1293    1.5804    8.4518 H   0  0  0  0  0  0  0  0  0  0  0  0
    2.2039    1.4268    6.9243 H   0  0  0  0  0  0  0  0  0  0  0  0
    3.2553    2.8571    7.2004 H   0  0  0  0  0  0  0  0  0  0  0  0
    2.9279    2.4255    4.8962 H   0  0  0  0  0  0  0  0  0  0  0  0
    3.5769    2.3986    2.5469 H   0  0  0  0  0  0  0  0  0  0  0  0
    8.0223   -1.5492   -1.0146 H   0  0  0  0  0  0  0  0  0  0  0  0
    9.3619   -3.2260   -2.1167 H   0  0  0  0  0  0  0  0  0  0  0  0
   11.0553   -2.6980   -2.2262 H   0  0  0  0  0  0  0  0  0  0  0  0
   10.0605   -2.7793   -3.6915 H   0  0  0  0  0  0  0  0  0  0  0  0
   11.0650   -0.2513   -3.7754 H   0  0  0  0  0  0  0  0  0  0  0  0
   10.3842    2.1116   -3.3753 H   0  0  0  0  0  0  0  0  0  0  0  0
    8.6866    4.5384   -0.5997 H   0  0  0  0  0  0  0  0  0  0  0  0
    8.8892    2.9590    0.2252 H   0  0  0  0  0  0  0  0  0  0  0  0
    7.2595    3.5141   -0.2865 H   0  0  0  0  0  0  0  0  0  0  0  0
  1  2  1  0
  1 28  1  0
  1 29  1  0
  1 30  1  0
  2  3  1  0
  2 31  1  0
  2 32  1  0
  3  4  2  0
  4  5  1  0
  4 26  1  0
  5  6  1  0
  5 14  2  0
  6  7  2  0
  6 13  1  0
  7  8  1  0
  7 33  1  0
  8  9  2  0
  8 34  1  0
  9 10  1  0
  9 12  1  0
 10 11  1  0
 11 35  1  0
 11 36  1  0
 11 37  1  0
 12 13  2  0
 12 38  1  0
 13 39  1  0
 14 15  1  0
 14 16  1  0
 16 17  1  0
 16 26  1  0
 17 18  2  0
 17 23  1  0
 18 19  1  0
 18 40  1  0
 19 20  1  0
 19 21  2  0
 20 41  1  0
 20 42  1  0
 20 43  1  0
 21 22  1  0
 21 44  1  0
 22 23  2  0
 22 45  1  0
 23 24  1  0
 24 25  1  0
 25 46  1  0
 25 47  1  0
 25 48  1  0
 26 27  2  0
M  CHG  2   3   1  15  -1
M  END

