
     RDKit          3D

 45 46  0  0  0  0  0  0  0  0999 V2000
    5.9247   -1.6899   -0.5959 C   0  0  0  0  0  0  0  0  0  0  0  0
    5.2413   -1.4573   -1.8066 O   0  0  0  0  0  0  0  0  0  0  0  0
    4.0862   -0.6669   -1.6740 C   0  0  0  0  0  0  0  0  0  0  0  0
    4.3120    0.8160   -1.3174 C   0  0  0  0  0  0  0  0  0  0  0  0
    3.6463    1.3249   -0.4279 O   0  0  0  0  0  0  0  0  0  0  0  0
    5.2491    1.5219   -2.0325 N   0  0  0  0  0  0  0  0  0  0  0  0
    5.9728    1.0677   -3.2180 C   0  0  0  0  0  0  0  0  0  0  0  0
    5.6389    1.9503   -4.4216 C   0  0  0  0  0  0  0  0  0  0  0  0
    5.8665    3.3571   -4.1058 N   0  0  0  0  0  0  0  0  0  0  0  0
    6.3416    4.1743   -5.1248 C   0  0  0  0  0  0  0  0  0  0  0  0
    6.6213    3.7264   -6.2312 O   0  0  0  0  0  0  0  0  0  0  0  0
    6.4779    5.5137   -4.8219 N   0  0  0  0  0  0  0  0  0  0  0  0
    7.0689    6.4476   -5.7850 C   0  0  1  0  0  0  0  0  0  0  0  0
    6.3111    7.7757   -5.7460 C   0  0  0  0  0  0  0  0  0  0  0  0
    8.5831    6.5682   -5.5934 C   0  0  0  0  0  0  0  0  0  0  0  0
    9.4131    5.5240   -6.0391 C   0  0  0  0  0  0  0  0  0  0  0  0
   10.7957    5.5767   -5.8518 C   0  0  0  0  0  0  0  0  0  0  0  0
   11.3674    6.6752   -5.2160 C   0  0  0  0  0  0  0  0  0  0  0  0
   12.6892    6.7464   -5.0300 F   0  0  0  0  0  0  0  0  0  0  0  0
   10.5537    7.7189   -4.7707 C   0  0  0  0  0  0  0  0  0  0  0  0
   11.1129    8.7726   -4.1647 F   0  0  0  0  0  0  0  0  0  0  0  0
    9.1750    7.6697   -4.9573 C   0  0  0  0  0  0  0  0  0  0  0  0
    5.1422    3.8130   -2.9241 C   0  0  0  0  0  0  0  0  0  0  0  0
    5.4701    2.9276   -1.7180 C   0  0  0  0  0  0  0  0  0  0  0  0
    6.7817   -2.3403   -0.8217 H   0  0  0  0  0  0  0  0  0  0  0  0
    5.2770   -2.1974    0.1452 H   0  0  0  0  0  0  0  0  0  0  0  0
    6.3012   -0.7543   -0.1394 H   0  0  0  0  0  0  0  0  0  0  0  0
    3.4146   -1.0500   -0.8850 H   0  0  0  0  0  0  0  0  0  0  0  0
    3.5487   -0.7276   -2.6355 H   0  0  0  0  0  0  0  0  0  0  0  0
    5.7442    0.0180   -3.4266 H   0  0  0  0  0  0  0  0  0  0  0  0
    7.0587    1.1285   -3.0175 H   0  0  0  0  0  0  0  0  0  0  0  0
    4.5803    1.7894   -4.7107 H   0  0  0  0  0  0  0  0  0  0  0  0
    6.2613    1.6900   -5.2859 H   0  0  0  0  0  0  0  0  0  0  0  0
    6.5407    5.7864   -3.8488 H   0  0  0  0  0  0  0  0  0  0  0  0
    6.9056    5.9759   -6.7637 H   0  0  0  0  0  0  0  0  0  0  0  0
    6.3501    8.2462   -4.7493 H   0  0  0  0  0  0  0  0  0  0  0  0
    5.2522    7.6064   -5.9900 H   0  0  0  0  0  0  0  0  0  0  0  0
    6.7273    8.4908   -6.4716 H   0  0  0  0  0  0  0  0  0  0  0  0
    8.9594    4.6605   -6.5303 H   0  0  0  0  0  0  0  0  0  0  0  0
   11.4509    4.7742   -6.1975 H   0  0  0  0  0  0  0  0  0  0  0  0
    8.5902    8.5176   -4.5974 H   0  0  0  0  0  0  0  0  0  0  0  0
    4.0497    3.7824   -3.1106 H   0  0  0  0  0  0  0  0  0  0  0  0
    5.3927    4.8531   -2.6794 H   0  0  0  0  0  0  0  0  0  0  0  0
    4.8338    3.1853   -0.8623 H   0  0  0  0  0  0  0  0  0  0  0  0
    6.5299    3.0752   -1.4389 H   0  0  0  0  0  0  0  0  0  0  0  0
  1  2  1  0
  1 25  1  0
  1 26  1  0
  1 27  1  0
  2  3  1  0
  3  4  1  0
  3 28  1  0
  3 29  1  0
  4  5  2  0
  4  6  1  0
  6  7  1  0
  6 24  1  0
  7  8  1  0
  7 30  1  0
  7 31  1  0
  8  9  1  0
  8 32  1  0
  8 33  1  0
  9 10  1  0
  9 23  1  0
 10 11  2  0
 10 12  1  0
 12 13  1  0
 12 34  1  0
 13 14  1  0
 13 15  1  0
 13 35  1  6
 14 36  1  0
 14 37  1  0
 14 38  1  0
 15 16  2  0
 15 22  1  0
 16 17  1  0
 16 39  1  0
 17 18  2  0
 17 40  1  0
 18 19  1  0
 18 20  1  0
 20 21  1  0
 20 22  2  0
 22 41  1  0
 23 24  1  0
 23 42  1  0
 23 43  1  0
 24 44  1  0
 24 45  1  0
M  END

