
     RDKit          3D

 40 42  0  0  0  0  0  0  0  0999 V2000
    3.6713    0.6096    1.4490 C   0  0  0  0  0  0  0  0  0  0  0  0
    3.4157    1.1128    0.1549 O   0  0  0  0  0  0  0  0  0  0  0  0
    3.7168    0.3539   -0.9267 C   0  0  0  0  0  0  0  0  0  0  0  0
    4.2620   -0.9375   -0.8661 C   0  0  0  0  0  0  0  0  0  0  0  0
    4.5792   -1.6347   -2.0319 C   0  0  0  0  0  0  0  0  0  0  0  0
    4.3570   -1.0690   -3.2985 C   0  0  0  0  0  0  0  0  0  0  0  0
    4.6853   -1.8039   -4.5203 C   0  0  0  0  0  0  0  0  0  0  0  0
    4.8296   -3.1562   -4.7090 C   0  0  0  0  0  0  0  0  0  0  0  0
    5.1247   -3.3961   -6.1056 C   0  0  0  0  0  0  0  0  0  0  0  0
    5.3310   -4.4997   -6.8794 C   0  0  0  0  0  0  0  0  0  0  0  0
    5.3773   -5.9155   -6.5396 C   0  0  0  0  0  0  0  0  0  0  0  0
    5.4397   -6.4178   -5.2194 C   0  0  0  0  0  0  0  0  0  0  0  0
    5.4801   -7.7895   -4.9759 C   0  0  0  0  0  0  0  0  0  0  0  0
    5.4601   -8.7011   -6.0382 C   0  0  0  0  0  0  0  0  0  0  0  0
    5.4113   -8.2251   -7.3526 C   0  0  0  0  0  0  0  0  0  0  0  0
    5.3768   -6.8536   -7.5978 C   0  0  0  0  0  0  0  0  0  0  0  0
    5.1620   -2.0346   -6.7615 C   0  0  0  0  0  0  0  0  0  0  0  0
    5.4064   -1.7394   -7.9131 O   0  0  0  0  0  0  0  0  0  0  0  0
    4.8655   -1.1399   -5.7381 N   0  0  0  0  0  0  0  0  0  0  0  0
    3.7962    0.2239   -3.3505 C   0  0  0  0  0  0  0  0  0  0  0  0
    3.4749    0.9364   -2.1978 C   0  0  0  0  0  0  0  0  0  0  0  0
    2.9909    2.2031   -2.3320 O   0  0  0  0  0  0  0  0  0  0  0  0
    1.6796    2.4702   -1.8523 C   0  0  0  0  0  0  0  0  0  0  0  0
    3.3649    1.3936    2.1540 H   0  0  0  0  0  0  0  0  0  0  0  0
    4.7441    0.3932    1.5975 H   0  0  0  0  0  0  0  0  0  0  0  0
    3.0897   -0.3065    1.6561 H   0  0  0  0  0  0  0  0  0  0  0  0
    4.4653   -1.4016    0.0990 H   0  0  0  0  0  0  0  0  0  0  0  0
    5.0328   -2.6241   -1.9519 H   0  0  0  0  0  0  0  0  0  0  0  0
    4.6547   -3.8997   -3.9380 H   0  0  0  0  0  0  0  0  0  0  0  0
    5.4751   -4.2692   -7.9414 H   0  0  0  0  0  0  0  0  0  0  0  0
    5.4843   -5.7279   -4.3777 H   0  0  0  0  0  0  0  0  0  0  0  0
    5.5339   -8.1533   -3.9464 H   0  0  0  0  0  0  0  0  0  0  0  0
    5.4906   -9.7758   -5.8418 H   0  0  0  0  0  0  0  0  0  0  0  0
    5.4034   -8.9272   -8.1903 H   0  0  0  0  0  0  0  0  0  0  0  0
    5.3420   -6.4866   -8.6270 H   0  0  0  0  0  0  0  0  0  0  0  0
    4.9461   -0.1383   -5.8567 H   0  0  0  0  0  0  0  0  0  0  0  0
    3.5735    0.7111   -4.3016 H   0  0  0  0  0  0  0  0  0  0  0  0
    1.4518    3.5086   -2.1303 H   0  0  0  0  0  0  0  0  0  0  0  0
    1.6121    2.3638   -0.7589 H   0  0  0  0  0  0  0  0  0  0  0  0
    0.9391    1.8030   -2.3299 H   0  0  0  0  0  0  0  0  0  0  0  0
  1  2  1  0
  1 24  1  0
  1 25  1  0
  1 26  1  0
  2  3  1  0
  3  4  2  0
  3 21  1  0
  4  5  1  0
  4 27  1  0
  5  6  2  0
  5 28  1  0
  6  7  1  0
  6 20  1  0
  7  8  2  0
  7 19  1  0
  8  9  1  0
  8 29  1  0
  9 10  2  0
  9 17  1  0
 10 11  1  0
 10 30  1  0
 11 12  2  0
 11 16  1  0
 12 13  1  0
 12 31  1  0
 13 14  2  0
 13 32  1  0
 14 15  1  0
 14 33  1  0
 15 16  2  0
 15 34  1  0
 16 35  1  0
 17 18  2  0
 17 19  1  0
 19 36  1  0
 20 21  2  0
 20 37  1  0
 21 22  1  0
 22 23  1  0
 23 38  1  0
 23 39  1  0
 23 40  1  0
M  END

