
     RDKit          3D

 40 40  0  0  0  0  0  0  0  0999 V2000
    1.5475    1.3624    0.9301 C   0  0  0  0  0  0  0  0  0  0  0  0
    2.1546    0.0764    0.3950 C   0  0  0  0  0  0  0  0  0  0  0  0
    2.8659   -0.6437    1.4205 O   0  0  0  0  0  0  0  0  0  0  0  0
    4.1435   -0.3007    1.6487 C   0  0  0  0  0  0  0  0  0  0  0  0
    4.7413    0.5505    1.0342 O   0  0  0  0  0  0  0  0  0  0  0  0
    4.7281   -1.0790    2.8115 C   0  0  0  0  0  0  0  0  0  0  0  0
    6.1677   -1.0978    2.7365 N   0  0  0  0  0  0  0  0  0  0  0  0
    6.8376   -1.5049    3.9575 C   0  0  0  0  0  0  0  0  0  0  0  0
    8.3480   -1.7556    3.7575 C   0  0  1  0  0  0  0  0  0  0  0  0
    9.0529   -0.4567    3.3608 C   0  0  0  0  0  0  0  0  0  0  0  0
    8.8813   -2.3758    4.9826 N   0  0  0  0  0  0  0  0  0  0  0  0
    8.6494   -3.8152    5.0812 C   0  0  0  0  0  0  0  0  0  0  0  0
    9.7180   -4.6626    4.3667 C   0  0  0  0  0  0  0  0  0  0  0  0
   11.1199   -4.3103    4.8807 C   0  0  0  0  0  0  0  0  0  0  0  0
   11.3608   -2.7971    4.7997 C   0  0  0  0  0  0  0  0  0  0  0  0
   10.2097   -2.0303    5.4775 C   0  0  0  0  0  0  0  0  0  0  0  0
    0.9466    1.8477    0.1444 H   0  0  0  0  0  0  0  0  0  0  0  0
    2.3337    2.0665    1.2408 H   0  0  0  0  0  0  0  0  0  0  0  0
    0.8902    1.1607    1.7903 H   0  0  0  0  0  0  0  0  0  0  0  0
    2.8431    0.2822   -0.4378 H   0  0  0  0  0  0  0  0  0  0  0  0
    1.3765   -0.6218    0.0541 H   0  0  0  0  0  0  0  0  0  0  0  0
    4.3066   -2.0988    2.8087 H   0  0  0  0  0  0  0  0  0  0  0  0
    4.3219   -0.5907    3.7319 H   0  0  0  0  0  0  0  0  0  0  0  0
    6.4856   -0.1863    2.4105 H   0  0  0  0  0  0  0  0  0  0  0  0
    6.3702   -2.4422    4.3014 H   0  0  0  0  0  0  0  0  0  0  0  0
    6.7176   -0.7824    4.7977 H   0  0  0  0  0  0  0  0  0  0  0  0
    8.4383   -2.4456    2.8918 H   0  0  0  0  0  0  0  0  0  0  0  0
    8.9577    0.3130    4.1445 H   0  0  0  0  0  0  0  0  0  0  0  0
    8.6031   -0.0604    2.4383 H   0  0  0  0  0  0  0  0  0  0  0  0
   10.1219   -0.6061    3.1502 H   0  0  0  0  0  0  0  0  0  0  0  0
    7.6489   -4.0541    4.6892 H   0  0  0  0  0  0  0  0  0  0  0  0
    8.6344   -4.0933    6.1530 H   0  0  0  0  0  0  0  0  0  0  0  0
    9.6651   -4.4783    3.2784 H   0  0  0  0  0  0  0  0  0  0  0  0
    9.5051   -5.7358    4.5131 H   0  0  0  0  0  0  0  0  0  0  0  0
   11.8937   -4.8625    4.3212 H   0  0  0  0  0  0  0  0  0  0  0  0
   11.2092   -4.6330    5.9354 H   0  0  0  0  0  0  0  0  0  0  0  0
   11.4372   -2.4916    3.7404 H   0  0  0  0  0  0  0  0  0  0  0  0
   12.3204   -2.5288    5.2754 H   0  0  0  0  0  0  0  0  0  0  0  0
   10.3693   -0.9460    5.4086 H   0  0  0  0  0  0  0  0  0  0  0  0
   10.2289   -2.2677    6.5593 H   0  0  0  0  0  0  0  0  0  0  0  0
  1  2  1  0
  1 17  1  0
  1 18  1  0
  1 19  1  0
  2  3  1  0
  2 20  1  0
  2 21  1  0
  3  4  1  0
  4  5  2  0
  4  6  1  0
  6  7  1  0
  6 22  1  0
  6 23  1  0
  7  8  1  0
  7 24  1  0
  8  9  1  0
  8 25  1  0
  8 26  1  0
  9 10  1  0
  9 11  1  0
  9 27  1  6
 10 28  1  0
 10 29  1  0
 10 30  1  0
 11 12  1  0
 11 16  1  0
 12 13  1  0
 12 31  1  0
 12 32  1  0
 13 14  1  0
 13 33  1  0
 13 34  1  0
 14 15  1  0
 14 35  1  0
 14 36  1  0
 15 16  1  0
 15 37  1  0
 15 38  1  0
 16 39  1  0
 16 40  1  0
M  END

