
     RDKit          3D

 47 48  0  0  0  0  0  0  0  0999 V2000
    5.3389   -1.2433   -3.7693 C   0  0  0  0  0  0  0  0  0  0  0  0
    4.6844   -1.8221   -2.5139 C   0  0  0  0  0  0  0  0  0  0  0  0
    5.0847   -1.0882   -1.2311 C   0  0  0  0  0  0  0  0  0  0  0  0
    4.4298   -1.6179    0.0493 C   0  0  0  0  0  0  0  0  0  0  0  0
    4.7745   -3.0142    0.3584 N   0  0  0  0  0  0  0  0  0  0  0  0
    3.6979   -3.8036    0.9815 C   0  0  0  0  0  0  0  0  0  0  0  0
    3.3265   -3.3560    2.3981 C   0  0  0  0  0  0  0  0  0  0  0  0
    6.0968   -3.2071    0.8091 C   0  0  0  0  0  0  0  0  0  0  0  0
    6.8153   -2.2565    1.1032 O   0  0  0  0  0  0  0  0  0  0  0  0
    6.5900   -4.5824    0.8538 C   0  0  0  0  0  0  0  0  0  0  0  0
    8.0529   -4.9101    1.7929 S   0  0  0  0  0  0  0  0  0  0  0  0
    8.0916   -6.5255    1.0955 C   0  0  0  0  0  0  0  0  0  0  0  0
    9.0558   -7.4293    1.4226 N   0  0  0  0  0  0  0  0  0  0  0  0
    8.9289   -8.8208    0.9862 C   0  0  0  0  0  0  0  0  0  0  0  0
   10.2831   -9.3893    0.5576 C   0  0  0  0  0  0  0  0  0  0  0  0
   11.3379   -9.1952    1.6526 C   0  0  0  0  0  0  0  0  0  0  0  0
   11.4222   -7.7195    2.0575 C   0  0  0  0  0  0  0  0  0  0  0  0
   10.0496   -7.1675    2.4563 C   0  0  0  0  0  0  0  0  0  0  0  0
    7.1300   -6.7794    0.2341 N   0  0  0  0  0  0  0  0  0  0  0  0
    6.3040   -5.7049    0.0766 C   0  0  0  0  0  0  0  0  0  0  0  0
    5.2670   -5.8274   -0.8158 N   0  0  0  0  0  0  0  0  0  0  0  0
    5.0387   -1.7933   -4.6759 H   0  0  0  0  0  0  0  0  0  0  0  0
    6.4387   -1.2867   -3.7012 H   0  0  0  0  0  0  0  0  0  0  0  0
    5.0614   -0.1857   -3.9151 H   0  0  0  0  0  0  0  0  0  0  0  0
    4.9540   -2.8889   -2.4215 H   0  0  0  0  0  0  0  0  0  0  0  0
    3.5841   -1.7960   -2.6253 H   0  0  0  0  0  0  0  0  0  0  0  0
    4.8120   -0.0210   -1.3228 H   0  0  0  0  0  0  0  0  0  0  0  0
    6.1792   -1.1107   -1.1058 H   0  0  0  0  0  0  0  0  0  0  0  0
    3.3340   -1.5746   -0.0597 H   0  0  0  0  0  0  0  0  0  0  0  0
    4.7085   -0.9603    0.8901 H   0  0  0  0  0  0  0  0  0  0  0  0
    3.9895   -4.8611    0.9955 H   0  0  0  0  0  0  0  0  0  0  0  0
    2.8142   -3.7394    0.3239 H   0  0  0  0  0  0  0  0  0  0  0  0
    4.1892   -3.4452    3.0775 H   0  0  0  0  0  0  0  0  0  0  0  0
    2.5155   -3.9880    2.7955 H   0  0  0  0  0  0  0  0  0  0  0  0
    2.9803   -2.3107    2.4244 H   0  0  0  0  0  0  0  0  0  0  0  0
    8.1980   -8.8474    0.1697 H   0  0  0  0  0  0  0  0  0  0  0  0
    8.5173   -9.4267    1.8201 H   0  0  0  0  0  0  0  0  0  0  0  0
   10.6097   -8.8814   -0.3667 H   0  0  0  0  0  0  0  0  0  0  0  0
   10.1632  -10.4578    0.3130 H   0  0  0  0  0  0  0  0  0  0  0  0
   12.3222   -9.5578    1.3141 H   0  0  0  0  0  0  0  0  0  0  0  0
   11.0663   -9.8035    2.5355 H   0  0  0  0  0  0  0  0  0  0  0  0
   11.8105   -7.1258    1.2117 H   0  0  0  0  0  0  0  0  0  0  0  0
   12.1222   -7.5805    2.8978 H   0  0  0  0  0  0  0  0  0  0  0  0
   10.1172   -6.0834    2.6252 H   0  0  0  0  0  0  0  0  0  0  0  0
    9.7240   -7.6245    3.4139 H   0  0  0  0  0  0  0  0  0  0  0  0
    5.3848   -6.5649   -1.5013 H   0  0  0  0  0  0  0  0  0  0  0  0
    4.8654   -4.9598   -1.1569 H   0  0  0  0  0  0  0  0  0  0  0  0
  1  2  1  0
  1 22  1  0
  1 23  1  0
  1 24  1  0
  2  3  1  0
  2 25  1  0
  2 26  1  0
  3  4  1  0
  3 27  1  0
  3 28  1  0
  4  5  1  0
  4 29  1  0
  4 30  1  0
  5  6  1  0
  5  8  1  0
  6  7  1  0
  6 31  1  0
  6 32  1  0
  7 33  1  0
  7 34  1  0
  7 35  1  0
  8  9  2  0
  8 10  1  0
 10 11  1  0
 10 20  2  0
 11 12  1  0
 12 13  1  0
 12 19  2  0
 13 14  1  0
 13 18  1  0
 14 15  1  0
 14 36  1  0
 14 37  1  0
 15 16  1  0
 15 38  1  0
 15 39  1  0
 16 17  1  0
 16 40  1  0
 16 41  1  0
 17 18  1  0
 17 42  1  0
 17 43  1  0
 18 44  1  0
 18 45  1  0
 19 20  1  0
 20 21  1  0
 21 46  1  0
 21 47  1  0
M  END

