
     RDKit          3D

 67 69  0  0  0  0  0  0  0  0999 V2000
    5.7115    2.8974    0.5769 C   0  0  0  0  0  0  0  0  0  0  0  0
    5.1656    1.4683    0.4765 C   0  0  1  0  0  0  0  0  0  0  0  0
    3.6481    1.4203    0.6846 C   0  0  0  0  0  0  0  0  0  0  0  0
    5.5728    0.8485   -0.8596 C   0  0  0  0  0  0  0  0  0  0  0  0
    5.1714   -0.5132   -0.8773 O   0  0  0  0  0  0  0  0  0  0  0  0
    5.4093   -1.2779   -1.9680 C   0  0  0  0  0  0  0  0  0  0  0  0
    6.0503   -0.8304   -3.1340 C   0  0  0  0  0  0  0  0  0  0  0  0
    6.2457   -1.7052   -4.2048 C   0  0  0  0  0  0  0  0  0  0  0  0
    5.8216   -3.0472   -4.1496 C   0  0  0  0  0  0  0  0  0  0  0  0
    6.0074   -3.9560   -5.2853 C   0  0  0  0  0  0  0  0  0  0  0  0
    6.0882   -5.3234   -5.3286 C   0  0  0  0  0  0  0  0  0  0  0  0
    6.2176   -6.2440   -4.3001 N   0  0  0  0  0  0  0  0  0  0  0  0
    7.2198   -6.0196   -3.2645 C   0  0  0  0  0  0  0  0  0  0  0  0
    5.5192   -7.4686   -4.3310 C   0  0  0  0  0  0  0  0  0  0  0  0
    6.0130   -8.6090   -3.6697 C   0  0  0  0  0  0  0  0  0  0  0  0
    5.2855   -9.8016   -3.6807 C   0  0  0  0  0  0  0  0  0  0  0  0
    4.0607   -9.8875   -4.3455 C   0  0  0  0  0  0  0  0  0  0  0  0
    3.5609   -8.7530   -4.9952 C   0  0  0  0  0  0  0  0  0  0  0  0
    4.2704   -7.5550   -4.9797 C   0  0  0  0  0  0  0  0  0  0  0  0
    6.2269   -5.7584   -6.7767 C   0  0  0  0  0  0  0  0  0  0  0  0
    6.4249   -6.8701   -7.2056 O   0  0  0  0  0  0  0  0  0  0  0  0
    6.1507   -4.5938   -7.5348 N   0  0  0  0  0  0  0  0  0  0  0  0
    6.2408   -4.5387   -8.9845 C   0  0  0  0  0  0  0  0  0  0  0  0
    4.8854   -4.3292   -9.6686 C   0  0  0  0  0  0  0  0  0  0  0  0
    5.0079   -4.2463  -11.1834 C   0  0  0  0  0  0  0  0  0  0  0  0
    5.5519   -5.4540  -11.6634 O   0  0  0  0  0  0  0  0  0  0  0  0
    5.6666   -5.5810  -13.0756 C   0  0  1  0  0  0  0  0  0  0  0  0
    6.8693   -4.8062  -13.6199 C   0  0  0  0  0  0  0  0  0  0  0  0
    5.7548   -7.0726  -13.3753 C   0  0  0  0  0  0  0  0  0  0  0  0
    6.0485   -3.4711   -6.7094 C   0  0  0  0  0  0  0  0  0  0  0  0
    5.9966   -2.3319   -7.1243 O   0  0  0  0  0  0  0  0  0  0  0  0
    5.1734   -3.4763   -2.9663 C   0  0  0  0  0  0  0  0  0  0  0  0
    4.9685   -2.6137   -1.9000 C   0  0  0  0  0  0  0  0  0  0  0  0
    5.4584    3.3455    1.5504 H   0  0  0  0  0  0  0  0  0  0  0  0
    5.2811    3.5454   -0.2060 H   0  0  0  0  0  0  0  0  0  0  0  0
    6.8084    2.9263    0.4712 H   0  0  0  0  0  0  0  0  0  0  0  0
    5.6421    0.8571    1.2646 H   0  0  0  0  0  0  0  0  0  0  0  0
    3.1268    2.0314   -0.0728 H   0  0  0  0  0  0  0  0  0  0  0  0
    3.3739    1.8130    1.6767 H   0  0  0  0  0  0  0  0  0  0  0  0
    3.2703    0.3905    0.6066 H   0  0  0  0  0  0  0  0  0  0  0  0
    6.6683    0.9180   -0.9969 H   0  0  0  0  0  0  0  0  0  0  0  0
    5.0953    1.3953   -1.6962 H   0  0  0  0  0  0  0  0  0  0  0  0
    6.3994    0.1982   -3.2227 H   0  0  0  0  0  0  0  0  0  0  0  0
    6.7260   -1.3354   -5.1100 H   0  0  0  0  0  0  0  0  0  0  0  0
    7.5099   -4.9633   -3.2538 H   0  0  0  0  0  0  0  0  0  0  0  0
    8.1274   -6.6227   -3.4472 H   0  0  0  0  0  0  0  0  0  0  0  0
    6.8222   -6.2805   -2.2715 H   0  0  0  0  0  0  0  0  0  0  0  0
    6.9754   -8.5791   -3.1588 H   0  0  0  0  0  0  0  0  0  0  0  0
    5.6915  -10.6764   -3.1659 H   0  0  0  0  0  0  0  0  0  0  0  0
    3.4977  -10.8235   -4.3527 H   0  0  0  0  0  0  0  0  0  0  0  0
    2.5969   -8.7960   -5.5089 H   0  0  0  0  0  0  0  0  0  0  0  0
    3.8513   -6.6696   -5.4619 H   0  0  0  0  0  0  0  0  0  0  0  0
    6.6860   -5.4853   -9.3181 H   0  0  0  0  0  0  0  0  0  0  0  0
    6.9245   -3.7163   -9.2504 H   0  0  0  0  0  0  0  0  0  0  0  0
    4.4284   -3.3965   -9.2998 H   0  0  0  0  0  0  0  0  0  0  0  0
    4.2113   -5.1617   -9.4063 H   0  0  0  0  0  0  0  0  0  0  0  0
    5.6431   -3.3790  -11.4596 H   0  0  0  0  0  0  0  0  0  0  0  0
    4.0091   -4.0654  -11.6326 H   0  0  0  0  0  0  0  0  0  0  0  0
    4.7432   -5.1767  -13.5426 H   0  0  0  0  0  0  0  0  0  0  0  0
    7.8011   -5.1852  -13.1698 H   0  0  0  0  0  0  0  0  0  0  0  0
    6.7966   -3.7294  -13.4021 H   0  0  0  0  0  0  0  0  0  0  0  0
    6.9418   -4.9182  -14.7135 H   0  0  0  0  0  0  0  0  0  0  0  0
    6.6502   -7.5036  -12.8994 H   0  0  0  0  0  0  0  0  0  0  0  0
    5.8147   -7.2542  -14.4597 H   0  0  0  0  0  0  0  0  0  0  0  0
    4.8729   -7.5964  -12.9773 H   0  0  0  0  0  0  0  0  0  0  0  0
    4.8055   -4.5014   -2.8955 H   0  0  0  0  0  0  0  0  0  0  0  0
    4.4591   -2.9466   -0.9934 H   0  0  0  0  0  0  0  0  0  0  0  0
  1  2  1  0
  1 34  1  0
  1 35  1  0
  1 36  1  0
  2  3  1  0
  2  4  1  0
  2 37  1  1
  3 38  1  0
  3 39  1  0
  3 40  1  0
  4  5  1  0
  4 41  1  0
  4 42  1  0
  5  6  1  0
  6  7  2  0
  6 33  1  0
  7  8  1  0
  7 43  1  0
  8  9  2  0
  8 44  1  0
  9 10  1  0
  9 32  1  0
 10 11  2  0
 10 30  1  0
 11 12  1  0
 11 20  1  0
 12 13  1  0
 12 14  1  0
 13 45  1  0
 13 46  1  0
 13 47  1  0
 14 15  2  0
 14 19  1  0
 15 16  1  0
 15 48  1  0
 16 17  2  0
 16 49  1  0
 17 18  1  0
 17 50  1  0
 18 19  2  0
 18 51  1  0
 19 52  1  0
 20 21  2  0
 20 22  1  0
 22 23  1  0
 22 30  1  0
 23 24  1  0
 23 53  1  0
 23 54  1  0
 24 25  1  0
 24 55  1  0
 24 56  1  0
 25 26  1  0
 25 57  1  0
 25 58  1  0
 26 27  1  0
 27 28  1  0
 27 29  1  0
 27 59  1  6
 28 60  1  0
 28 61  1  0
 28 62  1  0
 29 63  1  0
 29 64  1  0
 29 65  1  0
 30 31  2  0
 32 33  2  0
 32 66  1  0
 33 67  1  0
M  END

