
     RDKit          3D

 48 50  0  0  0  0  0  0  0  0999 V2000
    2.1451   -0.2351   -0.8622 O   0  0  0  0  0  0  0  0  0  0  0  0
    1.9706    0.2573    0.2490 C   0  0  0  0  0  0  0  0  0  0  0  0
    0.7065    0.4820    0.7438 N   0  0  0  0  0  0  0  0  0  0  0  0
   -0.4696    0.2216   -0.0445 C   0  0  1  0  0  0  0  0  0  0  0  0
   -1.0052   -1.2367    0.1518 C   0  0  0  0  0  0  0  0  0  0  0  0
   -2.4105   -1.5902   -0.3890 C   0  0  0  0  0  0  0  0  0  0  0  0
   -3.6131   -0.9170    0.3186 C   0  0  0  0  0  0  0  0  0  0  0  0
   -3.8865    0.5421   -0.1252 C   0  0  0  0  0  0  0  0  0  0  0  0
   -2.6400    1.2091   -0.5263 N   0  0  0  0  0  0  0  0  0  0  0  0
   -1.6091    1.1276    0.3985 C   0  0  0  0  0  0  0  0  0  0  0  0
   -1.6879    1.5508    1.5355 O   0  0  0  0  0  0  0  0  0  0  0  0
    2.9873    0.6440    1.0893 N   0  0  0  0  0  0  0  0  0  0  0  0
    4.4288    0.4103    0.9192 C   0  0  1  0  0  0  0  0  0  0  0  0
    4.8720   -1.0683    1.0316 C   0  0  0  0  0  0  0  0  0  0  0  0
    4.8762   -1.8564   -0.2844 C   0  0  0  0  0  0  0  0  0  0  0  0
    5.6976   -1.1227   -1.3507 C   0  0  0  0  0  0  0  0  0  0  0  0
    5.1315    0.2791   -1.6021 C   0  0  0  0  0  0  0  0  0  0  0  0
    5.0206    1.1443   -0.3295 C   0  0  2  0  0  0  0  0  0  0  0  0
    6.3080    1.7631    0.0198 N   0  0  0  0  0  0  0  0  0  0  0  0
    6.6868    3.0432   -0.2457 C   0  0  0  0  0  0  0  0  0  0  0  0
    7.9905    3.1814    0.2047 C   0  0  0  0  0  0  0  0  0  0  0  0
    8.3094    1.9090    0.7303 C   0  0  0  0  0  0  0  0  0  0  0  0
    7.2886    1.0616    0.6098 N   0  0  0  0  0  0  0  0  0  0  0  0
    0.5339    0.9522    1.6278 H   0  0  0  0  0  0  0  0  0  0  0  0
   -0.2226    0.3691   -1.1087 H   0  0  0  0  0  0  0  0  0  0  0  0
   -0.9877   -1.4317    1.2378 H   0  0  0  0  0  0  0  0  0  0  0  0
   -0.2592   -1.9052   -0.3054 H   0  0  0  0  0  0  0  0  0  0  0  0
   -2.5218   -2.6806   -0.2729 H   0  0  0  0  0  0  0  0  0  0  0  0
   -2.4593   -1.4144   -1.4805 H   0  0  0  0  0  0  0  0  0  0  0  0
   -3.4306   -0.9393    1.4064 H   0  0  0  0  0  0  0  0  0  0  0  0
   -4.5223   -1.5172    0.1498 H   0  0  0  0  0  0  0  0  0  0  0  0
   -4.3645    1.1164    0.6813 H   0  0  0  0  0  0  0  0  0  0  0  0
   -4.5648    0.5719   -0.9917 H   0  0  0  0  0  0  0  0  0  0  0  0
   -2.3397    0.8882   -1.4422 H   0  0  0  0  0  0  0  0  0  0  0  0
    2.7180    0.9739    2.0074 H   0  0  0  0  0  0  0  0  0  0  0  0
    4.8638    0.9300    1.7844 H   0  0  0  0  0  0  0  0  0  0  0  0
    4.2377   -1.5612    1.7874 H   0  0  0  0  0  0  0  0  0  0  0  0
    5.8993   -1.0535    1.4282 H   0  0  0  0  0  0  0  0  0  0  0  0
    3.8465   -1.9966   -0.6472 H   0  0  0  0  0  0  0  0  0  0  0  0
    5.3005   -2.8581   -0.0997 H   0  0  0  0  0  0  0  0  0  0  0  0
    5.6901   -1.6898   -2.2967 H   0  0  0  0  0  0  0  0  0  0  0  0
    6.7495   -1.0521   -1.0267 H   0  0  0  0  0  0  0  0  0  0  0  0
    4.1160    0.1843   -2.0105 H   0  0  0  0  0  0  0  0  0  0  0  0
    5.7438    0.8268   -2.3377 H   0  0  0  0  0  0  0  0  0  0  0  0
    4.3577    1.9947   -0.5426 H   0  0  0  0  0  0  0  0  0  0  0  0
    6.0105    3.7481   -0.7252 H   0  0  0  0  0  0  0  0  0  0  0  0
    8.6135    4.0718    0.1640 H   0  0  0  0  0  0  0  0  0  0  0  0
    9.2389    1.5770    1.1932 H   0  0  0  0  0  0  0  0  0  0  0  0
  1  2  2  0
  2  3  1  0
  2 12  1  0
  3  4  1  0
  3 24  1  0
  4  5  1  0
  4 10  1  0
  4 25  1  6
  5  6  1  0
  5 26  1  0
  5 27  1  0
  6  7  1  0
  6 28  1  0
  6 29  1  0
  7  8  1  0
  7 30  1  0
  7 31  1  0
  8  9  1  0
  8 32  1  0
  8 33  1  0
  9 10  1  0
  9 34  1  0
 10 11  2  0
 12 13  1  0
 12 35  1  0
 13 14  1  0
 13 18  1  0
 13 36  1  1
 14 15  1  0
 14 37  1  0
 14 38  1  0
 15 16  1  0
 15 39  1  0
 15 40  1  0
 16 17  1  0
 16 41  1  0
 16 42  1  0
 17 18  1  0
 17 43  1  0
 17 44  1  0
 18 19  1  0
 18 45  1  6
 19 20  1  0
 19 23  1  0
 20 21  2  0
 20 46  1  0
 21 22  1  0
 21 47  1  0
 22 23  2  0
 22 48  1  0
M  END

