
     RDKit          3D

 47 49  0  0  0  0  0  0  0  0999 V2000
    2.0188    3.6341   -0.9498 C   0  0  0  0  0  0  0  0  0  0  0  0
    2.4328    2.3877   -0.1521 C   0  0  2  0  0  0  0  0  0  0  0  0
    1.6370    1.6299   -0.2431 H   0  0  0  0  0  0  0  0  0  0  0  0
    2.5922    2.7422    1.3371 C   0  0  0  0  0  0  0  0  0  0  0  0
    3.0940    3.7971    1.7039 O   0  0  0  0  0  0  0  0  0  0  0  0
    2.1616    1.7949    2.2099 N   0  0  0  0  0  0  0  0  0  0  0  0
    2.3622    1.8992    3.6355 C   0  0  1  0  0  0  0  0  0  0  0  0
    1.4340    2.8818    4.3969 C   0  0  0  0  0  0  0  0  0  0  0  0
    1.2890    2.2303    5.7525 C   0  0  0  0  0  0  0  0  0  0  0  0
    0.8020    2.7842    6.9395 C   0  0  0  0  0  0  0  0  0  0  0  0
    0.7513    1.9948    8.0939 C   0  0  0  0  0  0  0  0  0  0  0  0
    1.1909    0.6652    8.0656 C   0  0  0  0  0  0  0  0  0  0  0  0
    1.6841    0.1098    6.8793 C   0  0  0  0  0  0  0  0  0  0  0  0
    1.7289    0.8960    5.7237 C   0  0  0  0  0  0  0  0  0  0  0  0
    2.1938    0.5023    4.3280 C   0  0  1  0  0  0  0  0  0  0  0  0
    1.3163   -0.4104    3.5722 N   0  0  0  0  0  0  0  0  0  0  0  0
    1.6247   -1.8206    3.7478 C   0  0  0  0  0  0  0  0  0  0  0  0
   -0.1138   -0.1481    3.6660 C   0  0  0  0  0  0  0  0  0  0  0  0
    3.7214    1.7660   -0.6831 C   0  0  0  0  0  0  0  0  0  0  0  0
    3.6920    0.5616   -1.4021 C   0  0  0  0  0  0  0  0  0  0  0  0
    4.8599   -0.0045   -1.9219 C   0  0  0  0  0  0  0  0  0  0  0  0
    6.0710    0.6491   -1.7141 C   0  0  0  0  0  0  0  0  0  0  0  0
    7.1991    0.1139   -2.2081 F   0  0  0  0  0  0  0  0  0  0  0  0
    6.1385    1.8453   -1.0025 C   0  0  0  0  0  0  0  0  0  0  0  0
    4.9629    2.3980   -0.4912 C   0  0  0  0  0  0  0  0  0  0  0  0
    2.7579    4.4360   -0.8126 H   0  0  0  0  0  0  0  0  0  0  0  0
    1.0446    4.0159   -0.6051 H   0  0  0  0  0  0  0  0  0  0  0  0
    1.9426    3.4003   -2.0225 H   0  0  0  0  0  0  0  0  0  0  0  0
    1.8235    0.8857    1.8964 H   0  0  0  0  0  0  0  0  0  0  0  0
    3.3961    2.2367    3.8189 H   0  0  0  0  0  0  0  0  0  0  0  0
    0.4573    2.9762    3.8898 H   0  0  0  0  0  0  0  0  0  0  0  0
    1.8649    3.8930    4.4383 H   0  0  0  0  0  0  0  0  0  0  0  0
    0.4675    3.8250    6.9695 H   0  0  0  0  0  0  0  0  0  0  0  0
    0.3740    2.4211    9.0272 H   0  0  0  0  0  0  0  0  0  0  0  0
    1.1575    0.0620    8.9765 H   0  0  0  0  0  0  0  0  0  0  0  0
    2.0419   -0.9231    6.8670 H   0  0  0  0  0  0  0  0  0  0  0  0
    3.1734    0.0020    4.3654 H   0  0  0  0  0  0  0  0  0  0  0  0
    2.6994   -1.9983    3.5893 H   0  0  0  0  0  0  0  0  0  0  0  0
    1.0716   -2.4161    3.0032 H   0  0  0  0  0  0  0  0  0  0  0  0
    1.3552   -2.2165    4.7511 H   0  0  0  0  0  0  0  0  0  0  0  0
   -0.3330    0.8998    3.4163 H   0  0  0  0  0  0  0  0  0  0  0  0
   -0.5392   -0.3565    4.6691 H   0  0  0  0  0  0  0  0  0  0  0  0
   -0.6456   -0.7804    2.9368 H   0  0  0  0  0  0  0  0  0  0  0  0
    2.7375    0.0523   -1.5641 H   0  0  0  0  0  0  0  0  0  0  0  0
    4.8435   -0.9410   -2.4830 H   0  0  0  0  0  0  0  0  0  0  0  0
    7.1073    2.3270   -0.8556 H   0  0  0  0  0  0  0  0  0  0  0  0
    5.0046    3.3282    0.0798 H   0  0  0  0  0  0  0  0  0  0  0  0
  1  2  1  0
  1 26  1  0
  1 27  1  0
  1 28  1  0
  2  3  1  1
  2  4  1  0
  2 19  1  0
  4  5  2  0
  4  6  1  0
  6  7  1  0
  6 29  1  0
  7  8  1  0
  7 15  1  0
  7 30  1  6
  8  9  1  0
  8 31  1  0
  8 32  1  0
  9 10  1  0
  9 14  2  0
 10 11  2  0
 10 33  1  0
 11 12  1  0
 11 34  1  0
 12 13  2  0
 12 35  1  0
 13 14  1  0
 13 36  1  0
 14 15  1  0
 15 16  1  0
 15 37  1  1
 16 17  1  0
 16 18  1  0
 17 38  1  0
 17 39  1  0
 17 40  1  0
 18 41  1  0
 18 42  1  0
 18 43  1  0
 19 20  2  0
 19 25  1  0
 20 21  1  0
 20 44  1  0
 21 22  2  0
 21 45  1  0
 22 23  1  0
 22 24  1  0
 24 25  2  0
 24 46  1  0
 25 47  1  0
M  END

