
     RDKit          3D

 57 59  0  0  0  0  0  0  0  0999 V2000
    9.5880    7.9951    1.3837 C   0  0  0  0  0  0  0  0  0  0  0  0
    8.6299    7.8232    2.4046 O   0  0  0  0  0  0  0  0  0  0  0  0
    7.9157    6.6731    2.4607 C   0  0  0  0  0  0  0  0  0  0  0  0
    8.0578    5.6007    1.5663 C   0  0  0  0  0  0  0  0  0  0  0  0
    7.2630    4.4590    1.7195 C   0  0  0  0  0  0  0  0  0  0  0  0
    6.3168    4.3478    2.7477 C   0  0  0  0  0  0  0  0  0  0  0  0
    5.4862    3.0988    2.9181 C   0  0  0  0  0  0  0  0  0  0  0  0
    6.0317    1.9727    3.8195 C   0  0  0  0  0  0  0  0  0  0  0  0
    5.4101    0.9316    3.9355 O   0  0  0  0  0  0  0  0  0  0  0  0
    7.2167    2.2481    4.4521 N   0  0  0  0  0  0  0  0  0  0  0  0
    7.9579    1.4395    5.3355 C   0  0  0  0  0  0  0  0  0  0  0  0
    9.1488    1.9699    5.8643 C   0  0  0  0  0  0  0  0  0  0  0  0
    9.9368    1.2244    6.7410 C   0  0  0  0  0  0  0  0  0  0  0  0
    9.5373   -0.0643    7.0998 C   0  0  0  0  0  0  0  0  0  0  0  0
    8.3444   -0.5994    6.5948 C   0  0  0  0  0  0  0  0  0  0  0  0
    7.5570    0.1437    5.7121 C   0  0  0  0  0  0  0  0  0  0  0  0
    7.9625   -1.9686    7.0970 C   0  0  0  0  0  0  0  0  0  0  0  0
    8.8512   -3.0441    6.6291 N   0  0  0  0  0  0  0  0  0  0  0  0
    8.2673   -4.1725    5.8926 C   0  0  0  0  0  0  0  0  0  0  0  0
    8.0022   -5.4368    6.7325 C   0  0  1  0  0  0  0  0  0  0  0  0
    7.0406   -5.1854    7.8989 C   0  0  0  0  0  0  0  0  0  0  0  0
    7.4936   -6.5592    5.8202 C   0  0  0  0  0  0  0  0  0  0  0  0
   10.2086   -3.0681    6.7980 C   0  0  0  0  0  0  0  0  0  0  0  0
   10.8867   -4.0043    6.3919 O   0  0  0  0  0  0  0  0  0  0  0  0
   10.9793   -1.9404    7.5340 C   0  0  1  0  0  0  0  0  0  0  0  0
   12.1913   -1.5139    6.7042 C   0  0  0  0  0  0  0  0  0  0  0  0
   10.2440   -0.8068    8.0103 O   0  0  0  0  0  0  0  0  0  0  0  0
    6.1893    5.4359    3.6341 C   0  0  0  0  0  0  0  0  0  0  0  0
    6.9712    6.5782    3.4988 C   0  0  0  0  0  0  0  0  0  0  0  0
   10.0318    8.9880    1.5353 H   0  0  0  0  0  0  0  0  0  0  0  0
    9.1295    7.9581    0.3791 H   0  0  0  0  0  0  0  0  0  0  0  0
   10.3877    7.2344    1.4375 H   0  0  0  0  0  0  0  0  0  0  0  0
    8.7757    5.6433    0.7471 H   0  0  0  0  0  0  0  0  0  0  0  0
    7.3845    3.6352    1.0100 H   0  0  0  0  0  0  0  0  0  0  0  0
    5.2912    2.6177    1.9466 H   0  0  0  0  0  0  0  0  0  0  0  0
    4.4934    3.3412    3.3317 H   0  0  0  0  0  0  0  0  0  0  0  0
    7.6178    3.1585    4.2511 H   0  0  0  0  0  0  0  0  0  0  0  0
    9.4614    2.9804    5.5845 H   0  0  0  0  0  0  0  0  0  0  0  0
   10.8574    1.6367    7.1582 H   0  0  0  0  0  0  0  0  0  0  0  0
    6.6260   -0.2570    5.3160 H   0  0  0  0  0  0  0  0  0  0  0  0
    6.9491   -2.2185    6.7615 H   0  0  0  0  0  0  0  0  0  0  0  0
    7.9431   -1.9476    8.2003 H   0  0  0  0  0  0  0  0  0  0  0  0
    8.9602   -4.4340    5.0801 H   0  0  0  0  0  0  0  0  0  0  0  0
    7.3269   -3.8225    5.4357 H   0  0  0  0  0  0  0  0  0  0  0  0
    8.9780   -5.7470    7.1434 H   0  0  0  0  0  0  0  0  0  0  0  0
    6.0501   -4.8544    7.5393 H   0  0  0  0  0  0  0  0  0  0  0  0
    7.4243   -4.4171    8.5882 H   0  0  0  0  0  0  0  0  0  0  0  0
    6.8864   -6.1047    8.4868 H   0  0  0  0  0  0  0  0  0  0  0  0
    6.5261   -6.2930    5.3592 H   0  0  0  0  0  0  0  0  0  0  0  0
    7.3439   -7.4928    6.3856 H   0  0  0  0  0  0  0  0  0  0  0  0
    8.2051   -6.7720    5.0060 H   0  0  0  0  0  0  0  0  0  0  0  0
   11.3371   -2.4217    8.4584 H   0  0  0  0  0  0  0  0  0  0  0  0
   11.8786   -1.0075    5.7777 H   0  0  0  0  0  0  0  0  0  0  0  0
   12.7799   -2.3990    6.4325 H   0  0  0  0  0  0  0  0  0  0  0  0
   12.8159   -0.8224    7.2892 H   0  0  0  0  0  0  0  0  0  0  0  0
    5.4556    5.3867    4.4442 H   0  0  0  0  0  0  0  0  0  0  0  0
    6.8665    7.4229    4.1827 H   0  0  0  0  0  0  0  0  0  0  0  0
  1  2  1  0
  1 30  1  0
  1 31  1  0
  1 32  1  0
  2  3  1  0
  3  4  2  0
  3 29  1  0
  4  5  1  0
  4 33  1  0
  5  6  2  0
  5 34  1  0
  6  7  1  0
  6 28  1  0
  7  8  1  0
  7 35  1  0
  7 36  1  0
  8  9  2  0
  8 10  1  0
 10 11  1  0
 10 37  1  0
 11 12  2  0
 11 16  1  0
 12 13  1  0
 12 38  1  0
 13 14  2  0
 13 39  1  0
 14 15  1  0
 14 27  1  0
 15 16  2  0
 15 17  1  0
 16 40  1  0
 17 18  1  0
 17 41  1  0
 17 42  1  0
 18 19  1  0
 18 23  1  0
 19 20  1  0
 19 43  1  0
 19 44  1  0
 20 21  1  0
 20 22  1  0
 20 45  1  1
 21 46  1  0
 21 47  1  0
 21 48  1  0
 22 49  1  0
 22 50  1  0
 22 51  1  0
 23 24  2  0
 23 25  1  0
 25 26  1  0
 25 27  1  0
 25 52  1  1
 26 53  1  0
 26 54  1  0
 26 55  1  0
 28 29  2  0
 28 56  1  0
 29 57  1  0
M  END

