
     RDKit          3D

 60 63  0  0  0  0  0  0  0  0999 V2000
    1.0328    0.5455   -0.3464 C   0  0  0  0  0  0  0  0  0  0  0  0
    2.3005   -0.0372    0.0600 N   0  0  0  0  0  0  0  0  0  0  0  0
    2.7316   -0.0342    1.4872 C   0  0  1  0  0  0  0  0  0  0  0  0
    2.0700    1.1377    2.2533 C   0  0  0  0  0  0  0  0  0  0  0  0
    2.2312   -1.2893    2.2183 C   0  0  0  0  0  0  0  0  0  0  0  0
    2.7782   -1.8453    3.3296 C   0  0  0  0  0  0  0  0  0  0  0  0
    1.9636   -2.9721    3.7837 C   0  0  0  0  0  0  0  0  0  0  0  0
    0.8673   -3.1019    2.9053 C   0  0  0  0  0  0  0  0  0  0  0  0
   -0.0847   -4.0190    2.9994 N   0  0  0  0  0  0  0  0  0  0  0  0
    0.0002   -4.8955    4.0092 C   0  0  0  0  0  0  0  0  0  0  0  0
   -1.0818   -5.9383    4.1143 C   0  0  0  0  0  0  0  0  0  0  0  0
    1.0689   -4.8474    4.9477 C   0  0  0  0  0  0  0  0  0  0  0  0
    1.0998   -5.8159    6.0060 C   0  0  0  0  0  0  0  0  0  0  0  0
    1.1150   -6.6054    6.8589 N   0  0  0  0  0  0  0  0  0  0  0  0
    2.0895   -3.8679    4.8518 C   0  0  0  0  0  0  0  0  0  0  0  0
    3.2341   -3.7805    5.8239 C   0  0  0  0  0  0  0  0  0  0  0  0
    0.9574   -2.0253    1.8551 C   0  0  0  0  0  0  0  0  0  0  0  0
    4.2919   -0.0199    1.4817 C   0  0  0  0  0  0  0  0  0  0  0  0
    4.9846   -1.1121    0.9140 C   0  0  0  0  0  0  0  0  0  0  0  0
    4.2673   -2.3013    0.3005 C   0  0  0  0  0  0  0  0  0  0  0  0
    6.4143   -1.1551    0.8833 C   0  0  0  0  0  0  0  0  0  0  0  0
    7.0824   -2.4019    0.3352 C   0  0  0  0  0  0  0  0  0  0  0  0
    7.1969   -0.0857    1.3451 C   0  0  0  0  0  0  0  0  0  0  0  0
    8.7042   -0.0878    1.1768 C   0  0  0  0  0  0  0  0  0  0  0  0
    6.5067    0.9924    1.9388 C   0  0  0  0  0  0  0  0  0  0  0  0
    5.0729    1.0516    2.0109 C   0  0  0  0  0  0  0  0  0  0  0  0
    4.7681    2.3055    2.6649 C   0  0  0  0  0  0  0  0  0  0  0  0
    5.9554    2.9140    2.9603 C   0  0  0  0  0  0  0  0  0  0  0  0
    7.0156    2.1459    2.5375 N   0  0  0  0  0  0  0  0  0  0  0  0
    8.3901    2.5209    2.8102 C   0  0  0  0  0  0  0  0  0  0  0  0
    0.9307    0.4174   -1.4359 H   0  0  0  0  0  0  0  0  0  0  0  0
    0.9049    1.6258   -0.1289 H   0  0  0  0  0  0  0  0  0  0  0  0
    0.1824    0.0176    0.1109 H   0  0  0  0  0  0  0  0  0  0  0  0
    3.0552    0.3433   -0.5038 H   0  0  0  0  0  0  0  0  0  0  0  0
    0.9817    0.9847    2.2866 H   0  0  0  0  0  0  0  0  0  0  0  0
    2.2537    2.1025    1.7621 H   0  0  0  0  0  0  0  0  0  0  0  0
    2.4210    1.1801    3.2909 H   0  0  0  0  0  0  0  0  0  0  0  0
    3.7034   -1.5151    3.8030 H   0  0  0  0  0  0  0  0  0  0  0  0
   -1.8040   -5.7880    3.3019 H   0  0  0  0  0  0  0  0  0  0  0  0
   -1.6086   -5.8790    5.0807 H   0  0  0  0  0  0  0  0  0  0  0  0
   -0.6680   -6.9577    4.0432 H   0  0  0  0  0  0  0  0  0  0  0  0
    3.2003   -4.5767    6.5794 H   0  0  0  0  0  0  0  0  0  0  0  0
    3.2246   -2.8103    6.3481 H   0  0  0  0  0  0  0  0  0  0  0  0
    4.1993   -3.8471    5.2955 H   0  0  0  0  0  0  0  0  0  0  0  0
    0.0623   -1.3794    1.8880 H   0  0  0  0  0  0  0  0  0  0  0  0
    0.9903   -2.4453    0.8354 H   0  0  0  0  0  0  0  0  0  0  0  0
    3.2165   -2.0865    0.0958 H   0  0  0  0  0  0  0  0  0  0  0  0
    4.3293   -3.1919    0.9494 H   0  0  0  0  0  0  0  0  0  0  0  0
    4.7247   -2.5782   -0.6623 H   0  0  0  0  0  0  0  0  0  0  0  0
    6.6045   -3.3134    0.7232 H   0  0  0  0  0  0  0  0  0  0  0  0
    8.1428   -2.4640    0.6052 H   0  0  0  0  0  0  0  0  0  0  0  0
    7.0193   -2.4629   -0.7664 H   0  0  0  0  0  0  0  0  0  0  0  0
    9.0075   -0.6844    0.3076 H   0  0  0  0  0  0  0  0  0  0  0  0
    9.2317   -0.5047    2.0533 H   0  0  0  0  0  0  0  0  0  0  0  0
    9.0976    0.9202    1.0052 H   0  0  0  0  0  0  0  0  0  0  0  0
    3.8068    2.7334    2.9086 H   0  0  0  0  0  0  0  0  0  0  0  0
    6.1352    3.8620    3.4652 H   0  0  0  0  0  0  0  0  0  0  0  0
    8.3829    3.3651    3.5133 H   0  0  0  0  0  0  0  0  0  0  0  0
    8.9299    2.8425    1.9047 H   0  0  0  0  0  0  0  0  0  0  0  0
    8.9489    1.6994    3.2797 H   0  0  0  0  0  0  0  0  0  0  0  0
  1  2  1  0
  1 31  1  0
  1 32  1  0
  1 33  1  0
  3  2  1  6
  2 34  1  0
  3  4  1  0
  3  5  1  0
  3 18  1  0
  4 35  1  0
  4 36  1  0
  4 37  1  0
  5  6  2  0
  5 17  1  0
  6  7  1  0
  6 38  1  0
  7  8  2  0
  7 15  1  0
  8  9  1  0
  8 17  1  0
  9 10  2  0
 10 11  1  0
 10 12  1  0
 11 39  1  0
 11 40  1  0
 11 41  1  0
 12 13  1  0
 12 15  2  0
 13 14  3  0
 15 16  1  0
 16 42  1  0
 16 43  1  0
 16 44  1  0
 17 45  1  0
 17 46  1  0
 18 19  2  0
 18 26  1  0
 19 20  1  0
 19 21  1  0
 20 47  1  0
 20 48  1  0
 20 49  1  0
 21 22  1  0
 21 23  2  0
 22 50  1  0
 22 51  1  0
 22 52  1  0
 23 24  1  0
 23 25  1  0
 24 53  1  0
 24 54  1  0
 24 55  1  0
 25 26  2  0
 25 29  1  0
 26 27  1  0
 27 28  2  0
 27 56  1  0
 28 29  1  0
 28 57  1  0
 29 30  1  0
 30 58  1  0
 30 59  1  0
 30 60  1  0
M  END

