
     RDKit          3D

 65 69  0  0  0  0  0  0  0  0999 V2000
    0.2657    1.1994    0.8691 C   0  0  0  0  0  0  0  0  0  0  0  0
    1.7800    1.3177    1.0324 C   0  0  0  0  0  0  0  0  0  0  0  0
    2.5543    0.0748    0.5834 C   0  0  1  0  0  0  0  0  0  0  0  0
    2.4032   -0.3164   -1.2392 S   0  0  0  0  0  0  0  0  0  0  0  0
    3.2238    1.0554   -2.0452 C   0  0  0  0  0  0  0  0  0  0  0  0
    4.5744    0.9572   -2.4122 C   0  0  0  0  0  0  0  0  0  0  0  0
    5.2174    1.9847   -3.1028 C   0  0  0  0  0  0  0  0  0  0  0  0
    4.5037    3.1480   -3.4445 C   0  0  0  0  0  0  0  0  0  0  0  0
    5.0729    4.2331   -4.1338 N   0  0  0  0  0  0  0  0  0  0  0  0
    6.3635    4.4017   -4.5978 C   0  0  0  0  0  0  0  0  0  0  0  0
    7.2280    3.5486   -4.4945 O   0  0  0  0  0  0  0  0  0  0  0  0
    6.6086    5.7812   -5.2232 C   0  0  1  0  0  0  0  0  0  0  0  0
    6.9441    6.8275   -4.1273 C   0  0  0  0  0  0  0  0  0  0  0  0
    8.3595    6.6573   -3.5616 C   0  0  0  0  0  0  0  0  0  0  0  0
    9.4109    6.7049   -4.6775 C   0  0  0  0  0  0  0  0  0  0  0  0
    9.1330    5.6451   -5.7506 C   0  0  0  0  0  0  0  0  0  0  0  0
    7.7054    5.7540   -6.3082 C   0  0  0  0  0  0  0  0  0  0  0  0
    3.1443    3.2442   -3.0898 C   0  0  0  0  0  0  0  0  0  0  0  0
    2.5115    2.2109   -2.4047 C   0  0  0  0  0  0  0  0  0  0  0  0
    4.0350    0.1773    0.9550 C   0  0  0  0  0  0  0  0  0  0  0  0
    4.5619    1.2651    1.0762 O   0  0  0  0  0  0  0  0  0  0  0  0
    4.7811   -1.0053    1.0874 N   0  0  0  0  0  0  0  0  0  0  0  0
    6.2135   -0.9227    1.0838 C   0  0  0  0  0  0  0  0  0  0  0  0
    6.9155   -0.1140    1.9858 C   0  0  0  0  0  0  0  0  0  0  0  0
    8.3080   -0.0394    1.9195 C   0  0  0  0  0  0  0  0  0  0  0  0
    9.0116   -0.7872    0.9700 C   0  0  0  0  0  0  0  0  0  0  0  0
    8.3221   -1.6215    0.0886 C   0  0  0  0  0  0  0  0  0  0  0  0
    6.9241   -1.6834    0.1388 C   0  0  0  0  0  0  0  0  0  0  0  0
    6.0328   -2.7132   -1.0154 S   0  0  0  0  0  0  0  0  0  0  0  0
    4.7168   -3.2253    0.0665 C   0  0  0  0  0  0  0  0  0  0  0  0
    4.1834   -4.5172   -0.0194 C   0  0  0  0  0  0  0  0  0  0  0  0
    3.1747   -4.9170    0.8589 C   0  0  0  0  0  0  0  0  0  0  0  0
    2.7324   -4.0450    1.8591 C   0  0  0  0  0  0  0  0  0  0  0  0
    3.2778   -2.7634    1.9591 C   0  0  0  0  0  0  0  0  0  0  0  0
    4.2338   -2.3235    1.0325 C   0  0  0  0  0  0  0  0  0  0  0  0
   -0.2360    2.1259    1.1900 H   0  0  0  0  0  0  0  0  0  0  0  0
   -0.1434    0.3736    1.4759 H   0  0  0  0  0  0  0  0  0  0  0  0
   -0.0113    1.0046   -0.1783 H   0  0  0  0  0  0  0  0  0  0  0  0
    2.0282    1.4983    2.0930 H   0  0  0  0  0  0  0  0  0  0  0  0
    2.1717    2.1939    0.4933 H   0  0  0  0  0  0  0  0  0  0  0  0
    2.0954   -0.8248    1.0128 H   0  0  0  0  0  0  0  0  0  0  0  0
    5.1300    0.0520   -2.1580 H   0  0  0  0  0  0  0  0  0  0  0  0
    6.2642    1.8994   -3.3829 H   0  0  0  0  0  0  0  0  0  0  0  0
    4.4404    5.0064   -4.3022 H   0  0  0  0  0  0  0  0  0  0  0  0
    5.6629    6.0911   -5.7032 H   0  0  0  0  0  0  0  0  0  0  0  0
    6.1947    6.7847   -3.3188 H   0  0  0  0  0  0  0  0  0  0  0  0
    6.8548    7.8307   -4.5817 H   0  0  0  0  0  0  0  0  0  0  0  0
    8.4332    5.6935   -3.0287 H   0  0  0  0  0  0  0  0  0  0  0  0
    8.5532    7.4449   -2.8139 H   0  0  0  0  0  0  0  0  0  0  0  0
   10.4205    6.5640   -4.2564 H   0  0  0  0  0  0  0  0  0  0  0  0
    9.4041    7.7118   -5.1373 H   0  0  0  0  0  0  0  0  0  0  0  0
    9.2696    4.6424   -5.3188 H   0  0  0  0  0  0  0  0  0  0  0  0
    9.8552    5.7435   -6.5789 H   0  0  0  0  0  0  0  0  0  0  0  0
    7.5100    4.9308   -7.0144 H   0  0  0  0  0  0  0  0  0  0  0  0
    7.6148    6.6914   -6.8865 H   0  0  0  0  0  0  0  0  0  0  0  0
    2.5757    4.1396   -3.3597 H   0  0  0  0  0  0  0  0  0  0  0  0
    1.4527    2.2968   -2.1527 H   0  0  0  0  0  0  0  0  0  0  0  0
    6.3621    0.4741    2.7164 H   0  0  0  0  0  0  0  0  0  0  0  0
    8.8459    0.6073    2.6166 H   0  0  0  0  0  0  0  0  0  0  0  0
   10.1018   -0.7319    0.9223 H   0  0  0  0  0  0  0  0  0  0  0  0
    8.8624   -2.2298   -0.6405 H   0  0  0  0  0  0  0  0  0  0  0  0
    4.5713   -5.2089   -0.7707 H   0  0  0  0  0  0  0  0  0  0  0  0
    2.7555   -5.9230    0.7809 H   0  0  0  0  0  0  0  0  0  0  0  0
    1.9726   -4.3678    2.5747 H   0  0  0  0  0  0  0  0  0  0  0  0
    2.9616   -2.0889    2.7578 H   0  0  0  0  0  0  0  0  0  0  0  0
  1  2  1  0
  1 36  1  0
  1 37  1  0
  1 38  1  0
  2  3  1  0
  2 39  1  0
  2 40  1  0
  3  4  1  0
  3 20  1  0
  3 41  1  1
  4  5  1  0
  5  6  2  0
  5 19  1  0
  6  7  1  0
  6 42  1  0
  7  8  2  0
  7 43  1  0
  8  9  1  0
  8 18  1  0
  9 10  1  0
  9 44  1  0
 10 11  2  0
 10 12  1  0
 12 13  1  0
 12 17  1  0
 12 45  1  6
 13 14  1  0
 13 46  1  0
 13 47  1  0
 14 15  1  0
 14 48  1  0
 14 49  1  0
 15 16  1  0
 15 50  1  0
 15 51  1  0
 16 17  1  0
 16 52  1  0
 16 53  1  0
 17 54  1  0
 17 55  1  0
 18 19  2  0
 18 56  1  0
 19 57  1  0
 20 21  2  0
 20 22  1  0
 22 23  1  0
 22 35  1  0
 23 24  2  0
 23 28  1  0
 24 25  1  0
 24 58  1  0
 25 26  2  0
 25 59  1  0
 26 27  1  0
 26 60  1  0
 27 28  2  0
 27 61  1  0
 28 29  1  0
 29 30  1  0
 30 31  2  0
 30 35  1  0
 31 32  1  0
 31 62  1  0
 32 33  2  0
 32 63  1  0
 33 34  1  0
 33 64  1  0
 34 35  2  0
 34 65  1  0
M  END

