
     RDKit          3D

 36 39  0  0  0  0  0  0  0  0999 V2000
    1.2989    0.3669    0.6766 N   0  0  0  0  0  0  0  0  0  0  0  0
    2.4374    0.3073    0.4534 C   0  0  0  0  0  0  0  0  0  0  0  0
    3.8435    0.2316    0.1768 C   0  0  0  0  0  0  0  0  0  0  0  0
    4.4816    1.2418   -0.5719 C   0  0  0  0  0  0  0  0  0  0  0  0
    5.8404    1.1586   -0.8444 C   0  0  0  0  0  0  0  0  0  0  0  0
    6.6109    0.0663   -0.3882 C   0  0  0  0  0  0  0  0  0  0  0  0
    8.0451    0.0688   -0.6915 C   0  0  0  0  0  0  0  0  0  0  0  0
    8.7441    1.1799   -0.8843 N   0  0  0  0  0  0  0  0  0  0  0  0
   10.0329    0.8499   -1.1409 C   0  0  0  0  0  0  0  0  0  0  0  0
   11.0565    1.8828   -1.3698 C   0  0  0  0  0  0  0  0  0  0  0  0
   10.8511    3.1778   -0.8531 C   0  0  0  0  0  0  0  0  0  0  0  0
   11.7961    4.1838   -1.0504 C   0  0  0  0  0  0  0  0  0  0  0  0
   12.9677    3.9234   -1.7703 C   0  0  0  0  0  0  0  0  0  0  0  0
   13.1769    2.6480   -2.3020 C   0  0  0  0  0  0  0  0  0  0  0  0
   12.2301    1.6391   -2.1092 C   0  0  0  0  0  0  0  0  0  0  0  0
   10.1634   -0.5544   -1.1053 C   0  0  0  0  0  0  0  0  0  0  0  0
   11.2205   -1.4912   -1.2325 C   0  0  0  0  0  0  0  0  0  0  0  0
   10.9599   -2.8389   -1.1704 C   0  0  0  0  0  0  0  0  0  0  0  0
    9.6159   -3.2913   -0.9971 C   0  0  0  0  0  0  0  0  0  0  0  0
    8.5982   -2.3963   -0.8335 C   0  0  0  0  0  0  0  0  0  0  0  0
    8.8654   -1.0400   -0.8344 N   0  0  0  0  0  0  0  0  0  0  0  0
    5.9684   -0.9253    0.3822 C   0  0  0  0  0  0  0  0  0  0  0  0
    4.6055   -0.8482    0.6577 C   0  0  0  0  0  0  0  0  0  0  0  0
    3.8990    2.0885   -0.9399 H   0  0  0  0  0  0  0  0  0  0  0  0
    6.3388    1.9409   -1.4183 H   0  0  0  0  0  0  0  0  0  0  0  0
    9.9355    3.3757   -0.2934 H   0  0  0  0  0  0  0  0  0  0  0  0
   11.6190    5.1801   -0.6367 H   0  0  0  0  0  0  0  0  0  0  0  0
   13.7087    4.7122   -1.9226 H   0  0  0  0  0  0  0  0  0  0  0  0
   14.0784    2.4380   -2.8837 H   0  0  0  0  0  0  0  0  0  0  0  0
   12.3927    0.6645   -2.5726 H   0  0  0  0  0  0  0  0  0  0  0  0
   12.2355   -1.1212   -1.3737 H   0  0  0  0  0  0  0  0  0  0  0  0
   11.7704   -3.5642   -1.2628 H   0  0  0  0  0  0  0  0  0  0  0  0
    9.3826   -4.3572   -0.9949 H   0  0  0  0  0  0  0  0  0  0  0  0
    7.5579   -2.6916   -0.7191 H   0  0  0  0  0  0  0  0  0  0  0  0
    6.5381   -1.7479    0.8155 H   0  0  0  0  0  0  0  0  0  0  0  0
    4.1252   -1.6203    1.2618 H   0  0  0  0  0  0  0  0  0  0  0  0
  1  2  3  0
  2  3  1  0
  3  4  2  0
  3 23  1  0
  4  5  1  0
  4 24  1  0
  5  6  2  0
  5 25  1  0
  6  7  1  0
  6 22  1  0
  7  8  2  0
  7 21  1  0
  8  9  1  0
  9 10  1  0
  9 16  2  0
 10 11  2  0
 10 15  1  0
 11 12  1  0
 11 26  1  0
 12 13  2  0
 12 27  1  0
 13 14  1  0
 13 28  1  0
 14 15  2  0
 14 29  1  0
 15 30  1  0
 16 17  1  0
 16 21  1  0
 17 18  2  0
 17 31  1  0
 18 19  1  0
 18 32  1  0
 19 20  2  0
 19 33  1  0
 20 21  1  0
 20 34  1  0
 22 23  2  0
 22 35  1  0
 23 36  1  0
M  END

