
     RDKit          3D

 49 50  0  0  0  0  0  0  0  0999 V2000
   -4.0184    5.4147  -11.2122 C   0  0  0  0  0  0  0  0  0  0  0  0
   -2.7642    6.0386  -11.3720 O   0  0  0  0  0  0  0  0  0  0  0  0
   -1.6562    5.3999  -10.9318 C   0  0  0  0  0  0  0  0  0  0  0  0
   -1.6210    4.1474  -10.3084 C   0  0  0  0  0  0  0  0  0  0  0  0
   -0.4017    3.5895   -9.8973 C   0  0  0  0  0  0  0  0  0  0  0  0
    0.8133    4.2534  -10.0927 C   0  0  0  0  0  0  0  0  0  0  0  0
    2.1311    3.6640   -9.6397 C   0  0  0  0  0  0  0  0  0  0  0  0
    2.7359    4.3195   -8.3750 C   0  0  1  0  0  0  0  0  0  0  0  0
    1.8582    4.1060   -7.1371 C   0  0  0  0  0  0  0  0  0  0  0  0
    4.1624    3.8179   -8.1006 C   0  0  0  0  0  0  0  0  0  0  0  0
    5.1062    4.1617   -9.1652 N   0  0  0  0  0  0  0  0  0  0  0  0
    6.4936    3.7243   -8.9579 C   0  0  2  0  0  0  0  0  0  0  0  0
    6.4380    2.7010   -8.5455 H   0  0  0  0  0  0  0  0  0  0  0  0
    7.3373    4.5999   -7.9911 C   0  0  0  0  0  0  0  0  0  0  0  0
    8.2635    3.8371   -7.0619 C   0  0  0  0  0  0  0  0  0  0  0  0
    9.4261    3.2085   -7.5410 C   0  0  0  0  0  0  0  0  0  0  0  0
   10.2616    2.5026   -6.6714 C   0  0  0  0  0  0  0  0  0  0  0  0
    9.9538    2.4103   -5.3100 C   0  0  0  0  0  0  0  0  0  0  0  0
    8.8012    3.0313   -4.8224 C   0  0  0  0  0  0  0  0  0  0  0  0
    7.9655    3.7372   -5.6934 C   0  0  0  0  0  0  0  0  0  0  0  0
    7.1594    3.5576  -10.3455 C   0  0  0  0  0  0  0  0  0  0  0  0
    8.3492    3.5903  -10.5301 O   0  0  0  0  0  0  0  0  0  0  0  0
    6.2759    3.3395  -11.3195 O   0  0  0  0  0  0  0  0  0  0  0  0
    0.7751    5.5118  -10.7243 C   0  0  0  0  0  0  0  0  0  0  0  0
   -0.4279    6.0654  -11.1289 C   0  0  0  0  0  0  0  0  0  0  0  0
   -0.4405    7.2611  -11.7310 F   0  0  0  0  0  0  0  0  0  0  0  0
   -4.7640    6.0997  -11.6372 H   0  0  0  0  0  0  0  0  0  0  0  0
   -4.2579    5.2402  -10.1475 H   0  0  0  0  0  0  0  0  0  0  0  0
   -4.0692    4.4509  -11.7505 H   0  0  0  0  0  0  0  0  0  0  0  0
   -2.5446    3.5932  -10.1396 H   0  0  0  0  0  0  0  0  0  0  0  0
   -0.4082    2.6073   -9.4173 H   0  0  0  0  0  0  0  0  0  0  0  0
    2.8640    3.7491  -10.4579 H   0  0  0  0  0  0  0  0  0  0  0  0
    2.0034    2.5846   -9.4478 H   0  0  0  0  0  0  0  0  0  0  0  0
    2.7991    5.4100   -8.5590 H   0  0  0  0  0  0  0  0  0  0  0  0
    1.7868    3.0340   -6.8841 H   0  0  0  0  0  0  0  0  0  0  0  0
    0.8365    4.4776   -7.3037 H   0  0  0  0  0  0  0  0  0  0  0  0
    2.2686    4.6297   -6.2589 H   0  0  0  0  0  0  0  0  0  0  0  0
    4.1531    2.7177   -8.0015 H   0  0  0  0  0  0  0  0  0  0  0  0
    4.4915    4.2140   -7.1180 H   0  0  0  0  0  0  0  0  0  0  0  0
    5.0878    5.1712   -9.3267 H   0  0  0  0  0  0  0  0  0  0  0  0
    6.6362    5.1836   -7.3738 H   0  0  0  0  0  0  0  0  0  0  0  0
    7.9188    5.3208   -8.5880 H   0  0  0  0  0  0  0  0  0  0  0  0
    9.6611    3.2746   -8.6053 H   0  0  0  0  0  0  0  0  0  0  0  0
   11.1628    2.0219   -7.0616 H   0  0  0  0  0  0  0  0  0  0  0  0
   10.6107    1.8588   -4.6323 H   0  0  0  0  0  0  0  0  0  0  0  0
    8.5512    2.9700   -3.7598 H   0  0  0  0  0  0  0  0  0  0  0  0
    7.0686    4.2260   -5.3000 H   0  0  0  0  0  0  0  0  0  0  0  0
    5.3976    3.4639  -10.8825 H   0  0  0  0  0  0  0  0  0  0  0  0
    1.6881    6.0798  -10.9203 H   0  0  0  0  0  0  0  0  0  0  0  0
  1  2  1  0
  1 27  1  0
  1 28  1  0
  1 29  1  0
  2  3  1  0
  3  4  2  0
  3 25  1  0
  4  5  1  0
  4 30  1  0
  5  6  2  0
  5 31  1  0
  6  7  1  0
  6 24  1  0
  7  8  1  0
  7 32  1  0
  7 33  1  0
  8  9  1  0
  8 10  1  0
  8 34  1  6
  9 35  1  0
  9 36  1  0
  9 37  1  0
 10 11  1  0
 10 38  1  0
 10 39  1  0
 11 12  1  0
 11 40  1  0
 12 13  1  1
 12 14  1  0
 12 21  1  0
 14 15  1  0
 14 41  1  0
 14 42  1  0
 15 16  2  0
 15 20  1  0
 16 17  1  0
 16 43  1  0
 17 18  2  0
 17 44  1  0
 18 19  1  0
 18 45  1  0
 19 20  2  0
 19 46  1  0
 20 47  1  0
 21 22  2  0
 21 23  1  0
 23 48  1  0
 24 25  2  0
 24 49  1  0
 25 26  1  0
M  END

