
     RDKit          3D

 46 46  0  0  0  0  0  0  0  0999 V2000
    2.5492    3.3726    1.9817 C   0  0  0  0  0  0  0  0  0  0  0  0
    3.7913    2.7254    1.3691 C   0  0  0  0  0  0  0  0  0  0  0  0
    3.4801    1.8549    0.1370 C   0  0  0  0  0  0  0  0  0  0  0  0
    4.6875    1.2141   -0.4831 C   0  0  0  0  0  0  0  0  0  0  0  0
    5.2634    1.7320   -1.5746 N   0  0  0  0  0  0  0  0  0  0  0  0
    6.3110    0.9580   -1.8500 N   0  0  0  0  0  0  0  0  0  0  0  0
    7.1604    1.2437   -2.9826 C   0  0  0  0  0  0  0  0  0  0  0  0
    6.4462   -0.0798   -0.9493 C   0  0  0  0  0  0  0  0  0  0  0  0
    7.4641   -1.0411   -1.0692 N   0  0  0  0  0  0  0  0  0  0  0  0
    7.0534   -2.4188   -1.3633 C   0  0  0  0  0  0  0  0  0  0  0  0
    8.2656   -3.3344   -1.5166 C   0  0  0  0  0  0  0  0  0  0  0  0
    7.8983   -4.7816   -1.8574 C   0  0  0  0  0  0  0  0  0  0  0  0
    9.1174   -5.6992   -1.9983 C   0  0  0  0  0  0  0  0  0  0  0  0
    8.8074   -7.1852   -2.2614 C   0  0  1  0  0  0  0  0  0  0  0  0
    8.0885   -7.4134   -3.5981 C   0  0  0  0  0  0  0  0  0  0  0  0
   10.0890   -8.0253   -2.1860 C   0  0  0  0  0  0  0  0  0  0  0  0
    5.3980    0.0663   -0.0409 C   0  0  0  0  0  0  0  0  0  0  0  0
    5.0796   -0.7920    1.0254 N   0  0  0  0  0  0  0  0  0  0  0  0
    2.8035    3.9923    2.8566 H   0  0  0  0  0  0  0  0  0  0  0  0
    1.8201    2.6130    2.3118 H   0  0  0  0  0  0  0  0  0  0  0  0
    2.0371    4.0212    1.2514 H   0  0  0  0  0  0  0  0  0  0  0  0
    4.3060    2.1131    2.1327 H   0  0  0  0  0  0  0  0  0  0  0  0
    4.5162    3.5033    1.0739 H   0  0  0  0  0  0  0  0  0  0  0  0
    2.9939    2.4763   -0.6326 H   0  0  0  0  0  0  0  0  0  0  0  0
    2.7471    1.0760    0.4189 H   0  0  0  0  0  0  0  0  0  0  0  0
    6.5888    1.1821   -3.9223 H   0  0  0  0  0  0  0  0  0  0  0  0
    7.9700    0.5029   -2.9935 H   0  0  0  0  0  0  0  0  0  0  0  0
    7.5852    2.2563   -2.8982 H   0  0  0  0  0  0  0  0  0  0  0  0
    8.1247   -1.0109   -0.2931 H   0  0  0  0  0  0  0  0  0  0  0  0
    6.4768   -2.4023   -2.3036 H   0  0  0  0  0  0  0  0  0  0  0  0
    6.3688   -2.8303   -0.5929 H   0  0  0  0  0  0  0  0  0  0  0  0
    8.8521   -3.3191   -0.5775 H   0  0  0  0  0  0  0  0  0  0  0  0
    8.9292   -2.9177   -2.2946 H   0  0  0  0  0  0  0  0  0  0  0  0
    7.3091   -4.7889   -2.7909 H   0  0  0  0  0  0  0  0  0  0  0  0
    7.2283   -5.1837   -1.0747 H   0  0  0  0  0  0  0  0  0  0  0  0
    9.7198   -5.6269   -1.0742 H   0  0  0  0  0  0  0  0  0  0  0  0
    9.7690   -5.3203   -2.8090 H   0  0  0  0  0  0  0  0  0  0  0  0
    8.1330   -7.5297   -1.4536 H   0  0  0  0  0  0  0  0  0  0  0  0
    8.7075   -7.0625   -4.4425 H   0  0  0  0  0  0  0  0  0  0  0  0
    7.1237   -6.8855   -3.6493 H   0  0  0  0  0  0  0  0  0  0  0  0
    7.8851   -8.4845   -3.7599 H   0  0  0  0  0  0  0  0  0  0  0  0
   10.8063   -7.7221   -2.9684 H   0  0  0  0  0  0  0  0  0  0  0  0
    9.8767   -9.0973   -2.3289 H   0  0  0  0  0  0  0  0  0  0  0  0
   10.5921   -7.9095   -1.2121 H   0  0  0  0  0  0  0  0  0  0  0  0
    5.8983   -1.2125    1.4582 H   0  0  0  0  0  0  0  0  0  0  0  0
    4.5163   -0.3452    1.7430 H   0  0  0  0  0  0  0  0  0  0  0  0
  1  2  1  0
  1 19  1  0
  1 20  1  0
  1 21  1  0
  2  3  1  0
  2 22  1  0
  2 23  1  0
  3  4  1  0
  3 24  1  0
  3 25  1  0
  4  5  2  0
  4 17  1  0
  5  6  1  0
  6  7  1  0
  6  8  1  0
  7 26  1  0
  7 27  1  0
  7 28  1  0
  8  9  1  0
  8 17  2  0
  9 10  1  0
  9 29  1  0
 10 11  1  0
 10 30  1  0
 10 31  1  0
 11 12  1  0
 11 32  1  0
 11 33  1  0
 12 13  1  0
 12 34  1  0
 12 35  1  0
 13 14  1  0
 13 36  1  0
 13 37  1  0
 14 15  1  0
 14 16  1  0
 14 38  1  1
 15 39  1  0
 15 40  1  0
 15 41  1  0
 16 42  1  0
 16 43  1  0
 16 44  1  0
 17 18  1  0
 18 45  1  0
 18 46  1  0
M  END

