
     RDKit          3D

 44 44  0  0  0  0  0  0  0  0999 V2000
    5.3443   -0.5558   -5.1823 C   0  0  0  0  0  0  0  0  0  0  0  0
    4.7326   -0.7222   -3.7903 C   0  0  0  0  0  0  0  0  0  0  0  0
    5.2451    0.3082   -2.7778 C   0  0  0  0  0  0  0  0  0  0  0  0
    4.6430    0.1798   -1.3682 C   0  0  2  0  0  0  0  0  0  0  0  0
    3.5488    0.0957   -1.4581 H   0  0  0  0  0  0  0  0  0  0  0  0
    5.0294    1.3470   -0.4364 C   0  0  0  0  0  0  0  0  0  0  0  0
    6.4162    0.9678    0.0966 C   0  0  0  0  0  0  0  0  0  0  0  0
    6.3831   -0.4941    0.0883 N   0  0  0  0  0  0  0  0  0  0  0  0
    7.3180   -1.2258    0.7675 C   0  0  0  0  0  0  0  0  0  0  0  0
    8.2531   -0.7280    1.3652 O   0  0  0  0  0  0  0  0  0  0  0  0
    7.0466   -2.5444    0.6678 O   0  0  0  0  0  0  0  0  0  0  0  0
    7.7579   -3.5502    1.4594 C   0  0  1  0  0  0  0  0  0  0  0  0
    7.6580   -3.2223    2.9535 C   0  0  0  0  0  0  0  0  0  0  0  0
    6.9867   -4.8349    1.1471 C   0  0  0  0  0  0  0  0  0  0  0  0
    9.2112   -3.6418    0.9846 C   0  0  0  0  0  0  0  0  0  0  0  0
    5.2045   -1.0510   -0.5948 C   0  0  1  0  0  0  0  0  0  0  0  0
    5.5285   -1.8391   -1.2938 H   0  0  0  0  0  0  0  0  0  0  0  0
    4.2408   -1.6682    0.3306 C   0  0  0  0  0  0  0  0  0  0  0  0
    3.4897   -2.2245    1.1046 C   0  0  0  0  0  0  0  0  0  0  0  0
    2.6640   -3.0192    2.0209 C   0  0  0  0  0  0  0  0  0  0  0  0
    3.1662   -4.3284    2.2311 O   0  0  0  0  0  0  0  0  0  0  0  0
    4.9521   -1.3052   -5.8879 H   0  0  0  0  0  0  0  0  0  0  0  0
    6.4412   -0.6670   -5.1542 H   0  0  0  0  0  0  0  0  0  0  0  0
    5.1257    0.4412   -5.6001 H   0  0  0  0  0  0  0  0  0  0  0  0
    4.9381   -1.7435   -3.4234 H   0  0  0  0  0  0  0  0  0  0  0  0
    3.6322   -0.6444   -3.8576 H   0  0  0  0  0  0  0  0  0  0  0  0
    5.0180    1.3200   -3.1586 H   0  0  0  0  0  0  0  0  0  0  0  0
    6.3471    0.2482   -2.7184 H   0  0  0  0  0  0  0  0  0  0  0  0
    4.3125    1.4038    0.3978 H   0  0  0  0  0  0  0  0  0  0  0  0
    5.0238    2.3202   -0.9496 H   0  0  0  0  0  0  0  0  0  0  0  0
    6.6137    1.3457    1.1111 H   0  0  0  0  0  0  0  0  0  0  0  0
    7.2291    1.3449   -0.5498 H   0  0  0  0  0  0  0  0  0  0  0  0
    6.6028   -3.1183    3.2502 H   0  0  0  0  0  0  0  0  0  0  0  0
    8.1903   -2.2934    3.1933 H   0  0  0  0  0  0  0  0  0  0  0  0
    8.0972   -4.0445    3.5399 H   0  0  0  0  0  0  0  0  0  0  0  0
    5.9408   -4.7396    1.4761 H   0  0  0  0  0  0  0  0  0  0  0  0
    7.4427   -5.6895    1.6700 H   0  0  0  0  0  0  0  0  0  0  0  0
    7.0000   -5.0411    0.0656 H   0  0  0  0  0  0  0  0  0  0  0  0
    9.7425   -2.7008    1.1783 H   0  0  0  0  0  0  0  0  0  0  0  0
    9.2490   -3.8549   -0.0954 H   0  0  0  0  0  0  0  0  0  0  0  0
    9.7291   -4.4579    1.5128 H   0  0  0  0  0  0  0  0  0  0  0  0
    1.6173   -3.0389    1.6542 H   0  0  0  0  0  0  0  0  0  0  0  0
    2.6360   -2.5371    3.0121 H   0  0  0  0  0  0  0  0  0  0  0  0
    3.2732   -4.7446    1.3649 H   0  0  0  0  0  0  0  0  0  0  0  0
  1  2  1  0
  1 22  1  0
  1 23  1  0
  1 24  1  0
  2  3  1  0
  2 25  1  0
  2 26  1  0
  3  4  1  0
  3 27  1  0
  3 28  1  0
  4  5  1  6
  4  6  1  0
  4 16  1  0
  6  7  1  0
  6 29  1  0
  6 30  1  0
  7  8  1  0
  7 31  1  0
  7 32  1  0
  8  9  1  0
  8 16  1  0
  9 10  2  0
  9 11  1  0
 12 11  1  6
 12 13  1  0
 12 14  1  0
 12 15  1  0
 13 33  1  0
 13 34  1  0
 13 35  1  0
 14 36  1  0
 14 37  1  0
 14 38  1  0
 15 39  1  0
 15 40  1  0
 15 41  1  0
 16 17  1  6
 16 18  1  0
 18 19  3  0
 19 20  1  0
 20 21  1  0
 20 42  1  0
 20 43  1  0
 21 44  1  0
M  END

