
     RDKit          3D

 41 43  0  0  0  0  0  0  0  0999 V2000
    2.7812   -1.3077   -0.4669 O   0  0  0  0  0  0  0  0  0  0  0  0
    2.5356   -0.1268   -0.3327 C   0  0  0  0  0  0  0  0  0  0  0  0
    3.1104    0.7089    0.7499 C   0  0  0  0  0  0  0  0  0  0  0  0
    3.9683    0.1614    1.6617 C   0  0  0  0  0  0  0  0  0  0  0  0
    4.5345    0.9356    2.7130 C   0  0  0  0  0  0  0  0  0  0  0  0
    5.4202    0.3807    3.6630 C   0  0  0  0  0  0  0  0  0  0  0  0
    5.9636    1.1344    4.6875 C   0  0  0  0  0  0  0  0  0  0  0  0
    5.6125    2.4980    4.7736 C   0  0  0  0  0  0  0  0  0  0  0  0
    6.1182    3.3392    5.7175 O   0  0  0  0  0  0  0  0  0  0  0  0
    6.7397    2.8665    6.8591 C   0  0  0  0  0  0  0  0  0  0  0  0
    8.0780    3.2072    7.0690 C   0  0  0  0  0  0  0  0  0  0  0  0
    8.7088    2.8098    8.2515 C   0  0  0  0  0  0  0  0  0  0  0  0
    8.0086    2.0742    9.2126 C   0  0  0  0  0  0  0  0  0  0  0  0
    6.6679    1.7408    8.9912 C   0  0  0  0  0  0  0  0  0  0  0  0
    6.0248    2.1384    7.8164 C   0  0  0  0  0  0  0  0  0  0  0  0
    4.7437    3.0833    3.8503 C   0  0  0  0  0  0  0  0  0  0  0  0
    4.1894    2.3209    2.8061 C   0  0  0  0  0  0  0  0  0  0  0  0
    3.3146    2.8688    1.8770 N   0  0  0  0  0  0  0  0  0  0  0  0
    2.9124    4.2814    1.9618 C   0  0  0  0  0  0  0  0  0  0  0  0
    3.9122    5.2723    1.3529 C   0  0  0  0  0  0  0  0  0  0  0  0
    4.1277    5.1431   -0.1580 C   0  0  0  0  0  0  0  0  0  0  0  0
    5.0799    6.0729   -0.6333 O   0  0  0  0  0  0  0  0  0  0  0  0
    2.7415    2.1257    0.8155 C   0  0  0  0  0  0  0  0  0  0  0  0
    1.9870    2.6672    0.0182 O   0  0  0  0  0  0  0  0  0  0  0  0
    1.8506    0.4136   -1.0250 H   0  0  0  0  0  0  0  0  0  0  0  0
    4.2138   -0.9009    1.5643 H   0  0  0  0  0  0  0  0  0  0  0  0
    5.6787   -0.6773    3.5715 H   0  0  0  0  0  0  0  0  0  0  0  0
    6.6528    0.6919    5.4060 H   0  0  0  0  0  0  0  0  0  0  0  0
    8.6043    3.7844    6.3063 H   0  0  0  0  0  0  0  0  0  0  0  0
    9.7550    3.0770    8.4202 H   0  0  0  0  0  0  0  0  0  0  0  0
    8.5050    1.7642   10.1351 H   0  0  0  0  0  0  0  0  0  0  0  0
    6.1130    1.1733    9.7425 H   0  0  0  0  0  0  0  0  0  0  0  0
    4.9748    1.8954    7.6397 H   0  0  0  0  0  0  0  0  0  0  0  0
    4.5321    4.1425    3.9730 H   0  0  0  0  0  0  0  0  0  0  0  0
    2.7312    4.5242    3.0183 H   0  0  0  0  0  0  0  0  0  0  0  0
    1.9530    4.3514    1.4341 H   0  0  0  0  0  0  0  0  0  0  0  0
    4.8949    5.1982    1.8476 H   0  0  0  0  0  0  0  0  0  0  0  0
    3.5325    6.2880    1.5716 H   0  0  0  0  0  0  0  0  0  0  0  0
    3.1603    5.2242   -0.6899 H   0  0  0  0  0  0  0  0  0  0  0  0
    4.5299    4.1466   -0.3986 H   0  0  0  0  0  0  0  0  0  0  0  0
    4.7069    6.9593   -0.5420 H   0  0  0  0  0  0  0  0  0  0  0  0
  1  2  2  0
  2  3  1  0
  2 25  1  0
  3  4  2  0
  3 23  1  0
  4  5  1  0
  4 26  1  0
  5  6  2  0
  5 17  1  0
  6  7  1  0
  6 27  1  0
  7  8  2  0
  7 28  1  0
  8  9  1  0
  8 16  1  0
  9 10  1  0
 10 11  2  0
 10 15  1  0
 11 12  1  0
 11 29  1  0
 12 13  2  0
 12 30  1  0
 13 14  1  0
 13 31  1  0
 14 15  2  0
 14 32  1  0
 15 33  1  0
 16 17  2  0
 16 34  1  0
 17 18  1  0
 18 19  1  0
 18 23  1  0
 19 20  1  0
 19 35  1  0
 19 36  1  0
 20 21  1  0
 20 37  1  0
 20 38  1  0
 21 22  1  0
 21 39  1  0
 21 40  1  0
 22 41  1  0
 23 24  2  0
M  END

