
     RDKit          3D

 36 37  0  0  0  0  0  0  0  0999 V2000
    2.1502   -5.1740    1.8581 C   0  0  0  0  0  0  0  0  0  0  0  0
    1.8662   -4.1202    0.9678 O   0  0  0  0  0  0  0  0  0  0  0  0
    2.8803   -3.3017    0.5477 C   0  0  0  0  0  0  0  0  0  0  0  0
    4.2129   -3.4243    0.9404 C   0  0  0  0  0  0  0  0  0  0  0  0
    5.1726   -2.5284    0.4474 C   0  0  0  0  0  0  0  0  0  0  0  0
    4.7904   -1.5192   -0.4327 C   0  0  0  0  0  0  0  0  0  0  0  0
    3.4550   -1.3869   -0.8333 C   0  0  0  0  0  0  0  0  0  0  0  0
    2.4825   -2.2737   -0.3507 C   0  0  0  0  0  0  0  0  0  0  0  0
    1.1233   -2.2385   -0.6812 N   0  0  0  0  0  0  0  0  0  0  0  0
    0.4540   -1.3640   -1.5181 C   0  0  0  0  0  0  0  0  0  0  0  0
    1.0304   -0.4400   -2.1096 O   0  0  0  0  0  0  0  0  0  0  0  0
   -0.9728   -1.5773   -1.6733 C   0  0  0  0  0  0  0  0  0  0  0  0
   -1.9627   -2.8422   -0.9216 S   0  0  0  0  0  0  0  0  0  0  0  0
   -3.3799   -2.1424   -1.7138 C   0  0  0  0  0  0  0  0  0  0  0  0
   -4.6179   -2.6706   -1.5182 N   0  0  0  0  0  0  0  0  0  0  0  0
   -4.7943   -3.8832   -0.7471 C   0  0  0  0  0  0  0  0  0  0  0  0
   -5.7327   -2.2036   -2.3268 C   0  0  0  0  0  0  0  0  0  0  0  0
   -3.1351   -1.1054   -2.4756 N   0  0  0  0  0  0  0  0  0  0  0  0
   -1.8087   -0.7730   -2.4632 C   0  0  0  0  0  0  0  0  0  0  0  0
   -1.3798    0.2769   -3.1927 N   0  0  0  0  0  0  0  0  0  0  0  0
    1.1994   -5.6891    2.0511 H   0  0  0  0  0  0  0  0  0  0  0  0
    2.5573   -4.8023    2.8157 H   0  0  0  0  0  0  0  0  0  0  0  0
    2.8667   -5.8946    1.4242 H   0  0  0  0  0  0  0  0  0  0  0  0
    4.5138   -4.2139    1.6295 H   0  0  0  0  0  0  0  0  0  0  0  0
    6.2147   -2.6307    0.7594 H   0  0  0  0  0  0  0  0  0  0  0  0
    5.5334   -0.8178   -0.8204 H   0  0  0  0  0  0  0  0  0  0  0  0
    3.1426   -0.6036   -1.5193 H   0  0  0  0  0  0  0  0  0  0  0  0
    0.5840   -2.9658   -0.2244 H   0  0  0  0  0  0  0  0  0  0  0  0
   -4.1570   -3.8643    0.1512 H   0  0  0  0  0  0  0  0  0  0  0  0
   -4.5539   -4.7968   -1.3249 H   0  0  0  0  0  0  0  0  0  0  0  0
   -5.8401   -3.9509   -0.4136 H   0  0  0  0  0  0  0  0  0  0  0  0
   -5.4724   -1.2328   -2.7630 H   0  0  0  0  0  0  0  0  0  0  0  0
   -6.6322   -2.0950   -1.6993 H   0  0  0  0  0  0  0  0  0  0  0  0
   -5.9633   -2.9085   -3.1480 H   0  0  0  0  0  0  0  0  0  0  0  0
   -2.0525    0.8441   -3.6872 H   0  0  0  0  0  0  0  0  0  0  0  0
   -0.3896    0.5042   -3.1284 H   0  0  0  0  0  0  0  0  0  0  0  0
  1  2  1  0
  1 21  1  0
  1 22  1  0
  1 23  1  0
  2  3  1  0
  3  4  2  0
  3  8  1  0
  4  5  1  0
  4 24  1  0
  5  6  2  0
  5 25  1  0
  6  7  1  0
  6 26  1  0
  7  8  2  0
  7 27  1  0
  8  9  1  0
  9 10  1  0
  9 28  1  0
 10 11  2  0
 10 12  1  0
 12 13  1  0
 12 19  2  0
 13 14  1  0
 14 15  1  0
 14 18  2  0
 15 16  1  0
 15 17  1  0
 16 29  1  0
 16 30  1  0
 16 31  1  0
 17 32  1  0
 17 33  1  0
 17 34  1  0
 18 19  1  0
 19 20  1  0
 20 35  1  0
 20 36  1  0
M  END

