
     RDKit          3D

 34 35  0  0  0  0  0  0  0  0999 V2000
    5.5467    2.0545    0.2209 C   0  0  0  0  0  0  0  0  0  0  0  0
    4.6214    0.8617    0.2511 C   0  0  0  0  0  0  0  0  0  0  0  0
    3.2517    1.0031    0.5197 C   0  0  0  0  0  0  0  0  0  0  0  0
    2.4130   -0.1150    0.5372 C   0  0  0  0  0  0  0  0  0  0  0  0
    2.9082   -1.3956    0.2907 C   0  0  0  0  0  0  0  0  0  0  0  0
    4.2793   -1.5488    0.0212 C   0  0  0  0  0  0  0  0  0  0  0  0
    4.8674   -2.8021   -0.2376 N   0  0  0  0  0  0  0  0  0  0  0  0
    4.3000   -4.0273   -0.2815 C   0  0  0  0  0  0  0  0  0  0  0  0
    3.1266   -4.3263   -0.1031 O   0  0  0  0  0  0  0  0  0  0  0  0
    5.3550   -5.1131   -0.6056 C   0  0  0  0  0  0  0  0  0  0  0  0
    6.5308   -4.8356   -0.7852 O   0  0  0  0  0  0  0  0  0  0  0  0
    4.7751   -6.3404   -0.6479 N   0  0  0  0  0  0  0  0  0  0  0  0
    5.3530   -7.5888   -0.9029 C   0  0  0  0  0  0  0  0  0  0  0  0
    6.7252   -7.7517   -1.1725 C   0  0  0  0  0  0  0  0  0  0  0  0
    7.2331   -9.0241   -1.4180 C   0  0  0  0  0  0  0  0  0  0  0  0
    6.3947  -10.1545   -1.4011 C   0  0  0  0  0  0  0  0  0  0  0  0
    6.9285  -11.4620   -1.6558 C   0  0  0  0  0  0  0  0  0  0  0  0
    7.3594  -12.5208   -1.8619 N   0  0  0  0  0  0  0  0  0  0  0  0
    5.0230   -9.9853   -1.1307 C   0  0  0  0  0  0  0  0  0  0  0  0
    4.5112   -8.7176   -0.8850 C   0  0  0  0  0  0  0  0  0  0  0  0
    5.1193   -0.4243    0.0038 C   0  0  0  0  0  0  0  0  0  0  0  0
    5.0184    2.9806    0.4896 H   0  0  0  0  0  0  0  0  0  0  0  0
    5.9838    2.1964   -0.7817 H   0  0  0  0  0  0  0  0  0  0  0  0
    6.3865    1.9289    0.9240 H   0  0  0  0  0  0  0  0  0  0  0  0
    2.8399    1.9963    0.7166 H   0  0  0  0  0  0  0  0  0  0  0  0
    1.3479    0.0110    0.7480 H   0  0  0  0  0  0  0  0  0  0  0  0
    2.2581   -2.2676    0.3042 H   0  0  0  0  0  0  0  0  0  0  0  0
    5.8696   -2.8242   -0.4243 H   0  0  0  0  0  0  0  0  0  0  0  0
    3.7722   -6.3007   -0.4604 H   0  0  0  0  0  0  0  0  0  0  0  0
    7.3759   -6.8799   -1.1861 H   0  0  0  0  0  0  0  0  0  0  0  0
    8.2974   -9.1478   -1.6267 H   0  0  0  0  0  0  0  0  0  0  0  0
    4.3624  -10.8540   -1.1145 H   0  0  0  0  0  0  0  0  0  0  0  0
    3.4454   -8.5944   -0.6758 H   0  0  0  0  0  0  0  0  0  0  0  0
    6.1853   -0.5574   -0.2074 H   0  0  0  0  0  0  0  0  0  0  0  0
  1  2  1  0
  1 22  1  0
  1 23  1  0
  1 24  1  0
  2  3  2  0
  2 21  1  0
  3  4  1  0
  3 25  1  0
  4  5  2  0
  4 26  1  0
  5  6  1  0
  5 27  1  0
  6  7  1  0
  6 21  2  0
  7  8  1  0
  7 28  1  0
  8  9  2  0
  8 10  1  0
 10 11  2  0
 10 12  1  0
 12 13  1  0
 12 29  1  0
 13 14  2  0
 13 20  1  0
 14 15  1  0
 14 30  1  0
 15 16  2  0
 15 31  1  0
 16 17  1  0
 16 19  1  0
 17 18  3  0
 19 20  2  0
 19 32  1  0
 20 33  1  0
 21 34  1  0
M  END

