
     RDKit          3D

107115  0  0  0  0  0  0  0  0999 V2000
    0.7761   -0.7456    1.1286 C   0  0  0  0  0  0  0  0  0  0  0  0
    1.7069   -0.5101   -0.0609 C   0  0  0  0  0  0  0  0  0  0  0  0
    2.9391   -1.4545   -0.1651 C   0  0  2  0  0  0  0  0  0  0  0  0
    3.7532   -1.0563   -1.4300 C   0  0  0  0  0  0  0  0  0  0  0  0
    5.0128   -1.8769   -1.7066 C   0  0  0  0  0  0  0  0  0  0  0  0
    2.5269   -2.9277   -0.1932 C   0  0  0  0  0  0  0  0  0  0  0  0
    1.7306   -3.5924   -1.1167 C   0  0  0  0  0  0  0  0  0  0  0  0
    1.4571   -4.9740   -0.9743 C   0  0  0  0  0  0  0  0  0  0  0  0
    0.6119   -5.6283   -1.9746 C   0  0  0  0  0  0  0  0  0  0  0  0
    0.2451   -6.9309   -2.0163 C   0  0  0  0  0  0  0  0  0  0  0  0
   -0.6022   -7.5815   -3.0154 C   0  0  0  0  0  0  0  0  0  0  0  0
   -0.8532   -8.9659   -2.9128 C   0  0  0  0  0  0  0  0  0  0  0  0
   -1.6432   -9.6440   -3.8366 C   0  0  0  0  0  0  0  0  0  0  0  0
   -2.2380   -8.9562   -4.9102 C   0  0  0  0  0  0  0  0  0  0  0  0
   -3.0510   -9.6320   -5.8510 N   0  0  0  0  0  0  0  0  0  0  0  0
   -3.9361  -10.6586   -5.4233 C   0  0  0  0  0  0  0  0  0  0  0  0
   -4.7199  -10.4930   -4.2667 C   0  0  0  0  0  0  0  0  0  0  0  0
   -5.5834  -11.5064   -3.8480 C   0  0  0  0  0  0  0  0  0  0  0  0
   -5.6955  -12.6932   -4.5797 C   0  0  0  0  0  0  0  0  0  0  0  0
   -4.9250  -12.8584   -5.7350 C   0  0  0  0  0  0  0  0  0  0  0  0
   -4.0466  -11.8569   -6.1520 C   0  0  0  0  0  0  0  0  0  0  0  0
   -2.9795   -9.2954   -7.2296 C   0  0  0  0  0  0  0  0  0  0  0  0
   -1.7365   -9.0724   -7.8503 C   0  0  0  0  0  0  0  0  0  0  0  0
   -1.6733   -8.7359   -9.2034 C   0  0  0  0  0  0  0  0  0  0  0  0
   -2.8409   -8.6320   -9.9663 C   0  0  0  0  0  0  0  0  0  0  0  0
   -4.0781   -8.8618   -9.3557 C   0  0  0  0  0  0  0  0  0  0  0  0
   -4.1519   -9.1825   -7.9993 C   0  0  0  0  0  0  0  0  0  0  0  0
   -2.0038   -7.5693   -5.0205 C   0  0  0  0  0  0  0  0  0  0  0  0
   -1.2027   -6.9050   -4.1005 C   0  0  0  0  0  0  0  0  0  0  0  0
    2.0181   -5.6526    0.1341 C   0  0  0  0  0  0  0  0  0  0  0  0
    2.8173   -4.9939    1.0644 C   0  0  0  0  0  0  0  0  0  0  0  0
    3.0759   -3.6250    0.9047 C   0  0  0  0  0  0  0  0  0  0  0  0
    3.8628   -2.6869    1.7063 C   0  0  0  0  0  0  0  0  0  0  0  0
    4.6035   -2.8650    2.8836 C   0  0  0  0  0  0  0  0  0  0  0  0
    5.2691   -1.7784    3.4444 C   0  0  0  0  0  0  0  0  0  0  0  0
    5.2174   -0.4923    2.8552 C   0  0  0  0  0  0  0  0  0  0  0  0
    5.9013    0.6759    3.4124 C   0  0  0  0  0  0  0  0  0  0  0  0
    6.6541    0.7296    4.5364 C   0  0  0  0  0  0  0  0  0  0  0  0
    7.3389    1.8976    5.0898 C   0  0  0  0  0  0  0  0  0  0  0  0
    8.0554    1.7701    6.2983 C   0  0  0  0  0  0  0  0  0  0  0  0
    8.7200    2.8458    6.8802 C   0  0  0  0  0  0  0  0  0  0  0  0
    8.7105    4.1104    6.2636 C   0  0  0  0  0  0  0  0  0  0  0  0
    9.3904    5.2099    6.8397 N   0  0  0  0  0  0  0  0  0  0  0  0
   10.6519    5.0207    7.4665 C   0  0  0  0  0  0  0  0  0  0  0  0
   11.6356    4.2125    6.8674 C   0  0  0  0  0  0  0  0  0  0  0  0
   12.8709    4.0258    7.4895 C   0  0  0  0  0  0  0  0  0  0  0  0
   13.1561    4.6515    8.7077 C   0  0  0  0  0  0  0  0  0  0  0  0
   12.1844    5.4627    9.3024 C   0  0  0  0  0  0  0  0  0  0  0  0
   10.9402    5.6418    8.6955 C   0  0  0  0  0  0  0  0  0  0  0  0
    8.8113    6.5069    6.8027 C   0  0  0  0  0  0  0  0  0  0  0  0
    7.4414    6.6889    7.0674 C   0  0  0  0  0  0  0  0  0  0  0  0
    6.8771    7.9648    7.0230 C   0  0  0  0  0  0  0  0  0  0  0  0
    7.6662    9.0824    6.7323 C   0  0  0  0  0  0  0  0  0  0  0  0
    9.0303    8.9072    6.4776 C   0  0  0  0  0  0  0  0  0  0  0  0
    9.5998    7.6332    6.5034 C   0  0  0  0  0  0  0  0  0  0  0  0
    8.0059    4.2510    5.0495 C   0  0  0  0  0  0  0  0  0  0  0  0
    7.3348    3.1740    4.4845 C   0  0  0  0  0  0  0  0  0  0  0  0
    4.4644   -0.3346    1.6669 C   0  0  0  0  0  0  0  0  0  0  0  0
    3.7974   -1.4132    1.1009 C   0  0  0  0  0  0  0  0  0  0  0  0
   -0.0599   -0.0282    1.1106 H   0  0  0  0  0  0  0  0  0  0  0  0
    1.3024   -0.6194    2.0876 H   0  0  0  0  0  0  0  0  0  0  0  0
    0.3455   -1.7589    1.1132 H   0  0  0  0  0  0  0  0  0  0  0  0
    2.0798    0.5292   -0.0367 H   0  0  0  0  0  0  0  0  0  0  0  0
    1.1335   -0.5993   -1.0006 H   0  0  0  0  0  0  0  0  0  0  0  0
    4.0221    0.0107   -1.3355 H   0  0  0  0  0  0  0  0  0  0  0  0
    3.0755   -1.1171   -2.2998 H   0  0  0  0  0  0  0  0  0  0  0  0
    5.7356   -1.8035   -0.8791 H   0  0  0  0  0  0  0  0  0  0  0  0
    5.5137   -1.5165   -2.6193 H   0  0  0  0  0  0  0  0  0  0  0  0
    4.7790   -2.9428   -1.8540 H   0  0  0  0  0  0  0  0  0  0  0  0
    1.3032   -3.0552   -1.9688 H   0  0  0  0  0  0  0  0  0  0  0  0
    0.2541   -4.9605   -2.7655 H   0  0  0  0  0  0  0  0  0  0  0  0
    0.6069   -7.6016   -1.2299 H   0  0  0  0  0  0  0  0  0  0  0  0
   -0.4010   -9.5272   -2.0900 H   0  0  0  0  0  0  0  0  0  0  0  0
   -1.8027  -10.7184   -3.7304 H   0  0  0  0  0  0  0  0  0  0  0  0
   -4.6478   -9.5637   -3.6984 H   0  0  0  0  0  0  0  0  0  0  0  0
   -6.1850  -11.3594   -2.9470 H   0  0  0  0  0  0  0  0  0  0  0  0
   -6.3774  -13.4818   -4.2526 H   0  0  0  0  0  0  0  0  0  0  0  0
   -4.9970  -13.7830   -6.3139 H   0  0  0  0  0  0  0  0  0  0  0  0
   -3.4388  -11.9979   -7.0477 H   0  0  0  0  0  0  0  0  0  0  0  0
   -0.8200   -9.1659   -7.2647 H   0  0  0  0  0  0  0  0  0  0  0  0
   -0.6984   -8.5669   -9.6683 H   0  0  0  0  0  0  0  0  0  0  0  0
   -2.7872   -8.3749  -11.0268 H   0  0  0  0  0  0  0  0  0  0  0  0
   -5.0000   -8.7782   -9.9373 H   0  0  0  0  0  0  0  0  0  0  0  0
   -5.1217   -9.3478   -7.5263 H   0  0  0  0  0  0  0  0  0  0  0  0
   -2.4637   -7.0122   -5.8387 H   0  0  0  0  0  0  0  0  0  0  0  0
   -1.0553   -5.8296   -4.2210 H   0  0  0  0  0  0  0  0  0  0  0  0
    1.8228   -6.7183    0.2693 H   0  0  0  0  0  0  0  0  0  0  0  0
    3.2358   -5.5460    1.9101 H   0  0  0  0  0  0  0  0  0  0  0  0
    4.6631   -3.8458    3.3625 H   0  0  0  0  0  0  0  0  0  0  0  0
    5.8437   -1.9293    4.3605 H   0  0  0  0  0  0  0  0  0  0  0  0
    5.7664    1.5943    2.8311 H   0  0  0  0  0  0  0  0  0  0  0  0
    6.7843   -0.1860    5.1229 H   0  0  0  0  0  0  0  0  0  0  0  0
    8.0773    0.7994    6.8018 H   0  0  0  0  0  0  0  0  0  0  0  0
    9.2521    2.7101    7.8233 H   0  0  0  0  0  0  0  0  0  0  0  0
   11.4249    3.7322    5.9100 H   0  0  0  0  0  0  0  0  0  0  0  0
   13.6230    3.3948    7.0086 H   0  0  0  0  0  0  0  0  0  0  0  0
   14.1266    4.5084    9.1886 H   0  0  0  0  0  0  0  0  0  0  0  0
   12.3902    5.9532   10.2575 H   0  0  0  0  0  0  0  0  0  0  0  0
   10.1820    6.2662    9.1717 H   0  0  0  0  0  0  0  0  0  0  0  0
    6.8220    5.8232    7.3092 H   0  0  0  0  0  0  0  0  0  0  0  0
    5.8110    8.0865    7.2320 H   0  0  0  0  0  0  0  0  0  0  0  0
    7.2224   10.0803    6.7049 H   0  0  0  0  0  0  0  0  0  0  0  0
    9.6589    9.7703    6.2426 H   0  0  0  0  0  0  0  0  0  0  0  0
   10.6625    7.5025    6.2907 H   0  0  0  0  0  0  0  0  0  0  0  0
    7.9937    5.2198    4.5469 H   0  0  0  0  0  0  0  0  0  0  0  0
    6.8089    3.3274    3.5396 H   0  0  0  0  0  0  0  0  0  0  0  0
    4.4160    0.6542    1.2006 H   0  0  0  0  0  0  0  0  0  0  0  0
  1  2  1  0
  1 60  1  0
  1 61  1  0
  1 62  1  0
  3  2  1  1
  2 63  1  0
  2 64  1  0
  3  4  1  0
  3  6  1  0
  3 59  1  0
  4  5  1  0
  4 65  1  0
  4 66  1  0
  5 67  1  0
  5 68  1  0
  5 69  1  0
  6  7  2  0
  6 32  1  0
  7  8  1  0
  7 70  1  0
  8  9  1  0
  8 30  2  0
  9 10  2  0
  9 71  1  0
 10 11  1  0
 10 72  1  0
 11 12  2  0
 11 29  1  0
 12 13  1  0
 12 73  1  0
 13 14  2  0
 13 74  1  0
 14 15  1  0
 14 28  1  0
 15 16  1  0
 15 22  1  0
 16 17  2  0
 16 21  1  0
 17 18  1  0
 17 75  1  0
 18 19  2  0
 18 76  1  0
 19 20  1  0
 19 77  1  0
 20 21  2  0
 20 78  1  0
 21 79  1  0
 22 23  2  0
 22 27  1  0
 23 24  1  0
 23 80  1  0
 24 25  2  0
 24 81  1  0
 25 26  1  0
 25 82  1  0
 26 27  2  0
 26 83  1  0
 27 84  1  0
 28 29  2  0
 28 85  1  0
 29 86  1  0
 30 31  1  0
 30 87  1  0
 31 32  2  0
 31 88  1  0
 32 33  1  0
 33 34  2  0
 33 59  1  0
 34 35  1  0
 34 89  1  0
 35 36  2  0
 35 90  1  0
 36 37  1  0
 36 58  1  0
 37 38  2  0
 37 91  1  0
 38 39  1  0
 38 92  1  0
 39 40  2  0
 39 57  1  0
 40 41  1  0
 40 93  1  0
 41 42  2  0
 41 94  1  0
 42 43  1  0
 42 56  1  0
 43 44  1  0
 43 50  1  0
 44 45  2  0
 44 49  1  0
 45 46  1  0
 45 95  1  0
 46 47  2  0
 46 96  1  0
 47 48  1  0
 47 97  1  0
 48 49  2  0
 48 98  1  0
 49 99  1  0
 50 51  2  0
 50 55  1  0
 51 52  1  0
 51100  1  0
 52 53  2  0
 52101  1  0
 53 54  1  0
 53102  1  0
 54 55  2  0
 54103  1  0
 55104  1  0
 56 57  2  0
 56105  1  0
 57106  1  0
 58 59  2  0
 58107  1  0
M  END

