
     RDKit          3D

196200  0  0  0  0  0  0  0  0999 V2000
   -0.6450    2.3801    1.2809 C   0  0  0  0  0  0  0  0  0  0  0  0
    0.3583    2.3248    0.3038 O   0  0  0  0  0  0  0  0  0  0  0  0
    1.2884    3.3728    0.3816 C   0  0  0  0  0  0  0  0  0  0  0  0
    2.3061    3.1825   -0.7302 C   0  0  0  0  0  0  0  0  0  0  0  0
    3.2395    4.2310   -0.6545 O   0  0  0  0  0  0  0  0  0  0  0  0
    4.2478    4.1823   -1.6306 C   0  0  0  0  0  0  0  0  0  0  0  0
    5.1682    5.3718   -1.4154 C   0  0  0  0  0  0  0  0  0  0  0  0
    6.1781    5.3247   -2.3922 O   0  0  0  0  0  0  0  0  0  0  0  0
    7.1113    6.3707   -2.3161 C   0  0  0  0  0  0  0  0  0  0  0  0
    8.1239    6.1755   -3.4320 C   0  0  0  0  0  0  0  0  0  0  0  0
    9.0597    7.2246   -3.3645 O   0  0  0  0  0  0  0  0  0  0  0  0
   10.0608    7.1739   -4.3508 C   0  0  0  0  0  0  0  0  0  0  0  0
   11.0173    8.3385   -4.1017 C   0  0  1  0  0  0  0  0  0  0  0  0
   11.7551    8.2320   -2.7711 C   0  0  0  0  0  0  0  0  0  0  0  0
   12.4673    7.0200   -2.7280 O   0  0  0  0  0  0  0  0  0  0  0  0
   13.1958    6.8204   -1.5406 C   0  0  0  0  0  0  0  0  0  0  0  0
   13.9099    5.4828   -1.6379 C   0  0  0  0  0  0  0  0  0  0  0  0
   14.6160    5.2821   -0.4413 O   0  0  0  0  0  0  0  0  0  0  0  0
   15.3441    4.0808   -0.3891 C   0  0  0  0  0  0  0  0  0  0  0  0
   16.0504    4.0136    0.9545 C   0  0  0  0  0  0  0  0  0  0  0  0
   16.7744    2.8114    1.0037 O   0  0  0  0  0  0  0  0  0  0  0  0
   17.4892    2.6114    2.1977 C   0  0  0  0  0  0  0  0  0  0  0  0
   18.2186    1.2826    2.0961 C   0  0  0  0  0  0  0  0  0  0  0  0
   18.9287    1.0838    3.2901 O   0  0  0  0  0  0  0  0  0  0  0  0
   19.6552   -0.1142    3.3277 C   0  0  0  0  0  0  0  0  0  0  0  0
   11.9231    8.3354   -5.1967 O   0  0  0  0  0  0  0  0  0  0  0  0
   12.5980    9.4506   -5.5928 C   0  0  0  0  0  0  0  0  0  0  0  0
   12.2475   10.7463   -5.2189 C   0  0  0  0  0  0  0  0  0  0  0  0
   12.9333   11.8863   -5.6907 C   0  0  0  0  0  0  0  0  0  0  0  0
   12.6014   13.2440   -5.2766 C   0  0  0  0  0  0  0  0  0  0  0  0
   11.5175   13.6381   -4.5633 C   0  0  0  0  0  0  0  0  0  0  0  0
   11.2127   14.9994   -4.1340 C   0  0  0  0  0  0  0  0  0  0  0  0
   12.0550   16.1082   -4.3885 C   0  0  0  0  0  0  0  0  0  0  0  0
   11.7292   17.3862   -3.9624 C   0  0  0  0  0  0  0  0  0  0  0  0
   10.5305   17.6372   -3.2478 C   0  0  0  0  0  0  0  0  0  0  0  0
   10.0901   18.9325   -2.7546 C   0  0  0  0  0  0  0  0  0  0  0  0
   10.6741   20.1708   -2.7593 C   0  0  0  0  0  0  0  0  0  0  0  0
   11.9929   20.3867   -3.2819 C   0  0  0  0  0  0  0  0  0  0  0  0
   13.0606   20.6021   -3.6889 N   0  0  0  0  0  0  0  0  0  0  0  0
   10.0022   21.3764   -2.1999 C   0  0  0  0  0  0  0  0  0  0  0  0
   10.7596   22.4955   -1.8020 C   0  0  0  0  0  0  0  0  0  0  0  0
   10.1487   23.6229   -1.2556 C   0  0  0  0  0  0  0  0  0  0  0  0
    8.7595   23.6644   -1.1004 C   0  0  0  0  0  0  0  0  0  0  0  0
    8.0961   24.8585   -0.4627 C   0  0  1  0  0  0  0  0  0  0  0  0
    8.8113   25.9831   -0.6365 F   0  0  0  0  0  0  0  0  0  0  0  0
    6.8680   25.0756   -0.9676 F   0  0  0  0  0  0  0  0  0  0  0  0
    7.9460   24.6906    0.8663 F   0  0  0  0  0  0  0  0  0  0  0  0
    7.9885   22.5698   -1.5117 C   0  0  0  0  0  0  0  0  0  0  0  0
    8.6013   21.4456   -2.0576 C   0  0  0  0  0  0  0  0  0  0  0  0
    9.6870   16.5293   -2.9974 C   0  0  0  0  0  0  0  0  0  0  0  0
   10.0178   15.2505   -3.4248 C   0  0  0  0  0  0  0  0  0  0  0  0
   14.0085   11.6843   -6.5959 C   0  0  0  0  0  0  0  0  0  0  0  0
   14.6338   12.7973   -7.0699 O   0  0  0  0  0  0  0  0  0  0  0  0
   15.9401   12.7084   -7.6324 C   0  0  1  0  0  0  0  0  0  0  0  0
   15.8666   12.4779   -9.1460 C   0  0  0  0  0  0  0  0  0  0  0  0
   17.1051   11.9595   -9.5584 O   0  0  0  0  0  0  0  0  0  0  0  0
   17.2145   11.7323  -10.9448 C   0  0  0  0  0  0  0  0  0  0  0  0
   18.5196   11.0278  -11.2487 C   0  0  0  0  0  0  0  0  0  0  0  0
   18.4484    9.6893  -10.8309 O   0  0  0  0  0  0  0  0  0  0  0  0
   19.6358    8.9615  -11.0327 C   0  0  0  0  0  0  0  0  0  0  0  0
   19.3925    7.5197  -10.6181 C   0  0  0  0  0  0  0  0  0  0  0  0
   20.5860    6.8054  -10.8148 O   0  0  0  0  0  0  0  0  0  0  0  0
   20.4991    5.4342  -10.5005 C   0  0  0  0  0  0  0  0  0  0  0  0
   21.8495    4.8044  -10.7972 C   0  0  0  0  0  0  0  0  0  0  0  0
   21.8077    3.4459  -10.4287 O   0  0  0  0  0  0  0  0  0  0  0  0
   23.0288    2.7794  -10.6074 C   0  0  0  0  0  0  0  0  0  0  0  0
   16.6807   13.9896   -7.2923 C   0  0  0  0  0  0  0  0  0  0  0  0
   16.9215   14.0334   -5.9130 O   0  0  0  0  0  0  0  0  0  0  0  0
   17.6060   15.1843   -5.4816 C   0  0  0  0  0  0  0  0  0  0  0  0
   17.9135   15.0700   -4.0043 C   0  0  0  0  0  0  0  0  0  0  0  0
   18.9192   14.1103   -3.8052 O   0  0  0  0  0  0  0  0  0  0  0  0
   19.2269   13.8657   -2.4570 C   0  0  0  0  0  0  0  0  0  0  0  0
   20.3218   12.8136   -2.4076 C   0  0  0  0  0  0  0  0  0  0  0  0
   20.6317   12.5695   -1.0590 O   0  0  0  0  0  0  0  0  0  0  0  0
   21.6349   11.6062   -0.8585 C   0  0  0  0  0  0  0  0  0  0  0  0
   21.8546   11.4567    0.6373 C   0  0  0  0  0  0  0  0  0  0  0  0
   22.8564   10.4939    0.8373 O   0  0  0  0  0  0  0  0  0  0  0  0
   23.1589   10.2592    2.1852 C   0  0  0  0  0  0  0  0  0  0  0  0
   14.3609   10.3868   -6.9675 C   0  0  0  0  0  0  0  0  0  0  0  0
   13.6973    9.2456   -6.4741 C   0  0  0  0  0  0  0  0  0  0  0  0
   14.1978    7.9496   -6.9181 C   0  0  0  0  0  0  0  0  0  0  0  0
   13.9863    6.7098   -6.4086 C   0  0  0  0  0  0  0  0  0  0  0  0
   14.6257    5.5018   -6.9290 C   0  0  0  0  0  0  0  0  0  0  0  0
   15.1896    5.4278   -8.2240 C   0  0  0  0  0  0  0  0  0  0  0  0
   15.8658    4.3011   -8.6629 C   0  0  0  0  0  0  0  0  0  0  0  0
   16.0219    3.1700   -7.8248 C   0  0  0  0  0  0  0  0  0  0  0  0
   16.7953    1.9823   -8.1565 C   0  0  0  0  0  0  0  0  0  0  0  0
   17.5635    1.6689   -9.2443 C   0  0  0  0  0  0  0  0  0  0  0  0
   17.7032    2.5427  -10.3723 C   0  0  0  0  0  0  0  0  0  0  0  0
   17.8336    3.2155  -11.3118 N   0  0  0  0  0  0  0  0  0  0  0  0
   18.3450    0.4036   -9.3293 C   0  0  0  0  0  0  0  0  0  0  0  0
   17.8630   -0.7963   -8.7737 C   0  0  0  0  0  0  0  0  0  0  0  0
   18.6158   -1.9671   -8.8384 C   0  0  0  0  0  0  0  0  0  0  0  0
   19.8657   -1.9641   -9.4691 C   0  0  0  0  0  0  0  0  0  0  0  0
   20.7023   -3.2179   -9.4949 C   0  0  1  0  0  0  0  0  0  0  0  0
   19.9419   -4.3272   -9.5212 F   0  0  0  0  0  0  0  0  0  0  0  0
   21.5147   -3.2574  -10.5657 F   0  0  0  0  0  0  0  0  0  0  0  0
   21.4895   -3.3113   -8.4041 F   0  0  0  0  0  0  0  0  0  0  0  0
   20.3502   -0.7809  -10.0387 C   0  0  0  0  0  0  0  0  0  0  0  0
   19.5980    0.3906   -9.9727 C   0  0  0  0  0  0  0  0  0  0  0  0
   15.4090    3.2220   -6.5508 C   0  0  0  0  0  0  0  0  0  0  0  0
   14.7215    4.3500   -6.1185 C   0  0  0  0  0  0  0  0  0  0  0  0
   -1.3127    1.5194    1.1283 H   0  0  0  0  0  0  0  0  0  0  0  0
   -1.2460    3.3097    1.2082 H   0  0  0  0  0  0  0  0  0  0  0  0
   -0.2292    2.3258    2.3081 H   0  0  0  0  0  0  0  0  0  0  0  0
    1.8104    3.3824    1.3614 H   0  0  0  0  0  0  0  0  0  0  0  0
    0.7979    4.3621    0.2670 H   0  0  0  0  0  0  0  0  0  0  0  0
    1.7854    3.1748   -1.7096 H   0  0  0  0  0  0  0  0  0  0  0  0
    2.7975    2.1948   -0.6154 H   0  0  0  0  0  0  0  0  0  0  0  0
    3.8234    4.2243   -2.6548 H   0  0  0  0  0  0  0  0  0  0  0  0
    4.8351    3.2437   -1.5608 H   0  0  0  0  0  0  0  0  0  0  0  0
    5.5936    5.3296   -0.3919 H   0  0  0  0  0  0  0  0  0  0  0  0
    4.5816    6.3106   -1.4857 H   0  0  0  0  0  0  0  0  0  0  0  0
    7.6341    6.3770   -1.3375 H   0  0  0  0  0  0  0  0  0  0  0  0
    6.6221    7.3600   -2.4297 H   0  0  0  0  0  0  0  0  0  0  0  0
    7.5991    6.1674   -4.4086 H   0  0  0  0  0  0  0  0  0  0  0  0
    8.6167    5.1892   -3.3176 H   0  0  0  0  0  0  0  0  0  0  0  0
    9.6333    7.2772   -5.3675 H   0  0  0  0  0  0  0  0  0  0  0  0
   10.6171    6.2189   -4.3096 H   0  0  0  0  0  0  0  0  0  0  0  0
   10.4093    9.2585   -4.0840 H   0  0  0  0  0  0  0  0  0  0  0  0
   11.0070    8.2825   -1.9559 H   0  0  0  0  0  0  0  0  0  0  0  0
   12.4417    9.0947   -2.6558 H   0  0  0  0  0  0  0  0  0  0  0  0
   12.5281    6.8172   -0.6554 H   0  0  0  0  0  0  0  0  0  0  0  0
   13.9409    7.6265   -1.3857 H   0  0  0  0  0  0  0  0  0  0  0  0
   14.5920    5.4889   -2.5130 H   0  0  0  0  0  0  0  0  0  0  0  0
   13.1652    4.6779   -1.8084 H   0  0  0  0  0  0  0  0  0  0  0  0
   16.0950    4.0279   -1.2037 H   0  0  0  0  0  0  0  0  0  0  0  0
   14.6789    3.2001   -0.5009 H   0  0  0  0  0  0  0  0  0  0  0  0
   15.2998    4.0690    1.7696 H   0  0  0  0  0  0  0  0  0  0  0  0
   16.7166    4.8934    1.0659 H   0  0  0  0  0  0  0  0  0  0  0  0
   16.8122    2.5944    3.0761 H   0  0  0  0  0  0  0  0  0  0  0  0
   18.2246    3.4238    2.3693 H   0  0  0  0  0  0  0  0  0  0  0  0
   18.8966    1.3006    1.2172 H   0  0  0  0  0  0  0  0  0  0  0  0
   17.4824    0.4706    1.9200 H   0  0  0  0  0  0  0  0  0  0  0  0
   20.1689   -0.1672    4.2989 H   0  0  0  0  0  0  0  0  0  0  0  0
   20.4171   -0.1644    2.5229 H   0  0  0  0  0  0  0  0  0  0  0  0
   18.9984   -1.0027    3.2275 H   0  0  0  0  0  0  0  0  0  0  0  0
   11.4237   10.8989   -4.5241 H   0  0  0  0  0  0  0  0  0  0  0  0
   13.3298   13.9918   -5.5952 H   0  0  0  0  0  0  0  0  0  0  0  0
   10.7701   12.8929   -4.2713 H   0  0  0  0  0  0  0  0  0  0  0  0
   12.9896   15.9637   -4.9333 H   0  0  0  0  0  0  0  0  0  0  0  0
   12.4161   18.2002   -4.1880 H   0  0  0  0  0  0  0  0  0  0  0  0
    9.1097   18.8932   -2.2726 H   0  0  0  0  0  0  0  0  0  0  0  0
   11.8450   22.4818   -1.9183 H   0  0  0  0  0  0  0  0  0  0  0  0
   10.7564   24.4776   -0.9536 H   0  0  0  0  0  0  0  0  0  0  0  0
    6.9011   22.6069   -1.4229 H   0  0  0  0  0  0  0  0  0  0  0  0
    7.9726   20.6238   -2.4040 H   0  0  0  0  0  0  0  0  0  0  0  0
    8.7522   16.6860   -2.4521 H   0  0  0  0  0  0  0  0  0  0  0  0
    9.3404   14.4194   -3.2107 H   0  0  0  0  0  0  0  0  0  0  0  0
   16.4912   11.8686   -7.1782 H   0  0  0  0  0  0  0  0  0  0  0  0
   15.6294   13.4293   -9.6681 H   0  0  0  0  0  0  0  0  0  0  0  0
   15.0418   11.7755   -9.3754 H   0  0  0  0  0  0  0  0  0  0  0  0
   17.1812   12.6919  -11.5018 H   0  0  0  0  0  0  0  0  0  0  0  0
   16.3746   11.1064  -11.3077 H   0  0  0  0  0  0  0  0  0  0  0  0
   19.3475   11.5627  -10.7391 H   0  0  0  0  0  0  0  0  0  0  0  0
   18.7110   11.0903  -12.3412 H   0  0  0  0  0  0  0  0  0  0  0  0
   20.4723    9.3818  -10.4378 H   0  0  0  0  0  0  0  0  0  0  0  0
   19.9485    8.9878  -12.0971 H   0  0  0  0  0  0  0  0  0  0  0  0
   18.5633    7.0963  -11.2204 H   0  0  0  0  0  0  0  0  0  0  0  0
   19.0720    7.4896   -9.5562 H   0  0  0  0  0  0  0  0  0  0  0  0
   19.7089    4.9337  -11.0910 H   0  0  0  0  0  0  0  0  0  0  0  0
   20.2536    5.2838   -9.4288 H   0  0  0  0  0  0  0  0  0  0  0  0
   22.6365    5.3450  -10.2317 H   0  0  0  0  0  0  0  0  0  0  0  0
   22.0858    4.9211  -11.8749 H   0  0  0  0  0  0  0  0  0  0  0  0
   22.8965    1.7368  -10.2821 H   0  0  0  0  0  0  0  0  0  0  0  0
   23.8403    3.2343  -10.0039 H   0  0  0  0  0  0  0  0  0  0  0  0
   23.3531    2.7805  -11.6680 H   0  0  0  0  0  0  0  0  0  0  0  0
   16.0739   14.8595   -7.6232 H   0  0  0  0  0  0  0  0  0  0  0  0
   17.6268   13.9997   -7.8701 H   0  0  0  0  0  0  0  0  0  0  0  0
   16.9942   16.0951   -5.6540 H   0  0  0  0  0  0  0  0  0  0  0  0
   18.5560   15.3121   -6.0397 H   0  0  0  0  0  0  0  0  0  0  0  0
   16.9863   14.7932   -3.4618 H   0  0  0  0  0  0  0  0  0  0  0  0
   18.2338   16.0642   -3.6262 H   0  0  0  0  0  0  0  0  0  0  0  0
   18.3402   13.5020   -1.8984 H   0  0  0  0  0  0  0  0  0  0  0  0
   19.5772   14.7867   -1.9457 H   0  0  0  0  0  0  0  0  0  0  0  0
   21.2083   13.1762   -2.9673 H   0  0  0  0  0  0  0  0  0  0  0  0
   19.9707   11.8926   -2.9162 H   0  0  0  0  0  0  0  0  0  0  0  0
   22.5867   11.9059   -1.3430 H   0  0  0  0  0  0  0  0  0  0  0  0
   21.3463   10.6254   -1.2889 H   0  0  0  0  0  0  0  0  0  0  0  0
   20.9013   11.1585    1.1217 H   0  0  0  0  0  0  0  0  0  0  0  0
   22.1424   12.4388    1.0674 H   0  0  0  0  0  0  0  0  0  0  0  0
   23.9489    9.4949    2.2261 H   0  0  0  0  0  0  0  0  0  0  0  0
   22.2797    9.8877    2.7508 H   0  0  0  0  0  0  0  0  0  0  0  0
   23.5265   11.1735    2.6949 H   0  0  0  0  0  0  0  0  0  0  0  0
   15.1885   10.2229   -7.6574 H   0  0  0  0  0  0  0  0  0  0  0  0
   14.9025    8.0331   -7.7522 H   0  0  0  0  0  0  0  0  0  0  0  0
   13.3693    6.5948   -5.5164 H   0  0  0  0  0  0  0  0  0  0  0  0
   15.0864    6.2725   -8.9076 H   0  0  0  0  0  0  0  0  0  0  0  0
   16.2811    4.3045   -9.6686 H   0  0  0  0  0  0  0  0  0  0  0  0
   16.8033    1.2297   -7.3623 H   0  0  0  0  0  0  0  0  0  0  0  0
   16.8741   -0.8236   -8.3114 H   0  0  0  0  0  0  0  0  0  0  0  0
   18.2218   -2.8934   -8.4162 H   0  0  0  0  0  0  0  0  0  0  0  0
   21.3199   -0.7770  -10.5398 H   0  0  0  0  0  0  0  0  0  0  0  0
   19.9977    1.3132  -10.4016 H   0  0  0  0  0  0  0  0  0  0  0  0
   15.4933    2.3582   -5.8854 H   0  0  0  0  0  0  0  0  0  0  0  0
   14.2721    4.3620   -5.1220 H   0  0  0  0  0  0  0  0  0  0  0  0
  1  2  1  0
  1103  1  0
  1104  1  0
  1105  1  0
  2  3  1  0
  3  4  1  0
  3106  1  0
  3107  1  0
  4  5  1  0
  4108  1  0
  4109  1  0
  5  6  1  0
  6  7  1  0
  6110  1  0
  6111  1  0
  7  8  1  0
  7112  1  0
  7113  1  0
  8  9  1  0
  9 10  1  0
  9114  1  0
  9115  1  0
 10 11  1  0
 10116  1  0
 10117  1  0
 11 12  1  0
 12 13  1  0
 12118  1  0
 12119  1  0
 13 14  1  0
 13 26  1  0
 13120  1  1
 14 15  1  0
 14121  1  0
 14122  1  0
 15 16  1  0
 16 17  1  0
 16123  1  0
 16124  1  0
 17 18  1  0
 17125  1  0
 17126  1  0
 18 19  1  0
 19 20  1  0
 19127  1  0
 19128  1  0
 20 21  1  0
 20129  1  0
 20130  1  0
 21 22  1  0
 22 23  1  0
 22131  1  0
 22132  1  0
 23 24  1  0
 23133  1  0
 23134  1  0
 24 25  1  0
 25135  1  0
 25136  1  0
 25137  1  0
 26 27  1  0
 27 28  2  0
 27 80  1  0
 28 29  1  0
 28138  1  0
 29 30  1  0
 29 52  2  0
 30 31  2  0
 30139  1  0
 31 32  1  0
 31140  1  0
 32 33  2  0
 32 51  1  0
 33 34  1  0
 33141  1  0
 34 35  2  0
 34142  1  0
 35 36  1  0
 35 50  1  0
 36 37  2  0
 36143  1  0
 37 38  1  0
 37 40  1  0
 38 39  3  0
 40 41  2  0
 40 49  1  0
 41 42  1  0
 41144  1  0
 42 43  2  0
 42145  1  0
 43 44  1  0
 43 48  1  0
 44 45  1  1
 44 46  1  0
 44 47  1  0
 48 49  2  0
 48146  1  0
 49147  1  0
 50 51  2  0
 50148  1  0
 51149  1  0
 52 53  1  0
 52 79  1  0
 53 54  1  0
 54 55  1  0
 54 67  1  0
 54150  1  1
 55 56  1  0
 55151  1  0
 55152  1  0
 56 57  1  0
 57 58  1  0
 57153  1  0
 57154  1  0
 58 59  1  0
 58155  1  0
 58156  1  0
 59 60  1  0
 60 61  1  0
 60157  1  0
 60158  1  0
 61 62  1  0
 61159  1  0
 61160  1  0
 62 63  1  0
 63 64  1  0
 63161  1  0
 63162  1  0
 64 65  1  0
 64163  1  0
 64164  1  0
 65 66  1  0
 66165  1  0
 66166  1  0
 66167  1  0
 67 68  1  0
 67168  1  0
 67169  1  0
 68 69  1  0
 69 70  1  0
 69170  1  0
 69171  1  0
 70 71  1  0
 70172  1  0
 70173  1  0
 71 72  1  0
 72 73  1  0
 72174  1  0
 72175  1  0
 73 74  1  0
 73176  1  0
 73177  1  0
 74 75  1  0
 75 76  1  0
 75178  1  0
 75179  1  0
 76 77  1  0
 76180  1  0
 76181  1  0
 77 78  1  0
 78182  1  0
 78183  1  0
 78184  1  0
 79 80  2  0
 79185  1  0
 80 81  1  0
 81 82  2  0
 81186  1  0
 82 83  1  0
 82187  1  0
 83 84  2  0
 83102  1  0
 84 85  1  0
 84188  1  0
 85 86  2  0
 85189  1  0
 86 87  1  0
 86101  1  0
 87 88  2  0
 87190  1  0
 88 89  1  0
 88 91  1  0
 89 90  3  0
 91 92  2  0
 91100  1  0
 92 93  1  0
 92191  1  0
 93 94  2  0
 93192  1  0
 94 95  1  0
 94 99  1  0
 95 96  1  6
 95 97  1  0
 95 98  1  0
 99100  2  0
 99193  1  0
100194  1  0
101102  2  0
101195  1  0
102196  1  0
M  END

