
     RDKit          3D

 65 70  0  0  0  0  0  0  0  0999 V2000
   14.1194   -6.5960    0.6845 C   0  0  0  0  0  0  0  0  0  0  0  0
   13.6823   -7.9669    0.2259 C   0  0  0  0  0  0  0  0  0  0  0  0
   14.6138   -8.9396   -0.1658 C   0  0  0  0  0  0  0  0  0  0  0  0
   14.1827  -10.2030   -0.5797 C   0  0  0  0  0  0  0  0  0  0  0  0
   12.8276  -10.5331   -0.6165 C   0  0  0  0  0  0  0  0  0  0  0  0
   11.8839   -9.5660   -0.2266 C   0  0  0  0  0  0  0  0  0  0  0  0
   10.4948   -9.8032   -0.2309 N   0  0  0  0  0  0  0  0  0  0  0  0
    9.8167  -10.9330   -0.5806 C   0  0  0  0  0  0  0  0  0  0  0  0
   10.2990  -11.9813   -0.9676 O   0  0  0  0  0  0  0  0  0  0  0  0
    8.2927  -10.8223   -0.4653 C   0  0  0  0  0  0  0  0  0  0  0  0
    7.9006   -9.5671    0.0527 O   0  0  0  0  0  0  0  0  0  0  0  0
    6.5780   -9.2753    0.2192 C   0  0  0  0  0  0  0  0  0  0  0  0
    6.2802   -7.9976    0.7158 C   0  0  0  0  0  0  0  0  0  0  0  0
    4.9509   -7.6263    0.8986 C   0  0  0  0  0  0  0  0  0  0  0  0
    3.9105   -8.5114    0.5957 C   0  0  0  0  0  0  0  0  0  0  0  0
    4.2008   -9.7923    0.1074 C   0  0  0  0  0  0  0  0  0  0  0  0
    3.0539  -10.7626   -0.2001 C   0  0  1  0  0  0  0  0  0  0  0  0
    3.3792  -11.8021   -1.2503 C   0  0  0  0  0  0  0  0  0  0  0  0
    3.5200  -11.3791   -2.9675 S   0  0  0  0  0  0  0  0  0  0  0  0
    3.8496  -13.1024   -3.4264 C   0  0  0  0  0  0  0  0  0  0  0  0
    4.0474  -13.5266   -4.5343 O   0  0  0  0  0  0  0  0  0  0  0  0
    3.8374  -13.8321   -2.2487 N   0  0  0  0  0  0  0  0  0  0  0  0
    4.0341  -14.8277   -2.2851 H   0  0  0  0  0  0  0  0  0  0  0  0
    3.5854  -13.1368   -1.0724 C   0  0  0  0  0  0  0  0  0  0  0  0
    3.5688  -14.0800    0.4372 S   0  0  0  0  0  0  0  0  0  0  0  0
    3.5298  -12.6094    1.5135 C   0  0  2  0  0  0  0  0  0  0  0  0
    3.1174  -12.8685    2.9541 C   0  0  0  0  0  0  0  0  0  0  0  0
    3.3655  -13.8309    3.6301 O   0  0  0  0  0  0  0  0  0  0  0  0
    2.4225  -11.7129    3.3735 N   0  0  0  0  0  0  0  0  0  0  0  0
    2.0195  -11.4816    4.7252 C   0  0  0  0  0  0  0  0  0  0  0  0
    2.8797  -11.8192    5.7791 C   0  0  0  0  0  0  0  0  0  0  0  0
    2.4764  -11.6033    7.0976 C   0  0  0  0  0  0  0  0  0  0  0  0
    1.2290  -11.0434    7.3758 C   0  0  0  0  0  0  0  0  0  0  0  0
    0.3788  -10.7002    6.3187 C   0  0  0  0  0  0  0  0  0  0  0  0
   -0.9503  -10.0437    6.6089 C   0  0  1  0  0  0  0  0  0  0  0  0
   -1.4917  -10.5068    7.7490 F   0  0  0  0  0  0  0  0  0  0  0  0
   -0.8214   -8.7114    6.7491 F   0  0  0  0  0  0  0  0  0  0  0  0
   -1.8389  -10.2527    5.6227 F   0  0  0  0  0  0  0  0  0  0  0  0
    0.7638  -10.9233    4.9946 C   0  0  0  0  0  0  0  0  0  0  0  0
    2.1393  -10.8318    2.3017 C   0  0  0  0  0  0  0  0  0  0  0  0
    1.5948   -9.7638    2.4049 O   0  0  0  0  0  0  0  0  0  0  0  0
    2.5487  -11.5535    1.0233 C   0  0  1  0  0  0  0  0  0  0  0  0
    5.5418  -10.1695   -0.0838 C   0  0  0  0  0  0  0  0  0  0  0  0
   12.3214   -8.2976    0.1885 C   0  0  0  0  0  0  0  0  0  0  0  0
   15.2072   -6.4670    0.5873 H   0  0  0  0  0  0  0  0  0  0  0  0
   13.8553   -6.4241    1.7418 H   0  0  0  0  0  0  0  0  0  0  0  0
   13.6316   -5.8004    0.0974 H   0  0  0  0  0  0  0  0  0  0  0  0
   15.6814   -8.7052   -0.1469 H   0  0  0  0  0  0  0  0  0  0  0  0
   14.9184  -10.9523   -0.8835 H   0  0  0  0  0  0  0  0  0  0  0  0
   12.4889  -11.5148   -0.9391 H   0  0  0  0  0  0  0  0  0  0  0  0
    9.9044   -9.0344    0.0715 H   0  0  0  0  0  0  0  0  0  0  0  0
    7.9557  -11.6519    0.1816 H   0  0  0  0  0  0  0  0  0  0  0  0
    7.8736  -10.9923   -1.4734 H   0  0  0  0  0  0  0  0  0  0  0  0
    7.0997   -7.3128    0.9421 H   0  0  0  0  0  0  0  0  0  0  0  0
    4.7188   -6.6287    1.2795 H   0  0  0  0  0  0  0  0  0  0  0  0
    2.8732   -8.2116    0.7526 H   0  0  0  0  0  0  0  0  0  0  0  0
    2.2070  -10.1565   -0.5612 H   0  0  0  0  0  0  0  0  0  0  0  0
    4.5485  -12.1847    1.5532 H   0  0  0  0  0  0  0  0  0  0  0  0
    3.8524  -12.2635    5.5712 H   0  0  0  0  0  0  0  0  0  0  0  0
    3.1459  -11.8771    7.9160 H   0  0  0  0  0  0  0  0  0  0  0  0
    0.9123  -10.8782    8.4070 H   0  0  0  0  0  0  0  0  0  0  0  0
    0.0916  -10.6553    4.1820 H   0  0  0  0  0  0  0  0  0  0  0  0
    1.6240  -12.0744    0.7107 H   0  0  0  0  0  0  0  0  0  0  0  0
    5.7625  -11.1516   -0.4999 H   0  0  0  0  0  0  0  0  0  0  0  0
   11.5796   -7.5499    0.4891 H   0  0  0  0  0  0  0  0  0  0  0  0
  1  2  1  0
  1 45  1  0
  1 46  1  0
  1 47  1  0
  2  3  2  0
  2 44  1  0
  3  4  1  0
  3 48  1  0
  4  5  2  0
  4 49  1  0
  5  6  1  0
  5 50  1  0
  6  7  1  0
  6 44  2  0
  7  8  1  0
  7 51  1  0
  8  9  2  0
  8 10  1  0
 10 11  1  0
 10 52  1  0
 10 53  1  0
 11 12  1  0
 12 13  2  0
 12 43  1  0
 13 14  1  0
 13 54  1  0
 14 15  2  0
 14 55  1  0
 15 16  1  0
 15 56  1  0
 16 17  1  0
 16 43  2  0
 17 18  1  0
 17 42  1  0
 17 57  1  6
 18 19  1  0
 18 24  2  0
 19 20  2  0
 20 21  1  0
 20 22  1  0
 22 23  1  0
 22 24  1  0
 24 25  1  0
 25 26  1  0
 26 27  1  0
 26 42  1  0
 26 58  1  1
 27 28  2  0
 27 29  1  0
 29 30  1  0
 29 40  1  0
 30 31  2  0
 30 39  1  0
 31 32  1  0
 31 59  1  0
 32 33  2  0
 32 60  1  0
 33 34  1  0
 33 61  1  0
 34 35  1  0
 34 39  2  0
 35 36  1  1
 35 37  1  0
 35 38  1  0
 39 62  1  0
 40 41  2  0
 40 42  1  0
 42 63  1  6
 43 64  1  0
 44 65  1  0
M  CHG  2  19   1  21  -1
M  END

