
     RDKit          3D

 25 27  0  0  0  0  0  0  0  0999 V2000
    1.0607    0.0113    1.2536 Cl  0  0  0  0  0  0  0  0  0  0  0  0
    2.6120   -0.0744    0.4209 C   0  0  0  0  0  0  0  0  0  0  0  0
    3.3320    1.1143    0.2804 C   0  0  0  0  0  0  0  0  0  0  0  0
    4.5959    1.0896   -0.3105 C   0  0  0  0  0  0  0  0  0  0  0  0
    5.1355   -0.1231   -0.7493 C   0  0  0  0  0  0  0  0  0  0  0  0
    4.4028   -1.3002   -0.6134 C   0  0  0  0  0  0  0  0  0  0  0  0
    3.1156   -1.3065   -0.0387 C   0  0  0  0  0  0  0  0  0  0  0  0
    2.4456   -2.6123    0.1043 C   0  0  0  0  0  0  0  0  0  0  0  0
    3.0549   -3.6959    0.5468 N   0  0  0  0  0  0  0  0  0  0  0  0
    2.1985   -4.7476    0.4486 N   0  0  0  0  0  0  0  0  0  0  0  0
    1.0726   -4.2941   -0.0584 C   0  0  0  0  0  0  0  0  0  0  0  0
    1.1612   -2.9442   -0.2813 N   0  0  0  0  0  0  0  0  0  0  0  0
    0.2458   -2.1600   -1.0148 N   0  0  0  0  0  0  0  0  0  0  0  0
   -1.1296   -2.6382   -0.8661 C   0  0  0  0  0  0  0  0  0  0  0  0
   -1.2722   -4.0596   -1.3949 C   0  0  0  0  0  0  0  0  0  0  0  0
   -0.3663   -5.2674   -0.3472 S   0  0  0  0  0  0  0  0  0  0  0  0
    2.9021    2.0461    0.6510 H   0  0  0  0  0  0  0  0  0  0  0  0
    5.1592    2.0195   -0.4178 H   0  0  0  0  0  0  0  0  0  0  0  0
    6.1292   -0.1521   -1.2019 H   0  0  0  0  0  0  0  0  0  0  0  0
    4.8133   -2.2545   -0.9471 H   0  0  0  0  0  0  0  0  0  0  0  0
    0.3089   -1.2161   -0.6319 H   0  0  0  0  0  0  0  0  0  0  0  0
   -1.7493   -1.9569   -1.4707 H   0  0  0  0  0  0  0  0  0  0  0  0
   -1.4902   -2.5943    0.1807 H   0  0  0  0  0  0  0  0  0  0  0  0
   -0.9125   -4.1202   -2.4331 H   0  0  0  0  0  0  0  0  0  0  0  0
   -2.3229   -4.3809   -1.3654 H   0  0  0  0  0  0  0  0  0  0  0  0
  1  2  1  0
  2  3  2  0
  2  7  1  0
  3  4  1  0
  3 17  1  0
  4  5  2  0
  4 18  1  0
  5  6  1  0
  5 19  1  0
  6  7  2  0
  6 20  1  0
  7  8  1  0
  8  9  2  0
  8 12  1  0
  9 10  1  0
 10 11  2  0
 11 12  1  0
 11 16  1  0
 12 13  1  0
 13 14  1  0
 13 21  1  0
 14 15  1  0
 14 22  1  0
 14 23  1  0
 15 16  1  0
 15 24  1  0
 15 25  1  0
M  END

