
     RDKit          3D

 43 43  0  0  0  0  0  0  0  0999 V2000
   10.8007   -2.0713    0.0732 C   0  0  0  0  0  0  0  0  0  0  0  0
    9.8596   -1.0642    0.4471 O   0  0  0  0  0  0  0  0  0  0  0  0
    8.6405   -1.1383   -0.1240 C   0  0  0  0  0  0  0  0  0  0  0  0
    8.3379   -1.9760   -0.9353 O   0  0  0  0  0  0  0  0  0  0  0  0
    7.7377   -0.0064    0.3574 C   0  0  2  0  0  0  0  0  0  0  0  0
    6.7316   -0.2945    0.0207 H   0  0  0  0  0  0  0  0  0  0  0  0
    8.1398    1.3106   -0.3384 C   0  0  0  0  0  0  0  0  0  0  0  0
    7.7561    0.0140    1.8179 N   0  0  0  0  0  0  0  0  0  0  0  0
    6.8078    0.8971    2.5046 C   0  0  1  0  0  0  0  0  0  0  0  0
    5.3577    0.4154    2.3258 C   0  0  0  0  0  0  0  0  0  0  0  0
    7.1849    0.9938    3.9700 C   0  0  0  0  0  0  0  0  0  0  0  0
    7.3222    2.5568    4.7303 S   0  0  0  0  0  0  0  0  0  0  0  0
    7.6903    1.7750    6.2580 C   0  0  0  0  0  0  0  0  0  0  0  0
    7.9665    2.5389    7.5475 C   0  0  1  0  0  0  0  0  0  0  0  0
    6.9232    2.0990    8.5985 C   0  0  0  0  0  0  0  0  0  0  0  0
    9.3824    2.1608    8.0358 C   0  0  0  0  0  0  0  0  0  0  0  0
    7.8794    4.0590    7.3337 C   0  0  0  0  0  0  0  0  0  0  0  0
    7.7052    0.4780    6.1742 N   0  0  0  0  0  0  0  0  0  0  0  0
    7.4237    0.0111    4.9101 C   0  0  0  0  0  0  0  0  0  0  0  0
    7.3901   -1.4748    4.6891 C   0  0  0  0  0  0  0  0  0  0  0  0
   11.7220   -1.8519    0.6269 H   0  0  0  0  0  0  0  0  0  0  0  0
   10.9901   -2.0457   -1.0106 H   0  0  0  0  0  0  0  0  0  0  0  0
   10.4261   -3.0717    0.3373 H   0  0  0  0  0  0  0  0  0  0  0  0
    7.4492    2.1255   -0.0731 H   0  0  0  0  0  0  0  0  0  0  0  0
    8.1144    1.1975   -1.4339 H   0  0  0  0  0  0  0  0  0  0  0  0
    9.1588    1.6087   -0.0447 H   0  0  0  0  0  0  0  0  0  0  0  0
    8.7037    0.1913    2.1468 H   0  0  0  0  0  0  0  0  0  0  0  0
    6.8516    1.9314    2.1008 H   0  0  0  0  0  0  0  0  0  0  0  0
    5.2352   -0.6061    2.7157 H   0  0  0  0  0  0  0  0  0  0  0  0
    5.0591    0.4166    1.2656 H   0  0  0  0  0  0  0  0  0  0  0  0
    4.6693    1.0822    2.8662 H   0  0  0  0  0  0  0  0  0  0  0  0
    6.9559    1.0092    8.7403 H   0  0  0  0  0  0  0  0  0  0  0  0
    5.9036    2.3709    8.2819 H   0  0  0  0  0  0  0  0  0  0  0  0
    7.1239    2.5880    9.5658 H   0  0  0  0  0  0  0  0  0  0  0  0
    9.4665    1.0723    8.1661 H   0  0  0  0  0  0  0  0  0  0  0  0
    9.5991    2.6503    8.9994 H   0  0  0  0  0  0  0  0  0  0  0  0
   10.1489    2.4774    7.3105 H   0  0  0  0  0  0  0  0  0  0  0  0
    6.8780    4.3645    6.9901 H   0  0  0  0  0  0  0  0  0  0  0  0
    8.6172    4.4084    6.5936 H   0  0  0  0  0  0  0  0  0  0  0  0
    8.0818    4.5853    8.2797 H   0  0  0  0  0  0  0  0  0  0  0  0
    8.2611   -1.9431    5.1740 H   0  0  0  0  0  0  0  0  0  0  0  0
    7.3976   -1.7181    3.6198 H   0  0  0  0  0  0  0  0  0  0  0  0
    6.4918   -1.9155    5.1547 H   0  0  0  0  0  0  0  0  0  0  0  0
  1  2  1  0
  1 21  1  0
  1 22  1  0
  1 23  1  0
  2  3  1  0
  3  4  2  0
  3  5  1  0
  5  6  1  1
  5  7  1  0
  5  8  1  0
  7 24  1  0
  7 25  1  0
  7 26  1  0
  8  9  1  0
  8 27  1  0
  9 10  1  0
  9 11  1  0
  9 28  1  6
 10 29  1  0
 10 30  1  0
 10 31  1  0
 11 12  1  0
 11 19  2  0
 12 13  1  0
 13 14  1  0
 13 18  2  0
 14 15  1  1
 14 16  1  0
 14 17  1  0
 15 32  1  0
 15 33  1  0
 15 34  1  0
 16 35  1  0
 16 36  1  0
 16 37  1  0
 17 38  1  0
 17 39  1  0
 17 40  1  0
 18 19  1  0
 19 20  1  0
 20 41  1  0
 20 42  1  0
 20 43  1  0
M  END

