
     RDKit          3D

 46 49  0  0  0  0  0  0  0  0999 V2000
    1.5779   -0.7195    0.3553 N   0  0  0  0  0  0  0  0  0  0  0  0
    2.6258    0.1592    0.1441 C   0  0  0  0  0  0  0  0  0  0  0  0
    3.2780    0.7896    1.0637 N   0  0  0  0  0  0  0  0  0  0  0  0
    2.8922    0.6264    2.4496 C   0  0  0  0  0  0  0  0  0  0  0  0
    1.6006    1.3195    2.8159 C   0  0  0  0  0  0  0  0  0  0  0  0
    0.4293    0.7579    2.6912 N   0  0  0  0  0  0  0  0  0  0  0  0
   -0.6140    1.5684    2.9936 N   0  0  0  0  0  0  0  0  0  0  0  0
   -0.2509    2.7669    3.3574 C   0  0  0  0  0  0  0  0  0  0  0  0
   -1.1878    3.8393    3.7544 C   0  0  1  0  0  0  0  0  0  0  0  0
   -2.5619    3.8965    3.1099 C   0  0  0  0  0  0  0  0  0  0  0  0
   -2.4380    3.4763    4.5395 C   0  0  0  0  0  0  0  0  0  0  0  0
    1.4885    2.9840    3.3422 S   0  0  0  0  0  0  0  0  0  0  0  0
    3.0048    0.3397   -1.1896 N   0  0  0  0  0  0  0  0  0  0  0  0
    2.9228   -0.7507   -2.1541 C   0  0  0  0  0  0  0  0  0  0  0  0
    2.8409   -0.1995   -3.5749 C   0  0  0  0  0  0  0  0  0  0  0  0
    3.9580    0.6959   -3.8591 N   0  0  0  0  0  0  0  0  0  0  0  0
    4.2615    0.9731   -5.2069 C   0  0  0  0  0  0  0  0  0  0  0  0
    4.4796    2.2852   -5.6761 C   0  0  0  0  0  0  0  0  0  0  0  0
    4.8252    2.5323   -7.0087 C   0  0  0  0  0  0  0  0  0  0  0  0
    4.9381    1.4701   -7.8964 C   0  0  0  0  0  0  0  0  0  0  0  0
    5.2627    1.7040   -9.1804 F   0  0  0  0  0  0  0  0  0  0  0  0
    4.7212    0.1605   -7.4707 C   0  0  0  0  0  0  0  0  0  0  0  0
    4.3937   -0.0816   -6.1388 C   0  0  0  0  0  0  0  0  0  0  0  0
    4.0638    1.7682   -2.8803 C   0  0  0  0  0  0  0  0  0  0  0  0
    4.1379    1.2151   -1.4589 C   0  0  0  0  0  0  0  0  0  0  0  0
    1.0496   -0.5638    1.2164 H   0  0  0  0  0  0  0  0  0  0  0  0
    0.9556   -0.8577   -0.4329 H   0  0  0  0  0  0  0  0  0  0  0  0
    3.6998    1.0274    3.0822 H   0  0  0  0  0  0  0  0  0  0  0  0
    2.7642   -0.4372    2.7350 H   0  0  0  0  0  0  0  0  0  0  0  0
   -0.7111    4.7926    3.9948 H   0  0  0  0  0  0  0  0  0  0  0  0
   -2.7770    3.1205    2.3710 H   0  0  0  0  0  0  0  0  0  0  0  0
   -2.9663    4.8866    2.8816 H   0  0  0  0  0  0  0  0  0  0  0  0
   -2.5692    2.4158    4.7692 H   0  0  0  0  0  0  0  0  0  0  0  0
   -2.7538    4.1684    5.3251 H   0  0  0  0  0  0  0  0  0  0  0  0
    2.0423   -1.3786   -1.9672 H   0  0  0  0  0  0  0  0  0  0  0  0
    3.8134   -1.4087   -2.0721 H   0  0  0  0  0  0  0  0  0  0  0  0
    1.8714    0.3323   -3.6972 H   0  0  0  0  0  0  0  0  0  0  0  0
    2.8439   -1.0405   -4.2800 H   0  0  0  0  0  0  0  0  0  0  0  0
    4.3717    3.1368   -5.0051 H   0  0  0  0  0  0  0  0  0  0  0  0
    4.9945    3.5504   -7.3658 H   0  0  0  0  0  0  0  0  0  0  0  0
    4.8280   -0.6598   -8.1836 H   0  0  0  0  0  0  0  0  0  0  0  0
    4.2643   -1.1144   -5.8108 H   0  0  0  0  0  0  0  0  0  0  0  0
    3.2077    2.4751   -2.9520 H   0  0  0  0  0  0  0  0  0  0  0  0
    4.9833    2.3397   -3.0737 H   0  0  0  0  0  0  0  0  0  0  0  0
    4.1271    2.0303   -0.7265 H   0  0  0  0  0  0  0  0  0  0  0  0
    5.0935    0.6692   -1.3238 H   0  0  0  0  0  0  0  0  0  0  0  0
  1  2  1  0
  1 26  1  0
  1 27  1  0
  2  3  2  0
  2 13  1  0
  3  4  1  0
  4  5  1  0
  4 28  1  0
  4 29  1  0
  5  6  2  0
  5 12  1  0
  6  7  1  0
  7  8  2  0
  8  9  1  0
  8 12  1  0
  9 10  1  0
  9 11  1  0
  9 30  1  1
 10 11  1  0
 10 31  1  0
 10 32  1  0
 11 33  1  0
 11 34  1  0
 13 14  1  0
 13 25  1  0
 14 15  1  0
 14 35  1  0
 14 36  1  0
 15 16  1  0
 15 37  1  0
 15 38  1  0
 16 17  1  0
 16 24  1  0
 17 18  2  0
 17 23  1  0
 18 19  1  0
 18 39  1  0
 19 20  2  0
 19 40  1  0
 20 21  1  0
 20 22  1  0
 22 23  2  0
 22 41  1  0
 23 42  1  0
 24 25  1  0
 24 43  1  0
 24 44  1  0
 25 45  1  0
 25 46  1  0
M  END

