
     RDKit          3D

 37 38  0  0  0  0  0  0  0  0999 V2000
    0.7495    0.5883   -0.5993 C   0  0  0  0  0  0  0  0  0  0  0  0
    2.1629    0.2242   -0.1631 C   0  0  1  0  0  0  0  0  0  0  0  0
    2.2542    0.1278    1.3543 C   0  0  0  0  0  0  0  0  0  0  0  0
    3.0072   -0.7527   -0.9827 C   0  0  1  0  0  0  0  0  0  0  0  0
    2.4943   -1.4854   -2.1942 C   0  0  1  0  0  0  0  0  0  0  0  0
    3.8977   -1.7645   -3.3561 Cl  0  0  0  0  0  0  0  0  0  0  0  0
    1.8410   -2.8302   -1.8383 C   0  0  0  0  0  0  0  0  0  0  0  0
    1.1740   -3.5514   -2.9887 C   0  0  0  0  0  0  0  0  0  0  0  0
    1.8537   -4.5318   -3.7288 C   0  0  0  0  0  0  0  0  0  0  0  0
    1.2295   -5.1750   -4.8011 C   0  0  0  0  0  0  0  0  0  0  0  0
   -0.0825   -4.8546   -5.1598 C   0  0  0  0  0  0  0  0  0  0  0  0
   -0.7477   -3.8803   -4.4200 C   0  0  0  0  0  0  0  0  0  0  0  0
   -2.0114   -3.5612   -4.7439 F   0  0  0  0  0  0  0  0  0  0  0  0
   -0.1446   -3.2298   -3.3468 C   0  0  0  0  0  0  0  0  0  0  0  0
    3.3650    0.7237   -0.9705 C   0  0  1  0  0  0  0  0  0  0  0  0
    3.1470    1.5709   -2.2178 C   0  0  0  0  0  0  0  0  0  0  0  0
    4.6479    1.1278   -0.2563 C   0  0  0  0  0  0  0  0  0  0  0  0
    0.0221   -0.1399   -0.2014 H   0  0  0  0  0  0  0  0  0  0  0  0
    0.6121    0.6296   -1.6871 H   0  0  0  0  0  0  0  0  0  0  0  0
    0.4691    1.5769   -0.1979 H   0  0  0  0  0  0  0  0  0  0  0  0
    1.5047   -0.5851    1.7383 H   0  0  0  0  0  0  0  0  0  0  0  0
    2.0487    1.1049    1.8247 H   0  0  0  0  0  0  0  0  0  0  0  0
    3.2373   -0.2124    1.7058 H   0  0  0  0  0  0  0  0  0  0  0  0
    3.6754   -1.3851   -0.3851 H   0  0  0  0  0  0  0  0  0  0  0  0
    1.7916   -0.8778   -2.7760 H   0  0  0  0  0  0  0  0  0  0  0  0
    1.0894   -2.6121   -1.0607 H   0  0  0  0  0  0  0  0  0  0  0  0
    2.6021   -3.4747   -1.3708 H   0  0  0  0  0  0  0  0  0  0  0  0
    2.8825   -4.7854   -3.4657 H   0  0  0  0  0  0  0  0  0  0  0  0
    1.7708   -5.9370   -5.3673 H   0  0  0  0  0  0  0  0  0  0  0  0
   -0.5937   -5.3437   -5.9911 H   0  0  0  0  0  0  0  0  0  0  0  0
   -0.7191   -2.4812   -2.7957 H   0  0  0  0  0  0  0  0  0  0  0  0
    2.2438    1.3104   -2.7838 H   0  0  0  0  0  0  0  0  0  0  0  0
    4.0011    1.4589   -2.9043 H   0  0  0  0  0  0  0  0  0  0  0  0
    3.0692    2.6376   -1.9476 H   0  0  0  0  0  0  0  0  0  0  0  0
    4.8841    0.4853    0.6026 H   0  0  0  0  0  0  0  0  0  0  0  0
    4.5897    2.1683    0.1067 H   0  0  0  0  0  0  0  0  0  0  0  0
    5.5002    1.0665   -0.9532 H   0  0  0  0  0  0  0  0  0  0  0  0
  2  1  1  1
  1 18  1  0
  1 19  1  0
  1 20  1  0
  2  3  1  0
  2  4  1  0
  2 15  1  0
  3 21  1  0
  3 22  1  0
  3 23  1  0
  4  5  1  0
  4 15  1  0
  4 24  1  1
  5  6  1  0
  5  7  1  0
  5 25  1  6
  7  8  1  0
  7 26  1  0
  7 27  1  0
  8  9  2  0
  8 14  1  0
  9 10  1  0
  9 28  1  0
 10 11  2  0
 10 29  1  0
 11 12  1  0
 11 30  1  0
 12 13  1  0
 12 14  2  0
 14 31  1  0
 15 16  1  6
 15 17  1  0
 16 32  1  0
 16 33  1  0
 16 34  1  0
 17 35  1  0
 17 36  1  0
 17 37  1  0
M  END

