
     RDKit          3D

 31 32  0  0  0  0  0  0  0  0999 V2000
    3.2350    1.3700    0.0609 C   0  0  0  0  0  0  0  0  0  0  0  0
    2.5471    0.0189    0.1533 C   0  0  0  0  0  0  0  0  0  0  0  0
    1.5953   -0.1352    0.9027 O   0  0  0  0  0  0  0  0  0  0  0  0
    3.0896   -1.0884   -0.6684 C   0  0  0  0  0  0  0  0  0  0  0  0
    2.7734   -2.3991   -0.5088 C   0  0  0  0  0  0  0  0  0  0  0  0
    1.8071   -3.0998    0.3692 C   0  0  0  0  0  0  0  0  0  0  0  0
    3.5258   -3.2306   -1.2951 O   0  0  0  0  0  0  0  0  0  0  0  0
    4.2846   -2.4722   -2.1848 C   0  0  1  0  0  0  0  0  0  0  0  0
    5.3031   -2.8676   -2.2691 H   0  0  0  0  0  0  0  0  0  0  0  0
    3.7002   -2.6587   -3.5934 N   0  0  0  0  0  0  0  0  0  0  0  0
    2.5089   -2.8669   -3.6874 O   0  0  0  0  0  0  0  0  0  0  0  0
    4.4970   -2.5464   -4.5036 O   0  0  0  0  0  0  0  0  0  0  0  0
    4.1988   -0.9791   -1.7140 C   0  0  1  0  0  0  0  0  0  0  0  0
    5.1605   -0.7532   -1.2213 H   0  0  0  0  0  0  0  0  0  0  0  0
    4.0101    0.0453   -2.8225 C   0  0  0  0  0  0  0  0  0  0  0  0
    2.7464    0.3004   -3.3781 C   0  0  0  0  0  0  0  0  0  0  0  0
    2.5869    1.2358   -4.4016 C   0  0  0  0  0  0  0  0  0  0  0  0
    3.7031    1.9272   -4.8816 C   0  0  0  0  0  0  0  0  0  0  0  0
    3.5104    3.1035   -6.1582 Cl  0  0  0  0  0  0  0  0  0  0  0  0
    4.9718    1.6885   -4.3462 C   0  0  0  0  0  0  0  0  0  0  0  0
    5.1141    0.7506   -3.3226 C   0  0  0  0  0  0  0  0  0  0  0  0
    2.8740    2.0021    0.8823 H   0  0  0  0  0  0  0  0  0  0  0  0
    2.9955    1.8559   -0.8983 H   0  0  0  0  0  0  0  0  0  0  0  0
    4.3319    1.2794    0.1095 H   0  0  0  0  0  0  0  0  0  0  0  0
    1.3101   -2.3818    1.0291 H   0  0  0  0  0  0  0  0  0  0  0  0
    2.3257   -3.8795    0.9505 H   0  0  0  0  0  0  0  0  0  0  0  0
    1.0558   -3.6094   -0.2573 H   0  0  0  0  0  0  0  0  0  0  0  0
    1.8710   -0.2378   -3.0081 H   0  0  0  0  0  0  0  0  0  0  0  0
    1.6020    1.4311   -4.8284 H   0  0  0  0  0  0  0  0  0  0  0  0
    5.8355    2.2345   -4.7288 H   0  0  0  0  0  0  0  0  0  0  0  0
    6.1085    0.5689   -2.9051 H   0  0  0  0  0  0  0  0  0  0  0  0
  1  2  1  0
  1 22  1  0
  1 23  1  0
  1 24  1  0
  2  3  2  0
  2  4  1  0
  4  5  2  0
  4 13  1  0
  5  6  1  0
  5  7  1  0
  6 25  1  0
  6 26  1  0
  6 27  1  0
  7  8  1  0
  8  9  1  6
  8 10  1  0
  8 13  1  0
 10 11  2  0
 10 12  1  0
 13 14  1  1
 13 15  1  0
 15 16  2  0
 15 21  1  0
 16 17  1  0
 16 28  1  0
 17 18  2  0
 17 29  1  0
 18 19  1  0
 18 20  1  0
 20 21  2  0
 20 30  1  0
 21 31  1  0
M  CHG  2  10   1  12  -1
M  END

