
     RDKit          3D

 51 53  0  0  0  0  0  0  0  0999 V2000
    3.1749   -2.8238    0.9512 O   0  0  0  0  0  0  0  0  0  0  0  0
    3.5013   -1.6824    0.6508 C   0  0  0  0  0  0  0  0  0  0  0  0
    3.1790   -0.5862    1.4220 N   0  0  0  0  0  0  0  0  0  0  0  0
    2.4807   -0.7303    2.6771 C   0  0  0  0  0  0  0  0  0  0  0  0
    3.4018   -0.5503    3.9132 C   0  0  1  0  0  0  0  0  0  0  0  0
    4.0647    0.8253    3.8532 C   0  0  0  0  0  0  0  0  0  0  0  0
    3.3625    1.9764    4.2465 C   0  0  0  0  0  0  0  0  0  0  0  0
    3.9478    3.2382    4.1269 C   0  0  0  0  0  0  0  0  0  0  0  0
    5.2414    3.3806    3.6145 C   0  0  0  0  0  0  0  0  0  0  0  0
    5.9384    2.2345    3.2263 C   0  0  0  0  0  0  0  0  0  0  0  0
    7.5626    2.3845    2.5916 Cl  0  0  0  0  0  0  0  0  0  0  0  0
    5.3624    0.9645    3.3420 C   0  0  0  0  0  0  0  0  0  0  0  0
    2.6582   -0.6967    5.1701 N   0  0  0  0  0  0  0  0  0  0  0  0
    1.6839   -1.7872    5.2902 C   0  0  0  0  0  0  0  0  0  0  0  0
    2.3390   -3.1419    5.5731 C   0  0  0  0  0  0  0  0  0  0  0  0
    3.1429   -3.0755    6.7377 O   0  0  0  0  0  0  0  0  0  0  0  0
    4.1331   -2.0678    6.6464 C   0  0  0  0  0  0  0  0  0  0  0  0
    3.5077   -0.6968    6.3688 C   0  0  0  0  0  0  0  0  0  0  0  0
    4.1896   -1.3769   -0.5112 N   0  0  0  0  0  0  0  0  0  0  0  0
    4.7960   -2.4560   -1.2854 C   0  0  1  0  0  0  0  0  0  0  0  0
    3.7724   -3.3312   -2.0353 C   0  0  0  0  0  0  0  0  0  0  0  0
    3.4965   -2.8024   -3.4395 C   0  0  0  0  0  0  0  0  0  0  0  0
    4.7928   -2.7992   -4.2435 C   0  0  0  0  0  0  0  0  0  0  0  0
    5.8424   -2.0974   -3.5098 N   0  0  0  0  0  0  0  0  0  0  0  0
    5.8384   -1.7711   -2.1901 C   0  0  0  0  0  0  0  0  0  0  0  0
    6.6246   -0.9641   -1.7134 O   0  0  0  0  0  0  0  0  0  0  0  0
    3.4696    0.3369    1.1242 H   0  0  0  0  0  0  0  0  0  0  0  0
    2.0631   -1.7442    2.6630 H   0  0  0  0  0  0  0  0  0  0  0  0
    1.6458   -0.0112    2.7401 H   0  0  0  0  0  0  0  0  0  0  0  0
    4.2049   -1.3083    3.7965 H   0  0  0  0  0  0  0  0  0  0  0  0
    2.3603    1.8628    4.6647 H   0  0  0  0  0  0  0  0  0  0  0  0
    3.3945    4.1278    4.4391 H   0  0  0  0  0  0  0  0  0  0  0  0
    5.7095    4.3618    3.5205 H   0  0  0  0  0  0  0  0  0  0  0  0
    5.9347    0.0862    3.0366 H   0  0  0  0  0  0  0  0  0  0  0  0
    1.0392   -1.8449    4.4032 H   0  0  0  0  0  0  0  0  0  0  0  0
    1.0260   -1.5427    6.1434 H   0  0  0  0  0  0  0  0  0  0  0  0
    2.9443   -3.4690    4.7014 H   0  0  0  0  0  0  0  0  0  0  0  0
    1.5749   -3.9139    5.7570 H   0  0  0  0  0  0  0  0  0  0  0  0
    4.8679   -2.3252    5.8546 H   0  0  0  0  0  0  0  0  0  0  0  0
    4.6717   -2.0602    7.6073 H   0  0  0  0  0  0  0  0  0  0  0  0
    4.2911    0.0701    6.2738 H   0  0  0  0  0  0  0  0  0  0  0  0
    2.8791   -0.4191    7.2339 H   0  0  0  0  0  0  0  0  0  0  0  0
    4.7863   -0.5519   -0.4802 H   0  0  0  0  0  0  0  0  0  0  0  0
    5.3801   -3.1103   -0.6104 H   0  0  0  0  0  0  0  0  0  0  0  0
    2.8625   -3.4055   -1.4265 H   0  0  0  0  0  0  0  0  0  0  0  0
    4.1772   -4.3556   -2.1085 H   0  0  0  0  0  0  0  0  0  0  0  0
    3.0929   -1.7763   -3.3812 H   0  0  0  0  0  0  0  0  0  0  0  0
    2.7452   -3.4202   -3.9564 H   0  0  0  0  0  0  0  0  0  0  0  0
    4.6549   -2.2977   -5.2156 H   0  0  0  0  0  0  0  0  0  0  0  0
    5.1007   -3.8399   -4.4618 H   0  0  0  0  0  0  0  0  0  0  0  0
    6.5840   -1.6454   -4.0373 H   0  0  0  0  0  0  0  0  0  0  0  0
  1  2  2  0
  2  3  1  0
  2 19  1  0
  3  4  1  0
  3 27  1  0
  4  5  1  0
  4 28  1  0
  4 29  1  0
  5  6  1  0
  5 13  1  0
  5 30  1  6
  6  7  2  0
  6 12  1  0
  7  8  1  0
  7 31  1  0
  8  9  2  0
  8 32  1  0
  9 10  1  0
  9 33  1  0
 10 11  1  0
 10 12  2  0
 12 34  1  0
 13 14  1  0
 13 18  1  0
 14 15  1  0
 14 35  1  0
 14 36  1  0
 15 16  1  0
 15 37  1  0
 15 38  1  0
 16 17  1  0
 17 18  1  0
 17 39  1  0
 17 40  1  0
 18 41  1  0
 18 42  1  0
 19 20  1  0
 19 43  1  0
 20 21  1  0
 20 25  1  0
 20 44  1  1
 21 22  1  0
 21 45  1  0
 21 46  1  0
 22 23  1  0
 22 47  1  0
 22 48  1  0
 23 24  1  0
 23 49  1  0
 23 50  1  0
 24 25  1  0
 24 51  1  0
 25 26  2  0
M  END

