
     RDKit          3D

 45 48  0  0  0  0  0  0  0  0999 V2000
    1.7807    1.3407    0.8123 F   0  0  0  0  0  0  0  0  0  0  0  0
    1.9807    0.1277    0.2730 C   0  0  1  0  0  0  0  0  0  0  0  0
    0.7829   -0.3164   -0.1436 F   0  0  0  0  0  0  0  0  0  0  0  0
    2.7331    0.3370   -0.8368 F   0  0  0  0  0  0  0  0  0  0  0  0
    2.6366   -0.8161    1.2606 C   0  0  0  0  0  0  0  0  0  0  0  0
    3.3133   -0.2082    2.3195 C   0  0  0  0  0  0  0  0  0  0  0  0
    3.8813   -0.9425    3.3663 C   0  0  0  0  0  0  0  0  0  0  0  0
    4.6911   -0.2885    4.4146 C   0  0  0  0  0  0  0  0  0  0  0  0
    5.9308   -0.8084    4.5678 N   0  0  0  0  0  0  0  0  0  0  0  0
    6.2166   -1.5797    3.9682 H   0  0  0  0  0  0  0  0  0  0  0  0
    6.9297   -0.3589    5.4557 C   0  0  0  0  0  0  0  0  0  0  0  0
    8.3505   -1.2070    5.5439 S   0  0  0  0  0  0  0  0  0  0  0  0
    6.6312    0.7673    6.1500 N   0  0  0  0  0  0  0  0  0  0  0  0
    5.4412    1.3051    6.0380 C   0  0  0  0  0  0  0  0  0  0  0  0
    5.2308    2.4519    6.7688 N   0  0  0  0  0  0  0  0  0  0  0  0
    6.0180    2.8003    7.3106 H   0  0  0  0  0  0  0  0  0  0  0  0
    4.0487    3.1434    6.8551 C   0  0  0  0  0  0  0  0  0  0  0  0
    3.8700    4.5246    7.7447 S   0  0  0  0  0  0  0  0  0  0  0  0
    3.0186    2.5667    6.1497 N   0  0  0  0  0  0  0  0  0  0  0  0
    2.1113    3.0152    6.2564 H   0  0  0  0  0  0  0  0  0  0  0  0
    3.0226    1.4058    5.3856 C   0  0  0  0  0  0  0  0  0  0  0  0
    1.5625    0.8453    4.8313 S   0  0  0  0  0  0  0  0  0  0  0  0
    4.3484    0.8058    5.2272 C   0  0  0  0  0  0  0  0  0  0  0  0
    3.7351   -2.3400    3.3417 C   0  0  0  0  0  0  0  0  0  0  0  0
    3.0564   -2.9623    2.3066 C   0  0  0  0  0  0  0  0  0  0  0  0
    2.5086   -2.2444    1.2105 C   0  0  0  0  0  0  0  0  0  0  0  0
    1.8761   -2.9404    0.1985 N   0  0  0  0  0  0  0  0  0  0  0  0
    2.0390   -2.6589   -1.2290 C   0  0  0  0  0  0  0  0  0  0  0  0
    2.6973   -3.8457   -1.9517 C   0  0  0  0  0  0  0  0  0  0  0  0
    1.9458   -5.1576   -1.7047 C   0  0  0  0  0  0  0  0  0  0  0  0
    1.7677   -5.4026   -0.2016 C   0  0  0  0  0  0  0  0  0  0  0  0
    1.1353   -4.1746    0.4625 C   0  0  0  0  0  0  0  0  0  0  0  0
    3.3767    0.8786    2.3373 H   0  0  0  0  0  0  0  0  0  0  0  0
    4.1486   -2.9522    4.1477 H   0  0  0  0  0  0  0  0  0  0  0  0
    2.9848   -4.0496    2.3119 H   0  0  0  0  0  0  0  0  0  0  0  0
    2.6561   -1.7668   -1.3633 H   0  0  0  0  0  0  0  0  0  0  0  0
    1.0516   -2.4443   -1.6788 H   0  0  0  0  0  0  0  0  0  0  0  0
    3.7393   -3.9425   -1.5984 H   0  0  0  0  0  0  0  0  0  0  0  0
    2.7462   -3.6206   -3.0303 H   0  0  0  0  0  0  0  0  0  0  0  0
    2.4732   -6.0019   -2.1778 H   0  0  0  0  0  0  0  0  0  0  0  0
    0.9500   -5.1035   -2.1824 H   0  0  0  0  0  0  0  0  0  0  0  0
    2.7483   -5.6094    0.2628 H   0  0  0  0  0  0  0  0  0  0  0  0
    1.1327   -6.2858   -0.0197 H   0  0  0  0  0  0  0  0  0  0  0  0
    1.0201   -4.3102    1.5453 H   0  0  0  0  0  0  0  0  0  0  0  0
    0.1129   -4.0389    0.0566 H   0  0  0  0  0  0  0  0  0  0  0  0
  2  1  1  1
  2  3  1  0
  2  4  1  0
  2  5  1  0
  5  6  2  0
  5 26  1  0
  6  7  1  0
  6 33  1  0
  7  8  1  0
  7 24  2  0
  8  9  1  0
  8 23  2  0
  9 10  1  0
  9 11  1  0
 11 12  2  0
 11 13  1  0
 13 14  2  0
 14 15  1  0
 14 23  1  0
 15 16  1  0
 15 17  1  0
 17 18  2  0
 17 19  1  0
 19 20  1  0
 19 21  1  0
 21 22  2  0
 21 23  1  0
 24 25  1  0
 24 34  1  0
 25 26  2  0
 25 35  1  0
 26 27  1  0
 27 28  1  0
 27 32  1  0
 28 29  1  0
 28 36  1  0
 28 37  1  0
 29 30  1  0
 29 38  1  0
 29 39  1  0
 30 31  1  0
 30 40  1  0
 30 41  1  0
 31 32  1  0
 31 42  1  0
 31 43  1  0
 32 44  1  0
 32 45  1  0
M  END

