
     RDKit          3D

 79 83  0  0  0  0  0  0  0  0999 V2000
    3.3277   -0.1136    0.6640 C   0  0  0  0  0  0  0  0  0  0  0  0
    4.6165    0.3728   -0.0024 C   0  0  0  0  0  0  0  0  0  0  0  0
    5.0544   -0.5400   -1.1475 C   0  0  0  0  0  0  0  0  0  0  0  0
    6.6013    0.1004   -1.8993 S   0  0  0  0  0  0  0  0  0  0  0  0
    6.8609   -1.1089   -3.1470 C   0  0  0  0  0  0  0  0  0  0  0  0
    7.9651   -1.0373   -3.9571 N   0  0  0  0  0  0  0  0  0  0  0  0
    7.7851   -2.0807   -4.7394 C   0  0  0  0  0  0  0  0  0  0  0  0
    6.6492   -2.7389   -4.4432 N   0  0  0  0  0  0  0  0  0  0  0  0
    6.0391   -2.1232   -3.3897 N   0  0  0  0  0  0  0  0  0  0  0  0
    6.3039   -4.0374   -4.9982 C   0  0  2  0  0  0  0  0  0  0  0  0
    6.8551   -5.1917   -4.1393 C   0  0  0  0  0  0  0  0  0  0  0  0
    7.8317   -4.9715   -3.1657 C   0  0  0  0  0  0  0  0  0  0  0  0
    8.3215   -6.0522   -2.4220 C   0  0  0  0  0  0  0  0  0  0  0  0
    9.6600   -5.7417   -1.1014 Br  0  0  0  0  0  0  0  0  0  0  0  0
    7.8476   -7.3536   -2.6107 C   0  0  0  0  0  0  0  0  0  0  0  0
    8.2847   -8.3775   -1.8273 O   0  0  0  0  0  0  0  0  0  0  0  0
    9.1079   -9.3594   -2.4424 C   0  0  0  0  0  0  0  0  0  0  0  0
    9.5381  -10.3723   -1.4109 C   0  0  0  0  0  0  0  0  0  0  0  0
    9.1921  -10.2420   -0.0596 C   0  0  0  0  0  0  0  0  0  0  0  0
    9.5939  -11.1803    0.8928 C   0  0  0  0  0  0  0  0  0  0  0  0
   10.3609  -12.2760    0.4915 C   0  0  0  0  0  0  0  0  0  0  0  0
   10.8733  -13.4623    1.6697 Cl  0  0  0  0  0  0  0  0  0  0  0  0
   10.7279  -12.4396   -0.8462 C   0  0  0  0  0  0  0  0  0  0  0  0
   10.3114  -11.4860   -1.7765 C   0  0  0  0  0  0  0  0  0  0  0  0
   10.7808  -11.7011   -3.4547 Cl  0  0  0  0  0  0  0  0  0  0  0  0
    6.8466   -7.5646   -3.5938 C   0  0  0  0  0  0  0  0  0  0  0  0
    6.4168   -8.8426   -3.7261 O   0  0  0  0  0  0  0  0  0  0  0  0
    5.3771   -9.1401   -4.6532 C   0  0  0  0  0  0  0  0  0  0  0  0
    5.0925  -10.6273   -4.5797 C   0  0  0  0  0  0  0  0  0  0  0  0
    6.3623   -6.4905   -4.3451 C   0  0  0  0  0  0  0  0  0  0  0  0
    6.8306   -4.0317   -6.4464 C   0  0  0  0  0  0  0  0  0  0  0  0
    5.9823   -4.7712   -7.4260 C   0  0  0  0  0  0  0  0  0  0  0  0
    5.2612   -5.6985   -7.0736 O   0  0  0  0  0  0  0  0  0  0  0  0
    6.0016   -4.2938   -8.7230 N   0  0  0  0  0  0  0  0  0  0  0  0
    5.3317   -4.7847   -9.8665 C   0  0  0  0  0  0  0  0  0  0  0  0
    4.7198   -6.0490   -9.8843 C   0  0  0  0  0  0  0  0  0  0  0  0
    4.1015   -6.4919  -11.0511 C   0  0  0  0  0  0  0  0  0  0  0  0
    4.0844   -5.6930  -12.1929 C   0  0  0  0  0  0  0  0  0  0  0  0
    4.6842   -4.4246  -12.1929 C   0  0  0  0  0  0  0  0  0  0  0  0
    4.6377   -3.5898  -13.4539 C   0  0  0  0  0  0  0  0  0  0  0  0
    5.3131   -3.9560  -11.0188 C   0  0  0  0  0  0  0  0  0  0  0  0
    5.9644   -2.5910  -10.9667 C   0  0  0  0  0  0  0  0  0  0  0  0
    8.0099   -3.3909   -6.7280 C   0  0  0  0  0  0  0  0  0  0  0  0
    8.8456   -3.5144   -7.9760 C   0  0  0  0  0  0  0  0  0  0  0  0
    8.5569   -2.5323   -5.7851 N   0  0  0  0  0  0  0  0  0  0  0  0
    3.0290    0.5562    1.4858 H   0  0  0  0  0  0  0  0  0  0  0  0
    3.4504   -1.1251    1.0852 H   0  0  0  0  0  0  0  0  0  0  0  0
    2.4932   -0.1527   -0.0555 H   0  0  0  0  0  0  0  0  0  0  0  0
    5.4244    0.4328    0.7474 H   0  0  0  0  0  0  0  0  0  0  0  0
    4.4745    1.3985   -0.3854 H   0  0  0  0  0  0  0  0  0  0  0  0
    4.2857   -0.5981   -1.9331 H   0  0  0  0  0  0  0  0  0  0  0  0
    5.2398   -1.5665   -0.7959 H   0  0  0  0  0  0  0  0  0  0  0  0
    5.2082   -4.1151   -5.0179 H   0  0  0  0  0  0  0  0  0  0  0  0
    8.2173   -3.9752   -2.9554 H   0  0  0  0  0  0  0  0  0  0  0  0
    9.9991   -8.8789   -2.8889 H   0  0  0  0  0  0  0  0  0  0  0  0
    8.5635   -9.8627   -3.2584 H   0  0  0  0  0  0  0  0  0  0  0  0
    8.5950   -9.3796    0.2378 H   0  0  0  0  0  0  0  0  0  0  0  0
    9.3161  -11.0649    1.9414 H   0  0  0  0  0  0  0  0  0  0  0  0
   11.3272  -13.2933   -1.1615 H   0  0  0  0  0  0  0  0  0  0  0  0
    5.6854   -8.8436   -5.6722 H   0  0  0  0  0  0  0  0  0  0  0  0
    4.4760   -8.5526   -4.3990 H   0  0  0  0  0  0  0  0  0  0  0  0
    5.9830  -11.2129   -4.8552 H   0  0  0  0  0  0  0  0  0  0  0  0
    4.2778  -10.8896   -5.2724 H   0  0  0  0  0  0  0  0  0  0  0  0
    4.7911  -10.9166   -3.5615 H   0  0  0  0  0  0  0  0  0  0  0  0
    5.6111   -6.6416   -5.1171 H   0  0  0  0  0  0  0  0  0  0  0  0
    6.4500   -3.3971   -8.8431 H   0  0  0  0  0  0  0  0  0  0  0  0
    4.7251   -6.6566   -8.9840 H   0  0  0  0  0  0  0  0  0  0  0  0
    3.6253   -7.4757  -11.0649 H   0  0  0  0  0  0  0  0  0  0  0  0
    3.5964   -6.0523  -13.1025 H   0  0  0  0  0  0  0  0  0  0  0  0
    4.1184   -4.1310  -14.2576 H   0  0  0  0  0  0  0  0  0  0  0  0
    5.6459   -3.3388  -13.8238 H   0  0  0  0  0  0  0  0  0  0  0  0
    4.1035   -2.6370  -13.3012 H   0  0  0  0  0  0  0  0  0  0  0  0
    5.8116   -2.0237  -11.8915 H   0  0  0  0  0  0  0  0  0  0  0  0
    7.0577   -2.6575  -10.8163 H   0  0  0  0  0  0  0  0  0  0  0  0
    5.5570   -1.9735  -10.1464 H   0  0  0  0  0  0  0  0  0  0  0  0
    8.5437   -4.3638   -8.5971 H   0  0  0  0  0  0  0  0  0  0  0  0
    9.8983   -3.6676   -7.6843 H   0  0  0  0  0  0  0  0  0  0  0  0
    8.8134   -2.5945   -8.5858 H   0  0  0  0  0  0  0  0  0  0  0  0
    9.4324   -2.0553   -5.9622 H   0  0  0  0  0  0  0  0  0  0  0  0
  1  2  1  0
  1 46  1  0
  1 47  1  0
  1 48  1  0
  2  3  1  0
  2 49  1  0
  2 50  1  0
  3  4  1  0
  3 51  1  0
  3 52  1  0
  4  5  1  0
  5  6  1  0
  5  9  2  0
  6  7  2  0
  7  8  1  0
  7 45  1  0
  8  9  1  0
  8 10  1  0
 10 11  1  0
 10 31  1  0
 10 53  1  6
 11 12  2  0
 11 30  1  0
 12 13  1  0
 12 54  1  0
 13 14  1  0
 13 15  2  0
 15 16  1  0
 15 26  1  0
 16 17  1  0
 17 18  1  0
 17 55  1  0
 17 56  1  0
 18 19  2  0
 18 24  1  0
 19 20  1  0
 19 57  1  0
 20 21  2  0
 20 58  1  0
 21 22  1  0
 21 23  1  0
 23 24  2  0
 23 59  1  0
 24 25  1  0
 26 27  1  0
 26 30  2  0
 27 28  1  0
 28 29  1  0
 28 60  1  0
 28 61  1  0
 29 62  1  0
 29 63  1  0
 29 64  1  0
 30 65  1  0
 31 32  1  0
 31 43  2  0
 32 33  2  0
 32 34  1  0
 34 35  1  0
 34 66  1  0
 35 36  2  0
 35 41  1  0
 36 37  1  0
 36 67  1  0
 37 38  2  0
 37 68  1  0
 38 39  1  0
 38 69  1  0
 39 40  1  0
 39 41  2  0
 40 70  1  0
 40 71  1  0
 40 72  1  0
 41 42  1  0
 42 73  1  0
 42 74  1  0
 42 75  1  0
 43 44  1  0
 43 45  1  0
 44 76  1  0
 44 77  1  0
 44 78  1  0
 45 79  1  0
M  END

