
     RDKit          3D

 40 41  0  0  0  0  0  0  0  0999 V2000
    1.4002   -1.7596    1.8226 C   0  0  0  0  0  0  0  0  0  0  0  0
    2.7453   -1.9419    1.3907 O   0  0  0  0  0  0  0  0  0  0  0  0
    3.3654   -0.8484    0.8972 C   0  0  0  0  0  0  0  0  0  0  0  0
    2.8225    0.2317    0.8204 O   0  0  0  0  0  0  0  0  0  0  0  0
    4.7624   -1.1263    0.4704 C   0  0  0  0  0  0  0  0  0  0  0  0
    5.3570   -2.3938    0.5749 C   0  0  0  0  0  0  0  0  0  0  0  0
    6.6691   -2.6158    0.1627 C   0  0  0  0  0  0  0  0  0  0  0  0
    7.4234   -1.5505   -0.3691 C   0  0  0  0  0  0  0  0  0  0  0  0
    8.7487   -1.6785   -0.7990 N   0  0  0  0  0  0  0  0  0  0  0  0
    9.5560   -2.8062   -0.8315 C   0  0  0  0  0  0  0  0  0  0  0  0
    9.1580   -3.9169   -0.5167 O   0  0  0  0  0  0  0  0  0  0  0  0
   10.9570   -2.5729   -1.3009 C   0  0  0  0  0  0  0  0  0  0  0  0
   11.5963   -1.3221   -1.3471 C   0  0  0  0  0  0  0  0  0  0  0  0
   12.9108   -1.1880   -1.7809 C   0  0  0  0  0  0  0  0  0  0  0  0
   13.6622   -2.3181   -2.1975 C   0  0  0  0  0  0  0  0  0  0  0  0
   14.9609   -2.1947   -2.6394 N   0  0  0  0  0  0  0  0  0  0  0  0
   15.7134   -3.3727   -3.0258 C   0  0  0  0  0  0  0  0  0  0  0  0
   15.5949   -0.8918   -2.6815 C   0  0  0  0  0  0  0  0  0  0  0  0
   13.0177   -3.5828   -2.1314 C   0  0  0  0  0  0  0  0  0  0  0  0
   11.7079   -3.6963   -1.6887 C   0  0  0  0  0  0  0  0  0  0  0  0
    6.8263   -0.2757   -0.4746 C   0  0  0  0  0  0  0  0  0  0  0  0
    5.5174   -0.0683   -0.0623 C   0  0  0  0  0  0  0  0  0  0  0  0
    1.0600   -2.7364    2.1890 H   0  0  0  0  0  0  0  0  0  0  0  0
    0.7621   -1.4214    0.9917 H   0  0  0  0  0  0  0  0  0  0  0  0
    1.3428   -1.0101    2.6270 H   0  0  0  0  0  0  0  0  0  0  0  0
    4.7773   -3.2214    0.9859 H   0  0  0  0  0  0  0  0  0  0  0  0
    7.1235   -3.6003    0.2380 H   0  0  0  0  0  0  0  0  0  0  0  0
    9.1492   -0.8360   -1.1916 H   0  0  0  0  0  0  0  0  0  0  0  0
   11.0843   -0.4173   -1.0068 H   0  0  0  0  0  0  0  0  0  0  0  0
   13.3588   -0.1954   -1.7827 H   0  0  0  0  0  0  0  0  0  0  0  0
   15.8283   -4.0883   -2.1909 H   0  0  0  0  0  0  0  0  0  0  0  0
   16.7178   -3.0726   -3.3500 H   0  0  0  0  0  0  0  0  0  0  0  0
   15.2373   -3.9125   -3.8644 H   0  0  0  0  0  0  0  0  0  0  0  0
   15.0488   -0.1865   -3.3341 H   0  0  0  0  0  0  0  0  0  0  0  0
   16.6121   -0.9940   -3.0800 H   0  0  0  0  0  0  0  0  0  0  0  0
   15.6706   -0.4288   -1.6799 H   0  0  0  0  0  0  0  0  0  0  0  0
   13.5478   -4.4871   -2.4271 H   0  0  0  0  0  0  0  0  0  0  0  0
   11.2291   -4.6760   -1.6330 H   0  0  0  0  0  0  0  0  0  0  0  0
    7.4041    0.5580   -0.8854 H   0  0  0  0  0  0  0  0  0  0  0  0
    5.0541    0.9168   -0.1435 H   0  0  0  0  0  0  0  0  0  0  0  0
  1  2  1  0
  1 23  1  0
  1 24  1  0
  1 25  1  0
  2  3  1  0
  3  4  2  0
  3  5  1  0
  5  6  2  0
  5 22  1  0
  6  7  1  0
  6 26  1  0
  7  8  2  0
  7 27  1  0
  8  9  1  0
  8 21  1  0
  9 10  1  0
  9 28  1  0
 10 11  2  0
 10 12  1  0
 12 13  2  0
 12 20  1  0
 13 14  1  0
 13 29  1  0
 14 15  2  0
 14 30  1  0
 15 16  1  0
 15 19  1  0
 16 17  1  0
 16 18  1  0
 17 31  1  0
 17 32  1  0
 17 33  1  0
 18 34  1  0
 18 35  1  0
 18 36  1  0
 19 20  2  0
 19 37  1  0
 20 38  1  0
 21 22  2  0
 21 39  1  0
 22 40  1  0
M  END

