
     RDKit          3D

 40 41  0  0  0  0  0  0  0  0999 V2000
    6.8063   -2.4962    4.7653 C   0  0  0  0  0  0  0  0  0  0  0  0
    6.8237   -1.8493    3.4004 C   0  0  0  0  0  0  0  0  0  0  0  0
    7.5328   -2.4179    2.3332 C   0  0  0  0  0  0  0  0  0  0  0  0
    7.5168   -1.7979    1.0806 C   0  0  0  0  0  0  0  0  0  0  0  0
    6.8159   -0.6120    0.8428 C   0  0  0  0  0  0  0  0  0  0  0  0
    6.7719    0.0128   -0.5421 C   0  0  0  0  0  0  0  0  0  0  0  0
    7.5196    1.3493   -0.6332 C   0  0  0  0  0  0  0  0  0  0  0  0
    6.9236    2.3842   -0.3246 O   0  0  0  0  0  0  0  0  0  0  0  0
    8.8273    1.3799   -1.0359 N   0  0  0  0  0  0  0  0  0  0  0  0
    9.6728    0.2083   -1.2629 C   0  0  0  0  0  0  0  0  0  0  0  0
   10.4525    0.3209   -2.5767 C   0  0  0  0  0  0  0  0  0  0  0  0
   11.2490    1.6275   -2.6318 C   0  0  0  0  0  0  0  0  0  0  0  0
   10.3215    2.8209   -2.3760 C   0  0  0  0  0  0  0  0  0  0  0  0
    9.5119    2.6918   -1.0722 C   0  0  2  0  0  0  0  0  0  0  0  0
    8.7050    3.4344   -1.0859 H   0  0  0  0  0  0  0  0  0  0  0  0
   10.3349    2.9354    0.2007 C   0  0  0  0  0  0  0  0  0  0  0  0
    6.0932   -0.0227    1.9195 C   0  0  0  0  0  0  0  0  0  0  0  0
    5.3339    1.1144    1.7185 N   0  0  0  0  0  0  0  0  0  0  0  0
    6.1178   -0.6621    3.1752 C   0  0  0  0  0  0  0  0  0  0  0  0
    7.4800   -3.3649    4.8094 H   0  0  0  0  0  0  0  0  0  0  0  0
    5.7933   -2.8447    5.0301 H   0  0  0  0  0  0  0  0  0  0  0  0
    7.1165   -1.7877    5.5513 H   0  0  0  0  0  0  0  0  0  0  0  0
    8.0898   -3.3472    2.4765 H   0  0  0  0  0  0  0  0  0  0  0  0
    8.0569   -2.2666    0.2520 H   0  0  0  0  0  0  0  0  0  0  0  0
    5.7293    0.2637   -0.7956 H   0  0  0  0  0  0  0  0  0  0  0  0
    7.1218   -0.7125   -1.2880 H   0  0  0  0  0  0  0  0  0  0  0  0
    9.0574   -0.6961   -1.2611 H   0  0  0  0  0  0  0  0  0  0  0  0
   10.3827    0.0987   -0.4211 H   0  0  0  0  0  0  0  0  0  0  0  0
    9.7403    0.2840   -3.4202 H   0  0  0  0  0  0  0  0  0  0  0  0
   11.1176   -0.5531   -2.6772 H   0  0  0  0  0  0  0  0  0  0  0  0
   11.7490    1.7354   -3.6083 H   0  0  0  0  0  0  0  0  0  0  0  0
   12.0531    1.5998   -1.8749 H   0  0  0  0  0  0  0  0  0  0  0  0
    9.6100    2.9062   -3.2159 H   0  0  0  0  0  0  0  0  0  0  0  0
   10.8932    3.7632   -2.3503 H   0  0  0  0  0  0  0  0  0  0  0  0
   10.7709    3.9469    0.1802 H   0  0  0  0  0  0  0  0  0  0  0  0
   11.1633    2.2197    0.3217 H   0  0  0  0  0  0  0  0  0  0  0  0
    9.6891    2.8639    1.0888 H   0  0  0  0  0  0  0  0  0  0  0  0
    5.6679    1.7715    1.0100 H   0  0  0  0  0  0  0  0  0  0  0  0
    4.9782    1.5588    2.5567 H   0  0  0  0  0  0  0  0  0  0  0  0
    5.5600   -0.2059    4.0002 H   0  0  0  0  0  0  0  0  0  0  0  0
  1  2  1  0
  1 20  1  0
  1 21  1  0
  1 22  1  0
  2  3  2  0
  2 19  1  0
  3  4  1  0
  3 23  1  0
  4  5  2  0
  4 24  1  0
  5  6  1  0
  5 17  1  0
  6  7  1  0
  6 25  1  0
  6 26  1  0
  7  8  2  0
  7  9  1  0
  9 10  1  0
  9 14  1  0
 10 11  1  0
 10 27  1  0
 10 28  1  0
 11 12  1  0
 11 29  1  0
 11 30  1  0
 12 13  1  0
 12 31  1  0
 12 32  1  0
 13 14  1  0
 13 33  1  0
 13 34  1  0
 14 15  1  6
 14 16  1  0
 16 35  1  0
 16 36  1  0
 16 37  1  0
 17 18  1  0
 17 19  2  0
 18 38  1  0
 18 39  1  0
 19 40  1  0
M  END

