
     RDKit          3D

 39 40  0  0  0  0  0  0  0  0999 V2000
    5.4292    2.2712   -2.7384 C   0  0  0  0  0  0  0  0  0  0  0  0
    5.6236    3.5407   -1.8944 C   0  0  0  0  0  0  0  0  0  0  0  0
    5.1380    3.3975   -0.4688 C   0  0  0  0  0  0  0  0  0  0  0  0
    3.8603    3.8489   -0.1043 C   0  0  0  0  0  0  0  0  0  0  0  0
    3.3578    3.7216    1.1997 C   0  0  0  0  0  0  0  0  0  0  0  0
    1.9963    4.1990    1.6196 C   0  0  0  0  0  0  0  0  0  0  0  0
    1.6552    4.1171    2.7859 O   0  0  0  0  0  0  0  0  0  0  0  0
    1.0472    4.8164    0.5777 C   0  0  1  0  0  0  0  0  0  0  0  0
   -0.4293    4.6615    0.9998 C   0  0  0  0  0  0  0  0  0  0  0  0
   -0.9275    3.2154    1.0027 C   0  0  0  0  0  0  0  0  0  0  0  0
    1.4159    6.2815    0.3496 C   0  0  0  0  0  0  0  0  0  0  0  0
    1.5192    6.7966   -0.9523 C   0  0  0  0  0  0  0  0  0  0  0  0
    1.8091    8.1464   -1.1708 C   0  0  0  0  0  0  0  0  0  0  0  0
    2.0029    9.0059   -0.0857 C   0  0  0  0  0  0  0  0  0  0  0  0
    1.9019    8.5051    1.2157 C   0  0  0  0  0  0  0  0  0  0  0  0
    1.6108    7.1555    1.4321 C   0  0  0  0  0  0  0  0  0  0  0  0
    4.1687    3.1205    2.1781 C   0  0  0  0  0  0  0  0  0  0  0  0
    5.4372    2.6564    1.8521 C   0  0  0  0  0  0  0  0  0  0  0  0
    5.9092    2.7930    0.5408 C   0  0  0  0  0  0  0  0  0  0  0  0
    7.5169    2.1930    0.1821 Cl  0  0  0  0  0  0  0  0  0  0  0  0
    5.7919    2.4283   -3.7668 H   0  0  0  0  0  0  0  0  0  0  0  0
    4.3660    1.9875   -2.7928 H   0  0  0  0  0  0  0  0  0  0  0  0
    5.9840    1.4226   -2.3103 H   0  0  0  0  0  0  0  0  0  0  0  0
    5.0857    4.3800   -2.3643 H   0  0  0  0  0  0  0  0  0  0  0  0
    6.6909    3.8126   -1.8891 H   0  0  0  0  0  0  0  0  0  0  0  0
    3.2588    4.3324   -0.8756 H   0  0  0  0  0  0  0  0  0  0  0  0
    1.1856    4.2865   -0.3782 H   0  0  0  0  0  0  0  0  0  0  0  0
   -1.0408    5.2653    0.3089 H   0  0  0  0  0  0  0  0  0  0  0  0
   -0.5532    5.1011    2.0016 H   0  0  0  0  0  0  0  0  0  0  0  0
   -0.8231    2.7491    0.0081 H   0  0  0  0  0  0  0  0  0  0  0  0
   -1.9932    3.1698    1.2778 H   0  0  0  0  0  0  0  0  0  0  0  0
   -0.3736    2.5992    1.7274 H   0  0  0  0  0  0  0  0  0  0  0  0
    1.3632    6.1329   -1.8084 H   0  0  0  0  0  0  0  0  0  0  0  0
    1.8833    8.5272   -2.1929 H   0  0  0  0  0  0  0  0  0  0  0  0
    2.2320   10.0613   -0.2537 H   0  0  0  0  0  0  0  0  0  0  0  0
    2.0523    9.1693    2.0709 H   0  0  0  0  0  0  0  0  0  0  0  0
    1.5360    6.7739    2.4534 H   0  0  0  0  0  0  0  0  0  0  0  0
    3.7792    3.0293    3.1934 H   0  0  0  0  0  0  0  0  0  0  0  0
    6.0744    2.1869    2.6034 H   0  0  0  0  0  0  0  0  0  0  0  0
  1  2  1  0
  1 21  1  0
  1 22  1  0
  1 23  1  0
  2  3  1  0
  2 24  1  0
  2 25  1  0
  3  4  2  0
  3 19  1  0
  4  5  1  0
  4 26  1  0
  5  6  1  0
  5 17  2  0
  6  7  2  0
  6  8  1  0
  8  9  1  0
  8 11  1  0
  8 27  1  6
  9 10  1  0
  9 28  1  0
  9 29  1  0
 10 30  1  0
 10 31  1  0
 10 32  1  0
 11 12  2  0
 11 16  1  0
 12 13  1  0
 12 33  1  0
 13 14  2  0
 13 34  1  0
 14 15  1  0
 14 35  1  0
 15 16  2  0
 15 36  1  0
 16 37  1  0
 17 18  1  0
 17 38  1  0
 18 19  2  0
 18 39  1  0
 19 20  1  0
M  END

