
     RDKit          3D

 36 35  0  0  0  0  0  0  0  0999 V2000
    0.7898    0.0822   -0.2990 C   0  0  0  0  0  0  0  0  0  0  0  0
    2.2426   -0.1737    0.1046 C   0  0  0  0  0  0  0  0  0  0  0  0
    2.8744    0.9880    0.8776 C   0  0  0  0  0  0  0  0  0  0  0  0
    4.3291    0.7226    1.2768 C   0  0  0  0  0  0  0  0  0  0  0  0
    4.9762    1.8453    1.9489 N   0  0  0  0  0  0  0  0  0  0  0  0
    4.5317    2.0029    3.3212 C   0  0  0  0  0  0  0  0  0  0  0  0
    6.4341    1.8230    1.8440 C   0  0  0  0  0  0  0  0  0  0  0  0
    6.9548    2.2275    0.4604 C   0  0  0  0  0  0  0  0  0  0  0  0
    8.4806    2.4055    0.3725 C   0  0  1  0  0  0  0  0  0  0  0  0
    9.2593    1.1099    0.6327 C   0  0  0  0  0  0  0  0  0  0  0  0
    8.8630    3.0166   -0.9883 C   0  0  0  0  0  0  0  0  0  0  0  0
   10.2843    3.3409   -1.0618 N   0  0  0  0  0  0  0  0  0  0  0  0
    0.3667   -0.7703   -0.8542 H   0  0  0  0  0  0  0  0  0  0  0  0
    0.7041    0.9742   -0.9420 H   0  0  0  0  0  0  0  0  0  0  0  0
    0.1522    0.2528    0.5849 H   0  0  0  0  0  0  0  0  0  0  0  0
    2.8441   -0.3804   -0.7996 H   0  0  0  0  0  0  0  0  0  0  0  0
    2.2978   -1.0930    0.7160 H   0  0  0  0  0  0  0  0  0  0  0  0
    2.2635    1.1943    1.7741 H   0  0  0  0  0  0  0  0  0  0  0  0
    2.8452    1.9092    0.2695 H   0  0  0  0  0  0  0  0  0  0  0  0
    4.8950    0.4978    0.3594 H   0  0  0  0  0  0  0  0  0  0  0  0
    4.3816   -0.2033    1.8994 H   0  0  0  0  0  0  0  0  0  0  0  0
    3.4369    2.0998    3.3671 H   0  0  0  0  0  0  0  0  0  0  0  0
    4.9601    2.9193    3.7572 H   0  0  0  0  0  0  0  0  0  0  0  0
    4.8186    1.1478    3.9784 H   0  0  0  0  0  0  0  0  0  0  0  0
    6.8459    0.8319    2.1421 H   0  0  0  0  0  0  0  0  0  0  0  0
    6.8282    2.5451    2.5790 H   0  0  0  0  0  0  0  0  0  0  0  0
    6.4550    3.1730    0.1878 H   0  0  0  0  0  0  0  0  0  0  0  0
    6.6444    1.4866   -0.2986 H   0  0  0  0  0  0  0  0  0  0  0  0
    8.7759    3.1428    1.1469 H   0  0  0  0  0  0  0  0  0  0  0  0
    8.9168    0.3077   -0.0449 H   0  0  0  0  0  0  0  0  0  0  0  0
    9.1361    0.7501    1.6657 H   0  0  0  0  0  0  0  0  0  0  0  0
   10.3304    1.2722    0.4454 H   0  0  0  0  0  0  0  0  0  0  0  0
    8.1951    3.8841   -1.1819 H   0  0  0  0  0  0  0  0  0  0  0  0
    8.6410    2.2787   -1.7808 H   0  0  0  0  0  0  0  0  0  0  0  0
   10.4959    4.1427   -0.4662 H   0  0  0  0  0  0  0  0  0  0  0  0
   10.5437    3.6133   -2.0092 H   0  0  0  0  0  0  0  0  0  0  0  0
  1  2  1  0
  1 13  1  0
  1 14  1  0
  1 15  1  0
  2  3  1  0
  2 16  1  0
  2 17  1  0
  3  4  1  0
  3 18  1  0
  3 19  1  0
  4  5  1  0
  4 20  1  0
  4 21  1  0
  5  6  1  0
  5  7  1  0
  6 22  1  0
  6 23  1  0
  6 24  1  0
  7  8  1  0
  7 25  1  0
  7 26  1  0
  8  9  1  0
  8 27  1  0
  8 28  1  0
  9 10  1  0
  9 11  1  0
  9 29  1  1
 10 30  1  0
 10 31  1  0
 10 32  1  0
 11 12  1  0
 11 33  1  0
 11 34  1  0
 12 35  1  0
 12 36  1  0
M  END

