
     RDKit          3D

 28 29  0  0  0  0  0  0  0  0999 V2000
    2.3964   -1.3212    1.1735 N   0  0  0  0  0  0  0  0  0  0  0  0
    3.5952   -0.7309    0.5856 C   0  0  0  0  0  0  0  0  0  0  0  0
    4.1836    0.3037    1.5181 C   0  0  1  0  0  0  0  0  0  0  0  0
    5.0551    1.4265    1.0193 C   0  0  0  0  0  0  0  0  0  0  0  0
    3.6574    1.7182    1.5243 C   0  0  2  0  0  0  0  0  0  0  0  0
    3.4059    2.4656    2.8015 C   0  0  0  0  0  0  0  0  0  0  0  0
    2.8119    1.8375    3.9049 C   0  0  0  0  0  0  0  0  0  0  0  0
    2.5348    2.5633    5.0690 C   0  0  0  0  0  0  0  0  0  0  0  0
    2.8542    3.9171    5.1541 C   0  0  0  0  0  0  0  0  0  0  0  0
    3.4487    4.5461    4.0541 C   0  0  0  0  0  0  0  0  0  0  0  0
    3.7231    5.8933    4.1990 O   0  0  0  0  0  0  0  0  0  0  0  0
    4.7656    6.4438    3.5122 C   0  0  1  0  0  0  0  0  0  0  0  0
    4.4044    6.7428    2.2357 F   0  0  0  0  0  0  0  0  0  0  0  0
    5.0775    7.5953    4.1194 F   0  0  0  0  0  0  0  0  0  0  0  0
    3.7154    3.8354    2.8804 C   0  0  0  0  0  0  0  0  0  0  0  0
    2.0419   -2.0796    0.5911 H   0  0  0  0  0  0  0  0  0  0  0  0
    1.6516   -0.6250    1.2257 H   0  0  0  0  0  0  0  0  0  0  0  0
    3.4376   -0.2624   -0.4120 H   0  0  0  0  0  0  0  0  0  0  0  0
    4.3327   -1.5382    0.4299 H   0  0  0  0  0  0  0  0  0  0  0  0
    4.4481   -0.1025    2.5003 H   0  0  0  0  0  0  0  0  0  0  0  0
    5.2355    1.5114   -0.0566 H   0  0  0  0  0  0  0  0  0  0  0  0
    5.9003    1.7291    1.6439 H   0  0  0  0  0  0  0  0  0  0  0  0
    2.9329    1.9520    0.7319 H   0  0  0  0  0  0  0  0  0  0  0  0
    2.5571    0.7767    3.8444 H   0  0  0  0  0  0  0  0  0  0  0  0
    2.0691    2.0652    5.9232 H   0  0  0  0  0  0  0  0  0  0  0  0
    2.6570    4.5014    6.0547 H   0  0  0  0  0  0  0  0  0  0  0  0
    5.6497    5.7811    3.4729 H   0  0  0  0  0  0  0  0  0  0  0  0
    4.1400    4.3405    2.0117 H   0  0  0  0  0  0  0  0  0  0  0  0
  1  2  1  0
  1 16  1  0
  1 17  1  0
  2  3  1  0
  2 18  1  0
  2 19  1  0
  3  4  1  0
  3  5  1  0
  3 20  1  1
  4  5  1  0
  4 21  1  0
  4 22  1  0
  5  6  1  0
  5 23  1  6
  6  7  2  0
  6 15  1  0
  7  8  1  0
  7 24  1  0
  8  9  2  0
  8 25  1  0
  9 10  1  0
  9 26  1  0
 10 11  1  0
 10 15  2  0
 11 12  1  0
 12 13  1  0
 12 14  1  0
 12 27  1  6
 15 28  1  0
M  END

