
     RDKit          3D

 41 44  0  0  0  0  0  0  0  0999 V2000
    5.3459    0.7622    0.5861 O   0  0  0  0  0  0  0  0  0  0  0  0
    5.0784    0.2398    1.6424 C   0  0  0  0  0  0  0  0  0  0  0  0
    3.6187   -0.0334    2.0423 C   0  0  0  0  0  0  0  0  0  0  0  0
    3.0724   -1.7845    1.8734 S   0  0  0  0  0  0  0  0  0  0  0  0
    3.5669   -2.4136    3.4364 C   0  0  0  0  0  0  0  0  0  0  0  0
    4.4076   -1.8705    4.2887 N   0  0  0  0  0  0  0  0  0  0  0  0
    4.5137   -2.6967    5.3666 N   0  0  0  0  0  0  0  0  0  0  0  0
    3.7443   -3.7414    5.1658 C   0  0  0  0  0  0  0  0  0  0  0  0
    3.6412   -4.8640    6.1086 C   0  0  0  0  0  0  0  0  0  0  0  0
    4.7171   -5.1061    6.9827 C   0  0  0  0  0  0  0  0  0  0  0  0
    4.6228   -6.1510    7.8961 C   0  0  0  0  0  0  0  0  0  0  0  0
    3.4574   -6.9267    7.9085 C   0  0  0  0  0  0  0  0  0  0  0  0
    2.4221   -6.6991    7.0987 N   0  0  0  0  0  0  0  0  0  0  0  0
    2.5096   -5.6920    6.2294 C   0  0  0  0  0  0  0  0  0  0  0  0
    3.1073   -3.6120    3.9321 N   0  0  0  0  0  0  0  0  0  0  0  0
    2.2200   -4.4993    3.2485 C   0  0  0  0  0  0  0  0  0  0  0  0
    2.7408   -5.5539    2.4890 C   0  0  0  0  0  0  0  0  0  0  0  0
    1.8870   -6.4157    1.7998 C   0  0  0  0  0  0  0  0  0  0  0  0
    0.5045   -6.2187    1.8618 C   0  0  0  0  0  0  0  0  0  0  0  0
   -0.0278   -5.1681    2.6122 C   0  0  0  0  0  0  0  0  0  0  0  0
    0.8270   -4.3088    3.3073 C   0  0  0  0  0  0  0  0  0  0  0  0
    0.1614   -3.0238    4.2741 Cl  0  0  0  0  0  0  0  0  0  0  0  0
    5.9838   -0.1492    2.6129 N   0  0  0  0  0  0  0  0  0  0  0  0
    7.3628   -0.0450    2.5519 C   0  0  0  0  0  0  0  0  0  0  0  0
    8.0653    0.5857    1.6633 N   0  0  0  0  0  0  0  0  0  0  0  0
    9.4058    0.4742    1.9284 C   0  0  0  0  0  0  0  0  0  0  0  0
    9.7512   -0.2474    3.0371 C   0  0  0  0  0  0  0  0  0  0  0  0
    8.3170   -0.8440    3.8175 S   0  0  0  0  0  0  0  0  0  0  0  0
    2.9889    0.5140    1.3301 H   0  0  0  0  0  0  0  0  0  0  0  0
    3.3945    0.2939    3.0679 H   0  0  0  0  0  0  0  0  0  0  0  0
    5.6021   -4.4696    6.9282 H   0  0  0  0  0  0  0  0  0  0  0  0
    5.4402   -6.3686    8.5872 H   0  0  0  0  0  0  0  0  0  0  0  0
    3.3575   -7.7648    8.6084 H   0  0  0  0  0  0  0  0  0  0  0  0
    1.6265   -5.5194    5.6090 H   0  0  0  0  0  0  0  0  0  0  0  0
    3.8237   -5.6858    2.4478 H   0  0  0  0  0  0  0  0  0  0  0  0
    2.3021   -7.2374    1.2128 H   0  0  0  0  0  0  0  0  0  0  0  0
   -0.1702   -6.8878    1.3228 H   0  0  0  0  0  0  0  0  0  0  0  0
   -1.1053   -5.0078    2.6711 H   0  0  0  0  0  0  0  0  0  0  0  0
    5.5842   -0.6522    3.4213 H   0  0  0  0  0  0  0  0  0  0  0  0
   10.1225    0.9583    1.2619 H   0  0  0  0  0  0  0  0  0  0  0  0
   10.7413   -0.4550    3.4377 H   0  0  0  0  0  0  0  0  0  0  0  0
  1  2  2  0
  2  3  1  0
  2 23  1  0
  3  4  1  0
  3 29  1  0
  3 30  1  0
  4  5  1  0
  5  6  2  0
  5 15  1  0
  6  7  1  0
  7  8  2  0
  8  9  1  0
  8 15  1  0
  9 10  2  0
  9 14  1  0
 10 11  1  0
 10 31  1  0
 11 12  2  0
 11 32  1  0
 12 13  1  0
 12 33  1  0
 13 14  2  0
 14 34  1  0
 15 16  1  0
 16 17  2  0
 16 21  1  0
 17 18  1  0
 17 35  1  0
 18 19  2  0
 18 36  1  0
 19 20  1  0
 19 37  1  0
 20 21  2  0
 20 38  1  0
 21 22  1  0
 23 24  1  0
 23 39  1  0
 24 25  2  0
 24 28  1  0
 25 26  1  0
 26 27  2  0
 26 40  1  0
 27 28  1  0
 27 41  1  0
M  END

