
     RDKit          3D

 58 59  0  0  0  0  0  0  0  0999 V2000
    3.7726   -1.1697    0.8324 C   0  0  0  0  0  0  0  0  0  0  0  0
    3.2968   -0.5014   -0.4309 C   0  0  0  0  0  0  0  0  0  0  0  0
    3.7382    0.7700   -0.6391 N   0  0  0  0  0  0  0  0  0  0  0  0
    4.3438    1.2107    0.0489 H   0  0  0  0  0  0  0  0  0  0  0  0
    3.4483    1.5963   -1.7376 C   0  0  0  0  0  0  0  0  0  0  0  0
    3.9068    2.7226   -1.7974 O   0  0  0  0  0  0  0  0  0  0  0  0
    2.5823    0.9408   -2.7182 C   0  0  0  0  0  0  0  0  0  0  0  0
    2.2453    1.7122   -3.8751 C   0  0  0  0  0  0  0  0  0  0  0  0
    1.9573    2.3204   -4.8224 N   0  0  0  0  0  0  0  0  0  0  0  0
    2.1149   -0.3587   -2.5420 C   0  0  0  0  0  0  0  0  0  0  0  0
    1.2454   -0.9987   -3.5938 C   0  0  0  0  0  0  0  0  0  0  0  0
    2.4751   -1.1065   -1.3669 C   0  0  0  0  0  0  0  0  0  0  0  0
    1.9575   -2.5129   -1.1418 C   0  0  0  0  0  0  0  0  0  0  0  0
    0.6073   -2.5668   -0.4108 C   0  0  0  0  0  0  0  0  0  0  0  0
    0.0631   -3.9745   -0.2770 C   0  0  0  0  0  0  0  0  0  0  0  0
    0.5425   -4.9543   -0.7968 O   0  0  0  0  0  0  0  0  0  0  0  0
   -1.0476   -3.9868    0.4824 O   0  0  0  0  0  0  0  0  0  0  0  0
   -1.7134   -5.2485    0.7401 C   0  0  1  0  0  0  0  0  0  0  0  0
   -1.2914   -5.9992    0.0557 H   0  0  0  0  0  0  0  0  0  0  0  0
   -1.4816   -5.6545    2.1831 C   0  0  0  0  0  0  0  0  0  0  0  0
   -3.2061   -5.0199    0.4196 C   0  0  0  0  0  0  0  0  0  0  0  0
   -4.0292   -5.0889    1.3104 O   0  0  0  0  0  0  0  0  0  0  0  0
   -3.6020   -4.7053   -0.9870 C   0  0  0  0  0  0  0  0  0  0  0  0
   -2.7518   -4.8622   -2.0925 C   0  0  0  0  0  0  0  0  0  0  0  0
   -3.2023   -4.5753   -3.3845 C   0  0  0  0  0  0  0  0  0  0  0  0
   -4.5079   -4.1171   -3.6248 C   0  0  0  0  0  0  0  0  0  0  0  0
   -5.0331   -3.7875   -5.0339 C   0  0  1  0  0  0  0  0  0  0  0  0
   -3.9686   -4.0145   -6.1224 C   0  0  0  0  0  0  0  0  0  0  0  0
   -6.2489   -4.6906   -5.3488 C   0  0  0  0  0  0  0  0  0  0  0  0
   -5.4673   -2.3036   -5.0821 C   0  0  0  0  0  0  0  0  0  0  0  0
   -5.3523   -3.9659   -2.5046 C   0  0  0  0  0  0  0  0  0  0  0  0
   -4.9156   -4.2568   -1.2182 C   0  0  0  0  0  0  0  0  0  0  0  0
    4.3386   -0.4712    1.4654 H   0  0  0  0  0  0  0  0  0  0  0  0
    4.4294   -2.0246    0.6034 H   0  0  0  0  0  0  0  0  0  0  0  0
    2.9315   -1.5549    1.4274 H   0  0  0  0  0  0  0  0  0  0  0  0
    1.0039   -0.2988   -4.4028 H   0  0  0  0  0  0  0  0  0  0  0  0
    0.3012   -1.3673   -3.1641 H   0  0  0  0  0  0  0  0  0  0  0  0
    1.7551   -1.8700   -4.0375 H   0  0  0  0  0  0  0  0  0  0  0  0
    2.6886   -3.1052   -0.5722 H   0  0  0  0  0  0  0  0  0  0  0  0
    1.8550   -3.0436   -2.0980 H   0  0  0  0  0  0  0  0  0  0  0  0
   -0.1603   -1.9740   -0.9371 H   0  0  0  0  0  0  0  0  0  0  0  0
    0.6643   -2.1235    0.5968 H   0  0  0  0  0  0  0  0  0  0  0  0
   -0.4062   -5.7941    2.3684 H   0  0  0  0  0  0  0  0  0  0  0  0
   -2.0007   -6.6001    2.3961 H   0  0  0  0  0  0  0  0  0  0  0  0
   -1.8772   -4.8925    2.8688 H   0  0  0  0  0  0  0  0  0  0  0  0
   -1.7293   -5.2242   -1.9687 H   0  0  0  0  0  0  0  0  0  0  0  0
   -2.5098   -4.7209   -4.2134 H   0  0  0  0  0  0  0  0  0  0  0  0
   -3.6354   -5.0634   -6.1608 H   0  0  0  0  0  0  0  0  0  0  0  0
   -3.0828   -3.3777   -5.9719 H   0  0  0  0  0  0  0  0  0  0  0  0
   -4.3881   -3.7659   -7.1097 H   0  0  0  0  0  0  0  0  0  0  0  0
   -5.9683   -5.7555   -5.3230 H   0  0  0  0  0  0  0  0  0  0  0  0
   -6.6408   -4.4661   -6.3542 H   0  0  0  0  0  0  0  0  0  0  0  0
   -7.0698   -4.5425   -4.6311 H   0  0  0  0  0  0  0  0  0  0  0  0
   -4.6194   -1.6352   -4.8635 H   0  0  0  0  0  0  0  0  0  0  0  0
   -6.2643   -2.0829   -4.3560 H   0  0  0  0  0  0  0  0  0  0  0  0
   -5.8499   -2.0500   -6.0841 H   0  0  0  0  0  0  0  0  0  0  0  0
   -6.3775   -3.6146   -2.6406 H   0  0  0  0  0  0  0  0  0  0  0  0
   -5.5825   -4.1448   -0.3611 H   0  0  0  0  0  0  0  0  0  0  0  0
  1  2  1  0
  1 33  1  0
  1 34  1  0
  1 35  1  0
  2  3  1  0
  2 12  2  0
  3  4  1  0
  3  5  1  0
  5  6  2  0
  5  7  1  0
  7  8  1  0
  7 10  2  0
  8  9  3  0
 10 11  1  0
 10 12  1  0
 11 36  1  0
 11 37  1  0
 11 38  1  0
 12 13  1  0
 13 14  1  0
 13 39  1  0
 13 40  1  0
 14 15  1  0
 14 41  1  0
 14 42  1  0
 15 16  2  0
 15 17  1  0
 17 18  1  0
 18 19  1  6
 18 20  1  0
 18 21  1  0
 20 43  1  0
 20 44  1  0
 20 45  1  0
 21 22  2  0
 21 23  1  0
 23 24  2  0
 23 32  1  0
 24 25  1  0
 24 46  1  0
 25 26  2  0
 25 47  1  0
 26 27  1  0
 26 31  1  0
 27 28  1  6
 27 29  1  0
 27 30  1  0
 28 48  1  0
 28 49  1  0
 28 50  1  0
 29 51  1  0
 29 52  1  0
 29 53  1  0
 30 54  1  0
 30 55  1  0
 30 56  1  0
 31 32  2  0
 31 57  1  0
 32 58  1  0
M  END

