
     RDKit          3D

 27 29  0  0  0  0  0  0  0  0999 V2000
    6.9219    0.6581    5.1738 Br  0  0  0  0  0  0  0  0  0  0  0  0
    6.7137    0.2830    3.3355 C   0  0  0  0  0  0  0  0  0  0  0  0
    6.4634    1.3080    2.3666 C   0  0  0  0  0  0  0  0  0  0  0  0
    6.3459    0.8253    1.0901 C   0  0  0  0  0  0  0  0  0  0  0  0
    6.0597    1.5885   -0.1902 C   0  0  0  0  0  0  0  0  0  0  0  0
    5.8856    3.0117   -0.0396 N   0  0  0  0  0  0  0  0  0  0  0  0
    6.9552    3.9027    0.0995 C   0  0  0  0  0  0  0  0  0  0  0  0
    8.3030    3.5395    0.1332 C   0  0  0  0  0  0  0  0  0  0  0  0
    9.3361    4.5044    0.2416 C   0  0  0  0  0  0  0  0  0  0  0  0
    9.0698    5.8600    0.3393 C   0  0  0  0  0  0  0  0  0  0  0  0
    7.7161    6.2636    0.3016 C   0  0  0  0  0  0  0  0  0  0  0  0
    7.0058    7.5085    0.3336 C   0  0  0  0  0  0  0  0  0  0  0  0
    5.7033    7.3281    0.2217 N   0  0  0  0  0  0  0  0  0  0  0  0
    5.5128    5.9956    0.1330 N   0  0  0  0  0  0  0  0  0  0  0  0
    4.5850    5.6495   -0.0717 H   0  0  0  0  0  0  0  0  0  0  0  0
    6.6927    5.2952    0.1665 C   0  0  0  0  0  0  0  0  0  0  0  0
    6.5421   -0.9114    1.0570 S   0  0  0  0  0  0  0  0  0  0  0  0
    6.7833   -0.9720    2.7827 C   0  0  0  0  0  0  0  0  0  0  0  0
    7.0902   -2.6096    3.6411 Br  0  0  0  0  0  0  0  0  0  0  0  0
    6.3907    2.3640    2.6251 H   0  0  0  0  0  0  0  0  0  0  0  0
    5.1455    1.1777   -0.6543 H   0  0  0  0  0  0  0  0  0  0  0  0
    6.8667    1.4112   -0.9211 H   0  0  0  0  0  0  0  0  0  0  0  0
    5.0391    3.2791    0.4518 H   0  0  0  0  0  0  0  0  0  0  0  0
    8.5784    2.4844    0.0995 H   0  0  0  0  0  0  0  0  0  0  0  0
   10.3701    4.1514    0.2651 H   0  0  0  0  0  0  0  0  0  0  0  0
    9.8748    6.5910    0.4376 H   0  0  0  0  0  0  0  0  0  0  0  0
    7.4103    8.5160    0.4299 H   0  0  0  0  0  0  0  0  0  0  0  0
  1  2  1  0
  2  3  1  0
  2 18  2  0
  3  4  2  0
  3 20  1  0
  4  5  1  0
  4 17  1  0
  5  6  1  0
  5 21  1  0
  5 22  1  0
  6  7  1  0
  6 23  1  0
  7  8  2  0
  7 16  1  0
  8  9  1  0
  8 24  1  0
  9 10  2  0
  9 25  1  0
 10 11  1  0
 10 26  1  0
 11 12  1  0
 11 16  2  0
 12 13  2  0
 12 27  1  0
 13 14  1  0
 14 15  1  0
 14 16  1  0
 17 18  1  0
 18 19  1  0
M  END

