
     RDKit          3D

 46 48  0  0  0  0  0  0  0  0999 V2000
    1.0935   -1.2707   -1.8583 O   0  0  0  0  0  0  0  0  0  0  0  0
    2.1109   -1.7611   -1.4523 C   0  0  0  0  0  0  0  0  0  0  0  0
    2.8031   -2.6579   -2.1807 O   0  0  0  0  0  0  0  0  0  0  0  0
    2.6915   -1.4531   -0.0625 C   0  0  2  0  0  0  0  0  0  0  0  0
    2.2194   -0.5199    0.2672 H   0  0  0  0  0  0  0  0  0  0  0  0
    4.2237   -1.3957   -0.0504 C   0  0  0  0  0  0  0  0  0  0  0  0
    4.5822   -2.8233   -0.0123 N   0  0  0  0  0  0  0  0  0  0  0  0
    5.9586   -3.1329   -0.0182 C   0  0  0  0  0  0  0  0  0  0  0  0
    6.7980   -2.2818   -0.2023 O   0  0  0  0  0  0  0  0  0  0  0  0
    6.2159   -4.4814    0.1735 N   0  0  0  0  0  0  0  0  0  0  0  0
    7.5110   -5.0361    0.3216 C   0  0  0  0  0  0  0  0  0  0  0  0
    7.8598   -6.2049   -0.3740 C   0  0  0  0  0  0  0  0  0  0  0  0
    9.1200   -6.7536   -0.1746 C   0  0  0  0  0  0  0  0  0  0  0  0
   10.0394   -6.1232    0.6929 C   0  0  0  0  0  0  0  0  0  0  0  0
   11.3373   -6.6122    0.8751 N   0  0  0  0  0  0  0  0  0  0  0  0
   11.5473   -8.0576    0.9661 C   0  0  0  0  0  0  0  0  0  0  0  0
   13.0128   -8.4044    0.7213 C   0  0  0  0  0  0  0  0  0  0  0  0
   13.8632   -7.6949    1.5943 O   0  0  0  0  0  0  0  0  0  0  0  0
   13.7057   -6.3028    1.4297 C   0  0  0  0  0  0  0  0  0  0  0  0
   12.2703   -5.8547    1.7013 C   0  0  0  0  0  0  0  0  0  0  0  0
    9.5665   -4.9542    1.3354 C   0  0  0  0  0  0  0  0  0  0  0  0
    8.3497   -4.4445    1.1604 N   0  0  0  0  0  0  0  0  0  0  0  0
    3.6052   -3.5692    0.8043 C   0  0  0  0  0  0  0  0  0  0  0  0
    2.3798   -2.6269    0.9109 C   0  0  1  0  0  0  0  0  0  0  0  0
    1.4489   -3.1409    0.6298 H   0  0  0  0  0  0  0  0  0  0  0  0
    2.1460   -2.1520    2.3386 C   0  0  1  0  0  0  0  0  0  0  0  0
    3.2109   -1.4978    2.8418 F   0  0  0  0  0  0  0  0  0  0  0  0
    1.0945   -1.3249    2.4103 F   0  0  0  0  0  0  0  0  0  0  0  0
    1.9009   -3.1954    3.1513 F   0  0  0  0  0  0  0  0  0  0  0  0
    3.6126   -2.9228   -1.6932 H   0  0  0  0  0  0  0  0  0  0  0  0
    4.6001   -0.8591    0.8358 H   0  0  0  0  0  0  0  0  0  0  0  0
    4.6595   -0.9165   -0.9372 H   0  0  0  0  0  0  0  0  0  0  0  0
    5.4635   -5.1366    0.0009 H   0  0  0  0  0  0  0  0  0  0  0  0
    7.1621   -6.6690   -1.0755 H   0  0  0  0  0  0  0  0  0  0  0  0
    9.3994   -7.6520   -0.7265 H   0  0  0  0  0  0  0  0  0  0  0  0
   10.9331   -8.5818    0.2223 H   0  0  0  0  0  0  0  0  0  0  0  0
   11.2478   -8.4318    1.9686 H   0  0  0  0  0  0  0  0  0  0  0  0
   13.2717   -8.1811   -0.3347 H   0  0  0  0  0  0  0  0  0  0  0  0
   13.1819   -9.4770    0.9009 H   0  0  0  0  0  0  0  0  0  0  0  0
   13.9918   -6.0037    0.4002 H   0  0  0  0  0  0  0  0  0  0  0  0
   14.3917   -5.8113    2.1359 H   0  0  0  0  0  0  0  0  0  0  0  0
   12.1899   -4.7848    1.4592 H   0  0  0  0  0  0  0  0  0  0  0  0
   12.0457   -5.9729    2.7833 H   0  0  0  0  0  0  0  0  0  0  0  0
   10.2023   -4.4129    2.0405 H   0  0  0  0  0  0  0  0  0  0  0  0
    4.0147   -3.8214    1.7962 H   0  0  0  0  0  0  0  0  0  0  0  0
    3.3181   -4.5148    0.3160 H   0  0  0  0  0  0  0  0  0  0  0  0
  1  2  2  0
  2  3  1  0
  2  4  1  0
  3 30  1  0
  4  5  1  1
  4  6  1  0
  4 24  1  0
  6  7  1  0
  6 31  1  0
  6 32  1  0
  7  8  1  0
  7 23  1  0
  8  9  2  0
  8 10  1  0
 10 11  1  0
 10 33  1  0
 11 12  2  0
 11 22  1  0
 12 13  1  0
 12 34  1  0
 13 14  2  0
 13 35  1  0
 14 15  1  0
 14 21  1  0
 15 16  1  0
 15 20  1  0
 16 17  1  0
 16 36  1  0
 16 37  1  0
 17 18  1  0
 17 38  1  0
 17 39  1  0
 18 19  1  0
 19 20  1  0
 19 40  1  0
 19 41  1  0
 20 42  1  0
 20 43  1  0
 21 22  2  0
 21 44  1  0
 23 24  1  0
 23 45  1  0
 23 46  1  0
 24 25  1  6
 24 26  1  0
 26 27  1  1
 26 28  1  0
 26 29  1  0
M  END

