
     RDKit          3D

 42 43  0  0  0  0  0  0  0  0999 V2000
    0.7039    0.0107   -0.1418 C   0  0  0  0  0  0  0  0  0  0  0  0
    2.2293   -0.0919   -0.0140 C   0  0  1  0  0  0  0  0  0  0  0  0
    2.7514   -1.5315   -0.1883 C   0  0  0  0  0  0  0  0  0  0  0  0
    2.7090   -1.9785   -1.6638 C   0  0  2  0  0  0  0  0  0  0  0  0
    3.3062   -3.3670   -1.8913 C   0  0  0  0  0  0  0  0  0  0  0  0
    4.1201   -3.6227   -2.7366 O   0  0  0  0  0  0  0  0  0  0  0  0
    2.8418   -4.3452   -1.0787 O   0  0  0  0  0  0  0  0  0  0  0  0
    3.4020   -0.9433   -2.5559 C   0  0  0  0  0  0  0  0  0  0  0  0
    2.8202    0.3809   -2.3783 N   0  0  0  0  0  0  0  0  0  0  0  0
    3.3096    1.3554   -3.3494 C   0  0  0  0  0  0  0  0  0  0  0  0
    2.7830    1.1530   -4.7744 C   0  0  0  0  0  0  0  0  0  0  0  0
    1.2502    1.2390   -4.8835 C   0  0  0  0  0  0  0  0  0  0  0  0
    0.7370    1.0446   -6.2922 C   0  0  0  0  0  0  0  0  0  0  0  0
    0.4844   -0.2405   -6.7994 C   0  0  0  0  0  0  0  0  0  0  0  0
    0.0448   -0.4355   -8.1104 C   0  0  0  0  0  0  0  0  0  0  0  0
   -0.1492    0.6732   -8.9385 C   0  0  0  0  0  0  0  0  0  0  0  0
   -0.7047    0.4425  -10.5829 Cl  0  0  0  0  0  0  0  0  0  0  0  0
    0.0917    1.9646   -8.4632 C   0  0  0  0  0  0  0  0  0  0  0  0
    0.5321    2.1379   -7.1489 C   0  0  0  0  0  0  0  0  0  0  0  0
    2.9577    0.8367   -1.0002 C   0  0  0  0  0  0  0  0  0  0  0  0
    0.1973   -0.6701    0.5620 H   0  0  0  0  0  0  0  0  0  0  0  0
    0.3631   -0.2277   -1.1603 H   0  0  0  0  0  0  0  0  0  0  0  0
    0.3629    1.0339    0.0839 H   0  0  0  0  0  0  0  0  0  0  0  0
    2.5061    0.2368    1.0030 H   0  0  0  0  0  0  0  0  0  0  0  0
    2.1669   -2.2098    0.4600 H   0  0  0  0  0  0  0  0  0  0  0  0
    3.7960   -1.5853    0.1651 H   0  0  0  0  0  0  0  0  0  0  0  0
    1.6506   -2.0459   -1.9785 H   0  0  0  0  0  0  0  0  0  0  0  0
    2.2004   -3.9865   -0.4491 H   0  0  0  0  0  0  0  0  0  0  0  0
    3.3132   -1.2582   -3.6038 H   0  0  0  0  0  0  0  0  0  0  0  0
    4.4928   -0.9448   -2.3259 H   0  0  0  0  0  0  0  0  0  0  0  0
    4.4238    1.3755   -3.3738 H   0  0  0  0  0  0  0  0  0  0  0  0
    2.9933    2.3530   -3.0006 H   0  0  0  0  0  0  0  0  0  0  0  0
    3.1262    0.1871   -5.1820 H   0  0  0  0  0  0  0  0  0  0  0  0
    3.2429    1.9219   -5.4186 H   0  0  0  0  0  0  0  0  0  0  0  0
    0.9196    2.2209   -4.5028 H   0  0  0  0  0  0  0  0  0  0  0  0
    0.8091    0.4847   -4.2133 H   0  0  0  0  0  0  0  0  0  0  0  0
    0.6295   -1.1125   -6.1547 H   0  0  0  0  0  0  0  0  0  0  0  0
   -0.1513   -1.4391   -8.4917 H   0  0  0  0  0  0  0  0  0  0  0  0
   -0.0683    2.8229   -9.1180 H   0  0  0  0  0  0  0  0  0  0  0  0
    0.7150    3.1520   -6.7812 H   0  0  0  0  0  0  0  0  0  0  0  0
    2.5411    1.8540   -0.9227 H   0  0  0  0  0  0  0  0  0  0  0  0
    4.0321    0.9081   -0.7049 H   0  0  0  0  0  0  0  0  0  0  0  0
  1  2  1  0
  1 21  1  0
  1 22  1  0
  1 23  1  0
  2  3  1  0
  2 20  1  0
  2 24  1  1
  3  4  1  0
  3 25  1  0
  3 26  1  0
  4  5  1  0
  4  8  1  0
  4 27  1  6
  5  6  2  0
  5  7  1  0
  7 28  1  0
  8  9  1  0
  8 29  1  0
  8 30  1  0
  9 10  1  0
  9 20  1  0
 10 11  1  0
 10 31  1  0
 10 32  1  0
 11 12  1  0
 11 33  1  0
 11 34  1  0
 12 13  1  0
 12 35  1  0
 12 36  1  0
 13 14  2  0
 13 19  1  0
 14 15  1  0
 14 37  1  0
 15 16  2  0
 15 38  1  0
 16 17  1  0
 16 18  1  0
 18 19  2  0
 18 39  1  0
 19 40  1  0
 20 41  1  0
 20 42  1  0
M  END

