
     RDKit          3D

 51 55  0  0  0  0  0  0  0  0999 V2000
   -1.2147   -0.6262   -1.0087 C   0  0  0  0  0  0  0  0  0  0  0  0
    0.2240   -0.9783   -0.7196 C   0  0  0  0  0  0  0  0  0  0  0  0
    1.1537    0.0389   -0.3737 C   0  0  0  0  0  0  0  0  0  0  0  0
    0.6816    1.3635   -0.3588 N   0  0  0  0  0  0  0  0  0  0  0  0
    1.3574    2.5263   -0.0350 C   0  0  0  0  0  0  0  0  0  0  0  0
    2.5405    2.5859    0.2448 O   0  0  0  0  0  0  0  0  0  0  0  0
    0.4660    3.7231   -0.0276 C   0  0  0  0  0  0  0  0  0  0  0  0
   -0.8635    3.8220    0.3640 C   0  0  0  0  0  0  0  0  0  0  0  0
   -1.1564    5.2106    0.3567 C   0  0  0  0  0  0  0  0  0  0  0  0
   -2.4188    5.8937    0.6943 C   0  0  0  0  0  0  0  0  0  0  0  0
   -3.5499    5.1692    1.1092 C   0  0  0  0  0  0  0  0  0  0  0  0
   -4.7411    5.8252    1.4268 C   0  0  0  0  0  0  0  0  0  0  0  0
   -4.8231    7.2175    1.3349 C   0  0  0  0  0  0  0  0  0  0  0  0
   -3.7033    7.9483    0.9224 C   0  0  0  0  0  0  0  0  0  0  0  0
   -2.5127    7.2951    0.6050 C   0  0  0  0  0  0  0  0  0  0  0  0
   -0.0779    5.9010   -0.0237 N   0  0  0  0  0  0  0  0  0  0  0  0
    0.8963    5.0095   -0.2500 N   0  0  0  0  0  0  0  0  0  0  0  0
    2.1614    5.4822   -0.7200 C   0  0  0  0  0  0  0  0  0  0  0  0
    2.7258    6.6079   -0.1095 C   0  0  0  0  0  0  0  0  0  0  0  0
    3.9434    7.1055   -0.5760 C   0  0  0  0  0  0  0  0  0  0  0  0
    4.5981    6.4831   -1.6435 C   0  0  0  0  0  0  0  0  0  0  0  0
    4.0233    5.3633   -2.2519 C   0  0  0  0  0  0  0  0  0  0  0  0
    2.8011    4.8638   -1.7989 C   0  0  0  0  0  0  0  0  0  0  0  0
    2.4853   -0.2800   -0.0535 C   0  0  0  0  0  0  0  0  0  0  0  0
    2.9096   -1.6070   -0.0877 C   0  0  0  0  0  0  0  0  0  0  0  0
    2.0306   -2.6234   -0.4515 C   0  0  0  0  0  0  0  0  0  0  0  0
    0.7041   -2.2997   -0.7606 C   0  0  0  0  0  0  0  0  0  0  0  0
   -0.1685   -3.3761   -1.1137 N   0  0  0  0  0  0  0  0  0  0  0  0
   -0.4340   -4.5229   -0.4442 C   0  0  0  0  0  0  0  0  0  0  0  0
   -1.2531   -5.2536   -1.1652 N   0  0  0  0  0  0  0  0  0  0  0  0
   -1.4849   -4.5438   -2.2940 N   0  0  0  0  0  0  0  0  0  0  0  0
   -0.8467   -3.4275   -2.2850 N   0  0  0  0  0  0  0  0  0  0  0  0
   -1.6446   -0.0155   -0.1962 H   0  0  0  0  0  0  0  0  0  0  0  0
   -1.8449   -1.5134   -1.1251 H   0  0  0  0  0  0  0  0  0  0  0  0
   -1.3104   -0.0544   -1.9484 H   0  0  0  0  0  0  0  0  0  0  0  0
   -0.2729    1.4953   -0.6682 H   0  0  0  0  0  0  0  0  0  0  0  0
   -1.5111    3.0063    0.6749 H   0  0  0  0  0  0  0  0  0  0  0  0
   -3.5047    4.0805    1.1876 H   0  0  0  0  0  0  0  0  0  0  0  0
   -5.6097    5.2446    1.7480 H   0  0  0  0  0  0  0  0  0  0  0  0
   -5.7553    7.7312    1.5832 H   0  0  0  0  0  0  0  0  0  0  0  0
   -3.7590    9.0374    0.8469 H   0  0  0  0  0  0  0  0  0  0  0  0
   -1.6373    7.8606    0.2814 H   0  0  0  0  0  0  0  0  0  0  0  0
    2.2016    7.0821    0.7209 H   0  0  0  0  0  0  0  0  0  0  0  0
    4.3850    7.9831   -0.0978 H   0  0  0  0  0  0  0  0  0  0  0  0
    5.5531    6.8730   -2.0041 H   0  0  0  0  0  0  0  0  0  0  0  0
    4.5231    4.8782   -3.0938 H   0  0  0  0  0  0  0  0  0  0  0  0
    2.3425    4.0048   -2.2909 H   0  0  0  0  0  0  0  0  0  0  0  0
    3.1694    0.5224    0.2101 H   0  0  0  0  0  0  0  0  0  0  0  0
    3.9473   -1.8454    0.1558 H   0  0  0  0  0  0  0  0  0  0  0  0
    2.3631   -3.6607   -0.5181 H   0  0  0  0  0  0  0  0  0  0  0  0
   -0.0330   -4.7638    0.5382 H   0  0  0  0  0  0  0  0  0  0  0  0
  1  2  1  0
  1 33  1  0
  1 34  1  0
  1 35  1  0
  2  3  2  0
  2 27  1  0
  3  4  1  0
  3 24  1  0
  4  5  1  0
  4 36  1  0
  5  6  2  0
  5  7  1  0
  7  8  2  0
  7 17  1  0
  8  9  1  0
  8 37  1  0
  9 10  1  0
  9 16  2  0
 10 11  2  0
 10 15  1  0
 11 12  1  0
 11 38  1  0
 12 13  2  0
 12 39  1  0
 13 14  1  0
 13 40  1  0
 14 15  2  0
 14 41  1  0
 15 42  1  0
 16 17  1  0
 17 18  1  0
 18 19  2  0
 18 23  1  0
 19 20  1  0
 19 43  1  0
 20 21  2  0
 20 44  1  0
 21 22  1  0
 21 45  1  0
 22 23  2  0
 22 46  1  0
 23 47  1  0
 24 25  2  0
 24 48  1  0
 25 26  1  0
 25 49  1  0
 26 27  2  0
 26 50  1  0
 27 28  1  0
 28 29  1  0
 28 32  1  0
 29 30  2  0
 29 51  1  0
 30 31  1  0
 31 32  2  0
M  END

