
     RDKit          3D

 40 41  0  0  0  0  0  0  0  0999 V2000
    3.3119   -1.3087   -1.8858 C   0  0  0  0  0  0  0  0  0  0  0  0
    2.9778   -0.3975   -0.7102 C   0  0  0  0  0  0  0  0  0  0  0  0
    3.6371    0.8924   -0.8328 N   0  0  0  0  0  0  0  0  0  0  0  0
    3.3685    1.8197    0.2524 C   0  0  0  0  0  0  0  0  0  0  0  0
    4.1265    3.1237    0.1056 C   0  0  0  0  0  0  0  0  0  0  0  0
    3.5665    4.3367    0.5309 C   0  0  0  0  0  0  0  0  0  0  0  0
    4.2785    5.5334    0.4361 C   0  0  0  0  0  0  0  0  0  0  0  0
    5.5802    5.5653   -0.0971 C   0  0  0  0  0  0  0  0  0  0  0  0
    6.3379    6.8419   -0.2015 C   0  0  0  0  0  0  0  0  0  0  0  0
    6.2401    7.8223    0.7991 C   0  0  0  0  0  0  0  0  0  0  0  0
    6.9605    9.0166    0.6875 C   0  0  0  0  0  0  0  0  0  0  0  0
    7.7821    9.2549   -0.4096 C   0  0  0  0  0  0  0  0  0  0  0  0
    7.8909    8.2830   -1.4201 C   0  0  0  0  0  0  0  0  0  0  0  0
    8.7049    8.5953   -2.4611 O   0  0  0  0  0  0  0  0  0  0  0  0
    8.8780    7.6763   -3.5270 C   0  0  0  0  0  0  0  0  0  0  0  0
    9.8405    8.2905   -4.5256 C   0  0  0  0  0  0  0  0  0  0  0  0
    7.1714    7.0849   -1.3128 C   0  0  0  0  0  0  0  0  0  0  0  0
    6.1340    4.3453   -0.5298 C   0  0  0  0  0  0  0  0  0  0  0  0
    5.4235    3.1492   -0.4294 C   0  0  0  0  0  0  0  0  0  0  0  0
    2.8402   -2.2966   -1.7670 H   0  0  0  0  0  0  0  0  0  0  0  0
    4.4009   -1.4472   -1.9724 H   0  0  0  0  0  0  0  0  0  0  0  0
    2.9498   -0.8816   -2.8368 H   0  0  0  0  0  0  0  0  0  0  0  0
    3.3211   -0.8658    0.2302 H   0  0  0  0  0  0  0  0  0  0  0  0
    1.8705   -0.3070   -0.6130 H   0  0  0  0  0  0  0  0  0  0  0  0
    3.3961    1.3276   -1.7241 H   0  0  0  0  0  0  0  0  0  0  0  0
    3.6791    1.3265    1.1943 H   0  0  0  0  0  0  0  0  0  0  0  0
    2.2853    2.0446    0.3837 H   0  0  0  0  0  0  0  0  0  0  0  0
    2.5495    4.3488    0.9346 H   0  0  0  0  0  0  0  0  0  0  0  0
    3.8038    6.4648    0.7531 H   0  0  0  0  0  0  0  0  0  0  0  0
    5.6221    7.6407    1.6804 H   0  0  0  0  0  0  0  0  0  0  0  0
    6.8845    9.7701    1.4759 H   0  0  0  0  0  0  0  0  0  0  0  0
    8.3504   10.1812   -0.5136 H   0  0  0  0  0  0  0  0  0  0  0  0
    7.9033    7.4609   -4.0049 H   0  0  0  0  0  0  0  0  0  0  0  0
    9.2735    6.7174   -3.1408 H   0  0  0  0  0  0  0  0  0  0  0  0
    9.4420    9.2396   -4.9158 H   0  0  0  0  0  0  0  0  0  0  0  0
   10.0010    7.6050   -5.3722 H   0  0  0  0  0  0  0  0  0  0  0  0
   10.8131    8.4951   -4.0526 H   0  0  0  0  0  0  0  0  0  0  0  0
    7.2253    6.3369   -2.1026 H   0  0  0  0  0  0  0  0  0  0  0  0
    7.1517    4.3283   -0.9275 H   0  0  0  0  0  0  0  0  0  0  0  0
    5.8683    2.2112   -0.7683 H   0  0  0  0  0  0  0  0  0  0  0  0
  1  2  1  0
  1 20  1  0
  1 21  1  0
  1 22  1  0
  2  3  1  0
  2 23  1  0
  2 24  1  0
  3  4  1  0
  3 25  1  0
  4  5  1  0
  4 26  1  0
  4 27  1  0
  5  6  2  0
  5 19  1  0
  6  7  1  0
  6 28  1  0
  7  8  2  0
  7 29  1  0
  8  9  1  0
  8 18  1  0
  9 10  2  0
  9 17  1  0
 10 11  1  0
 10 30  1  0
 11 12  2  0
 11 31  1  0
 12 13  1  0
 12 32  1  0
 13 14  1  0
 13 17  2  0
 14 15  1  0
 15 16  1  0
 15 33  1  0
 15 34  1  0
 16 35  1  0
 16 36  1  0
 16 37  1  0
 17 38  1  0
 18 19  2  0
 18 39  1  0
 19 40  1  0
M  END

