
     RDKit          3D

 45 47  0  0  0  0  0  0  0  0999 V2000
    5.0460   -2.8848   -5.7892 C   0  0  0  0  0  0  0  0  0  0  0  0
    3.9628   -2.7883   -4.8138 N   0  0  0  0  0  0  0  0  0  0  0  0
    2.8758   -1.9880   -5.0398 C   0  0  0  0  0  0  0  0  0  0  0  0
    1.8545   -1.9046   -4.1358 C   0  0  0  0  0  0  0  0  0  0  0  0
    1.9449   -2.6566   -2.9332 C   0  0  0  0  0  0  0  0  0  0  0  0
    3.0200   -3.4796   -2.6974 C   0  0  0  0  0  0  0  0  0  0  0  0
    3.0982   -4.3123   -1.5660 N   0  0  0  0  0  0  0  0  0  0  0  0
    4.3704   -4.1781   -0.4140 S   0  0  1  0  0  0  0  0  0  0  0  0
    5.1806   -3.0028   -0.7224 O   0  0  0  0  0  0  0  0  0  0  0  0
    3.6732   -4.3290    0.8681 O   0  0  0  0  0  0  0  0  0  0  0  0
    5.3731   -5.6521   -0.6318 C   0  0  0  0  0  0  0  0  0  0  0  0
    6.5834   -5.5690   -1.3228 C   0  0  0  0  0  0  0  0  0  0  0  0
    7.3793   -6.7110   -1.4270 C   0  0  0  0  0  0  0  0  0  0  0  0
    6.9513   -7.9044   -0.8350 C   0  0  0  0  0  0  0  0  0  0  0  0
    8.0109   -9.3633   -0.9196 S   0  0  1  0  0  0  0  0  0  0  0  0
    7.1536  -10.5258   -0.6822 O   0  0  0  0  0  0  0  0  0  0  0  0
    8.8381   -9.2217   -2.1188 O   0  0  0  0  0  0  0  0  0  0  0  0
    9.0286   -9.2500    0.3798 N   0  0  0  0  0  0  0  0  0  0  0  0
   10.2892   -8.4981    0.3513 C   0  0  0  0  0  0  0  0  0  0  0  0
   10.9456   -8.9312    1.6674 C   0  0  0  0  0  0  0  0  0  0  0  0
    9.7485   -9.1010    2.6165 C   0  0  0  0  0  0  0  0  0  0  0  0
    8.6502   -9.7093    1.7266 C   0  0  0  0  0  0  0  0  0  0  0  0
    5.7311   -7.9853   -0.1542 C   0  0  0  0  0  0  0  0  0  0  0  0
    4.9382   -6.8426   -0.0417 C   0  0  0  0  0  0  0  0  0  0  0  0
    4.1091   -3.5901   -3.6678 C   0  0  0  0  0  0  0  0  0  0  0  0
    5.0938   -4.3084   -3.5384 O   0  0  0  0  0  0  0  0  0  0  0  0
    4.8213   -2.2368   -6.6452 H   0  0  0  0  0  0  0  0  0  0  0  0
    5.1614   -3.9256   -6.1245 H   0  0  0  0  0  0  0  0  0  0  0  0
    5.9970   -2.5816   -5.3277 H   0  0  0  0  0  0  0  0  0  0  0  0
    2.8794   -1.4306   -5.9779 H   0  0  0  0  0  0  0  0  0  0  0  0
    0.9986   -1.2603   -4.3352 H   0  0  0  0  0  0  0  0  0  0  0  0
    1.1466   -2.5867   -2.1886 H   0  0  0  0  0  0  0  0  0  0  0  0
    2.2363   -4.3755   -1.0267 H   0  0  0  0  0  0  0  0  0  0  0  0
    6.8766   -4.6289   -1.7872 H   0  0  0  0  0  0  0  0  0  0  0  0
    8.3167   -6.6886   -1.9851 H   0  0  0  0  0  0  0  0  0  0  0  0
   10.1128   -7.4041    0.3383 H   0  0  0  0  0  0  0  0  0  0  0  0
   10.8747   -8.7595   -0.5405 H   0  0  0  0  0  0  0  0  0  0  0  0
   11.6861   -8.2019    2.0283 H   0  0  0  0  0  0  0  0  0  0  0  0
   11.4613   -9.8952    1.5254 H   0  0  0  0  0  0  0  0  0  0  0  0
    9.4249   -8.1157    2.9909 H   0  0  0  0  0  0  0  0  0  0  0  0
    9.9713   -9.7303    3.4908 H   0  0  0  0  0  0  0  0  0  0  0  0
    7.6447   -9.3594    2.0141 H   0  0  0  0  0  0  0  0  0  0  0  0
    8.6404  -10.8110    1.7651 H   0  0  0  0  0  0  0  0  0  0  0  0
    5.4086   -8.9385    0.2677 H   0  0  0  0  0  0  0  0  0  0  0  0
    3.9944   -6.8689    0.5051 H   0  0  0  0  0  0  0  0  0  0  0  0
  1  2  1  0
  1 27  1  0
  1 28  1  0
  1 29  1  0
  2  3  1  0
  2 25  1  0
  3  4  2  0
  3 30  1  0
  4  5  1  0
  4 31  1  0
  5  6  2  0
  5 32  1  0
  6  7  1  0
  6 25  1  0
  8  7  1  6
  7 33  1  0
  8  9  2  0
  8 10  2  0
  8 11  1  0
 11 12  2  0
 11 24  1  0
 12 13  1  0
 12 34  1  0
 13 14  2  0
 13 35  1  0
 15 14  1  1
 14 23  1  0
 15 16  2  0
 15 17  2  0
 15 18  1  0
 18 19  1  0
 18 22  1  0
 19 20  1  0
 19 36  1  0
 19 37  1  0
 20 21  1  0
 20 38  1  0
 20 39  1  0
 21 22  1  0
 21 40  1  0
 21 41  1  0
 22 42  1  0
 22 43  1  0
 23 24  2  0
 23 44  1  0
 24 45  1  0
 25 26  2  0
M  END

