
     RDKit          3D

 28 30  0  0  0  0  0  0  0  0999 V2000
    5.1267   -0.0455    1.5977 O   0  0  0  0  0  0  0  0  0  0  0  0
    4.4976   -1.0647    1.4777 C   0  0  0  0  0  0  0  0  0  0  0  0
    3.0127   -1.0587    1.0503 C   0  0  0  0  0  0  0  0  0  0  0  0
    2.0856   -1.6509    2.0024 N   0  0  0  0  0  0  0  0  0  0  0  0
    1.9164   -3.0197    2.2017 C   0  0  0  0  0  0  0  0  0  0  0  0
    2.5882   -3.8885    1.6742 O   0  0  0  0  0  0  0  0  0  0  0  0
    0.7942   -3.1666    3.1715 C   0  0  0  0  0  0  0  0  0  0  0  0
    0.2237   -4.3090    3.7204 C   0  0  0  0  0  0  0  0  0  0  0  0
   -0.8315   -4.1298    4.6283 C   0  0  0  0  0  0  0  0  0  0  0  0
   -1.2869   -2.8468    4.9654 C   0  0  0  0  0  0  0  0  0  0  0  0
   -0.7036   -1.6993    4.4054 C   0  0  0  0  0  0  0  0  0  0  0  0
    0.3398   -1.8865    3.5075 C   0  0  0  0  0  0  0  0  0  0  0  0
    1.1482   -0.8865    2.7461 C   0  0  0  0  0  0  0  0  0  0  0  0
    1.0549    0.3130    2.7135 O   0  0  0  0  0  0  0  0  0  0  0  0
    5.0035   -2.3506    1.6515 N   0  0  0  0  0  0  0  0  0  0  0  0
    6.2867   -2.6965    2.0312 C   0  0  0  0  0  0  0  0  0  0  0  0
    7.2587   -1.8845    2.3264 N   0  0  0  0  0  0  0  0  0  0  0  0
    8.4040   -2.5334    2.6612 N   0  0  0  0  0  0  0  0  0  0  0  0
    8.3036   -3.8231    2.6212 C   0  0  0  0  0  0  0  0  0  0  0  0
    6.7247   -4.4074    2.1462 S   0  0  0  0  0  0  0  0  0  0  0  0
    2.9108   -1.5778    0.0821 H   0  0  0  0  0  0  0  0  0  0  0  0
    2.7291   -0.0062    0.9324 H   0  0  0  0  0  0  0  0  0  0  0  0
    0.5862   -5.3032    3.4513 H   0  0  0  0  0  0  0  0  0  0  0  0
   -1.3071   -5.0030    5.0813 H   0  0  0  0  0  0  0  0  0  0  0  0
   -2.1099   -2.7408    5.6762 H   0  0  0  0  0  0  0  0  0  0  0  0
   -1.0504   -0.6958    4.6610 H   0  0  0  0  0  0  0  0  0  0  0  0
    4.3413   -3.1175    1.5039 H   0  0  0  0  0  0  0  0  0  0  0  0
    9.1215   -4.5046    2.8603 H   0  0  0  0  0  0  0  0  0  0  0  0
  1  2  2  0
  2  3  1  0
  2 15  1  0
  3  4  1  0
  3 21  1  0
  3 22  1  0
  4  5  1  0
  4 13  1  0
  5  6  2  0
  5  7  1  0
  7  8  1  0
  7 12  2  0
  8  9  2  0
  8 23  1  0
  9 10  1  0
  9 24  1  0
 10 11  2  0
 10 25  1  0
 11 12  1  0
 11 26  1  0
 12 13  1  0
 13 14  2  0
 15 16  1  0
 15 27  1  0
 16 17  2  0
 16 20  1  0
 17 18  1  0
 18 19  2  0
 19 20  1  0
 19 28  1  0
M  END

