
     RDKit          3D

140151  0  0  0  0  0  0  0  0999 V2000
    1.3869    0.9920   -1.1568 N   0  0  0  0  0  0  0  0  0  0  0  0
    2.3654    0.9549   -0.5303 C   0  0  0  0  0  0  0  0  0  0  0  0
    3.6033    0.9995    0.2002 C   0  0  0  0  0  0  0  0  0  0  0  0
    3.7250    0.2639    1.3660 C   0  0  0  0  0  0  0  0  0  0  0  0
    4.8456    0.5043    2.2341 C   0  0  0  0  0  0  0  0  0  0  0  0
    5.7068    0.6634    2.9987 N   0  0  0  0  0  0  0  0  0  0  0  0
    2.7660   -0.7469    1.8663 C   0  0  0  0  0  0  0  0  0  0  0  0
    2.0329   -1.5885    1.0044 C   0  0  0  0  0  0  0  0  0  0  0  0
    1.1378   -2.5293    1.4991 C   0  0  0  0  0  0  0  0  0  0  0  0
    0.9385   -2.6822    2.8871 C   0  0  0  0  0  0  0  0  0  0  0  0
    0.0314   -3.6334    3.3900 N   0  0  0  0  0  0  0  0  0  0  0  0
   -0.1643   -4.8713    2.7111 C   0  0  0  0  0  0  0  0  0  0  0  0
    0.9369   -5.6296    2.2764 C   0  0  0  0  0  0  0  0  0  0  0  0
    0.7388   -6.8406    1.6111 C   0  0  0  0  0  0  0  0  0  0  0  0
   -0.5545   -7.3228    1.3851 C   0  0  0  0  0  0  0  0  0  0  0  0
   -1.6515   -6.5765    1.8272 C   0  0  0  0  0  0  0  0  0  0  0  0
   -1.4626   -5.3567    2.4790 C   0  0  0  0  0  0  0  0  0  0  0  0
   -0.7080   -3.3753    4.5771 C   0  0  0  0  0  0  0  0  0  0  0  0
   -1.3013   -2.1202    4.8012 C   0  0  0  0  0  0  0  0  0  0  0  0
   -2.0198   -1.8761    5.9693 C   0  0  0  0  0  0  0  0  0  0  0  0
   -2.2134   -2.8799    6.9385 C   0  0  0  0  0  0  0  0  0  0  0  0
   -2.9824   -2.6013    8.1879 C   0  0  0  0  0  0  0  0  0  0  0  0
   -3.9522   -3.4456    8.6609 C   0  0  0  0  0  0  0  0  0  0  0  0
   -4.5432   -3.3114   10.0283 C   0  0  0  0  0  0  0  0  0  0  0  0
   -5.9389   -3.3597   10.2123 C   0  0  0  0  0  0  0  0  0  0  0  0
   -6.5003   -3.2526   11.4862 C   0  0  0  0  0  0  0  0  0  0  0  0
   -5.6775   -3.1176   12.6090 C   0  0  0  0  0  0  0  0  0  0  0  0
   -4.2892   -3.0909   12.4449 C   0  0  0  0  0  0  0  0  0  0  0  0
   -3.7288   -3.1849   11.1695 C   0  0  0  0  0  0  0  0  0  0  0  0
   -4.5065   -4.5711    7.8457 C   0  0  0  0  0  0  0  0  0  0  0  0
   -4.6250   -5.8632    8.3934 C   0  0  0  0  0  0  0  0  0  0  0  0
   -5.1605   -6.9143    7.6463 C   0  0  0  0  0  0  0  0  0  0  0  0
   -5.6122   -6.6922    6.3415 C   0  0  0  0  0  0  0  0  0  0  0  0
   -5.5232   -5.4094    5.7921 C   0  0  0  0  0  0  0  0  0  0  0  0
   -4.9746   -4.3617    6.5348 C   0  0  0  0  0  0  0  0  0  0  0  0
   -2.6144   -1.3275    8.8814 C   0  0  0  0  0  0  0  0  0  0  0  0
   -1.2641   -1.0059    9.1195 C   0  0  0  0  0  0  0  0  0  0  0  0
   -0.9098    0.1893    9.7486 C   0  0  0  0  0  0  0  0  0  0  0  0
   -1.8976    1.1012   10.1339 C   0  0  0  0  0  0  0  0  0  0  0  0
   -3.2414    0.8060    9.8845 C   0  0  0  0  0  0  0  0  0  0  0  0
   -3.5957   -0.3953    9.2672 C   0  0  0  0  0  0  0  0  0  0  0  0
   -1.6151   -4.1320    6.7016 C   0  0  0  0  0  0  0  0  0  0  0  0
   -0.8690   -4.3761    5.5512 C   0  0  0  0  0  0  0  0  0  0  0  0
    1.6883   -1.8615    3.7562 C   0  0  0  0  0  0  0  0  0  0  0  0
    2.5820   -0.9247    3.2549 C   0  0  0  0  0  0  0  0  0  0  0  0
    4.6241    1.9030   -0.3760 C   0  0  0  0  0  0  0  0  0  0  0  0
    6.0077    1.6499   -0.2719 C   0  0  0  0  0  0  0  0  0  0  0  0
    6.9463    2.5138   -0.8225 C   0  0  0  0  0  0  0  0  0  0  0  0
    6.5457    3.6751   -1.5167 C   0  0  0  0  0  0  0  0  0  0  0  0
    7.4923    4.5526   -2.0732 N   0  0  0  0  0  0  0  0  0  0  0  0
    8.7384    4.0628   -2.5619 C   0  0  0  0  0  0  0  0  0  0  0  0
    8.7849    2.9411   -3.4080 C   0  0  0  0  0  0  0  0  0  0  0  0
   10.0095    2.4698   -3.8844 C   0  0  0  0  0  0  0  0  0  0  0  0
   11.2010    3.1170   -3.5409 C   0  0  0  0  0  0  0  0  0  0  0  0
   11.1567    4.2398   -2.7083 C   0  0  0  0  0  0  0  0  0  0  0  0
    9.9376    4.7082   -2.2150 C   0  0  0  0  0  0  0  0  0  0  0  0
    7.2305    5.9497   -2.1529 C   0  0  0  0  0  0  0  0  0  0  0  0
    6.7076    6.6512   -1.0530 C   0  0  0  0  0  0  0  0  0  0  0  0
    6.4678    8.0209   -1.1364 C   0  0  0  0  0  0  0  0  0  0  0  0
    6.7483    8.7464   -2.3099 C   0  0  0  0  0  0  0  0  0  0  0  0
    6.4737   10.2113   -2.4129 C   0  0  0  0  0  0  0  0  0  0  0  0
    6.8733   11.1061   -1.4558 C   0  0  0  0  0  0  0  0  0  0  0  0
    6.3908   12.5213   -1.4207 C   0  0  0  0  0  0  0  0  0  0  0  0
    5.0206   12.8311   -1.5109 C   0  0  0  0  0  0  0  0  0  0  0  0
    4.5776   14.1536   -1.4456 C   0  0  0  0  0  0  0  0  0  0  0  0
    5.4947   15.1979   -1.2923 C   0  0  0  0  0  0  0  0  0  0  0  0
    6.8588   14.9061   -1.1913 C   0  0  0  0  0  0  0  0  0  0  0  0
    7.3000   13.5825   -1.2434 C   0  0  0  0  0  0  0  0  0  0  0  0
    7.8300   10.7421   -0.3647 C   0  0  0  0  0  0  0  0  0  0  0  0
    9.0592   10.1179   -0.6492 C   0  0  0  0  0  0  0  0  0  0  0  0
    9.9609    9.8092    0.3715 C   0  0  0  0  0  0  0  0  0  0  0  0
    9.6521   10.1133    1.7010 C   0  0  0  0  0  0  0  0  0  0  0  0
    8.4393   10.7428    1.9988 C   0  0  0  0  0  0  0  0  0  0  0  0
    7.5444   11.0641    0.9762 C   0  0  0  0  0  0  0  0  0  0  0  0
    5.7319   10.6262   -3.6445 C   0  0  0  0  0  0  0  0  0  0  0  0
    6.1963   11.6760   -4.4588 C   0  0  0  0  0  0  0  0  0  0  0  0
    5.5157   12.0361   -5.6237 C   0  0  0  0  0  0  0  0  0  0  0  0
    4.3527   11.3569   -5.9994 C   0  0  0  0  0  0  0  0  0  0  0  0
    3.8832   10.3053   -5.2059 C   0  0  0  0  0  0  0  0  0  0  0  0
    4.5716    9.9375   -4.0481 C   0  0  0  0  0  0  0  0  0  0  0  0
    7.2569    8.0287   -3.4099 C   0  0  0  0  0  0  0  0  0  0  0  0
    7.5006    6.6591   -3.3358 C   0  0  0  0  0  0  0  0  0  0  0  0
    5.1618    3.9213   -1.6466 C   0  0  0  0  0  0  0  0  0  0  0  0
    4.2301    3.0524   -1.0954 C   0  0  0  0  0  0  0  0  0  0  0  0
    2.1642   -1.5181   -0.0755 H   0  0  0  0  0  0  0  0  0  0  0  0
    0.5838   -3.1584    0.8014 H   0  0  0  0  0  0  0  0  0  0  0  0
    1.9485   -5.2644    2.4643 H   0  0  0  0  0  0  0  0  0  0  0  0
    1.6052   -7.4186    1.2790 H   0  0  0  0  0  0  0  0  0  0  0  0
   -0.7061   -8.2743    0.8700 H   0  0  0  0  0  0  0  0  0  0  0  0
   -2.6675   -6.9407    1.6540 H   0  0  0  0  0  0  0  0  0  0  0  0
   -2.3217   -4.7732    2.8155 H   0  0  0  0  0  0  0  0  0  0  0  0
   -1.1962   -1.3321    4.0530 H   0  0  0  0  0  0  0  0  0  0  0  0
   -2.4634   -0.8897    6.1232 H   0  0  0  0  0  0  0  0  0  0  0  0
   -6.5896   -3.4755    9.3422 H   0  0  0  0  0  0  0  0  0  0  0  0
   -7.5870   -3.2791   11.6031 H   0  0  0  0  0  0  0  0  0  0  0  0
   -6.1160   -3.0411   13.6073 H   0  0  0  0  0  0  0  0  0  0  0  0
   -3.6360   -2.9990   13.3167 H   0  0  0  0  0  0  0  0  0  0  0  0
   -2.6436   -3.1662   11.0520 H   0  0  0  0  0  0  0  0  0  0  0  0
   -4.2858   -6.0436    9.4163 H   0  0  0  0  0  0  0  0  0  0  0  0
   -5.2300   -7.9121    8.0877 H   0  0  0  0  0  0  0  0  0  0  0  0
   -6.0393   -7.5128    5.7593 H   0  0  0  0  0  0  0  0  0  0  0  0
   -5.8889   -5.2207    4.7791 H   0  0  0  0  0  0  0  0  0  0  0  0
   -4.9132   -3.3623    6.0996 H   0  0  0  0  0  0  0  0  0  0  0  0
   -0.4850   -1.7083    8.8135 H   0  0  0  0  0  0  0  0  0  0  0  0
    0.1442    0.4117    9.9353 H   0  0  0  0  0  0  0  0  0  0  0  0
   -1.6207    2.0405   10.6194 H   0  0  0  0  0  0  0  0  0  0  0  0
   -4.0207    1.5175   10.1699 H   0  0  0  0  0  0  0  0  0  0  0  0
   -4.6473   -0.6161    9.0742 H   0  0  0  0  0  0  0  0  0  0  0  0
   -1.7213   -4.9247    7.4444 H   0  0  0  0  0  0  0  0  0  0  0  0
   -0.4015   -5.3514    5.4031 H   0  0  0  0  0  0  0  0  0  0  0  0
    1.5721   -1.9703    4.8353 H   0  0  0  0  0  0  0  0  0  0  0  0
    3.1570   -0.3172    3.9570 H   0  0  0  0  0  0  0  0  0  0  0  0
    6.3661    0.7578    0.2419 H   0  0  0  0  0  0  0  0  0  0  0  0
    8.0077    2.2873   -0.7151 H   0  0  0  0  0  0  0  0  0  0  0  0
    7.8556    2.4425   -3.6907 H   0  0  0  0  0  0  0  0  0  0  0  0
   10.0298    1.5965   -4.5415 H   0  0  0  0  0  0  0  0  0  0  0  0
   12.1572    2.7494   -3.9207 H   0  0  0  0  0  0  0  0  0  0  0  0
   12.0814    4.7512   -2.4289 H   0  0  0  0  0  0  0  0  0  0  0  0
    9.9062    5.5782   -1.5562 H   0  0  0  0  0  0  0  0  0  0  0  0
    6.4891    6.1166   -0.1264 H   0  0  0  0  0  0  0  0  0  0  0  0
    6.0614    8.5425   -0.2681 H   0  0  0  0  0  0  0  0  0  0  0  0
    4.2965   12.0225   -1.6272 H   0  0  0  0  0  0  0  0  0  0  0  0
    3.5079   14.3690   -1.5120 H   0  0  0  0  0  0  0  0  0  0  0  0
    5.1478   16.2333   -1.2440 H   0  0  0  0  0  0  0  0  0  0  0  0
    7.5843   15.7143   -1.0665 H   0  0  0  0  0  0  0  0  0  0  0  0
    8.3667   13.3637   -1.1528 H   0  0  0  0  0  0  0  0  0  0  0  0
    9.3098    9.8805   -1.6850 H   0  0  0  0  0  0  0  0  0  0  0  0
   10.9134    9.3320    0.1260 H   0  0  0  0  0  0  0  0  0  0  0  0
   10.3564    9.8684    2.5002 H   0  0  0  0  0  0  0  0  0  0  0  0
    8.1900   10.9896    3.0342 H   0  0  0  0  0  0  0  0  0  0  0  0
    6.6043   11.5663    1.2171 H   0  0  0  0  0  0  0  0  0  0  0  0
    7.1047   12.2106   -4.1745 H   0  0  0  0  0  0  0  0  0  0  0  0
    5.8984   12.8515   -6.2432 H   0  0  0  0  0  0  0  0  0  0  0  0
    3.8185   11.6409   -6.9097 H   0  0  0  0  0  0  0  0  0  0  0  0
    2.9769    9.7651   -5.4921 H   0  0  0  0  0  0  0  0  0  0  0  0
    4.2023    9.1088   -3.4391 H   0  0  0  0  0  0  0  0  0  0  0  0
    7.4636    8.5557   -4.3443 H   0  0  0  0  0  0  0  0  0  0  0  0
    7.9005    6.1280   -4.2017 H   0  0  0  0  0  0  0  0  0  0  0  0
    4.8192    4.7991   -2.1958 H   0  0  0  0  0  0  0  0  0  0  0  0
    3.1675    3.2663   -1.2295 H   0  0  0  0  0  0  0  0  0  0  0  0
  1  2  3  0
  2  3  1  0
  3  4  2  0
  3 46  1  0
  4  5  1  0
  4  7  1  0
  5  6  3  0
  7  8  2  0
  7 45  1  0
  8  9  1  0
  8 85  1  0
  9 10  2  0
  9 86  1  0
 10 11  1  0
 10 44  1  0
 11 12  1  0
 11 18  1  0
 12 13  2  0
 12 17  1  0
 13 14  1  0
 13 87  1  0
 14 15  2  0
 14 88  1  0
 15 16  1  0
 15 89  1  0
 16 17  2  0
 16 90  1  0
 17 91  1  0
 18 19  2  0
 18 43  1  0
 19 20  1  0
 19 92  1  0
 20 21  2  0
 20 93  1  0
 21 22  1  0
 21 42  1  0
 22 23  2  0
 22 36  1  0
 23 24  1  0
 23 30  1  0
 24 25  2  0
 24 29  1  0
 25 26  1  0
 25 94  1  0
 26 27  2  0
 26 95  1  0
 27 28  1  0
 27 96  1  0
 28 29  2  0
 28 97  1  0
 29 98  1  0
 30 31  2  0
 30 35  1  0
 31 32  1  0
 31 99  1  0
 32 33  2  0
 32100  1  0
 33 34  1  0
 33101  1  0
 34 35  2  0
 34102  1  0
 35103  1  0
 36 37  2  0
 36 41  1  0
 37 38  1  0
 37104  1  0
 38 39  2  0
 38105  1  0
 39 40  1  0
 39106  1  0
 40 41  2  0
 40107  1  0
 41108  1  0
 42 43  2  0
 42109  1  0
 43110  1  0
 44 45  2  0
 44111  1  0
 45112  1  0
 46 47  2  0
 46 84  1  0
 47 48  1  0
 47113  1  0
 48 49  2  0
 48114  1  0
 49 50  1  0
 49 83  1  0
 50 51  1  0
 50 57  1  0
 51 52  2  0
 51 56  1  0
 52 53  1  0
 52115  1  0
 53 54  2  0
 53116  1  0
 54 55  1  0
 54117  1  0
 55 56  2  0
 55118  1  0
 56119  1  0
 57 58  2  0
 57 82  1  0
 58 59  1  0
 58120  1  0
 59 60  2  0
 59121  1  0
 60 61  1  0
 60 81  1  0
 61 62  2  0
 61 75  1  0
 62 63  1  0
 62 69  1  0
 63 64  2  0
 63 68  1  0
 64 65  1  0
 64122  1  0
 65 66  2  0
 65123  1  0
 66 67  1  0
 66124  1  0
 67 68  2  0
 67125  1  0
 68126  1  0
 69 70  2  0
 69 74  1  0
 70 71  1  0
 70127  1  0
 71 72  2  0
 71128  1  0
 72 73  1  0
 72129  1  0
 73 74  2  0
 73130  1  0
 74131  1  0
 75 76  2  0
 75 80  1  0
 76 77  1  0
 76132  1  0
 77 78  2  0
 77133  1  0
 78 79  1  0
 78134  1  0
 79 80  2  0
 79135  1  0
 80136  1  0
 81 82  2  0
 81137  1  0
 82138  1  0
 83 84  2  0
 83139  1  0
 84140  1  0
M  END

