
     RDKit          3D

 37 38  0  0  0  0  0  0  0  0999 V2000
    1.5023    0.1271    0.6990 N   0  0  0  0  0  0  0  0  0  0  0  0
    2.8133    0.0955    0.2140 C   0  0  0  0  0  0  0  0  0  0  0  0
    3.5255    1.2658   -0.1033 C   0  0  0  0  0  0  0  0  0  0  0  0
    4.8485    1.1976   -0.5231 C   0  0  0  0  0  0  0  0  0  0  0  0
    5.4771   -0.0689   -0.6366 C   0  0  0  0  0  0  0  0  0  0  0  0
    6.7846   -0.2262   -1.0974 N   0  0  0  0  0  0  0  0  0  0  0  0
    7.4392   -1.5225   -1.0138 C   0  0  0  0  0  0  0  0  0  0  0  0
    8.4485   -1.6377    0.1374 C   0  0  0  0  0  0  0  0  0  0  0  0
    9.6581   -0.6905    0.0118 C   0  0  0  0  0  0  0  0  0  0  0  0
    9.4929    0.7072    0.4201 N   0  0  0  0  0  0  0  0  0  0  0  0
    9.8319    0.9831    1.8163 C   0  0  0  0  0  0  0  0  0  0  0  0
   11.3499    1.0897    1.9990 C   0  0  0  0  0  0  0  0  0  0  0  0
   11.8910    1.9766    1.0541 O   0  0  0  0  0  0  0  0  0  0  0  0
    8.3242    1.4619   -0.0504 C   0  0  0  0  0  0  0  0  0  0  0  0
    7.6474    0.9178   -1.3172 C   0  0  0  0  0  0  0  0  0  0  0  0
    4.7986   -1.1782   -0.3164 N   0  0  0  0  0  0  0  0  0  0  0  0
    3.5323   -1.1033    0.0837 C   0  0  0  0  0  0  0  0  0  0  0  0
    0.9437    0.9082    0.3699 H   0  0  0  0  0  0  0  0  0  0  0  0
    0.9954   -0.7474    0.6045 H   0  0  0  0  0  0  0  0  0  0  0  0
    3.0402    2.2422   -0.0099 H   0  0  0  0  0  0  0  0  0  0  0  0
    5.3744    2.1236   -0.7514 H   0  0  0  0  0  0  0  0  0  0  0  0
    7.9664   -1.7131   -1.9690 H   0  0  0  0  0  0  0  0  0  0  0  0
    6.6542   -2.2794   -0.9068 H   0  0  0  0  0  0  0  0  0  0  0  0
    8.8300   -2.6745    0.1445 H   0  0  0  0  0  0  0  0  0  0  0  0
    7.9356   -1.4875    1.1032 H   0  0  0  0  0  0  0  0  0  0  0  0
   10.0182   -0.7308   -1.0333 H   0  0  0  0  0  0  0  0  0  0  0  0
   10.4885   -1.0919    0.6119 H   0  0  0  0  0  0  0  0  0  0  0  0
    9.4029    0.2388    2.5215 H   0  0  0  0  0  0  0  0  0  0  0  0
    9.3946    1.9588    2.0800 H   0  0  0  0  0  0  0  0  0  0  0  0
   11.8165    0.0826    1.9307 H   0  0  0  0  0  0  0  0  0  0  0  0
   11.5757    1.4698    3.0100 H   0  0  0  0  0  0  0  0  0  0  0  0
   11.3833    1.7891    0.2444 H   0  0  0  0  0  0  0  0  0  0  0  0
    8.6404    2.5046   -0.2429 H   0  0  0  0  0  0  0  0  0  0  0  0
    7.5418    1.5189    0.7341 H   0  0  0  0  0  0  0  0  0  0  0  0
    8.4078    0.6436   -2.0672 H   0  0  0  0  0  0  0  0  0  0  0  0
    7.0689    1.7338   -1.7750 H   0  0  0  0  0  0  0  0  0  0  0  0
    3.0422   -2.0563    0.3272 H   0  0  0  0  0  0  0  0  0  0  0  0
  1  2  1  0
  1 18  1  0
  1 19  1  0
  2  3  2  0
  2 17  1  0
  3  4  1  0
  3 20  1  0
  4  5  2  0
  4 21  1  0
  5  6  1  0
  5 16  1  0
  6  7  1  0
  6 15  1  0
  7  8  1  0
  7 22  1  0
  7 23  1  0
  8  9  1  0
  8 24  1  0
  8 25  1  0
  9 10  1  0
  9 26  1  0
  9 27  1  0
 10 11  1  0
 10 14  1  0
 11 12  1  0
 11 28  1  0
 11 29  1  0
 12 13  1  0
 12 30  1  0
 12 31  1  0
 13 32  1  0
 14 15  1  0
 14 33  1  0
 14 34  1  0
 15 35  1  0
 15 36  1  0
 16 17  2  0
 17 37  1  0
M  END

