
     RDKit          3D

 27 29  0  0  0  0  0  0  0  0999 V2000
    1.0627   -0.2086    0.3038 N   0  0  0  0  0  0  0  0  0  0  0  0
    2.4045   -0.0641    0.0160 C   0  0  0  0  0  0  0  0  0  0  0  0
    3.0361    1.1811   -0.1143 C   0  0  0  0  0  0  0  0  0  0  0  0
    4.4102    1.2824   -0.3503 C   0  0  0  0  0  0  0  0  0  0  0  0
    5.2063    0.1312   -0.4534 C   0  0  0  0  0  0  0  0  0  0  0  0
    6.6434    0.1490   -0.7333 C   0  0  0  0  0  0  0  0  0  0  0  0
    7.2951   -0.8118   -1.3782 N   0  0  0  0  0  0  0  0  0  0  0  0
    8.6046   -0.5104   -1.4641 N   0  0  0  0  0  0  0  0  0  0  0  0
    8.7828    0.6563   -0.8645 C   0  0  0  0  0  0  0  0  0  0  0  0
    9.9506    1.4345   -0.6607 C   0  0  0  0  0  0  0  0  0  0  0  0
    9.8672    2.6051    0.0483 C   0  0  0  0  0  0  0  0  0  0  0  0
    8.6038    3.0155    0.5845 C   0  0  0  0  0  0  0  0  0  0  0  0
    8.5017    4.6105    1.6148 Br  0  0  0  0  0  0  0  0  0  0  0  0
    7.4686    2.2809    0.3830 C   0  0  0  0  0  0  0  0  0  0  0  0
    7.5562    1.1238   -0.3642 N   0  0  0  0  0  0  0  0  0  0  0  0
    4.5730   -1.1272   -0.3449 C   0  0  0  0  0  0  0  0  0  0  0  0
    3.2094   -1.2270   -0.1171 C   0  0  0  0  0  0  0  0  0  0  0  0
    2.5476   -2.4174   -0.0121 O   0  0  0  0  0  0  0  0  0  0  0  0
    0.4541    0.5707    0.0874 H   0  0  0  0  0  0  0  0  0  0  0  0
    0.6677   -1.1234    0.1168 H   0  0  0  0  0  0  0  0  0  0  0  0
    2.4329    2.0895   -0.0386 H   0  0  0  0  0  0  0  0  0  0  0  0
    4.8387    2.2743   -0.4995 H   0  0  0  0  0  0  0  0  0  0  0  0
   10.8913    1.0679   -1.0723 H   0  0  0  0  0  0  0  0  0  0  0  0
   10.7493    3.2227    0.2199 H   0  0  0  0  0  0  0  0  0  0  0  0
    6.4986    2.5458    0.7956 H   0  0  0  0  0  0  0  0  0  0  0  0
    5.1790   -2.0296   -0.4574 H   0  0  0  0  0  0  0  0  0  0  0  0
    3.1672   -3.1464   -0.1477 H   0  0  0  0  0  0  0  0  0  0  0  0
  1  2  1  0
  1 19  1  0
  1 20  1  0
  2  3  2  0
  2 17  1  0
  3  4  1  0
  3 21  1  0
  4  5  2  0
  4 22  1  0
  5  6  1  0
  5 16  1  0
  6  7  2  0
  6 15  1  0
  7  8  1  0
  8  9  2  0
  9 10  1  0
  9 15  1  0
 10 11  2  0
 10 23  1  0
 11 12  1  0
 11 24  1  0
 12 13  1  0
 12 14  2  0
 14 15  1  0
 14 25  1  0
 16 17  2  0
 16 26  1  0
 17 18  1  0
 18 27  1  0
M  END

