
     RDKit          3D

 36 37  0  0  0  0  0  0  0  0999 V2000
    2.2697    0.4837    1.4014 C   0  0  0  0  0  0  0  0  0  0  0  0
    2.6306    0.1801   -0.0494 C   0  0  1  0  0  0  0  0  0  0  0  0
    2.8677    1.4393   -0.7747 N   0  0  0  0  0  0  0  0  0  0  0  0
    2.8180    1.5231   -2.1306 C   0  0  0  0  0  0  0  0  0  0  0  0
    2.6245    0.5373   -2.8429 O   0  0  0  0  0  0  0  0  0  0  0  0
    3.0135    2.8882   -2.7319 C   0  0  0  0  0  0  0  0  0  0  0  0
    2.8391    4.0870   -2.0197 C   0  0  0  0  0  0  0  0  0  0  0  0
    3.0287    5.3156   -2.6472 C   0  0  0  0  0  0  0  0  0  0  0  0
    3.3932    5.3924   -4.0080 C   0  0  0  0  0  0  0  0  0  0  0  0
    3.5918    6.6429   -4.6660 C   0  0  0  0  0  0  0  0  0  0  0  0
    3.7678    7.7186   -5.2036 C   0  0  0  0  0  0  0  0  0  0  0  0
    3.9527    9.0007   -5.8886 C   0  0  0  0  0  0  0  0  0  0  0  0
    3.0664   10.0372   -5.3613 N   0  0  0  0  0  0  0  0  0  0  0  0
    3.5461    4.1744   -4.7017 C   0  0  0  0  0  0  0  0  0  0  0  0
    3.8833    4.2099   -5.9943 F   0  0  0  0  0  0  0  0  0  0  0  0
    3.3571    2.9444   -4.0900 C   0  0  0  0  0  0  0  0  0  0  0  0
    3.8032   -0.7664   -0.1489 C   0  0  0  0  0  0  0  0  0  0  0  0
    4.5718   -1.1763    0.8401 N   0  0  0  0  0  0  0  0  0  0  0  0
    5.4922   -2.0185    0.2675 C   0  0  0  0  0  0  0  0  0  0  0  0
    5.2740   -2.1157   -1.0911 C   0  0  0  0  0  0  0  0  0  0  0  0
    4.1863   -1.3143   -1.3402 N   0  0  0  0  0  0  0  0  0  0  0  0
    3.7426   -1.0753   -2.2272 H   0  0  0  0  0  0  0  0  0  0  0  0
    1.4040    1.1614    1.4481 H   0  0  0  0  0  0  0  0  0  0  0  0
    3.1225    0.9378    1.9291 H   0  0  0  0  0  0  0  0  0  0  0  0
    2.0266   -0.4456    1.9336 H   0  0  0  0  0  0  0  0  0  0  0  0
    1.7724   -0.2922   -0.5557 H   0  0  0  0  0  0  0  0  0  0  0  0
    3.2446    2.2174   -0.2462 H   0  0  0  0  0  0  0  0  0  0  0  0
    2.5238    4.0725   -0.9743 H   0  0  0  0  0  0  0  0  0  0  0  0
    2.8880    6.2454   -2.0932 H   0  0  0  0  0  0  0  0  0  0  0  0
    3.8574    8.8143   -6.9815 H   0  0  0  0  0  0  0  0  0  0  0  0
    4.9970    9.3285   -5.7342 H   0  0  0  0  0  0  0  0  0  0  0  0
    2.0940    9.7978   -5.5583 H   0  0  0  0  0  0  0  0  0  0  0  0
    3.2515   10.9198   -5.8382 H   0  0  0  0  0  0  0  0  0  0  0  0
    3.4708    2.0226   -4.6615 H   0  0  0  0  0  0  0  0  0  0  0  0
    6.2620   -2.5145    0.8577 H   0  0  0  0  0  0  0  0  0  0  0  0
    5.7821   -2.6713   -1.8754 H   0  0  0  0  0  0  0  0  0  0  0  0
  1  2  1  0
  1 23  1  0
  1 24  1  0
  1 25  1  0
  2  3  1  0
  2 17  1  0
  2 26  1  6
  3  4  1  0
  3 27  1  0
  4  5  2  0
  4  6  1  0
  6  7  2  0
  6 16  1  0
  7  8  1  0
  7 28  1  0
  8  9  2  0
  8 29  1  0
  9 10  1  0
  9 14  1  0
 10 11  3  0
 11 12  1  0
 12 13  1  0
 12 30  1  0
 12 31  1  0
 13 32  1  0
 13 33  1  0
 14 15  1  0
 14 16  2  0
 16 34  1  0
 17 18  2  0
 17 21  1  0
 18 19  1  0
 19 20  2  0
 19 35  1  0
 20 21  1  0
 20 36  1  0
 21 22  1  0
M  END

