
     RDKit          3D

 66 68  0  0  0  0  0  0  0  0999 V2000
    1.5673    4.2965    1.7126 C   0  0  0  0  0  0  0  0  0  0  0  0
    1.5053    2.8439    1.2699 C   0  0  0  0  0  0  0  0  0  0  0  0
    2.2388    1.9840    2.1605 O   0  0  0  0  0  0  0  0  0  0  0  0
    3.5593    1.8365    1.9410 C   0  0  0  0  0  0  0  0  0  0  0  0
    4.1521    2.3667    1.0312 O   0  0  0  0  0  0  0  0  0  0  0  0
    4.1835    0.9348    2.9851 C   0  0  0  0  0  0  0  0  0  0  0  0
    5.6294    0.5739    2.6572 C   0  0  0  0  0  0  0  0  0  0  0  0
    6.3357   -0.2105    3.7853 C   0  0  1  0  0  0  0  0  0  0  0  0
    6.3549    0.4232    4.6866 H   0  0  0  0  0  0  0  0  0  0  0  0
    5.6902   -1.4584    4.1374 N   0  0  0  0  0  0  0  0  0  0  0  0
    4.8905   -1.5827    5.2398 C   0  0  0  0  0  0  0  0  0  0  0  0
    4.5007   -0.6108    5.8746 O   0  0  0  0  0  0  0  0  0  0  0  0
    4.4901   -2.9842    5.6154 C   0  0  0  0  0  0  0  0  0  0  0  0
    5.2044   -4.1301    5.2304 C   0  0  0  0  0  0  0  0  0  0  0  0
    4.7822   -5.3973    5.6352 C   0  0  0  0  0  0  0  0  0  0  0  0
    3.6379   -5.5613    6.4323 C   0  0  0  0  0  0  0  0  0  0  0  0
    3.2042   -6.9297    6.9044 C   0  0  0  0  0  0  0  0  0  0  0  0
    3.9503   -7.3982    8.1807 C   0  0  0  0  0  0  0  0  0  0  0  0
    3.4733   -8.7237    8.7044 C   0  0  0  0  0  0  0  0  0  0  0  0
    4.1405   -9.9261    8.6002 C   0  0  0  0  0  0  0  0  0  0  0  0
    3.3889  -10.9580    9.1378 N   0  0  0  0  0  0  0  0  0  0  0  0
    3.7600  -12.3558    9.2121 C   0  0  0  0  0  0  0  0  0  0  0  0
    2.2093  -10.4307    9.5987 C   0  0  0  0  0  0  0  0  0  0  0  0
    1.2188  -11.1223   10.1733 N   0  0  0  0  0  0  0  0  0  0  0  0
    0.1859  -10.3629   10.5187 C   0  0  0  0  0  0  0  0  0  0  0  0
    0.0603   -9.0360   10.3708 N   0  0  0  0  0  0  0  0  0  0  0  0
    1.0603   -8.3527    9.8020 C   0  0  0  0  0  0  0  0  0  0  0  0
    0.8846   -7.0006    9.6544 N   0  0  0  0  0  0  0  0  0  0  0  0
    2.2209   -9.0348    9.3531 C   0  0  0  0  0  0  0  0  0  0  0  0
    2.9340   -4.4081    6.8193 C   0  0  0  0  0  0  0  0  0  0  0  0
    3.3559   -3.1393    6.4262 C   0  0  0  0  0  0  0  0  0  0  0  0
    7.7742   -0.5259    3.3798 C   0  0  0  0  0  0  0  0  0  0  0  0
    8.1810   -1.6424    3.1503 O   0  0  0  0  0  0  0  0  0  0  0  0
    8.5092    0.5847    3.2749 O   0  0  0  0  0  0  0  0  0  0  0  0
    9.8822    0.4510    2.8475 C   0  0  0  0  0  0  0  0  0  0  0  0
   10.8076    0.1837    4.0216 C   0  0  0  0  0  0  0  0  0  0  0  0
    0.9319    4.9160    1.0593 H   0  0  0  0  0  0  0  0  0  0  0  0
    2.5966    4.6799    1.6502 H   0  0  0  0  0  0  0  0  0  0  0  0
    1.2089    4.4082    2.7478 H   0  0  0  0  0  0  0  0  0  0  0  0
    1.9035    2.7268    0.2510 H   0  0  0  0  0  0  0  0  0  0  0  0
    0.4742    2.4623    1.2989 H   0  0  0  0  0  0  0  0  0  0  0  0
    3.5507    0.0398    3.0888 H   0  0  0  0  0  0  0  0  0  0  0  0
    4.1101    1.4426    3.9616 H   0  0  0  0  0  0  0  0  0  0  0  0
    6.2022    1.4913    2.4583 H   0  0  0  0  0  0  0  0  0  0  0  0
    5.6624   -0.0190    1.7271 H   0  0  0  0  0  0  0  0  0  0  0  0
    6.0504   -2.2834    3.6710 H   0  0  0  0  0  0  0  0  0  0  0  0
    6.1163   -4.0460    4.6332 H   0  0  0  0  0  0  0  0  0  0  0  0
    5.3545   -6.2769    5.3259 H   0  0  0  0  0  0  0  0  0  0  0  0
    3.3725   -7.6768    6.1117 H   0  0  0  0  0  0  0  0  0  0  0  0
    2.1215   -6.9245    7.1075 H   0  0  0  0  0  0  0  0  0  0  0  0
    3.8537   -6.6167    8.9567 H   0  0  0  0  0  0  0  0  0  0  0  0
    5.0295   -7.4568    7.9637 H   0  0  0  0  0  0  0  0  0  0  0  0
    5.1214  -10.1284    8.1720 H   0  0  0  0  0  0  0  0  0  0  0  0
    4.6700  -12.4937    9.8185 H   0  0  0  0  0  0  0  0  0  0  0  0
    3.9367  -12.7731    8.2075 H   0  0  0  0  0  0  0  0  0  0  0  0
    2.9297  -12.8970    9.6840 H   0  0  0  0  0  0  0  0  0  0  0  0
   -0.6642  -10.8735   10.9876 H   0  0  0  0  0  0  0  0  0  0  0  0
    0.0928   -6.6144   10.1571 H   0  0  0  0  0  0  0  0  0  0  0  0
    1.6998   -6.4077    9.5745 H   0  0  0  0  0  0  0  0  0  0  0  0
    2.0347   -4.5110    7.4341 H   0  0  0  0  0  0  0  0  0  0  0  0
    2.8164   -2.2422    6.7358 H   0  0  0  0  0  0  0  0  0  0  0  0
   10.1143    1.4099    2.3628 H   0  0  0  0  0  0  0  0  0  0  0  0
    9.9434   -0.3549    2.1017 H   0  0  0  0  0  0  0  0  0  0  0  0
   10.7115    0.9699    4.7863 H   0  0  0  0  0  0  0  0  0  0  0  0
   11.8533    0.1666    3.6750 H   0  0  0  0  0  0  0  0  0  0  0  0
   10.5853   -0.7899    4.4830 H   0  0  0  0  0  0  0  0  0  0  0  0
  1  2  1  0
  1 37  1  0
  1 38  1  0
  1 39  1  0
  2  3  1  0
  2 40  1  0
  2 41  1  0
  3  4  1  0
  4  5  2  0
  4  6  1  0
  6  7  1  0
  6 42  1  0
  6 43  1  0
  7  8  1  0
  7 44  1  0
  7 45  1  0
  8  9  1  1
  8 10  1  0
  8 32  1  0
 10 11  1  0
 10 46  1  0
 11 12  2  0
 11 13  1  0
 13 14  2  0
 13 31  1  0
 14 15  1  0
 14 47  1  0
 15 16  2  0
 15 48  1  0
 16 17  1  0
 16 30  1  0
 17 18  1  0
 17 49  1  0
 17 50  1  0
 18 19  1  0
 18 51  1  0
 18 52  1  0
 19 20  2  0
 19 29  1  0
 20 21  1  0
 20 53  1  0
 21 22  1  0
 21 23  1  0
 22 54  1  0
 22 55  1  0
 22 56  1  0
 23 24  1  0
 23 29  2  0
 24 25  2  0
 25 26  1  0
 25 57  1  0
 26 27  2  0
 27 28  1  0
 27 29  1  0
 28 58  1  0
 28 59  1  0
 30 31  2  0
 30 60  1  0
 31 61  1  0
 32 33  2  0
 32 34  1  0
 34 35  1  0
 35 36  1  0
 35 62  1  0
 35 63  1  0
 36 64  1  0
 36 65  1  0
 36 66  1  0
M  END

