
     RDKit          3D

 41 43  0  0  0  0  0  0  0  0999 V2000
   -1.2270    2.1596   -4.8368 C   0  0  0  0  0  0  0  0  0  0  0  0
   -0.0082    2.0916   -4.1287 O   0  0  0  0  0  0  0  0  0  0  0  0
    0.9310    1.2068   -4.5261 C   0  0  0  0  0  0  0  0  0  0  0  0
    0.8225    0.3170   -5.6006 C   0  0  0  0  0  0  0  0  0  0  0  0
    1.8741   -0.5576   -5.9142 C   0  0  0  0  0  0  0  0  0  0  0  0
    3.0534   -0.5722   -5.1672 C   0  0  0  0  0  0  0  0  0  0  0  0
    4.2352   -1.4728   -5.5002 C   0  0  0  0  0  0  0  0  0  0  0  0
    3.9262   -2.6206   -6.3392 N   0  0  0  0  0  0  0  0  0  0  0  0
    3.1890   -3.7074   -5.7027 C   0  0  0  0  0  0  0  0  0  0  0  0
    4.4265   -2.8307   -7.6057 C   0  0  0  0  0  0  0  0  0  0  0  0
    4.2667   -3.8790   -8.2095 O   0  0  0  0  0  0  0  0  0  0  0  0
    5.1874   -1.7032   -8.2779 C   0  0  0  0  0  0  0  0  0  0  0  0
    4.5345   -0.5014   -8.5946 C   0  0  0  0  0  0  0  0  0  0  0  0
    5.1481    0.4741   -9.3820 C   0  0  0  0  0  0  0  0  0  0  0  0
    6.4424    0.2631   -9.8627 C   0  0  0  0  0  0  0  0  0  0  0  0
    7.1191   -0.9147   -9.5484 C   0  0  0  0  0  0  0  0  0  0  0  0
    6.4957   -1.8957   -8.7671 C   0  0  0  0  0  0  0  0  0  0  0  0
    7.2359   -3.0776   -8.4791 N   0  0  0  0  0  0  0  0  0  0  0  0
    7.2822   -3.8700   -7.3808 C   0  0  0  0  0  0  0  0  0  0  0  0
    8.1638   -4.8198   -7.5792 N   0  0  0  0  0  0  0  0  0  0  0  0
    8.6636   -4.6068   -8.8212 N   0  0  0  0  0  0  0  0  0  0  0  0
    8.1282   -3.5785   -9.3690 N   0  0  0  0  0  0  0  0  0  0  0  0
    3.1614    0.3147   -4.0805 C   0  0  0  0  0  0  0  0  0  0  0  0
    2.1268    1.1822   -3.7755 C   0  0  0  0  0  0  0  0  0  0  0  0
    2.2459    2.0205   -2.7410 F   0  0  0  0  0  0  0  0  0  0  0  0
   -1.8284    2.9367   -4.3473 H   0  0  0  0  0  0  0  0  0  0  0  0
   -1.7772    1.2022   -4.7978 H   0  0  0  0  0  0  0  0  0  0  0  0
   -1.0711    2.4390   -5.8943 H   0  0  0  0  0  0  0  0  0  0  0  0
   -0.0855    0.2938   -6.2034 H   0  0  0  0  0  0  0  0  0  0  0  0
    1.7539   -1.2459   -6.7537 H   0  0  0  0  0  0  0  0  0  0  0  0
    4.6775   -1.8372   -4.5542 H   0  0  0  0  0  0  0  0  0  0  0  0
    5.0189   -0.8780   -5.9922 H   0  0  0  0  0  0  0  0  0  0  0  0
    2.2752   -3.3215   -5.2267 H   0  0  0  0  0  0  0  0  0  0  0  0
    3.8043   -4.1956   -4.9258 H   0  0  0  0  0  0  0  0  0  0  0  0
    2.9288   -4.4515   -6.4637 H   0  0  0  0  0  0  0  0  0  0  0  0
    3.5185   -0.3383   -8.2305 H   0  0  0  0  0  0  0  0  0  0  0  0
    4.6116    1.3946   -9.6227 H   0  0  0  0  0  0  0  0  0  0  0  0
    6.9338    1.0189  -10.4795 H   0  0  0  0  0  0  0  0  0  0  0  0
    8.1321   -1.0968   -9.9075 H   0  0  0  0  0  0  0  0  0  0  0  0
    6.6909   -3.7190   -6.4821 H   0  0  0  0  0  0  0  0  0  0  0  0
    4.0562    0.3436   -3.4532 H   0  0  0  0  0  0  0  0  0  0  0  0
  1  2  1  0
  1 26  1  0
  1 27  1  0
  1 28  1  0
  2  3  1  0
  3  4  2  0
  3 24  1  0
  4  5  1  0
  4 29  1  0
  5  6  2  0
  5 30  1  0
  6  7  1  0
  6 23  1  0
  7  8  1  0
  7 31  1  0
  7 32  1  0
  8  9  1  0
  8 10  1  0
  9 33  1  0
  9 34  1  0
  9 35  1  0
 10 11  2  0
 10 12  1  0
 12 13  2  0
 12 17  1  0
 13 14  1  0
 13 36  1  0
 14 15  2  0
 14 37  1  0
 15 16  1  0
 15 38  1  0
 16 17  2  0
 16 39  1  0
 17 18  1  0
 18 19  1  0
 18 22  1  0
 19 20  2  0
 19 40  1  0
 20 21  1  0
 21 22  2  0
 23 24  2  0
 23 41  1  0
 24 25  1  0
M  END

