
     RDKit          3D

 30 29  0  0  0  0  0  0  0  0999 V2000
    0.8944   -0.4019    0.1089 C   0  0  0  0  0  0  0  0  0  0  0  0
    2.4228   -0.4146    0.1629 C   0  0  0  0  0  0  0  0  0  0  0  0
    3.0630   -1.1610   -1.0104 C   0  0  0  0  0  0  0  0  0  0  0  0
    4.5832   -1.1751   -0.9591 C   0  0  0  0  0  0  0  0  0  0  0  0
    5.0769   -1.8773   -2.0763 O   0  0  0  0  0  0  0  0  0  0  0  0
    6.4746   -1.9567   -2.1455 C   0  0  0  0  0  0  0  0  0  0  0  0
    6.8655   -2.7877   -3.3586 C   0  0  1  0  0  0  0  0  0  0  0  0
    6.3493   -2.3896   -4.2442 H   0  0  0  0  0  0  0  0  0  0  0  0
    8.3694   -2.8400   -3.5865 C   0  0  0  0  0  0  0  0  0  0  0  0
    6.3847   -4.1283   -3.1334 O   0  0  0  0  0  0  0  0  0  0  0  0
    5.4684   -4.6444   -3.9828 C   0  0  0  0  0  0  0  0  0  0  0  0
    4.9893   -5.9875   -3.4875 C   0  0  0  0  0  0  0  0  0  0  0  0
    5.0935   -4.1012   -4.9908 O   0  0  0  0  0  0  0  0  0  0  0  0
    0.4641    0.1419    0.9649 H   0  0  0  0  0  0  0  0  0  0  0  0
    0.4849   -1.4257    0.1241 H   0  0  0  0  0  0  0  0  0  0  0  0
    0.5306    0.0836   -0.8119 H   0  0  0  0  0  0  0  0  0  0  0  0
    2.7529   -0.8725    1.1134 H   0  0  0  0  0  0  0  0  0  0  0  0
    2.7978    0.6251    0.1847 H   0  0  0  0  0  0  0  0  0  0  0  0
    2.7518   -0.7057   -1.9668 H   0  0  0  0  0  0  0  0  0  0  0  0
    2.7059   -2.2054   -1.0367 H   0  0  0  0  0  0  0  0  0  0  0  0
    4.9337   -1.6513   -0.0178 H   0  0  0  0  0  0  0  0  0  0  0  0
    4.9770   -0.1355   -0.9514 H   0  0  0  0  0  0  0  0  0  0  0  0
    6.8937   -2.4223   -1.2282 H   0  0  0  0  0  0  0  0  0  0  0  0
    6.9288   -0.9470   -2.2376 H   0  0  0  0  0  0  0  0  0  0  0  0
    8.7717   -1.8301   -3.7626 H   0  0  0  0  0  0  0  0  0  0  0  0
    8.6003   -3.4570   -4.4674 H   0  0  0  0  0  0  0  0  0  0  0  0
    8.8870   -3.2753   -2.7167 H   0  0  0  0  0  0  0  0  0  0  0  0
    5.8452   -6.6377   -3.2528 H   0  0  0  0  0  0  0  0  0  0  0  0
    4.3485   -6.4541   -4.2451 H   0  0  0  0  0  0  0  0  0  0  0  0
    4.4204   -5.8471   -2.5548 H   0  0  0  0  0  0  0  0  0  0  0  0
  1  2  1  0
  1 14  1  0
  1 15  1  0
  1 16  1  0
  2  3  1  0
  2 17  1  0
  2 18  1  0
  3  4  1  0
  3 19  1  0
  3 20  1  0
  4  5  1  0
  4 21  1  0
  4 22  1  0
  5  6  1  0
  6  7  1  0
  6 23  1  0
  6 24  1  0
  7  8  1  6
  7  9  1  0
  7 10  1  0
  9 25  1  0
  9 26  1  0
  9 27  1  0
 10 11  1  0
 11 12  1  0
 11 13  2  0
 12 28  1  0
 12 29  1  0
 12 30  1  0
M  END

