
     RDKit          3D

 37 41  0  0  0  0  0  0  0  0999 V2000
    1.2133    2.2762    0.6278 C   0  0  0  0  0  0  0  0  0  0  0  0
    2.6363    2.1031    0.1983 C   0  0  0  0  0  0  0  0  0  0  0  0
    3.2051    1.0630   -0.4658 C   0  0  0  0  0  0  0  0  0  0  0  0
    2.4334   -0.1559   -0.8994 C   0  0  0  0  0  0  0  0  0  0  0  0
    4.6396    1.1283   -0.7745 C   0  0  0  0  0  0  0  0  0  0  0  0
    5.3304    0.1171   -1.4547 C   0  0  0  0  0  0  0  0  0  0  0  0
    6.7037    0.2394   -1.7190 C   0  0  0  0  0  0  0  0  0  0  0  0
    7.4141    1.3625   -1.3149 C   0  0  0  0  0  0  0  0  0  0  0  0
    6.7561    2.4018   -0.6285 C   0  0  0  0  0  0  0  0  0  0  0  0
    5.3689    2.2773   -0.3625 C   0  0  0  0  0  0  0  0  0  0  0  0
    4.6871    3.3339    0.3384 C   0  0  0  0  0  0  0  0  0  0  0  0
    5.3237    4.4676    0.7662 C   0  0  0  0  0  0  0  0  0  0  0  0
    6.7246    4.6371    0.5203 C   0  0  0  0  0  0  0  0  0  0  0  0
    7.3364    5.7459    0.9410 N   0  0  0  0  0  0  0  0  0  0  0  0
    8.6523    5.8727    0.6924 C   0  0  0  0  0  0  0  0  0  0  0  0
    9.3514    7.0410    1.1229 C   0  0  0  0  0  0  0  0  0  0  0  0
   10.6971    7.1764    0.8713 C   0  0  0  0  0  0  0  0  0  0  0  0
   11.4164    6.1587    0.1796 C   0  0  0  0  0  0  0  0  0  0  0  0
   10.7761    5.0191   -0.2502 C   0  0  0  0  0  0  0  0  0  0  0  0
    9.3820    4.8442   -0.0072 C   0  0  0  0  0  0  0  0  0  0  0  0
    8.7571    3.7268   -0.4288 N   0  0  0  0  0  0  0  0  0  0  0  0
    7.4616    3.6026   -0.1835 C   0  0  0  0  0  0  0  0  0  0  0  0
    3.3549    3.2037    0.5867 O   0  0  0  0  0  0  0  0  0  0  0  0
    0.8066    3.2093    0.2040 H   0  0  0  0  0  0  0  0  0  0  0  0
    1.1616    2.3760    1.7249 H   0  0  0  0  0  0  0  0  0  0  0  0
    0.5731    1.4427    0.3209 H   0  0  0  0  0  0  0  0  0  0  0  0
    2.8514   -1.0710   -0.4463 H   0  0  0  0  0  0  0  0  0  0  0  0
    2.4867   -0.2901   -1.9933 H   0  0  0  0  0  0  0  0  0  0  0  0
    1.3732   -0.1081   -0.6249 H   0  0  0  0  0  0  0  0  0  0  0  0
    4.8039   -0.7784   -1.7865 H   0  0  0  0  0  0  0  0  0  0  0  0
    7.2187   -0.5643   -2.2515 H   0  0  0  0  0  0  0  0  0  0  0  0
    8.4809    1.4688   -1.5144 H   0  0  0  0  0  0  0  0  0  0  0  0
    4.7822    5.2516    1.2947 H   0  0  0  0  0  0  0  0  0  0  0  0
    8.7788    7.8064    1.6507 H   0  0  0  0  0  0  0  0  0  0  0  0
   11.2267    8.0732    1.2035 H   0  0  0  0  0  0  0  0  0  0  0  0
   12.4850    6.2906   -0.0077 H   0  0  0  0  0  0  0  0  0  0  0  0
   11.3019    4.2235   -0.7822 H   0  0  0  0  0  0  0  0  0  0  0  0
  1  2  1  0
  1 24  1  0
  1 25  1  0
  1 26  1  0
  2  3  2  0
  2 23  1  0
  3  4  1  0
  3  5  1  0
  4 27  1  0
  4 28  1  0
  4 29  1  0
  5  6  2  0
  5 10  1  0
  6  7  1  0
  6 30  1  0
  7  8  2  0
  7 31  1  0
  8  9  1  0
  8 32  1  0
  9 10  1  0
  9 22  2  0
 10 11  2  0
 11 12  1  0
 11 23  1  0
 12 13  2  0
 12 33  1  0
 13 14  1  0
 13 22  1  0
 14 15  2  0
 15 16  1  0
 15 20  1  0
 16 17  2  0
 16 34  1  0
 17 18  1  0
 17 35  1  0
 18 19  2  0
 18 36  1  0
 19 20  1  0
 19 37  1  0
 20 21  2  0
 21 22  1  0
M  END

