
     RDKit          3D

 44 46  0  0  0  0  0  0  0  0999 V2000
    0.5689    3.8885    2.2728 C   0  0  0  0  0  0  0  0  0  0  0  0
    1.8989    4.0837    1.8519 O   0  0  0  0  0  0  0  0  0  0  0  0
    2.7289    3.0107    1.7591 C   0  0  0  0  0  0  0  0  0  0  0  0
    2.3628    1.6941    2.0641 C   0  0  0  0  0  0  0  0  0  0  0  0
    3.3243    0.6857    1.9249 C   0  0  0  0  0  0  0  0  0  0  0  0
    4.6212    0.9488    1.4956 C   0  0  0  0  0  0  0  0  0  0  0  0
    4.9869    2.2786    1.1872 C   0  0  0  0  0  0  0  0  0  0  0  0
    6.2886    2.6115    0.7421 N   0  0  0  0  0  0  0  0  0  0  0  0
    6.6166    3.9781    0.3296 C   0  0  0  0  0  0  0  0  0  0  0  0
    8.0081    3.8810   -0.3150 C   0  0  2  0  0  0  0  0  0  0  0  0
    7.9100    3.8463   -1.8553 C   0  0  0  0  0  0  0  0  0  0  0  0
    6.8573    3.9811   -2.4525 O   0  0  0  0  0  0  0  0  0  0  0  0
    9.1218    3.6812   -2.4764 N   0  0  0  0  0  0  0  0  0  0  0  0
    9.3937    3.6243   -3.8514 C   0  0  0  0  0  0  0  0  0  0  0  0
    8.4570    3.7304   -4.8796 C   0  0  0  0  0  0  0  0  0  0  0  0
    8.9029    3.6515   -6.2085 C   0  0  0  0  0  0  0  0  0  0  0  0
   10.2573    3.4709   -6.4592 C   0  0  0  0  0  0  0  0  0  0  0  0
   11.1658    3.3671   -5.4747 N   0  0  0  0  0  0  0  0  0  0  0  0
   10.7528    3.4395   -4.2295 C   0  0  0  0  0  0  0  0  0  0  0  0
   11.6376    3.3379   -3.2066 O   0  0  0  0  0  0  0  0  0  0  0  0
   13.0090    3.1436   -3.5332 C   0  0  0  0  0  0  0  0  0  0  0  0
    8.6019    2.5995    0.2966 C   0  0  0  0  0  0  0  0  0  0  0  0
    7.3931    1.7741    0.7351 C   0  0  0  0  0  0  0  0  0  0  0  0
    7.4342    0.6013    1.0419 O   0  0  0  0  0  0  0  0  0  0  0  0
    4.0329    3.2977    1.3248 C   0  0  0  0  0  0  0  0  0  0  0  0
    0.0905    4.8774    2.2696 H   0  0  0  0  0  0  0  0  0  0  0  0
    0.5160    3.4700    3.2945 H   0  0  0  0  0  0  0  0  0  0  0  0
    0.0133    3.2214    1.5889 H   0  0  0  0  0  0  0  0  0  0  0  0
    1.3574    1.4451    2.4021 H   0  0  0  0  0  0  0  0  0  0  0  0
    3.0472   -0.3455    2.1601 H   0  0  0  0  0  0  0  0  0  0  0  0
    5.3532    0.1527    1.4000 H   0  0  0  0  0  0  0  0  0  0  0  0
    6.6234    4.6556    1.2018 H   0  0  0  0  0  0  0  0  0  0  0  0
    5.8839    4.3479   -0.4001 H   0  0  0  0  0  0  0  0  0  0  0  0
    8.6121    4.7665   -0.0584 H   0  0  0  0  0  0  0  0  0  0  0  0
    9.9504    3.5893   -1.8975 H   0  0  0  0  0  0  0  0  0  0  0  0
    7.4069    3.8701   -4.6316 H   0  0  0  0  0  0  0  0  0  0  0  0
    8.1920    3.7305   -7.0334 H   0  0  0  0  0  0  0  0  0  0  0  0
   10.6392    3.4049   -7.4834 H   0  0  0  0  0  0  0  0  0  0  0  0
   13.5430    3.0841   -2.5759 H   0  0  0  0  0  0  0  0  0  0  0  0
   13.3954    3.9812   -4.1342 H   0  0  0  0  0  0  0  0  0  0  0  0
   13.1513    2.2152   -4.1073 H   0  0  0  0  0  0  0  0  0  0  0  0
    9.2066    2.8126    1.1941 H   0  0  0  0  0  0  0  0  0  0  0  0
    9.2267    1.9996   -0.3800 H   0  0  0  0  0  0  0  0  0  0  0  0
    4.2565    4.3396    1.1043 H   0  0  0  0  0  0  0  0  0  0  0  0
  1  2  1  0
  1 26  1  0
  1 27  1  0
  1 28  1  0
  2  3  1  0
  3  4  2  0
  3 25  1  0
  4  5  1  0
  4 29  1  0
  5  6  2  0
  5 30  1  0
  6  7  1  0
  6 31  1  0
  7  8  1  0
  7 25  2  0
  8  9  1  0
  8 23  1  0
  9 10  1  0
  9 32  1  0
  9 33  1  0
 10 11  1  0
 10 22  1  0
 10 34  1  6
 11 12  2  0
 11 13  1  0
 13 14  1  0
 13 35  1  0
 14 15  2  0
 14 19  1  0
 15 16  1  0
 15 36  1  0
 16 17  2  0
 16 37  1  0
 17 18  1  0
 17 38  1  0
 18 19  2  0
 19 20  1  0
 20 21  1  0
 21 39  1  0
 21 40  1  0
 21 41  1  0
 22 23  1  0
 22 42  1  0
 22 43  1  0
 23 24  2  0
 25 44  1  0
M  END

