
     RDKit          3D

 37 40  0  0  0  0  0  0  0  0999 V2000
    0.9755   -0.1512   -0.4953 C   0  0  0  0  0  0  0  0  0  0  0  0
    2.4717   -0.1084   -0.3361 C   0  0  0  0  0  0  0  0  0  0  0  0
    3.1440    1.1500   -0.2791 C   0  0  0  0  0  0  0  0  0  0  0  0
    4.5169    1.2219   -0.1406 C   0  0  0  0  0  0  0  0  0  0  0  0
    5.2581    2.5025   -0.0733 C   0  0  0  0  0  0  0  0  0  0  0  0
    4.6618    3.6020    0.5753 C   0  0  0  0  0  0  0  0  0  0  0  0
    5.3003    4.8416    0.6125 C   0  0  0  0  0  0  0  0  0  0  0  0
    6.5445    5.0074   -0.0032 C   0  0  0  0  0  0  0  0  0  0  0  0
    7.1467    3.9228   -0.6476 C   0  0  0  0  0  0  0  0  0  0  0  0
    6.5179    2.6773   -0.6782 C   0  0  0  0  0  0  0  0  0  0  0  0
    5.1709    0.0122   -0.0699 N   0  0  0  0  0  0  0  0  0  0  0  0
    6.4928   -0.1733    0.0850 N   0  0  0  0  0  0  0  0  0  0  0  0
    6.6478   -1.4954    0.1251 C   0  0  0  0  0  0  0  0  0  0  0  0
    5.4392   -2.2211    0.0019 C   0  0  0  0  0  0  0  0  0  0  0  0
    5.2585   -3.6791    0.0094 C   0  0  0  0  0  0  0  0  0  0  0  0
    6.3641   -4.5412    0.1606 C   0  0  0  0  0  0  0  0  0  0  0  0
    6.2142   -5.9270    0.1692 C   0  0  0  0  0  0  0  0  0  0  0  0
    4.9396   -6.4818    0.0251 C   0  0  0  0  0  0  0  0  0  0  0  0
    4.7421   -8.2217    0.0348 Cl  0  0  0  0  0  0  0  0  0  0  0  0
    3.8243   -5.6543   -0.1263 C   0  0  0  0  0  0  0  0  0  0  0  0
    3.9856   -4.2690   -0.1336 C   0  0  0  0  0  0  0  0  0  0  0  0
    4.4661   -1.2093   -0.1243 C   0  0  0  0  0  0  0  0  0  0  0  0
    3.1289   -1.2489   -0.2604 N   0  0  0  0  0  0  0  0  0  0  0  0
    0.4748    0.3734    0.3356 H   0  0  0  0  0  0  0  0  0  0  0  0
    0.6299   -1.1925   -0.5185 H   0  0  0  0  0  0  0  0  0  0  0  0
    0.6640    0.3494   -1.4274 H   0  0  0  0  0  0  0  0  0  0  0  0
    2.5738    2.0733   -0.3762 H   0  0  0  0  0  0  0  0  0  0  0  0
    3.7002    3.4774    1.0773 H   0  0  0  0  0  0  0  0  0  0  0  0
    4.8271    5.6789    1.1313 H   0  0  0  0  0  0  0  0  0  0  0  0
    7.0464    5.9779    0.0253 H   0  0  0  0  0  0  0  0  0  0  0  0
    8.1203    4.0442   -1.1289 H   0  0  0  0  0  0  0  0  0  0  0  0
    7.0028    1.8334   -1.1652 H   0  0  0  0  0  0  0  0  0  0  0  0
    7.6545   -1.8946    0.2455 H   0  0  0  0  0  0  0  0  0  0  0  0
    7.3688   -4.1295    0.2754 H   0  0  0  0  0  0  0  0  0  0  0  0
    7.0810   -6.5794    0.2874 H   0  0  0  0  0  0  0  0  0  0  0  0
    2.8327   -6.0967   -0.2381 H   0  0  0  0  0  0  0  0  0  0  0  0
    3.1150   -3.6236   -0.2512 H   0  0  0  0  0  0  0  0  0  0  0  0
  1  2  1  0
  1 24  1  0
  1 25  1  0
  1 26  1  0
  2  3  1  0
  2 23  2  0
  3  4  2  0
  3 27  1  0
  4  5  1  0
  4 11  1  0
  5  6  2  0
  5 10  1  0
  6  7  1  0
  6 28  1  0
  7  8  2  0
  7 29  1  0
  8  9  1  0
  8 30  1  0
  9 10  2  0
  9 31  1  0
 10 32  1  0
 11 12  1  0
 11 22  1  0
 12 13  2  0
 13 14  1  0
 13 33  1  0
 14 15  1  0
 14 22  2  0
 15 16  2  0
 15 21  1  0
 16 17  1  0
 16 34  1  0
 17 18  2  0
 17 35  1  0
 18 19  1  0
 18 20  1  0
 20 21  2  0
 20 36  1  0
 21 37  1  0
 22 23  1  0
M  END

