
     RDKit          3D

 42 43  0  0  0  0  0  0  0  0999 V2000
    1.3608   -0.1731   -1.8431 C   0  0  0  0  0  0  0  0  0  0  0  0
    2.7158    0.4715   -2.1688 C   0  0  1  0  0  0  0  0  0  0  0  0
    2.7281    1.1687   -3.5515 C   0  0  0  0  0  0  0  0  0  0  0  0
    1.9482    2.4913   -3.5421 C   0  0  0  0  0  0  0  0  0  0  0  0
    2.4372    3.3951   -2.4031 C   0  0  0  0  0  0  0  0  0  0  0  0
    2.4170    2.6375   -1.0634 C   0  0  0  0  0  0  0  0  0  0  0  0
    3.1529    1.3718   -1.0865 N   0  0  0  0  0  0  0  0  0  0  0  0
    4.5991    1.5148   -0.9228 C   0  0  0  0  0  0  0  0  0  0  0  0
    5.0282    1.7184    0.5360 C   0  0  0  0  0  0  0  0  0  0  0  0
    4.6747    0.5268    1.4341 C   0  0  0  0  0  0  0  0  0  0  0  0
    5.0142    0.7183    2.8334 N   0  0  0  0  0  0  0  0  0  0  0  0
    6.2615    0.4436    3.3238 C   0  0  0  0  0  0  0  0  0  0  0  0
    7.1466   -0.0234    2.5941 O   0  0  0  0  0  0  0  0  0  0  0  0
    6.5178    0.7160    4.7422 C   0  0  0  0  0  0  0  0  0  0  0  0
    5.3483    1.3838    5.8742 S   0  0  0  0  0  0  0  0  0  0  0  0
    6.5220    1.4218    7.1367 C   0  0  0  0  0  0  0  0  0  0  0  0
    7.7397    0.9412    6.7395 C   0  0  0  0  0  0  0  0  0  0  0  0
    7.7586    0.5226    5.3625 C   0  0  0  0  0  0  0  0  0  0  0  0
    8.8419   -0.0288    4.7467 N   0  0  0  0  0  0  0  0  0  0  0  0
    1.0990   -0.9246   -2.6052 H   0  0  0  0  0  0  0  0  0  0  0  0
    0.5377    0.5572   -1.8086 H   0  0  0  0  0  0  0  0  0  0  0  0
    1.4055   -0.6724   -0.8634 H   0  0  0  0  0  0  0  0  0  0  0  0
    3.4518   -0.3486   -2.2011 H   0  0  0  0  0  0  0  0  0  0  0  0
    2.3310    0.4858   -4.3220 H   0  0  0  0  0  0  0  0  0  0  0  0
    3.7770    1.3749   -3.8308 H   0  0  0  0  0  0  0  0  0  0  0  0
    0.8689    2.2918   -3.4139 H   0  0  0  0  0  0  0  0  0  0  0  0
    2.0499    3.0009   -4.5150 H   0  0  0  0  0  0  0  0  0  0  0  0
    1.8160    4.3040   -2.3264 H   0  0  0  0  0  0  0  0  0  0  0  0
    3.4644    3.7384   -2.6217 H   0  0  0  0  0  0  0  0  0  0  0  0
    1.3677    2.4354   -0.7829 H   0  0  0  0  0  0  0  0  0  0  0  0
    2.8247    3.2691   -0.2587 H   0  0  0  0  0  0  0  0  0  0  0  0
    5.0251    2.3386   -1.5354 H   0  0  0  0  0  0  0  0  0  0  0  0
    5.0728    0.5913   -1.2959 H   0  0  0  0  0  0  0  0  0  0  0  0
    4.5676    2.6351    0.9456 H   0  0  0  0  0  0  0  0  0  0  0  0
    6.1187    1.8777    0.5666 H   0  0  0  0  0  0  0  0  0  0  0  0
    5.2153   -0.3656    1.0834 H   0  0  0  0  0  0  0  0  0  0  0  0
    3.5971    0.3179    1.3563 H   0  0  0  0  0  0  0  0  0  0  0  0
    4.3386    1.1772    3.4319 H   0  0  0  0  0  0  0  0  0  0  0  0
    6.2455    1.7888    8.1245 H   0  0  0  0  0  0  0  0  0  0  0  0
    8.6057    0.8704    7.4000 H   0  0  0  0  0  0  0  0  0  0  0  0
    9.7600    0.1182    5.1425 H   0  0  0  0  0  0  0  0  0  0  0  0
    8.7400   -0.1700    3.7417 H   0  0  0  0  0  0  0  0  0  0  0  0
  1  2  1  0
  1 20  1  0
  1 21  1  0
  1 22  1  0
  2  3  1  0
  2  7  1  0
  2 23  1  6
  3  4  1  0
  3 24  1  0
  3 25  1  0
  4  5  1  0
  4 26  1  0
  4 27  1  0
  5  6  1  0
  5 28  1  0
  5 29  1  0
  6  7  1  0
  6 30  1  0
  6 31  1  0
  7  8  1  0
  8  9  1  0
  8 32  1  0
  8 33  1  0
  9 10  1  0
  9 34  1  0
  9 35  1  0
 10 11  1  0
 10 36  1  0
 10 37  1  0
 11 12  1  0
 11 38  1  0
 12 13  2  0
 12 14  1  0
 14 15  1  0
 14 18  2  0
 15 16  1  0
 16 17  2  0
 16 39  1  0
 17 18  1  0
 17 40  1  0
 18 19  1  0
 19 41  1  0
 19 42  1  0
M  END

