
     RDKit          3D

 40 44  0  0  0  0  0  0  0  0999 V2000
    5.5100   -0.5862   -1.0235 O   0  0  0  0  0  0  0  0  0  0  0  0
    4.3457    0.1534   -1.2350 C   0  0  0  0  0  0  0  0  0  0  0  0
    4.6052    1.6486   -1.4472 C   0  0  0  0  0  0  0  0  0  0  0  0
    5.7150    2.0003   -2.8729 S   0  0  0  0  0  0  0  0  0  0  0  0
    4.6595    1.5413   -4.2456 C   0  0  0  0  0  0  0  0  0  0  0  0
    3.4325    2.1721   -4.3992 C   0  0  0  0  0  0  0  0  0  0  0  0
    2.6000    1.8273   -5.4762 C   0  0  0  0  0  0  0  0  0  0  0  0
    3.0300    0.8850   -6.3837 C   0  0  0  0  0  0  0  0  0  0  0  0
    4.2955    0.2635   -6.2320 C   0  0  0  0  0  0  0  0  0  0  0  0
    5.0897    0.5991   -5.1474 N   0  0  0  0  0  0  0  0  0  0  0  0
    6.4994   -0.1515   -4.8895 B   0  0  2  0  0  0  0  0  0  0  0  0
    6.3696   -0.9297   -3.7299 F   0  0  0  0  0  0  0  0  0  0  0  0
    7.5160    0.7701   -4.7735 F   0  0  0  0  0  0  0  0  0  0  0  0
    6.7351   -1.0525   -6.1019 N   0  0  0  0  0  0  0  0  0  0  0  0
    5.8156   -1.2408   -7.0941 C   0  0  0  0  0  0  0  0  0  0  0  0
    6.3620   -2.2152   -8.0591 C   0  0  0  0  0  0  0  0  0  0  0  0
    5.9301   -2.8001   -9.2383 C   0  0  0  0  0  0  0  0  0  0  0  0
    6.8083   -3.7175   -9.8751 C   0  0  0  0  0  0  0  0  0  0  0  0
    8.0656   -4.0370   -9.3630 C   0  0  0  0  0  0  0  0  0  0  0  0
    8.5298   -3.4439   -8.1544 C   0  0  0  0  0  0  0  0  0  0  0  0
    9.7710   -3.6233   -7.4680 C   0  0  0  0  0  0  0  0  0  0  0  0
   10.0124   -2.9247   -6.2939 C   0  0  0  0  0  0  0  0  0  0  0  0
    9.0781   -2.0145   -5.7086 C   0  0  0  0  0  0  0  0  0  0  0  0
    7.8734   -1.8391   -6.3596 C   0  0  0  0  0  0  0  0  0  0  0  0
    7.6309   -2.5488   -7.5558 C   0  0  0  0  0  0  0  0  0  0  0  0
    4.6537   -0.6397   -7.1707 N   0  0  0  0  0  0  0  0  0  0  0  0
    5.9721   -0.6691   -1.8746 H   0  0  0  0  0  0  0  0  0  0  0  0
    3.7170    0.0524   -0.3314 H   0  0  0  0  0  0  0  0  0  0  0  0
    3.7429   -0.2366   -2.0815 H   0  0  0  0  0  0  0  0  0  0  0  0
    5.1774    2.0514   -0.5963 H   0  0  0  0  0  0  0  0  0  0  0  0
    3.6666    2.2196   -1.5269 H   0  0  0  0  0  0  0  0  0  0  0  0
    3.1403    2.9445   -3.6885 H   0  0  0  0  0  0  0  0  0  0  0  0
    1.6306    2.3164   -5.5992 H   0  0  0  0  0  0  0  0  0  0  0  0
    2.4399    0.5808   -7.2475 H   0  0  0  0  0  0  0  0  0  0  0  0
    4.9530   -2.5701   -9.6685 H   0  0  0  0  0  0  0  0  0  0  0  0
    6.4843   -4.1908  -10.8054 H   0  0  0  0  0  0  0  0  0  0  0  0
    8.6996   -4.7495   -9.8979 H   0  0  0  0  0  0  0  0  0  0  0  0
   10.5269   -4.3045   -7.8664 H   0  0  0  0  0  0  0  0  0  0  0  0
   10.9676   -3.0706   -5.7827 H   0  0  0  0  0  0  0  0  0  0  0  0
    9.3229   -1.4834   -4.7881 H   0  0  0  0  0  0  0  0  0  0  0  0
  1  2  1  0
  1 27  1  0
  2  3  1  0
  2 28  1  0
  2 29  1  0
  3  4  1  0
  3 30  1  0
  3 31  1  0
  4  5  2  0
  5  6  1  0
  5 10  1  0
  6  7  2  0
  6 32  1  0
  7  8  1  0
  7 33  1  0
  8  9  2  0
  8 34  1  0
  9 10  1  0
  9 26  1  0
 10 11  1  0
 11 12  1  1
 11 13  1  0
 11 14  1  0
 14 15  1  0
 14 24  1  0
 15 16  1  0
 15 26  2  0
 16 17  2  0
 16 25  1  0
 17 18  1  0
 17 35  1  0
 18 19  2  0
 18 36  1  0
 19 20  1  0
 19 37  1  0
 20 21  1  0
 20 25  2  0
 21 22  2  0
 21 38  1  0
 22 23  1  0
 22 39  1  0
 23 24  2  0
 23 40  1  0
 24 25  1  0
M  CHG  2   4   1  11  -1
M  END

