
     RDKit          3D

 31 32  0  0  0  0  0  0  0  0999 V2000
    1.1355   -0.1493   -2.0760 C   0  0  0  0  0  0  0  0  0  0  0  0
    2.6354    0.1544   -2.1732 C   0  0  1  0  0  0  0  0  0  0  0  0
    2.9512    0.8772   -3.4886 C   0  0  0  0  0  0  0  0  0  0  0  0
    3.1420    0.9587   -0.9352 C   0  0  1  0  0  0  0  0  0  0  0  0
    2.8352    0.3745    0.3705 N   0  0  0  0  0  0  0  0  0  0  0  0
    4.6393    1.1713   -0.9942 C   0  0  0  0  0  0  0  0  0  0  0  0
    5.2982    2.3748   -1.0886 C   0  0  0  0  0  0  0  0  0  0  0  0
    7.0102    2.1388   -1.1003 S   0  0  0  0  0  0  0  0  0  0  0  0
    6.7262    0.4144   -0.9726 C   0  0  0  0  0  0  0  0  0  0  0  0
    7.8609   -0.5189   -0.9238 C   0  0  0  0  0  0  0  0  0  0  0  0
    7.6458   -1.9046   -0.8196 C   0  0  0  0  0  0  0  0  0  0  0  0
    8.7563   -2.7447   -0.7767 C   0  0  0  0  0  0  0  0  0  0  0  0
   10.0349   -2.1827   -0.8385 C   0  0  0  0  0  0  0  0  0  0  0  0
   10.1411   -0.7909   -0.9418 C   0  0  0  0  0  0  0  0  0  0  0  0
    9.0871    0.0216   -0.9836 N   0  0  0  0  0  0  0  0  0  0  0  0
    5.4645    0.0786   -0.9303 N   0  0  0  0  0  0  0  0  0  0  0  0
    0.7944   -0.7257   -2.9507 H   0  0  0  0  0  0  0  0  0  0  0  0
    0.5409    0.7809   -2.0412 H   0  0  0  0  0  0  0  0  0  0  0  0
    0.8892   -0.7418   -1.1813 H   0  0  0  0  0  0  0  0  0  0  0  0
    3.1854   -0.8046   -2.1654 H   0  0  0  0  0  0  0  0  0  0  0  0
    2.4475    1.8592   -3.5316 H   0  0  0  0  0  0  0  0  0  0  0  0
    2.6016    0.2910   -4.3537 H   0  0  0  0  0  0  0  0  0  0  0  0
    4.0302    1.0502   -3.6168 H   0  0  0  0  0  0  0  0  0  0  0  0
    2.6644    1.9551   -0.9719 H   0  0  0  0  0  0  0  0  0  0  0  0
    3.3129   -0.5234    0.4613 H   0  0  0  0  0  0  0  0  0  0  0  0
    1.8369    0.1993    0.4692 H   0  0  0  0  0  0  0  0  0  0  0  0
    4.8618    3.3706   -1.1435 H   0  0  0  0  0  0  0  0  0  0  0  0
    6.6245   -2.2845   -0.7754 H   0  0  0  0  0  0  0  0  0  0  0  0
    8.6270   -3.8272   -0.6957 H   0  0  0  0  0  0  0  0  0  0  0  0
   10.9322   -2.8046   -0.8077 H   0  0  0  0  0  0  0  0  0  0  0  0
   11.1272   -0.3141   -0.9927 H   0  0  0  0  0  0  0  0  0  0  0  0
  1  2  1  0
  1 17  1  0
  1 18  1  0
  1 19  1  0
  2  3  1  0
  2  4  1  0
  2 20  1  6
  3 21  1  0
  3 22  1  0
  3 23  1  0
  4  5  1  0
  4  6  1  0
  4 24  1  1
  5 25  1  0
  5 26  1  0
  6  7  2  0
  6 16  1  0
  7  8  1  0
  7 27  1  0
  8  9  1  0
  9 10  1  0
  9 16  2  0
 10 11  2  0
 10 15  1  0
 11 12  1  0
 11 28  1  0
 12 13  2  0
 12 29  1  0
 13 14  1  0
 13 30  1  0
 14 15  2  0
 14 31  1  0
M  END

