
     RDKit          3D

 38 38  0  0  0  0  0  0  0  0999 V2000
    0.7678   -0.1203    0.5957 C   0  0  0  0  0  0  0  0  0  0  0  0
    2.2125   -0.4566    0.3713 C   0  0  0  0  0  0  0  0  0  0  0  0
    3.2158   -0.1866    1.2154 C   0  0  0  0  0  0  0  0  0  0  0  0
    4.6689   -0.4894    0.9616 C   0  0  0  0  0  0  0  0  0  0  0  0
    5.2900   -1.2019    2.0751 N   0  0  0  0  0  0  0  0  0  0  0  0
    4.8147   -2.5737    2.2602 C   0  0  0  0  0  0  0  0  0  0  0  0
    5.4801   -3.5949    1.3211 C   0  0  0  0  0  0  0  0  0  0  0  0
    7.0080   -3.5098    1.4293 C   0  0  0  0  0  0  0  0  0  0  0  0
    7.4836   -2.0631    1.2316 C   0  0  0  0  0  0  0  0  0  0  0  0
    6.7538   -1.0712    2.1720 C   0  0  2  0  0  0  0  0  0  0  0  0
    7.2047   -1.1485    3.6450 C   0  0  0  0  0  0  0  0  0  0  0  0
    8.6429   -0.6961    3.9008 C   0  0  0  0  0  0  0  0  0  0  0  0
    8.9288   -0.6332    5.3247 N   0  0  0  0  0  0  0  0  0  0  0  0
   10.2859   -0.2389    5.6447 C   0  0  0  0  0  0  0  0  0  0  0  0
    0.3869    0.5538   -0.1923 H   0  0  0  0  0  0  0  0  0  0  0  0
    0.6092    0.3705    1.5684 H   0  0  0  0  0  0  0  0  0  0  0  0
    0.1353   -1.0250    0.5608 H   0  0  0  0  0  0  0  0  0  0  0  0
    2.4504   -0.9616   -0.5757 H   0  0  0  0  0  0  0  0  0  0  0  0
    3.0050    0.3041    2.1749 H   0  0  0  0  0  0  0  0  0  0  0  0
    5.2088    0.4691    0.8562 H   0  0  0  0  0  0  0  0  0  0  0  0
    4.7663   -1.0031   -0.0214 H   0  0  0  0  0  0  0  0  0  0  0  0
    3.7215   -2.5812    2.1301 H   0  0  0  0  0  0  0  0  0  0  0  0
    5.0009   -2.8753    3.3067 H   0  0  0  0  0  0  0  0  0  0  0  0
    5.1741   -3.3972    0.2779 H   0  0  0  0  0  0  0  0  0  0  0  0
    5.1239   -4.6114    1.5617 H   0  0  0  0  0  0  0  0  0  0  0  0
    7.4899   -4.1722    0.6904 H   0  0  0  0  0  0  0  0  0  0  0  0
    7.3258   -3.8789    2.4215 H   0  0  0  0  0  0  0  0  0  0  0  0
    7.2833   -1.7622    0.1877 H   0  0  0  0  0  0  0  0  0  0  0  0
    8.5756   -1.9902    1.3646 H   0  0  0  0  0  0  0  0  0  0  0  0
    6.9931   -0.0491    1.8315 H   0  0  0  0  0  0  0  0  0  0  0  0
    7.0796   -2.1732    4.0385 H   0  0  0  0  0  0  0  0  0  0  0  0
    6.5291   -0.5082    4.2332 H   0  0  0  0  0  0  0  0  0  0  0  0
    8.7886    0.3168    3.4793 H   0  0  0  0  0  0  0  0  0  0  0  0
    9.3590   -1.3533    3.3538 H   0  0  0  0  0  0  0  0  0  0  0  0
    8.7156   -1.5317    5.7570 H   0  0  0  0  0  0  0  0  0  0  0  0
   10.4653    0.7978    5.3110 H   0  0  0  0  0  0  0  0  0  0  0  0
   11.0764   -0.8701    5.1762 H   0  0  0  0  0  0  0  0  0  0  0  0
   10.4391   -0.2613    6.7353 H   0  0  0  0  0  0  0  0  0  0  0  0
  1  2  1  0
  1 15  1  0
  1 16  1  0
  1 17  1  0
  2  3  2  0
  2 18  1  0
  3  4  1  0
  3 19  1  0
  4  5  1  0
  4 20  1  0
  4 21  1  0
  5  6  1  0
  5 10  1  0
  6  7  1  0
  6 22  1  0
  6 23  1  0
  7  8  1  0
  7 24  1  0
  7 25  1  0
  8  9  1  0
  8 26  1  0
  8 27  1  0
  9 10  1  0
  9 28  1  0
  9 29  1  0
 10 11  1  0
 10 30  1  6
 11 12  1  0
 11 31  1  0
 11 32  1  0
 12 13  1  0
 12 33  1  0
 12 34  1  0
 13 14  1  0
 13 35  1  0
 14 36  1  0
 14 37  1  0
 14 38  1  0
M  END

