
     RDKit          3D

 55 58  0  0  0  0  0  0  0  0999 V2000
    2.6384    1.5386   -0.3618 C   0  0  0  0  0  0  0  0  0  0  0  0
    2.6270    0.0867    0.1569 C   0  0  2  0  0  0  0  0  0  0  0  0
    1.5778   -0.1876    0.3601 H   0  0  0  0  0  0  0  0  0  0  0  0
    3.4388   -0.1096    1.3408 N   0  0  0  0  0  0  0  0  0  0  0  0
    3.1762    0.2643    2.6157 C   0  0  0  0  0  0  0  0  0  0  0  0
    4.1047   -0.0919    3.5248 N   0  0  0  0  0  0  0  0  0  0  0  0
    3.8496    0.2592    4.7780 C   0  0  0  0  0  0  0  0  0  0  0  0
    2.7173    0.9647    5.1856 C   0  0  0  0  0  0  0  0  0  0  0  0
    1.8101    1.3071    4.1671 C   0  0  0  0  0  0  0  0  0  0  0  0
    0.6302    2.0342    4.4166 N   0  0  0  0  0  0  0  0  0  0  0  0
    0.4223    2.7229    5.6307 C   0  0  0  0  0  0  0  0  0  0  0  0
    1.0653    2.6707    6.6414 O   0  0  0  0  0  0  0  0  0  0  0  0
   -0.6601    3.5185    5.5021 O   0  0  0  0  0  0  0  0  0  0  0  0
   -1.3464    3.2301    4.2935 C   0  0  0  0  0  0  0  0  0  0  0  0
   -0.3291    2.5197    3.3872 C   0  0  2  0  0  0  0  0  0  0  0  0
   -1.0183    1.4740    2.4721 C   0  0  1  0  0  0  0  0  0  0  0  0
   -1.3098    0.6217    3.1272 H   0  0  0  0  0  0  0  0  0  0  0  0
   -2.2795    2.0441    1.8183 C   0  0  0  0  0  0  0  0  0  0  0  0
   -0.1854    1.0666    1.4263 O   0  0  0  0  0  0  0  0  0  0  0  0
    2.0416    0.9444    2.8957 N   0  0  0  0  0  0  0  0  0  0  0  0
    3.1088   -0.8648   -0.9289 C   0  0  0  0  0  0  0  0  0  0  0  0
    2.3454   -0.9586   -2.0237 N   0  0  0  0  0  0  0  0  0  0  0  0
    2.7583   -1.7716   -2.9884 C   0  0  0  0  0  0  0  0  0  0  0  0
    3.9443   -2.5268   -2.9012 C   0  0  0  0  0  0  0  0  0  0  0  0
    4.3966   -3.4365   -3.9783 C   0  0  0  0  0  0  0  0  0  0  0  0
    5.7608   -3.5862   -4.2823 C   0  0  0  0  0  0  0  0  0  0  0  0
    6.1792   -4.4456   -5.2954 C   0  0  0  0  0  0  0  0  0  0  0  0
    5.2430   -5.1756   -6.0335 C   0  0  0  0  0  0  0  0  0  0  0  0
    5.8265   -6.2303   -7.2903 Cl  0  0  0  0  0  0  0  0  0  0  0  0
    3.8707   -5.0438   -5.7520 C   0  0  0  0  0  0  0  0  0  0  0  0
    2.8183   -5.8212   -6.5205 C   0  0  1  0  0  0  0  0  0  0  0  0
    2.8425   -5.5284   -7.8292 F   0  0  0  0  0  0  0  0  0  0  0  0
    2.9885   -7.1457   -6.3968 F   0  0  0  0  0  0  0  0  0  0  0  0
    1.5809   -5.5378   -6.0747 F   0  0  0  0  0  0  0  0  0  0  0  0
    3.4702   -4.1790   -4.7294 C   0  0  0  0  0  0  0  0  0  0  0  0
    4.6627   -2.3443   -1.7099 C   0  0  0  0  0  0  0  0  0  0  0  0
    4.2550   -1.5240   -0.7426 N   0  0  0  0  0  0  0  0  0  0  0  0
    3.6685    1.8610   -0.5810 H   0  0  0  0  0  0  0  0  0  0  0  0
    2.2052    2.2075    0.3933 H   0  0  0  0  0  0  0  0  0  0  0  0
    2.0323    1.6107   -1.2757 H   0  0  0  0  0  0  0  0  0  0  0  0
    4.2892   -0.6523    1.2112 H   0  0  0  0  0  0  0  0  0  0  0  0
    4.5952   -0.0348    5.5270 H   0  0  0  0  0  0  0  0  0  0  0  0
    2.5552    1.2446    6.2196 H   0  0  0  0  0  0  0  0  0  0  0  0
   -1.7260    4.1654    3.8628 H   0  0  0  0  0  0  0  0  0  0  0  0
   -2.2004    2.5727    4.5281 H   0  0  0  0  0  0  0  0  0  0  0  0
    0.1868    3.2408    2.7272 H   0  0  0  0  0  0  0  0  0  0  0  0
   -3.0923    2.2463    2.5309 H   0  0  0  0  0  0  0  0  0  0  0  0
   -2.6422    1.3077    1.0870 H   0  0  0  0  0  0  0  0  0  0  0  0
   -2.0420    2.9678    1.2660 H   0  0  0  0  0  0  0  0  0  0  0  0
    0.7097    0.9501    1.8292 H   0  0  0  0  0  0  0  0  0  0  0  0
    2.1335   -1.8216   -3.8883 H   0  0  0  0  0  0  0  0  0  0  0  0
    6.5103   -3.0079   -3.7376 H   0  0  0  0  0  0  0  0  0  0  0  0
    7.2389   -4.5522   -5.5317 H   0  0  0  0  0  0  0  0  0  0  0  0
    2.4060   -4.1045   -4.5060 H   0  0  0  0  0  0  0  0  0  0  0  0
    5.5914   -2.8967   -1.5253 H   0  0  0  0  0  0  0  0  0  0  0  0
  1  2  1  0
  1 38  1  0
  1 39  1  0
  1 40  1  0
  2  3  1  1
  2  4  1  0
  2 21  1  0
  4  5  1  0
  4 41  1  0
  5  6  2  0
  5 20  1  0
  6  7  1  0
  7  8  2  0
  7 42  1  0
  8  9  1  0
  8 43  1  0
  9 10  1  0
  9 20  2  0
 10 11  1  0
 10 15  1  0
 11 12  2  0
 11 13  1  0
 13 14  1  0
 14 15  1  0
 14 44  1  0
 14 45  1  0
 15 16  1  0
 15 46  1  6
 16 17  1  1
 16 18  1  0
 16 19  1  0
 18 47  1  0
 18 48  1  0
 18 49  1  0
 19 50  1  0
 21 22  2  0
 21 37  1  0
 22 23  1  0
 23 24  2  0
 23 51  1  0
 24 25  1  0
 24 36  1  0
 25 26  2  0
 25 35  1  0
 26 27  1  0
 26 52  1  0
 27 28  2  0
 27 53  1  0
 28 29  1  0
 28 30  1  0
 30 31  1  0
 30 35  2  0
 31 32  1  6
 31 33  1  0
 31 34  1  0
 35 54  1  0
 36 37  2  0
 36 55  1  0
M  END

