
     RDKit          3D

 35 36  0  0  0  0  0  0  0  0999 V2000
    2.5208   -0.3750    2.1838 C   0  0  0  0  0  0  0  0  0  0  0  0
    2.6998   -0.1098    0.6839 C   0  0  1  0  0  0  0  0  0  0  0  0
    1.4176   -0.2755   -0.1040 C   0  0  0  0  0  0  0  0  0  0  0  0
    0.1875   -0.7244    0.3159 C   0  0  0  0  0  0  0  0  0  0  0  0
   -0.7791   -0.7968   -0.7354 C   0  0  0  0  0  0  0  0  0  0  0  0
   -0.2721   -0.3964   -1.9439 C   0  0  0  0  0  0  0  0  0  0  0  0
    1.3884    0.0738   -1.8149 S   0  0  0  0  0  0  0  0  0  0  0  0
    3.3071    1.2100    0.4047 N   0  0  0  0  0  0  0  0  0  0  0  0
    2.5865    2.4252    0.7820 C   0  0  0  0  0  0  0  0  0  0  0  0
    4.9742    1.2880    0.2481 S   0  0  1  0  0  0  0  0  0  0  0  0
    5.3924    2.6429    0.6005 O   0  0  0  0  0  0  0  0  0  0  0  0
    5.5667    0.1157    0.9058 O   0  0  0  0  0  0  0  0  0  0  0  0
    5.2789    1.0626   -1.5189 C   0  0  0  0  0  0  0  0  0  0  0  0
    6.1239    0.0289   -1.9185 C   0  0  0  0  0  0  0  0  0  0  0  0
    6.4442   -0.1469   -3.2796 C   0  0  0  0  0  0  0  0  0  0  0  0
    7.2417   -1.1999   -3.6893 N   0  0  0  0  0  0  0  0  0  0  0  0
    5.8934    0.7506   -4.2148 C   0  0  0  0  0  0  0  0  0  0  0  0
    5.0501    1.7838   -3.8030 C   0  0  0  0  0  0  0  0  0  0  0  0
    4.3730    2.8803   -4.9717 Cl  0  0  0  0  0  0  0  0  0  0  0  0
    4.7392    1.9528   -2.4511 C   0  0  0  0  0  0  0  0  0  0  0  0
    3.9236    2.9379   -2.0665 F   0  0  0  0  0  0  0  0  0  0  0  0
    2.1697   -1.4035    2.3555 H   0  0  0  0  0  0  0  0  0  0  0  0
    1.7939    0.3144    2.6396 H   0  0  0  0  0  0  0  0  0  0  0  0
    3.4909   -0.2557    2.6860 H   0  0  0  0  0  0  0  0  0  0  0  0
    3.4236   -0.8510    0.3108 H   0  0  0  0  0  0  0  0  0  0  0  0
   -0.0274   -1.0017    1.3481 H   0  0  0  0  0  0  0  0  0  0  0  0
   -1.8093   -1.1276   -0.5934 H   0  0  0  0  0  0  0  0  0  0  0  0
   -0.7828   -0.3388   -2.9043 H   0  0  0  0  0  0  0  0  0  0  0  0
    1.5557    2.3468    0.4063 H   0  0  0  0  0  0  0  0  0  0  0  0
    3.0621    3.2941    0.3152 H   0  0  0  0  0  0  0  0  0  0  0  0
    2.5617    2.5846    1.8737 H   0  0  0  0  0  0  0  0  0  0  0  0
    6.5272   -0.6366   -1.1534 H   0  0  0  0  0  0  0  0  0  0  0  0
    7.8281   -1.6334   -2.9866 H   0  0  0  0  0  0  0  0  0  0  0  0
    7.6832   -1.1222   -4.5974 H   0  0  0  0  0  0  0  0  0  0  0  0
    6.1134    0.6479   -5.2790 H   0  0  0  0  0  0  0  0  0  0  0  0
  1  2  1  0
  1 22  1  0
  1 23  1  0
  1 24  1  0
  2  3  1  0
  2  8  1  0
  2 25  1  6
  3  4  2  0
  3  7  1  0
  4  5  1  0
  4 26  1  0
  5  6  2  0
  5 27  1  0
  6  7  1  0
  6 28  1  0
  8  9  1  0
 10  8  1  6
  9 29  1  0
  9 30  1  0
  9 31  1  0
 10 11  2  0
 10 12  2  0
 10 13  1  0
 13 14  2  0
 13 20  1  0
 14 15  1  0
 14 32  1  0
 15 16  1  0
 15 17  2  0
 16 33  1  0
 16 34  1  0
 17 18  1  0
 17 35  1  0
 18 19  1  0
 18 20  2  0
 20 21  1  0
M  END

