
     RDKit          3D

 92 95  0  0  0  0  0  0  0  0999 V2000
    2.2975    0.6208    2.5205 C   0  0  0  0  0  0  0  0  0  0  0  0
    3.1424    0.4177    1.3464 N   0  0  0  0  0  0  0  0  0  0  0  0
    3.3838    1.3881    0.3965 C   0  0  0  0  0  0  0  0  0  0  0  0
    4.1716    1.1852   -0.5203 O   0  0  0  0  0  0  0  0  0  0  0  0
    2.5325    2.6851    0.4520 C   0  0  2  0  0  0  0  0  0  0  0  0
    1.4944    2.3115    0.5233 H   0  0  0  0  0  0  0  0  0  0  0  0
    2.6071    3.5298   -0.8502 C   0  0  2  0  0  0  0  0  0  0  0  0
    2.0972    2.7898   -2.1014 C   0  0  0  0  0  0  0  0  0  0  0  0
    2.0481    3.7181   -3.3227 C   0  0  0  0  0  0  0  0  0  0  0  0
    3.4102    4.3729   -3.5866 C   0  0  0  0  0  0  0  0  0  0  0  0
    3.9265    5.1081   -2.3431 C   0  0  0  0  0  0  0  0  0  0  0  0
    3.9768    4.1824   -1.1192 C   0  0  0  0  0  0  0  0  0  0  0  0
    2.7607    3.4555    1.6757 N   0  0  0  0  0  0  0  0  0  0  0  0
    1.7445    4.4460    2.0129 C   0  0  0  0  0  0  0  0  0  0  0  0
    1.3059    4.4515    3.4735 C   0  0  0  0  0  0  0  0  0  0  0  0
    0.5556    3.2830    3.7678 O   0  0  0  0  0  0  0  0  0  0  0  0
   -0.1582    3.2271    4.9354 C   0  0  0  0  0  0  0  0  0  0  0  0
   -0.1229    4.2513    5.8950 C   0  0  0  0  0  0  0  0  0  0  0  0
   -0.8919    4.1604    7.0604 C   0  0  0  0  0  0  0  0  0  0  0  0
   -1.6962    3.0459    7.2814 C   0  0  0  0  0  0  0  0  0  0  0  0
   -1.7100    2.0200    6.3305 C   0  0  0  0  0  0  0  0  0  0  0  0
   -0.9531    2.0727    5.1529 C   0  0  0  0  0  0  0  0  0  0  0  0
   -0.9846    0.8952    4.1995 C   0  0  0  0  0  0  0  0  0  0  0  0
   -1.6543    1.1402    2.8335 C   0  0  0  0  0  0  0  0  0  0  0  0
   -2.0625   -0.1470    2.0940 C   0  0  0  0  0  0  0  0  0  0  0  0
   -0.9910   -1.0805    1.7669 N   0  0  0  0  0  0  0  0  0  0  0  0
   -0.7304   -2.1811    2.5278 C   0  0  0  0  0  0  0  0  0  0  0  0
   -1.3118   -2.4372    3.5707 O   0  0  0  0  0  0  0  0  0  0  0  0
    0.3520   -3.1548    1.9853 C   0  0  1  0  0  0  0  0  0  0  0  0
    0.4640   -3.8762    2.8058 H   0  0  0  0  0  0  0  0  0  0  0  0
   -0.0993   -3.9323    0.7222 C   0  0  0  0  0  0  0  0  0  0  0  0
   -1.3614   -4.7410    0.9227 C   0  0  0  0  0  0  0  0  0  0  0  0
   -2.6122   -4.2486    0.5260 C   0  0  0  0  0  0  0  0  0  0  0  0
   -3.7818   -4.9872    0.7228 C   0  0  0  0  0  0  0  0  0  0  0  0
   -3.7228   -6.2485    1.3293 C   0  0  0  0  0  0  0  0  0  0  0  0
   -4.8248   -7.0143    1.5456 O   0  0  0  0  0  0  0  0  0  0  0  0
   -2.4795   -6.7597    1.7295 C   0  0  0  0  0  0  0  0  0  0  0  0
   -1.3233   -6.0103    1.5257 C   0  0  0  0  0  0  0  0  0  0  0  0
    1.6712   -2.5320    1.8200 N   0  0  0  0  0  0  0  0  0  0  0  0
    2.0132   -1.6456    0.8591 C   0  0  0  0  0  0  0  0  0  0  0  0
    1.2513   -1.2725   -0.0332 O   0  0  0  0  0  0  0  0  0  0  0  0
    3.4102   -0.9695    0.9516 C   0  0  2  0  0  0  0  0  0  0  0  0
    3.7609   -0.9092   -0.0866 H   0  0  0  0  0  0  0  0  0  0  0  0
    4.5476   -1.6826    1.7323 C   0  0  1  0  0  0  0  0  0  0  0  0
    4.9215   -2.9915    1.0203 C   0  0  0  0  0  0  0  0  0  0  0  0
    5.7657   -0.7619    1.8441 C   0  0  0  0  0  0  0  0  0  0  0  0
    4.0576   -1.9837    3.0578 O   0  0  0  0  0  0  0  0  0  0  0  0
    2.3839    1.6550    2.8599 H   0  0  0  0  0  0  0  0  0  0  0  0
    2.6319   -0.0562    3.3167 H   0  0  0  0  0  0  0  0  0  0  0  0
    1.2389    0.4120    2.3021 H   0  0  0  0  0  0  0  0  0  0  0  0
    1.8934    4.3590   -0.6749 H   0  0  0  0  0  0  0  0  0  0  0  0
    1.0954    2.3679   -1.9052 H   0  0  0  0  0  0  0  0  0  0  0  0
    2.7623    1.9385   -2.3122 H   0  0  0  0  0  0  0  0  0  0  0  0
    1.2922    4.5089   -3.1565 H   0  0  0  0  0  0  0  0  0  0  0  0
    1.7156    3.1551   -4.2112 H   0  0  0  0  0  0  0  0  0  0  0  0
    3.3445    5.0664   -4.4423 H   0  0  0  0  0  0  0  0  0  0  0  0
    4.1379    3.5913   -3.8724 H   0  0  0  0  0  0  0  0  0  0  0  0
    3.2619    5.9665   -2.1287 H   0  0  0  0  0  0  0  0  0  0  0  0
    4.9264    5.5326   -2.5364 H   0  0  0  0  0  0  0  0  0  0  0  0
    4.3048    4.7600   -0.2360 H   0  0  0  0  0  0  0  0  0  0  0  0
    4.7231    3.3896   -1.2792 H   0  0  0  0  0  0  0  0  0  0  0  0
    3.6958    3.8548    1.6872 H   0  0  0  0  0  0  0  0  0  0  0  0
    0.8435    4.2643    1.4048 H   0  0  0  0  0  0  0  0  0  0  0  0
    2.0685    5.4779    1.7732 H   0  0  0  0  0  0  0  0  0  0  0  0
    0.6820    5.3497    3.6353 H   0  0  0  0  0  0  0  0  0  0  0  0
    2.1817    4.5239    4.1464 H   0  0  0  0  0  0  0  0  0  0  0  0
    0.5067    5.1279    5.7482 H   0  0  0  0  0  0  0  0  0  0  0  0
   -0.8507    4.9706    7.7931 H   0  0  0  0  0  0  0  0  0  0  0  0
   -2.3012    2.9646    8.1874 H   0  0  0  0  0  0  0  0  0  0  0  0
   -2.3242    1.1324    6.5073 H   0  0  0  0  0  0  0  0  0  0  0  0
   -1.5070    0.0661    4.7001 H   0  0  0  0  0  0  0  0  0  0  0  0
    0.0427    0.5357    4.0344 H   0  0  0  0  0  0  0  0  0  0  0  0
   -0.9986    1.7576    2.1974 H   0  0  0  0  0  0  0  0  0  0  0  0
   -2.5784    1.7269    2.9808 H   0  0  0  0  0  0  0  0  0  0  0  0
   -2.5676    0.1305    1.1533 H   0  0  0  0  0  0  0  0  0  0  0  0
   -2.7882   -0.7019    2.7076 H   0  0  0  0  0  0  0  0  0  0  0  0
   -0.4369   -0.9526    0.9179 H   0  0  0  0  0  0  0  0  0  0  0  0
    0.7333   -4.6018    0.4482 H   0  0  0  0  0  0  0  0  0  0  0  0
   -0.2208   -3.2278   -0.1113 H   0  0  0  0  0  0  0  0  0  0  0  0
   -2.6778   -3.2663    0.0504 H   0  0  0  0  0  0  0  0  0  0  0  0
   -4.7469   -4.5814    0.4023 H   0  0  0  0  0  0  0  0  0  0  0  0
   -5.6089   -6.5421    1.2365 H   0  0  0  0  0  0  0  0  0  0  0  0
   -2.4427   -7.7464    2.1956 H   0  0  0  0  0  0  0  0  0  0  0  0
   -0.3616   -6.4276    1.8402 H   0  0  0  0  0  0  0  0  0  0  0  0
    2.3520   -2.6481    2.5714 H   0  0  0  0  0  0  0  0  0  0  0  0
    5.6921   -3.5301    1.5965 H   0  0  0  0  0  0  0  0  0  0  0  0
    5.3319   -2.7937    0.0184 H   0  0  0  0  0  0  0  0  0  0  0  0
    4.0500   -3.6539    0.9140 H   0  0  0  0  0  0  0  0  0  0  0  0
    6.6028   -1.2937    2.3275 H   0  0  0  0  0  0  0  0  0  0  0  0
    5.5193    0.1256    2.4428 H   0  0  0  0  0  0  0  0  0  0  0  0
    6.0954   -0.4213    0.8519 H   0  0  0  0  0  0  0  0  0  0  0  0
    4.7792   -2.3715    3.5719 H   0  0  0  0  0  0  0  0  0  0  0  0
  1  2  1  0
  1 48  1  0
  1 49  1  0
  1 50  1  0
  2  3  1  0
  2 42  1  0
  3  4  2  0
  3  5  1  0
  5  6  1  1
  5  7  1  0
  5 13  1  0
  7  8  1  0
  7 12  1  0
  7 51  1  1
  8  9  1  0
  8 52  1  0
  8 53  1  0
  9 10  1  0
  9 54  1  0
  9 55  1  0
 10 11  1  0
 10 56  1  0
 10 57  1  0
 11 12  1  0
 11 58  1  0
 11 59  1  0
 12 60  1  0
 12 61  1  0
 13 14  1  0
 13 62  1  0
 14 15  1  0
 14 63  1  0
 14 64  1  0
 15 16  1  0
 15 65  1  0
 15 66  1  0
 16 17  1  0
 17 18  1  0
 17 22  2  0
 18 19  2  0
 18 67  1  0
 19 20  1  0
 19 68  1  0
 20 21  2  0
 20 69  1  0
 21 22  1  0
 21 70  1  0
 22 23  1  0
 23 24  1  0
 23 71  1  0
 23 72  1  0
 24 25  1  0
 24 73  1  0
 24 74  1  0
 25 26  1  0
 25 75  1  0
 25 76  1  0
 26 27  1  0
 26 77  1  0
 27 28  2  0
 27 29  1  0
 29 30  1  1
 29 31  1  0
 29 39  1  0
 31 32  1  0
 31 78  1  0
 31 79  1  0
 32 33  2  0
 32 38  1  0
 33 34  1  0
 33 80  1  0
 34 35  2  0
 34 81  1  0
 35 36  1  0
 35 37  1  0
 36 82  1  0
 37 38  2  0
 37 83  1  0
 38 84  1  0
 39 40  1  0
 39 85  1  0
 40 41  2  0
 40 42  1  0
 42 43  1  6
 42 44  1  0
 44 45  1  0
 44 46  1  0
 44 47  1  1
 45 86  1  0
 45 87  1  0
 45 88  1  0
 46 89  1  0
 46 90  1  0
 46 91  1  0
 47 92  1  0
M  END

