
     RDKit          3D

 44 45  0  0  0  0  0  0  0  0999 V2000
    2.5390    1.6772   -1.7507 C   0  0  0  0  0  0  0  0  0  0  0  0
    2.3063    2.3418   -0.3894 C   0  0  1  0  0  0  0  0  0  0  0  0
    0.8089    2.5061   -0.1024 C   0  0  0  0  0  0  0  0  0  0  0  0
    2.9956    1.5740    0.7654 C   0  0  0  0  0  0  0  0  0  0  0  0
    4.5052    1.5049    0.6786 C   0  0  0  0  0  0  0  0  0  0  0  0
    5.2912    2.6272    0.9875 C   0  0  0  0  0  0  0  0  0  0  0  0
    6.6858    2.5800    0.8933 C   0  0  0  0  0  0  0  0  0  0  0  0
    7.3208    1.4074    0.4899 C   0  0  0  0  0  0  0  0  0  0  0  0
    6.5619    0.2660    0.1798 C   0  0  0  0  0  0  0  0  0  0  0  0
    7.3030   -0.9730   -0.2449 C   0  0  0  0  0  0  0  0  0  0  0  0
    8.5191   -0.9714   -0.3063 O   0  0  0  0  0  0  0  0  0  0  0  0
    6.5290   -2.2222   -0.6476 C   0  0  0  0  0  0  0  0  0  0  0  0
    6.1577   -2.2056   -2.1514 C   0  0  0  0  0  0  0  0  0  0  0  0
    5.4606   -3.4735   -2.5965 C   0  0  0  0  0  0  0  0  0  0  0  0
    4.0592   -3.5574   -2.6072 C   0  0  0  0  0  0  0  0  0  0  0  0
    3.4386   -4.7527   -2.9818 C   0  0  0  0  0  0  0  0  0  0  0  0
    4.1907   -5.8678   -3.3471 C   0  0  0  0  0  0  0  0  0  0  0  0
    5.5992   -5.8039   -3.3470 C   0  0  0  0  0  0  0  0  0  0  0  0
    6.3609   -6.8868   -3.7625 N   0  0  0  0  0  0  0  0  0  0  0  0
    6.2134   -4.5948   -2.9661 C   0  0  0  0  0  0  0  0  0  0  0  0
    5.1612    0.3311    0.2793 C   0  0  0  0  0  0  0  0  0  0  0  0
    2.0676    2.2586   -2.5595 H   0  0  0  0  0  0  0  0  0  0  0  0
    2.1022    0.6633   -1.7745 H   0  0  0  0  0  0  0  0  0  0  0  0
    3.6109    1.5867   -1.9852 H   0  0  0  0  0  0  0  0  0  0  0  0
    2.7565    3.3517   -0.4255 H   0  0  0  0  0  0  0  0  0  0  0  0
    0.3076    1.5245   -0.0431 H   0  0  0  0  0  0  0  0  0  0  0  0
    0.3112    3.0846   -0.8972 H   0  0  0  0  0  0  0  0  0  0  0  0
    0.6334    3.0271    0.8530 H   0  0  0  0  0  0  0  0  0  0  0  0
    2.5817    0.5513    0.8067 H   0  0  0  0  0  0  0  0  0  0  0  0
    2.7149    2.0587    1.7165 H   0  0  0  0  0  0  0  0  0  0  0  0
    4.8035    3.5508    1.3138 H   0  0  0  0  0  0  0  0  0  0  0  0
    7.2776    3.4648    1.1418 H   0  0  0  0  0  0  0  0  0  0  0  0
    8.4073    1.3418    0.4098 H   0  0  0  0  0  0  0  0  0  0  0  0
    5.6199   -2.3572   -0.0430 H   0  0  0  0  0  0  0  0  0  0  0  0
    7.1923   -3.0772   -0.4518 H   0  0  0  0  0  0  0  0  0  0  0  0
    7.0839   -2.0609   -2.7309 H   0  0  0  0  0  0  0  0  0  0  0  0
    5.5130   -1.3367   -2.3615 H   0  0  0  0  0  0  0  0  0  0  0  0
    3.4569   -2.6882   -2.3300 H   0  0  0  0  0  0  0  0  0  0  0  0
    2.3470   -4.8180   -2.9927 H   0  0  0  0  0  0  0  0  0  0  0  0
    3.6921   -6.7948   -3.6446 H   0  0  0  0  0  0  0  0  0  0  0  0
    5.9150   -7.7958   -3.7253 H   0  0  0  0  0  0  0  0  0  0  0  0
    7.3278   -6.9047   -3.4599 H   0  0  0  0  0  0  0  0  0  0  0  0
    7.3065   -4.5308   -2.9684 H   0  0  0  0  0  0  0  0  0  0  0  0
    4.5556   -0.5474    0.0477 H   0  0  0  0  0  0  0  0  0  0  0  0
  1  2  1  0
  1 22  1  0
  1 23  1  0
  1 24  1  0
  2  3  1  0
  2  4  1  0
  2 25  1  6
  3 26  1  0
  3 27  1  0
  3 28  1  0
  4  5  1  0
  4 29  1  0
  4 30  1  0
  5  6  2  0
  5 21  1  0
  6  7  1  0
  6 31  1  0
  7  8  2  0
  7 32  1  0
  8  9  1  0
  8 33  1  0
  9 10  1  0
  9 21  2  0
 10 11  2  0
 10 12  1  0
 12 13  1  0
 12 34  1  0
 12 35  1  0
 13 14  1  0
 13 36  1  0
 13 37  1  0
 14 15  2  0
 14 20  1  0
 15 16  1  0
 15 38  1  0
 16 17  2  0
 16 39  1  0
 17 18  1  0
 17 40  1  0
 18 19  1  0
 18 20  2  0
 19 41  1  0
 19 42  1  0
 20 43  1  0
 21 44  1  0
M  END

