
     RDKit          3D

 42 43  0  0  0  0  0  0  0  0999 V2000
    2.0638    1.4285    0.2112 C   0  0  0  0  0  0  0  0  0  0  0  0
    1.9710   -0.0354   -0.2176 C   0  0  0  0  0  0  0  0  0  0  0  0
    2.5280   -0.3216   -1.6169 C   0  0  0  0  0  0  0  0  0  0  0  0
    3.9697   -0.0319   -1.7426 N   0  0  0  0  0  0  0  0  0  0  0  0
    4.8758   -1.0498   -1.1528 C   0  0  1  0  0  0  0  0  0  0  0  0
    5.2981   -2.2323   -2.0746 C   0  0  0  0  0  0  0  0  0  0  0  0
    6.7959   -2.4326   -1.7417 C   0  0  0  0  0  0  0  0  0  0  0  0
    7.3150   -1.1195   -1.3608 N   0  0  0  0  0  0  0  0  0  0  0  0
    6.2363   -0.5169   -0.5875 C   0  0  0  0  0  0  0  0  0  0  0  0
    4.4239    0.6708   -3.2175 S   0  0  1  0  0  0  0  0  0  0  0  0
    5.8932    0.7061   -3.2179 O   0  0  0  0  0  0  0  0  0  0  0  0
    3.7241    0.0528   -4.3451 O   0  0  0  0  0  0  0  0  0  0  0  0
    3.8817    2.3915   -3.0457 C   0  0  0  0  0  0  0  0  0  0  0  0
    4.7903    3.2247   -2.3625 C   0  0  0  0  0  0  0  0  0  0  0  0
    4.5404    4.5716   -2.1699 C   0  0  0  0  0  0  0  0  0  0  0  0
    3.3546    5.1399   -2.6724 C   0  0  0  0  0  0  0  0  0  0  0  0
    3.1790    6.4568   -2.4495 O   0  0  0  0  0  0  0  0  0  0  0  0
    2.0167    7.1032   -2.9307 C   0  0  0  0  0  0  0  0  0  0  0  0
    2.4447    4.3303   -3.3659 C   0  0  0  0  0  0  0  0  0  0  0  0
    2.7067    2.9650   -3.5540 C   0  0  0  0  0  0  0  0  0  0  0  0
    1.3663    2.0137   -4.5243 Br  0  0  0  0  0  0  0  0  0  0  0  0
    1.6504    1.5732    1.2219 H   0  0  0  0  0  0  0  0  0  0  0  0
    1.5037    2.0831   -0.4768 H   0  0  0  0  0  0  0  0  0  0  0  0
    3.1086    1.7748    0.2197 H   0  0  0  0  0  0  0  0  0  0  0  0
    0.9163   -0.3628   -0.2178 H   0  0  0  0  0  0  0  0  0  0  0  0
    2.4769   -0.6756    0.5263 H   0  0  0  0  0  0  0  0  0  0  0  0
    1.9845    0.2913   -2.3498 H   0  0  0  0  0  0  0  0  0  0  0  0
    2.3277   -1.3714   -1.9003 H   0  0  0  0  0  0  0  0  0  0  0  0
    4.2889   -1.4371   -0.3088 H   0  0  0  0  0  0  0  0  0  0  0  0
    5.1741   -1.9561   -3.1317 H   0  0  0  0  0  0  0  0  0  0  0  0
    4.6935   -3.1360   -1.9011 H   0  0  0  0  0  0  0  0  0  0  0  0
    7.3701   -2.8563   -2.5796 H   0  0  0  0  0  0  0  0  0  0  0  0
    6.9058   -3.1278   -0.8883 H   0  0  0  0  0  0  0  0  0  0  0  0
    7.4226   -0.5632   -2.2093 H   0  0  0  0  0  0  0  0  0  0  0  0
    6.2949    0.5786   -0.5974 H   0  0  0  0  0  0  0  0  0  0  0  0
    6.3203   -0.8435    0.4648 H   0  0  0  0  0  0  0  0  0  0  0  0
    5.7203    2.7864   -1.9985 H   0  0  0  0  0  0  0  0  0  0  0  0
    5.2491    5.2122   -1.6427 H   0  0  0  0  0  0  0  0  0  0  0  0
    2.1006    8.1554   -2.6295 H   0  0  0  0  0  0  0  0  0  0  0  0
    1.1001    6.6744   -2.4892 H   0  0  0  0  0  0  0  0  0  0  0  0
    1.9466    7.0484   -4.0311 H   0  0  0  0  0  0  0  0  0  0  0  0
    1.5238    4.7406   -3.7751 H   0  0  0  0  0  0  0  0  0  0  0  0
  1  2  1  0
  1 22  1  0
  1 23  1  0
  1 24  1  0
  2  3  1  0
  2 25  1  0
  2 26  1  0
  3  4  1  0
  3 27  1  0
  3 28  1  0
  4  5  1  0
 10  4  1  1
  5  6  1  0
  5  9  1  0
  5 29  1  1
  6  7  1  0
  6 30  1  0
  6 31  1  0
  7  8  1  0
  7 32  1  0
  7 33  1  0
  8  9  1  0
  8 34  1  0
  9 35  1  0
  9 36  1  0
 10 11  2  0
 10 12  2  0
 10 13  1  0
 13 14  2  0
 13 20  1  0
 14 15  1  0
 14 37  1  0
 15 16  2  0
 15 38  1  0
 16 17  1  0
 16 19  1  0
 17 18  1  0
 18 39  1  0
 18 40  1  0
 18 41  1  0
 19 20  2  0
 19 42  1  0
 20 21  1  0
M  END

