
     RDKit          3D

 50 53  0  0  0  0  0  0  0  0999 V2000
    1.4726    0.2447    0.7695 O   0  0  0  0  0  0  0  0  0  0  0  0
    2.4653    0.1424    0.0577 C   0  0  0  0  0  0  0  0  0  0  0  0
    2.8648    1.1740   -0.7770 N   0  0  0  0  0  0  0  0  0  0  0  0
    2.1373    2.4353   -0.7728 C   0  0  2  0  0  0  0  0  0  0  0  0
    2.4269    3.2161   -2.0669 C   0  0  0  0  0  0  0  0  0  0  0  0
    1.5394    4.4663   -2.2121 C   0  0  0  0  0  0  0  0  0  0  0  0
    1.4825    5.2224   -0.9148 C   0  0  0  0  0  0  0  0  0  0  0  0
    1.0462    6.5287   -0.5676 C   0  0  0  0  0  0  0  0  0  0  0  0
    1.1627    6.7560    0.7376 N   0  0  0  0  0  0  0  0  0  0  0  0
    1.6653    5.6148    1.2385 N   0  0  0  0  0  0  0  0  0  0  0  0
    1.8374    5.5430    2.2338 H   0  0  0  0  0  0  0  0  0  0  0  0
    1.8765    4.6613    0.2904 C   0  0  0  0  0  0  0  0  0  0  0  0
    2.4364    3.2882    0.4843 C   0  0  0  0  0  0  0  0  0  0  0  0
    3.2361   -1.0071    0.0223 N   0  0  0  0  0  0  0  0  0  0  0  0
    2.9917   -2.0461    1.0192 C   0  0  0  0  0  0  0  0  0  0  0  0
    2.7058   -3.4000    0.3644 C   0  0  0  0  0  0  0  0  0  0  0  0
    3.8161   -3.7856   -0.6258 C   0  0  2  0  0  0  0  0  0  0  0  0
    5.0608   -3.9908    0.0429 O   0  0  0  0  0  0  0  0  0  0  0  0
    5.2720   -5.2638    0.6048 C   0  0  1  0  0  0  0  0  0  0  0  0
    5.8129   -6.3319   -0.3609 C   0  0  0  0  0  0  0  0  0  0  0  0
    6.5144   -7.2855    0.6055 C   0  0  0  0  0  0  0  0  0  0  0  0
    7.0047   -6.4765    1.6725 O   0  0  0  0  0  0  0  0  0  0  0  0
    6.4024   -5.1943    1.6415 C   0  0  0  0  0  0  0  0  0  0  0  0
    4.0279   -2.6560   -1.6357 C   0  0  0  0  0  0  0  0  0  0  0  0
    4.2834   -1.3070   -0.9463 C   0  0  0  0  0  0  0  0  0  0  0  0
    3.8426    1.2280   -1.0370 H   0  0  0  0  0  0  0  0  0  0  0  0
    1.0678    2.1746   -0.7452 H   0  0  0  0  0  0  0  0  0  0  0  0
    2.2849    2.5435   -2.9276 H   0  0  0  0  0  0  0  0  0  0  0  0
    3.4910    3.5205   -2.0693 H   0  0  0  0  0  0  0  0  0  0  0  0
    0.5225    4.1581   -2.5187 H   0  0  0  0  0  0  0  0  0  0  0  0
    1.9203    5.1030   -3.0282 H   0  0  0  0  0  0  0  0  0  0  0  0
    0.6532    7.3101   -1.2192 H   0  0  0  0  0  0  0  0  0  0  0  0
    2.0084    2.7828    1.3643 H   0  0  0  0  0  0  0  0  0  0  0  0
    3.5321    3.3326    0.6369 H   0  0  0  0  0  0  0  0  0  0  0  0
    2.1457   -1.7180    1.6341 H   0  0  0  0  0  0  0  0  0  0  0  0
    3.8814   -2.1410    1.6694 H   0  0  0  0  0  0  0  0  0  0  0  0
    1.7457   -3.3563   -0.1771 H   0  0  0  0  0  0  0  0  0  0  0  0
    2.5993   -4.1735    1.1430 H   0  0  0  0  0  0  0  0  0  0  0  0
    3.5315   -4.7066   -1.1686 H   0  0  0  0  0  0  0  0  0  0  0  0
    4.3463   -5.6358    1.0855 H   0  0  0  0  0  0  0  0  0  0  0  0
    6.5360   -5.8486   -1.0383 H   0  0  0  0  0  0  0  0  0  0  0  0
    5.0393   -6.8249   -0.9685 H   0  0  0  0  0  0  0  0  0  0  0  0
    7.3578   -7.8257    0.1444 H   0  0  0  0  0  0  0  0  0  0  0  0
    5.8097   -8.0442    1.0007 H   0  0  0  0  0  0  0  0  0  0  0  0
    7.1265   -4.4207    1.3201 H   0  0  0  0  0  0  0  0  0  0  0  0
    6.0409   -4.9265    2.6487 H   0  0  0  0  0  0  0  0  0  0  0  0
    3.1274   -2.5741   -2.2667 H   0  0  0  0  0  0  0  0  0  0  0  0
    4.8786   -2.9049   -2.2899 H   0  0  0  0  0  0  0  0  0  0  0  0
    4.3168   -0.5246   -1.7145 H   0  0  0  0  0  0  0  0  0  0  0  0
    5.2702   -1.3361   -0.4474 H   0  0  0  0  0  0  0  0  0  0  0  0
  1  2  2  0
  2  3  1  0
  2 14  1  0
  3  4  1  0
  3 26  1  0
  4  5  1  0
  4 13  1  0
  4 27  1  6
  5  6  1  0
  5 28  1  0
  5 29  1  0
  6  7  1  0
  6 30  1  0
  6 31  1  0
  7  8  1  0
  7 12  2  0
  8  9  2  0
  8 32  1  0
  9 10  1  0
 10 11  1  0
 10 12  1  0
 12 13  1  0
 13 33  1  0
 13 34  1  0
 14 15  1  0
 14 25  1  0
 15 16  1  0
 15 35  1  0
 15 36  1  0
 16 17  1  0
 16 37  1  0
 16 38  1  0
 17 18  1  0
 17 24  1  0
 17 39  1  6
 18 19  1  0
 19 20  1  0
 19 23  1  0
 19 40  1  1
 20 21  1  0
 20 41  1  0
 20 42  1  0
 21 22  1  0
 21 43  1  0
 21 44  1  0
 22 23  1  0
 23 45  1  0
 23 46  1  0
 24 25  1  0
 24 47  1  0
 24 48  1  0
 25 49  1  0
 25 50  1  0
M  END

