
     RDKit          3D

 45 47  0  0  0  0  0  0  0  0999 V2000
    0.9557    2.4736   -0.8901 C   0  0  0  0  0  0  0  0  0  0  0  0
    2.4293    2.2701   -1.2293 C   0  0  0  0  0  0  0  0  0  0  0  0
    2.9918    1.0135   -0.7231 N   0  0  0  0  0  0  0  0  0  0  0  0
    2.2821   -0.1967   -1.1272 C   0  0  0  0  0  0  0  0  0  0  0  0
    2.2588   -0.4198   -2.6480 C   0  0  0  0  0  0  0  0  0  0  0  0
    1.3842   -0.0156   -3.3665 O   0  0  0  0  0  0  0  0  0  0  0  0
    3.3457   -1.0356   -3.1759 O   0  0  0  0  0  0  0  0  0  0  0  0
    4.4316    0.9465   -0.8961 C   0  0  1  0  0  0  0  0  0  0  0  0
    5.2929    1.9335   -0.0655 C   0  0  0  0  0  0  0  0  0  0  0  0
    6.2971    0.7871    0.2104 C   0  0  2  0  0  0  0  0  0  0  0  0
    7.4270    0.8367   -0.6976 N   0  0  0  0  0  0  0  0  0  0  0  0
    8.2944   -0.2013   -0.7781 C   0  0  0  0  0  0  0  0  0  0  0  0
    8.1841   -1.2593   -0.1823 O   0  0  0  0  0  0  0  0  0  0  0  0
    9.4045   -0.0114   -1.6399 N   0  0  0  0  0  0  0  0  0  0  0  0
    9.7597    1.0817   -2.3930 C   0  0  0  0  0  0  0  0  0  0  0  0
    9.1005    2.2059   -2.4547 N   0  0  0  0  0  0  0  0  0  0  0  0
    9.7097    3.1158   -3.2997 C   0  0  0  0  0  0  0  0  0  0  0  0
    9.1099    4.4561   -3.5046 C   0  0  1  0  0  0  0  0  0  0  0  0
    7.6040    4.6290   -3.5118 C   0  0  0  0  0  0  0  0  0  0  0  0
    8.4068    5.1643   -2.3632 C   0  0  0  0  0  0  0  0  0  0  0  0
   10.8594    2.6682   -3.8913 C   0  0  0  0  0  0  0  0  0  0  0  0
   11.2137    1.0368   -3.3834 S   0  0  0  0  0  0  0  0  0  0  0  0
    5.1866   -0.2180   -0.2043 C   0  0  0  0  0  0  0  0  0  0  0  0
    0.6557    3.5029   -1.1406 H   0  0  0  0  0  0  0  0  0  0  0  0
    0.7737    2.3144    0.1849 H   0  0  0  0  0  0  0  0  0  0  0  0
    0.3090    1.7962   -1.4670 H   0  0  0  0  0  0  0  0  0  0  0  0
    3.0187    3.0825   -0.7736 H   0  0  0  0  0  0  0  0  0  0  0  0
    2.5670    2.3670   -2.3288 H   0  0  0  0  0  0  0  0  0  0  0  0
    1.2367   -0.1385   -0.7970 H   0  0  0  0  0  0  0  0  0  0  0  0
    2.7395   -1.0614   -0.6183 H   0  0  0  0  0  0  0  0  0  0  0  0
    3.9486   -1.3204   -2.4740 H   0  0  0  0  0  0  0  0  0  0  0  0
    4.7300    1.0098   -1.9655 H   0  0  0  0  0  0  0  0  0  0  0  0
    4.7654    2.2249    0.8542 H   0  0  0  0  0  0  0  0  0  0  0  0
    5.6806    2.8354   -0.5643 H   0  0  0  0  0  0  0  0  0  0  0  0
    6.6471    0.6792    1.2497 H   0  0  0  0  0  0  0  0  0  0  0  0
    7.6597    1.6886   -1.2133 H   0  0  0  0  0  0  0  0  0  0  0  0
   10.0053   -0.8280   -1.6634 H   0  0  0  0  0  0  0  0  0  0  0  0
    9.6773    5.0864   -4.1947 H   0  0  0  0  0  0  0  0  0  0  0  0
    7.0038    3.7306   -3.3450 H   0  0  0  0  0  0  0  0  0  0  0  0
    7.1792    5.3347   -4.2312 H   0  0  0  0  0  0  0  0  0  0  0  0
    8.3566    4.6329   -1.4091 H   0  0  0  0  0  0  0  0  0  0  0  0
    8.5455    6.2457   -2.2770 H   0  0  0  0  0  0  0  0  0  0  0  0
   11.5114    3.1905   -4.5876 H   0  0  0  0  0  0  0  0  0  0  0  0
    4.6378   -0.5699    0.6818 H   0  0  0  0  0  0  0  0  0  0  0  0
    5.5163   -1.0850   -0.7963 H   0  0  0  0  0  0  0  0  0  0  0  0
  1  2  1  0
  1 24  1  0
  1 25  1  0
  1 26  1  0
  2  3  1  0
  2 27  1  0
  2 28  1  0
  3  4  1  0
  3  8  1  0
  4  5  1  0
  4 29  1  0
  4 30  1  0
  5  6  2  0
  5  7  1  0
  7 31  1  0
  8  9  1  0
  8 23  1  0
  8 32  1  6
  9 10  1  0
  9 33  1  0
  9 34  1  0
 10 11  1  0
 10 23  1  0
 10 35  1  1
 11 12  1  0
 11 36  1  0
 12 13  2  0
 12 14  1  0
 14 15  1  0
 14 37  1  0
 15 16  2  0
 15 22  1  0
 16 17  1  0
 17 18  1  0
 17 21  2  0
 18 19  1  0
 18 20  1  0
 18 38  1  6
 19 20  1  0
 19 39  1  0
 19 40  1  0
 20 41  1  0
 20 42  1  0
 21 22  1  0
 21 43  1  0
 23 44  1  0
 23 45  1  0
M  END

