
     RDKit          3D

 90103  0  0  0  0  0  0  0  0999 V2000
   -1.1955   -0.9847   -0.7581 C   0  0  0  0  0  0  0  0  0  0  0  0
   -1.3404    0.0282    0.2005 C   0  0  0  0  0  0  0  0  0  0  0  0
   -0.3119    0.9482    0.3900 C   0  0  0  0  0  0  0  0  0  0  0  0
    0.8780    0.8920   -0.3572 C   0  0  0  0  0  0  0  0  0  0  0  0
    0.9989   -0.1290   -1.3091 C   0  0  0  0  0  0  0  0  0  0  0  0
   -0.0293   -1.0632   -1.5108 C   0  0  0  0  0  0  0  0  0  0  0  0
    2.1045   -0.2862   -2.0944 O   0  0  0  0  0  0  0  0  0  0  0  0
    3.1577    0.5770   -1.9776 C   0  0  0  0  0  0  0  0  0  0  0  0
    4.2418    0.3329   -2.8346 C   0  0  0  0  0  0  0  0  0  0  0  0
    5.3598    1.1581   -2.7897 C   0  0  0  0  0  0  0  0  0  0  0  0
    5.3993    2.2309   -1.8882 C   0  0  0  0  0  0  0  0  0  0  0  0
    4.3163    2.4608   -1.0440 C   0  0  0  0  0  0  0  0  0  0  0  0
    3.1735    1.6424   -1.0681 C   0  0  0  0  0  0  0  0  0  0  0  0
    1.9956    1.9147   -0.1275 C   0  0  2  0  0  0  0  0  0  0  0  0
    2.4436    1.9270    1.3457 C   0  0  0  0  0  0  0  0  0  0  0  0
    3.0099    0.8916    2.0786 C   0  0  0  0  0  0  0  0  0  0  0  0
    3.3577    1.0956    3.4307 C   0  0  0  0  0  0  0  0  0  0  0  0
    4.0077    0.0220    4.2352 C   0  0  0  0  0  0  0  0  0  0  0  0
    5.2397    0.3027    4.8519 C   0  0  0  0  0  0  0  0  0  0  0  0
    5.9294   -0.6546    5.5891 C   0  0  0  0  0  0  0  0  0  0  0  0
    5.4105   -1.9504    5.7480 C   0  0  0  0  0  0  0  0  0  0  0  0
    6.1076   -2.9676    6.4884 C   0  0  0  0  0  0  0  0  0  0  0  0
    5.5862   -4.2187    6.6383 C   0  0  0  0  0  0  0  0  0  0  0  0
    4.3133   -4.5675    6.0658 C   0  0  0  0  0  0  0  0  0  0  0  0
    3.7532   -5.8497    6.2133 C   0  0  0  0  0  0  0  0  0  0  0  0
    2.5126   -6.1577    5.6525 C   0  0  0  0  0  0  0  0  0  0  0  0
    1.8027   -5.1946    4.9346 C   0  0  0  0  0  0  0  0  0  0  0  0
    2.3237   -3.8992    4.7590 C   0  0  0  0  0  0  0  0  0  0  0  0
    1.6168   -2.8757    4.0405 C   0  0  0  0  0  0  0  0  0  0  0  0
    2.1419   -1.6275    3.8725 C   0  0  0  0  0  0  0  0  0  0  0  0
    3.4351   -1.2702    4.4006 C   0  0  0  0  0  0  0  0  0  0  0  0
    4.1467   -2.2628    5.1544 C   0  0  0  0  0  0  0  0  0  0  0  0
    3.5960   -3.5736    5.3249 C   0  0  0  0  0  0  0  0  0  0  0  0
    3.1269    2.3643    4.0033 C   0  0  0  0  0  0  0  0  0  0  0  0
    2.5569    3.4070    3.2695 C   0  0  0  0  0  0  0  0  0  0  0  0
    2.2109    3.1874    1.9320 C   0  0  0  0  0  0  0  0  0  0  0  0
    1.6096    4.0712    0.9250 C   0  0  0  0  0  0  0  0  0  0  0  0
    1.1956    5.4057    0.9919 C   0  0  0  0  0  0  0  0  0  0  0  0
    0.6483    6.0047   -0.1449 C   0  0  0  0  0  0  0  0  0  0  0  0
    0.4992    5.2965   -1.3562 C   0  0  0  0  0  0  0  0  0  0  0  0
   -0.0498    5.9848   -2.5590 C   0  0  0  0  0  0  0  0  0  0  0  0
    0.5550    7.1835   -2.9769 C   0  0  0  0  0  0  0  0  0  0  0  0
    0.1278    7.8683   -4.1099 C   0  0  0  0  0  0  0  0  0  0  0  0
   -0.9385    7.3815   -4.8844 C   0  0  0  0  0  0  0  0  0  0  0  0
   -1.3912    8.0556   -6.0716 C   0  0  0  0  0  0  0  0  0  0  0  0
   -2.4316    7.5721   -6.8086 C   0  0  0  0  0  0  0  0  0  0  0  0
   -3.1216    6.3704   -6.4223 C   0  0  0  0  0  0  0  0  0  0  0  0
   -4.2013    5.8567   -7.1640 C   0  0  0  0  0  0  0  0  0  0  0  0
   -4.8567    4.6920   -6.7612 C   0  0  0  0  0  0  0  0  0  0  0  0
   -4.4520    4.0153   -5.6100 C   0  0  0  0  0  0  0  0  0  0  0  0
   -3.3760    4.4902   -4.8373 C   0  0  0  0  0  0  0  0  0  0  0  0
   -2.9399    3.8315   -3.6375 C   0  0  0  0  0  0  0  0  0  0  0  0
   -1.8881    4.3010   -2.9060 C   0  0  0  0  0  0  0  0  0  0  0  0
   -1.1542    5.4781   -3.2998 C   0  0  0  0  0  0  0  0  0  0  0  0
   -1.5929    6.1772   -4.4740 C   0  0  0  0  0  0  0  0  0  0  0  0
   -2.6937    5.6796   -5.2430 C   0  0  0  0  0  0  0  0  0  0  0  0
    0.9281    3.9534   -1.4101 C   0  0  0  0  0  0  0  0  0  0  0  0
    1.4730    3.3547   -0.2810 C   0  0  0  0  0  0  0  0  0  0  0  0
   -1.9941   -1.7134   -0.9177 H   0  0  0  0  0  0  0  0  0  0  0  0
   -2.2529    0.0985    0.7970 H   0  0  0  0  0  0  0  0  0  0  0  0
   -0.4238    1.7378    1.1370 H   0  0  0  0  0  0  0  0  0  0  0  0
    0.1185   -1.8376   -2.2659 H   0  0  0  0  0  0  0  0  0  0  0  0
    4.1755   -0.5113   -3.5235 H   0  0  0  0  0  0  0  0  0  0  0  0
    6.2028    0.9661   -3.4580 H   0  0  0  0  0  0  0  0  0  0  0  0
    6.2733    2.8847   -1.8457 H   0  0  0  0  0  0  0  0  0  0  0  0
    4.3466    3.2967   -0.3411 H   0  0  0  0  0  0  0  0  0  0  0  0
    3.2058   -0.0746    1.6077 H   0  0  0  0  0  0  0  0  0  0  0  0
    5.6772    1.2952    4.7204 H   0  0  0  0  0  0  0  0  0  0  0  0
    6.8934   -0.4053    6.0406 H   0  0  0  0  0  0  0  0  0  0  0  0
    7.0740   -2.7138    6.9323 H   0  0  0  0  0  0  0  0  0  0  0  0
    6.1294   -4.9814    7.2028 H   0  0  0  0  0  0  0  0  0  0  0  0
    4.3038   -6.6075    6.7771 H   0  0  0  0  0  0  0  0  0  0  0  0
    2.0937   -7.1594    5.7785 H   0  0  0  0  0  0  0  0  0  0  0  0
    0.8293   -5.4388    4.5007 H   0  0  0  0  0  0  0  0  0  0  0  0
    0.6317   -3.1133    3.6299 H   0  0  0  0  0  0  0  0  0  0  0  0
    1.5661   -0.8734    3.3357 H   0  0  0  0  0  0  0  0  0  0  0  0
    3.3876    2.5252    5.0521 H   0  0  0  0  0  0  0  0  0  0  0  0
    2.3819    4.3767    3.7425 H   0  0  0  0  0  0  0  0  0  0  0  0
    1.2908    5.9770    1.9188 H   0  0  0  0  0  0  0  0  0  0  0  0
    0.3106    7.0426   -0.0954 H   0  0  0  0  0  0  0  0  0  0  0  0
    1.4044    7.5680   -2.4072 H   0  0  0  0  0  0  0  0  0  0  0  0
    0.6331    8.7889   -4.4139 H   0  0  0  0  0  0  0  0  0  0  0  0
   -0.8779    8.9726   -6.3735 H   0  0  0  0  0  0  0  0  0  0  0  0
   -2.7627    8.0955   -7.7097 H   0  0  0  0  0  0  0  0  0  0  0  0
   -4.5245    6.3844   -8.0654 H   0  0  0  0  0  0  0  0  0  0  0  0
   -5.6938    4.3090   -7.3505 H   0  0  0  0  0  0  0  0  0  0  0  0
   -4.9710    3.1059   -5.2956 H   0  0  0  0  0  0  0  0  0  0  0  0
   -3.4773    2.9376   -3.3093 H   0  0  0  0  0  0  0  0  0  0  0  0
   -1.5994    3.7822   -1.9919 H   0  0  0  0  0  0  0  0  0  0  0  0
    0.8481    3.3952   -2.3458 H   0  0  0  0  0  0  0  0  0  0  0  0
  1  2  2  0
  1  6  1  0
  1 59  1  0
  2  3  1  0
  2 60  1  0
  3  4  2  0
  3 61  1  0
  4  5  1  0
 14  4  1  1
  5  6  2  0
  5  7  1  0
  6 62  1  0
  7  8  1  0
  8  9  2  0
  8 13  1  0
  9 10  1  0
  9 63  1  0
 10 11  2  0
 10 64  1  0
 11 12  1  0
 11 65  1  0
 12 13  2  0
 12 66  1  0
 13 14  1  0
 14 15  1  0
 14 58  1  0
 15 16  2  0
 15 36  1  0
 16 17  1  0
 16 67  1  0
 17 18  1  0
 17 34  2  0
 18 19  2  0
 18 31  1  0
 19 20  1  0
 19 68  1  0
 20 21  2  0
 20 69  1  0
 21 22  1  0
 21 32  1  0
 22 23  2  0
 22 70  1  0
 23 24  1  0
 23 71  1  0
 24 25  2  0
 24 33  1  0
 25 26  1  0
 25 72  1  0
 26 27  2  0
 26 73  1  0
 27 28  1  0
 27 74  1  0
 28 29  2  0
 28 33  1  0
 29 30  1  0
 29 75  1  0
 30 31  2  0
 30 76  1  0
 31 32  1  0
 32 33  2  0
 34 35  1  0
 34 77  1  0
 35 36  2  0
 35 78  1  0
 36 37  1  0
 37 38  2  0
 37 58  1  0
 38 39  1  0
 38 79  1  0
 39 40  2  0
 39 80  1  0
 40 41  1  0
 40 57  1  0
 41 42  2  0
 41 54  1  0
 42 43  1  0
 42 81  1  0
 43 44  2  0
 43 82  1  0
 44 45  1  0
 44 55  1  0
 45 46  2  0
 45 83  1  0
 46 47  1  0
 46 84  1  0
 47 48  2  0
 47 56  1  0
 48 49  1  0
 48 85  1  0
 49 50  2  0
 49 86  1  0
 50 51  1  0
 50 87  1  0
 51 52  2  0
 51 56  1  0
 52 53  1  0
 52 88  1  0
 53 54  2  0
 53 89  1  0
 54 55  1  0
 55 56  2  0
 57 58  2  0
 57 90  1  0
M  END

