
     RDKit          3D

 31 31  0  0  0  0  0  0  0  0999 V2000
    0.9991    0.1981    0.3122 C   0  0  0  0  0  0  0  0  0  0  0  0
    2.5388    0.1104    0.3279 C   0  0  1  0  0  0  0  0  0  0  0  0
    3.0943    1.4638    0.8065 C   0  0  0  0  0  0  0  0  0  0  0  0
    2.9391   -0.9997    1.3180 C   0  0  0  0  0  0  0  0  0  0  0  0
    3.0529   -0.2178   -1.1199 C   0  0  1  0  0  0  0  0  0  0  0  0
    2.4906    0.7116   -2.1135 N   0  0  0  0  0  0  0  0  0  0  0  0
    1.3831    0.2768   -2.8733 N   0  0  0  0  0  0  0  0  0  0  0  0
    4.5790   -0.2381   -1.2950 C   0  0  1  0  0  0  0  0  0  0  0  0
    5.4613   -1.3700   -0.6931 C   0  0  0  0  0  0  0  0  0  0  0  0
    6.2998   -1.3672   -1.9935 C   0  0  0  0  0  0  0  0  0  0  0  0
    5.1343   -0.6304   -2.6976 C   0  0  0  0  0  0  0  0  0  0  0  0
    0.6157    0.3527    1.3340 H   0  0  0  0  0  0  0  0  0  0  0  0
    0.5412   -0.7274   -0.0760 H   0  0  0  0  0  0  0  0  0  0  0  0
    0.6555    1.0444   -0.3011 H   0  0  0  0  0  0  0  0  0  0  0  0
    2.6244    1.7622    1.7581 H   0  0  0  0  0  0  0  0  0  0  0  0
    2.8860    2.2462    0.0605 H   0  0  0  0  0  0  0  0  0  0  0  0
    4.1819    1.4282    0.9778 H   0  0  0  0  0  0  0  0  0  0  0  0
    2.4781   -0.8163    2.3026 H   0  0  0  0  0  0  0  0  0  0  0  0
    4.0257   -1.0529    1.4736 H   0  0  0  0  0  0  0  0  0  0  0  0
    2.5963   -1.9901    0.9738 H   0  0  0  0  0  0  0  0  0  0  0  0
    2.6909   -1.2437   -1.3585 H   0  0  0  0  0  0  0  0  0  0  0  0
    3.2055    1.0156   -2.7674 H   0  0  0  0  0  0  0  0  0  0  0  0
    0.5263    0.4486   -2.3500 H   0  0  0  0  0  0  0  0  0  0  0  0
    1.4222   -0.7354   -3.0462 H   0  0  0  0  0  0  0  0  0  0  0  0
    4.9951    0.7421   -1.0078 H   0  0  0  0  0  0  0  0  0  0  0  0
    4.8927   -2.3064   -0.5802 H   0  0  0  0  0  0  0  0  0  0  0  0
    5.9845   -1.1667    0.2537 H   0  0  0  0  0  0  0  0  0  0  0  0
    6.6089   -2.3405   -2.4042 H   0  0  0  0  0  0  0  0  0  0  0  0
    7.1932   -0.7293   -1.9050 H   0  0  0  0  0  0  0  0  0  0  0  0
    4.4596   -1.3354   -3.2114 H   0  0  0  0  0  0  0  0  0  0  0  0
    5.3919    0.1772   -3.4013 H   0  0  0  0  0  0  0  0  0  0  0  0
  2  1  1  6
  1 12  1  0
  1 13  1  0
  1 14  1  0
  2  3  1  0
  2  4  1  0
  2  5  1  0
  3 15  1  0
  3 16  1  0
  3 17  1  0
  4 18  1  0
  4 19  1  0
  4 20  1  0
  5  6  1  0
  5  8  1  0
  5 21  1  6
  6  7  1  0
  6 22  1  0
  7 23  1  0
  7 24  1  0
  8  9  1  0
  8 11  1  0
  8 25  1  1
  9 10  1  0
  9 26  1  0
  9 27  1  0
 10 11  1  0
 10 28  1  0
 10 29  1  0
 11 30  1  0
 11 31  1  0
M  END

