
     RDKit          3D

 55 56  0  0  0  0  0  0  0  0999 V2000
    1.2775    1.2867    2.6374 C   0  0  0  0  0  0  0  0  0  0  0  0
    1.8495    0.4222    1.7945 C   0  0  0  0  0  0  0  0  0  0  0  0
    2.9150   -0.5749    2.1615 C   0  0  0  0  0  0  0  0  0  0  0  0
    4.2119   -0.4175    1.3821 C   0  0  0  0  0  0  0  0  0  0  0  0
    4.7081    0.8429    1.0404 C   0  0  0  0  0  0  0  0  0  0  0  0
    5.9242    1.0153    0.3440 C   0  0  0  0  0  0  0  0  0  0  0  0
    6.3367    2.3789    0.0636 C   0  0  0  0  0  0  0  0  0  0  0  0
    7.4211    2.8915   -0.5868 C   0  0  0  0  0  0  0  0  0  0  0  0
    8.4598    2.1135   -1.1811 C   0  0  0  0  0  0  0  0  0  0  0  0
    9.3441    1.5554   -1.6936 N   0  0  0  0  0  0  0  0  0  0  0  0
    7.5145    4.4038   -0.6815 C   0  0  0  0  0  0  0  0  0  0  0  0
    6.6530    5.1161   -0.1952 O   0  0  0  0  0  0  0  0  0  0  0  0
    8.6262    4.8625   -1.3448 N   0  0  0  0  0  0  0  0  0  0  0  0
    9.0181    6.1887   -1.6091 C   0  0  0  0  0  0  0  0  0  0  0  0
    8.2542    7.2907   -1.1892 C   0  0  0  0  0  0  0  0  0  0  0  0
    8.6989    8.5798   -1.4834 C   0  0  0  0  0  0  0  0  0  0  0  0
    7.7403    9.9469   -0.9560 Cl  0  0  0  0  0  0  0  0  0  0  0  0
    9.8838    8.8014   -2.1846 C   0  0  0  0  0  0  0  0  0  0  0  0
   10.6298    7.6939   -2.5937 C   0  0  0  0  0  0  0  0  0  0  0  0
   10.2285    6.3814   -2.3243 C   0  0  0  0  0  0  0  0  0  0  0  0
   11.0621    5.2093   -2.7829 C   0  0  0  0  0  0  0  0  0  0  0  0
    6.6427   -0.1391   -0.0372 C   0  0  0  0  0  0  0  0  0  0  0  0
    6.1645   -1.4052    0.2808 C   0  0  0  0  0  0  0  0  0  0  0  0
    6.8861   -2.5055   -0.0926 O   0  0  0  0  0  0  0  0  0  0  0  0
    6.3792   -3.2399   -1.2169 C   0  0  0  0  0  0  0  0  0  0  0  0
    7.3246   -4.3890   -1.5010 C   0  0  0  0  0  0  0  0  0  0  0  0
    4.9586   -1.5548    1.0101 C   0  0  0  0  0  0  0  0  0  0  0  0
    4.4849   -2.7941    1.3172 O   0  0  0  0  0  0  0  0  0  0  0  0
    5.2357   -3.5774    2.2635 C   0  0  0  0  0  0  0  0  0  0  0  0
    4.5397   -4.9122    2.4296 C   0  0  0  0  0  0  0  0  0  0  0  0
    0.4937    1.9741    2.3074 H   0  0  0  0  0  0  0  0  0  0  0  0
    1.5667    1.3354    3.6929 H   0  0  0  0  0  0  0  0  0  0  0  0
    1.5320    0.4125    0.7437 H   0  0  0  0  0  0  0  0  0  0  0  0
    2.5412   -1.5969    1.9903 H   0  0  0  0  0  0  0  0  0  0  0  0
    3.1274   -0.5032    3.2437 H   0  0  0  0  0  0  0  0  0  0  0  0
    4.1359    1.7272    1.3310 H   0  0  0  0  0  0  0  0  0  0  0  0
    5.6652    3.1609    0.4340 H   0  0  0  0  0  0  0  0  0  0  0  0
    9.2569    4.1500   -1.6955 H   0  0  0  0  0  0  0  0  0  0  0  0
    7.3295    7.1296   -0.6425 H   0  0  0  0  0  0  0  0  0  0  0  0
   10.2137    9.8173   -2.4045 H   0  0  0  0  0  0  0  0  0  0  0  0
   11.5606    7.8557   -3.1441 H   0  0  0  0  0  0  0  0  0  0  0  0
   11.9583    5.5523   -3.3180 H   0  0  0  0  0  0  0  0  0  0  0  0
   10.5075    4.5451   -3.4692 H   0  0  0  0  0  0  0  0  0  0  0  0
   11.4060    4.5854   -1.9388 H   0  0  0  0  0  0  0  0  0  0  0  0
    7.5806   -0.0829   -0.5883 H   0  0  0  0  0  0  0  0  0  0  0  0
    6.3129   -2.5617   -2.0876 H   0  0  0  0  0  0  0  0  0  0  0  0
    5.3609   -3.6042   -0.9946 H   0  0  0  0  0  0  0  0  0  0  0  0
    8.3391   -4.0154   -1.7077 H   0  0  0  0  0  0  0  0  0  0  0  0
    6.9768   -4.9577   -2.3775 H   0  0  0  0  0  0  0  0  0  0  0  0
    7.3796   -5.0769   -0.6430 H   0  0  0  0  0  0  0  0  0  0  0  0
    5.2756   -3.0307    3.2234 H   0  0  0  0  0  0  0  0  0  0  0  0
    6.2678   -3.7043    1.9004 H   0  0  0  0  0  0  0  0  0  0  0  0
    3.5063   -4.7776    2.7849 H   0  0  0  0  0  0  0  0  0  0  0  0
    5.0808   -5.5303    3.1629 H   0  0  0  0  0  0  0  0  0  0  0  0
    4.5063   -5.4595    1.4749 H   0  0  0  0  0  0  0  0  0  0  0  0
  1  2  2  0
  1 31  1  0
  1 32  1  0
  2  3  1  0
  2 33  1  0
  3  4  1  0
  3 34  1  0
  3 35  1  0
  4  5  2  0
  4 27  1  0
  5  6  1  0
  5 36  1  0
  6  7  1  0
  6 22  2  0
  7  8  2  0
  7 37  1  0
  8  9  1  0
  8 11  1  0
  9 10  3  0
 11 12  2  0
 11 13  1  0
 13 14  1  0
 13 38  1  0
 14 15  2  0
 14 20  1  0
 15 16  1  0
 15 39  1  0
 16 17  1  0
 16 18  2  0
 18 19  1  0
 18 40  1  0
 19 20  2  0
 19 41  1  0
 20 21  1  0
 21 42  1  0
 21 43  1  0
 21 44  1  0
 22 23  1  0
 22 45  1  0
 23 24  1  0
 23 27  2  0
 24 25  1  0
 25 26  1  0
 25 46  1  0
 25 47  1  0
 26 48  1  0
 26 49  1  0
 26 50  1  0
 27 28  1  0
 28 29  1  0
 29 30  1  0
 29 51  1  0
 29 52  1  0
 30 53  1  0
 30 54  1  0
 30 55  1  0
M  END

