
     RDKit          3D

 27 28  0  0  0  0  0  0  0  0999 V2000
    1.1204   -0.2642    0.0948 C   0  0  0  0  0  0  0  0  0  0  0  0
    2.6077   -0.1913   -0.1991 C   0  0  0  0  0  0  0  0  0  0  0  0
    3.2898   -1.1961   -0.2917 O   0  0  0  0  0  0  0  0  0  0  0  0
    3.1778    1.1743   -0.3652 C   0  0  0  0  0  0  0  0  0  0  0  0
    4.4914    1.3437   -0.6276 C   0  0  0  0  0  0  0  0  0  0  0  0
    5.2248    2.5932   -0.8204 C   0  0  0  0  0  0  0  0  0  0  0  0
    4.6099    3.8615   -0.7526 C   0  0  0  0  0  0  0  0  0  0  0  0
    5.3585    5.0176   -0.9349 C   0  0  0  0  0  0  0  0  0  0  0  0
    4.5942    6.5819   -0.8373 Cl  0  0  0  0  0  0  0  0  0  0  0  0
    6.7419    4.9591   -1.1942 C   0  0  0  0  0  0  0  0  0  0  0  0
    7.3528    3.6909   -1.2870 C   0  0  0  0  0  0  0  0  0  0  0  0
    6.6024    2.5313   -1.0951 C   0  0  0  0  0  0  0  0  0  0  0  0
    8.6844    3.5713   -1.5627 O   0  0  0  0  0  0  0  0  0  0  0  0
    9.2904    4.7432   -2.0872 C   0  0  0  0  0  0  0  0  0  0  0  0
    8.8579    5.9579   -1.2858 C   0  0  0  0  0  0  0  0  0  0  0  0
    7.4445    6.1088   -1.3468 O   0  0  0  0  0  0  0  0  0  0  0  0
    0.8105   -1.3124    0.1936 H   0  0  0  0  0  0  0  0  0  0  0  0
    0.5452    0.2194   -0.7129 H   0  0  0  0  0  0  0  0  0  0  0  0
    0.8863    0.2817    1.0245 H   0  0  0  0  0  0  0  0  0  0  0  0
    2.4952    2.0237   -0.2668 H   0  0  0  0  0  0  0  0  0  0  0  0
    5.0798    0.4220   -0.7051 H   0  0  0  0  0  0  0  0  0  0  0  0
    3.5436    3.9604   -0.5509 H   0  0  0  0  0  0  0  0  0  0  0  0
    7.1149    1.5704   -1.1715 H   0  0  0  0  0  0  0  0  0  0  0  0
    9.0088    4.8717   -3.1491 H   0  0  0  0  0  0  0  0  0  0  0  0
   10.3784    4.5957   -2.0276 H   0  0  0  0  0  0  0  0  0  0  0  0
    9.2925    6.8822   -1.6924 H   0  0  0  0  0  0  0  0  0  0  0  0
    9.1755    5.8493   -0.2326 H   0  0  0  0  0  0  0  0  0  0  0  0
  1  2  1  0
  1 17  1  0
  1 18  1  0
  1 19  1  0
  2  3  2  0
  2  4  1  0
  4  5  2  0
  4 20  1  0
  5  6  1  0
  5 21  1  0
  6  7  2  0
  6 12  1  0
  7  8  1  0
  7 22  1  0
  8  9  1  0
  8 10  2  0
 10 11  1  0
 10 16  1  0
 11 12  2  0
 11 13  1  0
 12 23  1  0
 13 14  1  0
 14 15  1  0
 14 24  1  0
 14 25  1  0
 15 16  1  0
 15 26  1  0
 15 27  1  0
M  END

