
     RDKit          3D

 44 45  0  0  0  0  0  0  0  0999 V2000
    0.6762   -1.2953   -0.3437 N   0  0  0  0  0  0  0  0  0  0  0  0
    2.1036   -1.5998   -0.3538 C   0  0  0  0  0  0  0  0  0  0  0  0
    2.7754   -1.0346   -1.6052 C   0  0  0  0  0  0  0  0  0  0  0  0
    4.2873   -1.2647   -1.6482 C   0  0  0  0  0  0  0  0  0  0  0  0
    4.9449   -0.6931   -2.9090 C   0  0  0  0  0  0  0  0  0  0  0  0
    6.3945   -0.8716   -2.9247 N   0  0  0  0  0  0  0  0  0  0  0  0
    6.8723   -2.2042   -3.2840 C   0  0  0  0  0  0  0  0  0  0  0  0
    6.8788   -2.4583   -4.7958 C   0  0  0  0  0  0  0  0  0  0  0  0
    7.6051   -1.4005   -5.5009 N   0  0  0  0  0  0  0  0  0  0  0  0
    8.3847   -1.7734   -6.5858 C   0  0  0  0  0  0  0  0  0  0  0  0
    8.6851   -2.9386   -6.8000 O   0  0  0  0  0  0  0  0  0  0  0  0
    8.8010   -0.7286   -7.3992 N   0  0  0  0  0  0  0  0  0  0  0  0
    9.6696   -0.7955   -8.4946 C   0  0  0  0  0  0  0  0  0  0  0  0
   10.3346   -1.9455   -8.9545 C   0  0  0  0  0  0  0  0  0  0  0  0
   11.1870   -1.8656  -10.0606 C   0  0  0  0  0  0  0  0  0  0  0  0
   11.3965   -0.6583  -10.7312 C   0  0  0  0  0  0  0  0  0  0  0  0
   10.7408    0.4957  -10.2875 C   0  0  0  0  0  0  0  0  0  0  0  0
    9.9006    0.4068   -9.1898 C   0  0  0  0  0  0  0  0  0  0  0  0
    9.2569    1.5149   -8.7442 F   0  0  0  0  0  0  0  0  0  0  0  0
    7.2021   -0.0402   -5.1612 C   0  0  0  0  0  0  0  0  0  0  0  0
    7.1653    0.1366   -3.6290 C   0  0  0  0  0  0  0  0  0  0  0  0
    0.2476   -1.6185    0.5235 H   0  0  0  0  0  0  0  0  0  0  0  0
    0.2036   -1.8000   -1.0954 H   0  0  0  0  0  0  0  0  0  0  0  0
    2.3400   -2.6857   -0.2808 H   0  0  0  0  0  0  0  0  0  0  0  0
    2.5583   -1.1325    0.5377 H   0  0  0  0  0  0  0  0  0  0  0  0
    2.5473    0.0442   -1.6604 H   0  0  0  0  0  0  0  0  0  0  0  0
    2.3069   -1.4892   -2.4994 H   0  0  0  0  0  0  0  0  0  0  0  0
    4.4948   -2.3475   -1.5774 H   0  0  0  0  0  0  0  0  0  0  0  0
    4.7706   -0.8042   -0.7693 H   0  0  0  0  0  0  0  0  0  0  0  0
    4.7423    0.3906   -2.9448 H   0  0  0  0  0  0  0  0  0  0  0  0
    4.4412   -1.1203   -3.8048 H   0  0  0  0  0  0  0  0  0  0  0  0
    6.2564   -2.9681   -2.7857 H   0  0  0  0  0  0  0  0  0  0  0  0
    7.9020   -2.3200   -2.9006 H   0  0  0  0  0  0  0  0  0  0  0  0
    5.8389   -2.5107   -5.1769 H   0  0  0  0  0  0  0  0  0  0  0  0
    7.3651   -3.4116   -5.0352 H   0  0  0  0  0  0  0  0  0  0  0  0
    8.3981    0.1871   -7.2542 H   0  0  0  0  0  0  0  0  0  0  0  0
   10.1629   -2.8856   -8.4359 H   0  0  0  0  0  0  0  0  0  0  0  0
   11.6934   -2.7720  -10.4010 H   0  0  0  0  0  0  0  0  0  0  0  0
   12.0631   -0.6082  -11.5948 H   0  0  0  0  0  0  0  0  0  0  0  0
   10.8698    1.4636  -10.7760 H   0  0  0  0  0  0  0  0  0  0  0  0
    6.2118    0.2012   -5.6000 H   0  0  0  0  0  0  0  0  0  0  0  0
    7.9280    0.6850   -5.5560 H   0  0  0  0  0  0  0  0  0  0  0  0
    6.7755    1.1383   -3.3876 H   0  0  0  0  0  0  0  0  0  0  0  0
    8.2079    0.0926   -3.2637 H   0  0  0  0  0  0  0  0  0  0  0  0
  1  2  1  0
  1 22  1  0
  1 23  1  0
  2  3  1  0
  2 24  1  0
  2 25  1  0
  3  4  1  0
  3 26  1  0
  3 27  1  0
  4  5  1  0
  4 28  1  0
  4 29  1  0
  5  6  1  0
  5 30  1  0
  5 31  1  0
  6  7  1  0
  6 21  1  0
  7  8  1  0
  7 32  1  0
  7 33  1  0
  8  9  1  0
  8 34  1  0
  8 35  1  0
  9 10  1  0
  9 20  1  0
 10 11  2  0
 10 12  1  0
 12 13  1  0
 12 36  1  0
 13 14  2  0
 13 18  1  0
 14 15  1  0
 14 37  1  0
 15 16  2  0
 15 38  1  0
 16 17  1  0
 16 39  1  0
 17 18  2  0
 17 40  1  0
 18 19  1  0
 20 21  1  0
 20 41  1  0
 20 42  1  0
 21 43  1  0
 21 44  1  0
M  END

