
     RDKit          3D

 45 48  0  0  0  0  0  0  0  0999 V2000
    1.3128    0.8291   -0.6773 C   0  0  0  0  0  0  0  0  0  0  0  0
    2.0516    0.1079    0.3636 N   0  0  0  0  0  0  0  0  0  0  0  0
    1.4489   -1.1706    0.7529 C   0  0  0  0  0  0  0  0  0  0  0  0
    1.4019   -2.2143   -0.3495 C   0  0  0  0  0  0  0  0  0  0  0  0
    2.4323   -2.3385   -1.2933 C   0  0  0  0  0  0  0  0  0  0  0  0
    2.3886   -3.3391   -2.2675 C   0  0  0  0  0  0  0  0  0  0  0  0
    1.3166   -4.2358   -2.3092 C   0  0  0  0  0  0  0  0  0  0  0  0
    0.2843   -4.1199   -1.3741 C   0  0  0  0  0  0  0  0  0  0  0  0
    0.3258   -3.1123   -0.4064 C   0  0  0  0  0  0  0  0  0  0  0  0
    2.9999    0.6995    1.1350 C   0  0  0  0  0  0  0  0  0  0  0  0
    3.8389    0.2002    2.1136 C   0  0  0  0  0  0  0  0  0  0  0  0
    4.1195   -1.1555    2.5910 C   0  0  0  0  0  0  0  0  0  0  0  0
    4.0949   -1.6178    3.8910 C   0  0  0  0  0  0  0  0  0  0  0  0
    4.5397   -2.9652    4.0255 C   0  0  0  0  0  0  0  0  0  0  0  0
    4.9197   -3.5201    2.8290 C   0  0  0  0  0  0  0  0  0  0  0  0
    4.7525   -2.3996    1.5255 S   0  0  0  0  0  0  0  0  0  0  0  0
    4.6080    1.3249    2.6867 C   0  0  0  0  0  0  0  0  0  0  0  0
    5.4234    1.3017    3.5772 O   0  0  0  0  0  0  0  0  0  0  0  0
    4.2180    2.5130    1.9900 N   0  0  0  0  0  0  0  0  0  0  0  0
    4.7280    3.8142    2.2516 C   0  0  0  0  0  0  0  0  0  0  0  0
    6.0788    3.9864    2.5918 C   0  0  0  0  0  0  0  0  0  0  0  0
    6.5729    5.2644    2.8607 C   0  0  0  0  0  0  0  0  0  0  0  0
    5.7355    6.3709    2.7778 C   0  0  0  0  0  0  0  0  0  0  0  0
    6.1985    7.6000    3.0222 F   0  0  0  0  0  0  0  0  0  0  0  0
    4.3927    6.1978    2.4302 C   0  0  0  0  0  0  0  0  0  0  0  0
    3.5962    7.2680    2.3522 F   0  0  0  0  0  0  0  0  0  0  0  0
    3.8806    4.9321    2.1758 C   0  0  0  0  0  0  0  0  0  0  0  0
    3.2396    2.2082    1.0546 C   0  0  0  0  0  0  0  0  0  0  0  0
    2.6714    3.0023    0.3386 O   0  0  0  0  0  0  0  0  0  0  0  0
    0.8404    0.0832   -1.3298 H   0  0  0  0  0  0  0  0  0  0  0  0
    1.9780    1.4570   -1.2774 H   0  0  0  0  0  0  0  0  0  0  0  0
    0.5303    1.4785   -0.2498 H   0  0  0  0  0  0  0  0  0  0  0  0
    0.4191   -0.9756    1.1069 H   0  0  0  0  0  0  0  0  0  0  0  0
    2.0007   -1.5694    1.6140 H   0  0  0  0  0  0  0  0  0  0  0  0
    3.2730   -1.6414   -1.2681 H   0  0  0  0  0  0  0  0  0  0  0  0
    3.1985   -3.4196   -2.9973 H   0  0  0  0  0  0  0  0  0  0  0  0
    1.2834   -5.0185   -3.0712 H   0  0  0  0  0  0  0  0  0  0  0  0
   -0.5620   -4.8111   -1.4021 H   0  0  0  0  0  0  0  0  0  0  0  0
   -0.4911   -3.0225    0.3160 H   0  0  0  0  0  0  0  0  0  0  0  0
    3.7676   -0.9963    4.7250 H   0  0  0  0  0  0  0  0  0  0  0  0
    4.5751   -3.5029    4.9743 H   0  0  0  0  0  0  0  0  0  0  0  0
    5.2884   -4.5274    2.6399 H   0  0  0  0  0  0  0  0  0  0  0  0
    6.7374    3.1238    2.6654 H   0  0  0  0  0  0  0  0  0  0  0  0
    7.6189    5.4185    3.1327 H   0  0  0  0  0  0  0  0  0  0  0  0
    2.8318    4.8391    1.9016 H   0  0  0  0  0  0  0  0  0  0  0  0
  1  2  1  0
  1 30  1  0
  1 31  1  0
  1 32  1  0
  2  3  1  0
  2 10  1  0
  3  4  1  0
  3 33  1  0
  3 34  1  0
  4  5  2  0
  4  9  1  0
  5  6  1  0
  5 35  1  0
  6  7  2  0
  6 36  1  0
  7  8  1  0
  7 37  1  0
  8  9  2  0
  8 38  1  0
  9 39  1  0
 10 11  1  0
 10 28  2  0
 11 12  2  0
 11 17  1  0
 12 13  1  0
 12 16  1  0
 13 14  2  0
 13 40  1  0
 14 15  1  0
 14 41  1  0
 15 16  2  0
 15 42  1  0
 17 18  2  0
 17 19  1  0
 19 20  1  0
 19 28  1  0
 20 21  2  0
 20 27  1  0
 21 22  1  0
 21 43  1  0
 22 23  2  0
 22 44  1  0
 23 24  1  0
 23 25  1  0
 25 26  1  0
 25 27  2  0
 27 45  1  0
 28 29  1  0
M  CHG  2  16   1  29  -1
M  END

