
     RDKit          3D

 74 77  0  0  0  0  0  0  0  0999 V2000
    0.5594    2.1103    6.8889 C   0  0  0  0  0  0  0  0  0  0  0  0
    2.0833    2.1952    6.7914 C   0  0  0  0  0  0  0  0  0  0  0  0
    2.5842    2.4268    5.3632 C   0  0  0  0  0  0  0  0  0  0  0  0
    4.0999    2.5105    5.2694 C   0  0  0  0  0  0  0  0  0  0  0  0
    4.4498    2.7254    3.9134 O   0  0  0  0  0  0  0  0  0  0  0  0
    5.7548    2.8407    3.5602 C   0  0  0  0  0  0  0  0  0  0  0  0
    6.8326    2.7597    4.4563 C   0  0  0  0  0  0  0  0  0  0  0  0
    8.1406    2.8927    3.9792 C   0  0  0  0  0  0  0  0  0  0  0  0
    8.4070    3.1100    2.6238 C   0  0  0  0  0  0  0  0  0  0  0  0
    9.8359    3.2827    2.1112 C   0  0  2  0  0  0  0  0  0  0  0  0
   10.7464    2.0705    2.3599 C   0  0  0  0  0  0  0  0  0  0  0  0
   10.5088    0.9636    1.3828 C   0  0  0  0  0  0  0  0  0  0  0  0
    9.4097    0.8071    0.8730 O   0  0  0  0  0  0  0  0  0  0  0  0
   11.6164    0.2018    1.0489 N   0  0  0  0  0  0  0  0  0  0  0  0
   11.7056   -0.9047    0.1762 C   0  0  0  0  0  0  0  0  0  0  0  0
   10.5615   -1.5488   -0.3246 C   0  0  0  0  0  0  0  0  0  0  0  0
   10.7111   -2.6523   -1.1612 C   0  0  0  0  0  0  0  0  0  0  0  0
   11.9794   -3.1174   -1.5046 C   0  0  0  0  0  0  0  0  0  0  0  0
   13.1335   -2.4842   -1.0191 C   0  0  0  0  0  0  0  0  0  0  0  0
   14.4900   -3.0205   -1.4215 C   0  0  0  0  0  0  0  0  0  0  0  0
   13.0035   -1.3630   -0.1711 C   0  0  0  0  0  0  0  0  0  0  0  0
   14.2177   -0.6408    0.3712 C   0  0  0  0  0  0  0  0  0  0  0  0
   11.6030    2.0306    3.4257 C   0  0  0  0  0  0  0  0  0  0  0  0
   12.3663    0.8346    3.9367 C   0  0  0  0  0  0  0  0  0  0  0  0
   11.8146    3.1731    4.1896 N   0  0  0  0  0  0  0  0  0  0  0  0
   11.3531    4.3920    3.7535 C   0  0  0  0  0  0  0  0  0  0  0  0
   11.6523    5.5963    4.1967 N   0  0  0  0  0  0  0  0  0  0  0  0
   10.9032    6.3865    3.3657 C   0  0  0  0  0  0  0  0  0  0  0  0
   10.9493    8.1366    3.5292 S   0  0  0  0  0  0  0  0  0  0  0  0
    9.7542    8.6114    2.2204 C   0  0  0  0  0  0  0  0  0  0  0  0
    9.6121   10.1318    2.1719 C   0  0  0  0  0  0  0  0  0  0  0  0
    8.6260   10.5967    1.0937 C   0  0  0  0  0  0  0  0  0  0  0  0
    8.4711   12.1169    1.0326 C   0  0  0  0  0  0  0  0  0  0  0  0
   10.1794    5.7397    2.4618 N   0  0  0  0  0  0  0  0  0  0  0  0
   10.4938    4.4380    2.7200 N   0  0  0  0  0  0  0  0  0  0  0  0
    7.3199    3.1860    1.7405 C   0  0  0  0  0  0  0  0  0  0  0  0
    6.0129    3.0541    2.1950 C   0  0  0  0  0  0  0  0  0  0  0  0
    0.2302    1.9440    7.9268 H   0  0  0  0  0  0  0  0  0  0  0  0
    0.1647    1.2824    6.2767 H   0  0  0  0  0  0  0  0  0  0  0  0
    0.0834    3.0390    6.5326 H   0  0  0  0  0  0  0  0  0  0  0  0
    2.5292    1.2659    7.1906 H   0  0  0  0  0  0  0  0  0  0  0  0
    2.4484    3.0085    7.4448 H   0  0  0  0  0  0  0  0  0  0  0  0
    2.1566    3.3599    4.9569 H   0  0  0  0  0  0  0  0  0  0  0  0
    2.2370    1.6140    4.7019 H   0  0  0  0  0  0  0  0  0  0  0  0
    4.5637    1.5755    5.6399 H   0  0  0  0  0  0  0  0  0  0  0  0
    4.4825    3.3378    5.8983 H   0  0  0  0  0  0  0  0  0  0  0  0
    6.6676    2.5947    5.5209 H   0  0  0  0  0  0  0  0  0  0  0  0
    8.9642    2.8246    4.6952 H   0  0  0  0  0  0  0  0  0  0  0  0
    9.7817    3.4741    1.0296 H   0  0  0  0  0  0  0  0  0  0  0  0
   12.5003    0.5676    1.3726 H   0  0  0  0  0  0  0  0  0  0  0  0
    9.5785   -1.1670   -0.0624 H   0  0  0  0  0  0  0  0  0  0  0  0
    9.8209   -3.1530   -1.5507 H   0  0  0  0  0  0  0  0  0  0  0  0
   12.0830   -3.9844   -2.1622 H   0  0  0  0  0  0  0  0  0  0  0  0
   14.3811   -3.8971   -2.0759 H   0  0  0  0  0  0  0  0  0  0  0  0
   15.0894   -3.3330   -0.5499 H   0  0  0  0  0  0  0  0  0  0  0  0
   15.0860   -2.2725   -1.9711 H   0  0  0  0  0  0  0  0  0  0  0  0
   15.1551   -1.0622   -0.0088 H   0  0  0  0  0  0  0  0  0  0  0  0
   14.2738   -0.6932    1.4740 H   0  0  0  0  0  0  0  0  0  0  0  0
   14.2162    0.4289    0.0944 H   0  0  0  0  0  0  0  0  0  0  0  0
   11.9946   -0.1066    3.5195 H   0  0  0  0  0  0  0  0  0  0  0  0
   12.2621    0.7828    5.0334 H   0  0  0  0  0  0  0  0  0  0  0  0
   13.4462    0.9170    3.7210 H   0  0  0  0  0  0  0  0  0  0  0  0
   12.4663    3.1685    4.9638 H   0  0  0  0  0  0  0  0  0  0  0  0
    8.7921    8.1228    2.4371 H   0  0  0  0  0  0  0  0  0  0  0  0
   10.1136    8.2094    1.2610 H   0  0  0  0  0  0  0  0  0  0  0  0
   10.6009   10.5894    1.9879 H   0  0  0  0  0  0  0  0  0  0  0  0
    9.2806   10.5031    3.1583 H   0  0  0  0  0  0  0  0  0  0  0  0
    7.6411   10.1310    1.2777 H   0  0  0  0  0  0  0  0  0  0  0  0
    8.9587   10.2183    0.1103 H   0  0  0  0  0  0  0  0  0  0  0  0
    8.1043   12.5215    1.9909 H   0  0  0  0  0  0  0  0  0  0  0  0
    7.7575   12.4182    0.2494 H   0  0  0  0  0  0  0  0  0  0  0  0
    9.4333   12.6098    0.8141 H   0  0  0  0  0  0  0  0  0  0  0  0
    7.5039    3.3408    0.6746 H   0  0  0  0  0  0  0  0  0  0  0  0
    5.1647    3.1102    1.5098 H   0  0  0  0  0  0  0  0  0  0  0  0
  1  2  1  0
  1 38  1  0
  1 39  1  0
  1 40  1  0
  2  3  1  0
  2 41  1  0
  2 42  1  0
  3  4  1  0
  3 43  1  0
  3 44  1  0
  4  5  1  0
  4 45  1  0
  4 46  1  0
  5  6  1  0
  6  7  2  0
  6 37  1  0
  7  8  1  0
  7 47  1  0
  8  9  2  0
  8 48  1  0
  9 10  1  0
  9 36  1  0
 10 11  1  0
 10 35  1  0
 10 49  1  6
 11 12  1  0
 11 23  2  0
 12 13  2  0
 12 14  1  0
 14 15  1  0
 14 50  1  0
 15 16  2  0
 15 21  1  0
 16 17  1  0
 16 51  1  0
 17 18  2  0
 17 52  1  0
 18 19  1  0
 18 53  1  0
 19 20  1  0
 19 21  2  0
 20 54  1  0
 20 55  1  0
 20 56  1  0
 21 22  1  0
 22 57  1  0
 22 58  1  0
 22 59  1  0
 23 24  1  0
 23 25  1  0
 24 60  1  0
 24 61  1  0
 24 62  1  0
 25 26  1  0
 25 63  1  0
 26 27  2  0
 26 35  1  0
 27 28  1  0
 28 29  1  0
 28 34  2  0
 29 30  1  0
 30 31  1  0
 30 64  1  0
 30 65  1  0
 31 32  1  0
 31 66  1  0
 31 67  1  0
 32 33  1  0
 32 68  1  0
 32 69  1  0
 33 70  1  0
 33 71  1  0
 33 72  1  0
 34 35  1  0
 36 37  2  0
 36 73  1  0
 37 74  1  0
M  END

