
     RDKit          3D

 67 68  0  0  0  0  0  0  0  0999 V2000
    4.6224    3.3617   12.1124 C   0  0  0  0  0  0  0  0  0  0  0  0
    5.0737    4.2441   10.9476 C   0  0  0  0  0  0  0  0  0  0  0  0
    5.5898    3.4526    9.7417 C   0  0  0  0  0  0  0  0  0  0  0  0
    6.0430    4.3289    8.5704 C   0  0  0  0  0  0  0  0  0  0  0  0
    6.5594    3.5373    7.3652 C   0  0  0  0  0  0  0  0  0  0  0  0
    7.0108    4.4146    6.1937 C   0  0  0  0  0  0  0  0  0  0  0  0
    7.5283    3.6223    4.9899 C   0  0  0  0  0  0  0  0  0  0  0  0
    7.9801    4.5095    3.8165 C   0  0  0  0  0  0  0  0  0  0  0  0
    8.4267    3.7199    2.6161 C   0  0  0  0  0  0  0  0  0  0  0  0
    9.6298    3.7196    2.0201 C   0  0  0  0  0  0  0  0  0  0  0  0
   10.8493    4.5186    2.3978 C   0  0  0  0  0  0  0  0  0  0  0  0
   12.0099    3.6771    2.9741 C   0  0  0  0  0  0  0  0  0  0  0  0
   12.5672    2.5718    2.0648 C   0  0  0  0  0  0  0  0  0  0  0  0
   13.1864    3.0625    0.7514 C   0  0  0  0  0  0  0  0  0  0  0  0
   13.8123    1.9428   -0.0860 C   0  0  0  0  0  0  0  0  0  0  0  0
   14.4274    2.4319   -1.3999 C   0  0  0  0  0  0  0  0  0  0  0  0
   15.0462    1.3078   -2.2263 C   0  0  0  0  0  0  0  0  0  0  0  0
   15.6578    1.7769   -3.5297 C   0  0  0  0  0  0  0  0  0  0  0  0
   15.6633    2.9343   -3.8967 O   0  0  0  0  0  0  0  0  0  0  0  0
   16.2826    0.7276   -4.3912 C   0  0  0  0  0  0  0  0  0  0  0  0
   16.3327   -0.5470   -4.0939 N   0  0  0  0  0  0  0  0  0  0  0  0
   16.9478   -1.2847   -5.0338 N   0  0  0  0  0  0  0  0  0  0  0  0
   17.3685   -0.5694   -6.0526 C   0  0  0  0  0  0  0  0  0  0  0  0
   18.0724   -1.1265   -7.2176 C   0  0  0  0  0  0  0  0  0  0  0  0
   18.3375   -2.5037   -7.2994 C   0  0  0  0  0  0  0  0  0  0  0  0
   19.0076   -2.9773   -8.4262 C   0  0  0  0  0  0  0  0  0  0  0  0
   19.3852   -2.0706   -9.4202 C   0  0  0  0  0  0  0  0  0  0  0  0
   19.0726   -0.7176   -9.2407 C   0  0  0  0  0  0  0  0  0  0  0  0
   18.4330   -0.2537   -8.1689 N   0  0  0  0  0  0  0  0  0  0  0  0
   17.0222    1.1314   -5.9188 S   0  0  0  0  0  0  0  0  0  0  0  0
    4.2582    3.9636   12.9604 H   0  0  0  0  0  0  0  0  0  0  0  0
    5.4492    2.7322   12.4824 H   0  0  0  0  0  0  0  0  0  0  0  0
    3.8053    2.6851   11.8099 H   0  0  0  0  0  0  0  0  0  0  0  0
    5.8645    4.9350   11.2929 H   0  0  0  0  0  0  0  0  0  0  0  0
    4.2347    4.8882   10.6261 H   0  0  0  0  0  0  0  0  0  0  0  0
    4.7992    2.7606    9.3954 H   0  0  0  0  0  0  0  0  0  0  0  0
    6.4299    2.8081   10.0621 H   0  0  0  0  0  0  0  0  0  0  0  0
    6.8330    5.0210    8.9173 H   0  0  0  0  0  0  0  0  0  0  0  0
    5.2025    4.9729    8.2505 H   0  0  0  0  0  0  0  0  0  0  0  0
    5.7701    2.8444    7.0186 H   0  0  0  0  0  0  0  0  0  0  0  0
    7.4008    2.8944    7.6844 H   0  0  0  0  0  0  0  0  0  0  0  0
    7.7995    5.1083    6.5404 H   0  0  0  0  0  0  0  0  0  0  0  0
    6.1694    5.0569    5.8729 H   0  0  0  0  0  0  0  0  0  0  0  0
    6.7400    2.9300    4.6407 H   0  0  0  0  0  0  0  0  0  0  0  0
    8.3721    2.9812    5.3028 H   0  0  0  0  0  0  0  0  0  0  0  0
    8.7749    5.1914    4.1596 H   0  0  0  0  0  0  0  0  0  0  0  0
    7.1302    5.1551    3.5223 H   0  0  0  0  0  0  0  0  0  0  0  0
    7.6585    3.0589    2.1927 H   0  0  0  0  0  0  0  0  0  0  0  0
    9.7501    3.0590    1.1525 H   0  0  0  0  0  0  0  0  0  0  0  0
   10.5883    5.2950    3.1335 H   0  0  0  0  0  0  0  0  0  0  0  0
   11.2072    5.0618    1.5041 H   0  0  0  0  0  0  0  0  0  0  0  0
   11.6704    3.2176    3.9187 H   0  0  0  0  0  0  0  0  0  0  0  0
   12.8320    4.3643    3.2452 H   0  0  0  0  0  0  0  0  0  0  0  0
   11.7742    1.8352    1.8428 H   0  0  0  0  0  0  0  0  0  0  0  0
   13.3350    2.0149    2.6315 H   0  0  0  0  0  0  0  0  0  0  0  0
   13.9566    3.8250    0.9731 H   0  0  0  0  0  0  0  0  0  0  0  0
   12.4232    3.5779    0.1413 H   0  0  0  0  0  0  0  0  0  0  0  0
   13.0445    1.1765   -0.3020 H   0  0  0  0  0  0  0  0  0  0  0  0
   14.5860    1.4272    0.5132 H   0  0  0  0  0  0  0  0  0  0  0  0
   15.1967    3.1956   -1.1940 H   0  0  0  0  0  0  0  0  0  0  0  0
   13.6620    2.9468   -2.0053 H   0  0  0  0  0  0  0  0  0  0  0  0
   14.3073    0.5225   -2.4681 H   0  0  0  0  0  0  0  0  0  0  0  0
   15.8303    0.7692   -1.6641 H   0  0  0  0  0  0  0  0  0  0  0  0
   18.0168   -3.1605   -6.4899 H   0  0  0  0  0  0  0  0  0  0  0  0
   19.2326   -4.0420   -8.5276 H   0  0  0  0  0  0  0  0  0  0  0  0
   19.9117   -2.3998  -10.3187 H   0  0  0  0  0  0  0  0  0  0  0  0
   19.3535    0.0214   -9.9998 H   0  0  0  0  0  0  0  0  0  0  0  0
  1  2  1  0
  1 31  1  0
  1 32  1  0
  1 33  1  0
  2  3  1  0
  2 34  1  0
  2 35  1  0
  3  4  1  0
  3 36  1  0
  3 37  1  0
  4  5  1  0
  4 38  1  0
  4 39  1  0
  5  6  1  0
  5 40  1  0
  5 41  1  0
  6  7  1  0
  6 42  1  0
  6 43  1  0
  7  8  1  0
  7 44  1  0
  7 45  1  0
  8  9  1  0
  8 46  1  0
  8 47  1  0
  9 10  2  0
  9 48  1  0
 10 11  1  0
 10 49  1  0
 11 12  1  0
 11 50  1  0
 11 51  1  0
 12 13  1  0
 12 52  1  0
 12 53  1  0
 13 14  1  0
 13 54  1  0
 13 55  1  0
 14 15  1  0
 14 56  1  0
 14 57  1  0
 15 16  1  0
 15 58  1  0
 15 59  1  0
 16 17  1  0
 16 60  1  0
 16 61  1  0
 17 18  1  0
 17 62  1  0
 17 63  1  0
 18 19  2  0
 18 20  1  0
 20 21  2  0
 20 30  1  0
 21 22  1  0
 22 23  2  0
 23 24  1  0
 23 30  1  0
 24 25  2  0
 24 29  1  0
 25 26  1  0
 25 64  1  0
 26 27  2  0
 26 65  1  0
 27 28  1  0
 27 66  1  0
 28 29  2  0
 28 67  1  0
M  END

