
     RDKit          3D

 50 53  0  0  0  0  0  0  0  0999 V2000
    1.3391   -0.4158    0.5723 C   0  0  0  0  0  0  0  0  0  0  0  0
    2.0611    0.3740   -0.3412 O   0  0  0  0  0  0  0  0  0  0  0  0
    2.6693   -0.2272   -1.3993 C   0  0  0  0  0  0  0  0  0  0  0  0
    2.6366   -1.5818   -1.6619 C   0  0  0  0  0  0  0  0  0  0  0  0
    3.3011   -2.1209   -2.7984 C   0  0  0  0  0  0  0  0  0  0  0  0
    3.9949   -1.3017   -3.6645 C   0  0  0  0  0  0  0  0  0  0  0  0
    4.6488   -1.7231   -4.7831 O   0  0  0  0  0  0  0  0  0  0  0  0
    4.7423   -3.0962   -5.0617 C   0  0  0  0  0  0  0  0  0  0  0  0
    5.5758   -3.2698   -6.3325 C   0  0  1  0  0  0  0  0  0  0  0  0
    6.8584   -2.7044   -6.2170 O   0  0  0  0  0  0  0  0  0  0  0  0
    5.6220   -4.7436   -6.7394 C   0  0  0  0  0  0  0  0  0  0  0  0
    6.3136   -4.8388   -7.9610 O   0  0  0  0  0  0  0  0  0  0  0  0
    6.5336   -6.0522   -8.5288 C   0  0  0  0  0  0  0  0  0  0  0  0
    6.0423   -7.2502   -8.0378 C   0  0  0  0  0  0  0  0  0  0  0  0
    6.3209   -8.4629   -8.7207 C   0  0  0  0  0  0  0  0  0  0  0  0
    7.0757   -8.4764   -9.8709 C   0  0  0  0  0  0  0  0  0  0  0  0
    7.6014   -7.2606  -10.3975 C   0  0  0  0  0  0  0  0  0  0  0  0
    8.3921   -7.2257  -11.5799 C   0  0  0  0  0  0  0  0  0  0  0  0
    8.8967   -6.0358  -12.0635 C   0  0  0  0  0  0  0  0  0  0  0  0
    8.6363   -4.8207  -11.3837 C   0  0  0  0  0  0  0  0  0  0  0  0
    7.8710   -4.8152  -10.2345 C   0  0  0  0  0  0  0  0  0  0  0  0
    7.3356   -6.0264   -9.7201 C   0  0  0  0  0  0  0  0  0  0  0  0
    4.0618    0.1120   -3.4169 C   0  0  0  0  0  0  0  0  0  0  0  0
    4.7845    0.9836   -4.2738 C   0  0  0  0  0  0  0  0  0  0  0  0
    4.8327    2.3401   -4.0180 C   0  0  0  0  0  0  0  0  0  0  0  0
    4.1610    2.8791   -2.8960 C   0  0  0  0  0  0  0  0  0  0  0  0
    3.4551    2.0533   -2.0425 C   0  0  0  0  0  0  0  0  0  0  0  0
    3.3889    0.6548   -2.2777 C   0  0  0  0  0  0  0  0  0  0  0  0
    0.9405    0.2676    1.3344 H   0  0  0  0  0  0  0  0  0  0  0  0
    1.9837   -1.1662    1.0658 H   0  0  0  0  0  0  0  0  0  0  0  0
    0.4964   -0.9407    0.0858 H   0  0  0  0  0  0  0  0  0  0  0  0
    2.0993   -2.2669   -1.0064 H   0  0  0  0  0  0  0  0  0  0  0  0
    3.2410   -3.1961   -2.9676 H   0  0  0  0  0  0  0  0  0  0  0  0
    3.7379   -3.5415   -5.2023 H   0  0  0  0  0  0  0  0  0  0  0  0
    5.2223   -3.6309   -4.2151 H   0  0  0  0  0  0  0  0  0  0  0  0
    5.0828   -2.7080   -7.1430 H   0  0  0  0  0  0  0  0  0  0  0  0
    7.3353   -3.1507   -5.5030 H   0  0  0  0  0  0  0  0  0  0  0  0
    4.5948   -5.1449   -6.8363 H   0  0  0  0  0  0  0  0  0  0  0  0
    6.1373   -5.3396   -5.9582 H   0  0  0  0  0  0  0  0  0  0  0  0
    5.4354   -7.2795   -7.1330 H   0  0  0  0  0  0  0  0  0  0  0  0
    5.9207   -9.3964   -8.3166 H   0  0  0  0  0  0  0  0  0  0  0  0
    7.2829   -9.4145  -10.3916 H   0  0  0  0  0  0  0  0  0  0  0  0
    8.5956   -8.1651  -12.1013 H   0  0  0  0  0  0  0  0  0  0  0  0
    9.5027   -6.0285  -12.9733 H   0  0  0  0  0  0  0  0  0  0  0  0
    9.0457   -3.8843  -11.7711 H   0  0  0  0  0  0  0  0  0  0  0  0
    7.6703   -3.8871   -9.6977 H   0  0  0  0  0  0  0  0  0  0  0  0
    5.3044    0.5541   -5.1309 H   0  0  0  0  0  0  0  0  0  0  0  0
    5.3940    3.0004   -4.6842 H   0  0  0  0  0  0  0  0  0  0  0  0
    4.2036    3.9541   -2.7023 H   0  0  0  0  0  0  0  0  0  0  0  0
    2.9374    2.4587   -1.1727 H   0  0  0  0  0  0  0  0  0  0  0  0
  1  2  1  0
  1 29  1  0
  1 30  1  0
  1 31  1  0
  2  3  1  0
  3  4  2  0
  3 28  1  0
  4  5  1  0
  4 32  1  0
  5  6  2  0
  5 33  1  0
  6  7  1  0
  6 23  1  0
  7  8  1  0
  8  9  1  0
  8 34  1  0
  8 35  1  0
  9 10  1  0
  9 11  1  0
  9 36  1  6
 10 37  1  0
 11 12  1  0
 11 38  1  0
 11 39  1  0
 12 13  1  0
 13 14  2  0
 13 22  1  0
 14 15  1  0
 14 40  1  0
 15 16  2  0
 15 41  1  0
 16 17  1  0
 16 42  1  0
 17 18  1  0
 17 22  2  0
 18 19  2  0
 18 43  1  0
 19 20  1  0
 19 44  1  0
 20 21  2  0
 20 45  1  0
 21 22  1  0
 21 46  1  0
 23 24  1  0
 23 28  2  0
 24 25  2  0
 24 47  1  0
 25 26  1  0
 25 48  1  0
 26 27  2  0
 26 49  1  0
 27 28  1  0
 27 50  1  0
M  END

