
     RDKit          3D

 33 36  0  0  0  0  0  0  0  0999 V2000
    0.9219    0.5985    0.2553 C   0  0  0  0  0  0  0  0  0  0  0  0
    2.3829    0.8468    0.6039 C   0  0  0  0  0  0  0  0  0  0  0  0
    2.7138    1.2341    1.7087 O   0  0  0  0  0  0  0  0  0  0  0  0
    3.2655    0.5965   -0.4256 N   0  0  0  0  0  0  0  0  0  0  0  0
    4.6688    0.7202   -0.4460 C   0  0  0  0  0  0  0  0  0  0  0  0
    5.3257    0.3943   -1.6451 C   0  0  0  0  0  0  0  0  0  0  0  0
    6.7196    0.4857   -1.7635 C   0  0  0  0  0  0  0  0  0  0  0  0
    7.4153    0.1572   -2.9818 C   0  0  0  0  0  0  0  0  0  0  0  0
    8.7733    0.2550   -3.0704 C   0  0  0  0  0  0  0  0  0  0  0  0
    9.5708    0.6899   -1.9529 C   0  0  0  0  0  0  0  0  0  0  0  0
   10.9716    0.7988   -2.0195 C   0  0  0  0  0  0  0  0  0  0  0  0
   11.7079    1.2248   -0.9120 C   0  0  0  0  0  0  0  0  0  0  0  0
   11.0662    1.5512    0.2844 C   0  0  0  0  0  0  0  0  0  0  0  0
    9.6672    1.4582    0.3999 C   0  0  0  0  0  0  0  0  0  0  0  0
    8.9655    1.7847    1.6141 C   0  0  0  0  0  0  0  0  0  0  0  0
    7.6073    1.6863    1.7006 C   0  0  0  0  0  0  0  0  0  0  0  0
    6.8141    1.2506    0.5792 C   0  0  0  0  0  0  0  0  0  0  0  0
    5.4152    1.1478    0.6637 C   0  0  0  0  0  0  0  0  0  0  0  0
    7.4857    0.9203   -0.6377 C   0  0  0  0  0  0  0  0  0  0  0  0
    8.9062    1.0226   -0.7305 C   0  0  0  0  0  0  0  0  0  0  0  0
    0.5183   -0.1479    0.9563 H   0  0  0  0  0  0  0  0  0  0  0  0
    0.7505    0.2532   -0.7749 H   0  0  0  0  0  0  0  0  0  0  0  0
    0.3610    1.5309    0.4199 H   0  0  0  0  0  0  0  0  0  0  0  0
    2.8558    0.2779   -1.2949 H   0  0  0  0  0  0  0  0  0  0  0  0
    4.7427    0.0610   -2.5096 H   0  0  0  0  0  0  0  0  0  0  0  0
    6.8295   -0.1753   -3.8433 H   0  0  0  0  0  0  0  0  0  0  0  0
    9.2833    0.0012   -4.0039 H   0  0  0  0  0  0  0  0  0  0  0  0
   11.4818    0.5451   -2.9527 H   0  0  0  0  0  0  0  0  0  0  0  0
   12.7958    1.3034   -0.9823 H   0  0  0  0  0  0  0  0  0  0  0  0
   11.6503    1.8839    1.1467 H   0  0  0  0  0  0  0  0  0  0  0  0
    9.5492    2.1175    2.4768 H   0  0  0  0  0  0  0  0  0  0  0  0
    7.0922    1.9386    2.6311 H   0  0  0  0  0  0  0  0  0  0  0  0
    4.8984    1.3978    1.5874 H   0  0  0  0  0  0  0  0  0  0  0  0
  1  2  1  0
  1 21  1  0
  1 22  1  0
  1 23  1  0
  2  3  2  0
  2  4  1  0
  4  5  1  0
  4 24  1  0
  5  6  2  0
  5 18  1  0
  6  7  1  0
  6 25  1  0
  7  8  2  0
  7 19  1  0
  8  9  1  0
  8 26  1  0
  9 10  2  0
  9 27  1  0
 10 11  1  0
 10 20  1  0
 11 12  2  0
 11 28  1  0
 12 13  1  0
 12 29  1  0
 13 14  2  0
 13 30  1  0
 14 15  1  0
 14 20  1  0
 15 16  2  0
 15 31  1  0
 16 17  1  0
 16 32  1  0
 17 18  2  0
 17 19  1  0
 18 33  1  0
 19 20  2  0
M  END

