
     RDKit          3D

 66 68  0  0  0  0  0  0  0  0999 V2000
    1.0884   -1.3848    0.3235 C   0  0  0  0  0  0  0  0  0  0  0  0
    2.4532   -0.7048    0.2034 C   0  0  0  0  0  0  0  0  0  0  0  0
    2.9296   -0.0541    1.5056 C   0  0  0  0  0  0  0  0  0  0  0  0
    4.3045    0.6295    1.3859 C   0  0  0  0  0  0  0  0  0  0  0  0
    4.7459    1.3235    2.6606 C   0  0  0  0  0  0  0  0  0  0  0  0
    4.4070    2.6746    2.8358 C   0  0  0  0  0  0  0  0  0  0  0  0
    4.7346    3.3455    4.0069 C   0  0  0  0  0  0  0  0  0  0  0  0
    5.4179    2.6975    5.0461 C   0  0  0  0  0  0  0  0  0  0  0  0
    5.7721    1.3445    4.8898 C   0  0  0  0  0  0  0  0  0  0  0  0
    5.4303    0.6474    3.6978 C   0  0  0  0  0  0  0  0  0  0  0  0
    5.7945   -0.8760    3.5475 B   0  0  0  0  0  0  0  0  0  0  0  0
    5.3739   -1.8492    4.4193 O   0  0  0  0  0  0  0  0  0  0  0  0
    6.0211   -3.1010    4.0844 C   0  0  2  0  0  0  0  0  0  0  0  0
    4.9993   -4.2264    4.2353 C   0  0  0  0  0  0  0  0  0  0  0  0
    7.1629   -3.3039    5.0873 C   0  0  0  0  0  0  0  0  0  0  0  0
    6.5226   -2.8409    2.5991 C   0  0  2  0  0  0  0  0  0  0  0  0
    5.5354   -3.3201    1.5282 C   0  0  0  0  0  0  0  0  0  0  0  0
    7.9197   -3.3723    2.2844 C   0  0  0  0  0  0  0  0  0  0  0  0
    6.5583   -1.3941    2.5309 O   0  0  0  0  0  0  0  0  0  0  0  0
    6.5257    0.6129    5.9967 C   0  0  0  0  0  0  0  0  0  0  0  0
    7.1509    1.5185    7.0747 C   0  0  2  0  0  0  0  0  0  0  0  0
    7.7992    0.7381    8.2718 C   0  0  1  0  0  0  0  0  0  0  0  0
    8.7574   -0.3484    7.7417 C   0  0  0  0  0  0  0  0  0  0  0  0
    8.6335    1.7148    9.1271 C   0  0  0  0  0  0  0  0  0  0  0  0
    6.7390    0.0718    9.1711 C   0  0  0  0  0  0  0  0  0  0  0  0
    6.1089    2.5700    7.4866 C   0  0  0  0  0  0  0  0  0  0  0  0
    5.7730    3.4718    6.2998 C   0  0  0  0  0  0  0  0  0  0  0  0
    0.7755   -1.8395   -0.6303 H   0  0  0  0  0  0  0  0  0  0  0  0
    0.3073   -0.6654    0.6213 H   0  0  0  0  0  0  0  0  0  0  0  0
    1.1036   -2.1839    1.0838 H   0  0  0  0  0  0  0  0  0  0  0  0
    2.4147    0.0625   -0.5913 H   0  0  0  0  0  0  0  0  0  0  0  0
    3.2058   -1.4415   -0.1322 H   0  0  0  0  0  0  0  0  0  0  0  0
    2.9678   -0.8140    2.3079 H   0  0  0  0  0  0  0  0  0  0  0  0
    2.1837    0.6893    1.8404 H   0  0  0  0  0  0  0  0  0  0  0  0
    4.2548    1.3753    0.5740 H   0  0  0  0  0  0  0  0  0  0  0  0
    5.0560   -0.1133    1.0788 H   0  0  0  0  0  0  0  0  0  0  0  0
    3.8769    3.2031    2.0377 H   0  0  0  0  0  0  0  0  0  0  0  0
    4.4594    4.3985    4.1250 H   0  0  0  0  0  0  0  0  0  0  0  0
    4.6967   -4.3077    5.2902 H   0  0  0  0  0  0  0  0  0  0  0  0
    5.4278   -5.1934    3.9285 H   0  0  0  0  0  0  0  0  0  0  0  0
    4.0949   -4.0389    3.6423 H   0  0  0  0  0  0  0  0  0  0  0  0
    6.7506   -3.2824    6.1070 H   0  0  0  0  0  0  0  0  0  0  0  0
    7.9171   -2.5078    5.0111 H   0  0  0  0  0  0  0  0  0  0  0  0
    7.6651   -4.2716    4.9398 H   0  0  0  0  0  0  0  0  0  0  0  0
    5.4911   -4.4183    1.4792 H   0  0  0  0  0  0  0  0  0  0  0  0
    5.8629   -2.9457    0.5468 H   0  0  0  0  0  0  0  0  0  0  0  0
    4.5205   -2.9399    1.7125 H   0  0  0  0  0  0  0  0  0  0  0  0
    7.9579   -4.4682    2.3859 H   0  0  0  0  0  0  0  0  0  0  0  0
    8.6818   -2.9320    2.9402 H   0  0  0  0  0  0  0  0  0  0  0  0
    8.1836   -3.1171    1.2471 H   0  0  0  0  0  0  0  0  0  0  0  0
    7.3110   -0.0020    5.5324 H   0  0  0  0  0  0  0  0  0  0  0  0
    5.8341   -0.1064    6.4693 H   0  0  0  0  0  0  0  0  0  0  0  0
    7.9846    2.0664    6.5933 H   0  0  0  0  0  0  0  0  0  0  0  0
    9.4933    0.0747    7.0373 H   0  0  0  0  0  0  0  0  0  0  0  0
    8.2227   -1.1596    7.2257 H   0  0  0  0  0  0  0  0  0  0  0  0
    9.3186   -0.8049    8.5734 H   0  0  0  0  0  0  0  0  0  0  0  0
    9.4182    2.2017    8.5243 H   0  0  0  0  0  0  0  0  0  0  0  0
    9.1315    1.1788    9.9515 H   0  0  0  0  0  0  0  0  0  0  0  0
    8.0177    2.5068    9.5797 H   0  0  0  0  0  0  0  0  0  0  0  0
    6.0975   -0.6237    8.6068 H   0  0  0  0  0  0  0  0  0  0  0  0
    6.0858    0.8141    9.6554 H   0  0  0  0  0  0  0  0  0  0  0  0
    7.2259   -0.5082    9.9724 H   0  0  0  0  0  0  0  0  0  0  0  0
    6.4664    3.1871    8.3248 H   0  0  0  0  0  0  0  0  0  0  0  0
    5.1905    2.0647    7.8341 H   0  0  0  0  0  0  0  0  0  0  0  0
    6.6405    4.1256    6.0869 H   0  0  0  0  0  0  0  0  0  0  0  0
    4.9440    4.1531    6.5558 H   0  0  0  0  0  0  0  0  0  0  0  0
  1  2  1  0
  1 28  1  0
  1 29  1  0
  1 30  1  0
  2  3  1  0
  2 31  1  0
  2 32  1  0
  3  4  1  0
  3 33  1  0
  3 34  1  0
  4  5  1  0
  4 35  1  0
  4 36  1  0
  5  6  2  0
  5 10  1  0
  6  7  1  0
  6 37  1  0
  7  8  2  0
  7 38  1  0
  8  9  1  0
  8 27  1  0
  9 10  2  0
  9 20  1  0
 10 11  1  0
 11 12  1  0
 11 19  1  0
 12 13  1  0
 13 14  1  6
 13 15  1  0
 13 16  1  0
 14 39  1  0
 14 40  1  0
 14 41  1  0
 15 42  1  0
 15 43  1  0
 15 44  1  0
 16 17  1  6
 16 18  1  0
 16 19  1  0
 17 45  1  0
 17 46  1  0
 17 47  1  0
 18 48  1  0
 18 49  1  0
 18 50  1  0
 20 21  1  0
 20 51  1  0
 20 52  1  0
 21 22  1  0
 21 26  1  0
 21 53  1  6
 22 23  1  6
 22 24  1  0
 22 25  1  0
 23 54  1  0
 23 55  1  0
 23 56  1  0
 24 57  1  0
 24 58  1  0
 24 59  1  0
 25 60  1  0
 25 61  1  0
 25 62  1  0
 26 27  1  0
 26 63  1  0
 26 64  1  0
 27 65  1  0
 27 66  1  0
M  END

