
     RDKit          3D

 45 45  0  0  0  0  0  0  0  0999 V2000
    7.7033    7.7181   -0.6913 C   0  0  0  0  0  0  0  0  0  0  0  0
    7.2203    7.2485    0.5374 O   0  0  0  0  0  0  0  0  0  0  0  0
    7.4300    5.8763    0.7456 C   0  0  0  0  0  0  0  0  0  0  0  0
    6.8601    5.5120    2.1060 C   0  0  0  0  0  0  0  0  0  0  0  0
    7.0565    4.1361    2.3110 O   0  0  0  0  0  0  0  0  0  0  0  0
    6.5683    3.6553    3.5443 C   0  0  0  0  0  0  0  0  0  0  0  0
    6.8882    2.1713    3.6582 C   0  0  0  0  0  0  0  0  0  0  0  0
    8.3785    1.8631    3.6639 C   0  0  0  0  0  0  0  0  0  0  0  0
    8.9663    2.4107    4.8261 O   0  0  0  0  0  0  0  0  0  0  0  0
   10.3628    2.2478    4.8957 C   0  0  0  0  0  0  0  0  0  0  0  0
   10.9183    2.8582    6.2040 C   0  0  1  0  0  0  0  0  0  0  0  0
   10.2483    2.0532    7.3327 C   0  0  0  0  0  0  0  0  0  0  0  0
   10.7397    2.5733    9.1777 Br  0  0  0  0  0  0  0  0  0  0  0  0
   12.4560    2.6728    6.2307 C   0  0  0  0  0  0  0  0  0  0  0  0
   13.2170    3.5687    5.2415 C   0  0  0  0  0  0  0  0  0  0  0  0
   12.8361    5.0446    5.4062 C   0  0  0  0  0  0  0  0  0  0  0  0
   11.3194    5.2423    5.2991 C   0  0  0  0  0  0  0  0  0  0  0  0
   10.5624    4.3620    6.3025 C   0  0  0  0  0  0  0  0  0  0  0  0
    7.4878    8.7952   -0.7498 H   0  0  0  0  0  0  0  0  0  0  0  0
    7.2154    7.2140   -1.5508 H   0  0  0  0  0  0  0  0  0  0  0  0
    8.7986    7.5723   -0.7915 H   0  0  0  0  0  0  0  0  0  0  0  0
    8.5103    5.6218    0.7164 H   0  0  0  0  0  0  0  0  0  0  0  0
    6.9328    5.2655   -0.0369 H   0  0  0  0  0  0  0  0  0  0  0  0
    5.7828    5.7756    2.1337 H   0  0  0  0  0  0  0  0  0  0  0  0
    7.3615    6.1145    2.8907 H   0  0  0  0  0  0  0  0  0  0  0  0
    5.4718    3.8124    3.6126 H   0  0  0  0  0  0  0  0  0  0  0  0
    7.0319    4.2082    4.3853 H   0  0  0  0  0  0  0  0  0  0  0  0
    6.4240    1.6389    2.8110 H   0  0  0  0  0  0  0  0  0  0  0  0
    6.4323    1.7781    4.5823 H   0  0  0  0  0  0  0  0  0  0  0  0
    8.8499    2.2912    2.7578 H   0  0  0  0  0  0  0  0  0  0  0  0
    8.5399    0.7655    3.6350 H   0  0  0  0  0  0  0  0  0  0  0  0
   10.8435    2.7205    4.0180 H   0  0  0  0  0  0  0  0  0  0  0  0
   10.6266    1.1691    4.8555 H   0  0  0  0  0  0  0  0  0  0  0  0
   10.5160    0.9901    7.2677 H   0  0  0  0  0  0  0  0  0  0  0  0
    9.1588    2.1528    7.2860 H   0  0  0  0  0  0  0  0  0  0  0  0
   12.7038    1.6108    6.0536 H   0  0  0  0  0  0  0  0  0  0  0  0
   12.8023    2.9008    7.2523 H   0  0  0  0  0  0  0  0  0  0  0  0
   13.0160    3.2534    4.2020 H   0  0  0  0  0  0  0  0  0  0  0  0
   14.3014    3.4333    5.3911 H   0  0  0  0  0  0  0  0  0  0  0  0
   13.3611    5.6618    4.6575 H   0  0  0  0  0  0  0  0  0  0  0  0
   13.1773    5.3983    6.3967 H   0  0  0  0  0  0  0  0  0  0  0  0
   10.9890    5.0183    4.2688 H   0  0  0  0  0  0  0  0  0  0  0  0
   11.0589    6.2996    5.4748 H   0  0  0  0  0  0  0  0  0  0  0  0
    9.4752    4.4828    6.1765 H   0  0  0  0  0  0  0  0  0  0  0  0
   10.8032    4.7010    7.3235 H   0  0  0  0  0  0  0  0  0  0  0  0
  1  2  1  0
  1 19  1  0
  1 20  1  0
  1 21  1  0
  2  3  1  0
  3  4  1  0
  3 22  1  0
  3 23  1  0
  4  5  1  0
  4 24  1  0
  4 25  1  0
  5  6  1  0
  6  7  1  0
  6 26  1  0
  6 27  1  0
  7  8  1  0
  7 28  1  0
  7 29  1  0
  8  9  1  0
  8 30  1  0
  8 31  1  0
  9 10  1  0
 11 10  1  6
 10 32  1  0
 10 33  1  0
 11 12  1  0
 11 14  1  0
 11 18  1  0
 12 13  1  0
 12 34  1  0
 12 35  1  0
 14 15  1  0
 14 36  1  0
 14 37  1  0
 15 16  1  0
 15 38  1  0
 15 39  1  0
 16 17  1  0
 16 40  1  0
 16 41  1  0
 17 18  1  0
 17 42  1  0
 17 43  1  0
 18 44  1  0
 18 45  1  0
M  END

