
     RDKit          3D

 73 74  0  0  0  0  0  0  0  0999 V2000
   14.3223   -2.8018    8.5750 C   0  0  0  0  0  0  0  0  0  0  0  0
   13.2137   -1.7521    8.6914 C   0  0  1  0  0  0  0  0  0  0  0  0
   11.9555   -2.3073    9.3646 C   0  0  0  0  0  0  0  0  0  0  0  0
   13.7163   -0.5036    9.4167 C   0  0  0  0  0  0  0  0  0  0  0  0
   12.8771   -1.2325    7.3552 O   0  0  0  0  0  0  0  0  0  0  0  0
   12.3939   -2.0194    6.4023 C   0  0  0  0  0  0  0  0  0  0  0  0
   12.1636   -3.2002    6.4617 O   0  0  0  0  0  0  0  0  0  0  0  0
   12.2020   -1.2363    5.3137 O   0  0  0  0  0  0  0  0  0  0  0  0
   11.6929   -1.7583    4.1327 C   0  0  0  0  0  0  0  0  0  0  0  0
   10.5764   -2.5987    4.0877 C   0  0  0  0  0  0  0  0  0  0  0  0
   10.0960   -3.0173    2.8463 C   0  0  0  0  0  0  0  0  0  0  0  0
   10.6987   -2.6194    1.6401 C   0  0  0  0  0  0  0  0  0  0  0  0
   10.1204   -3.1089    0.2994 C   0  0  1  0  0  0  0  0  0  0  0  0
   10.5658   -2.4028   -0.8926 N   0  0  0  0  0  0  0  0  0  0  0  0
   10.3012   -4.6378    0.0998 C   0  0  0  0  0  0  0  0  0  0  0  0
   11.6474   -5.0535   -0.5028 C   0  0  1  0  0  0  0  0  0  0  0  0
   12.7583   -4.3904    0.0867 O   0  0  0  0  0  0  0  0  0  0  0  0
   11.8770   -6.5656   -0.4511 C   0  0  0  0  0  0  0  0  0  0  0  0
   10.8399   -7.2264   -1.1411 O   0  0  0  0  0  0  0  0  0  0  0  0
   10.9500   -8.6473   -1.2101 C   0  0  1  0  0  0  0  0  0  0  0  0
   10.2572   -9.2851    0.0006 C   0  0  0  0  0  0  0  0  0  0  0  0
    8.8545   -8.8976    0.0497 N   0  0  0  0  0  0  0  0  0  0  0  0
   10.3172   -9.0696   -2.5521 C   0  0  1  0  0  0  0  0  0  0  0  0
   10.9590   -8.3875   -3.7716 C   0  0  0  0  0  0  0  0  0  0  0  0
   10.3474   -8.8047   -5.0913 C   0  0  0  0  0  0  0  0  0  0  0  0
    9.0998   -8.3035   -5.4990 C   0  0  0  0  0  0  0  0  0  0  0  0
    8.5253   -8.6992   -6.7093 C   0  0  0  0  0  0  0  0  0  0  0  0
    9.1919   -9.6059   -7.5401 C   0  0  0  0  0  0  0  0  0  0  0  0
   10.4353  -10.1101   -7.1494 C   0  0  0  0  0  0  0  0  0  0  0  0
   11.0056   -9.7129   -5.9357 C   0  0  0  0  0  0  0  0  0  0  0  0
   10.2759  -10.5064   -2.6650 O   0  0  0  0  0  0  0  0  0  0  0  0
   11.4128  -11.2263   -2.7956 C   0  0  0  0  0  0  0  0  0  0  0  0
   11.1056  -12.5470   -2.9402 N   0  0  0  0  0  0  0  0  0  0  0  0
   12.5420  -10.7807   -2.7637 O   0  0  0  0  0  0  0  0  0  0  0  0
   11.8028   -1.7606    1.7192 C   0  0  0  0  0  0  0  0  0  0  0  0
   12.3038   -1.3353    2.9525 C   0  0  0  0  0  0  0  0  0  0  0  0
   14.6482   -3.1063    9.5816 H   0  0  0  0  0  0  0  0  0  0  0  0
   15.1933   -2.3835    8.0469 H   0  0  0  0  0  0  0  0  0  0  0  0
   13.9737   -3.6922    8.0360 H   0  0  0  0  0  0  0  0  0  0  0  0
   12.1874   -2.5882   10.4035 H   0  0  0  0  0  0  0  0  0  0  0  0
   11.5798   -3.1943    8.8385 H   0  0  0  0  0  0  0  0  0  0  0  0
   11.1631   -1.5429    9.3874 H   0  0  0  0  0  0  0  0  0  0  0  0
   14.0081   -0.7552   10.4474 H   0  0  0  0  0  0  0  0  0  0  0  0
   12.9309    0.2661    9.4523 H   0  0  0  0  0  0  0  0  0  0  0  0
   14.5897   -0.0803    8.8984 H   0  0  0  0  0  0  0  0  0  0  0  0
   10.0939   -2.9244    5.0083 H   0  0  0  0  0  0  0  0  0  0  0  0
    9.2162   -3.6679    2.8200 H   0  0  0  0  0  0  0  0  0  0  0  0
    9.0305   -2.9461    0.3749 H   0  0  0  0  0  0  0  0  0  0  0  0
   11.5784   -2.4776   -0.9930 H   0  0  0  0  0  0  0  0  0  0  0  0
   10.3424   -1.4103   -0.8338 H   0  0  0  0  0  0  0  0  0  0  0  0
    9.5158   -5.0080   -0.5763 H   0  0  0  0  0  0  0  0  0  0  0  0
   10.1541   -5.1496    1.0675 H   0  0  0  0  0  0  0  0  0  0  0  0
   11.6585   -4.7479   -1.5613 H   0  0  0  0  0  0  0  0  0  0  0  0
   12.6856   -4.4493    1.0496 H   0  0  0  0  0  0  0  0  0  0  0  0
   11.9245   -6.8872    0.6114 H   0  0  0  0  0  0  0  0  0  0  0  0
   12.8616   -6.7897   -0.9042 H   0  0  0  0  0  0  0  0  0  0  0  0
   12.0131   -8.9414   -1.2167 H   0  0  0  0  0  0  0  0  0  0  0  0
   10.8416   -9.0120    0.9064 H   0  0  0  0  0  0  0  0  0  0  0  0
   10.3269  -10.3807   -0.0916 H   0  0  0  0  0  0  0  0  0  0  0  0
    8.7860   -7.8844    0.1476 H   0  0  0  0  0  0  0  0  0  0  0  0
    8.3901   -9.3100    0.8570 H   0  0  0  0  0  0  0  0  0  0  0  0
    9.2517   -8.8062   -2.5035 H   0  0  0  0  0  0  0  0  0  0  0  0
   12.0385   -8.5903   -3.7748 H   0  0  0  0  0  0  0  0  0  0  0  0
   10.8231   -7.3068   -3.6188 H   0  0  0  0  0  0  0  0  0  0  0  0
    8.5733   -7.5874   -4.8605 H   0  0  0  0  0  0  0  0  0  0  0  0
    7.5552   -8.2933   -7.0087 H   0  0  0  0  0  0  0  0  0  0  0  0
    8.7459   -9.9131   -8.4898 H   0  0  0  0  0  0  0  0  0  0  0  0
   10.9678  -10.8144   -7.7945 H   0  0  0  0  0  0  0  0  0  0  0  0
   11.9807  -10.1071   -5.6360 H   0  0  0  0  0  0  0  0  0  0  0  0
   10.1503  -12.8261   -3.1204 H   0  0  0  0  0  0  0  0  0  0  0  0
   11.8608  -13.1789   -3.1677 H   0  0  0  0  0  0  0  0  0  0  0  0
   12.2882   -1.4175    0.8041 H   0  0  0  0  0  0  0  0  0  0  0  0
   13.1654   -0.6674    3.0131 H   0  0  0  0  0  0  0  0  0  0  0  0
  1  2  1  0
  1 37  1  0
  1 38  1  0
  1 39  1  0
  2  3  1  0
  2  4  1  0
  2  5  1  6
  3 40  1  0
  3 41  1  0
  3 42  1  0
  4 43  1  0
  4 44  1  0
  4 45  1  0
  5  6  1  0
  6  7  2  0
  6  8  1  0
  8  9  1  0
  9 10  2  0
  9 36  1  0
 10 11  1  0
 10 46  1  0
 11 12  2  0
 11 47  1  0
 12 13  1  0
 12 35  1  0
 13 14  1  0
 13 15  1  0
 13 48  1  1
 14 49  1  0
 14 50  1  0
 15 16  1  0
 15 51  1  0
 15 52  1  0
 16 17  1  0
 16 18  1  0
 16 53  1  6
 17 54  1  0
 18 19  1  0
 18 55  1  0
 18 56  1  0
 19 20  1  0
 20 21  1  0
 20 23  1  0
 20 57  1  6
 21 22  1  0
 21 58  1  0
 21 59  1  0
 22 60  1  0
 22 61  1  0
 23 24  1  0
 23 31  1  0
 23 62  1  1
 24 25  1  0
 24 63  1  0
 24 64  1  0
 25 26  2  0
 25 30  1  0
 26 27  1  0
 26 65  1  0
 27 28  2  0
 27 66  1  0
 28 29  1  0
 28 67  1  0
 29 30  2  0
 29 68  1  0
 30 69  1  0
 31 32  1  0
 32 33  1  0
 32 34  2  0
 33 70  1  0
 33 71  1  0
 35 36  2  0
 35 72  1  0
 36 73  1  0
M  END

