
     RDKit          3D

 33 35  0  0  0  0  0  0  0  0999 V2000
    4.9040   -2.1643   -0.1009 O   0  0  0  0  0  0  0  0  0  0  0  0
    4.2878   -1.1721    0.1872 C   0  0  0  0  0  0  0  0  0  0  0  0
    4.9958   -0.0020    0.3803 O   0  0  0  0  0  0  0  0  0  0  0  0
    4.4260    1.1860    0.7081 C   0  0  0  0  0  0  0  0  0  0  0  0
    5.2642    2.2924    0.8734 C   0  0  0  0  0  0  0  0  0  0  0  0
    4.7028    3.5225    1.2098 C   0  0  0  0  0  0  0  0  0  0  0  0
    3.3134    3.6553    1.3819 C   0  0  0  0  0  0  0  0  0  0  0  0
    2.4866    2.5516    1.2161 C   0  0  0  0  0  0  0  0  0  0  0  0
    3.0282    1.2923    0.8751 C   0  0  0  0  0  0  0  0  0  0  0  0
    2.2447    0.1052    0.6856 C   0  0  0  0  0  0  0  0  0  0  0  0
    2.8148   -1.0946    0.3551 C   0  0  0  0  0  0  0  0  0  0  0  0
    2.1035   -2.3516    0.1423 C   0  0  0  0  0  0  0  0  0  0  0  0
    0.7685   -2.5506    0.2360 C   0  0  0  0  0  0  0  0  0  0  0  0
    0.0605   -3.8133    0.0211 C   0  0  0  0  0  0  0  0  0  0  0  0
    0.7135   -5.0195   -0.3235 C   0  0  0  0  0  0  0  0  0  0  0  0
   -0.0028   -6.1939   -0.5173 C   0  0  0  0  0  0  0  0  0  0  0  0
   -1.3931   -6.1753   -0.3673 C   0  0  0  0  0  0  0  0  0  0  0  0
   -2.1559   -7.4199   -0.5722 N   0  0  0  0  0  0  0  0  0  0  0  0
   -1.5284   -8.4248   -0.8684 O   0  0  0  0  0  0  0  0  0  0  0  0
   -3.3683   -7.3689   -0.4330 O   0  0  0  0  0  0  0  0  0  0  0  0
   -2.0755   -5.0067   -0.0282 C   0  0  0  0  0  0  0  0  0  0  0  0
   -1.3446   -3.8379    0.1628 C   0  0  0  0  0  0  0  0  0  0  0  0
    6.3392    2.1657    0.7348 H   0  0  0  0  0  0  0  0  0  0  0  0
    5.3524    4.3913    1.3404 H   0  0  0  0  0  0  0  0  0  0  0  0
    2.8864    4.6252    1.6455 H   0  0  0  0  0  0  0  0  0  0  0  0
    1.4052    2.6429    1.3473 H   0  0  0  0  0  0  0  0  0  0  0  0
    1.1614    0.1827    0.8136 H   0  0  0  0  0  0  0  0  0  0  0  0
    2.7634   -3.1829   -0.1159 H   0  0  0  0  0  0  0  0  0  0  0  0
    0.1196   -1.7074    0.4965 H   0  0  0  0  0  0  0  0  0  0  0  0
    1.7980   -5.0397   -0.4419 H   0  0  0  0  0  0  0  0  0  0  0  0
    0.4907   -7.1283   -0.7830 H   0  0  0  0  0  0  0  0  0  0  0  0
   -3.1594   -5.0333    0.0795 H   0  0  0  0  0  0  0  0  0  0  0  0
   -1.8697   -2.9169    0.4287 H   0  0  0  0  0  0  0  0  0  0  0  0
  1  2  2  0
  2  3  1  0
  2 11  1  0
  3  4  1  0
  4  5  2  0
  4  9  1  0
  5  6  1  0
  5 23  1  0
  6  7  2  0
  6 24  1  0
  7  8  1  0
  7 25  1  0
  8  9  2  0
  8 26  1  0
  9 10  1  0
 10 11  2  0
 10 27  1  0
 11 12  1  0
 12 13  2  0
 12 28  1  0
 13 14  1  0
 13 29  1  0
 14 15  2  0
 14 22  1  0
 15 16  1  0
 15 30  1  0
 16 17  2  0
 16 31  1  0
 17 18  1  0
 17 21  1  0
 18 19  2  0
 18 20  1  0
 21 22  2  0
 21 32  1  0
 22 33  1  0
M  CHG  2  18   1  20  -1
M  END

