
     RDKit          3D

 59 62  0  0  0  0  0  0  0  0999 V2000
    2.7040   -6.6308    4.3383 C   0  0  0  0  0  0  0  0  0  0  0  0
    1.9640   -5.4417    4.8639 C   0  0  0  0  0  0  0  0  0  0  0  0
    2.0970   -4.9540    6.0826 N   0  0  0  0  0  0  0  0  0  0  0  0
    1.2357   -3.8911    6.1617 C   0  0  0  0  0  0  0  0  0  0  0  0
    0.5662   -3.7298    4.9713 C   0  0  0  0  0  0  0  0  0  0  0  0
    1.0371   -4.7275    4.1378 N   0  0  0  0  0  0  0  0  0  0  0  0
    0.6190   -4.9434    2.7588 C   0  0  0  0  0  0  0  0  0  0  0  0
    1.1044   -3.8530    1.7838 C   0  0  1  0  0  0  0  0  0  0  0  0
    2.6316   -3.7424    1.7447 C   0  0  0  0  0  0  0  0  0  0  0  0
    0.5566   -4.0961    0.3621 C   0  0  0  0  0  0  0  0  0  0  0  0
   -0.8879   -4.0775    0.2315 N   0  0  0  0  0  0  0  0  0  0  0  0
   -1.6228   -5.2454    0.1832 C   0  0  0  0  0  0  0  0  0  0  0  0
   -1.0928   -6.3391    0.3471 O   0  0  0  0  0  0  0  0  0  0  0  0
   -2.9789   -5.1150   -0.0712 N   0  0  0  0  0  0  0  0  0  0  0  0
   -3.6728   -3.8552   -0.3029 C   0  0  0  0  0  0  0  0  0  0  0  0
   -4.8145   -4.0493   -1.3212 C   0  0  0  0  0  0  0  0  0  0  0  0
   -5.7286   -5.1392   -1.0068 N   0  0  0  0  0  0  0  0  0  0  0  0
   -6.7043   -4.8770    0.0530 C   0  0  2  0  0  0  0  0  0  0  0  0
   -7.7901   -6.0007    0.1820 C   0  0  0  0  0  0  0  0  0  0  0  0
   -9.1271   -5.2255    0.1504 C   0  0  2  0  0  0  0  0  0  0  0  0
   -9.3893   -4.7707   -1.3013 C   0  0  0  0  0  0  0  0  0  0  0  0
   -8.2877   -3.6893   -1.5335 C   0  0  0  0  0  0  0  0  0  0  0  0
   -7.5776   -3.6096   -0.1614 C   0  0  1  0  0  0  0  0  0  0  0  0
   -8.7340   -3.8931    0.8189 C   0  0  0  0  0  0  0  0  0  0  0  0
   -4.9532   -6.3721   -0.8566 C   0  0  0  0  0  0  0  0  0  0  0  0
   -3.8352   -6.2730    0.1869 C   0  0  0  0  0  0  0  0  0  0  0  0
    3.3447   -7.0088    5.1452 H   0  0  0  0  0  0  0  0  0  0  0  0
    3.3445   -6.3841    3.4754 H   0  0  0  0  0  0  0  0  0  0  0  0
    2.0248   -7.4424    4.0266 H   0  0  0  0  0  0  0  0  0  0  0  0
    1.1355   -3.2982    7.0708 H   0  0  0  0  0  0  0  0  0  0  0  0
   -0.1925   -3.0205    4.6486 H   0  0  0  0  0  0  0  0  0  0  0  0
   -0.4789   -5.0021    2.7323 H   0  0  0  0  0  0  0  0  0  0  0  0
    0.9837   -5.9272    2.4331 H   0  0  0  0  0  0  0  0  0  0  0  0
    0.6989   -2.8863    2.1392 H   0  0  0  0  0  0  0  0  0  0  0  0
    3.0855   -4.6709    1.3583 H   0  0  0  0  0  0  0  0  0  0  0  0
    3.0468   -3.5527    2.7455 H   0  0  0  0  0  0  0  0  0  0  0  0
    2.9530   -2.9180    1.0880 H   0  0  0  0  0  0  0  0  0  0  0  0
    0.8983   -5.0772    0.0005 H   0  0  0  0  0  0  0  0  0  0  0  0
    0.9819   -3.3308   -0.3101 H   0  0  0  0  0  0  0  0  0  0  0  0
   -1.3556   -3.1828    0.2671 H   0  0  0  0  0  0  0  0  0  0  0  0
   -2.9766   -3.1183   -0.7290 H   0  0  0  0  0  0  0  0  0  0  0  0
   -4.0679   -3.4336    0.6449 H   0  0  0  0  0  0  0  0  0  0  0  0
   -4.3537   -4.2696   -2.3009 H   0  0  0  0  0  0  0  0  0  0  0  0
   -5.3676   -3.1055   -1.4297 H   0  0  0  0  0  0  0  0  0  0  0  0
   -6.2116   -4.7578    1.0421 H   0  0  0  0  0  0  0  0  0  0  0  0
   -7.6727   -6.5657    1.1199 H   0  0  0  0  0  0  0  0  0  0  0  0
   -7.7264   -6.7178   -0.6499 H   0  0  0  0  0  0  0  0  0  0  0  0
   -9.9667   -5.7719    0.6054 H   0  0  0  0  0  0  0  0  0  0  0  0
  -10.3992   -4.3408   -1.3968 H   0  0  0  0  0  0  0  0  0  0  0  0
   -9.3215   -5.6065   -2.0150 H   0  0  0  0  0  0  0  0  0  0  0  0
   -8.7276   -2.7151   -1.7982 H   0  0  0  0  0  0  0  0  0  0  0  0
   -7.5906   -3.9728   -2.3341 H   0  0  0  0  0  0  0  0  0  0  0  0
   -7.0401   -2.6656    0.0122 H   0  0  0  0  0  0  0  0  0  0  0  0
   -9.5286   -3.1307    0.7812 H   0  0  0  0  0  0  0  0  0  0  0  0
   -8.4036   -4.0042    1.8647 H   0  0  0  0  0  0  0  0  0  0  0  0
   -4.5015   -6.6107   -1.8360 H   0  0  0  0  0  0  0  0  0  0  0  0
   -5.6204   -7.2063   -0.5967 H   0  0  0  0  0  0  0  0  0  0  0  0
   -3.1984   -7.1658    0.1661 H   0  0  0  0  0  0  0  0  0  0  0  0
   -4.2694   -6.2007    1.2048 H   0  0  0  0  0  0  0  0  0  0  0  0
  1  2  1  0
  1 27  1  0
  1 28  1  0
  1 29  1  0
  2  3  2  0
  2  6  1  0
  3  4  1  0
  4  5  2  0
  4 30  1  0
  5  6  1  0
  5 31  1  0
  6  7  1  0
  7  8  1  0
  7 32  1  0
  7 33  1  0
  8  9  1  0
  8 10  1  0
  8 34  1  1
  9 35  1  0
  9 36  1  0
  9 37  1  0
 10 11  1  0
 10 38  1  0
 10 39  1  0
 11 12  1  0
 11 40  1  0
 12 13  2  0
 12 14  1  0
 14 15  1  0
 14 26  1  0
 15 16  1  0
 15 41  1  0
 15 42  1  0
 16 17  1  0
 16 43  1  0
 16 44  1  0
 17 18  1  0
 17 25  1  0
 18 19  1  0
 18 23  1  0
 18 45  1  1
 19 20  1  0
 19 46  1  0
 19 47  1  0
 20 21  1  0
 20 24  1  0
 20 48  1  1
 21 22  1  0
 21 49  1  0
 21 50  1  0
 22 23  1  0
 22 51  1  0
 22 52  1  0
 23 24  1  0
 23 53  1  1
 24 54  1  0
 24 55  1  0
 25 26  1  0
 25 56  1  0
 25 57  1  0
 26 58  1  0
 26 59  1  0
M  END

