
     RDKit          3D

 75 78  0  0  0  0  0  0  0  0999 V2000
    7.5122   -4.4556    1.8041 C   0  0  0  0  0  0  0  0  0  0  0  0
    6.0634   -4.9420    1.8442 C   0  0  0  0  0  0  0  0  0  0  0  0
    5.0797   -3.9746    2.5366 C   0  0  0  0  0  0  0  0  0  0  0  0
    4.8902   -2.6457    1.8383 C   0  0  0  0  0  0  0  0  0  0  0  0
    5.5498   -1.4968    2.2846 C   0  0  0  0  0  0  0  0  0  0  0  0
    5.3890   -0.2459    1.6604 C   0  0  0  0  0  0  0  0  0  0  0  0
    6.0555    0.9056    2.1552 N   0  0  0  0  0  0  0  0  0  0  0  0
    6.5636    1.9110    1.2300 C   0  0  0  0  0  0  0  0  0  0  0  0
    6.1695    1.1478    3.5076 C   0  0  0  0  0  0  0  0  0  0  0  0
    6.7447    2.0967    3.9955 O   0  0  0  0  0  0  0  0  0  0  0  0
    4.5707   -0.1711    0.5269 C   0  0  0  0  0  0  0  0  0  0  0  0
    3.9150   -1.3079    0.0467 C   0  0  0  0  0  0  0  0  0  0  0  0
    4.0602   -2.5369    0.7002 C   0  0  0  0  0  0  0  0  0  0  0  0
    3.4406   -3.6945    0.2916 O   0  0  0  0  0  0  0  0  0  0  0  0
    2.3969   -3.6339   -0.6633 C   0  0  1  0  0  0  0  0  0  0  0  0
    2.9390   -3.4808   -2.1067 C   0  0  0  0  0  0  0  0  0  0  0  0
    2.3120   -2.8906   -2.9606 O   0  0  0  0  0  0  0  0  0  0  0  0
    4.1546   -4.0879   -2.3085 N   0  0  0  0  0  0  0  0  0  0  0  0
    4.9351   -4.3343   -3.8272 S   0  0  1  0  0  0  0  0  0  0  0  0
    6.1393   -5.0658   -3.4351 O   0  0  0  0  0  0  0  0  0  0  0  0
    3.9609   -4.8808   -4.7596 O   0  0  0  0  0  0  0  0  0  0  0  0
    5.3903   -2.6927   -4.3604 C   0  0  0  0  0  0  0  0  0  0  0  0
    6.6690   -2.2171   -4.0618 C   0  0  0  0  0  0  0  0  0  0  0  0
    7.0340   -0.9461   -4.5092 C   0  0  0  0  0  0  0  0  0  0  0  0
    6.1455   -0.1483   -5.2487 C   0  0  0  0  0  0  0  0  0  0  0  0
    6.5659    1.2327   -5.7332 C   0  0  1  0  0  0  0  0  0  0  0  0
    6.6007    1.3127   -7.2696 C   0  0  0  0  0  0  0  0  0  0  0  0
    5.6868    2.3439   -5.1333 C   0  0  0  0  0  0  0  0  0  0  0  0
    4.8672   -0.6629   -5.5337 C   0  0  0  0  0  0  0  0  0  0  0  0
    4.4806   -1.9301   -5.1000 C   0  0  0  0  0  0  0  0  0  0  0  0
    1.5395   -4.8896   -0.5785 C   0  0  0  0  0  0  0  0  0  0  0  0
    1.9631   -6.0003    0.1647 C   0  0  0  0  0  0  0  0  0  0  0  0
    1.1894   -7.1801    0.2279 C   0  0  0  0  0  0  0  0  0  0  0  0
    1.5065   -8.2928    0.9296 O   0  0  0  0  0  0  0  0  0  0  0  0
    2.7111   -8.3204    1.6620 C   0  0  0  0  0  0  0  0  0  0  0  0
   -0.0031   -7.1859   -0.4948 C   0  0  0  0  0  0  0  0  0  0  0  0
   -0.4106   -6.0771   -1.2307 C   0  0  0  0  0  0  0  0  0  0  0  0
    0.3286   -4.9076   -1.2989 C   0  0  0  0  0  0  0  0  0  0  0  0
   -1.6240   -6.3456   -1.8002 O   0  0  0  0  0  0  0  0  0  0  0  0
   -1.8626   -7.7332   -1.5765 C   0  0  0  0  0  0  0  0  0  0  0  0
   -0.9473   -8.1713   -0.5775 O   0  0  0  0  0  0  0  0  0  0  0  0
    8.1643   -5.1939    1.3112 H   0  0  0  0  0  0  0  0  0  0  0  0
    7.9075   -4.2900    2.8207 H   0  0  0  0  0  0  0  0  0  0  0  0
    7.6088   -3.5068    1.2523 H   0  0  0  0  0  0  0  0  0  0  0  0
    6.0179   -5.9097    2.3740 H   0  0  0  0  0  0  0  0  0  0  0  0
    5.7103   -5.1441    0.8184 H   0  0  0  0  0  0  0  0  0  0  0  0
    5.4301   -3.7869    3.5652 H   0  0  0  0  0  0  0  0  0  0  0  0
    4.0994   -4.4703    2.6217 H   0  0  0  0  0  0  0  0  0  0  0  0
    6.2216   -1.5870    3.1404 H   0  0  0  0  0  0  0  0  0  0  0  0
    7.0840    1.4259    0.3910 H   0  0  0  0  0  0  0  0  0  0  0  0
    7.2596    2.5526    1.7847 H   0  0  0  0  0  0  0  0  0  0  0  0
    5.7572    2.5478    0.8272 H   0  0  0  0  0  0  0  0  0  0  0  0
    5.6582    0.3720    4.1206 H   0  0  0  0  0  0  0  0  0  0  0  0
    4.4258    0.7787    0.0106 H   0  0  0  0  0  0  0  0  0  0  0  0
    3.2906   -1.2121   -0.8417 H   0  0  0  0  0  0  0  0  0  0  0  0
    1.7616   -2.7501   -0.4898 H   0  0  0  0  0  0  0  0  0  0  0  0
    4.6322   -4.5339   -1.5276 H   0  0  0  0  0  0  0  0  0  0  0  0
    7.3662   -2.8433   -3.5026 H   0  0  0  0  0  0  0  0  0  0  0  0
    8.0356   -0.5686   -4.2852 H   0  0  0  0  0  0  0  0  0  0  0  0
    7.5957    1.3959   -5.3716 H   0  0  0  0  0  0  0  0  0  0  0  0
    5.5965    1.1767   -7.7034 H   0  0  0  0  0  0  0  0  0  0  0  0
    7.2576    0.5395   -7.6973 H   0  0  0  0  0  0  0  0  0  0  0  0
    6.9736    2.2965   -7.5973 H   0  0  0  0  0  0  0  0  0  0  0  0
    4.6404    2.2570   -5.4688 H   0  0  0  0  0  0  0  0  0  0  0  0
    6.0527    3.3361   -5.4430 H   0  0  0  0  0  0  0  0  0  0  0  0
    5.6896    2.3085   -4.0326 H   0  0  0  0  0  0  0  0  0  0  0  0
    4.1556   -0.0670   -6.1105 H   0  0  0  0  0  0  0  0  0  0  0  0
    3.4887   -2.3274   -5.3162 H   0  0  0  0  0  0  0  0  0  0  0  0
    2.9028   -5.9385    0.7079 H   0  0  0  0  0  0  0  0  0  0  0  0
    2.7611   -9.3072    2.1413 H   0  0  0  0  0  0  0  0  0  0  0  0
    2.7343   -7.5409    2.4448 H   0  0  0  0  0  0  0  0  0  0  0  0
    3.5929   -8.1949    1.0084 H   0  0  0  0  0  0  0  0  0  0  0  0
   -0.0025   -4.0559   -1.8933 H   0  0  0  0  0  0  0  0  0  0  0  0
   -1.6889   -8.2958   -2.5161 H   0  0  0  0  0  0  0  0  0  0  0  0
   -2.8959   -7.8808   -1.2249 H   0  0  0  0  0  0  0  0  0  0  0  0
  1  2  1  0
  1 42  1  0
  1 43  1  0
  1 44  1  0
  2  3  1  0
  2 45  1  0
  2 46  1  0
  3  4  1  0
  3 47  1  0
  3 48  1  0
  4  5  2  0
  4 13  1  0
  5  6  1  0
  5 49  1  0
  6  7  1  0
  6 11  2  0
  7  8  1  0
  7  9  1  0
  8 50  1  0
  8 51  1  0
  8 52  1  0
  9 10  2  0
  9 53  1  0
 11 12  1  0
 11 54  1  0
 12 13  2  0
 12 55  1  0
 13 14  1  0
 14 15  1  0
 15 16  1  0
 15 31  1  0
 15 56  1  1
 16 17  2  0
 16 18  1  0
 19 18  1  1
 18 57  1  0
 19 20  2  0
 19 21  2  0
 19 22  1  0
 22 23  2  0
 22 30  1  0
 23 24  1  0
 23 58  1  0
 24 25  2  0
 24 59  1  0
 25 26  1  0
 25 29  1  0
 26 27  1  0
 26 28  1  0
 26 60  1  1
 27 61  1  0
 27 62  1  0
 27 63  1  0
 28 64  1  0
 28 65  1  0
 28 66  1  0
 29 30  2  0
 29 67  1  0
 30 68  1  0
 31 32  2  0
 31 38  1  0
 32 33  1  0
 32 69  1  0
 33 34  1  0
 33 36  2  0
 34 35  1  0
 35 70  1  0
 35 71  1  0
 35 72  1  0
 36 37  1  0
 36 41  1  0
 37 38  2  0
 37 39  1  0
 38 73  1  0
 39 40  1  0
 40 41  1  0
 40 74  1  0
 40 75  1  0
M  END

