
     RDKit          3D

 36 37  0  0  0  0  0  0  0  0999 V2000
    1.6722   -0.1696   -0.5400 C   0  0  0  0  0  0  0  0  0  0  0  0
    2.8817   -0.0470    0.2442 N   0  0  0  0  0  0  0  0  0  0  0  0
    3.3395    1.1746    0.6878 C   0  0  0  0  0  0  0  0  0  0  0  0
    2.7536    2.2208    0.4708 O   0  0  0  0  0  0  0  0  0  0  0  0
    4.5282    1.0821    1.4081 N   0  0  0  0  0  0  0  0  0  0  0  0
    5.2754    2.1168    1.9943 C   0  0  0  0  0  0  0  0  0  0  0  0
    4.9223    3.4768    1.9155 C   0  0  0  0  0  0  0  0  0  0  0  0
    5.7424    4.4219    2.5322 C   0  0  0  0  0  0  0  0  0  0  0  0
    6.9033    4.0768    3.2274 C   0  0  0  0  0  0  0  0  0  0  0  0
    7.2532    2.7192    3.3077 C   0  0  0  0  0  0  0  0  0  0  0  0
    8.3954    2.2496    3.9914 N   0  0  0  0  0  0  0  0  0  0  0  0
    9.3802    2.9685    4.6257 C   0  0  0  0  0  0  0  0  0  0  0  0
    9.4340    4.1857    4.6582 O   0  0  0  0  0  0  0  0  0  0  0  0
   10.4482    2.1315    5.2951 C   0  0  0  0  0  0  0  0  0  0  0  0
   10.2523    0.8157    5.7436 C   0  0  0  0  0  0  0  0  0  0  0  0
   11.2847    0.1192    6.3792 C   0  0  0  0  0  0  0  0  0  0  0  0
   12.5242    0.7249    6.5751 C   0  0  0  0  0  0  0  0  0  0  0  0
   12.7273    2.0501    6.1422 C   0  0  0  0  0  0  0  0  0  0  0  0
   14.0016    2.6839    6.3481 C   0  0  0  0  0  0  0  0  0  0  0  0
   15.0339    3.1875    6.5159 N   0  0  0  0  0  0  0  0  0  0  0  0
   11.6856    2.7500    5.5143 C   0  0  0  0  0  0  0  0  0  0  0  0
    6.4390    1.7545    2.6931 C   0  0  0  0  0  0  0  0  0  0  0  0
    0.9472   -0.8519   -0.0641 H   0  0  0  0  0  0  0  0  0  0  0  0
    1.8777   -0.5345   -1.5616 H   0  0  0  0  0  0  0  0  0  0  0  0
    1.2207    0.8283   -0.6115 H   0  0  0  0  0  0  0  0  0  0  0  0
    3.4306   -0.8811    0.4085 H   0  0  0  0  0  0  0  0  0  0  0  0
    4.9079    0.1542    1.5491 H   0  0  0  0  0  0  0  0  0  0  0  0
    4.0221    3.7652    1.3798 H   0  0  0  0  0  0  0  0  0  0  0  0
    5.4649    5.4773    2.4668 H   0  0  0  0  0  0  0  0  0  0  0  0
    7.5337    4.8280    3.6947 H   0  0  0  0  0  0  0  0  0  0  0  0
    8.5381    1.2489    3.9409 H   0  0  0  0  0  0  0  0  0  0  0  0
    9.2795    0.3297    5.6327 H   0  0  0  0  0  0  0  0  0  0  0  0
   11.1167   -0.9007    6.7321 H   0  0  0  0  0  0  0  0  0  0  0  0
   13.3359    0.1863    7.0676 H   0  0  0  0  0  0  0  0  0  0  0  0
   11.8186    3.7836    5.1917 H   0  0  0  0  0  0  0  0  0  0  0  0
    6.7176    0.6968    2.7603 H   0  0  0  0  0  0  0  0  0  0  0  0
  1  2  1  0
  1 23  1  0
  1 24  1  0
  1 25  1  0
  2  3  1  0
  2 26  1  0
  3  4  2  0
  3  5  1  0
  5  6  1  0
  5 27  1  0
  6  7  2  0
  6 22  1  0
  7  8  1  0
  7 28  1  0
  8  9  2  0
  8 29  1  0
  9 10  1  0
  9 30  1  0
 10 11  1  0
 10 22  2  0
 11 12  1  0
 11 31  1  0
 12 13  2  0
 12 14  1  0
 14 15  2  0
 14 21  1  0
 15 16  1  0
 15 32  1  0
 16 17  2  0
 16 33  1  0
 17 18  1  0
 17 34  1  0
 18 19  1  0
 18 21  2  0
 19 20  3  0
 21 35  1  0
 22 36  1  0
M  END

