
     RDKit          3D

104103  0  0  0  0  0  0  0  0999 V2000
    2.3152   -3.3891    4.2973 C   0  0  0  0  0  0  0  0  0  0  0  0
    2.0616   -2.7990    5.6850 C   0  0  0  0  0  0  0  0  0  0  0  0
    2.5136   -1.3378    5.8436 C   0  0  1  0  0  0  0  0  0  0  0  0
    1.8485   -0.3327    4.8676 C   0  0  0  0  0  0  0  0  0  0  0  0
    0.3206   -0.2423    4.9493 C   0  0  0  0  0  0  0  0  0  0  0  0
   -0.2596    0.8265    4.0147 C   0  0  0  0  0  0  0  0  0  0  0  0
   -1.7920    0.9186    4.0056 C   0  0  0  0  0  0  0  0  0  0  0  0
   -2.4222    1.4057    5.3155 C   0  0  0  0  0  0  0  0  0  0  0  0
   -3.9464    1.5437    5.2482 C   0  0  0  0  0  0  0  0  0  0  0  0
   -4.5833    2.0346    6.5517 C   0  0  0  0  0  0  0  0  0  0  0  0
   -6.1073    2.1708    6.4858 C   0  0  0  0  0  0  0  0  0  0  0  0
   -6.7435    2.6635    7.7890 C   0  0  0  0  0  0  0  0  0  0  0  0
   -8.2675    2.7986    7.7233 C   0  0  0  0  0  0  0  0  0  0  0  0
   -8.9038    3.2915    9.0262 C   0  0  0  0  0  0  0  0  0  0  0  0
  -10.4271    3.4241    8.9525 C   0  0  0  0  0  0  0  0  0  0  0  0
  -11.0509    3.9151   10.2565 C   0  0  0  0  0  0  0  0  0  0  0  0
  -12.5586    4.0517   10.1982 C   0  0  0  0  0  0  0  0  0  0  0  0
  -13.2470    3.8070    9.2370 O   0  0  0  0  0  0  0  0  0  0  0  0
  -13.0471    4.4933   11.3758 O   0  0  0  0  0  0  0  0  0  0  0  0
  -14.4692    4.6726   11.4820 C   0  0  0  0  0  0  0  0  0  0  0  0
  -15.1762    3.3853   11.8895 C   0  0  0  0  0  0  0  0  0  0  0  0
  -16.6805    3.5828   12.0989 C   0  0  0  0  0  0  0  0  0  0  0  0
  -17.4138    2.3013   12.5087 C   0  0  0  0  0  0  0  0  0  0  0  0
  -18.9186    2.5015   12.7156 C   0  0  0  0  0  0  0  0  0  0  0  0
  -19.7222    1.2292   13.0465 C   0  0  1  0  0  0  0  0  0  0  0  0
  -19.3050    0.5942   14.3800 C   0  0  0  0  0  0  0  0  0  0  0  0
  -21.2280    1.5234   13.0349 C   0  0  0  0  0  0  0  0  0  0  0  0
    2.3134   -0.8697    7.2790 C   0  0  0  0  0  0  0  0  0  0  0  0
    1.5730   -1.3781    8.0874 O   0  0  0  0  0  0  0  0  0  0  0  0
    3.0610    0.2237    7.5427 O   0  0  0  0  0  0  0  0  0  0  0  0
    2.9504    0.8108    8.8501 C   0  0  0  0  0  0  0  0  0  0  0  0
    3.9150    0.1715    9.8419 C   0  0  0  0  0  0  0  0  0  0  0  0
    3.8799    0.8490   11.2150 C   0  0  0  0  0  0  0  0  0  0  0  0
    4.8397    0.2207   12.2309 C   0  0  0  0  0  0  0  0  0  0  0  0
    4.8026    0.9005   13.6035 C   0  0  0  0  0  0  0  0  0  0  0  0
    5.6813    0.2554   14.6922 C   0  0  1  0  0  0  0  0  0  0  0  0
    7.1777    0.3076   14.3549 C   0  0  0  0  0  0  0  0  0  0  0  0
    5.4114    0.9020   16.0572 C   0  0  0  0  0  0  0  0  0  0  0  0
    2.0506   -4.4580    4.2734 H   0  0  0  0  0  0  0  0  0  0  0  0
    3.3770   -3.3051    4.0090 H   0  0  0  0  0  0  0  0  0  0  0  0
    1.7209   -2.8900    3.5152 H   0  0  0  0  0  0  0  0  0  0  0  0
    2.5904   -3.4036    6.4406 H   0  0  0  0  0  0  0  0  0  0  0  0
    0.9952   -2.8815    5.9485 H   0  0  0  0  0  0  0  0  0  0  0  0
    3.6002   -1.2782    5.6562 H   0  0  0  0  0  0  0  0  0  0  0  0
    2.1458   -0.5968    3.8384 H   0  0  0  0  0  0  0  0  0  0  0  0
    2.2837    0.6622    5.0595 H   0  0  0  0  0  0  0  0  0  0  0  0
    0.0184   -0.0373    5.9908 H   0  0  0  0  0  0  0  0  0  0  0  0
   -0.1285   -1.2192    4.6962 H   0  0  0  0  0  0  0  0  0  0  0  0
    0.0890    0.6227    2.9860 H   0  0  0  0  0  0  0  0  0  0  0  0
    0.1632    1.8130    4.2824 H   0  0  0  0  0  0  0  0  0  0  0  0
   -2.2145   -0.0695    3.7433 H   0  0  0  0  0  0  0  0  0  0  0  0
   -2.0996    1.5997    3.1918 H   0  0  0  0  0  0  0  0  0  0  0  0
   -1.9795    2.3821    5.5888 H   0  0  0  0  0  0  0  0  0  0  0  0
   -2.1618    0.7173    6.1391 H   0  0  0  0  0  0  0  0  0  0  0  0
   -4.3883    0.5682    4.9715 H   0  0  0  0  0  0  0  0  0  0  0  0
   -4.2149    2.2353    4.4278 H   0  0  0  0  0  0  0  0  0  0  0  0
   -4.1417    3.0103    6.8280 H   0  0  0  0  0  0  0  0  0  0  0  0
   -4.3141    1.3431    7.3718 H   0  0  0  0  0  0  0  0  0  0  0  0
   -6.5491    1.1949    6.2109 H   0  0  0  0  0  0  0  0  0  0  0  0
   -6.3769    2.8614    5.6649 H   0  0  0  0  0  0  0  0  0  0  0  0
   -6.3021    3.6398    8.0637 H   0  0  0  0  0  0  0  0  0  0  0  0
   -6.4734    1.9732    8.6100 H   0  0  0  0  0  0  0  0  0  0  0  0
   -8.7096    1.8227    7.4494 H   0  0  0  0  0  0  0  0  0  0  0  0
   -8.5384    3.4888    6.9028 H   0  0  0  0  0  0  0  0  0  0  0  0
   -8.4623    4.2679    9.3011 H   0  0  0  0  0  0  0  0  0  0  0  0
   -8.6338    2.6014    9.8476 H   0  0  0  0  0  0  0  0  0  0  0  0
  -10.8765    2.4539    8.6805 H   0  0  0  0  0  0  0  0  0  0  0  0
  -10.7058    4.1135    8.1374 H   0  0  0  0  0  0  0  0  0  0  0  0
  -10.6414    4.8959   10.5564 H   0  0  0  0  0  0  0  0  0  0  0  0
  -10.8133    3.2392   11.0971 H   0  0  0  0  0  0  0  0  0  0  0  0
  -14.8590    5.0423   10.5213 H   0  0  0  0  0  0  0  0  0  0  0  0
  -14.6014    5.4532   12.2464 H   0  0  0  0  0  0  0  0  0  0  0  0
  -14.7122    3.0028   12.8156 H   0  0  0  0  0  0  0  0  0  0  0  0
  -15.0057    2.6263   11.1077 H   0  0  0  0  0  0  0  0  0  0  0  0
  -17.1309    3.9792   11.1702 H   0  0  0  0  0  0  0  0  0  0  0  0
  -16.8474    4.3591   12.8691 H   0  0  0  0  0  0  0  0  0  0  0  0
  -16.9526    1.9070   13.4311 H   0  0  0  0  0  0  0  0  0  0  0  0
  -17.2510    1.5279   11.7352 H   0  0  0  0  0  0  0  0  0  0  0  0
  -19.3417    2.9525   11.7994 H   0  0  0  0  0  0  0  0  0  0  0  0
  -19.0827    3.2465   13.5180 H   0  0  0  0  0  0  0  0  0  0  0  0
  -19.5188    0.4928   12.2450 H   0  0  0  0  0  0  0  0  0  0  0  0
  -19.4626    1.2973   15.2167 H   0  0  0  0  0  0  0  0  0  0  0  0
  -18.2447    0.2979   14.3881 H   0  0  0  0  0  0  0  0  0  0  0  0
  -19.8997   -0.3095   14.5910 H   0  0  0  0  0  0  0  0  0  0  0  0
  -21.4922    2.2598   13.8137 H   0  0  0  0  0  0  0  0  0  0  0  0
  -21.8178    0.6124   13.2269 H   0  0  0  0  0  0  0  0  0  0  0  0
  -21.5522    1.9354   12.0653 H   0  0  0  0  0  0  0  0  0  0  0  0
    1.9121    0.7153    9.2021 H   0  0  0  0  0  0  0  0  0  0  0  0
    3.1839    1.8766    8.7050 H   0  0  0  0  0  0  0  0  0  0  0  0
    4.9360    0.2164    9.4237 H   0  0  0  0  0  0  0  0  0  0  0  0
    3.6575   -0.8958    9.9463 H   0  0  0  0  0  0  0  0  0  0  0  0
    2.8501    0.8122   11.6158 H   0  0  0  0  0  0  0  0  0  0  0  0
    4.1209    1.9228   11.1034 H   0  0  0  0  0  0  0  0  0  0  0  0
    5.8637    0.2515   11.8193 H   0  0  0  0  0  0  0  0  0  0  0  0
    4.5930   -0.8510   12.3471 H   0  0  0  0  0  0  0  0  0  0  0  0
    3.7568    0.9118   13.9612 H   0  0  0  0  0  0  0  0  0  0  0  0
    5.0919    1.9636   13.4942 H   0  0  0  0  0  0  0  0  0  0  0  0
    5.3895   -0.8104   14.7629 H   0  0  0  0  0  0  0  0  0  0  0  0
    7.5202    1.3516   14.2458 H   0  0  0  0  0  0  0  0  0  0  0  0
    7.4135   -0.2208   13.4182 H   0  0  0  0  0  0  0  0  0  0  0  0
    7.7796   -0.1561   15.1534 H   0  0  0  0  0  0  0  0  0  0  0  0
    5.6799    1.9727   16.0468 H   0  0  0  0  0  0  0  0  0  0  0  0
    6.0008    0.4205   16.8544 H   0  0  0  0  0  0  0  0  0  0  0  0
    4.3474    0.8296   16.3357 H   0  0  0  0  0  0  0  0  0  0  0  0
  1  2  1  0
  1 39  1  0
  1 40  1  0
  1 41  1  0
  2  3  1  0
  2 42  1  0
  2 43  1  0
  3  4  1  0
  3 28  1  0
  3 44  1  6
  4  5  1  0
  4 45  1  0
  4 46  1  0
  5  6  1  0
  5 47  1  0
  5 48  1  0
  6  7  1  0
  6 49  1  0
  6 50  1  0
  7  8  1  0
  7 51  1  0
  7 52  1  0
  8  9  1  0
  8 53  1  0
  8 54  1  0
  9 10  1  0
  9 55  1  0
  9 56  1  0
 10 11  1  0
 10 57  1  0
 10 58  1  0
 11 12  1  0
 11 59  1  0
 11 60  1  0
 12 13  1  0
 12 61  1  0
 12 62  1  0
 13 14  1  0
 13 63  1  0
 13 64  1  0
 14 15  1  0
 14 65  1  0
 14 66  1  0
 15 16  1  0
 15 67  1  0
 15 68  1  0
 16 17  1  0
 16 69  1  0
 16 70  1  0
 17 18  2  0
 17 19  1  0
 19 20  1  0
 20 21  1  0
 20 71  1  0
 20 72  1  0
 21 22  1  0
 21 73  1  0
 21 74  1  0
 22 23  1  0
 22 75  1  0
 22 76  1  0
 23 24  1  0
 23 77  1  0
 23 78  1  0
 24 25  1  0
 24 79  1  0
 24 80  1  0
 25 26  1  0
 25 27  1  0
 25 81  1  6
 26 82  1  0
 26 83  1  0
 26 84  1  0
 27 85  1  0
 27 86  1  0
 27 87  1  0
 28 29  2  0
 28 30  1  0
 30 31  1  0
 31 32  1  0
 31 88  1  0
 31 89  1  0
 32 33  1  0
 32 90  1  0
 32 91  1  0
 33 34  1  0
 33 92  1  0
 33 93  1  0
 34 35  1  0
 34 94  1  0
 34 95  1  0
 35 36  1  0
 35 96  1  0
 35 97  1  0
 36 37  1  0
 36 38  1  0
 36 98  1  1
 37 99  1  0
 37100  1  0
 37101  1  0
 38102  1  0
 38103  1  0
 38104  1  0
M  END

