
     RDKit          3D

 33 33  0  0  0  0  0  0  0  0999 V2000
    4.0676   -5.2676    0.2427 C   0  0  0  0  0  0  0  0  0  0  0  0
    4.3623   -3.9049   -0.0403 O   0  0  0  0  0  0  0  0  0  0  0  0
    3.7936   -2.9672    0.7728 C   0  0  0  0  0  0  0  0  0  0  0  0
    4.3428   -2.6618    2.0328 C   0  0  0  0  0  0  0  0  0  0  0  0
    5.7712   -3.5079    2.5784 Cl  0  0  0  0  0  0  0  0  0  0  0  0
    3.7888   -1.6748    2.8496 C   0  0  0  0  0  0  0  0  0  0  0  0
    2.6693   -0.9794    2.3898 C   0  0  0  0  0  0  0  0  0  0  0  0
    1.9600    0.2612    3.3996 Cl  0  0  0  0  0  0  0  0  0  0  0  0
    2.1161   -1.2509    1.1384 C   0  0  0  0  0  0  0  0  0  0  0  0
    2.6704   -2.2438    0.3222 C   0  0  0  0  0  0  0  0  0  0  0  0
    2.0617   -2.5620   -1.0351 C   0  0  0  0  0  0  0  0  0  0  0  0
    1.3408   -1.4455   -1.6330 N   0  0  0  0  0  0  0  0  0  0  0  0
    2.2481   -0.4546   -2.1940 C   0  0  0  0  0  0  0  0  0  0  0  0
    0.3107   -1.8562   -2.5807 C   0  0  0  0  0  0  0  0  0  0  0  0
   -0.9495   -2.3901   -1.8990 C   0  0  0  0  0  0  0  0  0  0  0  0
   -2.0676   -2.6930   -2.8872 C   0  0  0  0  0  0  0  0  0  0  0  0
   -2.0081   -2.4819   -4.0669 O   0  0  0  0  0  0  0  0  0  0  0  0
   -3.1870   -3.2285   -2.3441 O   0  0  0  0  0  0  0  0  0  0  0  0
    4.5915   -5.8672   -0.5143 H   0  0  0  0  0  0  0  0  0  0  0  0
    2.9832   -5.4679    0.1732 H   0  0  0  0  0  0  0  0  0  0  0  0
    4.4249   -5.5607    1.2433 H   0  0  0  0  0  0  0  0  0  0  0  0
    4.2309   -1.4522    3.8203 H   0  0  0  0  0  0  0  0  0  0  0  0
    1.2552   -0.6904    0.7733 H   0  0  0  0  0  0  0  0  0  0  0  0
    1.3587   -3.4018   -0.9001 H   0  0  0  0  0  0  0  0  0  0  0  0
    2.8610   -2.9478   -1.7012 H   0  0  0  0  0  0  0  0  0  0  0  0
    2.9687   -0.1268   -1.4299 H   0  0  0  0  0  0  0  0  0  0  0  0
    1.6844    0.4305   -2.5264 H   0  0  0  0  0  0  0  0  0  0  0  0
    2.8286   -0.8404   -3.0615 H   0  0  0  0  0  0  0  0  0  0  0  0
    0.6807   -2.6060   -3.3132 H   0  0  0  0  0  0  0  0  0  0  0  0
    0.0215   -0.9800   -3.1788 H   0  0  0  0  0  0  0  0  0  0  0  0
   -1.3146   -1.6463   -1.1680 H   0  0  0  0  0  0  0  0  0  0  0  0
   -0.7423   -3.3081   -1.3205 H   0  0  0  0  0  0  0  0  0  0  0  0
   -3.0871   -3.3294   -1.3867 H   0  0  0  0  0  0  0  0  0  0  0  0
  1  2  1  0
  1 19  1  0
  1 20  1  0
  1 21  1  0
  2  3  1  0
  3  4  2  0
  3 10  1  0
  4  5  1  0
  4  6  1  0
  6  7  2  0
  6 22  1  0
  7  8  1  0
  7  9  1  0
  9 10  2  0
  9 23  1  0
 10 11  1  0
 11 12  1  0
 11 24  1  0
 11 25  1  0
 12 13  1  0
 12 14  1  0
 13 26  1  0
 13 27  1  0
 13 28  1  0
 14 15  1  0
 14 29  1  0
 14 30  1  0
 15 16  1  0
 15 31  1  0
 15 32  1  0
 16 17  2  0
 16 18  1  0
 18 33  1  0
M  END

