
     RDKit          3D

 73 72  0  0  0  0  0  0  0  0999 V2000
    0.8178    0.2981    1.0134 C   0  0  0  0  0  0  0  0  0  0  0  0
    2.3412    0.2662    0.8822 C   0  0  0  0  0  0  0  0  0  0  0  0
    2.8392   -0.5918   -0.2851 C   0  0  0  0  0  0  0  0  0  0  0  0
    4.3639   -0.6292   -0.4236 C   0  0  0  0  0  0  0  0  0  0  0  0
    4.8615   -1.4870   -1.5909 C   0  0  0  0  0  0  0  0  0  0  0  0
    6.3864   -1.5241   -1.7287 C   0  0  0  0  0  0  0  0  0  0  0  0
    6.8843   -2.3817   -2.8961 C   0  0  0  0  0  0  0  0  0  0  0  0
    8.4092   -2.4188   -3.0336 C   0  0  0  0  0  0  0  0  0  0  0  0
    8.9073   -3.2760   -4.2011 C   0  0  0  0  0  0  0  0  0  0  0  0
   10.4323   -3.3128   -4.3384 C   0  0  0  0  0  0  0  0  0  0  0  0
   10.9303   -4.1697   -5.5061 C   0  0  0  0  0  0  0  0  0  0  0  0
   12.4553   -4.2062   -5.6433 C   0  0  0  0  0  0  0  0  0  0  0  0
   12.9528   -5.0632   -6.8115 C   0  0  0  0  0  0  0  0  0  0  0  0
   14.4800   -5.0940   -6.9402 C   0  0  0  0  0  0  0  0  0  0  0  0
   15.0216   -5.9922   -8.0616 C   0  0  0  0  0  0  0  0  0  0  0  0
   14.6722   -5.5262   -9.4798 C   0  0  0  0  0  0  0  0  0  0  0  0
   15.2897   -6.4207  -10.5478 C   0  0  0  0  0  0  0  0  0  0  0  0
   15.0349   -5.9245  -11.8747 O   0  0  0  0  0  0  0  0  0  0  0  0
   13.8833   -6.2915  -12.4733 C   0  0  0  0  0  0  0  0  0  0  0  0
   13.0524   -6.9893  -11.9458 O   0  0  0  0  0  0  0  0  0  0  0  0
   13.7908   -5.6814  -13.8732 C   0  0  1  0  0  0  0  0  0  0  0  0
   13.6890   -4.5869  -13.6980 H   0  0  0  0  0  0  0  0  0  0  0  0
   15.0143   -6.0268  -14.6014 N   0  0  0  0  0  0  0  0  0  0  0  0
   12.5629   -6.1880  -14.6387 C   0  0  0  0  0  0  0  0  0  0  0  0
   11.1920   -5.6588  -14.1751 C   0  0  1  0  0  0  0  0  0  0  0  0
   11.0091   -4.1616  -14.4622 C   0  0  0  0  0  0  0  0  0  0  0  0
   10.0663   -6.4725  -14.8266 C   0  0  0  0  0  0  0  0  0  0  0  0
    0.4962    0.9234    1.8618 H   0  0  0  0  0  0  0  0  0  0  0  0
    0.4077   -0.7136    1.1719 H   0  0  0  0  0  0  0  0  0  0  0  0
    0.3453    0.7043    0.1031 H   0  0  0  0  0  0  0  0  0  0  0  0
    2.7847   -0.1090    1.8227 H   0  0  0  0  0  0  0  0  0  0  0  0
    2.7228    1.2969    0.7631 H   0  0  0  0  0  0  0  0  0  0  0  0
    2.3961   -0.2169   -1.2270 H   0  0  0  0  0  0  0  0  0  0  0  0
    2.4579   -1.6235   -0.1668 H   0  0  0  0  0  0  0  0  0  0  0  0
    4.8063   -1.0039    0.5184 H   0  0  0  0  0  0  0  0  0  0  0  0
    4.7446    0.4026   -0.5415 H   0  0  0  0  0  0  0  0  0  0  0  0
    4.4194   -1.1124   -2.5330 H   0  0  0  0  0  0  0  0  0  0  0  0
    4.4810   -2.5189   -1.4732 H   0  0  0  0  0  0  0  0  0  0  0  0
    6.8286   -1.8989   -0.7867 H   0  0  0  0  0  0  0  0  0  0  0  0
    6.7670   -0.4922   -1.8463 H   0  0  0  0  0  0  0  0  0  0  0  0
    6.4423   -2.0069   -3.8382 H   0  0  0  0  0  0  0  0  0  0  0  0
    6.5037   -3.4136   -2.7787 H   0  0  0  0  0  0  0  0  0  0  0  0
    8.8512   -2.7938   -2.0916 H   0  0  0  0  0  0  0  0  0  0  0  0
    8.7898   -1.3868   -3.1508 H   0  0  0  0  0  0  0  0  0  0  0  0
    8.4655   -2.9010   -5.1432 H   0  0  0  0  0  0  0  0  0  0  0  0
    8.5268   -4.3079   -4.0841 H   0  0  0  0  0  0  0  0  0  0  0  0
   10.8741   -3.6881   -3.3964 H   0  0  0  0  0  0  0  0  0  0  0  0
   10.8128   -2.2808   -4.4551 H   0  0  0  0  0  0  0  0  0  0  0  0
   10.4884   -3.7947   -6.4481 H   0  0  0  0  0  0  0  0  0  0  0  0
   10.5501   -5.2017   -5.3893 H   0  0  0  0  0  0  0  0  0  0  0  0
   12.8975   -4.5809   -4.7012 H   0  0  0  0  0  0  0  0  0  0  0  0
   12.8355   -3.1742   -5.7607 H   0  0  0  0  0  0  0  0  0  0  0  0
   12.5020   -4.6886   -7.7476 H   0  0  0  0  0  0  0  0  0  0  0  0
   12.5783   -6.0971   -6.6917 H   0  0  0  0  0  0  0  0  0  0  0  0
   14.9090   -5.4346   -5.9809 H   0  0  0  0  0  0  0  0  0  0  0  0
   14.8554   -4.0639   -7.0865 H   0  0  0  0  0  0  0  0  0  0  0  0
   14.6491   -7.0227   -7.9134 H   0  0  0  0  0  0  0  0  0  0  0  0
   16.1209   -6.0523   -7.9655 H   0  0  0  0  0  0  0  0  0  0  0  0
   15.0268   -4.4915   -9.6334 H   0  0  0  0  0  0  0  0  0  0  0  0
   13.5801   -5.5186   -9.6236 H   0  0  0  0  0  0  0  0  0  0  0  0
   14.9017   -7.4473  -10.4692 H   0  0  0  0  0  0  0  0  0  0  0  0
   16.3864   -6.4443  -10.4596 H   0  0  0  0  0  0  0  0  0  0  0  0
   15.8288   -5.7110  -14.0758 H   0  0  0  0  0  0  0  0  0  0  0  0
   15.0299   -5.5364  -15.4956 H   0  0  0  0  0  0  0  0  0  0  0  0
   12.5730   -7.2882  -14.5912 H   0  0  0  0  0  0  0  0  0  0  0  0
   12.7016   -5.9233  -15.7035 H   0  0  0  0  0  0  0  0  0  0  0  0
   11.1264   -5.8159  -13.0855 H   0  0  0  0  0  0  0  0  0  0  0  0
   11.0526   -3.9584  -15.5469 H   0  0  0  0  0  0  0  0  0  0  0  0
   11.7801   -3.5417  -13.9770 H   0  0  0  0  0  0  0  0  0  0  0  0
   10.0309   -3.8066  -14.0992 H   0  0  0  0  0  0  0  0  0  0  0  0
   10.0995   -6.3873  -15.9271 H   0  0  0  0  0  0  0  0  0  0  0  0
    9.0752   -6.1206  -14.4967 H   0  0  0  0  0  0  0  0  0  0  0  0
   10.1460   -7.5413  -14.5715 H   0  0  0  0  0  0  0  0  0  0  0  0
  1  2  1  0
  1 28  1  0
  1 29  1  0
  1 30  1  0
  2  3  1  0
  2 31  1  0
  2 32  1  0
  3  4  1  0
  3 33  1  0
  3 34  1  0
  4  5  1  0
  4 35  1  0
  4 36  1  0
  5  6  1  0
  5 37  1  0
  5 38  1  0
  6  7  1  0
  6 39  1  0
  6 40  1  0
  7  8  1  0
  7 41  1  0
  7 42  1  0
  8  9  1  0
  8 43  1  0
  8 44  1  0
  9 10  1  0
  9 45  1  0
  9 46  1  0
 10 11  1  0
 10 47  1  0
 10 48  1  0
 11 12  1  0
 11 49  1  0
 11 50  1  0
 12 13  1  0
 12 51  1  0
 12 52  1  0
 13 14  1  0
 13 53  1  0
 13 54  1  0
 14 15  1  0
 14 55  1  0
 14 56  1  0
 15 16  1  0
 15 57  1  0
 15 58  1  0
 16 17  1  0
 16 59  1  0
 16 60  1  0
 17 18  1  0
 17 61  1  0
 17 62  1  0
 18 19  1  0
 19 20  2  0
 19 21  1  0
 21 22  1  1
 21 23  1  0
 21 24  1  0
 23 63  1  0
 23 64  1  0
 24 25  1  0
 24 65  1  0
 24 66  1  0
 25 26  1  0
 25 27  1  0
 25 67  1  1
 26 68  1  0
 26 69  1  0
 26 70  1  0
 27 71  1  0
 27 72  1  0
 27 73  1  0
M  END

