
     RDKit          3D

 51 53  0  0  0  0  0  0  0  0999 V2000
    2.6172    1.7865    2.1968 C   0  0  0  0  0  0  0  0  0  0  0  0
    2.1022    0.5022    2.4581 O   0  0  0  0  0  0  0  0  0  0  0  0
    2.9592   -0.5478    2.5611 C   0  0  0  0  0  0  0  0  0  0  0  0
    2.3763   -1.8019    2.8195 C   0  0  0  0  0  0  0  0  0  0  0  0
    3.1719   -2.9353    2.9420 C   0  0  0  0  0  0  0  0  0  0  0  0
    4.5711   -2.8637    2.8098 C   0  0  0  0  0  0  0  0  0  0  0  0
    5.4438   -4.0900    3.0047 C   0  0  0  0  0  0  0  0  0  0  0  0
    4.9022   -5.3086    2.4104 N   0  0  0  0  0  0  0  0  0  0  0  0
    4.8261   -5.2777    0.9404 C   0  0  0  0  0  0  0  0  0  0  0  0
    6.1321   -5.2389    0.1810 C   0  0  0  0  0  0  0  0  0  0  0  0
    6.9040   -4.0928   -0.1510 C   0  0  0  0  0  0  0  0  0  0  0  0
    8.0099   -4.4069   -0.8134 N   0  0  0  0  0  0  0  0  0  0  0  0
    7.9793   -5.7469   -0.9251 N   0  0  0  0  0  0  0  0  0  0  0  0
    9.0433   -6.4334   -1.6253 C   0  0  0  0  0  0  0  0  0  0  0  0
    6.8691   -6.3002   -0.3485 C   0  0  0  0  0  0  0  0  0  0  0  0
    6.6120   -7.7733   -0.3791 C   0  0  0  0  0  0  0  0  0  0  0  0
    5.4889   -6.5276    2.9517 C   0  0  0  0  0  0  0  0  0  0  0  0
    4.9568   -6.9040    4.3367 C   0  0  1  0  0  0  0  0  0  0  0  0
    3.4550   -7.2047    4.4138 C   0  0  0  0  0  0  0  0  0  0  0  0
    3.3944   -8.2285    5.5538 C   0  0  0  0  0  0  0  0  0  0  0  0
    4.6889   -9.0187    5.3314 C   0  0  0  0  0  0  0  0  0  0  0  0
    5.6136   -8.1094    4.7455 O   0  0  0  0  0  0  0  0  0  0  0  0
    5.1357   -1.6123    2.5455 C   0  0  0  0  0  0  0  0  0  0  0  0
    4.3510   -0.4574    2.4236 C   0  0  0  0  0  0  0  0  0  0  0  0
    1.7568    2.4684    2.1575 H   0  0  0  0  0  0  0  0  0  0  0  0
    3.1502    1.8293    1.2293 H   0  0  0  0  0  0  0  0  0  0  0  0
    3.3048    2.1260    2.9930 H   0  0  0  0  0  0  0  0  0  0  0  0
    1.2900   -1.8557    2.9192 H   0  0  0  0  0  0  0  0  0  0  0  0
    2.7106   -3.9073    3.1317 H   0  0  0  0  0  0  0  0  0  0  0  0
    5.5476   -4.2697    4.0879 H   0  0  0  0  0  0  0  0  0  0  0  0
    6.4709   -3.8676    2.6425 H   0  0  0  0  0  0  0  0  0  0  0  0
    4.2301   -4.3947    0.6629 H   0  0  0  0  0  0  0  0  0  0  0  0
    4.2387   -6.1557    0.6255 H   0  0  0  0  0  0  0  0  0  0  0  0
    6.6756   -3.0484    0.0640 H   0  0  0  0  0  0  0  0  0  0  0  0
    9.7974   -5.6816   -1.8865 H   0  0  0  0  0  0  0  0  0  0  0  0
    8.6773   -6.9110   -2.5495 H   0  0  0  0  0  0  0  0  0  0  0  0
    9.5058   -7.2054   -0.9898 H   0  0  0  0  0  0  0  0  0  0  0  0
    7.3046   -8.3311    0.2749 H   0  0  0  0  0  0  0  0  0  0  0  0
    6.7171   -8.1862   -1.3963 H   0  0  0  0  0  0  0  0  0  0  0  0
    5.5912   -7.9926   -0.0380 H   0  0  0  0  0  0  0  0  0  0  0  0
    6.5984   -6.4914    3.0019 H   0  0  0  0  0  0  0  0  0  0  0  0
    5.2402   -7.3655    2.2821 H   0  0  0  0  0  0  0  0  0  0  0  0
    5.2083   -6.1078    5.0660 H   0  0  0  0  0  0  0  0  0  0  0  0
    3.1116   -7.6553    3.4666 H   0  0  0  0  0  0  0  0  0  0  0  0
    2.8488   -6.3061    4.5938 H   0  0  0  0  0  0  0  0  0  0  0  0
    2.4947   -8.8621    5.5320 H   0  0  0  0  0  0  0  0  0  0  0  0
    3.4202   -7.7156    6.5297 H   0  0  0  0  0  0  0  0  0  0  0  0
    4.5198   -9.8746    4.6481 H   0  0  0  0  0  0  0  0  0  0  0  0
    5.1157   -9.4207    6.2663 H   0  0  0  0  0  0  0  0  0  0  0  0
    6.2206   -1.5254    2.4321 H   0  0  0  0  0  0  0  0  0  0  0  0
    4.8362    0.4966    2.2161 H   0  0  0  0  0  0  0  0  0  0  0  0
  1  2  1  0
  1 25  1  0
  1 26  1  0
  1 27  1  0
  2  3  1  0
  3  4  2  0
  3 24  1  0
  4  5  1  0
  4 28  1  0
  5  6  2  0
  5 29  1  0
  6  7  1  0
  6 23  1  0
  7  8  1  0
  7 30  1  0
  7 31  1  0
  8  9  1  0
  8 17  1  0
  9 10  1  0
  9 32  1  0
  9 33  1  0
 10 11  1  0
 10 15  2  0
 11 12  2  0
 11 34  1  0
 12 13  1  0
 13 14  1  0
 13 15  1  0
 14 35  1  0
 14 36  1  0
 14 37  1  0
 15 16  1  0
 16 38  1  0
 16 39  1  0
 16 40  1  0
 17 18  1  0
 17 41  1  0
 17 42  1  0
 18 19  1  0
 18 22  1  0
 18 43  1  1
 19 20  1  0
 19 44  1  0
 19 45  1  0
 20 21  1  0
 20 46  1  0
 20 47  1  0
 21 22  1  0
 21 48  1  0
 21 49  1  0
 23 24  2  0
 23 50  1  0
 24 51  1  0
M  END

