
     RDKit          3D

 84 90  0  0  0  0  0  0  0  0999 V2000
  -14.0503   -2.9230  -15.5913 C   0  0  0  0  0  0  0  0  0  0  0  0
  -13.2375   -1.8321  -16.0008 O   0  0  0  0  0  0  0  0  0  0  0  0
  -11.8789   -1.9312  -15.7118 C   0  0  1  0  0  0  0  0  0  0  0  0
  -11.6095   -1.8511  -14.2156 C   0  0  0  0  0  0  0  0  0  0  0  0
  -12.3951   -1.0232  -13.3982 C   0  0  0  0  0  0  0  0  0  0  0  0
  -12.1360   -0.9514  -12.0339 C   0  0  0  0  0  0  0  0  0  0  0  0
  -11.1037   -1.6929  -11.4294 C   0  0  0  0  0  0  0  0  0  0  0  0
  -10.8110   -1.6415   -9.9985 C   0  0  0  0  0  0  0  0  0  0  0  0
  -11.4466   -0.8856   -9.0719 C   0  0  0  0  0  0  0  0  0  0  0  0
  -11.0917   -0.9044   -7.6906 C   0  0  0  0  0  0  0  0  0  0  0  0
  -10.8233   -0.9008   -6.5590 N   0  0  0  0  0  0  0  0  0  0  0  0
  -10.3193   -2.5364  -12.2667 C   0  0  0  0  0  0  0  0  0  0  0  0
   -9.3425   -3.2450  -11.6591 O   0  0  0  0  0  0  0  0  0  0  0  0
   -8.4982   -4.1153  -12.4222 C   0  0  0  0  0  0  0  0  0  0  0  0
   -7.4959   -4.7509  -11.4996 C   0  0  0  0  0  0  0  0  0  0  0  0
   -7.6925   -6.0419  -10.9978 C   0  0  0  0  0  0  0  0  0  0  0  0
   -6.7828   -6.6315  -10.1140 C   0  0  0  0  0  0  0  0  0  0  0  0
   -5.6419   -5.9155   -9.7234 C   0  0  0  0  0  0  0  0  0  0  0  0
   -4.6752   -6.3880   -8.8835 O   0  0  0  0  0  0  0  0  0  0  0  0
   -4.6517   -7.7288   -8.5235 C   0  0  2  0  0  0  0  0  0  0  0  0
   -4.7914   -8.3677   -9.4257 H   0  0  0  0  0  0  0  0  0  0  0  0
   -5.7010   -7.9887   -7.6185 O   0  0  0  0  0  0  0  0  0  0  0  0
   -5.8337   -9.3667   -7.3123 C   0  0  2  0  0  0  0  0  0  0  0  0
   -7.1224   -9.4909   -6.5050 C   0  0  0  0  0  0  0  0  0  0  0  0
   -8.2194   -8.9734   -7.2126 O   0  0  0  0  0  0  0  0  0  0  0  0
   -4.5781   -9.9195   -6.6232 C   0  0  2  0  0  0  0  0  0  0  0  0
   -4.6496  -11.0247   -6.6152 H   0  0  0  0  0  0  0  0  0  0  0  0
   -4.3928   -9.4396   -5.2963 O   0  0  0  0  0  0  0  0  0  0  0  0
   -3.3032   -9.5352   -7.4094 C   0  0  2  0  0  0  0  0  0  0  0  0
   -2.1631   -9.7706   -6.6135 O   0  0  0  0  0  0  0  0  0  0  0  0
   -3.2986   -8.0623   -7.8964 C   0  0  2  0  0  0  0  0  0  0  0  0
   -2.5303   -7.9722   -8.6932 H   0  0  0  0  0  0  0  0  0  0  0  0
   -3.0457   -7.1804   -6.8417 O   0  0  0  0  0  0  0  0  0  0  0  0
   -5.4366   -4.6140  -10.2097 C   0  0  0  0  0  0  0  0  0  0  0  0
   -6.3542   -4.0437  -11.0847 C   0  0  0  0  0  0  0  0  0  0  0  0
  -10.5796   -2.6069  -13.6444 C   0  0  0  0  0  0  0  0  0  0  0  0
  -11.2826   -3.1159  -16.2707 O   0  0  0  0  0  0  0  0  0  0  0  0
  -10.6141   -2.3496  -17.3293 O   0  0  0  0  0  0  0  0  0  0  0  0
  -11.0479   -1.0815  -16.7339 C   0  0  1  0  0  0  0  0  0  0  0  0
  -11.8222   -0.2463  -17.7643 C   0  0  1  0  0  0  0  0  0  0  0  0
  -12.2675    1.0918  -17.1410 C   0  0  0  0  0  0  0  0  0  0  0  0
  -11.0346    1.8876  -16.6732 C   0  0  2  0  0  0  0  0  0  0  0  0
  -10.1029    2.1568  -17.8718 C   0  0  0  0  0  0  0  0  0  0  0  0
   -9.6491    0.8184  -18.4874 C   0  0  2  0  0  0  0  0  0  0  0  0
  -10.8822    0.0250  -18.9597 C   0  0  0  0  0  0  0  0  0  0  0  0
   -8.9022   -0.0133  -17.4266 C   0  0  0  0  0  0  0  0  0  0  0  0
   -9.8337   -0.2860  -16.2246 C   0  0  1  0  0  0  0  0  0  0  0  0
  -10.2873    1.0570  -15.6137 C   0  0  0  0  0  0  0  0  0  0  0  0
  -15.0630   -2.7141  -15.9617 H   0  0  0  0  0  0  0  0  0  0  0  0
  -14.0825   -3.0256  -14.4926 H   0  0  0  0  0  0  0  0  0  0  0  0
  -13.6905   -3.8670  -16.0315 H   0  0  0  0  0  0  0  0  0  0  0  0
  -13.2118   -0.4469  -13.8351 H   0  0  0  0  0  0  0  0  0  0  0  0
  -12.7586   -0.3031  -11.4140 H   0  0  0  0  0  0  0  0  0  0  0  0
   -9.9943   -2.2854   -9.6660 H   0  0  0  0  0  0  0  0  0  0  0  0
  -12.2710   -0.2162   -9.3357 H   0  0  0  0  0  0  0  0  0  0  0  0
   -7.9901   -3.5284  -13.2078 H   0  0  0  0  0  0  0  0  0  0  0  0
   -9.1142   -4.8850  -12.9184 H   0  0  0  0  0  0  0  0  0  0  0  0
   -8.5818   -6.6064  -11.2925 H   0  0  0  0  0  0  0  0  0  0  0  0
   -6.9884   -7.6230   -9.7128 H   0  0  0  0  0  0  0  0  0  0  0  0
   -5.9662   -9.9392   -8.2563 H   0  0  0  0  0  0  0  0  0  0  0  0
   -6.9771   -8.9769   -5.5345 H   0  0  0  0  0  0  0  0  0  0  0  0
   -7.3295  -10.5551   -6.3029 H   0  0  0  0  0  0  0  0  0  0  0  0
   -8.0163   -8.0431   -7.3910 H   0  0  0  0  0  0  0  0  0  0  0  0
   -4.9469   -9.9437   -4.6883 H   0  0  0  0  0  0  0  0  0  0  0  0
   -3.2506  -10.1888   -8.2987 H   0  0  0  0  0  0  0  0  0  0  0  0
   -2.4853   -9.7249   -5.6961 H   0  0  0  0  0  0  0  0  0  0  0  0
   -2.2991   -7.5603   -6.3558 H   0  0  0  0  0  0  0  0  0  0  0  0
   -4.5435   -4.0754   -9.8874 H   0  0  0  0  0  0  0  0  0  0  0  0
   -6.1805   -3.0300  -11.4565 H   0  0  0  0  0  0  0  0  0  0  0  0
  -10.0003   -3.2600  -14.2933 H   0  0  0  0  0  0  0  0  0  0  0  0
  -12.6956   -0.8245  -18.0925 H   0  0  0  0  0  0  0  0  0  0  0  0
  -12.9537    0.9095  -16.2980 H   0  0  0  0  0  0  0  0  0  0  0  0
  -12.8352    1.6679  -17.8918 H   0  0  0  0  0  0  0  0  0  0  0  0
  -11.3573    2.8450  -16.2302 H   0  0  0  0  0  0  0  0  0  0  0  0
   -9.2258    2.7423  -17.5449 H   0  0  0  0  0  0  0  0  0  0  0  0
  -10.6266    2.7650  -18.6298 H   0  0  0  0  0  0  0  0  0  0  0  0
   -8.9805    1.0095  -19.3439 H   0  0  0  0  0  0  0  0  0  0  0  0
  -10.5744   -0.9294  -19.4165 H   0  0  0  0  0  0  0  0  0  0  0  0
  -11.4332    0.5885  -19.7320 H   0  0  0  0  0  0  0  0  0  0  0  0
   -8.0042    0.5230  -17.0756 H   0  0  0  0  0  0  0  0  0  0  0  0
   -8.5616   -0.9681  -17.8579 H   0  0  0  0  0  0  0  0  0  0  0  0
   -9.3003   -0.8870  -15.4723 H   0  0  0  0  0  0  0  0  0  0  0  0
   -9.4005    1.6034  -15.2496 H   0  0  0  0  0  0  0  0  0  0  0  0
  -10.9336    0.8884  -14.7381 H   0  0  0  0  0  0  0  0  0  0  0  0
  1  2  1  0
  1 49  1  0
  1 50  1  0
  1 51  1  0
  3  2  1  1
  3  4  1  0
  3 37  1  0
  3 39  1  0
  4  5  2  0
  4 36  1  0
  5  6  1  0
  5 52  1  0
  6  7  2  0
  6 53  1  0
  7  8  1  0
  7 12  1  0
  8  9  2  0
  8 54  1  0
  9 10  1  0
  9 55  1  0
 10 11  3  0
 12 13  1  0
 12 36  2  0
 13 14  1  0
 14 15  1  0
 14 56  1  0
 14 57  1  0
 15 16  2  0
 15 35  1  0
 16 17  1  0
 16 58  1  0
 17 18  2  0
 17 59  1  0
 18 19  1  0
 18 34  1  0
 19 20  1  0
 20 21  1  6
 20 22  1  0
 20 31  1  0
 22 23  1  0
 23 24  1  0
 23 26  1  0
 23 60  1  6
 24 25  1  0
 24 61  1  0
 24 62  1  0
 25 63  1  0
 26 27  1  1
 26 28  1  0
 26 29  1  0
 28 64  1  0
 29 30  1  0
 29 31  1  0
 29 65  1  6
 30 66  1  0
 31 32  1  6
 31 33  1  0
 33 67  1  0
 34 35  2  0
 34 68  1  0
 35 69  1  0
 36 70  1  0
 37 38  1  0
 39 38  1  6
 39 40  1  0
 39 47  1  0
 40 41  1  0
 40 45  1  0
 40 71  1  6
 41 42  1  0
 41 72  1  0
 41 73  1  0
 42 43  1  0
 42 48  1  0
 42 74  1  1
 43 44  1  0
 43 75  1  0
 43 76  1  0
 44 45  1  0
 44 46  1  0
 44 77  1  6
 45 78  1  0
 45 79  1  0
 46 47  1  0
 46 80  1  0
 46 81  1  0
 47 48  1  0
 47 82  1  1
 48 83  1  0
 48 84  1  0
M  END

