
     RDKit          3D

 50 51  0  0  0  0  0  0  0  0999 V2000
    2.0737    0.6201   -0.5808 C   0  0  0  0  0  0  0  0  0  0  0  0
    3.4604    1.1808   -0.9138 C   0  0  1  0  0  0  0  0  0  0  0  0
    4.3038    0.1909   -1.7246 C   0  0  0  0  0  0  0  0  0  0  0  0
    3.3401    2.5169   -1.6500 C   0  0  0  0  0  0  0  0  0  0  0  0
    4.1633    1.5496    0.3179 O   0  0  0  0  0  0  0  0  0  0  0  0
    4.4712    0.6352    1.2620 C   0  0  0  0  0  0  0  0  0  0  0  0
    4.2133   -0.5538    1.1998 O   0  0  0  0  0  0  0  0  0  0  0  0
    5.1203    1.2102    2.3235 N   0  0  0  0  0  0  0  0  0  0  0  0
    5.4713    2.6175    2.4578 C   0  0  0  0  0  0  0  0  0  0  0  0
    4.8905    3.1572    3.7664 C   0  0  0  0  0  0  0  0  0  0  0  0
    5.1338    2.3195    4.9228 N   0  0  0  0  0  0  0  0  0  0  0  0
    5.4330    1.0857    4.7581 C   0  0  0  0  0  0  0  0  0  0  0  0
    5.7470    0.2817    5.8298 N   0  0  0  0  0  0  0  0  0  0  0  0
    5.6341    0.7311    7.1995 C   0  0  0  0  0  0  0  0  0  0  0  0
    6.6246    0.0057    8.1536 C   0  0  1  0  0  0  0  0  0  0  0  0
    8.0706    0.3277    7.7359 C   0  0  0  0  0  0  0  0  0  0  0  0
    6.3805    0.5377    9.5819 C   0  0  0  0  0  0  0  0  0  0  0  0
    6.3838   -1.4982    8.0987 C   0  0  0  0  0  0  0  0  0  0  0  0
    7.1802   -2.4933    7.5765 C   0  0  0  0  0  0  0  0  0  0  0  0
    6.6059   -3.8002    7.6666 C   0  0  0  0  0  0  0  0  0  0  0  0
    5.3694   -3.7932    8.2552 C   0  0  0  0  0  0  0  0  0  0  0  0
    4.8939   -2.1928    8.7102 S   0  0  0  0  0  0  0  0  0  0  0  0
    5.5453    0.3642    3.4191 C   0  0  0  0  0  0  0  0  0  0  0  0
    1.5088    0.4496   -1.5108 H   0  0  0  0  0  0  0  0  0  0  0  0
    1.5085    1.3380    0.0343 H   0  0  0  0  0  0  0  0  0  0  0  0
    2.1535   -0.3283   -0.0352 H   0  0  0  0  0  0  0  0  0  0  0  0
    3.8233    0.0038   -2.6977 H   0  0  0  0  0  0  0  0  0  0  0  0
    4.4108   -0.7628   -1.1928 H   0  0  0  0  0  0  0  0  0  0  0  0
    5.3058    0.6074   -1.9137 H   0  0  0  0  0  0  0  0  0  0  0  0
    2.8214    2.3773   -2.6106 H   0  0  0  0  0  0  0  0  0  0  0  0
    4.3359    2.9409   -1.8503 H   0  0  0  0  0  0  0  0  0  0  0  0
    2.7702    3.2416   -1.0487 H   0  0  0  0  0  0  0  0  0  0  0  0
    5.0910    3.1695    1.5921 H   0  0  0  0  0  0  0  0  0  0  0  0
    6.5747    2.7170    2.4670 H   0  0  0  0  0  0  0  0  0  0  0  0
    3.7986    3.2994    3.6475 H   0  0  0  0  0  0  0  0  0  0  0  0
    5.3048    4.1631    3.9601 H   0  0  0  0  0  0  0  0  0  0  0  0
    5.7214   -0.7216    5.6819 H   0  0  0  0  0  0  0  0  0  0  0  0
    4.6027    0.5994    7.5830 H   0  0  0  0  0  0  0  0  0  0  0  0
    5.8303    1.8129    7.2032 H   0  0  0  0  0  0  0  0  0  0  0  0
    8.2477    1.4116    7.8144 H   0  0  0  0  0  0  0  0  0  0  0  0
    8.2625    0.0359    6.6935 H   0  0  0  0  0  0  0  0  0  0  0  0
    8.7974   -0.1848    8.3845 H   0  0  0  0  0  0  0  0  0  0  0  0
    6.5522    1.6254    9.6205 H   0  0  0  0  0  0  0  0  0  0  0  0
    7.0604    0.0552   10.3006 H   0  0  0  0  0  0  0  0  0  0  0  0
    5.3483    0.3494    9.9168 H   0  0  0  0  0  0  0  0  0  0  0  0
    8.1612   -2.3029    7.1412 H   0  0  0  0  0  0  0  0  0  0  0  0
    7.0975   -4.7065    7.3089 H   0  0  0  0  0  0  0  0  0  0  0  0
    4.7099   -4.6367    8.4549 H   0  0  0  0  0  0  0  0  0  0  0  0
    4.9223   -0.5425    3.4191 H   0  0  0  0  0  0  0  0  0  0  0  0
    6.5941    0.0271    3.2867 H   0  0  0  0  0  0  0  0  0  0  0  0
  1  2  1  0
  1 24  1  0
  1 25  1  0
  1 26  1  0
  2  3  1  0
  2  4  1  0
  2  5  1  1
  3 27  1  0
  3 28  1  0
  3 29  1  0
  4 30  1  0
  4 31  1  0
  4 32  1  0
  5  6  1  0
  6  7  2  0
  6  8  1  0
  8  9  1  0
  8 23  1  0
  9 10  1  0
  9 33  1  0
  9 34  1  0
 10 11  1  0
 10 35  1  0
 10 36  1  0
 11 12  2  0
 12 13  1  0
 12 23  1  0
 13 14  1  0
 13 37  1  0
 15 14  1  6
 14 38  1  0
 14 39  1  0
 15 16  1  0
 15 17  1  0
 15 18  1  0
 16 40  1  0
 16 41  1  0
 16 42  1  0
 17 43  1  0
 17 44  1  0
 17 45  1  0
 18 19  2  0
 18 22  1  0
 19 20  1  0
 19 46  1  0
 20 21  2  0
 20 47  1  0
 21 22  1  0
 21 48  1  0
 23 49  1  0
 23 50  1  0
M  END

