
     RDKit          3D

 23 23  0  0  0  0  0  0  0  0999 V2000
    2.3041   -0.0700    1.7610 C   0  0  0  0  0  0  0  0  0  0  0  0
    2.4874   -0.0700    0.2457 C   0  0  1  0  0  0  0  0  0  0  0  0
    1.2015   -0.4987   -0.5012 C   0  0  0  0  0  0  0  0  0  0  0  0
    0.3477   -1.1795   -0.0021 O   0  0  0  0  0  0  0  0  0  0  0  0
    1.1441   -0.0758   -1.7705 O   0  0  0  0  0  0  0  0  0  0  0  0
    2.9905    1.1782   -0.3422 N   0  0  0  0  0  0  0  0  0  0  0  0
    2.4564    2.4816    0.0623 C   0  0  0  0  0  0  0  0  0  0  0  0
    3.3625    3.5339   -0.5941 C   0  0  0  0  0  0  0  0  0  0  0  0
    4.7930    3.0384   -0.3959 C   0  0  0  0  0  0  0  0  0  0  0  0
    4.6800    1.2471   -0.7035 S   0  0  1  0  0  0  0  0  0  0  0  0
    5.4334    0.4653    0.2814 O   0  0  0  0  0  0  0  0  0  0  0  0
    4.8504    0.9699   -2.1303 O   0  0  0  0  0  0  0  0  0  0  0  0
    1.9699   -1.0655    2.0821 H   0  0  0  0  0  0  0  0  0  0  0  0
    1.5356    0.6481    2.0846 H   0  0  0  0  0  0  0  0  0  0  0  0
    3.2582    0.1637    2.2549 H   0  0  0  0  0  0  0  0  0  0  0  0
    3.2349   -0.8440   -0.0054 H   0  0  0  0  0  0  0  0  0  0  0  0
    1.9366    0.4769   -1.9224 H   0  0  0  0  0  0  0  0  0  0  0  0
    2.4637    2.6035    1.1614 H   0  0  0  0  0  0  0  0  0  0  0  0
    1.4134    2.5799   -0.2800 H   0  0  0  0  0  0  0  0  0  0  0  0
    3.2127    4.5256   -0.1430 H   0  0  0  0  0  0  0  0  0  0  0  0
    3.1398    3.6109   -1.6697 H   0  0  0  0  0  0  0  0  0  0  0  0
    5.1461    3.1460    0.6400 H   0  0  0  0  0  0  0  0  0  0  0  0
    5.5339    3.4438   -1.0970 H   0  0  0  0  0  0  0  0  0  0  0  0
  1  2  1  0
  1 13  1  0
  1 14  1  0
  1 15  1  0
  2  3  1  0
  2  6  1  0
  2 16  1  1
  3  4  2  0
  3  5  1  0
  5 17  1  0
  6  7  1  0
 10  6  1  1
  7  8  1  0
  7 18  1  0
  7 19  1  0
  8  9  1  0
  8 20  1  0
  8 21  1  0
  9 10  1  0
  9 22  1  0
  9 23  1  0
 10 11  2  0
 10 12  2  0
M  END

