
     RDKit          3D

 69 70  0  0  0  0  0  0  0  0999 V2000
    2.4443   -1.1329    2.5574 C   0  0  0  0  0  0  0  0  0  0  0  0
    1.1391   -0.4716    2.1117 C   0  0  0  0  0  0  0  0  0  0  0  0
    0.9505   -0.4284    0.6523 N   0  0  0  0  0  0  0  0  0  0  0  0
    0.4743   -1.5783    0.0808 C   0  0  0  0  0  0  0  0  0  0  0  0
    0.2687   -2.5785    0.7709 O   0  0  0  0  0  0  0  0  0  0  0  0
    0.1997   -1.5986   -1.4389 C   0  0  0  0  0  0  0  0  0  0  0  0
   -0.3654   -2.8553   -1.8855 N   0  0  0  0  0  0  0  0  0  0  0  0
    0.3380   -3.5230   -2.9880 C   0  0  0  0  0  0  0  0  0  0  0  0
    1.7282   -4.0831   -2.6349 C   0  0  1  0  0  0  0  0  0  0  0  0
    1.6812   -5.0861   -1.4777 C   0  0  0  0  0  0  0  0  0  0  0  0
    2.3649   -4.6957   -3.8894 C   0  0  0  0  0  0  0  0  0  0  0  0
   -1.7848   -2.9026   -1.9527 C   0  0  0  0  0  0  0  0  0  0  0  0
   -2.4919   -3.6717   -1.0332 C   0  0  0  0  0  0  0  0  0  0  0  0
   -1.8378   -4.3414   -0.0500 N   0  0  0  0  0  0  0  0  0  0  0  0
   -3.8750   -3.8070   -1.1216 N   0  0  0  0  0  0  0  0  0  0  0  0
   -4.6250   -4.6668   -0.1975 C   0  0  0  0  0  0  0  0  0  0  0  0
   -4.9730   -4.0366    1.1683 C   0  0  1  0  0  0  0  0  0  0  0  0
   -5.7640   -2.7311    1.0293 C   0  0  0  0  0  0  0  0  0  0  0  0
   -5.7316   -5.0685    2.0125 C   0  0  0  0  0  0  0  0  0  0  0  0
   -4.6193   -3.1743   -2.1353 C   0  0  0  0  0  0  0  0  0  0  0  0
   -5.8234   -3.3153   -2.2438 O   0  0  0  0  0  0  0  0  0  0  0  0
   -3.8820   -2.3813   -2.9797 N   0  0  0  0  0  0  0  0  0  0  0  0
   -4.4094   -1.9041   -3.7055 H   0  0  0  0  0  0  0  0  0  0  0  0
   -2.4851   -2.1765   -2.9829 C   0  0  0  0  0  0  0  0  0  0  0  0
   -1.9835   -1.4284   -3.8132 O   0  0  0  0  0  0  0  0  0  0  0  0
    1.1803    0.8079   -0.1245 C   0  0  1  0  0  0  0  0  0  0  0  0
    0.0294    1.8418   -0.0224 C   0  0  0  0  0  0  0  0  0  0  0  0
    0.1096    2.7979    1.1768 C   0  0  0  0  0  0  0  0  0  0  0  0
    1.4787    3.4868    1.2533 C   0  0  0  0  0  0  0  0  0  0  0  0
    2.6270    2.4691    1.2939 C   0  0  0  0  0  0  0  0  0  0  0  0
    2.5541    1.4830    0.1170 C   0  0  0  0  0  0  0  0  0  0  0  0
    2.4965   -1.1582    3.6582 H   0  0  0  0  0  0  0  0  0  0  0  0
    3.3299   -0.5910    2.1907 H   0  0  0  0  0  0  0  0  0  0  0  0
    2.4901   -2.1689    2.1925 H   0  0  0  0  0  0  0  0  0  0  0  0
    1.0770    0.5520    2.4965 H   0  0  0  0  0  0  0  0  0  0  0  0
    0.2946   -1.0333    2.5363 H   0  0  0  0  0  0  0  0  0  0  0  0
    1.1563   -1.4180   -1.9571 H   0  0  0  0  0  0  0  0  0  0  0  0
   -0.4500   -0.7506   -1.7180 H   0  0  0  0  0  0  0  0  0  0  0  0
    0.4265   -2.8504   -3.8654 H   0  0  0  0  0  0  0  0  0  0  0  0
   -0.2996   -4.3637   -3.3066 H   0  0  0  0  0  0  0  0  0  0  0  0
    2.3719   -3.2379   -2.3228 H   0  0  0  0  0  0  0  0  0  0  0  0
    1.0288   -5.9414   -1.7256 H   0  0  0  0  0  0  0  0  0  0  0  0
    1.2909   -4.6173   -0.5639 H   0  0  0  0  0  0  0  0  0  0  0  0
    2.6858   -5.4844   -1.2591 H   0  0  0  0  0  0  0  0  0  0  0  0
    1.7775   -5.5584   -4.2486 H   0  0  0  0  0  0  0  0  0  0  0  0
    3.3865   -5.0537   -3.6841 H   0  0  0  0  0  0  0  0  0  0  0  0
    2.4224   -3.9670   -4.7146 H   0  0  0  0  0  0  0  0  0  0  0  0
   -0.9094   -3.9458    0.1549 H   0  0  0  0  0  0  0  0  0  0  0  0
   -2.3622   -4.6476    0.7577 H   0  0  0  0  0  0  0  0  0  0  0  0
   -4.0540   -5.5978   -0.0546 H   0  0  0  0  0  0  0  0  0  0  0  0
   -5.5554   -4.9278   -0.7184 H   0  0  0  0  0  0  0  0  0  0  0  0
   -4.0295   -3.7984    1.6960 H   0  0  0  0  0  0  0  0  0  0  0  0
   -6.7037   -2.8929    0.4783 H   0  0  0  0  0  0  0  0  0  0  0  0
   -5.1909   -1.9643    0.4860 H   0  0  0  0  0  0  0  0  0  0  0  0
   -6.0088   -2.3207    2.0221 H   0  0  0  0  0  0  0  0  0  0  0  0
   -6.6932   -5.3318    1.5402 H   0  0  0  0  0  0  0  0  0  0  0  0
   -5.9510   -4.6731    3.0165 H   0  0  0  0  0  0  0  0  0  0  0  0
   -5.1556   -6.0004    2.1382 H   0  0  0  0  0  0  0  0  0  0  0  0
    1.2038    0.4829   -1.1687 H   0  0  0  0  0  0  0  0  0  0  0  0
   -0.9362    1.3114   -0.0403 H   0  0  0  0  0  0  0  0  0  0  0  0
    0.0629    2.4501   -0.9442 H   0  0  0  0  0  0  0  0  0  0  0  0
   -0.0900    2.2571    2.1180 H   0  0  0  0  0  0  0  0  0  0  0  0
   -0.6899    3.5527    1.0918 H   0  0  0  0  0  0  0  0  0  0  0  0
    1.5266    4.1518    2.1315 H   0  0  0  0  0  0  0  0  0  0  0  0
    1.6027    4.1363    0.3667 H   0  0  0  0  0  0  0  0  0  0  0  0
    2.6127    1.9330    2.2573 H   0  0  0  0  0  0  0  0  0  0  0  0
    3.5970    2.9929    1.2607 H   0  0  0  0  0  0  0  0  0  0  0  0
    3.3358    0.7109    0.1950 H   0  0  0  0  0  0  0  0  0  0  0  0
    2.7800    2.0500   -0.8035 H   0  0  0  0  0  0  0  0  0  0  0  0
  1  2  1  0
  1 32  1  0
  1 33  1  0
  1 34  1  0
  2  3  1  0
  2 35  1  0
  2 36  1  0
  3  4  1  0
  3 26  1  0
  4  5  2  0
  4  6  1  0
  6  7  1  0
  6 37  1  0
  6 38  1  0
  7  8  1  0
  7 12  1  0
  8  9  1  0
  8 39  1  0
  8 40  1  0
  9 10  1  0
  9 11  1  0
  9 41  1  1
 10 42  1  0
 10 43  1  0
 10 44  1  0
 11 45  1  0
 11 46  1  0
 11 47  1  0
 12 13  2  0
 12 24  1  0
 13 14  1  0
 13 15  1  0
 14 48  1  0
 14 49  1  0
 15 16  1  0
 15 20  1  0
 16 17  1  0
 16 50  1  0
 16 51  1  0
 17 18  1  0
 17 19  1  0
 17 52  1  1
 18 53  1  0
 18 54  1  0
 18 55  1  0
 19 56  1  0
 19 57  1  0
 19 58  1  0
 20 21  2  0
 20 22  1  0
 22 23  1  0
 22 24  1  0
 24 25  2  0
 26 27  1  0
 26 31  1  0
 26 59  1  6
 27 28  1  0
 27 60  1  0
 27 61  1  0
 28 29  1  0
 28 62  1  0
 28 63  1  0
 29 30  1  0
 29 64  1  0
 29 65  1  0
 30 31  1  0
 30 66  1  0
 30 67  1  0
 31 68  1  0
 31 69  1  0
M  END

