
     RDKit          3D

 43 44  0  0  0  0  0  0  0  0999 V2000
    7.7244    6.0024    5.7717 C   0  0  0  0  0  0  0  0  0  0  0  0
    8.2626    5.0190    4.9205 O   0  0  0  0  0  0  0  0  0  0  0  0
    7.5735    3.8640    4.7216 C   0  0  0  0  0  0  0  0  0  0  0  0
    8.1633    2.9270    3.8563 C   0  0  0  0  0  0  0  0  0  0  0  0
    7.5347    1.7149    3.5868 C   0  0  0  0  0  0  0  0  0  0  0  0
    6.2957    1.3886    4.1758 C   0  0  0  0  0  0  0  0  0  0  0  0
    5.5897    0.0751    3.8918 C   0  0  0  0  0  0  0  0  0  0  0  0
    6.0521   -1.1859    4.6887 C   0  0  1  0  0  0  0  0  0  0  0  0
    6.2149   -0.8225    6.1842 C   0  0  0  0  0  0  0  0  0  0  0  0
    6.5849   -1.9089    7.0129 O   0  0  0  0  0  0  0  0  0  0  0  0
    4.9928   -2.3084    4.5457 C   0  0  0  0  0  0  0  0  0  0  0  0
    4.9455   -2.9365    3.1483 C   0  0  0  0  0  0  0  0  0  0  0  0
    6.3404   -3.4025    2.7166 C   0  0  0  0  0  0  0  0  0  0  0  0
    7.3019   -2.3144    2.8302 N   0  0  0  0  0  0  0  0  0  0  0  0
    8.1002   -1.8458    1.8141 C   0  0  0  0  0  0  0  0  0  0  0  0
    7.9960   -2.5292    0.4556 C   0  0  0  0  0  0  0  0  0  0  0  0
    8.8739   -0.9105    1.9751 O   0  0  0  0  0  0  0  0  0  0  0  0
    7.4035   -1.7341    4.1696 C   0  0  0  0  0  0  0  0  0  0  0  0
    5.7175    2.3395    5.0270 C   0  0  0  0  0  0  0  0  0  0  0  0
    6.3359    3.5641    5.3079 C   0  0  0  0  0  0  0  0  0  0  0  0
    8.4415    6.8346    5.7844 H   0  0  0  0  0  0  0  0  0  0  0  0
    7.5935    5.6296    6.8043 H   0  0  0  0  0  0  0  0  0  0  0  0
    6.7503    6.3776    5.4072 H   0  0  0  0  0  0  0  0  0  0  0  0
    9.1225    3.1766    3.3978 H   0  0  0  0  0  0  0  0  0  0  0  0
    8.0196    1.0108    2.9051 H   0  0  0  0  0  0  0  0  0  0  0  0
    5.6742   -0.1509    2.8169 H   0  0  0  0  0  0  0  0  0  0  0  0
    4.5134    0.2157    4.0892 H   0  0  0  0  0  0  0  0  0  0  0  0
    5.2817   -0.3445    6.5435 H   0  0  0  0  0  0  0  0  0  0  0  0
    7.0141   -0.0741    6.2884 H   0  0  0  0  0  0  0  0  0  0  0  0
    5.8088   -2.4607    7.1670 H   0  0  0  0  0  0  0  0  0  0  0  0
    3.9970   -1.9249    4.8291 H   0  0  0  0  0  0  0  0  0  0  0  0
    5.2422   -3.1099    5.2642 H   0  0  0  0  0  0  0  0  0  0  0  0
    4.5604   -2.2128    2.4103 H   0  0  0  0  0  0  0  0  0  0  0  0
    4.2536   -3.7956    3.1411 H   0  0  0  0  0  0  0  0  0  0  0  0
    6.3185   -3.7858    1.6904 H   0  0  0  0  0  0  0  0  0  0  0  0
    6.6628   -4.2400    3.3673 H   0  0  0  0  0  0  0  0  0  0  0  0
    6.9881   -2.4320    0.0216 H   0  0  0  0  0  0  0  0  0  0  0  0
    8.2367   -3.6024    0.5130 H   0  0  0  0  0  0  0  0  0  0  0  0
    8.7158   -2.0369   -0.2088 H   0  0  0  0  0  0  0  0  0  0  0  0
    8.1686   -0.9503    4.1375 H   0  0  0  0  0  0  0  0  0  0  0  0
    7.7466   -2.5118    4.8746 H   0  0  0  0  0  0  0  0  0  0  0  0
    4.7466    2.1302    5.4868 H   0  0  0  0  0  0  0  0  0  0  0  0
    5.8412    4.2702    5.9753 H   0  0  0  0  0  0  0  0  0  0  0  0
  1  2  1  0
  1 21  1  0
  1 22  1  0
  1 23  1  0
  2  3  1  0
  3  4  2  0
  3 20  1  0
  4  5  1  0
  4 24  1  0
  5  6  2  0
  5 25  1  0
  6  7  1  0
  6 19  1  0
  8  7  1  6
  7 26  1  0
  7 27  1  0
  8  9  1  0
  8 11  1  0
  8 18  1  0
  9 10  1  0
  9 28  1  0
  9 29  1  0
 10 30  1  0
 11 12  1  0
 11 31  1  0
 11 32  1  0
 12 13  1  0
 12 33  1  0
 12 34  1  0
 13 14  1  0
 13 35  1  0
 13 36  1  0
 14 15  1  0
 14 18  1  0
 15 16  1  0
 15 17  2  0
 16 37  1  0
 16 38  1  0
 16 39  1  0
 18 40  1  0
 18 41  1  0
 19 20  2  0
 19 42  1  0
 20 43  1  0
M  END

