
     RDKit          3D

 30 31  0  0  0  0  0  0  0  0999 V2000
    4.7279    2.3749   -0.6101 O   0  0  0  0  0  0  0  0  0  0  0  0
    4.3080    1.2890   -0.3001 C   0  0  0  0  0  0  0  0  0  0  0  0
    3.1445    1.1718    0.3782 O   0  0  0  0  0  0  0  0  0  0  0  0
    5.0387    0.0374   -0.6497 C   0  0  0  0  0  0  0  0  0  0  0  0
    4.5352   -1.2095   -0.5564 C   0  0  0  0  0  0  0  0  0  0  0  0
    5.2291   -2.4390   -0.9376 C   0  0  0  0  0  0  0  0  0  0  0  0
    6.5159   -2.4792   -1.5734 C   0  0  0  0  0  0  0  0  0  0  0  0
    6.9543   -3.7460   -1.8402 C   0  0  0  0  0  0  0  0  0  0  0  0
    5.8164   -4.9388   -1.3337 S   0  0  0  0  0  0  0  0  0  0  0  0
    4.7210   -3.7234   -0.7231 C   0  0  0  0  0  0  0  0  0  0  0  0
    3.4286   -4.0814   -0.0697 C   0  0  0  0  0  0  0  0  0  0  0  0
    2.5316   -3.2637    0.0831 O   0  0  0  0  0  0  0  0  0  0  0  0
    3.3339   -5.3909    0.3521 N   0  0  0  0  0  0  0  0  0  0  0  0
    2.2408   -6.0476    0.9460 C   0  0  0  0  0  0  0  0  0  0  0  0
    0.9924   -5.4413    1.1770 C   0  0  0  0  0  0  0  0  0  0  0  0
   -0.0353   -6.1799    1.7651 C   0  0  0  0  0  0  0  0  0  0  0  0
    0.1464   -7.5144    2.1343 C   0  0  0  0  0  0  0  0  0  0  0  0
   -1.1305   -8.4373    2.8683 Cl  0  0  0  0  0  0  0  0  0  0  0  0
    1.3928   -8.1081    1.9017 C   0  0  0  0  0  0  0  0  0  0  0  0
    1.6000   -9.3807    2.2423 F   0  0  0  0  0  0  0  0  0  0  0  0
    2.4287   -7.3917    1.3164 C   0  0  0  0  0  0  0  0  0  0  0  0
    2.9775    0.2516    0.6270 H   0  0  0  0  0  0  0  0  0  0  0  0
    6.0359    0.2350   -1.0491 H   0  0  0  0  0  0  0  0  0  0  0  0
    3.5197   -1.3780   -0.1897 H   0  0  0  0  0  0  0  0  0  0  0  0
    7.0880   -1.5896   -1.8357 H   0  0  0  0  0  0  0  0  0  0  0  0
    7.8783   -4.0473   -2.3319 H   0  0  0  0  0  0  0  0  0  0  0  0
    4.1716   -5.9567    0.2742 H   0  0  0  0  0  0  0  0  0  0  0  0
    0.8387   -4.4021    0.9007 H   0  0  0  0  0  0  0  0  0  0  0  0
   -1.0052   -5.7130    1.9458 H   0  0  0  0  0  0  0  0  0  0  0  0
    3.3802   -7.9041    1.1548 H   0  0  0  0  0  0  0  0  0  0  0  0
  1  2  2  0
  2  3  1  0
  2  4  1  0
  3 22  1  0
  4  5  2  0
  4 23  1  0
  5  6  1  0
  5 24  1  0
  6  7  2  0
  6 10  1  0
  7  8  1  0
  7 25  1  0
  8  9  2  0
  8 26  1  0
  9 10  1  0
 10 11  2  0
 11 12  1  0
 11 13  1  0
 13 14  1  0
 13 27  1  0
 14 15  2  0
 14 21  1  0
 15 16  1  0
 15 28  1  0
 16 17  2  0
 16 29  1  0
 17 18  1  0
 17 19  1  0
 19 20  1  0
 19 21  2  0
 21 30  1  0
M  CHG  2   9   1  12  -1
M  END

