
     RDKit          3D

 29 29  0  0  0  0  0  0  0  0999 V2000
    5.0176   -1.5393   -1.0837 N   0  0  0  0  0  0  0  0  0  0  0  0
    4.1006   -1.5569   -0.2118 C   0  0  0  0  0  0  0  0  0  0  0  0
    2.6506   -1.1640   -0.3733 C   0  0  0  0  0  0  0  0  0  0  0  0
    1.6826   -2.2968   -0.0608 C   0  0  0  0  0  0  0  0  0  0  0  0
    0.3389   -1.9068    0.5469 C   0  0  0  0  0  0  0  0  0  0  0  0
    0.4768   -0.8210    1.5085 N   0  0  0  0  0  0  0  0  0  0  0  0
    2.0648   -3.4828   -0.3252 N   0  0  0  0  0  0  0  0  0  0  0  0
    1.3086   -4.6448   -0.1355 C   0  0  0  0  0  0  0  0  0  0  0  0
    1.7930   -5.6270    0.7502 C   0  0  0  0  0  0  0  0  0  0  0  0
    1.0941   -6.8213    0.9164 C   0  0  0  0  0  0  0  0  0  0  0  0
   -0.0737   -7.0824    0.1909 C   0  0  0  0  0  0  0  0  0  0  0  0
   -0.5323   -6.1136   -0.7043 C   0  0  0  0  0  0  0  0  0  0  0  0
   -1.9854   -6.4162   -1.6350 Cl  0  0  0  0  0  0  0  0  0  0  0  0
    0.1385   -4.9000   -0.8737 C   0  0  0  0  0  0  0  0  0  0  0  0
    4.5444   -1.9934    1.1955 C   0  0  1  0  0  0  0  0  0  0  0  0
    3.5669   -1.7692    2.1071 F   0  0  0  0  0  0  0  0  0  0  0  0
    4.8373   -3.2981    1.2441 F   0  0  0  0  0  0  0  0  0  0  0  0
    5.6213   -1.3154    1.5990 F   0  0  0  0  0  0  0  0  0  0  0  0
    4.6506   -1.2486   -1.9968 H   0  0  0  0  0  0  0  0  0  0  0  0
    2.4889   -0.8390   -1.4158 H   0  0  0  0  0  0  0  0  0  0  0  0
    2.4056   -0.3105    0.2780 H   0  0  0  0  0  0  0  0  0  0  0  0
   -0.1433   -2.8222    0.9388 H   0  0  0  0  0  0  0  0  0  0  0  0
   -0.3044   -1.5491   -0.2787 H   0  0  0  0  0  0  0  0  0  0  0  0
    0.9464   -1.1447    2.3544 H   0  0  0  0  0  0  0  0  0  0  0  0
   -0.4367   -0.4674    1.7873 H   0  0  0  0  0  0  0  0  0  0  0  0
    2.7191   -5.4300    1.2929 H   0  0  0  0  0  0  0  0  0  0  0  0
    1.4700   -7.5733    1.6149 H   0  0  0  0  0  0  0  0  0  0  0  0
   -0.6160   -8.0216    0.3063 H   0  0  0  0  0  0  0  0  0  0  0  0
   -0.2348   -4.1661   -1.5890 H   0  0  0  0  0  0  0  0  0  0  0  0
  1  2  2  0
  1 19  1  0
  2  3  1  0
  2 15  1  0
  3  4  1  0
  3 20  1  0
  3 21  1  0
  4  5  1  0
  4  7  2  0
  5  6  1  0
  5 22  1  0
  5 23  1  0
  6 24  1  0
  6 25  1  0
  7  8  1  0
  8  9  2  0
  8 14  1  0
  9 10  1  0
  9 26  1  0
 10 11  2  0
 10 27  1  0
 11 12  1  0
 11 28  1  0
 12 13  1  0
 12 14  2  0
 14 29  1  0
 15 16  1  1
 15 17  1  0
 15 18  1  0
M  END

