
     RDKit          3D

 69 74  0  0  0  0  0  0  0  0999 V2000
    2.1537   -1.0043    1.4114 C   0  0  0  0  0  0  0  0  0  0  0  0
    3.3961   -0.3316    1.1038 N   0  0  0  0  0  0  0  0  0  0  0  0
    3.4403    1.0116    0.7957 C   0  0  0  0  0  0  0  0  0  0  0  0
    2.4460    1.7166    0.7651 O   0  0  0  0  0  0  0  0  0  0  0  0
    4.7272    1.4668    0.5281 N   0  0  0  0  0  0  0  0  0  0  0  0
    5.1446    2.7608    0.1814 C   0  0  0  0  0  0  0  0  0  0  0  0
    4.2722    3.8567    0.0429 C   0  0  0  0  0  0  0  0  0  0  0  0
    4.7831    5.1058   -0.3051 C   0  0  0  0  0  0  0  0  0  0  0  0
    6.1541    5.3144   -0.5259 C   0  0  0  0  0  0  0  0  0  0  0  0
    6.6943    6.6487   -0.8971 C   0  0  0  0  0  0  0  0  0  0  0  0
    5.8162    7.6611   -1.0093 N   0  0  0  0  0  0  0  0  0  0  0  0
    6.2196    8.8953   -1.3286 C   0  0  0  0  0  0  0  0  0  0  0  0
    5.2487    9.8706   -1.3860 N   0  0  0  0  0  0  0  0  0  0  0  0
    3.8313    9.4928   -1.4193 C   0  0  0  0  0  0  0  0  0  0  0  0
    2.9826   10.5499   -0.7119 C   0  0  1  0  0  0  0  0  0  0  0  0
    3.4383   10.8050    0.7435 C   0  0  0  0  0  0  0  0  0  0  0  0
    4.4914   11.9308    0.5782 C   0  0  0  0  0  0  0  0  0  0  0  0
    4.4980   12.1682   -0.9502 C   0  0  1  0  0  0  0  0  0  0  0  0
    5.5138   11.2750   -1.6796 C   0  0  0  0  0  0  0  0  0  0  0  0
    3.1830   11.8087   -1.3614 O   0  0  0  0  0  0  0  0  0  0  0  0
    7.6117    9.0942   -1.5765 C   0  0  0  0  0  0  0  0  0  0  0  0
    8.5477   10.4879   -2.1073 S   0  0  0  0  0  0  0  0  0  0  0  0
   10.0355    9.5607   -2.1026 C   0  0  0  0  0  0  0  0  0  0  0  0
   11.3366   10.2500   -2.4420 C   0  0  0  0  0  0  0  0  0  0  0  0
   12.3219    9.3258   -2.9762 N   0  0  0  0  0  0  0  0  0  0  0  0
   12.0969    8.9130   -4.3663 C   0  0  0  0  0  0  0  0  0  0  0  0
   12.6299    9.9442   -5.3792 C   0  0  0  0  0  0  0  0  0  0  0  0
   14.0303   10.3005   -5.1558 N   0  0  0  0  0  0  0  0  0  0  0  0
   14.9992    9.3585   -5.6837 C   0  0  0  0  0  0  0  0  0  0  0  0
   14.2511   10.7096   -3.7705 C   0  0  0  0  0  0  0  0  0  0  0  0
   13.7238    9.6818   -2.7513 C   0  0  0  0  0  0  0  0  0  0  0  0
    9.8345    8.2640   -1.7359 C   0  0  0  0  0  0  0  0  0  0  0  0
    8.4573    7.9637   -1.4403 C   0  0  0  0  0  0  0  0  0  0  0  0
    8.0078    6.7468   -1.0923 N   0  0  0  0  0  0  0  0  0  0  0  0
    7.0167    4.2129   -0.3854 C   0  0  0  0  0  0  0  0  0  0  0  0
    6.5226    2.9616   -0.0387 C   0  0  0  0  0  0  0  0  0  0  0  0
    2.1614   -1.4353    2.4277 H   0  0  0  0  0  0  0  0  0  0  0  0
    1.9345   -1.8121    0.6914 H   0  0  0  0  0  0  0  0  0  0  0  0
    1.3506   -0.2582    1.3542 H   0  0  0  0  0  0  0  0  0  0  0  0
    4.2493   -0.8757    1.1095 H   0  0  0  0  0  0  0  0  0  0  0  0
    5.4774    0.7890    0.5874 H   0  0  0  0  0  0  0  0  0  0  0  0
    3.2078    3.7124    0.2104 H   0  0  0  0  0  0  0  0  0  0  0  0
    4.1022    5.9509   -0.4108 H   0  0  0  0  0  0  0  0  0  0  0  0
    3.7253    8.5111   -0.9464 H   0  0  0  0  0  0  0  0  0  0  0  0
    3.4872    9.4077   -2.4684 H   0  0  0  0  0  0  0  0  0  0  0  0
    1.9177   10.2898   -0.8028 H   0  0  0  0  0  0  0  0  0  0  0  0
    3.8519    9.8990    1.2097 H   0  0  0  0  0  0  0  0  0  0  0  0
    2.5878   11.1411    1.3539 H   0  0  0  0  0  0  0  0  0  0  0  0
    5.4833   11.6476    0.9601 H   0  0  0  0  0  0  0  0  0  0  0  0
    4.1806   12.8482    1.0988 H   0  0  0  0  0  0  0  0  0  0  0  0
    4.6688   13.2174   -1.2339 H   0  0  0  0  0  0  0  0  0  0  0  0
    6.5198   11.5468   -1.3381 H   0  0  0  0  0  0  0  0  0  0  0  0
    5.4475   11.4793   -2.7660 H   0  0  0  0  0  0  0  0  0  0  0  0
   11.7485   10.6832   -1.5133 H   0  0  0  0  0  0  0  0  0  0  0  0
   11.1170   11.1206   -3.0991 H   0  0  0  0  0  0  0  0  0  0  0  0
   11.0212    8.7322   -4.5199 H   0  0  0  0  0  0  0  0  0  0  0  0
   12.6036    7.9435   -4.5219 H   0  0  0  0  0  0  0  0  0  0  0  0
   12.0258   10.8685   -5.3124 H   0  0  0  0  0  0  0  0  0  0  0  0
   12.5115    9.5669   -6.4087 H   0  0  0  0  0  0  0  0  0  0  0  0
   14.8183    9.2091   -6.7609 H   0  0  0  0  0  0  0  0  0  0  0  0
   15.0047    8.3514   -5.2101 H   0  0  0  0  0  0  0  0  0  0  0  0
   16.0146    9.7740   -5.5751 H   0  0  0  0  0  0  0  0  0  0  0  0
   13.7381   11.6769   -3.6090 H   0  0  0  0  0  0  0  0  0  0  0  0
   15.3275   10.8921   -3.6133 H   0  0  0  0  0  0  0  0  0  0  0  0
   13.8426   10.0572   -1.7213 H   0  0  0  0  0  0  0  0  0  0  0  0
   14.3235    8.7557   -2.8207 H   0  0  0  0  0  0  0  0  0  0  0  0
   10.6301    7.5225   -1.6833 H   0  0  0  0  0  0  0  0  0  0  0  0
    8.0838    4.3622   -0.5548 H   0  0  0  0  0  0  0  0  0  0  0  0
    7.2140    2.1188    0.0651 H   0  0  0  0  0  0  0  0  0  0  0  0
  1  2  1  0
  1 37  1  0
  1 38  1  0
  1 39  1  0
  2  3  1  0
  2 40  1  0
  3  4  2  0
  3  5  1  0
  5  6  1  0
  5 41  1  0
  6  7  2  0
  6 36  1  0
  7  8  1  0
  7 42  1  0
  8  9  2  0
  8 43  1  0
  9 10  1  0
  9 35  1  0
 10 11  2  0
 10 34  1  0
 11 12  1  0
 12 13  1  0
 12 21  2  0
 13 14  1  0
 13 19  1  0
 14 15  1  0
 14 44  1  0
 14 45  1  0
 15 16  1  0
 15 20  1  0
 15 46  1  1
 16 17  1  0
 16 47  1  0
 16 48  1  0
 17 18  1  0
 17 49  1  0
 17 50  1  0
 18 19  1  0
 18 20  1  0
 18 51  1  1
 19 52  1  0
 19 53  1  0
 21 22  1  0
 21 33  1  0
 22 23  1  0
 23 24  1  0
 23 32  2  0
 24 25  1  0
 24 54  1  0
 24 55  1  0
 25 26  1  0
 25 31  1  0
 26 27  1  0
 26 56  1  0
 26 57  1  0
 27 28  1  0
 27 58  1  0
 27 59  1  0
 28 29  1  0
 28 30  1  0
 29 60  1  0
 29 61  1  0
 29 62  1  0
 30 31  1  0
 30 63  1  0
 30 64  1  0
 31 65  1  0
 31 66  1  0
 32 33  1  0
 32 67  1  0
 33 34  2  0
 35 36  2  0
 35 68  1  0
 36 69  1  0
M  END

