
     RDKit          3D

 90 93  0  0  0  0  0  0  0  0999 V2000
    0.5710    0.8660    0.2424 N   0  0  0  0  0  0  0  0  0  0  0  0
    1.9470    0.8027    0.2087 C   0  0  0  0  0  0  0  0  0  0  0  0
    2.7388    1.9656    0.0555 C   0  0  0  0  0  0  0  0  0  0  0  0
    1.8786    3.6782   -0.0372 Br  0  0  0  0  0  0  0  0  0  0  0  0
    4.1236    1.9095   -0.0188 C   0  0  0  0  0  0  0  0  0  0  0  0
    4.7772    0.6725    0.0633 C   0  0  0  0  0  0  0  0  0  0  0  0
    6.2609    0.6609   -0.0164 C   0  0  0  0  0  0  0  0  0  0  0  0
    6.9480    1.6496   -0.1536 O   0  0  0  0  0  0  0  0  0  0  0  0
    6.7716   -0.5873    0.0786 O   0  0  0  0  0  0  0  0  0  0  0  0
    8.1984   -0.7238    0.0058 C   0  0  0  0  0  0  0  0  0  0  0  0
    8.8467   -0.5547    1.3774 C   0  0  0  0  0  0  0  0  0  0  0  0
   10.3495   -0.8656    1.3938 C   0  0  0  0  0  0  0  0  0  0  0  0
   11.2093    0.0899    0.5566 C   0  0  0  0  0  0  0  0  0  0  0  0
   12.6963   -0.2118    0.6970 C   0  0  0  0  0  0  0  0  0  0  0  0
   13.5057    0.7330   -0.0304 O   0  0  0  0  0  0  0  0  0  0  0  0
   13.7275    0.4937   -1.3287 C   0  0  0  0  0  0  0  0  0  0  0  0
   13.2857   -0.4732   -1.9147 O   0  0  0  0  0  0  0  0  0  0  0  0
   14.5866    1.5642   -1.9767 C   0  0  0  0  0  0  0  0  0  0  0  0
   15.8571    1.0208   -2.6014 C   0  0  0  0  0  0  0  0  0  0  0  0
   17.0902    1.2099   -1.9645 C   0  0  0  0  0  0  0  0  0  0  0  0
   18.2861    0.7831   -2.5457 C   0  0  0  0  0  0  0  0  0  0  0  0
   18.2498    0.1484   -3.7900 C   0  0  0  0  0  0  0  0  0  0  0  0
   17.0318   -0.0679   -4.4331 C   0  0  0  0  0  0  0  0  0  0  0  0
   15.8251    0.3560   -3.8510 C   0  0  0  0  0  0  0  0  0  0  0  0
   14.5767    0.1222   -4.4651 N   0  0  0  0  0  0  0  0  0  0  0  0
   14.3889   -0.1420   -5.8181 C   0  0  0  0  0  0  0  0  0  0  0  0
   13.6777   -1.2888   -6.2512 C   0  0  0  0  0  0  0  0  0  0  0  0
   13.0791   -2.4138   -5.0496 Cl  0  0  0  0  0  0  0  0  0  0  0  0
   13.4318   -1.5558   -7.5980 C   0  0  0  0  0  0  0  0  0  0  0  0
   13.9114   -0.6822   -8.5743 C   0  0  0  0  0  0  0  0  0  0  0  0
   14.6069    0.4661   -8.1937 C   0  0  0  0  0  0  0  0  0  0  0  0
   14.8230    0.7373   -6.8417 C   0  0  0  0  0  0  0  0  0  0  0  0
   15.5993    2.2458   -6.4197 Cl  0  0  0  0  0  0  0  0  0  0  0  0
    4.0069   -0.4931    0.2120 C   0  0  0  0  0  0  0  0  0  0  0  0
    2.6166   -0.4529    0.2809 C   0  0  0  0  0  0  0  0  0  0  0  0
    1.7984   -1.7351    0.3637 C   0  0  0  0  0  0  0  0  0  0  0  0
    1.0843   -2.1269   -0.8473 N   0  0  0  0  0  0  0  0  0  0  0  0
    1.9219   -2.5159   -1.9741 C   0  0  0  0  0  0  0  0  0  0  0  0
    1.0726   -2.9600   -3.1652 C   0  0  0  0  0  0  0  0  0  0  0  0
    1.9084   -3.4189   -4.3640 C   0  0  0  0  0  0  0  0  0  0  0  0
    1.0949   -3.9765   -5.5509 C   0  0  1  0  0  0  0  0  0  0  0  0
    0.1777   -2.9350   -6.2311 C   0  0  0  0  0  0  0  0  0  0  0  0
    0.9518   -1.9021   -7.0637 C   0  0  0  0  0  0  0  0  0  0  0  0
    1.8522   -2.5813   -8.1046 C   0  0  0  0  0  0  0  0  0  0  0  0
    2.7864   -3.6111   -7.4551 C   0  0  0  0  0  0  0  0  0  0  0  0
    2.0017   -4.6315   -6.6166 C   0  0  0  0  0  0  0  0  0  0  0  0
    0.1660    1.7879    0.3668 H   0  0  0  0  0  0  0  0  0  0  0  0
    0.0834    0.1240    0.7304 H   0  0  0  0  0  0  0  0  0  0  0  0
    4.7176    2.8166   -0.1349 H   0  0  0  0  0  0  0  0  0  0  0  0
    8.5889    0.0097   -0.7140 H   0  0  0  0  0  0  0  0  0  0  0  0
    8.3695   -1.7386   -0.3852 H   0  0  0  0  0  0  0  0  0  0  0  0
    8.3289   -1.2229    2.0859 H   0  0  0  0  0  0  0  0  0  0  0  0
    8.6739    0.4776    1.7244 H   0  0  0  0  0  0  0  0  0  0  0  0
   10.5143   -1.9040    1.0505 H   0  0  0  0  0  0  0  0  0  0  0  0
   10.6959   -0.8381    2.4420 H   0  0  0  0  0  0  0  0  0  0  0  0
   11.0234    1.1329    0.8662 H   0  0  0  0  0  0  0  0  0  0  0  0
   10.9398    0.0174   -0.5092 H   0  0  0  0  0  0  0  0  0  0  0  0
   12.9260   -1.2274    0.3414 H   0  0  0  0  0  0  0  0  0  0  0  0
   13.0238   -0.1133    1.7425 H   0  0  0  0  0  0  0  0  0  0  0  0
   14.8209    2.3339   -1.2307 H   0  0  0  0  0  0  0  0  0  0  0  0
   13.9676    2.0209   -2.7688 H   0  0  0  0  0  0  0  0  0  0  0  0
   17.1106    1.7243   -0.9993 H   0  0  0  0  0  0  0  0  0  0  0  0
   19.2367    0.9512   -2.0344 H   0  0  0  0  0  0  0  0  0  0  0  0
   19.1751   -0.1927   -4.2616 H   0  0  0  0  0  0  0  0  0  0  0  0
   17.0069   -0.5833   -5.3951 H   0  0  0  0  0  0  0  0  0  0  0  0
   13.8985   -0.3143   -3.8356 H   0  0  0  0  0  0  0  0  0  0  0  0
   12.8772   -2.4558   -7.8672 H   0  0  0  0  0  0  0  0  0  0  0  0
   13.7335   -0.8901   -9.6315 H   0  0  0  0  0  0  0  0  0  0  0  0
   14.9683    1.1784   -8.9368 H   0  0  0  0  0  0  0  0  0  0  0  0
    4.5155   -1.4568    0.2718 H   0  0  0  0  0  0  0  0  0  0  0  0
    1.0618   -1.6604    1.1864 H   0  0  0  0  0  0  0  0  0  0  0  0
    2.4696   -2.5619    0.6473 H   0  0  0  0  0  0  0  0  0  0  0  0
    0.4497   -1.3817   -1.1346 H   0  0  0  0  0  0  0  0  0  0  0  0
    2.5610   -3.3571   -1.6468 H   0  0  0  0  0  0  0  0  0  0  0  0
    2.6205   -1.7145   -2.3024 H   0  0  0  0  0  0  0  0  0  0  0  0
    0.4165   -2.1211   -3.4605 H   0  0  0  0  0  0  0  0  0  0  0  0
    0.4011   -3.7714   -2.8339 H   0  0  0  0  0  0  0  0  0  0  0  0
    2.6009   -4.2114   -4.0258 H   0  0  0  0  0  0  0  0  0  0  0  0
    2.5537   -2.5861   -4.6942 H   0  0  0  0  0  0  0  0  0  0  0  0
    0.4453   -4.7701   -5.1379 H   0  0  0  0  0  0  0  0  0  0  0  0
   -0.4561   -2.4281   -5.4850 H   0  0  0  0  0  0  0  0  0  0  0  0
   -0.5181   -3.4744   -6.8994 H   0  0  0  0  0  0  0  0  0  0  0  0
    1.5710   -1.2710   -6.4008 H   0  0  0  0  0  0  0  0  0  0  0  0
    0.2445   -1.2162   -7.5601 H   0  0  0  0  0  0  0  0  0  0  0  0
    2.4361   -1.8276   -8.6599 H   0  0  0  0  0  0  0  0  0  0  0  0
    1.2160   -3.0924   -8.8515 H   0  0  0  0  0  0  0  0  0  0  0  0
    3.5221   -3.0875   -6.8187 H   0  0  0  0  0  0  0  0  0  0  0  0
    3.3736   -4.1350   -8.2284 H   0  0  0  0  0  0  0  0  0  0  0  0
    2.6938   -5.3439   -6.1352 H   0  0  0  0  0  0  0  0  0  0  0  0
    1.3670   -5.2298   -7.2956 H   0  0  0  0  0  0  0  0  0  0  0  0
  1  2  1  0
  1 47  1  0
  1 48  1  0
  2  3  2  0
  2 35  1  0
  3  4  1  0
  3  5  1  0
  5  6  2  0
  5 49  1  0
  6  7  1  0
  6 34  1  0
  7  8  2  0
  7  9  1  0
  9 10  1  0
 10 11  1  0
 10 50  1  0
 10 51  1  0
 11 12  1  0
 11 52  1  0
 11 53  1  0
 12 13  1  0
 12 54  1  0
 12 55  1  0
 13 14  1  0
 13 56  1  0
 13 57  1  0
 14 15  1  0
 14 58  1  0
 14 59  1  0
 15 16  1  0
 16 17  2  0
 16 18  1  0
 18 19  1  0
 18 60  1  0
 18 61  1  0
 19 20  2  0
 19 24  1  0
 20 21  1  0
 20 62  1  0
 21 22  2  0
 21 63  1  0
 22 23  1  0
 22 64  1  0
 23 24  2  0
 23 65  1  0
 24 25  1  0
 25 26  1  0
 25 66  1  0
 26 27  2  0
 26 32  1  0
 27 28  1  0
 27 29  1  0
 29 30  2  0
 29 67  1  0
 30 31  1  0
 30 68  1  0
 31 32  2  0
 31 69  1  0
 32 33  1  0
 34 35  2  0
 34 70  1  0
 35 36  1  0
 36 37  1  0
 36 71  1  0
 36 72  1  0
 37 38  1  0
 37 73  1  0
 38 39  1  0
 38 74  1  0
 38 75  1  0
 39 40  1  0
 39 76  1  0
 39 77  1  0
 40 41  1  0
 40 78  1  0
 40 79  1  0
 41 42  1  0
 41 46  1  0
 41 80  1  1
 42 43  1  0
 42 81  1  0
 42 82  1  0
 43 44  1  0
 43 83  1  0
 43 84  1  0
 44 45  1  0
 44 85  1  0
 44 86  1  0
 45 46  1  0
 45 87  1  0
 45 88  1  0
 46 89  1  0
 46 90  1  0
M  END

