
     RDKit          3D

 42 43  0  0  0  0  0  0  0  0999 V2000
    2.9088   -3.4888    1.1919 N   0  0  0  0  0  0  0  0  0  0  0  0
    2.5008   -2.0904    1.2604 C   0  0  0  0  0  0  0  0  0  0  0  0
    2.8923   -1.3385   -0.0243 C   0  0  1  0  0  0  0  0  0  0  0  0
    2.3485   -2.0027   -1.3141 C   0  0  0  0  0  0  0  0  0  0  0  0
    0.8262   -2.0885   -1.4208 C   0  0  0  0  0  0  0  0  0  0  0  0
    0.3775   -2.5093   -2.8216 C   0  0  0  0  0  0  0  0  0  0  0  0
    0.9943   -2.1919   -3.8258 O   0  0  0  0  0  0  0  0  0  0  0  0
   -0.7814   -3.2363   -2.8595 N   0  0  0  0  0  0  0  0  0  0  0  0
   -1.4129   -3.6793   -4.0853 C   0  0  1  0  0  0  0  0  0  0  0  0
   -1.5708   -5.2037   -4.2229 C   0  0  0  0  0  0  0  0  0  0  0  0
   -2.5339   -5.3415   -5.4086 C   0  0  0  0  0  0  0  0  0  0  0  0
   -3.5305   -4.1581   -5.2568 C   0  0  0  0  0  0  0  0  0  0  0  0
   -2.8518   -3.1512   -4.2910 C   0  0  0  0  0  0  0  0  0  0  0  0
    2.5707    0.1477    0.0279 C   0  0  0  0  0  0  0  0  0  0  0  0
    3.3170    1.0543   -0.7429 C   0  0  0  0  0  0  0  0  0  0  0  0
    3.0031    2.4140   -0.7147 C   0  0  0  0  0  0  0  0  0  0  0  0
    2.0118    2.9296    0.0193 N   0  0  0  0  0  0  0  0  0  0  0  0
    1.2989    2.0764    0.7550 C   0  0  0  0  0  0  0  0  0  0  0  0
    1.5326    0.6967    0.7953 C   0  0  0  0  0  0  0  0  0  0  0  0
    2.6008   -3.9937    2.0222 H   0  0  0  0  0  0  0  0  0  0  0  0
    3.9272   -3.5630    1.1741 H   0  0  0  0  0  0  0  0  0  0  0  0
    2.9179   -1.5345    2.1273 H   0  0  0  0  0  0  0  0  0  0  0  0
    1.4053   -2.0711    1.3881 H   0  0  0  0  0  0  0  0  0  0  0  0
    3.9938   -1.4064   -0.1019 H   0  0  0  0  0  0  0  0  0  0  0  0
    2.7665   -3.0190   -1.3732 H   0  0  0  0  0  0  0  0  0  0  0  0
    2.7182   -1.4524   -2.1923 H   0  0  0  0  0  0  0  0  0  0  0  0
    0.3721   -1.0986   -1.2304 H   0  0  0  0  0  0  0  0  0  0  0  0
    0.4140   -2.7795   -0.6672 H   0  0  0  0  0  0  0  0  0  0  0  0
   -1.2319   -3.4686   -1.9816 H   0  0  0  0  0  0  0  0  0  0  0  0
   -0.7620   -3.3128   -4.8935 H   0  0  0  0  0  0  0  0  0  0  0  0
   -2.0283   -5.6100   -3.3011 H   0  0  0  0  0  0  0  0  0  0  0  0
   -0.6089   -5.7191   -4.3683 H   0  0  0  0  0  0  0  0  0  0  0  0
   -3.0355   -6.3206   -5.4461 H   0  0  0  0  0  0  0  0  0  0  0  0
   -1.9676   -5.2378   -6.3491 H   0  0  0  0  0  0  0  0  0  0  0  0
   -4.4921   -4.5023   -4.8450 H   0  0  0  0  0  0  0  0  0  0  0  0
   -3.7573   -3.7025   -6.2327 H   0  0  0  0  0  0  0  0  0  0  0  0
   -3.3706   -3.1401   -3.3166 H   0  0  0  0  0  0  0  0  0  0  0  0
   -2.8581   -2.1155   -4.6634 H   0  0  0  0  0  0  0  0  0  0  0  0
    4.1444    0.7013   -1.3649 H   0  0  0  0  0  0  0  0  0  0  0  0
    3.5867    3.1222   -1.3152 H   0  0  0  0  0  0  0  0  0  0  0  0
    0.4881    2.5071    1.3558 H   0  0  0  0  0  0  0  0  0  0  0  0
    0.9010    0.0713    1.4290 H   0  0  0  0  0  0  0  0  0  0  0  0
  1  2  1  0
  1 20  1  0
  1 21  1  0
  2  3  1  0
  2 22  1  0
  2 23  1  0
  3  4  1  0
  3 14  1  0
  3 24  1  6
  4  5  1  0
  4 25  1  0
  4 26  1  0
  5  6  1  0
  5 27  1  0
  5 28  1  0
  6  7  2  0
  6  8  1  0
  8  9  1  0
  8 29  1  0
  9 10  1  0
  9 13  1  0
  9 30  1  6
 10 11  1  0
 10 31  1  0
 10 32  1  0
 11 12  1  0
 11 33  1  0
 11 34  1  0
 12 13  1  0
 12 35  1  0
 12 36  1  0
 13 37  1  0
 13 38  1  0
 14 15  2  0
 14 19  1  0
 15 16  1  0
 15 39  1  0
 16 17  2  0
 16 40  1  0
 17 18  1  0
 18 19  2  0
 18 41  1  0
 19 42  1  0
M  END

