
     RDKit          3D

 42 44  0  0  0  0  0  0  0  0999 V2000
    1.7540   -0.3264   -4.2392 C   0  0  0  0  0  0  0  0  0  0  0  0
    2.6530   -1.0720   -3.2532 C   0  0  0  0  0  0  0  0  0  0  0  0
    3.9458   -0.3075   -2.9445 C   0  0  0  0  0  0  0  0  0  0  0  0
    4.8223   -0.9916   -2.0134 N   0  0  0  0  0  0  0  0  0  0  0  0
    4.7335   -1.0072   -0.6209 C   0  0  0  0  0  0  0  0  0  0  0  0
    5.7386   -1.7869   -0.1508 C   0  0  0  0  0  0  0  0  0  0  0  0
    6.4511   -2.2656   -1.2508 N   0  0  0  0  0  0  0  0  0  0  0  0
    7.6303   -3.1090   -1.2461 C   0  0  0  0  0  0  0  0  0  0  0  0
    7.3922   -4.6273   -1.0322 C   0  0  2  0  0  0  0  0  0  0  0  0
    6.4782   -5.2457   -2.1124 C   0  0  0  0  0  0  0  0  0  0  0  0
    4.9938   -5.2075   -1.7367 C   0  0  0  0  0  0  0  0  0  0  0  0
    4.7510   -5.9594   -0.4288 C   0  0  0  0  0  0  0  0  0  0  0  0
    5.7052   -5.5551    0.6780 C   0  0  0  0  0  0  0  0  0  0  0  0
    5.3621   -5.8140    2.0171 C   0  0  0  0  0  0  0  0  0  0  0  0
    6.2277   -5.5104    3.0659 C   0  0  0  0  0  0  0  0  0  0  0  0
    7.4742   -4.9402    2.7847 C   0  0  0  0  0  0  0  0  0  0  0  0
    7.8234   -4.6749    1.4617 C   0  0  0  0  0  0  0  0  0  0  0  0
    6.9535   -4.9631    0.3930 C   0  0  0  0  0  0  0  0  0  0  0  0
    5.8927   -1.7752   -2.4294 C   0  0  0  0  0  0  0  0  0  0  0  0
    6.2631   -1.9858   -3.5768 O   0  0  0  0  0  0  0  0  0  0  0  0
    0.8352   -0.8949   -4.4513 H   0  0  0  0  0  0  0  0  0  0  0  0
    2.2679   -0.1548   -5.1995 H   0  0  0  0  0  0  0  0  0  0  0  0
    1.4511    0.6588   -3.8456 H   0  0  0  0  0  0  0  0  0  0  0  0
    2.9237   -2.0613   -3.6591 H   0  0  0  0  0  0  0  0  0  0  0  0
    2.1078   -1.2591   -2.3111 H   0  0  0  0  0  0  0  0  0  0  0  0
    3.7132    0.6925   -2.5392 H   0  0  0  0  0  0  0  0  0  0  0  0
    4.5248   -0.1655   -3.8701 H   0  0  0  0  0  0  0  0  0  0  0  0
    3.9670   -0.4535   -0.0857 H   0  0  0  0  0  0  0  0  0  0  0  0
    6.0086   -2.0497    0.8676 H   0  0  0  0  0  0  0  0  0  0  0  0
    8.3280   -2.7315   -0.4814 H   0  0  0  0  0  0  0  0  0  0  0  0
    8.1022   -2.9651   -2.2294 H   0  0  0  0  0  0  0  0  0  0  0  0
    8.3995   -5.0629   -1.1629 H   0  0  0  0  0  0  0  0  0  0  0  0
    6.7720   -6.2997   -2.2627 H   0  0  0  0  0  0  0  0  0  0  0  0
    6.6426   -4.7292   -3.0708 H   0  0  0  0  0  0  0  0  0  0  0  0
    4.3907   -5.6525   -2.5448 H   0  0  0  0  0  0  0  0  0  0  0  0
    4.6543   -4.1650   -1.6313 H   0  0  0  0  0  0  0  0  0  0  0  0
    4.8691   -7.0456   -0.6082 H   0  0  0  0  0  0  0  0  0  0  0  0
    3.7112   -5.8261   -0.0867 H   0  0  0  0  0  0  0  0  0  0  0  0
    4.3897   -6.2675    2.2329 H   0  0  0  0  0  0  0  0  0  0  0  0
    5.9359   -5.7215    4.0980 H   0  0  0  0  0  0  0  0  0  0  0  0
    8.1721   -4.7081    3.5934 H   0  0  0  0  0  0  0  0  0  0  0  0
    8.8044   -4.2392    1.2479 H   0  0  0  0  0  0  0  0  0  0  0  0
  1  2  1  0
  1 21  1  0
  1 22  1  0
  1 23  1  0
  2  3  1  0
  2 24  1  0
  2 25  1  0
  3  4  1  0
  3 26  1  0
  3 27  1  0
  4  5  1  0
  4 19  1  0
  5  6  2  0
  5 28  1  0
  6  7  1  0
  6 29  1  0
  7  8  1  0
  7 19  1  0
  8  9  1  0
  8 30  1  0
  8 31  1  0
  9 10  1  0
  9 18  1  0
  9 32  1  6
 10 11  1  0
 10 33  1  0
 10 34  1  0
 11 12  1  0
 11 35  1  0
 11 36  1  0
 12 13  1  0
 12 37  1  0
 12 38  1  0
 13 14  2  0
 13 18  1  0
 14 15  1  0
 14 39  1  0
 15 16  2  0
 15 40  1  0
 16 17  1  0
 16 41  1  0
 17 18  2  0
 17 42  1  0
 19 20  2  0
M  END

