
     RDKit          3D

 44 47  0  0  0  0  0  0  0  0999 V2000
    7.3656    0.3886    1.1067 C   0  0  0  0  0  0  0  0  0  0  0  0
    8.4189    1.2431    0.4414 C   0  0  0  0  0  0  0  0  0  0  0  0
    9.1061    2.0413    1.0481 O   0  0  0  0  0  0  0  0  0  0  0  0
    8.5934    1.0650   -1.0343 C   0  0  0  0  0  0  0  0  0  0  0  0
    9.5167    1.7710   -1.7660 C   0  0  0  0  0  0  0  0  0  0  0  0
    9.4316    1.3131   -3.4278 S   0  0  0  0  0  0  0  0  0  0  0  0
    8.1361    0.1696   -2.9951 C   0  0  0  0  0  0  0  0  0  0  0  0
    7.5702   -0.5995   -4.0018 N   0  0  0  0  0  0  0  0  0  0  0  0
    6.4286   -1.4064   -3.9165 C   0  0  0  0  0  0  0  0  0  0  0  0
    5.7694   -1.5189   -2.9101 O   0  0  0  0  0  0  0  0  0  0  0  0
    6.1031   -2.1403   -5.2138 C   0  0  0  0  0  0  0  0  0  0  0  0
    6.3471   -3.6703   -5.1712 C   0  0  2  0  0  0  0  0  0  0  0  0
    5.4203   -4.3779   -4.1530 C   0  0  0  0  0  0  0  0  0  0  0  0
    5.6744   -5.8969   -4.1667 C   0  0  1  0  0  0  0  0  0  0  0  0
    5.3873   -6.4621   -5.5693 C   0  0  0  0  0  0  0  0  0  0  0  0
    6.3159   -5.7775   -6.5886 C   0  0  2  0  0  0  0  0  0  0  0  0
    7.7891   -6.0607   -6.2169 C   0  0  0  0  0  0  0  0  0  0  0  0
    8.0547   -5.4984   -4.8160 C   0  0  2  0  0  0  0  0  0  0  0  0
    9.9700   -5.8499   -4.3308 Br  0  0  0  0  0  0  0  0  0  0  0  0
    7.1459   -6.1804   -3.7869 C   0  0  0  0  0  0  0  0  0  0  0  0
    7.8225   -3.9823   -4.7978 C   0  0  0  0  0  0  0  0  0  0  0  0
    6.0681   -4.2579   -6.5764 C   0  0  0  0  0  0  0  0  0  0  0  0
    7.8275    0.1654   -1.7415 N   0  0  0  0  0  0  0  0  0  0  0  0
    7.3171    0.6361    2.1747 H   0  0  0  0  0  0  0  0  0  0  0  0
    7.6037   -0.6788    0.9715 H   0  0  0  0  0  0  0  0  0  0  0  0
    6.3862    0.5408    0.6265 H   0  0  0  0  0  0  0  0  0  0  0  0
   10.2193    2.5142   -1.3950 H   0  0  0  0  0  0  0  0  0  0  0  0
    8.0282   -0.5558   -4.9038 H   0  0  0  0  0  0  0  0  0  0  0  0
    6.6688   -1.7139   -6.0599 H   0  0  0  0  0  0  0  0  0  0  0  0
    5.0348   -1.9596   -5.4149 H   0  0  0  0  0  0  0  0  0  0  0  0
    4.3674   -4.1683   -4.4091 H   0  0  0  0  0  0  0  0  0  0  0  0
    5.5818   -3.9657   -3.1460 H   0  0  0  0  0  0  0  0  0  0  0  0
    5.0179   -6.3815   -3.4251 H   0  0  0  0  0  0  0  0  0  0  0  0
    4.3318   -6.2889   -5.8401 H   0  0  0  0  0  0  0  0  0  0  0  0
    5.5458   -7.5540   -5.5837 H   0  0  0  0  0  0  0  0  0  0  0  0
    6.1215   -6.1720   -7.6000 H   0  0  0  0  0  0  0  0  0  0  0  0
    8.4692   -5.5922   -6.9463 H   0  0  0  0  0  0  0  0  0  0  0  0
    7.9899   -7.1435   -6.2320 H   0  0  0  0  0  0  0  0  0  0  0  0
    7.3643   -5.7955   -2.7782 H   0  0  0  0  0  0  0  0  0  0  0  0
    7.3408   -7.2645   -3.7737 H   0  0  0  0  0  0  0  0  0  0  0  0
    8.5073   -3.4939   -5.5117 H   0  0  0  0  0  0  0  0  0  0  0  0
    8.0565   -3.5881   -3.7963 H   0  0  0  0  0  0  0  0  0  0  0  0
    5.0256   -4.0410   -6.8670 H   0  0  0  0  0  0  0  0  0  0  0  0
    6.7159   -3.7650   -7.3229 H   0  0  0  0  0  0  0  0  0  0  0  0
  1  2  1  0
  1 24  1  0
  1 25  1  0
  1 26  1  0
  2  3  2  0
  2  4  1  0
  4  5  2  0
  4 23  1  0
  5  6  1  0
  5 27  1  0
  6  7  1  0
  7  8  1  0
  7 23  2  0
  8  9  1  0
  8 28  1  0
  9 10  2  0
  9 11  1  0
 12 11  1  6
 11 29  1  0
 11 30  1  0
 12 13  1  0
 12 21  1  0
 12 22  1  0
 13 14  1  0
 13 31  1  0
 13 32  1  0
 14 15  1  0
 14 20  1  0
 14 33  1  1
 15 16  1  0
 15 34  1  0
 15 35  1  0
 16 17  1  0
 16 22  1  0
 16 36  1  6
 17 18  1  0
 17 37  1  0
 17 38  1  0
 18 19  1  1
 18 20  1  0
 18 21  1  0
 20 39  1  0
 20 40  1  0
 21 41  1  0
 21 42  1  0
 22 43  1  0
 22 44  1  0
M  END

