
     RDKit          3D

 53 56  0  0  0  0  0  0  0  0999 V2000
    1.9532    1.8325   -1.2381 O   0  0  0  0  0  0  0  0  0  0  0  0
    2.7858    1.0648   -0.7752 C   0  0  0  0  0  0  0  0  0  0  0  0
    2.8241   -0.2573   -1.1037 N   0  0  0  0  0  0  0  0  0  0  0  0
    1.7886   -0.8591   -1.9537 C   0  0  1  0  0  0  0  0  0  0  0  0
    1.9155   -0.4856   -3.4566 C   0  0  0  0  0  0  0  0  0  0  0  0
    2.6543   -1.4993   -4.3665 C   0  0  1  0  0  0  0  0  0  0  0  0
    4.1924   -1.4820   -4.2979 C   0  0  0  0  0  0  0  0  0  0  0  0
    4.7473   -2.0493   -2.9848 C   0  0  0  0  0  0  0  0  0  0  0  0
    4.0144   -3.3315   -2.5591 C   0  0  0  0  0  0  0  0  0  0  0  0
    2.4845   -3.2713   -2.7425 C   0  0  1  0  0  0  0  0  0  0  0  0
    1.7052   -2.3871   -1.7337 C   0  0  0  0  0  0  0  0  0  0  0  0
    2.2041   -2.8780   -4.1298 N   0  0  0  0  0  0  0  0  0  0  0  0
    0.8801   -3.2118   -4.6316 C   0  0  0  0  0  0  0  0  0  0  0  0
    0.6571   -4.7066   -4.7933 C   0  0  0  0  0  0  0  0  0  0  0  0
   -0.5539   -5.2982   -4.4079 C   0  0  0  0  0  0  0  0  0  0  0  0
   -0.7793   -6.6656   -4.6014 C   0  0  0  0  0  0  0  0  0  0  0  0
    0.2113   -7.4628   -5.1798 C   0  0  0  0  0  0  0  0  0  0  0  0
    1.4269   -6.8838   -5.5625 C   0  0  0  0  0  0  0  0  0  0  0  0
    1.6470   -5.5184   -5.3707 C   0  0  0  0  0  0  0  0  0  0  0  0
    3.8289    1.5567    0.2051 C   0  0  0  0  0  0  0  0  0  0  0  0
    3.6339    2.8359    0.7530 C   0  0  0  0  0  0  0  0  0  0  0  0
    4.5466    3.3734    1.6625 C   0  0  0  0  0  0  0  0  0  0  0  0
    5.6803    2.6481    2.0352 C   0  0  0  0  0  0  0  0  0  0  0  0
    5.8696    1.3850    1.4749 C   0  0  0  0  0  0  0  0  0  0  0  0
    7.0706    0.6052    1.8491 N   0  0  0  0  0  0  0  0  0  0  0  0
    7.8500    1.1143    2.6366 O   0  0  0  0  0  0  0  0  0  0  0  0
    7.2041   -0.5001    1.3478 O   0  0  0  0  0  0  0  0  0  0  0  0
    4.9688    0.8290    0.5670 C   0  0  0  0  0  0  0  0  0  0  0  0
    3.4162   -0.8743   -0.5641 H   0  0  0  0  0  0  0  0  0  0  0  0
    0.8449   -0.4074   -1.6087 H   0  0  0  0  0  0  0  0  0  0  0  0
    2.3508    0.5206   -3.5434 H   0  0  0  0  0  0  0  0  0  0  0  0
    0.8869   -0.3910   -3.8429 H   0  0  0  0  0  0  0  0  0  0  0  0
    2.3815   -1.2426   -5.4039 H   0  0  0  0  0  0  0  0  0  0  0  0
    4.5655   -0.4571   -4.4616 H   0  0  0  0  0  0  0  0  0  0  0  0
    4.5538   -2.0952   -5.1403 H   0  0  0  0  0  0  0  0  0  0  0  0
    4.6663   -1.2831   -2.2018 H   0  0  0  0  0  0  0  0  0  0  0  0
    5.8253   -2.2553   -3.0887 H   0  0  0  0  0  0  0  0  0  0  0  0
    4.2592   -3.5904   -1.5141 H   0  0  0  0  0  0  0  0  0  0  0  0
    4.3703   -4.1699   -3.1805 H   0  0  0  0  0  0  0  0  0  0  0  0
    2.1104   -4.2988   -2.6086 H   0  0  0  0  0  0  0  0  0  0  0  0
    1.9927   -2.6376   -0.6977 H   0  0  0  0  0  0  0  0  0  0  0  0
    0.6427   -2.6676   -1.8091 H   0  0  0  0  0  0  0  0  0  0  0  0
    0.7852   -2.7349   -5.6238 H   0  0  0  0  0  0  0  0  0  0  0  0
    0.0456   -2.7982   -4.0240 H   0  0  0  0  0  0  0  0  0  0  0  0
   -1.3326   -4.6805   -3.9500 H   0  0  0  0  0  0  0  0  0  0  0  0
   -1.7302   -7.1087   -4.2938 H   0  0  0  0  0  0  0  0  0  0  0  0
    0.0397   -8.5319   -5.3295 H   0  0  0  0  0  0  0  0  0  0  0  0
    2.2076   -7.5017   -6.0144 H   0  0  0  0  0  0  0  0  0  0  0  0
    2.5972   -5.0627   -5.6589 H   0  0  0  0  0  0  0  0  0  0  0  0
    2.7485    3.3918    0.4391 H   0  0  0  0  0  0  0  0  0  0  0  0
    4.3774    4.3670    2.0835 H   0  0  0  0  0  0  0  0  0  0  0  0
    6.4154    3.0367    2.7394 H   0  0  0  0  0  0  0  0  0  0  0  0
    5.2039   -0.1539    0.1592 H   0  0  0  0  0  0  0  0  0  0  0  0
  1  2  2  0
  2  3  1  0
  2 20  1  0
  3  4  1  0
  3 29  1  0
  4  5  1  0
  4 11  1  0
  4 30  1  1
  5  6  1  0
  5 31  1  0
  5 32  1  0
  6  7  1  0
  6 12  1  0
  6 33  1  6
  7  8  1  0
  7 34  1  0
  7 35  1  0
  8  9  1  0
  8 36  1  0
  8 37  1  0
  9 10  1  0
  9 38  1  0
  9 39  1  0
 10 11  1  0
 10 12  1  0
 10 40  1  6
 11 41  1  0
 11 42  1  0
 12 13  1  0
 13 14  1  0
 13 43  1  0
 13 44  1  0
 14 15  2  0
 14 19  1  0
 15 16  1  0
 15 45  1  0
 16 17  2  0
 16 46  1  0
 17 18  1  0
 17 47  1  0
 18 19  2  0
 18 48  1  0
 19 49  1  0
 20 21  2  0
 20 28  1  0
 21 22  1  0
 21 50  1  0
 22 23  2  0
 22 51  1  0
 23 24  1  0
 23 52  1  0
 24 25  1  0
 24 28  2  0
 25 26  2  0
 25 27  1  0
 28 53  1  0
M  CHG  2  25   1  27  -1
M  END

