
     RDKit          3D

 35 36  0  0  0  0  0  0  0  0999 V2000
    3.3637    0.9362    2.4186 C   0  0  0  0  0  0  0  0  0  0  0  0
    3.9421    0.7565    1.1367 O   0  0  0  0  0  0  0  0  0  0  0  0
    3.8058    1.6861    0.1728 C   0  0  0  0  0  0  0  0  0  0  0  0
    3.2462    2.9543    0.3872 C   0  0  0  0  0  0  0  0  0  0  0  0
    3.1521    3.8798   -0.6555 C   0  0  0  0  0  0  0  0  0  0  0  0
    3.6212    3.5386   -1.9226 C   0  0  0  0  0  0  0  0  0  0  0  0
    3.5041    4.7919   -3.3564 Br  0  0  0  0  0  0  0  0  0  0  0  0
    4.1778    2.2777   -2.1494 C   0  0  0  0  0  0  0  0  0  0  0  0
    4.2731    1.3325   -1.1201 C   0  0  0  0  0  0  0  0  0  0  0  0
    4.8603   -0.0207   -1.4428 C   0  0  1  0  0  0  0  0  0  0  0  0
    6.7161   -0.1814   -0.6840 Br  0  0  0  0  0  0  0  0  0  0  0  0
    4.0038   -1.2266   -1.0943 C   0  0  0  0  0  0  0  0  0  0  0  0
    3.0750   -1.6754   -2.0473 C   0  0  0  0  0  0  0  0  0  0  0  0
    2.1974   -2.7286   -1.7669 C   0  0  0  0  0  0  0  0  0  0  0  0
    2.2289   -3.3569   -0.5211 C   0  0  0  0  0  0  0  0  0  0  0  0
    3.1714   -2.9197    0.4141 C   0  0  0  0  0  0  0  0  0  0  0  0
    3.1931   -3.6555    2.0602 S   0  0  1  0  0  0  0  0  0  0  0  0
    4.4904   -4.9097    1.9892 C   0  0  0  0  0  0  0  0  0  0  0  0
    3.6477   -2.6229    3.0080 O   0  0  0  0  0  0  0  0  0  0  0  0
    1.9160   -4.3544    2.2598 O   0  0  0  0  0  0  0  0  0  0  0  0
    4.0537   -1.8753    0.1455 C   0  0  0  0  0  0  0  0  0  0  0  0
    3.4743   -0.0260    2.9365 H   0  0  0  0  0  0  0  0  0  0  0  0
    2.2909    1.1836    2.3427 H   0  0  0  0  0  0  0  0  0  0  0  0
    3.8806    1.7306    2.9844 H   0  0  0  0  0  0  0  0  0  0  0  0
    2.8849    3.2342    1.3767 H   0  0  0  0  0  0  0  0  0  0  0  0
    2.7172    4.8641   -0.4739 H   0  0  0  0  0  0  0  0  0  0  0  0
    4.5436    2.0223   -3.1460 H   0  0  0  0  0  0  0  0  0  0  0  0
    5.0589   -0.0464   -2.5196 H   0  0  0  0  0  0  0  0  0  0  0  0
    3.0256   -1.1847   -3.0235 H   0  0  0  0  0  0  0  0  0  0  0  0
    1.4780   -3.0514   -2.5232 H   0  0  0  0  0  0  0  0  0  0  0  0
    1.5347   -4.1581   -0.2614 H   0  0  0  0  0  0  0  0  0  0  0  0
    5.4493   -4.4296    1.7554 H   0  0  0  0  0  0  0  0  0  0  0  0
    4.2194   -5.6633    1.2388 H   0  0  0  0  0  0  0  0  0  0  0  0
    4.5136   -5.3538    2.9945 H   0  0  0  0  0  0  0  0  0  0  0  0
    4.7639   -1.5501    0.9033 H   0  0  0  0  0  0  0  0  0  0  0  0
  1  2  1  0
  1 22  1  0
  1 23  1  0
  1 24  1  0
  2  3  1  0
  3  4  2  0
  3  9  1  0
  4  5  1  0
  4 25  1  0
  5  6  2  0
  5 26  1  0
  6  7  1  0
  6  8  1  0
  8  9  2  0
  8 27  1  0
  9 10  1  0
 10 11  1  0
 10 12  1  0
 10 28  1  6
 12 13  2  0
 12 21  1  0
 13 14  1  0
 13 29  1  0
 14 15  2  0
 14 30  1  0
 15 16  1  0
 15 31  1  0
 16 17  1  0
 16 21  2  0
 17 18  1  6
 17 19  2  0
 17 20  2  0
 18 32  1  0
 18 33  1  0
 18 34  1  0
 21 35  1  0
M  END

