
     RDKit          3D

 48 48  0  0  0  0  0  0  0  0999 V2000
    0.6692   -0.1070   -0.1819 C   0  0  0  0  0  0  0  0  0  0  0  0
    2.1911    0.0435   -0.1591 C   0  0  0  0  0  0  0  0  0  0  0  0
    2.9279   -1.0559   -0.9306 C   0  0  0  0  0  0  0  0  0  0  0  0
    4.4539   -0.9109   -0.9119 C   0  0  0  0  0  0  0  0  0  0  0  0
    5.1685   -2.0186   -1.6944 C   0  0  0  0  0  0  0  0  0  0  0  0
    6.7190   -1.9830   -1.7306 C   0  0  1  0  0  0  0  0  0  0  0  0
    7.2324   -0.6571   -2.3198 C   0  0  0  0  0  0  0  0  0  0  0  0
    7.2992   -2.1843   -0.3175 C   0  0  0  0  0  0  0  0  0  0  0  0
    7.1654   -3.1557   -2.6468 C   0  0  0  0  0  0  0  0  0  0  0  0
    8.6072   -3.2989   -2.7604 N   0  0  0  0  0  0  0  0  0  0  0  0
    9.1305   -4.0239   -3.9036 C   0  0  1  0  0  0  0  0  0  0  0  0
   10.6634   -3.9101   -3.9699 C   0  0  0  0  0  0  0  0  0  0  0  0
   11.3759   -4.7250   -2.8798 C   0  0  0  0  0  0  0  0  0  0  0  0
   10.9493   -6.1992   -2.9016 C   0  0  0  0  0  0  0  0  0  0  0  0
    9.4248   -6.3470   -2.8270 C   0  0  0  0  0  0  0  0  0  0  0  0
    8.7087   -5.5430   -3.9380 C   0  0  2  0  0  0  0  0  0  0  0  0
    8.9590   -6.1215   -5.2637 C   0  0  0  0  0  0  0  0  0  0  0  0
    9.1719   -6.5619   -6.3154 N   0  0  0  0  0  0  0  0  0  0  0  0
    0.1734    0.6993    0.3820 H   0  0  0  0  0  0  0  0  0  0  0  0
    0.3542   -1.0659    0.2630 H   0  0  0  0  0  0  0  0  0  0  0  0
    0.2790   -0.0798   -1.2132 H   0  0  0  0  0  0  0  0  0  0  0  0
    2.5453    0.0512    0.8880 H   0  0  0  0  0  0  0  0  0  0  0  0
    2.4708    1.0283   -0.5759 H   0  0  0  0  0  0  0  0  0  0  0  0
    2.5742   -1.0643   -1.9787 H   0  0  0  0  0  0  0  0  0  0  0  0
    2.6486   -2.0421   -0.5144 H   0  0  0  0  0  0  0  0  0  0  0  0
    4.7969   -0.9040    0.1377 H   0  0  0  0  0  0  0  0  0  0  0  0
    4.7230    0.0766   -1.3253 H   0  0  0  0  0  0  0  0  0  0  0  0
    4.8008   -1.9992   -2.7373 H   0  0  0  0  0  0  0  0  0  0  0  0
    4.8527   -2.9970   -1.2868 H   0  0  0  0  0  0  0  0  0  0  0  0
    7.0417    0.1914   -1.6446 H   0  0  0  0  0  0  0  0  0  0  0  0
    6.7445   -0.4362   -3.2842 H   0  0  0  0  0  0  0  0  0  0  0  0
    8.3160   -0.7182   -2.4977 H   0  0  0  0  0  0  0  0  0  0  0  0
    6.9728   -1.3889    0.3697 H   0  0  0  0  0  0  0  0  0  0  0  0
    8.4006   -2.1572   -0.3312 H   0  0  0  0  0  0  0  0  0  0  0  0
    6.9821   -3.1492    0.1144 H   0  0  0  0  0  0  0  0  0  0  0  0
    6.7696   -2.9693   -3.6606 H   0  0  0  0  0  0  0  0  0  0  0  0
    6.6604   -4.0801   -2.2867 H   0  0  0  0  0  0  0  0  0  0  0  0
    9.0218   -3.6175   -1.8890 H   0  0  0  0  0  0  0  0  0  0  0  0
    8.7061   -3.5487   -4.8041 H   0  0  0  0  0  0  0  0  0  0  0  0
   10.9356   -2.8454   -3.9009 H   0  0  0  0  0  0  0  0  0  0  0  0
   10.9963   -4.2663   -4.9594 H   0  0  0  0  0  0  0  0  0  0  0  0
   11.1627   -4.2928   -1.8842 H   0  0  0  0  0  0  0  0  0  0  0  0
   12.4675   -4.6431   -3.0099 H   0  0  0  0  0  0  0  0  0  0  0  0
   11.4182   -6.7493   -2.0691 H   0  0  0  0  0  0  0  0  0  0  0  0
   11.3129   -6.6724   -3.8309 H   0  0  0  0  0  0  0  0  0  0  0  0
    9.0594   -5.9710   -1.8553 H   0  0  0  0  0  0  0  0  0  0  0  0
    9.1284   -7.4065   -2.8806 H   0  0  0  0  0  0  0  0  0  0  0  0
    7.6188   -5.6008   -3.7804 H   0  0  0  0  0  0  0  0  0  0  0  0
  1  2  1  0
  1 19  1  0
  1 20  1  0
  1 21  1  0
  2  3  1  0
  2 22  1  0
  2 23  1  0
  3  4  1  0
  3 24  1  0
  3 25  1  0
  4  5  1  0
  4 26  1  0
  4 27  1  0
  6  5  1  1
  5 28  1  0
  5 29  1  0
  6  7  1  0
  6  8  1  0
  6  9  1  0
  7 30  1  0
  7 31  1  0
  7 32  1  0
  8 33  1  0
  8 34  1  0
  8 35  1  0
  9 10  1  0
  9 36  1  0
  9 37  1  0
 10 11  1  0
 10 38  1  0
 11 12  1  0
 11 16  1  0
 11 39  1  6
 12 13  1  0
 12 40  1  0
 12 41  1  0
 13 14  1  0
 13 42  1  0
 13 43  1  0
 14 15  1  0
 14 44  1  0
 14 45  1  0
 15 16  1  0
 15 46  1  0
 15 47  1  0
 16 17  1  0
 16 48  1  1
 17 18  3  0
M  END

