
     RDKit          3D

 43 46  0  0  0  0  0  0  0  0999 V2000
    2.0123   -0.2064   -0.7689 C   0  0  0  0  0  0  0  0  0  0  0  0
    1.7051    0.3187    0.5178 O   0  0  0  0  0  0  0  0  0  0  0  0
    2.6388    0.3979    1.4954 C   0  0  0  0  0  0  0  0  0  0  0  0
    2.8032    1.6696    2.0728 C   0  0  0  0  0  0  0  0  0  0  0  0
    1.9935    2.8600    1.6234 C   0  0  0  0  0  0  0  0  0  0  0  0
    3.7755    1.8267    3.0840 C   0  0  0  0  0  0  0  0  0  0  0  0
    3.9859    3.0266    3.6705 O   0  0  0  0  0  0  0  0  0  0  0  0
    4.5681    0.7611    3.5119 C   0  0  0  0  0  0  0  0  0  0  0  0
    4.3812   -0.4967    2.9466 C   0  0  0  0  0  0  0  0  0  0  0  0
    3.4071   -0.7254    1.9328 C   0  0  0  0  0  0  0  0  0  0  0  0
    3.1821   -2.1116    1.4681 C   0  0  0  0  0  0  0  0  0  0  0  0
    2.1793   -2.4869    0.8827 O   0  0  0  0  0  0  0  0  0  0  0  0
    4.3140   -3.0916    1.8093 C   0  0  2  0  0  0  0  0  0  0  0  0
    5.1702   -2.8199    1.1634 H   0  0  0  0  0  0  0  0  0  0  0  0
    3.9408   -4.5693    1.5701 C   0  0  0  0  0  0  0  0  0  0  0  0
    4.1838   -5.0663    0.1565 C   0  0  0  0  0  0  0  0  0  0  0  0
    3.1795   -5.0035   -0.8195 C   0  0  0  0  0  0  0  0  0  0  0  0
    3.3900   -5.4524   -2.1386 C   0  0  0  0  0  0  0  0  0  0  0  0
    4.6394   -5.9626   -2.4403 C   0  0  0  0  0  0  0  0  0  0  0  0
    5.6496   -6.0290   -1.4787 C   0  0  0  0  0  0  0  0  0  0  0  0
    5.4546   -5.5929   -0.1812 C   0  0  0  0  0  0  0  0  0  0  0  0
    6.7808   -6.5524   -2.0468 O   0  0  0  0  0  0  0  0  0  0  0  0
    6.4008   -6.9866   -3.3492 C   0  0  0  0  0  0  0  0  0  0  0  0
    5.1168   -6.4411   -3.6322 O   0  0  0  0  0  0  0  0  0  0  0  0
    4.7457   -2.8269    3.2491 C   0  0  0  0  0  0  0  0  0  0  0  0
    5.1693   -1.4845    3.4359 O   0  0  0  0  0  0  0  0  0  0  0  0
    1.5593    0.4700   -1.5107 H   0  0  0  0  0  0  0  0  0  0  0  0
    1.6022   -1.2183   -0.8795 H   0  0  0  0  0  0  0  0  0  0  0  0
    3.1012   -0.2410   -0.9376 H   0  0  0  0  0  0  0  0  0  0  0  0
    1.3119    2.5764    0.8134 H   0  0  0  0  0  0  0  0  0  0  0  0
    2.6350    3.6800    1.2506 H   0  0  0  0  0  0  0  0  0  0  0  0
    1.3726    3.2679    2.4426 H   0  0  0  0  0  0  0  0  0  0  0  0
    3.3670    3.6769    3.3126 H   0  0  0  0  0  0  0  0  0  0  0  0
    5.3067    0.9015    4.3005 H   0  0  0  0  0  0  0  0  0  0  0  0
    2.8834   -4.7123    1.8376 H   0  0  0  0  0  0  0  0  0  0  0  0
    4.5341   -5.1903    2.2623 H   0  0  0  0  0  0  0  0  0  0  0  0
    2.2123   -4.5802   -0.5454 H   0  0  0  0  0  0  0  0  0  0  0  0
    2.6032   -5.4008   -2.8929 H   0  0  0  0  0  0  0  0  0  0  0  0
    6.2587   -5.6637    0.5546 H   0  0  0  0  0  0  0  0  0  0  0  0
    6.3499   -8.0942   -3.3727 H   0  0  0  0  0  0  0  0  0  0  0  0
    7.1317   -6.6235   -4.0903 H   0  0  0  0  0  0  0  0  0  0  0  0
    5.6041   -3.4539    3.5299 H   0  0  0  0  0  0  0  0  0  0  0  0
    3.9154   -3.0508    3.9483 H   0  0  0  0  0  0  0  0  0  0  0  0
  1  2  1  0
  1 27  1  0
  1 28  1  0
  1 29  1  0
  2  3  1  0
  3  4  2  0
  3 10  1  0
  4  5  1  0
  4  6  1  0
  5 30  1  0
  5 31  1  0
  5 32  1  0
  6  7  1  0
  6  8  2  0
  7 33  1  0
  8  9  1  0
  8 34  1  0
  9 10  2  0
  9 26  1  0
 10 11  1  0
 11 12  2  0
 11 13  1  0
 13 14  1  6
 13 15  1  0
 13 25  1  0
 15 16  1  0
 15 35  1  0
 15 36  1  0
 16 17  2  0
 16 21  1  0
 17 18  1  0
 17 37  1  0
 18 19  2  0
 18 38  1  0
 19 20  1  0
 19 24  1  0
 20 21  2  0
 20 22  1  0
 21 39  1  0
 22 23  1  0
 23 24  1  0
 23 40  1  0
 23 41  1  0
 25 26  1  0
 25 42  1  0
 25 43  1  0
M  END

