
     RDKit          3D

 36 37  0  0  0  0  0  0  0  0999 V2000
    0.9669    0.0788   -0.9481 C   0  0  0  0  0  0  0  0  0  0  0  0
    2.4731    0.2375   -0.8833 C   0  0  0  0  0  0  0  0  0  0  0  0
    3.0637   -1.0563   -0.9931 O   0  0  0  0  0  0  0  0  0  0  0  0
    4.4065   -1.2096   -0.9596 C   0  0  0  0  0  0  0  0  0  0  0  0
    5.2906   -0.1224   -0.8365 C   0  0  0  0  0  0  0  0  0  0  0  0
    6.6698   -0.3315   -0.8198 C   0  0  0  0  0  0  0  0  0  0  0  0
    7.1979   -1.6215   -0.9278 C   0  0  0  0  0  0  0  0  0  0  0  0
    6.3259   -2.6977   -1.0501 C   0  0  0  0  0  0  0  0  0  0  0  0
    4.9287   -2.5281   -1.0630 C   0  0  0  0  0  0  0  0  0  0  0  0
    4.1170   -3.7821   -1.1957 C   0  0  0  0  0  0  0  0  0  0  0  0
    4.6749   -4.8554   -1.3684 O   0  0  0  0  0  0  0  0  0  0  0  0
    2.6072   -3.7473   -1.0937 C   0  0  0  0  0  0  0  0  0  0  0  0
    1.8366   -5.4346   -0.9034 S   0  0  0  0  0  0  0  0  0  0  0  0
    0.4151   -5.1103   -0.4921 O   0  0  0  0  0  0  0  0  0  0  0  0
    1.7423   -5.8971   -2.6803 C   0  0  0  0  0  0  0  0  0  0  0  0
    0.4769   -5.8390   -3.2653 C   0  0  0  0  0  0  0  0  0  0  0  0
    0.3247   -6.2550   -4.5922 C   0  0  0  0  0  0  0  0  0  0  0  0
    1.4193   -6.7360   -5.3154 C   0  0  0  0  0  0  0  0  0  0  0  0
    2.6653   -6.7949   -4.6903 C   0  0  0  0  0  0  0  0  0  0  0  0
    3.7158   -7.2623   -5.3814 F   0  0  0  0  0  0  0  0  0  0  0  0
    2.8538   -6.3892   -3.3714 C   0  0  0  0  0  0  0  0  0  0  0  0
    0.4839    1.0645   -0.8646 H   0  0  0  0  0  0  0  0  0  0  0  0
    0.6005   -0.5567   -0.1278 H   0  0  0  0  0  0  0  0  0  0  0  0
    0.6598   -0.3766   -1.9018 H   0  0  0  0  0  0  0  0  0  0  0  0
    2.7802    0.7046    0.0700 H   0  0  0  0  0  0  0  0  0  0  0  0
    2.8370    0.8810   -1.7048 H   0  0  0  0  0  0  0  0  0  0  0  0
    4.9056    0.8931   -0.7558 H   0  0  0  0  0  0  0  0  0  0  0  0
    7.3364    0.5295   -0.7226 H   0  0  0  0  0  0  0  0  0  0  0  0
    8.2778   -1.7829   -0.9162 H   0  0  0  0  0  0  0  0  0  0  0  0
    6.6988   -3.7197   -1.1386 H   0  0  0  0  0  0  0  0  0  0  0  0
    2.1405   -3.2435   -1.9523 H   0  0  0  0  0  0  0  0  0  0  0  0
    2.2621   -3.2185   -0.1939 H   0  0  0  0  0  0  0  0  0  0  0  0
   -0.3600   -5.4782   -2.6626 H   0  0  0  0  0  0  0  0  0  0  0  0
   -0.6586   -6.2117   -5.0675 H   0  0  0  0  0  0  0  0  0  0  0  0
    1.3252   -7.0721   -6.3498 H   0  0  0  0  0  0  0  0  0  0  0  0
    3.8412   -6.4419   -2.9112 H   0  0  0  0  0  0  0  0  0  0  0  0
  1  2  1  0
  1 22  1  0
  1 23  1  0
  1 24  1  0
  2  3  1  0
  2 25  1  0
  2 26  1  0
  3  4  1  0
  4  5  2  0
  4  9  1  0
  5  6  1  0
  5 27  1  0
  6  7  2  0
  6 28  1  0
  7  8  1  0
  7 29  1  0
  8  9  2  0
  8 30  1  0
  9 10  1  0
 10 11  2  0
 10 12  1  0
 12 13  1  0
 12 31  1  0
 12 32  1  0
 13 14  1  6
 13 15  1  0
 15 16  2  0
 15 21  1  0
 16 17  1  0
 16 33  1  0
 17 18  2  0
 17 34  1  0
 18 19  1  0
 18 35  1  0
 19 20  1  0
 19 21  2  0
 21 36  1  0
M  CHG  2  13   1  14  -1
M  END

