
     RDKit          3D

 42 42  0  0  0  0  0  0  0  0999 V2000
    2.8861   -0.3791   -1.4242 C   0  0  0  0  0  0  0  0  0  0  0  0
    2.4061    0.0542   -0.0218 C   0  0  1  0  0  0  0  0  0  0  0  0
    2.7245    1.5426    0.2040 C   0  0  0  0  0  0  0  0  0  0  0  0
    0.8868   -0.1994    0.1388 C   0  0  0  0  0  0  0  0  0  0  0  0
   -0.0657    0.4907   -0.8403 C   0  0  0  0  0  0  0  0  0  0  0  0
   -1.4193    0.2520   -0.5099 O   0  0  0  0  0  0  0  0  0  0  0  0
    3.0386   -0.7462    1.0546 N   0  0  0  0  0  0  0  0  0  0  0  0
    4.4951   -0.8059    1.1354 C   0  0  0  0  0  0  0  0  0  0  0  0
    4.9816   -1.6116    2.3710 C   0  0  1  0  0  0  0  0  0  0  0  0
    4.7013   -0.8935    3.6779 C   0  0  0  0  0  0  0  0  0  0  0  0
    3.4315   -0.4412    3.9232 N   0  0  0  0  0  0  0  0  0  0  0  0
    5.6963   -0.7782    4.4922 N   0  0  0  0  0  0  0  0  0  0  0  0
    5.2870   -0.0889    5.6581 O   0  0  0  0  0  0  0  0  0  0  0  0
    4.5046   -3.0642    2.3187 C   0  0  0  0  0  0  0  0  0  0  0  0
    5.2044   -3.9743    1.5062 C   0  0  0  0  0  0  0  0  0  0  0  0
    4.7955   -5.3045    1.3913 C   0  0  0  0  0  0  0  0  0  0  0  0
    3.6735   -5.7561    2.0938 C   0  0  0  0  0  0  0  0  0  0  0  0
    2.9724   -4.8653    2.9097 C   0  0  0  0  0  0  0  0  0  0  0  0
    3.3817   -3.5316    3.0217 C   0  0  0  0  0  0  0  0  0  0  0  0
    2.4040    0.2101   -2.2193 H   0  0  0  0  0  0  0  0  0  0  0  0
    2.6602   -1.4432   -1.6065 H   0  0  0  0  0  0  0  0  0  0  0  0
    3.9725   -0.2412   -1.5357 H   0  0  0  0  0  0  0  0  0  0  0  0
    2.2235    2.1733   -0.5451 H   0  0  0  0  0  0  0  0  0  0  0  0
    3.8032    1.7436    0.1190 H   0  0  0  0  0  0  0  0  0  0  0  0
    2.3957    1.8636    1.2046 H   0  0  0  0  0  0  0  0  0  0  0  0
    0.5900    0.0913    1.1598 H   0  0  0  0  0  0  0  0  0  0  0  0
    0.7147   -1.2917    0.0667 H   0  0  0  0  0  0  0  0  0  0  0  0
    0.1525    0.1847   -1.8828 H   0  0  0  0  0  0  0  0  0  0  0  0
    0.0620    1.5837   -0.7981 H   0  0  0  0  0  0  0  0  0  0  0  0
   -1.5777   -0.7000   -0.5594 H   0  0  0  0  0  0  0  0  0  0  0  0
    2.6761   -1.6997    1.0093 H   0  0  0  0  0  0  0  0  0  0  0  0
    4.8967    0.2161    1.2163 H   0  0  0  0  0  0  0  0  0  0  0  0
    4.9628   -1.2608    0.2386 H   0  0  0  0  0  0  0  0  0  0  0  0
    6.0791   -1.6348    2.3046 H   0  0  0  0  0  0  0  0  0  0  0  0
    2.8569   -0.2934    3.0923 H   0  0  0  0  0  0  0  0  0  0  0  0
    3.3364    0.1878    4.7130 H   0  0  0  0  0  0  0  0  0  0  0  0
    6.1020   -0.0477    6.1710 H   0  0  0  0  0  0  0  0  0  0  0  0
    6.0921   -3.6359    0.9632 H   0  0  0  0  0  0  0  0  0  0  0  0
    5.3607   -5.9936    0.7581 H   0  0  0  0  0  0  0  0  0  0  0  0
    3.3532   -6.7979    2.0102 H   0  0  0  0  0  0  0  0  0  0  0  0
    2.0997   -5.2091    3.4717 H   0  0  0  0  0  0  0  0  0  0  0  0
    2.8346   -2.8461    3.6717 H   0  0  0  0  0  0  0  0  0  0  0  0
  1  2  1  0
  1 20  1  0
  1 21  1  0
  1 22  1  0
  2  3  1  0
  2  4  1  0
  2  7  1  1
  3 23  1  0
  3 24  1  0
  3 25  1  0
  4  5  1  0
  4 26  1  0
  4 27  1  0
  5  6  1  0
  5 28  1  0
  5 29  1  0
  6 30  1  0
  7  8  1  0
  7 31  1  0
  8  9  1  0
  8 32  1  0
  8 33  1  0
  9 10  1  0
  9 14  1  0
  9 34  1  6
 10 11  1  0
 10 12  2  0
 11 35  1  0
 11 36  1  0
 12 13  1  0
 13 37  1  0
 14 15  2  0
 14 19  1  0
 15 16  1  0
 15 38  1  0
 16 17  2  0
 16 39  1  0
 17 18  1  0
 17 40  1  0
 18 19  2  0
 18 41  1  0
 19 42  1  0
M  END

