
     RDKit          3D

 49 53  0  0  0  0  0  0  0  0999 V2000
    0.8777    0.0020   -0.2551 O   0  0  0  0  0  0  0  0  0  0  0  0
    2.0787    0.1995   -0.3091 C   0  0  0  0  0  0  0  0  0  0  0  0
    2.6977    1.3360    0.1594 N   0  0  0  0  0  0  0  0  0  0  0  0
    2.1269    2.4455    0.8124 C   0  0  0  0  0  0  0  0  0  0  0  0
    0.7643    2.5272    1.1518 C   0  0  0  0  0  0  0  0  0  0  0  0
    0.2977    3.6638    1.8147 C   0  0  0  0  0  0  0  0  0  0  0  0
    1.1449    4.7250    2.1374 C   0  0  0  0  0  0  0  0  0  0  0  0
    2.5040    4.6376    1.8043 C   0  0  0  0  0  0  0  0  0  0  0  0
    3.3895    5.6904    2.1501 N   0  0  0  0  0  0  0  0  0  0  0  0
    3.4631    6.3151    3.3882 C   0  0  0  0  0  0  0  0  0  0  0  0
    4.3775    7.2377    3.4650 N   0  0  0  0  0  0  0  0  0  0  0  0
    4.9692    7.2635    2.2129 C   0  0  0  0  0  0  0  0  0  0  0  0
    6.0008    8.0805    1.7255 C   0  0  0  0  0  0  0  0  0  0  0  0
    6.4000    7.9154    0.4016 C   0  0  0  0  0  0  0  0  0  0  0  0
    5.7827    6.9610   -0.4351 C   0  0  0  0  0  0  0  0  0  0  0  0
    4.7564    6.1374    0.0278 C   0  0  0  0  0  0  0  0  0  0  0  0
    4.3690    6.2962    1.3644 C   0  0  0  0  0  0  0  0  0  0  0  0
    2.9914    3.5008    1.1509 C   0  0  0  0  0  0  0  0  0  0  0  0
    3.0056   -0.8191   -0.9324 C   0  0  0  0  0  0  0  0  0  0  0  0
    4.3686   -0.9355   -0.6259 C   0  0  0  0  0  0  0  0  0  0  0  0
    5.1325   -1.9321   -1.2329 C   0  0  0  0  0  0  0  0  0  0  0  0
    4.5718   -2.8176   -2.1662 C   0  0  0  0  0  0  0  0  0  0  0  0
    5.4913   -3.7461   -2.9238 C   0  0  0  0  0  0  0  0  0  0  0  0
    5.5033   -3.8458   -4.1170 O   0  0  0  0  0  0  0  0  0  0  0  0
    6.3652   -4.4389   -2.1554 O   0  0  0  0  0  0  0  0  0  0  0  0
    3.1900   -2.7227   -2.4495 C   0  0  0  0  0  0  0  0  0  0  0  0
    2.5446   -3.6145   -3.3366 N   0  0  0  0  0  0  0  0  0  0  0  0
    2.6603   -4.9963   -3.3933 C   0  0  0  0  0  0  0  0  0  0  0  0
    1.8020   -5.3984   -4.3857 C   0  0  0  0  0  0  0  0  0  0  0  0
    1.1706   -4.3138   -4.9486 N   0  0  0  0  0  0  0  0  0  0  0  0
    1.6231   -3.2697   -4.3080 C   0  0  0  0  0  0  0  0  0  0  0  0
    2.4252   -1.7373   -1.8161 C   0  0  0  0  0  0  0  0  0  0  0  0
    3.6846    1.4265   -0.0483 H   0  0  0  0  0  0  0  0  0  0  0  0
    0.0951    1.7126    0.8882 H   0  0  0  0  0  0  0  0  0  0  0  0
   -0.7624    3.7276    2.0713 H   0  0  0  0  0  0  0  0  0  0  0  0
    0.7588    5.6216    2.6250 H   0  0  0  0  0  0  0  0  0  0  0  0
    2.8053    6.0030    4.2011 H   0  0  0  0  0  0  0  0  0  0  0  0
    6.4623    8.8238    2.3785 H   0  0  0  0  0  0  0  0  0  0  0  0
    7.2009    8.5390   -0.0033 H   0  0  0  0  0  0  0  0  0  0  0  0
    6.1126    6.8675   -1.4729 H   0  0  0  0  0  0  0  0  0  0  0  0
    4.2744    5.4141   -0.6321 H   0  0  0  0  0  0  0  0  0  0  0  0
    4.0577    3.4319    0.9237 H   0  0  0  0  0  0  0  0  0  0  0  0
    4.8454   -0.2770    0.1038 H   0  0  0  0  0  0  0  0  0  0  0  0
    6.1997   -1.9988   -1.0059 H   0  0  0  0  0  0  0  0  0  0  0  0
    6.1574   -4.3211   -1.2170 H   0  0  0  0  0  0  0  0  0  0  0  0
    3.3096   -5.5517   -2.7224 H   0  0  0  0  0  0  0  0  0  0  0  0
    1.6051   -6.4159   -4.7214 H   0  0  0  0  0  0  0  0  0  0  0  0
    1.3625   -2.2287   -4.5000 H   0  0  0  0  0  0  0  0  0  0  0  0
    1.3489   -1.6837   -1.9850 H   0  0  0  0  0  0  0  0  0  0  0  0
  1  2  2  0
  2  3  1  0
  2 19  1  0
  3  4  1  0
  3 33  1  0
  4  5  2  0
  4 18  1  0
  5  6  1  0
  5 34  1  0
  6  7  2  0
  6 35  1  0
  7  8  1  0
  7 36  1  0
  8  9  1  0
  8 18  2  0
  9 10  1  0
  9 17  1  0
 10 11  2  0
 10 37  1  0
 11 12  1  0
 12 13  1  0
 12 17  2  0
 13 14  2  0
 13 38  1  0
 14 15  1  0
 14 39  1  0
 15 16  2  0
 15 40  1  0
 16 17  1  0
 16 41  1  0
 18 42  1  0
 19 20  2  0
 19 32  1  0
 20 21  1  0
 20 43  1  0
 21 22  2  0
 21 44  1  0
 22 23  1  0
 22 26  1  0
 23 24  2  0
 23 25  1  0
 25 45  1  0
 26 27  1  0
 26 32  2  0
 27 28  1  0
 27 31  1  0
 28 29  2  0
 28 46  1  0
 29 30  1  0
 29 47  1  0
 30 31  2  0
 31 48  1  0
 32 49  1  0
M  END

