
     RDKit          3D

 57 60  0  0  0  0  0  0  0  0999 V2000
    0.7480    0.1955    1.7035 O   0  0  0  0  0  0  0  0  0  0  0  0
    1.7562    0.7374    1.2938 C   0  0  0  0  0  0  0  0  0  0  0  0
    1.7673    1.1895   -0.0332 N   0  0  0  0  0  0  0  0  0  0  0  0
    2.7785    1.5079   -0.9372 C   0  0  0  0  0  0  0  0  0  0  0  0
    4.0484    0.9063   -0.9669 C   0  0  0  0  0  0  0  0  0  0  0  0
    4.3800   -0.0670   -0.1087 F   0  0  0  0  0  0  0  0  0  0  0  0
    4.9524    1.3496   -1.9283 C   0  0  0  0  0  0  0  0  0  0  0  0
    6.1736    0.8163   -1.9378 F   0  0  0  0  0  0  0  0  0  0  0  0
    4.6733    2.2340   -2.8490 N   0  0  0  0  0  0  0  0  0  0  0  0
    3.4612    2.8113   -2.9128 C   0  0  0  0  0  0  0  0  0  0  0  0
    3.2349    3.7503   -3.8982 N   0  0  0  0  0  0  0  0  0  0  0  0
    1.9396    3.8697   -4.5769 C   0  0  0  0  0  0  0  0  0  0  0  0
    1.6701    5.3156   -4.9985 C   0  0  0  0  0  0  0  0  0  0  0  0
    2.8178    5.8644   -5.8521 C   0  0  0  0  0  0  0  0  0  0  0  0
    4.1578    5.6707   -5.1345 C   0  0  0  0  0  0  0  0  0  0  0  0
    4.3652    4.2154   -4.7053 C   0  0  0  0  0  0  0  0  0  0  0  0
    2.5114    2.4729   -1.9204 C   0  0  0  0  0  0  0  0  0  0  0  0
    1.3042    3.0776   -1.8608 F   0  0  0  0  0  0  0  0  0  0  0  0
    2.9259    1.0246    2.1841 C   0  0  0  0  0  0  0  0  0  0  0  0
    3.7020    2.1813    1.9959 C   0  0  0  0  0  0  0  0  0  0  0  0
    4.7418    2.5000    2.8677 C   0  0  0  0  0  0  0  0  0  0  0  0
    5.0127    1.6622    3.9525 C   0  0  0  0  0  0  0  0  0  0  0  0
    4.2224    0.5335    4.1728 C   0  0  0  0  0  0  0  0  0  0  0  0
    3.1774    0.1952    3.3017 C   0  0  0  0  0  0  0  0  0  0  0  0
    2.2873   -0.9563    3.7475 C   0  0  0  0  0  0  0  0  0  0  0  0
    1.6735   -0.8199    4.7949 O   0  0  0  0  0  0  0  0  0  0  0  0
    2.2718   -2.1120    3.0153 N   0  0  0  0  0  0  0  0  0  0  0  0
    3.0318   -2.3509    1.7961 C   0  0  0  0  0  0  0  0  0  0  0  0
    3.7545   -3.7033    1.8528 C   0  0  0  0  0  0  0  0  0  0  0  0
    2.7848   -4.8426    2.1867 C   0  0  0  0  0  0  0  0  0  0  0  0
    2.0047   -4.5271    3.4688 C   0  0  0  0  0  0  0  0  0  0  0  0
    1.3199   -3.1609    3.3763 C   0  0  0  0  0  0  0  0  0  0  0  0
    0.8244    1.2218   -0.4140 H   0  0  0  0  0  0  0  0  0  0  0  0
    1.1396    3.5075   -3.9253 H   0  0  0  0  0  0  0  0  0  0  0  0
    1.9469    3.2206   -5.4786 H   0  0  0  0  0  0  0  0  0  0  0  0
    1.5493    5.9310   -4.0899 H   0  0  0  0  0  0  0  0  0  0  0  0
    0.7154    5.3588   -5.5483 H   0  0  0  0  0  0  0  0  0  0  0  0
    2.6530    6.9284   -6.0885 H   0  0  0  0  0  0  0  0  0  0  0  0
    2.8402    5.3284   -6.8190 H   0  0  0  0  0  0  0  0  0  0  0  0
    4.1944    6.3137   -4.2376 H   0  0  0  0  0  0  0  0  0  0  0  0
    4.9964    5.9752   -5.7825 H   0  0  0  0  0  0  0  0  0  0  0  0
    5.2839    4.1012   -4.1187 H   0  0  0  0  0  0  0  0  0  0  0  0
    4.4817    3.5697   -5.6007 H   0  0  0  0  0  0  0  0  0  0  0  0
    3.4699    2.8604    1.1743 H   0  0  0  0  0  0  0  0  0  0  0  0
    5.3304    3.4062    2.7070 H   0  0  0  0  0  0  0  0  0  0  0  0
    5.8252    1.9011    4.6433 H   0  0  0  0  0  0  0  0  0  0  0  0
    4.3987   -0.0948    5.0485 H   0  0  0  0  0  0  0  0  0  0  0  0
    3.7557   -1.5418    1.6511 H   0  0  0  0  0  0  0  0  0  0  0  0
    2.3464   -2.3362    0.9252 H   0  0  0  0  0  0  0  0  0  0  0  0
    4.5438   -3.6515    2.6237 H   0  0  0  0  0  0  0  0  0  0  0  0
    4.2578   -3.8835    0.8884 H   0  0  0  0  0  0  0  0  0  0  0  0
    3.3283   -5.7969    2.2846 H   0  0  0  0  0  0  0  0  0  0  0  0
    2.0734   -4.9721    1.3497 H   0  0  0  0  0  0  0  0  0  0  0  0
    2.6936   -4.5257    4.3319 H   0  0  0  0  0  0  0  0  0  0  0  0
    1.2457   -5.3024    3.6659 H   0  0  0  0  0  0  0  0  0  0  0  0
    0.8571   -2.8699    4.3268 H   0  0  0  0  0  0  0  0  0  0  0  0
    0.5224   -3.1908    2.6075 H   0  0  0  0  0  0  0  0  0  0  0  0
  1  2  2  0
  2  3  1  0
  2 19  1  0
  3  4  1  0
  3 33  1  0
  4  5  2  0
  4 17  1  0
  5  6  1  0
  5  7  1  0
  7  8  1  0
  7  9  2  0
  9 10  1  0
 10 11  1  0
 10 17  2  0
 11 12  1  0
 11 16  1  0
 12 13  1  0
 12 34  1  0
 12 35  1  0
 13 14  1  0
 13 36  1  0
 13 37  1  0
 14 15  1  0
 14 38  1  0
 14 39  1  0
 15 16  1  0
 15 40  1  0
 15 41  1  0
 16 42  1  0
 16 43  1  0
 17 18  1  0
 19 20  2  0
 19 24  1  0
 20 21  1  0
 20 44  1  0
 21 22  2  0
 21 45  1  0
 22 23  1  0
 22 46  1  0
 23 24  2  0
 23 47  1  0
 24 25  1  0
 25 26  2  0
 25 27  1  0
 27 28  1  0
 27 32  1  0
 28 29  1  0
 28 48  1  0
 28 49  1  0
 29 30  1  0
 29 50  1  0
 29 51  1  0
 30 31  1  0
 30 52  1  0
 30 53  1  0
 31 32  1  0
 31 54  1  0
 31 55  1  0
 32 56  1  0
 32 57  1  0
M  END

