
     RDKit          3D

 46 49  0  0  0  0  0  0  0  0999 V2000
   -0.5598    0.8063   -0.2995 C   0  0  0  0  0  0  0  0  0  0  0  0
   -0.7865   -0.5118    0.0738 C   0  0  0  0  0  0  0  0  0  0  0  0
    0.3660   -1.3239    0.2235 C   0  0  0  0  0  0  0  0  0  0  0  0
    0.1997   -2.6358    0.6042 N   0  0  0  0  0  0  0  0  0  0  0  0
    1.1083   -3.6784    0.8476 C   0  0  0  0  0  0  0  0  0  0  0  0
    0.5620   -4.9354    1.1750 C   0  0  0  0  0  0  0  0  0  0  0  0
    1.3710   -6.0527    1.4441 C   0  0  0  0  0  0  0  0  0  0  0  0
    2.7400   -5.8743    1.3701 C   0  0  0  0  0  0  0  0  0  0  0  0
    3.2843   -4.6309    1.0466 C   0  0  0  0  0  0  0  0  0  0  0  0
    2.5143   -3.5137    0.7822 C   0  0  0  0  0  0  0  0  0  0  0  0
    4.6506   -4.7193    1.0732 O   0  0  0  0  0  0  0  0  0  0  0  0
    4.9494   -6.1046    1.2212 C   0  0  0  0  0  0  0  0  0  0  0  0
    3.7534   -6.7678    1.6117 O   0  0  0  0  0  0  0  0  0  0  0  0
    1.5881   -0.8334    0.0060 N   0  0  0  0  0  0  0  0  0  0  0  0
    1.6786    0.4580   -0.3677 C   0  0  0  0  0  0  0  0  0  0  0  0
    2.9161    0.9558   -0.6238 N   0  0  0  0  0  0  0  0  0  0  0  0
    4.1604    0.2660   -0.3925 C   0  0  0  0  0  0  0  0  0  0  0  0
    5.3038    1.0227   -1.0775 C   0  0  0  0  0  0  0  0  0  0  0  0
    5.3181    2.4407   -0.7250 N   0  0  0  0  0  0  0  0  0  0  0  0
    5.8109    2.7554    0.6198 C   0  0  0  0  0  0  0  0  0  0  0  0
    7.3402    2.8266    0.6809 C   0  0  0  0  0  0  0  0  0  0  0  0
    7.8455    3.7377   -0.2777 O   0  0  0  0  0  0  0  0  0  0  0  0
    7.4516    3.3976   -1.5944 C   0  0  0  0  0  0  0  0  0  0  0  0
    5.9253    3.3414   -1.7062 C   0  0  0  0  0  0  0  0  0  0  0  0
    0.6510    1.3156   -0.5243 N   0  0  0  0  0  0  0  0  0  0  0  0
   -1.4075    1.4922   -0.4228 H   0  0  0  0  0  0  0  0  0  0  0  0
   -1.7934   -0.8944    0.2497 H   0  0  0  0  0  0  0  0  0  0  0  0
   -0.7688   -2.9026    0.7277 H   0  0  0  0  0  0  0  0  0  0  0  0
   -0.5247   -5.0493    1.2199 H   0  0  0  0  0  0  0  0  0  0  0  0
    0.9352   -7.0190    1.7020 H   0  0  0  0  0  0  0  0  0  0  0  0
    2.9455   -2.5490    0.5361 H   0  0  0  0  0  0  0  0  0  0  0  0
    5.7202   -6.2374    1.9975 H   0  0  0  0  0  0  0  0  0  0  0  0
    5.3059   -6.5125    0.2529 H   0  0  0  0  0  0  0  0  0  0  0  0
    2.9802    1.9598   -0.7640 H   0  0  0  0  0  0  0  0  0  0  0  0
    4.1102   -0.7538   -0.8054 H   0  0  0  0  0  0  0  0  0  0  0  0
    4.3639    0.1443    0.6907 H   0  0  0  0  0  0  0  0  0  0  0  0
    5.1536    0.9586   -2.1673 H   0  0  0  0  0  0  0  0  0  0  0  0
    6.2524    0.4895   -0.8567 H   0  0  0  0  0  0  0  0  0  0  0  0
    5.4304    2.0165    1.3422 H   0  0  0  0  0  0  0  0  0  0  0  0
    5.4037    3.7386    0.9162 H   0  0  0  0  0  0  0  0  0  0  0  0
    7.7815    1.8199    0.5198 H   0  0  0  0  0  0  0  0  0  0  0  0
    7.6746    3.1817    1.6685 H   0  0  0  0  0  0  0  0  0  0  0  0
    7.8964    2.4227   -1.8883 H   0  0  0  0  0  0  0  0  0  0  0  0
    7.8659    4.1694   -2.2625 H   0  0  0  0  0  0  0  0  0  0  0  0
    5.6202    3.0403   -2.7215 H   0  0  0  0  0  0  0  0  0  0  0  0
    5.5299    4.3584   -1.5304 H   0  0  0  0  0  0  0  0  0  0  0  0
  1  2  2  0
  1 25  1  0
  1 26  1  0
  2  3  1  0
  2 27  1  0
  3  4  1  0
  3 14  2  0
  4  5  1  0
  4 28  1  0
  5  6  2  0
  5 10  1  0
  6  7  1  0
  6 29  1  0
  7  8  2  0
  7 30  1  0
  8  9  1  0
  8 13  1  0
  9 10  2  0
  9 11  1  0
 10 31  1  0
 11 12  1  0
 12 13  1  0
 12 32  1  0
 12 33  1  0
 14 15  1  0
 15 16  1  0
 15 25  2  0
 16 17  1  0
 16 34  1  0
 17 18  1  0
 17 35  1  0
 17 36  1  0
 18 19  1  0
 18 37  1  0
 18 38  1  0
 19 20  1  0
 19 24  1  0
 20 21  1  0
 20 39  1  0
 20 40  1  0
 21 22  1  0
 21 41  1  0
 21 42  1  0
 22 23  1  0
 23 24  1  0
 23 43  1  0
 23 44  1  0
 24 45  1  0
 24 46  1  0
M  END

