
     RDKit          3D

 29 30  0  0  0  0  0  0  0  0999 V2000
    2.3373    3.6155   -1.1289 C   0  0  0  0  0  0  0  0  0  0  0  0
    2.1875    2.5469   -0.1530 N   0  0  0  0  0  0  0  0  0  0  0  0
    2.9620    1.3396   -0.4513 C   0  0  0  0  0  0  0  0  0  0  0  0
    4.4320    1.5001   -0.2231 C   0  0  0  0  0  0  0  0  0  0  0  0
    5.1941    1.8378   -1.3060 O   0  0  0  0  0  0  0  0  0  0  0  0
    6.4761    1.9631   -0.8845 C   0  0  0  0  0  0  0  0  0  0  0  0
    6.5610    1.7145    0.4536 C   0  0  0  0  0  0  0  0  0  0  0  0
    5.2254    1.4087    0.8944 C   0  0  0  0  0  0  0  0  0  0  0  0
    4.7917    1.0849    2.3004 C   0  0  0  0  0  0  0  0  0  0  0  0
    4.6885    2.2956    3.2128 C   0  0  0  0  0  0  0  0  0  0  0  0
    3.7737    3.3295    2.9601 C   0  0  0  0  0  0  0  0  0  0  0  0
    3.7215    4.4127    3.8367 C   0  0  0  0  0  0  0  0  0  0  0  0
    4.5878    4.4323    4.9361 C   0  0  0  0  0  0  0  0  0  0  0  0
    5.4638    3.4592    5.1894 N   0  0  0  0  0  0  0  0  0  0  0  0
    5.5044    2.4243    4.3462 C   0  0  0  0  0  0  0  0  0  0  0  0
    1.6849    4.4599   -0.8580 H   0  0  0  0  0  0  0  0  0  0  0  0
    2.0980    3.3121   -2.1717 H   0  0  0  0  0  0  0  0  0  0  0  0
    3.3748    3.9842   -1.1278 H   0  0  0  0  0  0  0  0  0  0  0  0
    1.2042    2.2946   -0.0643 H   0  0  0  0  0  0  0  0  0  0  0  0
    2.8216    0.9894   -1.4971 H   0  0  0  0  0  0  0  0  0  0  0  0
    2.5929    0.5376    0.2077 H   0  0  0  0  0  0  0  0  0  0  0  0
    7.2089    2.2236   -1.6441 H   0  0  0  0  0  0  0  0  0  0  0  0
    7.4624    1.7397    1.0632 H   0  0  0  0  0  0  0  0  0  0  0  0
    5.4988    0.3653    2.7445 H   0  0  0  0  0  0  0  0  0  0  0  0
    3.8133    0.5771    2.2684 H   0  0  0  0  0  0  0  0  0  0  0  0
    3.1200    3.2747    2.0817 H   0  0  0  0  0  0  0  0  0  0  0  0
    3.0202    5.2351    3.6736 H   0  0  0  0  0  0  0  0  0  0  0  0
    4.5698    5.2732    5.6404 H   0  0  0  0  0  0  0  0  0  0  0  0
    6.2321    1.6354    4.5802 H   0  0  0  0  0  0  0  0  0  0  0  0
  1  2  1  0
  1 16  1  0
  1 17  1  0
  1 18  1  0
  2  3  1  0
  2 19  1  0
  3  4  1  0
  3 20  1  0
  3 21  1  0
  4  5  1  0
  4  8  2  0
  5  6  1  0
  6  7  2  0
  6 22  1  0
  7  8  1  0
  7 23  1  0
  8  9  1  0
  9 10  1  0
  9 24  1  0
  9 25  1  0
 10 11  2  0
 10 15  1  0
 11 12  1  0
 11 26  1  0
 12 13  2  0
 12 27  1  0
 13 14  1  0
 13 28  1  0
 14 15  2  0
 15 29  1  0
M  END

