
     RDKit          3D

 32 32  0  0  0  0  0  0  0  0999 V2000
    0.8474   -1.1525   -0.5262 C   0  0  0  0  0  0  0  0  0  0  0  0
    2.2188   -0.6613   -0.6049 N   0  0  0  0  0  0  0  0  0  0  0  0
    2.5225    0.1606   -1.7542 C   0  0  0  0  0  0  0  0  0  0  0  0
    1.8863    1.5636   -1.6767 C   0  0  0  0  0  0  0  0  0  0  0  0
    1.4308    2.0114   -0.6395 O   0  0  0  0  0  0  0  0  0  0  0  0
    1.9046    2.2506   -2.8548 N   0  0  0  0  0  0  0  0  0  0  0  0
    1.4736    3.6298   -2.9558 C   0  0  0  0  0  0  0  0  0  0  0  0
    2.6379    4.6263   -2.9721 C   0  0  0  0  0  0  0  0  0  0  0  0
    3.5785    4.4138   -4.1510 C   0  0  0  0  0  0  0  0  0  0  0  0
    3.4965    3.4918   -4.9215 O   0  0  0  0  0  0  0  0  0  0  0  0
    4.5562    5.3311   -4.2957 O   0  0  0  0  0  0  0  0  0  0  0  0
    2.9060   -0.5734    0.5940 C   0  0  0  0  0  0  0  0  0  0  0  0
    2.3927   -0.8828    1.6569 O   0  0  0  0  0  0  0  0  0  0  0  0
    4.3424   -0.1546    0.5567 C   0  0  0  0  0  0  0  0  0  0  0  0
    5.3684   -0.4993   -0.3006 C   0  0  0  0  0  0  0  0  0  0  0  0
    6.6371   -0.0050    0.1194 C   0  0  0  0  0  0  0  0  0  0  0  0
    6.5565    0.7065    1.2929 C   0  0  0  0  0  0  0  0  0  0  0  0
    4.9469    0.7585    1.9082 S   0  0  0  0  0  0  0  0  0  0  0  0
    0.5698   -1.6087   -1.4895 H   0  0  0  0  0  0  0  0  0  0  0  0
    0.1398   -0.3392   -0.2915 H   0  0  0  0  0  0  0  0  0  0  0  0
    0.7790   -1.9027    0.2699 H   0  0  0  0  0  0  0  0  0  0  0  0
    2.1843   -0.3500   -2.6722 H   0  0  0  0  0  0  0  0  0  0  0  0
    3.6061    0.3045   -1.8531 H   0  0  0  0  0  0  0  0  0  0  0  0
    2.3889    1.8718   -3.6626 H   0  0  0  0  0  0  0  0  0  0  0  0
    0.8317    3.8331   -2.0882 H   0  0  0  0  0  0  0  0  0  0  0  0
    0.8722    3.7559   -3.8702 H   0  0  0  0  0  0  0  0  0  0  0  0
    3.2224    4.5423   -2.0381 H   0  0  0  0  0  0  0  0  0  0  0  0
    2.2493    5.6603   -3.0050 H   0  0  0  0  0  0  0  0  0  0  0  0
    4.4954    6.0097   -3.6077 H   0  0  0  0  0  0  0  0  0  0  0  0
    5.2253   -1.1206   -1.1863 H   0  0  0  0  0  0  0  0  0  0  0  0
    7.5691   -0.1755   -0.4220 H   0  0  0  0  0  0  0  0  0  0  0  0
    7.3639    1.2019    1.8311 H   0  0  0  0  0  0  0  0  0  0  0  0
  1  2  1  0
  1 19  1  0
  1 20  1  0
  1 21  1  0
  2  3  1  0
  2 12  1  0
  3  4  1  0
  3 22  1  0
  3 23  1  0
  4  5  2  0
  4  6  1  0
  6  7  1  0
  6 24  1  0
  7  8  1  0
  7 25  1  0
  7 26  1  0
  8  9  1  0
  8 27  1  0
  8 28  1  0
  9 10  2  0
  9 11  1  0
 11 29  1  0
 12 13  2  0
 12 14  1  0
 14 15  2  0
 14 18  1  0
 15 16  1  0
 15 30  1  0
 16 17  2  0
 16 31  1  0
 17 18  1  0
 17 32  1  0
M  END

