
     RDKit          3D

 43 44  0  0  0  0  0  0  0  0999 V2000
    6.3735   -1.6184    2.8373 C   0  0  0  0  0  0  0  0  0  0  0  0
    6.1915   -2.0806    1.3875 C   0  0  1  0  0  0  0  0  0  0  0  0
    5.7418   -3.5437    1.3169 C   0  0  0  0  0  0  0  0  0  0  0  0
    5.2085   -1.1740    0.6138 C   0  0  0  0  0  0  0  0  0  0  0  0
    5.6748    0.2409    0.4737 C   0  0  0  0  0  0  0  0  0  0  0  0
    6.8035    0.6430   -0.0880 N   0  0  0  0  0  0  0  0  0  0  0  0
    6.7620    2.0062    0.0419 C   0  0  0  0  0  0  0  0  0  0  0  0
    7.7396    2.8272   -0.4698 N   0  0  0  0  0  0  0  0  0  0  0  0
    9.0457    2.2593   -0.7770 C   0  0  0  0  0  0  0  0  0  0  0  0
    9.7513    3.0804   -1.8584 C   0  0  0  0  0  0  0  0  0  0  0  0
    9.8462    4.5787   -1.5059 C   0  0  2  0  0  0  0  0  0  0  0  0
   10.8675    4.9207   -0.3887 C   0  0  1  0  0  0  0  0  0  0  0  0
   12.2761    4.3760   -0.6767 C   0  0  0  0  0  0  0  0  0  0  0  0
   10.8549    6.3714   -0.1712 N   0  0  0  0  0  0  0  0  0  0  0  0
    8.4249    5.0860   -1.1852 C   0  0  0  0  0  0  0  0  0  0  0  0
    7.7151    4.2432   -0.1227 C   0  0  0  0  0  0  0  0  0  0  0  0
    5.6785    2.4668    0.6677 N   0  0  0  0  0  0  0  0  0  0  0  0
    4.9973    1.3176    0.9240 N   0  0  0  0  0  0  0  0  0  0  0  0
    4.1068    1.3510    1.4048 H   0  0  0  0  0  0  0  0  0  0  0  0
    7.1036   -2.2530    3.3649 H   0  0  0  0  0  0  0  0  0  0  0  0
    5.4221   -1.6750    3.3955 H   0  0  0  0  0  0  0  0  0  0  0  0
    6.7368   -0.5802    2.8911 H   0  0  0  0  0  0  0  0  0  0  0  0
    7.1656   -1.9894    0.8758 H   0  0  0  0  0  0  0  0  0  0  0  0
    4.7598   -3.6830    1.8019 H   0  0  0  0  0  0  0  0  0  0  0  0
    6.4598   -4.2048    1.8280 H   0  0  0  0  0  0  0  0  0  0  0  0
    5.6507   -3.8899    0.2745 H   0  0  0  0  0  0  0  0  0  0  0  0
    4.2198   -1.1871    1.1059 H   0  0  0  0  0  0  0  0  0  0  0  0
    5.0623   -1.5902   -0.3976 H   0  0  0  0  0  0  0  0  0  0  0  0
    8.8968    1.2245   -1.1109 H   0  0  0  0  0  0  0  0  0  0  0  0
    9.6757    2.2071    0.1387 H   0  0  0  0  0  0  0  0  0  0  0  0
    9.1728    2.9842   -2.7929 H   0  0  0  0  0  0  0  0  0  0  0  0
   10.7425    2.6451   -2.0586 H   0  0  0  0  0  0  0  0  0  0  0  0
   10.1996    5.1126   -2.4095 H   0  0  0  0  0  0  0  0  0  0  0  0
   10.5205    4.4659    0.5562 H   0  0  0  0  0  0  0  0  0  0  0  0
   12.6450    4.7359   -1.6537 H   0  0  0  0  0  0  0  0  0  0  0  0
   12.3188    3.2757   -0.6856 H   0  0  0  0  0  0  0  0  0  0  0  0
   12.9825    4.7236    0.0953 H   0  0  0  0  0  0  0  0  0  0  0  0
   11.2430    6.8472   -0.9890 H   0  0  0  0  0  0  0  0  0  0  0  0
   11.4611    6.6174    0.6116 H   0  0  0  0  0  0  0  0  0  0  0  0
    7.8249    5.0565   -2.1109 H   0  0  0  0  0  0  0  0  0  0  0  0
    8.4735    6.1299   -0.8455 H   0  0  0  0  0  0  0  0  0  0  0  0
    6.6658    4.5527   -0.0276 H   0  0  0  0  0  0  0  0  0  0  0  0
    8.1767    4.4078    0.8746 H   0  0  0  0  0  0  0  0  0  0  0  0
  1  2  1  0
  1 20  1  0
  1 21  1  0
  1 22  1  0
  2  3  1  0
  2  4  1  0
  2 23  1  6
  3 24  1  0
  3 25  1  0
  3 26  1  0
  4  5  1  0
  4 27  1  0
  4 28  1  0
  5  6  2  0
  5 18  1  0
  6  7  1  0
  7  8  1  0
  7 17  2  0
  8  9  1  0
  8 16  1  0
  9 10  1  0
  9 29  1  0
  9 30  1  0
 10 11  1  0
 10 31  1  0
 10 32  1  0
 11 12  1  0
 11 15  1  0
 11 33  1  6
 12 13  1  0
 12 14  1  0
 12 34  1  1
 13 35  1  0
 13 36  1  0
 13 37  1  0
 14 38  1  0
 14 39  1  0
 15 16  1  0
 15 40  1  0
 15 41  1  0
 16 42  1  0
 16 43  1  0
 17 18  1  0
 18 19  1  0
M  END

