
     RDKit          3D

 61 63  0  0  0  0  0  0  0  0999 V2000
   12.0163  -13.4847    5.1965 C   0  0  0  0  0  0  0  0  0  0  0  0
   12.2153  -12.3775    4.1753 C   0  0  0  0  0  0  0  0  0  0  0  0
   11.4662  -12.6249    2.9695 O   0  0  0  0  0  0  0  0  0  0  0  0
   12.0461  -13.3868    2.0221 C   0  0  0  0  0  0  0  0  0  0  0  0
   13.1411  -13.8725    2.1018 O   0  0  0  0  0  0  0  0  0  0  0  0
   11.0886  -13.5167    0.8467 C   0  0  0  0  0  0  0  0  0  0  0  0
   11.6750  -14.3199   -0.1333 O   0  0  0  0  0  0  0  0  0  0  0  0
   10.9935  -14.5768   -1.2850 C   0  0  0  0  0  0  0  0  0  0  0  0
   11.6439  -15.3970   -2.2172 C   0  0  0  0  0  0  0  0  0  0  0  0
   11.0105  -15.7039   -3.4170 C   0  0  0  0  0  0  0  0  0  0  0  0
    9.7293  -15.2196   -3.7323 C   0  0  0  0  0  0  0  0  0  0  0  0
    9.0773  -14.3968   -2.7926 C   0  0  0  0  0  0  0  0  0  0  0  0
    9.7162  -14.0821   -1.5797 C   0  0  0  0  0  0  0  0  0  0  0  0
    7.7011  -13.8292   -3.0647 C   0  0  0  0  0  0  0  0  0  0  0  0
    7.6094  -12.8183   -4.2445 C   0  0  2  0  0  0  0  0  0  0  0  0
    8.4942  -12.1576   -4.1910 H   0  0  0  0  0  0  0  0  0  0  0  0
    6.4330  -11.9551   -4.1669 N   0  0  0  0  0  0  0  0  0  0  0  0
    6.4115  -10.9455   -3.1268 C   0  0  0  0  0  0  0  0  0  0  0  0
    5.1179  -10.1356   -3.1867 C   0  0  2  0  0  0  0  0  0  0  0  0
    5.1450   -9.3782   -2.3760 H   0  0  0  0  0  0  0  0  0  0  0  0
    4.0443  -11.0358   -2.9842 O   0  0  0  0  0  0  0  0  0  0  0  0
    4.9431   -9.3978   -4.5113 C   0  0  0  0  0  0  0  0  0  0  0  0
    3.6578   -8.7916   -4.4625 O   0  0  0  0  0  0  0  0  0  0  0  0
    3.1823   -8.1048   -5.5383 C   0  0  0  0  0  0  0  0  0  0  0  0
    1.9006   -7.5449   -5.3993 C   0  0  0  0  0  0  0  0  0  0  0  0
    1.3355   -6.8248   -6.4489 C   0  0  0  0  0  0  0  0  0  0  0  0
    2.0351   -6.6501   -7.6504 C   0  0  0  0  0  0  0  0  0  0  0  0
    3.3076   -7.2064   -7.7833 C   0  0  0  0  0  0  0  0  0  0  0  0
    3.8900   -7.9333   -6.7371 C   0  0  0  0  0  0  0  0  0  0  0  0
    7.5984  -13.5094   -5.6166 C   0  0  0  0  0  0  0  0  0  0  0  0
    8.8169  -14.3640   -5.9817 C   0  0  0  0  0  0  0  0  0  0  0  0
    9.0896  -15.5681   -5.0593 C   0  0  0  0  0  0  0  0  0  0  0  0
   12.5380  -13.2287    6.1326 H   0  0  0  0  0  0  0  0  0  0  0  0
   12.4270  -14.4359    4.8267 H   0  0  0  0  0  0  0  0  0  0  0  0
   10.9480  -13.6234    5.4250 H   0  0  0  0  0  0  0  0  0  0  0  0
   13.2788  -12.2671    3.9163 H   0  0  0  0  0  0  0  0  0  0  0  0
   11.8346  -11.4156    4.5481 H   0  0  0  0  0  0  0  0  0  0  0  0
   10.8606  -12.4982    0.4770 H   0  0  0  0  0  0  0  0  0  0  0  0
   10.1367  -13.9379    1.2238 H   0  0  0  0  0  0  0  0  0  0  0  0
   12.6385  -15.7778   -1.9780 H   0  0  0  0  0  0  0  0  0  0  0  0
   11.5265  -16.3450   -4.1379 H   0  0  0  0  0  0  0  0  0  0  0  0
    9.1897  -13.4457   -0.8671 H   0  0  0  0  0  0  0  0  0  0  0  0
    7.3462  -13.3295   -2.1508 H   0  0  0  0  0  0  0  0  0  0  0  0
    6.9851  -14.6483   -3.2636 H   0  0  0  0  0  0  0  0  0  0  0  0
    5.5764  -12.5070   -4.1089 H   0  0  0  0  0  0  0  0  0  0  0  0
    7.2710  -10.2645   -3.2608 H   0  0  0  0  0  0  0  0  0  0  0  0
    6.4910  -11.3515   -2.0945 H   0  0  0  0  0  0  0  0  0  0  0  0
    3.2352  -10.5594   -3.2218 H   0  0  0  0  0  0  0  0  0  0  0  0
    5.0108  -10.1130   -5.3471 H   0  0  0  0  0  0  0  0  0  0  0  0
    5.7305   -8.6318   -4.6366 H   0  0  0  0  0  0  0  0  0  0  0  0
    1.3693   -7.6875   -4.4558 H   0  0  0  0  0  0  0  0  0  0  0  0
    0.3379   -6.3943   -6.3283 H   0  0  0  0  0  0  0  0  0  0  0  0
    1.5900   -6.0848   -8.4722 H   0  0  0  0  0  0  0  0  0  0  0  0
    3.8661   -7.0783   -8.7144 H   0  0  0  0  0  0  0  0  0  0  0  0
    4.8852   -8.3587   -6.8663 H   0  0  0  0  0  0  0  0  0  0  0  0
    7.4625  -12.7233   -6.3767 H   0  0  0  0  0  0  0  0  0  0  0  0
    6.6901  -14.1408   -5.6691 H   0  0  0  0  0  0  0  0  0  0  0  0
    9.7216  -13.7318   -6.0220 H   0  0  0  0  0  0  0  0  0  0  0  0
    8.6620  -14.7406   -7.0074 H   0  0  0  0  0  0  0  0  0  0  0  0
    9.7498  -16.2753   -5.5859 H   0  0  0  0  0  0  0  0  0  0  0  0
    8.1392  -16.1104   -4.8940 H   0  0  0  0  0  0  0  0  0  0  0  0
  1  2  1  0
  1 33  1  0
  1 34  1  0
  1 35  1  0
  2  3  1  0
  2 36  1  0
  2 37  1  0
  3  4  1  0
  4  5  2  0
  4  6  1  0
  6  7  1  0
  6 38  1  0
  6 39  1  0
  7  8  1  0
  8  9  2  0
  8 13  1  0
  9 10  1  0
  9 40  1  0
 10 11  2  0
 10 41  1  0
 11 12  1  0
 11 32  1  0
 12 13  2  0
 12 14  1  0
 13 42  1  0
 14 15  1  0
 14 43  1  0
 14 44  1  0
 15 16  1  6
 15 17  1  0
 15 30  1  0
 17 18  1  0
 17 45  1  0
 18 19  1  0
 18 46  1  0
 18 47  1  0
 19 20  1  1
 19 21  1  0
 19 22  1  0
 21 48  1  0
 22 23  1  0
 22 49  1  0
 22 50  1  0
 23 24  1  0
 24 25  2  0
 24 29  1  0
 25 26  1  0
 25 51  1  0
 26 27  2  0
 26 52  1  0
 27 28  1  0
 27 53  1  0
 28 29  2  0
 28 54  1  0
 29 55  1  0
 30 31  1  0
 30 56  1  0
 30 57  1  0
 31 32  1  0
 31 58  1  0
 31 59  1  0
 32 60  1  0
 32 61  1  0
M  END

