
     RDKit          3D

 32 33  0  0  0  0  0  0  0  0999 V2000
    1.1476    0.1294    2.6353 C   0  0  0  0  0  0  0  0  0  0  0  0
    1.2506   -0.7298    1.5122 O   0  0  0  0  0  0  0  0  0  0  0  0
    2.4788   -1.2076    1.1321 C   0  0  0  0  0  0  0  0  0  0  0  0
    3.6819   -0.7939    1.7161 C   0  0  0  0  0  0  0  0  0  0  0  0
    4.8951   -1.3122    1.2495 C   0  0  0  0  0  0  0  0  0  0  0  0
    4.9121   -2.2380    0.2074 C   0  0  0  0  0  0  0  0  0  0  0  0
    3.7039   -2.6512   -0.3634 C   0  0  0  0  0  0  0  0  0  0  0  0
    2.4743   -2.1566    0.0843 C   0  0  0  0  0  0  0  0  0  0  0  0
    1.1745   -2.6322   -0.5357 C   0  0  0  0  0  0  0  0  0  0  0  0
    0.6234   -1.7118   -1.6256 C   0  0  0  0  0  0  0  0  0  0  0  0
    0.5189   -2.0396   -2.7927 O   0  0  0  0  0  0  0  0  0  0  0  0
    0.2403   -0.4638   -1.1840 N   0  0  0  0  0  0  0  0  0  0  0  0
   -0.2678    0.5404   -1.9819 C   0  0  0  0  0  0  0  0  0  0  0  0
   -0.5966    1.7024   -1.4931 N   0  0  0  0  0  0  0  0  0  0  0  0
   -1.0738    2.5162   -2.4846 C   0  0  0  0  0  0  0  0  0  0  0  0
   -1.5094    3.9097   -2.1265 C   0  0  1  0  0  0  0  0  0  0  0  0
   -2.5070    3.9042   -1.2269 F   0  0  0  0  0  0  0  0  0  0  0  0
   -0.5040    4.6249   -1.5955 F   0  0  0  0  0  0  0  0  0  0  0  0
   -1.9472    4.5703   -3.2137 F   0  0  0  0  0  0  0  0  0  0  0  0
   -1.1156    1.9832   -3.7425 C   0  0  0  0  0  0  0  0  0  0  0  0
   -0.5217    0.3504   -3.7126 S   0  0  0  0  0  0  0  0  0  0  0  0
    0.0776    0.3321    2.7738 H   0  0  0  0  0  0  0  0  0  0  0  0
    1.6745    1.0840    2.4671 H   0  0  0  0  0  0  0  0  0  0  0  0
    1.5473   -0.3524    3.5436 H   0  0  0  0  0  0  0  0  0  0  0  0
    3.6855   -0.0659    2.5271 H   0  0  0  0  0  0  0  0  0  0  0  0
    5.8295   -0.9811    1.7093 H   0  0  0  0  0  0  0  0  0  0  0  0
    5.8579   -2.6427   -0.1593 H   0  0  0  0  0  0  0  0  0  0  0  0
    3.7094   -3.3847   -1.1742 H   0  0  0  0  0  0  0  0  0  0  0  0
    0.4063   -2.7390    0.2477 H   0  0  0  0  0  0  0  0  0  0  0  0
    1.3188   -3.6083   -1.0148 H   0  0  0  0  0  0  0  0  0  0  0  0
    0.3643   -0.2347   -0.1960 H   0  0  0  0  0  0  0  0  0  0  0  0
   -1.4561    2.4537   -4.6620 H   0  0  0  0  0  0  0  0  0  0  0  0
  1  2  1  0
  1 22  1  0
  1 23  1  0
  1 24  1  0
  2  3  1  0
  3  4  2  0
  3  8  1  0
  4  5  1  0
  4 25  1  0
  5  6  2  0
  5 26  1  0
  6  7  1  0
  6 27  1  0
  7  8  2  0
  7 28  1  0
  8  9  1  0
  9 10  1  0
  9 29  1  0
  9 30  1  0
 10 11  2  0
 10 12  1  0
 12 13  1  0
 12 31  1  0
 13 14  2  0
 13 21  1  0
 14 15  1  0
 15 16  1  0
 15 20  2  0
 16 17  1  1
 16 18  1  0
 16 19  1  0
 20 21  1  0
 20 32  1  0
M  END

