
     RDKit          3D

 45 48  0  0  0  0  0  0  0  0999 V2000
    2.1457   -2.9084   -6.1055 C   0  0  0  0  0  0  0  0  0  0  0  0
    2.7461   -2.6803   -4.8093 N   0  0  0  0  0  0  0  0  0  0  0  0
    2.2102   -1.7915   -3.9395 N   0  0  0  0  0  0  0  0  0  0  0  0
    2.9742   -1.8149   -2.8572 C   0  0  0  0  0  0  0  0  0  0  0  0
    4.0413   -2.7373   -3.0130 C   0  0  0  0  0  0  0  0  0  0  0  0
    5.1480   -3.1884   -2.2054 C   0  0  0  0  0  0  0  0  0  0  0  0
    5.4591   -2.8482   -1.0804 O   0  0  0  0  0  0  0  0  0  0  0  0
    5.9360   -4.1610   -2.9212 N   0  0  0  0  0  0  0  0  0  0  0  0
    7.0563   -4.7476   -2.2047 C   0  0  0  0  0  0  0  0  0  0  0  0
    6.6557   -6.0938   -1.5902 C   0  0  0  0  0  0  0  0  0  0  0  0
    5.5063   -6.4739   -1.6566 O   0  0  0  0  0  0  0  0  0  0  0  0
    7.6368   -6.9078   -0.9835 N   0  0  0  0  0  0  0  0  0  0  0  0
    7.1647   -8.1997   -0.4529 C   0  0  0  0  0  0  0  0  0  0  0  0
    7.9090   -9.3793   -1.0647 C   0  0  0  0  0  0  0  0  0  0  0  0
    9.3448   -9.4307   -0.5709 C   0  0  0  0  0  0  0  0  0  0  0  0
   10.2451   -7.8374   -0.7680 S   0  0  0  0  0  0  0  0  0  0  0  0
    8.9836   -6.5461   -0.8206 C   0  0  0  0  0  0  0  0  0  0  0  0
    9.3241   -5.3209   -0.7618 N   0  0  0  0  0  0  0  0  0  0  0  0
   10.6319   -4.8286   -0.7271 C   0  0  0  0  0  0  0  0  0  0  0  0
   11.0330   -4.0345    0.3633 C   0  0  0  0  0  0  0  0  0  0  0  0
   12.3084   -3.4793    0.3985 C   0  0  0  0  0  0  0  0  0  0  0  0
   13.2070   -3.6774   -0.6569 C   0  0  0  0  0  0  0  0  0  0  0  0
   14.7892   -2.9561   -0.5827 Cl  0  0  0  0  0  0  0  0  0  0  0  0
   12.8053   -4.4489   -1.7593 C   0  0  0  0  0  0  0  0  0  0  0  0
   13.8759   -4.7140   -3.1077 Cl  0  0  0  0  0  0  0  0  0  0  0  0
   11.5302   -5.0198   -1.7913 C   0  0  0  0  0  0  0  0  0  0  0  0
    5.6191   -4.6131   -4.1757 C   0  0  0  0  0  0  0  0  0  0  0  0
    4.6231   -4.2149   -4.9050 N   0  0  0  0  0  0  0  0  0  0  0  0
    3.8518   -3.2762   -4.2937 C   0  0  0  0  0  0  0  0  0  0  0  0
    2.1248   -1.9730   -6.6846 H   0  0  0  0  0  0  0  0  0  0  0  0
    1.1156   -3.2773   -5.9882 H   0  0  0  0  0  0  0  0  0  0  0  0
    2.7498   -3.6579   -6.6324 H   0  0  0  0  0  0  0  0  0  0  0  0
    2.7449   -1.1778   -2.0041 H   0  0  0  0  0  0  0  0  0  0  0  0
    7.3378   -4.0581   -1.4015 H   0  0  0  0  0  0  0  0  0  0  0  0
    7.9279   -4.8534   -2.8654 H   0  0  0  0  0  0  0  0  0  0  0  0
    6.0947   -8.2425   -0.6796 H   0  0  0  0  0  0  0  0  0  0  0  0
    7.2768   -8.2005    0.6455 H   0  0  0  0  0  0  0  0  0  0  0  0
    7.8720   -9.3095   -2.1643 H   0  0  0  0  0  0  0  0  0  0  0  0
    7.4010  -10.3161   -0.7804 H   0  0  0  0  0  0  0  0  0  0  0  0
    9.9489  -10.1669   -1.1215 H   0  0  0  0  0  0  0  0  0  0  0  0
    9.3781   -9.6962    0.4972 H   0  0  0  0  0  0  0  0  0  0  0  0
   10.3305   -3.8609    1.1800 H   0  0  0  0  0  0  0  0  0  0  0  0
   12.6234   -2.8718    1.2485 H   0  0  0  0  0  0  0  0  0  0  0  0
   11.2414   -5.6122   -2.6598 H   0  0  0  0  0  0  0  0  0  0  0  0
    6.2980   -5.3740   -4.5776 H   0  0  0  0  0  0  0  0  0  0  0  0
  1  2  1  0
  1 30  1  0
  1 31  1  0
  1 32  1  0
  2  3  1  0
  2 29  1  0
  3  4  2  0
  4  5  1  0
  4 33  1  0
  5  6  1  0
  5 29  2  0
  6  7  2  0
  6  8  1  0
  8  9  1  0
  8 27  1  0
  9 10  1  0
  9 34  1  0
  9 35  1  0
 10 11  2  0
 10 12  1  0
 12 13  1  0
 12 17  1  0
 13 14  1  0
 13 36  1  0
 13 37  1  0
 14 15  1  0
 14 38  1  0
 14 39  1  0
 15 16  1  0
 15 40  1  0
 15 41  1  0
 16 17  1  0
 17 18  2  0
 18 19  1  0
 19 20  2  0
 19 26  1  0
 20 21  1  0
 20 42  1  0
 21 22  2  0
 21 43  1  0
 22 23  1  0
 22 24  1  0
 24 25  1  0
 24 26  2  0
 26 44  1  0
 27 28  2  0
 27 45  1  0
 28 29  1  0
M  END

