
     RDKit          3D

 81 83  0  0  0  0  0  0  0  0999 V2000
    2.5254    3.9918    2.8722 C   0  0  0  0  0  0  0  0  0  0  0  0
    3.7111    4.9023    2.5527 C   0  0  0  0  0  0  0  0  0  0  0  0
    4.6745    4.3402    1.4957 C   0  0  1  0  0  0  0  0  0  0  0  0
    4.1025    4.0516    0.5999 H   0  0  0  0  0  0  0  0  0  0  0  0
    5.7473    5.3565    1.0842 C   0  0  0  0  0  0  0  0  0  0  0  0
    5.2898    3.1022    1.9843 N   0  0  0  0  0  0  0  0  0  0  0  0
    5.6068    2.0837    1.1503 C   0  0  0  0  0  0  0  0  0  0  0  0
    5.2927    2.0527   -0.0329 O   0  0  0  0  0  0  0  0  0  0  0  0
    6.3047    0.8422    1.7691 C   0  0  1  0  0  0  0  0  0  0  0  0
    5.4815    0.1271    1.9137 H   0  0  0  0  0  0  0  0  0  0  0  0
    7.3054    0.1961    0.7641 C   0  0  0  0  0  0  0  0  0  0  0  0
    6.8200   -1.0995    0.1429 C   0  0  0  0  0  0  0  0  0  0  0  0
    5.6414   -1.1372   -0.6246 C   0  0  0  0  0  0  0  0  0  0  0  0
    5.2014   -2.3336   -1.1957 C   0  0  0  0  0  0  0  0  0  0  0  0
    5.9293   -3.5155   -1.0168 C   0  0  0  0  0  0  0  0  0  0  0  0
    7.1058   -3.4898   -0.2646 C   0  0  0  0  0  0  0  0  0  0  0  0
    7.5445   -2.2907    0.3083 C   0  0  0  0  0  0  0  0  0  0  0  0
    6.8635    1.0641    3.1169 N   0  0  0  0  0  0  0  0  0  0  0  0
    6.1103    0.5880    4.2812 C   0  0  0  0  0  0  0  0  0  0  0  0
    6.6949   -0.6140    5.0070 C   0  0  0  0  0  0  0  0  0  0  0  0
    7.3281   -1.6617    4.3228 C   0  0  0  0  0  0  0  0  0  0  0  0
    7.8107   -2.7720    5.0142 C   0  0  0  0  0  0  0  0  0  0  0  0
    7.6731   -2.8620    6.4041 C   0  0  0  0  0  0  0  0  0  0  0  0
    8.2911   -4.2580    7.2370 Cl  0  0  0  0  0  0  0  0  0  0  0  0
    7.0398   -1.8190    7.0991 C   0  0  0  0  0  0  0  0  0  0  0  0
    6.8482   -1.8747    8.8283 Cl  0  0  0  0  0  0  0  0  0  0  0  0
    6.5598   -0.7080    6.3972 C   0  0  0  0  0  0  0  0  0  0  0  0
    7.9576    1.8876    3.2139 C   0  0  0  0  0  0  0  0  0  0  0  0
    8.4387    2.4298    2.2311 O   0  0  0  0  0  0  0  0  0  0  0  0
    8.6082    2.1001    4.5946 C   0  0  0  0  0  0  0  0  0  0  0  0
    8.9929    3.4936    4.8329 N   0  0  0  0  0  0  0  0  0  0  0  0
   10.3354    3.9602    4.6007 C   0  0  0  0  0  0  0  0  0  0  0  0
   11.2138    4.0819    5.6846 C   0  0  0  0  0  0  0  0  0  0  0  0
   12.5221    4.5289    5.4819 C   0  0  0  0  0  0  0  0  0  0  0  0
   12.9827    4.8662    4.2004 C   0  0  0  0  0  0  0  0  0  0  0  0
   14.4095    5.3563    3.9904 C   0  0  1  0  0  0  0  0  0  0  0  0
   15.2189    4.4013    3.0959 C   0  0  0  0  0  0  0  0  0  0  0  0
   14.4467    6.7963    3.4496 C   0  0  0  0  0  0  0  0  0  0  0  0
   12.0870    4.7346    3.1239 C   0  0  0  0  0  0  0  0  0  0  0  0
   10.7797    4.2884    3.3121 C   0  0  0  0  0  0  0  0  0  0  0  0
    7.7514    4.6277    4.9227 S   0  0  1  0  0  0  0  0  0  0  0  0
    7.7922    5.2099    6.6220 C   0  0  0  0  0  0  0  0  0  0  0  0
    8.0306    5.7810    4.0709 O   0  0  0  0  0  0  0  0  0  0  0  0
    6.4988    3.8571    4.7616 O   0  0  0  0  0  0  0  0  0  0  0  0
    1.8722    4.4385    3.6388 H   0  0  0  0  0  0  0  0  0  0  0  0
    2.8629    3.0129    3.2480 H   0  0  0  0  0  0  0  0  0  0  0  0
    1.9110    3.8057    1.9756 H   0  0  0  0  0  0  0  0  0  0  0  0
    4.2833    5.1169    3.4732 H   0  0  0  0  0  0  0  0  0  0  0  0
    3.3428    5.8764    2.1883 H   0  0  0  0  0  0  0  0  0  0  0  0
    5.2823    6.2727    0.6853 H   0  0  0  0  0  0  0  0  0  0  0  0
    6.3938    4.9325    0.3014 H   0  0  0  0  0  0  0  0  0  0  0  0
    6.3818    5.6344    1.9408 H   0  0  0  0  0  0  0  0  0  0  0  0
    5.7161    3.1498    2.9072 H   0  0  0  0  0  0  0  0  0  0  0  0
    8.2561    0.0137    1.2820 H   0  0  0  0  0  0  0  0  0  0  0  0
    7.5182    0.9265   -0.0286 H   0  0  0  0  0  0  0  0  0  0  0  0
    5.0855   -0.2078   -0.7744 H   0  0  0  0  0  0  0  0  0  0  0  0
    4.2847   -2.3422   -1.7917 H   0  0  0  0  0  0  0  0  0  0  0  0
    5.5830   -4.4500   -1.4660 H   0  0  0  0  0  0  0  0  0  0  0  0
    7.6878   -4.4047   -0.1238 H   0  0  0  0  0  0  0  0  0  0  0  0
    8.4755   -2.2780    0.8842 H   0  0  0  0  0  0  0  0  0  0  0  0
    5.1040    0.3251    3.9195 H   0  0  0  0  0  0  0  0  0  0  0  0
    5.9575    1.4154    4.9901 H   0  0  0  0  0  0  0  0  0  0  0  0
    7.4447   -1.6185    3.2387 H   0  0  0  0  0  0  0  0  0  0  0  0
    8.2995   -3.5889    4.4807 H   0  0  0  0  0  0  0  0  0  0  0  0
    6.0722    0.0899    6.9621 H   0  0  0  0  0  0  0  0  0  0  0  0
    9.5395    1.5144    4.6020 H   0  0  0  0  0  0  0  0  0  0  0  0
    7.9958    1.7292    5.4241 H   0  0  0  0  0  0  0  0  0  0  0  0
   10.8707    3.8147    6.6874 H   0  0  0  0  0  0  0  0  0  0  0  0
   13.1982    4.6156    6.3372 H   0  0  0  0  0  0  0  0  0  0  0  0
   14.8917    5.3650    4.9835 H   0  0  0  0  0  0  0  0  0  0  0  0
   14.8030    4.3548    2.0761 H   0  0  0  0  0  0  0  0  0  0  0  0
   15.2235    3.3777    3.5021 H   0  0  0  0  0  0  0  0  0  0  0  0
   16.2645    4.7397    3.0126 H   0  0  0  0  0  0  0  0  0  0  0  0
   13.9940    6.8618    2.4467 H   0  0  0  0  0  0  0  0  0  0  0  0
   15.4861    7.1541    3.3687 H   0  0  0  0  0  0  0  0  0  0  0  0
   13.8984    7.4872    4.1089 H   0  0  0  0  0  0  0  0  0  0  0  0
   12.4132    4.9852    2.1112 H   0  0  0  0  0  0  0  0  0  0  0  0
   10.0917    4.1694    2.4753 H   0  0  0  0  0  0  0  0  0  0  0  0
    8.7685    5.6768    6.8041 H   0  0  0  0  0  0  0  0  0  0  0  0
    7.6183    4.3612    7.2951 H   0  0  0  0  0  0  0  0  0  0  0  0
    6.9890    5.9540    6.7121 H   0  0  0  0  0  0  0  0  0  0  0  0
  1  2  1  0
  1 45  1  0
  1 46  1  0
  1 47  1  0
  2  3  1  0
  2 48  1  0
  2 49  1  0
  3  4  1  6
  3  5  1  0
  3  6  1  0
  5 50  1  0
  5 51  1  0
  5 52  1  0
  6  7  1  0
  6 53  1  0
  7  8  2  0
  7  9  1  0
  9 10  1  1
  9 11  1  0
  9 18  1  0
 11 12  1  0
 11 54  1  0
 11 55  1  0
 12 13  2  0
 12 17  1  0
 13 14  1  0
 13 56  1  0
 14 15  2  0
 14 57  1  0
 15 16  1  0
 15 58  1  0
 16 17  2  0
 16 59  1  0
 17 60  1  0
 18 19  1  0
 18 28  1  0
 19 20  1  0
 19 61  1  0
 19 62  1  0
 20 21  2  0
 20 27  1  0
 21 22  1  0
 21 63  1  0
 22 23  2  0
 22 64  1  0
 23 24  1  0
 23 25  1  0
 25 26  1  0
 25 27  2  0
 27 65  1  0
 28 29  2  0
 28 30  1  0
 30 31  1  0
 30 66  1  0
 30 67  1  0
 31 32  1  0
 41 31  1  1
 32 33  2  0
 32 40  1  0
 33 34  1  0
 33 68  1  0
 34 35  2  0
 34 69  1  0
 35 36  1  0
 35 39  1  0
 36 37  1  0
 36 38  1  0
 36 70  1  1
 37 71  1  0
 37 72  1  0
 37 73  1  0
 38 74  1  0
 38 75  1  0
 38 76  1  0
 39 40  2  0
 39 77  1  0
 40 78  1  0
 41 42  1  0
 41 43  2  0
 41 44  2  0
 42 79  1  0
 42 80  1  0
 42 81  1  0
M  END

