
     RDKit          3D

 75 78  0  0  0  0  0  0  0  0999 V2000
   -3.6343    1.0709    5.7205 C   0  0  0  0  0  0  0  0  0  0  0  0
   -2.4506    1.3146    4.7680 C   0  0  1  0  0  0  0  0  0  0  0  0
   -2.9394    1.5891    3.3339 C   0  0  0  0  0  0  0  0  0  0  0  0
   -1.5272    2.4238    5.2697 C   0  0  0  0  0  0  0  0  0  0  0  0
   -2.0232    3.7366    5.3605 C   0  0  0  0  0  0  0  0  0  0  0  0
   -1.2229    4.8064    5.7604 C   0  0  0  0  0  0  0  0  0  0  0  0
    0.1193    4.5830    6.0763 C   0  0  0  0  0  0  0  0  0  0  0  0
    0.6324    3.2895    5.9968 C   0  0  0  0  0  0  0  0  0  0  0  0
   -0.1696    2.1979    5.6087 C   0  0  0  0  0  0  0  0  0  0  0  0
    0.4696    0.8464    5.5725 C   0  0  0  0  0  0  0  0  0  0  0  0
    0.0201   -0.2074    6.3919 C   0  0  0  0  0  0  0  0  0  0  0  0
    0.6517   -1.4499    6.3822 C   0  0  0  0  0  0  0  0  0  0  0  0
    1.7588   -1.6865    5.5497 C   0  0  0  0  0  0  0  0  0  0  0  0
    2.4351   -3.0437    5.5429 C   0  0  0  0  0  0  0  0  0  0  0  0
    1.5950   -4.1191    5.0005 N   0  0  0  0  0  0  0  0  0  0  0  0
    1.4447   -4.1592    3.5518 C   0  0  0  0  0  0  0  0  0  0  0  0
    1.0180   -4.9956    5.8600 C   0  0  0  0  0  0  0  0  0  0  0  0
    1.1467   -4.8883    7.0861 O   0  0  0  0  0  0  0  0  0  0  0  0
    0.2038   -6.1594    5.2601 C   0  0  2  0  0  0  0  0  0  0  0  0
    0.8470   -6.6713    4.5118 H   0  0  0  0  0  0  0  0  0  0  0  0
   -0.9477   -5.6228    4.6587 O   0  0  0  0  0  0  0  0  0  0  0  0
   -0.1107   -7.2104    6.3509 C   0  0  1  0  0  0  0  0  0  0  0  0
    0.8658   -7.6653    6.6328 H   0  0  0  0  0  0  0  0  0  0  0  0
   -0.7706   -6.6779    7.4695 O   0  0  0  0  0  0  0  0  0  0  0  0
   -0.9922   -8.3288    5.7636 C   0  0  0  0  0  0  0  0  0  0  0  0
   -1.4244   -8.2452    4.6101 O   0  0  0  0  0  0  0  0  0  0  0  0
   -1.2613   -9.4004    6.5541 N   0  0  0  0  0  0  0  0  0  0  0  0
   -2.1047  -10.4840    6.0559 C   0  0  0  0  0  0  0  0  0  0  0  0
   -1.3955  -11.8260    6.2160 C   0  0  0  0  0  0  0  0  0  0  0  0
   -0.9656  -12.0269    7.6037 N   0  0  0  0  0  0  0  0  0  0  0  0
   -0.6783  -13.3371    8.0242 C   0  0  0  0  0  0  0  0  0  0  0  0
    0.5481  -13.7123    8.6081 C   0  0  0  0  0  0  0  0  0  0  0  0
    0.7781  -15.0164    9.0584 C   0  0  0  0  0  0  0  0  0  0  0  0
   -0.2053  -15.9967    8.9241 C   0  0  0  0  0  0  0  0  0  0  0  0
   -1.4325  -15.6557    8.3449 C   0  0  0  0  0  0  0  0  0  0  0  0
   -1.6553  -14.3533    7.9221 C   0  0  0  0  0  0  0  0  0  0  0  0
   -2.8629  -14.0476    7.4043 F   0  0  0  0  0  0  0  0  0  0  0  0
   -0.1175  -10.9471    8.0844 C   0  0  0  0  0  0  0  0  0  0  0  0
   -0.8236   -9.5978    7.9316 C   0  0  0  0  0  0  0  0  0  0  0  0
    2.2145   -0.6399    4.7388 C   0  0  0  0  0  0  0  0  0  0  0  0
    1.5837    0.6082    4.7519 C   0  0  0  0  0  0  0  0  0  0  0  0
   -4.2526    0.2304    5.3651 H   0  0  0  0  0  0  0  0  0  0  0  0
   -4.2870    1.9566    5.7919 H   0  0  0  0  0  0  0  0  0  0  0  0
   -3.2907    0.8310    6.7392 H   0  0  0  0  0  0  0  0  0  0  0  0
   -1.8661    0.3844    4.7303 H   0  0  0  0  0  0  0  0  0  0  0  0
   -3.5685    2.4929    3.2814 H   0  0  0  0  0  0  0  0  0  0  0  0
   -3.5424    0.7440    2.9633 H   0  0  0  0  0  0  0  0  0  0  0  0
   -2.0932    1.7308    2.6436 H   0  0  0  0  0  0  0  0  0  0  0  0
   -3.0677    3.9288    5.1010 H   0  0  0  0  0  0  0  0  0  0  0  0
   -1.6460    5.8126    5.8208 H   0  0  0  0  0  0  0  0  0  0  0  0
    0.7622    5.4095    6.3897 H   0  0  0  0  0  0  0  0  0  0  0  0
    1.6774    3.1045    6.2584 H   0  0  0  0  0  0  0  0  0  0  0  0
   -0.8267   -0.0408    7.0621 H   0  0  0  0  0  0  0  0  0  0  0  0
    0.2935   -2.2491    7.0359 H   0  0  0  0  0  0  0  0  0  0  0  0
    2.7040   -3.3370    6.5659 H   0  0  0  0  0  0  0  0  0  0  0  0
    3.3583   -2.9983    4.9419 H   0  0  0  0  0  0  0  0  0  0  0  0
    2.3397   -4.5882    3.0656 H   0  0  0  0  0  0  0  0  0  0  0  0
    1.3106   -3.1322    3.1781 H   0  0  0  0  0  0  0  0  0  0  0  0
    0.5509   -4.7277    3.2751 H   0  0  0  0  0  0  0  0  0  0  0  0
   -1.4295   -6.4118    4.3362 H   0  0  0  0  0  0  0  0  0  0  0  0
   -0.2030   -5.9257    7.7384 H   0  0  0  0  0  0  0  0  0  0  0  0
   -2.3332  -10.2830    5.0027 H   0  0  0  0  0  0  0  0  0  0  0  0
   -3.0490  -10.5003    6.6294 H   0  0  0  0  0  0  0  0  0  0  0  0
   -0.5198  -11.8590    5.5323 H   0  0  0  0  0  0  0  0  0  0  0  0
   -2.0804  -12.6292    5.9221 H   0  0  0  0  0  0  0  0  0  0  0  0
    1.3429  -12.9722    8.7052 H   0  0  0  0  0  0  0  0  0  0  0  0
    1.7429  -15.2641    9.5076 H   0  0  0  0  0  0  0  0  0  0  0  0
   -0.0280  -17.0177    9.2684 H   0  0  0  0  0  0  0  0  0  0  0  0
   -2.2402  -16.3820    8.2322 H   0  0  0  0  0  0  0  0  0  0  0  0
    0.8551  -10.9092    7.5444 H   0  0  0  0  0  0  0  0  0  0  0  0
    0.1011  -11.1076    9.1506 H   0  0  0  0  0  0  0  0  0  0  0  0
   -0.1761   -8.7760    8.2508 H   0  0  0  0  0  0  0  0  0  0  0  0
   -1.7114   -9.5792    8.5887 H   0  0  0  0  0  0  0  0  0  0  0  0
    3.0786   -0.7977    4.0860 H   0  0  0  0  0  0  0  0  0  0  0  0
    1.9533    1.4084    4.1057 H   0  0  0  0  0  0  0  0  0  0  0  0
  1  2  1  0
  1 42  1  0
  1 43  1  0
  1 44  1  0
  2  3  1  0
  2  4  1  0
  2 45  1  6
  3 46  1  0
  3 47  1  0
  3 48  1  0
  4  5  2  0
  4  9  1  0
  5  6  1  0
  5 49  1  0
  6  7  2  0
  6 50  1  0
  7  8  1  0
  7 51  1  0
  8  9  2  0
  8 52  1  0
  9 10  1  0
 10 11  2  0
 10 41  1  0
 11 12  1  0
 11 53  1  0
 12 13  2  0
 12 54  1  0
 13 14  1  0
 13 40  1  0
 14 15  1  0
 14 55  1  0
 14 56  1  0
 15 16  1  0
 15 17  1  0
 16 57  1  0
 16 58  1  0
 16 59  1  0
 17 18  2  0
 17 19  1  0
 19 20  1  6
 19 21  1  0
 19 22  1  0
 21 60  1  0
 22 23  1  1
 22 24  1  0
 22 25  1  0
 24 61  1  0
 25 26  2  0
 25 27  1  0
 27 28  1  0
 27 39  1  0
 28 29  1  0
 28 62  1  0
 28 63  1  0
 29 30  1  0
 29 64  1  0
 29 65  1  0
 30 31  1  0
 30 38  1  0
 31 32  2  0
 31 36  1  0
 32 33  1  0
 32 66  1  0
 33 34  2  0
 33 67  1  0
 34 35  1  0
 34 68  1  0
 35 36  2  0
 35 69  1  0
 36 37  1  0
 38 39  1  0
 38 70  1  0
 38 71  1  0
 39 72  1  0
 39 73  1  0
 40 41  2  0
 40 74  1  0
 41 75  1  0
M  END

