
     RDKit          3D

103107  0  0  0  0  0  0  0  0999 V2000
    2.1734    1.5639    0.4227 C   0  0  0  0  0  0  0  0  0  0  0  0
    2.6080    1.8018   -1.0232 C   0  0  0  0  0  0  0  0  0  0  0  0
    3.9358    2.5799   -1.1654 C   0  0  0  0  0  0  0  0  0  0  0  0
    5.1471    1.8611   -0.6432 C   0  0  0  0  0  0  0  0  0  0  0  0
    5.8180    2.0922    0.5301 C   0  0  0  0  0  0  0  0  0  0  0  0
    6.9105    1.1383    0.5854 C   0  0  0  0  0  0  0  0  0  0  0  0
    6.8854    0.3291   -0.4953 N   0  0  0  0  0  0  0  0  0  0  0  0
    5.8625    0.7483   -1.2948 C   0  0  0  0  0  0  0  0  0  0  0  0
    5.6112    0.3155   -2.6188 C   0  0  0  0  0  0  0  0  0  0  0  0
    6.3068   -0.5633   -3.4663 C   0  0  0  0  0  0  0  0  0  0  0  0
    7.3447   -1.4640   -3.1714 C   0  0  0  0  0  0  0  0  0  0  0  0
    7.6972   -1.8010   -1.8902 N   0  0  0  0  0  0  0  0  0  0  0  0
    7.3847   -1.1886   -1.0988 H   0  0  0  0  0  0  0  0  0  0  0  0
    8.8907   -2.4543   -1.8731 C   0  0  0  0  0  0  0  0  0  0  0  0
    9.3039   -2.6209   -3.2283 C   0  0  0  0  0  0  0  0  0  0  0  0
    8.3282   -2.0642   -4.0492 C   0  0  0  0  0  0  0  0  0  0  0  0
    8.2839   -2.0750   -5.5506 C   0  0  0  0  0  0  0  0  0  0  0  0
    7.3069   -3.1052   -6.1602 C   0  0  0  0  0  0  0  0  0  0  0  0
    7.6826   -4.5624   -5.8925 C   0  0  0  0  0  0  0  0  0  0  0  0
    9.4589   -2.7085   -0.5815 C   0  0  0  0  0  0  0  0  0  0  0  0
   10.6954   -2.2758   -0.2344 N   0  0  0  0  0  0  0  0  0  0  0  0
   10.6501   -2.1892    1.1207 C   0  0  0  0  0  0  0  0  0  0  0  0
   11.5741   -1.3407    1.8271 C   0  0  0  0  0  0  0  0  0  0  0  0
   12.9061   -1.6317    1.6082 O   0  0  0  0  0  0  0  0  0  0  0  0
   13.8808   -0.6818    1.4477 C   0  0  0  0  0  0  0  0  0  0  0  0
   13.7269    0.4941    1.6353 O   0  0  0  0  0  0  0  0  0  0  0  0
   15.1576   -1.3508    0.9922 C   0  0  0  0  0  0  0  0  0  0  0  0
   16.3445   -0.3971    0.8955 C   0  0  0  0  0  0  0  0  0  0  0  0
   17.6072   -1.0930    0.3734 C   0  0  0  0  0  0  0  0  0  0  0  0
   18.7540   -0.2150    0.2674 N   0  0  0  0  0  0  0  0  0  0  0  0
   19.7197   -0.1537    1.2326 C   0  0  0  0  0  0  0  0  0  0  0  0
   19.7680   -0.8803    2.2057 O   0  0  0  0  0  0  0  0  0  0  0  0
   20.6036    0.8227    0.9243 O   0  0  0  0  0  0  0  0  0  0  0  0
   21.7666    1.1056    1.7662 C   0  0  1  0  0  0  0  0  0  0  0  0
   22.6839   -0.1209    1.8254 C   0  0  0  0  0  0  0  0  0  0  0  0
   22.4508    2.2574    1.0265 C   0  0  0  0  0  0  0  0  0  0  0  0
   21.3119    1.5516    3.1602 C   0  0  0  0  0  0  0  0  0  0  0  0
   11.1626   -0.2701    2.6023 C   0  0  0  0  0  0  0  0  0  0  0  0
    9.9019    0.3863    2.4748 C   0  0  0  0  0  0  0  0  0  0  0  0
    9.0221    0.2402    1.4296 N   0  0  0  0  0  0  0  0  0  0  0  0
    9.1566   -0.3797    0.6392 H   0  0  0  0  0  0  0  0  0  0  0  0
    7.9466    1.0788    1.5536 C   0  0  0  0  0  0  0  0  0  0  0  0
    8.1542    1.8196    2.7527 C   0  0  0  0  0  0  0  0  0  0  0  0
    9.3533    1.4103    3.3265 C   0  0  0  0  0  0  0  0  0  0  0  0
   10.0021    1.9473    4.5719 C   0  0  0  0  0  0  0  0  0  0  0  0
   11.1034    3.0029    4.3192 C   0  0  0  0  0  0  0  0  0  0  0  0
   10.5929    4.3106    3.7146 C   0  0  0  0  0  0  0  0  0  0  0  0
    9.4181   -2.7372    1.6810 C   0  0  0  0  0  0  0  0  0  0  0  0
    9.1348   -3.0208    3.1347 C   0  0  0  0  0  0  0  0  0  0  0  0
    7.9210   -2.3219    3.7840 C   0  0  0  0  0  0  0  0  0  0  0  0
    6.5529   -2.6931    3.2102 C   0  0  0  0  0  0  0  0  0  0  0  0
    8.6587   -3.0472    0.5748 C   0  0  0  0  0  0  0  0  0  0  0  0
    1.2201    1.0134    0.4655 H   0  0  0  0  0  0  0  0  0  0  0  0
    2.0309    2.5175    0.9592 H   0  0  0  0  0  0  0  0  0  0  0  0
    2.9228    0.9793    0.9797 H   0  0  0  0  0  0  0  0  0  0  0  0
    1.8224    2.3664   -1.5554 H   0  0  0  0  0  0  0  0  0  0  0  0
    2.6970    0.8343   -1.5472 H   0  0  0  0  0  0  0  0  0  0  0  0
    3.8413    3.5452   -0.6396 H   0  0  0  0  0  0  0  0  0  0  0  0
    4.0848    2.8283   -2.2305 H   0  0  0  0  0  0  0  0  0  0  0  0
    5.6000    2.8635    1.2679 H   0  0  0  0  0  0  0  0  0  0  0  0
    4.7980    0.8561   -3.1106 H   0  0  0  0  0  0  0  0  0  0  0  0
    6.0388   -0.4972   -4.5248 H   0  0  0  0  0  0  0  0  0  0  0  0
   10.2084   -3.1367   -3.5453 H   0  0  0  0  0  0  0  0  0  0  0  0
    9.2993   -2.2722   -5.9335 H   0  0  0  0  0  0  0  0  0  0  0  0
    8.0088   -1.0705   -5.9151 H   0  0  0  0  0  0  0  0  0  0  0  0
    7.2631   -2.9303   -7.2494 H   0  0  0  0  0  0  0  0  0  0  0  0
    6.2897   -2.9081   -5.7784 H   0  0  0  0  0  0  0  0  0  0  0  0
    8.6786   -4.8001   -6.3031 H   0  0  0  0  0  0  0  0  0  0  0  0
    6.9589   -5.2505   -6.3576 H   0  0  0  0  0  0  0  0  0  0  0  0
    7.7082   -4.7837   -4.8136 H   0  0  0  0  0  0  0  0  0  0  0  0
   14.9356   -1.8271    0.0200 H   0  0  0  0  0  0  0  0  0  0  0  0
   15.3603   -2.1895    1.6804 H   0  0  0  0  0  0  0  0  0  0  0  0
   16.5561    0.0379    1.8857 H   0  0  0  0  0  0  0  0  0  0  0  0
   16.0809    0.4488    0.2387 H   0  0  0  0  0  0  0  0  0  0  0  0
   17.4079   -1.5446   -0.6149 H   0  0  0  0  0  0  0  0  0  0  0  0
   17.8958   -1.9098    1.0515 H   0  0  0  0  0  0  0  0  0  0  0  0
   18.7810    0.4939   -0.4558 H   0  0  0  0  0  0  0  0  0  0  0  0
   22.9625   -0.4396    0.8085 H   0  0  0  0  0  0  0  0  0  0  0  0
   22.1894   -0.9572    2.3353 H   0  0  0  0  0  0  0  0  0  0  0  0
   23.6080    0.1307    2.3692 H   0  0  0  0  0  0  0  0  0  0  0  0
   22.7374    1.9485    0.0097 H   0  0  0  0  0  0  0  0  0  0  0  0
   23.3577    2.5723    1.5646 H   0  0  0  0  0  0  0  0  0  0  0  0
   21.7744    3.1220    0.9461 H   0  0  0  0  0  0  0  0  0  0  0  0
   20.8019    0.7354    3.6873 H   0  0  0  0  0  0  0  0  0  0  0  0
   20.6243    2.4086    3.0823 H   0  0  0  0  0  0  0  0  0  0  0  0
   22.1844    1.8674    3.7535 H   0  0  0  0  0  0  0  0  0  0  0  0
   11.8817    0.2097    3.2652 H   0  0  0  0  0  0  0  0  0  0  0  0
    7.4763    2.5749    3.1459 H   0  0  0  0  0  0  0  0  0  0  0  0
   10.4359    1.1130    5.1477 H   0  0  0  0  0  0  0  0  0  0  0  0
    9.2237    2.3906    5.2158 H   0  0  0  0  0  0  0  0  0  0  0  0
   11.8806    2.5728    3.6642 H   0  0  0  0  0  0  0  0  0  0  0  0
   11.5985    3.2130    5.2834 H   0  0  0  0  0  0  0  0  0  0  0  0
   10.1192    4.1468    2.7334 H   0  0  0  0  0  0  0  0  0  0  0  0
   11.4169    5.0270    3.5691 H   0  0  0  0  0  0  0  0  0  0  0  0
    9.8462    4.7912    4.3698 H   0  0  0  0  0  0  0  0  0  0  0  0
   10.0313   -2.7678    3.7223 H   0  0  0  0  0  0  0  0  0  0  0  0
    9.0021   -4.1129    3.2508 H   0  0  0  0  0  0  0  0  0  0  0  0
    8.0554   -1.2291    3.7346 H   0  0  0  0  0  0  0  0  0  0  0  0
    7.9378   -2.5782    4.8583 H   0  0  0  0  0  0  0  0  0  0  0  0
    6.4374   -2.3478    2.1716 H   0  0  0  0  0  0  0  0  0  0  0  0
    5.7435   -2.2318    3.7990 H   0  0  0  0  0  0  0  0  0  0  0  0
    6.3916   -3.7848    3.2237 H   0  0  0  0  0  0  0  0  0  0  0  0
    7.6755   -3.5134    0.5447 H   0  0  0  0  0  0  0  0  0  0  0  0
  1  2  1  0
  1 53  1  0
  1 54  1  0
  1 55  1  0
  2  3  1  0
  2 56  1  0
  2 57  1  0
  3  4  1  0
  3 58  1  0
  3 59  1  0
  4  5  2  0
  4  8  1  0
  5  6  1  0
  5 60  1  0
  6  7  2  0
  6 42  1  0
  7  8  1  0
  8  9  2  0
  9 10  1  0
  9 61  1  0
 10 11  2  0
 10 62  1  0
 11 12  1  0
 11 16  1  0
 12 13  1  0
 12 14  1  0
 14 15  1  0
 14 20  2  0
 15 16  2  0
 15 63  1  0
 16 17  1  0
 17 18  1  0
 17 64  1  0
 17 65  1  0
 18 19  1  0
 18 66  1  0
 18 67  1  0
 19 68  1  0
 19 69  1  0
 19 70  1  0
 20 21  1  0
 20 52  1  0
 21 22  2  0
 22 23  1  0
 22 48  1  0
 23 24  1  0
 23 38  2  0
 24 25  1  0
 25 26  2  0
 25 27  1  0
 27 28  1  0
 27 71  1  0
 27 72  1  0
 28 29  1  0
 28 73  1  0
 28 74  1  0
 29 30  1  0
 29 75  1  0
 29 76  1  0
 30 31  1  0
 30 77  1  0
 31 32  2  0
 31 33  1  0
 34 33  1  6
 34 35  1  0
 34 36  1  0
 34 37  1  0
 35 78  1  0
 35 79  1  0
 35 80  1  0
 36 81  1  0
 36 82  1  0
 36 83  1  0
 37 84  1  0
 37 85  1  0
 37 86  1  0
 38 39  1  0
 38 87  1  0
 39 40  1  0
 39 44  2  0
 40 41  1  0
 40 42  1  0
 42 43  2  0
 43 44  1  0
 43 88  1  0
 44 45  1  0
 45 46  1  0
 45 89  1  0
 45 90  1  0
 46 47  1  0
 46 91  1  0
 46 92  1  0
 47 93  1  0
 47 94  1  0
 47 95  1  0
 48 49  1  0
 48 52  2  0
 49 50  1  0
 49 96  1  0
 49 97  1  0
 50 51  1  0
 50 98  1  0
 50 99  1  0
 51100  1  0
 51101  1  0
 51102  1  0
 52103  1  0
M  END

