
     RDKit          3D

 21 21  0  0  0  0  0  0  0  0999 V2000
    6.2150    1.6725   -1.1550 N   0  0  0  0  0  0  0  0  0  0  0  0
    5.1199    1.0644   -0.4708 O   0  0  0  0  0  0  0  0  0  0  0  0
    5.5838    0.4257    0.7020 C   0  0  0  0  0  0  0  0  0  0  0  0
    4.3637   -0.2055    1.3753 C   0  0  0  0  0  0  0  0  0  0  0  0
    4.7166   -0.9264    2.6510 C   0  0  0  0  0  0  0  0  0  0  0  0
    4.7274   -0.2820    3.8946 C   0  0  0  0  0  0  0  0  0  0  0  0
    4.3951    1.0194    3.9330 F   0  0  0  0  0  0  0  0  0  0  0  0
    5.0579   -0.9227    5.0864 C   0  0  0  0  0  0  0  0  0  0  0  0
    5.4078   -2.2745    5.0455 C   0  0  0  0  0  0  0  0  0  0  0  0
    5.4229   -2.9651    3.8311 C   0  0  0  0  0  0  0  0  0  0  0  0
    5.0840   -2.2780    2.6679 C   0  0  0  0  0  0  0  0  0  0  0  0
    5.1029   -2.9408    1.4991 F   0  0  0  0  0  0  0  0  0  0  0  0
    5.9338    2.6524   -1.2582 H   0  0  0  0  0  0  0  0  0  0  0  0
    6.1669    1.2829   -2.1015 H   0  0  0  0  0  0  0  0  0  0  0  0
    6.0667    1.1545    1.3802 H   0  0  0  0  0  0  0  0  0  0  0  0
    6.3343   -0.3488    0.4553 H   0  0  0  0  0  0  0  0  0  0  0  0
    3.8992   -0.9076    0.6674 H   0  0  0  0  0  0  0  0  0  0  0  0
    3.6323    0.5885    1.5867 H   0  0  0  0  0  0  0  0  0  0  0  0
    5.0384   -0.3564    6.0188 H   0  0  0  0  0  0  0  0  0  0  0  0
    5.6719   -2.7948    5.9689 H   0  0  0  0  0  0  0  0  0  0  0  0
    5.6931   -4.0202    3.7671 H   0  0  0  0  0  0  0  0  0  0  0  0
  1  2  1  0
  1 13  1  0
  1 14  1  0
  2  3  1  0
  3  4  1  0
  3 15  1  0
  3 16  1  0
  4  5  1  0
  4 17  1  0
  4 18  1  0
  5  6  2  0
  5 11  1  0
  6  7  1  0
  6  8  1  0
  8  9  2  0
  8 19  1  0
  9 10  1  0
  9 20  1  0
 10 11  2  0
 10 21  1  0
 11 12  1  0
M  END

