
     RDKit          3D

 34 36  0  0  0  0  0  0  0  0999 V2000
    1.0286   -0.6964    0.5413 C   0  0  0  0  0  0  0  0  0  0  0  0
    2.4957   -0.3631    0.3561 C   0  0  0  0  0  0  0  0  0  0  0  0
    3.1702   -1.5518   -0.0397 O   0  0  0  0  0  0  0  0  0  0  0  0
    4.5024   -1.5338   -0.2575 C   0  0  0  0  0  0  0  0  0  0  0  0
    5.3217   -0.4001   -0.1561 C   0  0  0  0  0  0  0  0  0  0  0  0
    6.6940   -0.5054   -0.4074 C   0  0  0  0  0  0  0  0  0  0  0  0
    7.2685   -1.7275   -0.7582 C   0  0  0  0  0  0  0  0  0  0  0  0
    6.4553   -2.8601   -0.8593 C   0  0  0  0  0  0  0  0  0  0  0  0
    5.0879   -2.7658   -0.6208 C   0  0  0  0  0  0  0  0  0  0  0  0
    4.2436   -3.9279   -0.6953 N   0  0  0  0  0  0  0  0  0  0  0  0
    3.5471   -4.2738   -1.8389 C   0  0  0  0  0  0  0  0  0  0  0  0
    3.8413   -3.2640   -3.2353 Cl  0  0  0  0  0  0  0  0  0  0  0  0
    2.7379   -5.2523   -1.9601 N   0  0  0  0  0  0  0  0  0  0  0  0
    2.5029   -6.0532   -0.8562 C   0  0  0  0  0  0  0  0  0  0  0  0
    1.6163   -7.1444   -0.9674 C   0  0  0  0  0  0  0  0  0  0  0  0
    1.3714   -7.9549    0.1336 C   0  0  0  0  0  0  0  0  0  0  0  0
    1.9990   -7.7005    1.3685 C   0  0  0  0  0  0  0  0  0  0  0  0
    2.8734   -6.6282    1.4927 C   0  0  0  0  0  0  0  0  0  0  0  0
    3.1310   -5.8015    0.3849 C   0  0  0  0  0  0  0  0  0  0  0  0
    4.0527   -4.6630    0.5164 C   0  0  0  0  0  0  0  0  0  0  0  0
    4.6304   -4.3374    1.5315 O   0  0  0  0  0  0  0  0  0  0  0  0
    0.4718    0.2031    0.8460 H   0  0  0  0  0  0  0  0  0  0  0  0
    0.8996   -1.4663    1.3171 H   0  0  0  0  0  0  0  0  0  0  0  0
    0.5943   -1.0745   -0.3967 H   0  0  0  0  0  0  0  0  0  0  0  0
    2.9359    0.0188    1.2957 H   0  0  0  0  0  0  0  0  0  0  0  0
    2.6284    0.4163   -0.4172 H   0  0  0  0  0  0  0  0  0  0  0  0
    4.8981    0.5653    0.1198 H   0  0  0  0  0  0  0  0  0  0  0  0
    7.3184    0.3877   -0.3229 H   0  0  0  0  0  0  0  0  0  0  0  0
    8.3409   -1.8036   -0.9483 H   0  0  0  0  0  0  0  0  0  0  0  0
    6.8772   -3.8312   -1.1260 H   0  0  0  0  0  0  0  0  0  0  0  0
    1.1394   -7.3241   -1.9326 H   0  0  0  0  0  0  0  0  0  0  0  0
    0.6836   -8.7995    0.0403 H   0  0  0  0  0  0  0  0  0  0  0  0
    1.7974   -8.3465    2.2261 H   0  0  0  0  0  0  0  0  0  0  0  0
    3.3761   -6.4013    2.4350 H   0  0  0  0  0  0  0  0  0  0  0  0
  1  2  1  0
  1 22  1  0
  1 23  1  0
  1 24  1  0
  2  3  1  0
  2 25  1  0
  2 26  1  0
  3  4  1  0
  4  5  2  0
  4  9  1  0
  5  6  1  0
  5 27  1  0
  6  7  2  0
  6 28  1  0
  7  8  1  0
  7 29  1  0
  8  9  2  0
  8 30  1  0
  9 10  1  0
 10 11  1  0
 10 20  1  0
 11 12  1  0
 11 13  2  0
 13 14  1  0
 14 15  2  0
 14 19  1  0
 15 16  1  0
 15 31  1  0
 16 17  2  0
 16 32  1  0
 17 18  1  0
 17 33  1  0
 18 19  2  0
 18 34  1  0
 19 20  1  0
 20 21  2  0
M  END

