
     RDKit          3D

 50 52  0  0  0  0  0  0  0  0999 V2000
    0.0073   -0.6187   -0.0239 C   0  0  0  0  0  0  0  0  0  0  0  0
    1.5030   -0.2969    0.1050 C   0  0  1  0  0  0  0  0  0  0  0  0
    1.9080   -0.4691    1.4947 N   0  0  0  0  0  0  0  0  0  0  0  0
    2.4192    0.5162    2.2626 C   0  0  0  0  0  0  0  0  0  0  0  0
    2.6183    1.6640    1.8858 O   0  0  0  0  0  0  0  0  0  0  0  0
    2.7331   -0.0414    3.6875 C   0  0  0  0  0  0  0  0  0  0  0  0
    2.5981   -1.2529    3.8652 O   0  0  0  0  0  0  0  0  0  0  0  0
    3.1465    0.7855    4.6820 N   0  0  0  0  0  0  0  0  0  0  0  0
    3.2966    2.2408    4.6236 C   0  0  0  0  0  0  0  0  0  0  0  0
    3.3893    0.1661    5.9915 C   0  0  0  0  0  0  0  0  0  0  0  0
    4.7910   -0.4356    6.1170 C   0  0  0  0  0  0  0  0  0  0  0  0
    5.8237    0.5103    5.9163 O   0  0  0  0  0  0  0  0  0  0  0  0
    2.4422   -1.0689   -0.8767 C   0  0  2  0  0  0  0  0  0  0  0  0
    2.0921   -0.7088   -2.3436 C   0  0  0  0  0  0  0  0  0  0  0  0
    3.0442   -1.4174   -3.3276 C   0  0  1  0  0  0  0  0  0  0  0  0
    4.4950   -0.9825   -3.0504 C   0  0  0  0  0  0  0  0  0  0  0  0
    4.8692   -1.3578   -1.6050 C   0  0  2  0  0  0  0  0  0  0  0  0
    4.7494   -2.8826   -1.4199 C   0  0  0  0  0  0  0  0  0  0  0  0
    3.2984   -3.3188   -1.6988 C   0  0  2  0  0  0  0  0  0  0  0  0
    2.9200   -2.9426   -3.1445 C   0  0  0  0  0  0  0  0  0  0  0  0
    2.3446   -2.6070   -0.7167 C   0  0  0  0  0  0  0  0  0  0  0  0
    3.9146   -0.6502   -0.6254 C   0  0  0  0  0  0  0  0  0  0  0  0
   -0.5716    0.0362    0.6447 H   0  0  0  0  0  0  0  0  0  0  0  0
   -0.2137   -1.6609    0.2571 H   0  0  0  0  0  0  0  0  0  0  0  0
   -0.3584   -0.4591   -1.0483 H   0  0  0  0  0  0  0  0  0  0  0  0
    1.6467    0.7755   -0.0998 H   0  0  0  0  0  0  0  0  0  0  0  0
    1.8241   -1.3706    1.9609 H   0  0  0  0  0  0  0  0  0  0  0  0
    3.2379    2.5845    3.5882 H   0  0  0  0  0  0  0  0  0  0  0  0
    4.2666    2.5154    5.0639 H   0  0  0  0  0  0  0  0  0  0  0  0
    2.5031    2.7297    5.2165 H   0  0  0  0  0  0  0  0  0  0  0  0
    2.6437   -0.6260    6.1562 H   0  0  0  0  0  0  0  0  0  0  0  0
    3.2529    0.9471    6.7548 H   0  0  0  0  0  0  0  0  0  0  0  0
    4.8794   -1.2920    5.4241 H   0  0  0  0  0  0  0  0  0  0  0  0
    4.9094   -0.8289    7.1405 H   0  0  0  0  0  0  0  0  0  0  0  0
    5.9140    0.6562    4.9661 H   0  0  0  0  0  0  0  0  0  0  0  0
    2.1525    0.3859   -2.4787 H   0  0  0  0  0  0  0  0  0  0  0  0
    1.0544   -1.0009   -2.5737 H   0  0  0  0  0  0  0  0  0  0  0  0
    2.7644   -1.1439   -4.3594 H   0  0  0  0  0  0  0  0  0  0  0  0
    4.6007    0.1062   -3.1997 H   0  0  0  0  0  0  0  0  0  0  0  0
    5.1819   -1.4707   -3.7635 H   0  0  0  0  0  0  0  0  0  0  0  0
    5.9045   -1.0389   -1.3945 H   0  0  0  0  0  0  0  0  0  0  0  0
    5.0403   -3.1648   -0.3930 H   0  0  0  0  0  0  0  0  0  0  0  0
    5.4411   -3.4063   -2.1024 H   0  0  0  0  0  0  0  0  0  0  0  0
    3.2063   -4.4102   -1.5638 H   0  0  0  0  0  0  0  0  0  0  0  0
    1.8887   -3.2695   -3.3653 H   0  0  0  0  0  0  0  0  0  0  0  0
    3.5793   -3.4664   -3.8581 H   0  0  0  0  0  0  0  0  0  0  0  0
    2.5976   -2.8973    0.3184 H   0  0  0  0  0  0  0  0  0  0  0  0
    1.3112   -2.9460   -0.9010 H   0  0  0  0  0  0  0  0  0  0  0  0
    4.0086    0.4452   -0.7208 H   0  0  0  0  0  0  0  0  0  0  0  0
    4.1976   -0.9017    0.4095 H   0  0  0  0  0  0  0  0  0  0  0  0
  1  2  1  0
  1 23  1  0
  1 24  1  0
  1 25  1  0
  2  3  1  0
  2 13  1  0
  2 26  1  6
  3  4  1  0
  3 27  1  0
  4  5  2  0
  4  6  1  0
  6  7  2  0
  6  8  1  0
  8  9  1  0
  8 10  1  0
  9 28  1  0
  9 29  1  0
  9 30  1  0
 10 11  1  0
 10 31  1  0
 10 32  1  0
 11 12  1  0
 11 33  1  0
 11 34  1  0
 12 35  1  0
 13 14  1  6
 13 21  1  0
 13 22  1  0
 14 15  1  0
 14 36  1  0
 14 37  1  0
 15 16  1  0
 15 20  1  0
 15 38  1  6
 16 17  1  0
 16 39  1  0
 16 40  1  0
 17 18  1  0
 17 22  1  0
 17 41  1  1
 18 19  1  0
 18 42  1  0
 18 43  1  0
 19 20  1  0
 19 21  1  0
 19 44  1  6
 20 45  1  0
 20 46  1  0
 21 47  1  0
 21 48  1  0
 22 49  1  0
 22 50  1  0
M  END

