
     RDKit          3D

 42 43  0  0  0  0  0  0  0  0999 V2000
    1.3369   -1.0786    1.9516 C   0  0  0  0  0  0  0  0  0  0  0  0
    2.2231   -0.2047    1.0668 C   0  0  1  0  0  0  0  0  0  0  0  0
    1.5902    0.5599    0.5773 H   0  0  0  0  0  0  0  0  0  0  0  0
    3.2538    0.5943    1.8665 C   0  0  0  0  0  0  0  0  0  0  0  0
    3.0849    1.1646    2.9182 O   0  0  0  0  0  0  0  0  0  0  0  0
    4.4506    0.5928    1.1476 N   0  0  0  0  0  0  0  0  0  0  0  0
    5.6283    1.3502    1.5462 C   0  0  0  0  0  0  0  0  0  0  0  0
    6.7130    0.4567    2.1672 C   0  0  0  0  0  0  0  0  0  0  0  0
    7.8747    1.2255    2.5850 N   0  0  0  0  0  0  0  0  0  0  0  0
    7.6721    1.9390    3.8362 C   0  0  0  0  0  0  0  0  0  0  0  0
    9.1202    0.4678    2.5707 C   0  0  0  0  0  0  0  0  0  0  0  0
   10.3631    1.3401    2.5505 C   0  0  0  0  0  0  0  0  0  0  0  0
   11.4798    1.0250    3.3367 C   0  0  0  0  0  0  0  0  0  0  0  0
   12.6476    1.7921    3.2795 C   0  0  0  0  0  0  0  0  0  0  0  0
   12.6857    2.8912    2.4267 C   0  0  0  0  0  0  0  0  0  0  0  0
   13.7997    3.6380    2.3668 F   0  0  0  0  0  0  0  0  0  0  0  0
   11.5903    3.2385    1.6369 C   0  0  0  0  0  0  0  0  0  0  0  0
   10.4354    2.4583    1.7037 C   0  0  0  0  0  0  0  0  0  0  0  0
    4.4015   -0.2005    0.0025 C   0  0  0  0  0  0  0  0  0  0  0  0
    5.2980   -0.2965   -0.8032 O   0  0  0  0  0  0  0  0  0  0  0  0
    3.0536   -0.9235   -0.0151 C   0  0  2  0  0  0  0  0  0  0  0  0
    3.2772   -1.9500    0.3333 H   0  0  0  0  0  0  0  0  0  0  0  0
    2.4444   -1.0046   -1.4131 C   0  0  0  0  0  0  0  0  0  0  0  0
    0.8544   -0.4686    2.7291 H   0  0  0  0  0  0  0  0  0  0  0  0
    1.9271   -1.8613    2.4554 H   0  0  0  0  0  0  0  0  0  0  0  0
    0.5513   -1.5714    1.3585 H   0  0  0  0  0  0  0  0  0  0  0  0
    5.2824    2.1100    2.2598 H   0  0  0  0  0  0  0  0  0  0  0  0
    6.0401    1.8502    0.6576 H   0  0  0  0  0  0  0  0  0  0  0  0
    7.0289   -0.2670    1.4008 H   0  0  0  0  0  0  0  0  0  0  0  0
    6.2676   -0.1274    3.0043 H   0  0  0  0  0  0  0  0  0  0  0  0
    6.7809    2.5810    3.7808 H   0  0  0  0  0  0  0  0  0  0  0  0
    8.5344    2.5884    4.0461 H   0  0  0  0  0  0  0  0  0  0  0  0
    7.5407    1.2521    4.7032 H   0  0  0  0  0  0  0  0  0  0  0  0
    9.1169   -0.1565    1.6607 H   0  0  0  0  0  0  0  0  0  0  0  0
    9.1911   -0.2395    3.4290 H   0  0  0  0  0  0  0  0  0  0  0  0
   11.4401    0.1638    4.0099 H   0  0  0  0  0  0  0  0  0  0  0  0
   13.5216    1.5545    3.8892 H   0  0  0  0  0  0  0  0  0  0  0  0
   11.6573    4.1106    0.9830 H   0  0  0  0  0  0  0  0  0  0  0  0
    9.5626    2.7195    1.1012 H   0  0  0  0  0  0  0  0  0  0  0  0
    3.1555   -1.4676   -2.1127 H   0  0  0  0  0  0  0  0  0  0  0  0
    2.1982   -0.0016   -1.7978 H   0  0  0  0  0  0  0  0  0  0  0  0
    1.5215   -1.6046   -1.4068 H   0  0  0  0  0  0  0  0  0  0  0  0
  1  2  1  0
  1 24  1  0
  1 25  1  0
  1 26  1  0
  2  3  1  6
  2  4  1  0
  2 21  1  0
  4  5  2  0
  4  6  1  0
  6  7  1  0
  6 19  1  0
  7  8  1  0
  7 27  1  0
  7 28  1  0
  8  9  1  0
  8 29  1  0
  8 30  1  0
  9 10  1  0
  9 11  1  0
 10 31  1  0
 10 32  1  0
 10 33  1  0
 11 12  1  0
 11 34  1  0
 11 35  1  0
 12 13  2  0
 12 18  1  0
 13 14  1  0
 13 36  1  0
 14 15  2  0
 14 37  1  0
 15 16  1  0
 15 17  1  0
 17 18  2  0
 17 38  1  0
 18 39  1  0
 19 20  2  0
 19 21  1  0
 21 22  1  1
 21 23  1  0
 23 40  1  0
 23 41  1  0
 23 42  1  0
M  END

