
     RDKit          3D

 39 40  0  0  0  0  0  0  0  0999 V2000
    3.3050    0.3786    1.4795 C   0  0  0  0  0  0  0  0  0  0  0  0
    3.1824    0.7109   -0.0028 C   0  0  0  0  0  0  0  0  0  0  0  0
    4.2784    0.1417   -0.7785 N   0  0  0  0  0  0  0  0  0  0  0  0
    4.2348    0.4704   -2.2058 C   0  0  0  0  0  0  0  0  0  0  0  0
    5.3944   -0.0921   -2.9668 C   0  0  0  0  0  0  0  0  0  0  0  0
    6.4523    0.5724   -3.5678 C   0  0  0  0  0  0  0  0  0  0  0  0
    7.2945   -0.4041   -4.1706 C   0  0  0  0  0  0  0  0  0  0  0  0
    6.7273   -1.6380   -3.9192 C   0  0  0  0  0  0  0  0  0  0  0  0
    5.5807   -1.4484   -3.1803 N   0  0  0  0  0  0  0  0  0  0  0  0
    4.6517   -2.5103   -2.7981 C   0  0  0  0  0  0  0  0  0  0  0  0
    5.3400   -3.7538   -2.3179 C   0  0  0  0  0  0  0  0  0  0  0  0
    5.4764   -4.8632   -3.0316 N   0  0  0  0  0  0  0  0  0  0  0  0
    6.1684   -5.6810   -2.1996 C   0  0  0  0  0  0  0  0  0  0  0  0
    6.4680   -5.1484   -1.0257 N   0  0  0  0  0  0  0  0  0  0  0  0
    5.9330   -3.9145   -1.1047 N   0  0  0  0  0  0  0  0  0  0  0  0
    6.0786   -2.9645    0.0092 C   0  0  1  0  0  0  0  0  0  0  0  0
    5.4749   -3.5530    1.2863 C   0  0  0  0  0  0  0  0  0  0  0  0
    7.5486   -2.5678    0.1730 C   0  0  0  0  0  0  0  0  0  0  0  0
    2.4612    0.8009    2.0471 H   0  0  0  0  0  0  0  0  0  0  0  0
    4.2322    0.7968    1.9072 H   0  0  0  0  0  0  0  0  0  0  0  0
    3.3199   -0.7108    1.6404 H   0  0  0  0  0  0  0  0  0  0  0  0
    3.1072    1.8146   -0.1317 H   0  0  0  0  0  0  0  0  0  0  0  0
    2.2365    0.2994   -0.3988 H   0  0  0  0  0  0  0  0  0  0  0  0
    5.1723    0.4570   -0.3990 H   0  0  0  0  0  0  0  0  0  0  0  0
    4.2151    1.5653   -2.3898 H   0  0  0  0  0  0  0  0  0  0  0  0
    3.2773    0.0865   -2.6053 H   0  0  0  0  0  0  0  0  0  0  0  0
    6.5930    1.6525   -3.5694 H   0  0  0  0  0  0  0  0  0  0  0  0
    8.2129   -0.2263   -4.7269 H   0  0  0  0  0  0  0  0  0  0  0  0
    7.0356   -2.6394   -4.2113 H   0  0  0  0  0  0  0  0  0  0  0  0
    4.0330   -2.8089   -3.6590 H   0  0  0  0  0  0  0  0  0  0  0  0
    3.9941   -2.1092   -2.0158 H   0  0  0  0  0  0  0  0  0  0  0  0
    6.4605   -6.6983   -2.4603 H   0  0  0  0  0  0  0  0  0  0  0  0
    5.4971   -2.0766   -0.2824 H   0  0  0  0  0  0  0  0  0  0  0  0
    6.0071   -4.4692    1.5817 H   0  0  0  0  0  0  0  0  0  0  0  0
    4.4122   -3.8030    1.1428 H   0  0  0  0  0  0  0  0  0  0  0  0
    5.5481   -2.8230    2.1073 H   0  0  0  0  0  0  0  0  0  0  0  0
    8.1596   -3.4476    0.4255 H   0  0  0  0  0  0  0  0  0  0  0  0
    7.6524   -1.8268    0.9810 H   0  0  0  0  0  0  0  0  0  0  0  0
    7.9420   -2.1245   -0.7545 H   0  0  0  0  0  0  0  0  0  0  0  0
  1  2  1  0
  1 19  1  0
  1 20  1  0
  1 21  1  0
  2  3  1  0
  2 22  1  0
  2 23  1  0
  3  4  1  0
  3 24  1  0
  4  5  1  0
  4 25  1  0
  4 26  1  0
  5  6  2  0
  5  9  1  0
  6  7  1  0
  6 27  1  0
  7  8  2  0
  7 28  1  0
  8  9  1  0
  8 29  1  0
  9 10  1  0
 10 11  1  0
 10 30  1  0
 10 31  1  0
 11 12  2  0
 11 15  1  0
 12 13  1  0
 13 14  2  0
 13 32  1  0
 14 15  1  0
 15 16  1  0
 16 17  1  0
 16 18  1  0
 16 33  1  6
 17 34  1  0
 17 35  1  0
 17 36  1  0
 18 37  1  0
 18 38  1  0
 18 39  1  0
M  END

