
     RDKit          3D

 55 58  0  0  0  0  0  0  0  0999 V2000
    7.3375    5.6690   -7.2269 O   0  0  0  0  0  0  0  0  0  0  0  0
    7.0591    4.6652   -6.6242 C   0  0  0  0  0  0  0  0  0  0  0  0
    7.3705    3.4541   -7.1384 O   0  0  0  0  0  0  0  0  0  0  0  0
    6.3552    4.6713   -5.2938 C   0  0  0  0  0  0  0  0  0  0  0  0
    5.7683    5.8755   -4.8737 C   0  0  0  0  0  0  0  0  0  0  0  0
    5.1137    5.9355   -3.6450 C   0  0  0  0  0  0  0  0  0  0  0  0
    5.0517    4.8040   -2.8239 C   0  0  0  0  0  0  0  0  0  0  0  0
    5.6380    3.5948   -3.2213 C   0  0  0  0  0  0  0  0  0  0  0  0
    5.5302    2.3492   -2.3532 C   0  0  0  0  0  0  0  0  0  0  0  0
    6.6759    1.4615   -2.4766 N   0  0  0  0  0  0  0  0  0  0  0  0
    7.8897    1.9251   -1.7991 C   0  0  0  0  0  0  0  0  0  0  0  0
    7.8798    1.6621   -0.2846 C   0  0  0  0  0  0  0  0  0  0  0  0
    7.6037    0.1830    0.0134 C   0  0  0  0  0  0  0  0  0  0  0  0
    6.3260   -0.3035   -0.7021 C   0  0  2  0  0  0  0  0  0  0  0  0
    6.0854   -1.7698   -0.5075 C   0  0  0  0  0  0  0  0  0  0  0  0
    4.9701   -2.2493    0.0256 N   0  0  0  0  0  0  0  0  0  0  0  0
    5.1792   -3.5818   -0.0117 N   0  0  0  0  0  0  0  0  0  0  0  0
    4.4766   -4.2201    0.3440 H   0  0  0  0  0  0  0  0  0  0  0  0
    6.3878   -3.8734   -0.5553 C   0  0  0  0  0  0  0  0  0  0  0  0
    6.8890   -5.2821   -0.7207 C   0  0  1  0  0  0  0  0  0  0  0  0
    7.1232   -5.6648   -2.2040 C   0  0  0  0  0  0  0  0  0  0  0  0
    8.3926   -5.0375   -2.7946 C   0  0  0  0  0  0  0  0  0  0  0  0
    9.6275   -5.3630   -1.9442 C   0  0  0  0  0  0  0  0  0  0  0  0
    9.4278   -4.9378   -0.4835 C   0  0  0  0  0  0  0  0  0  0  0  0
    8.1628   -5.5656    0.1156 C   0  0  0  0  0  0  0  0  0  0  0  0
    6.9819   -2.7342   -0.8795 N   0  0  0  0  0  0  0  0  0  0  0  0
    6.4176    0.0513   -2.2102 C   0  0  0  0  0  0  0  0  0  0  0  0
    6.2914    3.5460   -4.4595 C   0  0  0  0  0  0  0  0  0  0  0  0
    7.0009    2.7494   -6.5884 H   0  0  0  0  0  0  0  0  0  0  0  0
    5.8442    6.7473   -5.5259 H   0  0  0  0  0  0  0  0  0  0  0  0
    4.6554    6.8716   -3.3160 H   0  0  0  0  0  0  0  0  0  0  0  0
    4.5448    4.8633   -1.8560 H   0  0  0  0  0  0  0  0  0  0  0  0
    4.6383    1.7837   -2.6769 H   0  0  0  0  0  0  0  0  0  0  0  0
    5.3143    2.6670   -1.3107 H   0  0  0  0  0  0  0  0  0  0  0  0
    8.0301    2.9964   -2.0121 H   0  0  0  0  0  0  0  0  0  0  0  0
    8.7508    1.3977   -2.2491 H   0  0  0  0  0  0  0  0  0  0  0  0
    7.1105    2.2895    0.2001 H   0  0  0  0  0  0  0  0  0  0  0  0
    8.8462    1.9689    0.1500 H   0  0  0  0  0  0  0  0  0  0  0  0
    7.5163    0.0119    1.0992 H   0  0  0  0  0  0  0  0  0  0  0  0
    8.4514   -0.4329   -0.3350 H   0  0  0  0  0  0  0  0  0  0  0  0
    5.4518    0.2129   -0.2715 H   0  0  0  0  0  0  0  0  0  0  0  0
    6.0854   -5.9324   -0.3327 H   0  0  0  0  0  0  0  0  0  0  0  0
    6.2392   -5.3925   -2.8044 H   0  0  0  0  0  0  0  0  0  0  0  0
    7.2067   -6.7657   -2.2513 H   0  0  0  0  0  0  0  0  0  0  0  0
    8.2651   -3.9441   -2.8481 H   0  0  0  0  0  0  0  0  0  0  0  0
    8.5322   -5.3972   -3.8281 H   0  0  0  0  0  0  0  0  0  0  0  0
   10.5197   -4.8701   -2.3652 H   0  0  0  0  0  0  0  0  0  0  0  0
    9.8256   -6.4511   -1.9859 H   0  0  0  0  0  0  0  0  0  0  0  0
    9.3473   -3.8399   -0.4312 H   0  0  0  0  0  0  0  0  0  0  0  0
   10.3026   -5.2263    0.1236 H   0  0  0  0  0  0  0  0  0  0  0  0
    8.0126   -5.2235    1.1531 H   0  0  0  0  0  0  0  0  0  0  0  0
    8.2892   -6.6625    0.1626 H   0  0  0  0  0  0  0  0  0  0  0  0
    5.4909   -0.2489   -2.7252 H   0  0  0  0  0  0  0  0  0  0  0  0
    7.2375   -0.5436   -2.6501 H   0  0  0  0  0  0  0  0  0  0  0  0
    6.7770    2.5994   -4.7169 H   0  0  0  0  0  0  0  0  0  0  0  0
  1  2  2  0
  2  3  1  0
  2  4  1  0
  3 29  1  0
  4  5  2  0
  4 28  1  0
  5  6  1  0
  5 30  1  0
  6  7  2  0
  6 31  1  0
  7  8  1  0
  7 32  1  0
  8  9  1  0
  8 28  2  0
  9 10  1  0
  9 33  1  0
  9 34  1  0
 10 11  1  0
 10 27  1  0
 11 12  1  0
 11 35  1  0
 11 36  1  0
 12 13  1  0
 12 37  1  0
 12 38  1  0
 13 14  1  0
 13 39  1  0
 13 40  1  0
 14 15  1  0
 14 27  1  0
 14 41  1  1
 15 16  2  0
 15 26  1  0
 16 17  1  0
 17 18  1  0
 17 19  1  0
 19 20  1  0
 19 26  2  0
 20 21  1  0
 20 25  1  0
 20 42  1  1
 21 22  1  0
 21 43  1  0
 21 44  1  0
 22 23  1  0
 22 45  1  0
 22 46  1  0
 23 24  1  0
 23 47  1  0
 23 48  1  0
 24 25  1  0
 24 49  1  0
 24 50  1  0
 25 51  1  0
 25 52  1  0
 27 53  1  0
 27 54  1  0
 28 55  1  0
M  END

