
     RDKit          3D

 53 59  0  0  0  0  0  0  0  0999 V2000
   -1.0271    0.0970    1.3276 C   0  0  0  0  0  0  0  0  0  0  0  0
    0.0701   -0.3545    2.0669 C   0  0  0  0  0  0  0  0  0  0  0  0
    1.3649   -0.2176    1.5591 C   0  0  0  0  0  0  0  0  0  0  0  0
    1.5607    0.3673    0.3030 C   0  0  0  0  0  0  0  0  0  0  0  0
    2.8860    0.4998   -0.2227 N   0  0  0  0  0  0  0  0  0  0  0  0
    3.6862   -0.5439   -0.6951 C   0  0  0  0  0  0  0  0  0  0  0  0
    3.2358   -1.9524   -0.7746 C   0  0  0  0  0  0  0  0  0  0  0  0
    2.0295   -2.2588   -1.3895 C   0  0  0  0  0  0  0  0  0  0  0  0
    1.5729   -3.5914   -1.5036 C   0  0  0  0  0  0  0  0  0  0  0  0
    2.3272   -4.6260   -0.9974 C   0  0  0  0  0  0  0  0  0  0  0  0
    3.5727   -4.3706   -0.3602 C   0  0  0  0  0  0  0  0  0  0  0  0
    4.3579   -5.4333    0.1703 C   0  0  0  0  0  0  0  0  0  0  0  0
    5.5612   -5.1848    0.7934 C   0  0  0  0  0  0  0  0  0  0  0  0
    6.0318   -3.8541    0.9105 C   0  0  0  0  0  0  0  0  0  0  0  0
    5.2990   -2.8003    0.4041 C   0  0  0  0  0  0  0  0  0  0  0  0
    4.0491   -3.0183   -0.2446 C   0  0  0  0  0  0  0  0  0  0  0  0
    4.8666   -0.1110   -1.0819 N   0  0  0  0  0  0  0  0  0  0  0  0
    4.8629    1.2415   -0.8760 C   0  0  0  0  0  0  0  0  0  0  0  0
    5.9281    2.1610   -1.1696 C   0  0  0  0  0  0  0  0  0  0  0  0
    7.1379    1.7248   -1.7524 C   0  0  0  0  0  0  0  0  0  0  0  0
    8.1441    2.6311   -2.0416 C   0  0  0  0  0  0  0  0  0  0  0  0
    7.9554    3.9960   -1.7525 C   0  0  0  0  0  0  0  0  0  0  0  0
    6.7718    4.4351   -1.1780 C   0  0  0  0  0  0  0  0  0  0  0  0
    5.7211    3.5377   -0.8646 C   0  0  0  0  0  0  0  0  0  0  0  0
    4.4633    3.9718   -0.2383 C   0  0  0  0  0  0  0  0  0  0  0  0
    4.2507    5.3244    0.1188 C   0  0  0  0  0  0  0  0  0  0  0  0
    3.0859    5.7528    0.7364 C   0  0  0  0  0  0  0  0  0  0  0  0
    2.0731    4.8269    1.0336 C   0  0  0  0  0  0  0  0  0  0  0  0
    2.2368    3.4930    0.6961 C   0  0  0  0  0  0  0  0  0  0  0  0
    3.4111    3.0339    0.0498 C   0  0  0  0  0  0  0  0  0  0  0  0
    3.6523    1.6624   -0.3277 C   0  0  0  0  0  0  0  0  0  0  0  0
    0.4625    0.8148   -0.4436 C   0  0  0  0  0  0  0  0  0  0  0  0
   -0.8282    0.6830    0.0726 C   0  0  0  0  0  0  0  0  0  0  0  0
   -2.0382   -0.0085    1.7281 H   0  0  0  0  0  0  0  0  0  0  0  0
   -0.0798   -0.8138    3.0469 H   0  0  0  0  0  0  0  0  0  0  0  0
    2.2290   -0.5621    2.1303 H   0  0  0  0  0  0  0  0  0  0  0  0
    1.4233   -1.4573   -1.8132 H   0  0  0  0  0  0  0  0  0  0  0  0
    0.6211   -3.7917   -2.0015 H   0  0  0  0  0  0  0  0  0  0  0  0
    1.9812   -5.6599   -1.0808 H   0  0  0  0  0  0  0  0  0  0  0  0
    3.9840   -6.4564    0.0735 H   0  0  0  0  0  0  0  0  0  0  0  0
    6.1538   -6.0101    1.1963 H   0  0  0  0  0  0  0  0  0  0  0  0
    6.9882   -3.6598    1.4028 H   0  0  0  0  0  0  0  0  0  0  0  0
    5.6841   -1.7842    0.4762 H   0  0  0  0  0  0  0  0  0  0  0  0
    7.2491    0.6609   -1.9702 H   0  0  0  0  0  0  0  0  0  0  0  0
    9.0788    2.2906   -2.4945 H   0  0  0  0  0  0  0  0  0  0  0  0
    8.7441    4.7173   -1.9815 H   0  0  0  0  0  0  0  0  0  0  0  0
    6.6623    5.4997   -0.9701 H   0  0  0  0  0  0  0  0  0  0  0  0
    5.0266    6.0613   -0.0879 H   0  0  0  0  0  0  0  0  0  0  0  0
    2.9641    6.8070    0.9973 H   0  0  0  0  0  0  0  0  0  0  0  0
    1.1572    5.1519    1.5335 H   0  0  0  0  0  0  0  0  0  0  0  0
    1.4468    2.7876    0.9429 H   0  0  0  0  0  0  0  0  0  0  0  0
    0.6295    1.2702   -1.4222 H   0  0  0  0  0  0  0  0  0  0  0  0
   -1.6826    1.0360   -0.5101 H   0  0  0  0  0  0  0  0  0  0  0  0
  1  2  2  0
  1 33  1  0
  1 34  1  0
  2  3  1  0
  2 35  1  0
  3  4  2  0
  3 36  1  0
  4  5  1  0
  4 32  1  0
  5  6  1  0
  5 31  1  0
  6  7  1  0
  6 17  2  0
  7  8  2  0
  7 16  1  0
  8  9  1  0
  8 37  1  0
  9 10  2  0
  9 38  1  0
 10 11  1  0
 10 39  1  0
 11 12  1  0
 11 16  2  0
 12 13  2  0
 12 40  1  0
 13 14  1  0
 13 41  1  0
 14 15  2  0
 14 42  1  0
 15 16  1  0
 15 43  1  0
 17 18  1  0
 18 19  2  0
 18 31  1  0
 19 20  1  0
 19 24  1  0
 20 21  2  0
 20 44  1  0
 21 22  1  0
 21 45  1  0
 22 23  2  0
 22 46  1  0
 23 24  1  0
 23 47  1  0
 24 25  2  0
 25 26  1  0
 25 30  1  0
 26 27  2  0
 26 48  1  0
 27 28  1  0
 27 49  1  0
 28 29  2  0
 28 50  1  0
 29 30  1  0
 29 51  1  0
 30 31  2  0
 32 33  2  0
 32 52  1  0
 33 53  1  0
M  END

