
     RDKit          3D

 86 88  0  0  0  0  0  0  0  0999 V2000
   13.5971    1.8183  -10.1316 C   0  0  0  0  0  0  0  0  0  0  0  0
   12.5768    2.6820   -9.5787 N   0  0  0  0  0  0  0  0  0  0  0  0
   12.2714    2.7175   -8.2463 C   0  0  0  0  0  0  0  0  0  0  0  0
   12.8489    2.0285   -7.4135 O   0  0  0  0  0  0  0  0  0  0  0  0
   11.1776    3.6761   -7.8911 C   0  0  0  0  0  0  0  0  0  0  0  0
   10.6852    3.6981   -6.6458 C   0  0  0  0  0  0  0  0  0  0  0  0
    9.5809    4.5512   -6.0751 C   0  0  2  0  0  0  0  0  0  0  0  0
    8.6764    3.9125   -6.0543 H   0  0  0  0  0  0  0  0  0  0  0  0
    9.1732    5.8212   -6.8708 C   0  0  0  0  0  0  0  0  0  0  0  0
    9.9964    7.0754   -6.6370 C   0  0  0  0  0  0  0  0  0  0  0  0
   11.3930    7.1162   -6.7998 C   0  0  0  0  0  0  0  0  0  0  0  0
   12.1092    8.2958   -6.5762 C   0  0  0  0  0  0  0  0  0  0  0  0
   11.4456    9.4644   -6.1886 C   0  0  0  0  0  0  0  0  0  0  0  0
   10.0579    9.4433   -6.0257 C   0  0  0  0  0  0  0  0  0  0  0  0
    9.3472    8.2587   -6.2467 C   0  0  0  0  0  0  0  0  0  0  0  0
    9.8907    4.8326   -4.6834 N   0  0  0  0  0  0  0  0  0  0  0  0
    8.9420    5.0417   -3.7387 C   0  0  0  0  0  0  0  0  0  0  0  0
    7.7392    5.0041   -3.9569 O   0  0  0  0  0  0  0  0  0  0  0  0
    9.5054    5.3062   -2.3196 C   0  0  2  0  0  0  0  0  0  0  0  0
    9.2689    4.3828   -1.7627 H   0  0  0  0  0  0  0  0  0  0  0  0
    8.7299    6.4576   -1.6445 C   0  0  0  0  0  0  0  0  0  0  0  0
    8.9102    7.8139   -2.3298 C   0  0  0  0  0  0  0  0  0  0  0  0
    8.1523    8.9523   -1.6395 C   0  0  0  0  0  0  0  0  0  0  0  0
    8.3149   10.2215   -2.3240 N   0  0  0  0  0  0  0  0  0  0  0  0
    7.2999   10.8447   -2.9808 C   0  0  0  0  0  0  0  0  0  0  0  0
    6.1311   10.5159   -2.9579 O   0  0  0  0  0  0  0  0  0  0  0  0
    7.7835   11.9132   -3.6719 O   0  0  0  0  0  0  0  0  0  0  0  0
    6.8243   12.7159   -4.3862 C   0  0  0  0  0  0  0  0  0  0  0  0
    6.6578   12.2785   -5.8232 C   0  0  0  0  0  0  0  0  0  0  0  0
    5.8324   11.1882   -6.1493 C   0  0  0  0  0  0  0  0  0  0  0  0
    5.6913   10.7814   -7.4783 C   0  0  0  0  0  0  0  0  0  0  0  0
    6.3689   11.4579   -8.4988 C   0  0  0  0  0  0  0  0  0  0  0  0
    7.1898   12.5442   -8.1846 C   0  0  0  0  0  0  0  0  0  0  0  0
    7.3325   12.9493   -6.8539 C   0  0  0  0  0  0  0  0  0  0  0  0
   10.9605    5.4333   -2.3326 N   0  0  0  0  0  0  0  0  0  0  0  0
   11.6963    4.9107   -1.1846 C   0  0  0  0  0  0  0  0  0  0  0  0
   13.1860    4.8252   -1.4609 C   0  0  0  0  0  0  0  0  0  0  0  0
   14.1004    5.4159   -0.5952 C   0  0  0  0  0  0  0  0  0  0  0  0
   15.4842    5.3079   -0.8480 C   0  0  0  0  0  0  0  0  0  0  0  0
   16.2977    5.9156    0.0541 O   0  0  0  0  0  0  0  0  0  0  0  0
   17.6935    5.8510   -0.1268 C   0  0  0  0  0  0  0  0  0  0  0  0
   15.9394    4.6161   -1.9700 C   0  0  0  0  0  0  0  0  0  0  0  0
   15.0083    4.0231   -2.8486 C   0  0  0  0  0  0  0  0  0  0  0  0
   15.5455    3.3745   -3.9094 O   0  0  0  0  0  0  0  0  0  0  0  0
   14.6890    2.7801   -4.8662 C   0  0  0  0  0  0  0  0  0  0  0  0
   13.6369    4.1244   -2.5974 C   0  0  0  0  0  0  0  0  0  0  0  0
   14.3841    2.3972  -10.6445 H   0  0  0  0  0  0  0  0  0  0  0  0
   13.1731    1.0953  -10.8494 H   0  0  0  0  0  0  0  0  0  0  0  0
   14.0495    1.2636   -9.2995 H   0  0  0  0  0  0  0  0  0  0  0  0
   12.0418    3.2660  -10.2095 H   0  0  0  0  0  0  0  0  0  0  0  0
   10.8057    4.3503   -8.6694 H   0  0  0  0  0  0  0  0  0  0  0  0
   11.1183    2.9732   -5.9459 H   0  0  0  0  0  0  0  0  0  0  0  0
    8.1336    6.0421   -6.5909 H   0  0  0  0  0  0  0  0  0  0  0  0
    9.1498    5.5685   -7.9453 H   0  0  0  0  0  0  0  0  0  0  0  0
   11.9326    6.2166   -7.1013 H   0  0  0  0  0  0  0  0  0  0  0  0
   13.1947    8.3008   -6.7076 H   0  0  0  0  0  0  0  0  0  0  0  0
   12.0078   10.3861   -6.0175 H   0  0  0  0  0  0  0  0  0  0  0  0
    9.5212   10.3454   -5.7207 H   0  0  0  0  0  0  0  0  0  0  0  0
    8.2614    8.2551   -6.1160 H   0  0  0  0  0  0  0  0  0  0  0  0
   10.8515    4.9244   -4.3584 H   0  0  0  0  0  0  0  0  0  0  0  0
    9.0401    6.5198   -0.5863 H   0  0  0  0  0  0  0  0  0  0  0  0
    7.6626    6.1865   -1.6528 H   0  0  0  0  0  0  0  0  0  0  0  0
    8.5681    7.7503   -3.3751 H   0  0  0  0  0  0  0  0  0  0  0  0
    9.9825    8.0845   -2.3692 H   0  0  0  0  0  0  0  0  0  0  0  0
    8.4849    9.0481   -0.5893 H   0  0  0  0  0  0  0  0  0  0  0  0
    7.0733    8.7423   -1.6188 H   0  0  0  0  0  0  0  0  0  0  0  0
    9.2471   10.5911   -2.4713 H   0  0  0  0  0  0  0  0  0  0  0  0
    7.2219   13.7396   -4.3409 H   0  0  0  0  0  0  0  0  0  0  0  0
    5.8653   12.6731   -3.8515 H   0  0  0  0  0  0  0  0  0  0  0  0
    5.3108   10.6609   -5.3473 H   0  0  0  0  0  0  0  0  0  0  0  0
    5.0443    9.9339   -7.7199 H   0  0  0  0  0  0  0  0  0  0  0  0
    6.2547   11.1395   -9.5383 H   0  0  0  0  0  0  0  0  0  0  0  0
    7.7202   13.0788   -8.9769 H   0  0  0  0  0  0  0  0  0  0  0  0
    7.9741   13.8021   -6.6124 H   0  0  0  0  0  0  0  0  0  0  0  0
   11.2525    6.3883   -2.5363 H   0  0  0  0  0  0  0  0  0  0  0  0
   11.3106    3.8949   -0.9855 H   0  0  0  0  0  0  0  0  0  0  0  0
   11.5331    5.4909   -0.2534 H   0  0  0  0  0  0  0  0  0  0  0  0
   13.7764    5.9667    0.2901 H   0  0  0  0  0  0  0  0  0  0  0  0
   18.1445    6.3996    0.7113 H   0  0  0  0  0  0  0  0  0  0  0  0
   18.0085    6.3237   -1.0748 H   0  0  0  0  0  0  0  0  0  0  0  0
   18.0628    4.8096   -0.1131 H   0  0  0  0  0  0  0  0  0  0  0  0
   16.9965    4.5101   -2.2087 H   0  0  0  0  0  0  0  0  0  0  0  0
   15.3310    2.3392   -5.6386 H   0  0  0  0  0  0  0  0  0  0  0  0
   14.0243    3.5187   -5.3434 H   0  0  0  0  0  0  0  0  0  0  0  0
   14.0671    1.9820   -4.4252 H   0  0  0  0  0  0  0  0  0  0  0  0
   12.9055    3.6700   -3.2637 H   0  0  0  0  0  0  0  0  0  0  0  0
  1  2  1  0
  1 47  1  0
  1 48  1  0
  1 49  1  0
  2  3  1  0
  2 50  1  0
  3  4  2  0
  3  5  1  0
  5  6  2  0
  5 51  1  0
  6  7  1  0
  6 52  1  0
  7  8  1  1
  7  9  1  0
  7 16  1  0
  9 10  1  0
  9 53  1  0
  9 54  1  0
 10 11  2  0
 10 15  1  0
 11 12  1  0
 11 55  1  0
 12 13  2  0
 12 56  1  0
 13 14  1  0
 13 57  1  0
 14 15  2  0
 14 58  1  0
 15 59  1  0
 16 17  1  0
 16 60  1  0
 17 18  2  0
 17 19  1  0
 19 20  1  1
 19 21  1  0
 19 35  1  0
 21 22  1  0
 21 61  1  0
 21 62  1  0
 22 23  1  0
 22 63  1  0
 22 64  1  0
 23 24  1  0
 23 65  1  0
 23 66  1  0
 24 25  1  0
 24 67  1  0
 25 26  2  0
 25 27  1  0
 27 28  1  0
 28 29  1  0
 28 68  1  0
 28 69  1  0
 29 30  2  0
 29 34  1  0
 30 31  1  0
 30 70  1  0
 31 32  2  0
 31 71  1  0
 32 33  1  0
 32 72  1  0
 33 34  2  0
 33 73  1  0
 34 74  1  0
 35 36  1  0
 35 75  1  0
 36 37  1  0
 36 76  1  0
 36 77  1  0
 37 38  2  0
 37 46  1  0
 38 39  1  0
 38 78  1  0
 39 40  1  0
 39 42  2  0
 40 41  1  0
 41 79  1  0
 41 80  1  0
 41 81  1  0
 42 43  1  0
 42 82  1  0
 43 44  1  0
 43 46  2  0
 44 45  1  0
 45 83  1  0
 45 84  1  0
 45 85  1  0
 46 86  1  0
M  END

