
     RDKit          3D

 24 24  0  0  0  0  0  0  0  0999 V2000
    1.0934   -0.0708   -0.1080 N   0  0  0  0  0  0  0  0  0  0  0  0
    2.6664    0.2160   -0.1115 S   0  0  0  0  0  0  0  0  0  0  0  0
    3.1506    1.1502    1.3938 C   0  0  0  0  0  0  0  0  0  0  0  0
    4.4412    1.2687    2.0021 C   0  0  0  0  0  0  0  0  0  0  0  0
    4.2093    2.1527    3.0136 C   0  0  0  0  0  0  0  0  0  0  0  0
    2.9248    2.5359    3.0125 O   0  0  0  0  0  0  0  0  0  0  0  0
    2.2547    1.9022    1.9822 N   0  0  0  0  0  0  0  0  0  0  0  0
    3.2524   -1.5216    0.5466 C   0  0  1  0  0  0  0  0  0  0  0  0
    2.4843   -2.5266   -0.1047 N   0  0  0  0  0  0  0  0  0  0  0  0
    4.6664   -1.5985    0.3825 N   0  0  0  0  0  0  0  0  0  0  0  0
    5.2830   -2.7142    0.6052 C   0  0  0  0  0  0  0  0  0  0  0  0
    4.7879   -3.9112    0.9529 N   0  0  0  0  0  0  0  0  0  0  0  0
    6.8079   -2.6548    0.4842 C   0  0  0  0  0  0  0  0  0  0  0  0
    7.5085   -3.6083    0.7065 O   0  0  0  0  0  0  0  0  0  0  0  0
    7.2351   -1.4572    0.1113 O   0  0  0  0  0  0  0  0  0  0  0  0
    0.6975    0.5108   -0.8528 H   0  0  0  0  0  0  0  0  0  0  0  0
    5.3630    0.7625    1.7349 H   0  0  0  0  0  0  0  0  0  0  0  0
    4.8387    2.5858    3.7895 H   0  0  0  0  0  0  0  0  0  0  0  0
    2.9598   -1.4745    1.6119 H   0  0  0  0  0  0  0  0  0  0  0  0
    2.7351   -2.5842   -1.0955 H   0  0  0  0  0  0  0  0  0  0  0  0
    1.4973   -2.2331   -0.0600 H   0  0  0  0  0  0  0  0  0  0  0  0
    3.7849   -4.0664    0.8767 H   0  0  0  0  0  0  0  0  0  0  0  0
    5.4466   -4.6773    1.0471 H   0  0  0  0  0  0  0  0  0  0  0  0
    6.4090   -0.9273   -0.0086 H   0  0  0  0  0  0  0  0  0  0  0  0
  1  2  3  0
  1 16  1  0
  2  3  2  0
  2  8  1  1
  3  4  1  0
  3  7  1  0
  4  5  2  0
  4 17  1  0
  5  6  1  0
  5 18  1  0
  6  7  2  0
  8  9  1  0
  8 10  1  0
  8 19  1  1
  9 20  1  0
  9 21  1  0
 10 11  1  0
 11 12  1  0
 11 13  2  0
 12 22  1  0
 12 23  1  0
 13 14  1  0
 13 15  1  0
 15 24  1  0
M  CHG  4   1   1   6   1  10  -1  14  -1
M  END

