
     RDKit          3D

 53 56  0  0  0  0  0  0  0  0999 V2000
    1.3056   -0.6838    1.3165 C   0  0  0  0  0  0  0  0  0  0  0  0
    1.0786   -1.3399    2.5912 N   0  0  0  0  0  0  0  0  0  0  0  0
    0.0686   -0.9201    3.3717 N   0  0  0  0  0  0  0  0  0  0  0  0
    0.0544   -1.7501    4.4095 C   0  0  0  0  0  0  0  0  0  0  0  0
    1.0668   -2.7290    4.2986 C   0  0  0  0  0  0  0  0  0  0  0  0
    1.7156   -2.4366    3.1031 C   0  0  0  0  0  0  0  0  0  0  0  0
    2.8795   -3.1296    2.4588 C   0  0  0  0  0  0  0  0  0  0  0  0
    2.5843   -3.9100    1.1565 C   0  0  0  0  0  0  0  0  0  0  0  0
    1.4620   -4.8236    1.2434 N   0  0  0  0  0  0  0  0  0  0  0  0
    0.2466   -4.4946    0.6676 C   0  0  0  0  0  0  0  0  0  0  0  0
    0.1044   -3.4815   -0.0089 O   0  0  0  0  0  0  0  0  0  0  0  0
   -0.7918   -5.3896    0.8683 N   0  0  0  0  0  0  0  0  0  0  0  0
   -2.1475   -4.9788    0.5109 C   0  0  0  0  0  0  0  0  0  0  0  0
   -2.8287   -6.0206   -0.3772 C   0  0  0  0  0  0  0  0  0  0  0  0
   -2.7865   -7.4074    0.2707 C   0  0  0  0  0  0  0  0  0  0  0  0
   -1.3375   -7.7956    0.6330 C   0  0  2  0  0  0  0  0  0  0  0  0
   -1.2694   -9.1168    1.3364 C   0  0  0  0  0  0  0  0  0  0  0  0
   -1.6874   -9.3825    2.5601 N   0  0  0  0  0  0  0  0  0  0  0  0
   -1.4176  -10.7155    2.7229 C   0  0  0  0  0  0  0  0  0  0  0  0
   -1.7194  -11.4569    3.9585 C   0  0  0  0  0  0  0  0  0  0  0  0
   -2.3233  -10.7990    5.0429 C   0  0  0  0  0  0  0  0  0  0  0  0
   -2.6123  -11.4966    6.2174 C   0  0  0  0  0  0  0  0  0  0  0  0
   -2.3028  -12.8563    6.3231 C   0  0  0  0  0  0  0  0  0  0  0  0
   -1.7013  -13.5167    5.2455 C   0  0  0  0  0  0  0  0  0  0  0  0
   -1.4105  -12.8240    4.0701 C   0  0  0  0  0  0  0  0  0  0  0  0
   -0.8548  -11.2799    1.6579 N   0  0  0  0  0  0  0  0  0  0  0  0
   -0.7670  -10.2538    0.7918 N   0  0  0  0  0  0  0  0  0  0  0  0
   -0.3693  -10.3947   -0.1302 H   0  0  0  0  0  0  0  0  0  0  0  0
   -0.6802   -6.6928    1.4995 C   0  0  0  0  0  0  0  0  0  0  0  0
    0.8588    0.3159    1.3775 H   0  0  0  0  0  0  0  0  0  0  0  0
    0.8373   -1.2573    0.5018 H   0  0  0  0  0  0  0  0  0  0  0  0
    2.3848   -0.5847    1.1247 H   0  0  0  0  0  0  0  0  0  0  0  0
   -0.6770   -1.6122    5.2060 H   0  0  0  0  0  0  0  0  0  0  0  0
    1.3156   -3.5266    4.9960 H   0  0  0  0  0  0  0  0  0  0  0  0
    3.2942   -3.8243    3.2078 H   0  0  0  0  0  0  0  0  0  0  0  0
    3.6906   -2.4114    2.2397 H   0  0  0  0  0  0  0  0  0  0  0  0
    3.4966   -4.4659    0.8762 H   0  0  0  0  0  0  0  0  0  0  0  0
    2.3579   -3.2213    0.3330 H   0  0  0  0  0  0  0  0  0  0  0  0
    1.4579   -5.4587    2.0313 H   0  0  0  0  0  0  0  0  0  0  0  0
   -2.0735   -4.0078    0.0085 H   0  0  0  0  0  0  0  0  0  0  0  0
   -2.7396   -4.8412    1.4378 H   0  0  0  0  0  0  0  0  0  0  0  0
   -2.3199   -6.0477   -1.3567 H   0  0  0  0  0  0  0  0  0  0  0  0
   -3.8722   -5.7183   -0.5637 H   0  0  0  0  0  0  0  0  0  0  0  0
   -3.2216   -8.1700   -0.3958 H   0  0  0  0  0  0  0  0  0  0  0  0
   -3.3886   -7.4154    1.1958 H   0  0  0  0  0  0  0  0  0  0  0  0
   -0.7562   -7.8714   -0.3034 H   0  0  0  0  0  0  0  0  0  0  0  0
   -2.5608   -9.7380    4.9478 H   0  0  0  0  0  0  0  0  0  0  0  0
   -3.0827  -10.9757    7.0555 H   0  0  0  0  0  0  0  0  0  0  0  0
   -2.5298  -13.4013    7.2431 H   0  0  0  0  0  0  0  0  0  0  0  0
   -1.4575  -14.5795    5.3227 H   0  0  0  0  0  0  0  0  0  0  0  0
   -0.9417  -13.3321    3.2252 H   0  0  0  0  0  0  0  0  0  0  0  0
    0.3751   -6.9571    1.6411 H   0  0  0  0  0  0  0  0  0  0  0  0
   -1.1631   -6.7009    2.4949 H   0  0  0  0  0  0  0  0  0  0  0  0
  1  2  1  0
  1 30  1  0
  1 31  1  0
  1 32  1  0
  2  3  1  0
  2  6  1  0
  3  4  2  0
  4  5  1  0
  4 33  1  0
  5  6  2  0
  5 34  1  0
  6  7  1  0
  7  8  1  0
  7 35  1  0
  7 36  1  0
  8  9  1  0
  8 37  1  0
  8 38  1  0
  9 10  1  0
  9 39  1  0
 10 11  2  0
 10 12  1  0
 12 13  1  0
 12 29  1  0
 13 14  1  0
 13 40  1  0
 13 41  1  0
 14 15  1  0
 14 42  1  0
 14 43  1  0
 15 16  1  0
 15 44  1  0
 15 45  1  0
 16 17  1  0
 16 29  1  0
 16 46  1  6
 17 18  2  0
 17 27  1  0
 18 19  1  0
 19 20  1  0
 19 26  2  0
 20 21  2  0
 20 25  1  0
 21 22  1  0
 21 47  1  0
 22 23  2  0
 22 48  1  0
 23 24  1  0
 23 49  1  0
 24 25  2  0
 24 50  1  0
 25 51  1  0
 26 27  1  0
 27 28  1  0
 29 52  1  0
 29 53  1  0
M  END

