
     RDKit          3D

 38 38  0  0  0  0  0  0  0  0999 V2000
    1.7956   -0.0111   -0.2929 C   0  0  0  0  0  0  0  0  0  0  0  0
    1.9469   -0.5389    1.1244 C   0  0  0  0  0  0  0  0  0  0  0  0
    2.6346    0.3986    1.9713 O   0  0  0  0  0  0  0  0  0  0  0  0
    3.9726    0.3510    1.9803 C   0  0  0  0  0  0  0  0  0  0  0  0
    4.6251   -0.4101    1.2948 O   0  0  0  0  0  0  0  0  0  0  0  0
    4.6024    1.3305    2.9266 C   0  0  0  0  0  0  0  0  0  0  0  0
    3.7848    1.9788    3.7023 N   0  0  0  0  0  0  0  0  0  0  0  0
    4.1344    2.8753    4.6124 N   0  0  0  0  0  0  0  0  0  0  0  0
    5.2839    3.7265    4.6767 C   0  0  0  0  0  0  0  0  0  0  0  0
    5.7238    4.4347    3.5493 C   0  0  0  0  0  0  0  0  0  0  0  0
    6.7983    5.3191    3.6635 C   0  0  0  0  0  0  0  0  0  0  0  0
    7.4237    5.5143    4.8995 C   0  0  0  0  0  0  0  0  0  0  0  0
    6.9732    4.8159    6.0238 C   0  0  0  0  0  0  0  0  0  0  0  0
    5.9089    3.9172    5.9160 C   0  0  0  0  0  0  0  0  0  0  0  0
    6.1053    1.3344    2.9502 C   0  0  0  0  0  0  0  0  0  0  0  0
    6.8673    1.6401    1.6899 C   0  0  0  0  0  0  0  0  0  0  0  0
    6.7849    1.0265    4.0027 N   0  0  0  0  0  0  0  0  0  0  0  0
    6.1669    0.6976    5.1536 N   0  0  0  0  0  0  0  0  0  0  0  0
    6.8857    0.4491    6.3017 C   0  0  0  0  0  0  0  0  0  0  0  0
    8.2222    0.4733    6.1547 N   0  0  0  0  0  0  0  0  0  0  0  0
    6.0877    0.1596    7.7438 S   0  0  0  0  0  0  0  0  0  0  0  0
    1.1915   -0.7121   -0.8912 H   0  0  0  0  0  0  0  0  0  0  0  0
    2.7775    0.0931   -0.7776 H   0  0  0  0  0  0  0  0  0  0  0  0
    1.2910    0.9677   -0.2963 H   0  0  0  0  0  0  0  0  0  0  0  0
    2.4891   -1.4961    1.1304 H   0  0  0  0  0  0  0  0  0  0  0  0
    0.9669   -0.6774    1.6039 H   0  0  0  0  0  0  0  0  0  0  0  0
    3.3329    3.1889    5.1524 H   0  0  0  0  0  0  0  0  0  0  0  0
    5.2146    4.3035    2.5925 H   0  0  0  0  0  0  0  0  0  0  0  0
    7.1391    5.8700    2.7832 H   0  0  0  0  0  0  0  0  0  0  0  0
    8.2604    6.2118    4.9855 H   0  0  0  0  0  0  0  0  0  0  0  0
    7.4600    4.9592    6.9916 H   0  0  0  0  0  0  0  0  0  0  0  0
    5.5749    3.3394    6.7814 H   0  0  0  0  0  0  0  0  0  0  0  0
    6.5880    2.6270    1.2851 H   0  0  0  0  0  0  0  0  0  0  0  0
    6.6375    0.8870    0.9213 H   0  0  0  0  0  0  0  0  0  0  0  0
    7.9460    1.6343    1.8972 H   0  0  0  0  0  0  0  0  0  0  0  0
    5.1519    0.6643    5.2510 H   0  0  0  0  0  0  0  0  0  0  0  0
    8.6206    0.6672    5.2413 H   0  0  0  0  0  0  0  0  0  0  0  0
    8.7970    0.2969    6.9662 H   0  0  0  0  0  0  0  0  0  0  0  0
  1  2  1  0
  1 22  1  0
  1 23  1  0
  1 24  1  0
  2  3  1  0
  2 25  1  0
  2 26  1  0
  3  4  1  0
  4  5  2  0
  4  6  1  0
  6  7  2  0
  6 15  1  0
  7  8  1  0
  8  9  1  0
  8 27  1  0
  9 10  2  0
  9 14  1  0
 10 11  1  0
 10 28  1  0
 11 12  2  0
 11 29  1  0
 12 13  1  0
 12 30  1  0
 13 14  2  0
 13 31  1  0
 14 32  1  0
 15 16  1  0
 15 17  2  0
 16 33  1  0
 16 34  1  0
 16 35  1  0
 17 18  1  0
 18 19  1  0
 18 36  1  0
 19 20  1  0
 19 21  2  0
 20 37  1  0
 20 38  1  0
M  END

