
     RDKit          3D

 45 45  0  0  0  0  0  0  0  0999 V2000
    3.2459   -0.3245   -1.0925 C   0  0  0  0  0  0  0  0  0  0  0  0
    2.4697   -0.0781    0.2056 C   0  0  0  0  0  0  0  0  0  0  0  0
    3.0107    1.0135    1.1683 C   0  0  1  0  0  0  0  0  0  0  0  0
    3.2093    2.3705    0.4368 C   0  0  0  0  0  0  0  0  0  0  0  0
    1.9982    2.9770   -0.2805 C   0  0  0  0  0  0  0  0  0  0  0  0
    1.9902    1.2449    2.3103 C   0  0  0  0  0  0  0  0  0  0  0  0
    1.4880   -0.2001    3.3419 S   0  0  0  0  0  0  0  0  0  0  0  0
    4.3817    0.5317    1.7395 C   0  0  0  0  0  0  0  0  0  0  0  0
    5.0305    1.4216    2.7155 N   0  0  0  0  0  0  0  0  0  0  0  0
    4.9222    0.8928    4.0735 C   0  0  0  0  0  0  0  0  0  0  0  0
    6.4272    1.8141    2.4363 C   0  0  1  0  0  0  0  0  0  0  0  0
    6.7047    2.2557    0.9890 C   0  0  0  0  0  0  0  0  0  0  0  0
    6.8643    2.9618    3.3519 C   0  0  0  0  0  0  0  0  0  0  0  0
    5.9698    3.9965    3.6729 C   0  0  0  0  0  0  0  0  0  0  0  0
    6.3511    5.0875    4.4541 C   0  0  0  0  0  0  0  0  0  0  0  0
    7.6591    5.1724    4.9400 C   0  0  0  0  0  0  0  0  0  0  0  0
    8.5747    4.1660    4.6335 C   0  0  0  0  0  0  0  0  0  0  0  0
    8.1751    3.0814    3.8448 C   0  0  0  0  0  0  0  0  0  0  0  0
    9.3934    1.8647    3.4728 Cl  0  0  0  0  0  0  0  0  0  0  0  0
    2.7703   -1.1331   -1.6704 H   0  0  0  0  0  0  0  0  0  0  0  0
    4.2870   -0.6333   -0.9089 H   0  0  0  0  0  0  0  0  0  0  0  0
    3.2737    0.5646   -1.7421 H   0  0  0  0  0  0  0  0  0  0  0  0
    2.4121   -1.0249    0.7681 H   0  0  0  0  0  0  0  0  0  0  0  0
    1.4258    0.1736   -0.0537 H   0  0  0  0  0  0  0  0  0  0  0  0
    4.0199    2.2456   -0.2995 H   0  0  0  0  0  0  0  0  0  0  0  0
    3.5934    3.0926    1.1751 H   0  0  0  0  0  0  0  0  0  0  0  0
    1.5993    2.3149   -1.0656 H   0  0  0  0  0  0  0  0  0  0  0  0
    2.2837    3.9223   -0.7695 H   0  0  0  0  0  0  0  0  0  0  0  0
    1.1696    3.2115    0.4059 H   0  0  0  0  0  0  0  0  0  0  0  0
    1.0682    1.6946    1.9187 H   0  0  0  0  0  0  0  0  0  0  0  0
    2.4116    1.9612    3.0310 H   0  0  0  0  0  0  0  0  0  0  0  0
    0.6402   -0.7669    2.4541 H   0  0  0  0  0  0  0  0  0  0  0  0
    5.0503    0.3600    0.8871 H   0  0  0  0  0  0  0  0  0  0  0  0
    4.2211   -0.4633    2.1930 H   0  0  0  0  0  0  0  0  0  0  0  0
    3.8827    0.6319    4.3093 H   0  0  0  0  0  0  0  0  0  0  0  0
    5.2566    1.6349    4.8119 H   0  0  0  0  0  0  0  0  0  0  0  0
    5.5327   -0.0264    4.2189 H   0  0  0  0  0  0  0  0  0  0  0  0
    7.1005    0.9573    2.6469 H   0  0  0  0  0  0  0  0  0  0  0  0
    6.0889    3.1235    0.7119 H   0  0  0  0  0  0  0  0  0  0  0  0
    6.5330    1.4536    0.2575 H   0  0  0  0  0  0  0  0  0  0  0  0
    7.7621    2.5461    0.9062 H   0  0  0  0  0  0  0  0  0  0  0  0
    4.9463    3.9120    3.3022 H   0  0  0  0  0  0  0  0  0  0  0  0
    5.6256    5.8711    4.6859 H   0  0  0  0  0  0  0  0  0  0  0  0
    7.9707    6.0191    5.5567 H   0  0  0  0  0  0  0  0  0  0  0  0
    9.6026    4.2098    4.9972 H   0  0  0  0  0  0  0  0  0  0  0  0
  1  2  1  0
  1 20  1  0
  1 21  1  0
  1 22  1  0
  3  2  1  6
  2 23  1  0
  2 24  1  0
  3  4  1  0
  3  6  1  0
  3  8  1  0
  4  5  1  0
  4 25  1  0
  4 26  1  0
  5 27  1  0
  5 28  1  0
  5 29  1  0
  6  7  1  0
  6 30  1  0
  6 31  1  0
  7 32  1  0
  8  9  1  0
  8 33  1  0
  8 34  1  0
  9 10  1  0
  9 11  1  0
 10 35  1  0
 10 36  1  0
 10 37  1  0
 11 12  1  0
 11 13  1  0
 11 38  1  1
 12 39  1  0
 12 40  1  0
 12 41  1  0
 13 14  2  0
 13 18  1  0
 14 15  1  0
 14 42  1  0
 15 16  2  0
 15 43  1  0
 16 17  1  0
 16 44  1  0
 17 18  2  0
 17 45  1  0
 18 19  1  0
M  END

