
     RDKit          3D

 35 37  0  0  0  0  0  0  0  0999 V2000
    9.3174   -1.0363   -2.6275 C   0  0  0  0  0  0  0  0  0  0  0  0
    7.9629   -1.6323   -2.9282 C   0  0  0  0  0  0  0  0  0  0  0  0
    7.5579   -1.9173   -4.2396 C   0  0  0  0  0  0  0  0  0  0  0  0
    6.3042   -2.4718   -4.5037 C   0  0  0  0  0  0  0  0  0  0  0  0
    5.4222   -2.7683   -3.4577 C   0  0  0  0  0  0  0  0  0  0  0  0
    4.1846   -3.2907   -3.6860 O   0  0  0  0  0  0  0  0  0  0  0  0
    5.8097   -2.5097   -2.1275 C   0  0  0  0  0  0  0  0  0  0  0  0
    4.8862   -2.6739   -0.9417 C   0  0  0  0  0  0  0  0  0  0  0  0
    4.6884   -1.7182   -0.2042 O   0  0  0  0  0  0  0  0  0  0  0  0
    4.3035   -3.9019   -0.7295 N   0  0  0  0  0  0  0  0  0  0  0  0
    3.4131   -4.0532    0.4121 C   0  0  0  0  0  0  0  0  0  0  0  0
    3.9358   -5.1783    1.3647 C   0  0  1  0  0  0  0  0  0  0  0  0
    3.1016   -6.4664    1.2603 C   0  0  0  0  0  0  0  0  0  0  0  0
    3.6901   -7.1154   -0.0185 C   0  0  0  0  0  0  0  0  0  0  0  0
    4.9421   -6.2414   -0.3091 C   0  0  1  0  0  0  0  0  0  0  0  0
    4.7125   -5.1359   -1.3837 C   0  0  0  0  0  0  0  0  0  0  0  0
    5.2254   -5.5985    0.9277 O   0  0  0  0  0  0  0  0  0  0  0  0
    7.0601   -1.9225   -1.8959 C   0  0  0  0  0  0  0  0  0  0  0  0
    9.8173   -0.6876   -3.5437 H   0  0  0  0  0  0  0  0  0  0  0  0
    9.9843   -1.7722   -2.1459 H   0  0  0  0  0  0  0  0  0  0  0  0
    9.2362   -0.1789   -1.9399 H   0  0  0  0  0  0  0  0  0  0  0  0
    8.2275   -1.6952   -5.0753 H   0  0  0  0  0  0  0  0  0  0  0  0
    5.9982   -2.6689   -5.5366 H   0  0  0  0  0  0  0  0  0  0  0  0
    4.0403   -3.3634   -4.6385 H   0  0  0  0  0  0  0  0  0  0  0  0
    2.3904   -4.2880    0.0618 H   0  0  0  0  0  0  0  0  0  0  0  0
    3.3820   -3.0823    0.9197 H   0  0  0  0  0  0  0  0  0  0  0  0
    4.0410   -4.8014    2.3917 H   0  0  0  0  0  0  0  0  0  0  0  0
    2.0202   -6.2728    1.1970 H   0  0  0  0  0  0  0  0  0  0  0  0
    3.2806   -7.1005    2.1412 H   0  0  0  0  0  0  0  0  0  0  0  0
    2.9849   -7.1093   -0.8635 H   0  0  0  0  0  0  0  0  0  0  0  0
    3.9771   -8.1618    0.1597 H   0  0  0  0  0  0  0  0  0  0  0  0
    5.8180   -6.8465   -0.5839 H   0  0  0  0  0  0  0  0  0  0  0  0
    3.9638   -5.4608   -2.1285 H   0  0  0  0  0  0  0  0  0  0  0  0
    5.6492   -4.9496   -1.9231 H   0  0  0  0  0  0  0  0  0  0  0  0
    7.3214   -1.6820   -0.8621 H   0  0  0  0  0  0  0  0  0  0  0  0
  1  2  1  0
  1 19  1  0
  1 20  1  0
  1 21  1  0
  2  3  2  0
  2 18  1  0
  3  4  1  0
  3 22  1  0
  4  5  2  0
  4 23  1  0
  5  6  1  0
  5  7  1  0
  6 24  1  0
  7  8  1  0
  7 18  2  0
  8  9  2  0
  8 10  1  0
 10 11  1  0
 10 16  1  0
 11 12  1  0
 11 25  1  0
 11 26  1  0
 12 13  1  0
 12 17  1  0
 12 27  1  1
 13 14  1  0
 13 28  1  0
 13 29  1  0
 14 15  1  0
 14 30  1  0
 14 31  1  0
 15 16  1  0
 15 17  1  0
 15 32  1  6
 16 33  1  0
 16 34  1  0
 18 35  1  0
M  END

