
     RDKit          3D

 42 43  0  0  0  0  0  0  0  0999 V2000
    1.0515   -0.3449    0.4073 C   0  0  0  0  0  0  0  0  0  0  0  0
    2.3605    0.1515    0.0295 N   0  0  0  0  0  0  0  0  0  0  0  0
    2.4944    0.4344   -1.3912 C   0  0  0  0  0  0  0  0  0  0  0  0
    2.2739   -0.7433   -2.3895 C   0  0  1  0  0  0  0  0  0  0  0  0
    0.8700   -0.9525   -2.7762 N   0  0  0  0  0  0  0  0  0  0  0  0
    3.0692   -0.3694   -3.6952 C   0  0  0  0  0  0  0  0  0  0  0  0
    2.4982   -0.8249   -4.8336 N   0  0  0  0  0  0  0  0  0  0  0  0
    4.1205    0.2470   -3.6605 O   0  0  0  0  0  0  0  0  0  0  0  0
    2.8958   -2.0624   -1.9032 C   0  0  0  0  0  0  0  0  0  0  0  0
    2.2162   -3.2849   -2.0150 C   0  0  0  0  0  0  0  0  0  0  0  0
    2.8103   -4.4788   -1.5889 C   0  0  0  0  0  0  0  0  0  0  0  0
    4.0999   -4.4720   -1.0562 C   0  0  0  0  0  0  0  0  0  0  0  0
    4.7940   -3.2609   -0.9589 C   0  0  0  0  0  0  0  0  0  0  0  0
    4.1993   -2.0704   -1.3771 C   0  0  0  0  0  0  0  0  0  0  0  0
    2.8138    1.2772    0.8520 C   0  0  1  0  0  0  0  0  0  0  0  0
    2.7837    1.0199    2.3708 C   0  0  0  0  0  0  0  0  0  0  0  0
    3.6577    2.1439    2.9380 C   0  0  0  0  0  0  0  0  0  0  0  0
    4.8222    2.2708    1.9310 C   0  0  0  0  0  0  0  0  0  0  0  0
    4.2911    1.6758    0.5982 C   0  0  0  0  0  0  0  0  0  0  0  0
    0.8595   -1.3195   -0.0649 H   0  0  0  0  0  0  0  0  0  0  0  0
    0.2174    0.3468    0.1378 H   0  0  0  0  0  0  0  0  0  0  0  0
    1.0029   -0.5182    1.4898 H   0  0  0  0  0  0  0  0  0  0  0  0
    3.5047    0.8131   -1.5782 H   0  0  0  0  0  0  0  0  0  0  0  0
    1.7991    1.2504   -1.7123 H   0  0  0  0  0  0  0  0  0  0  0  0
    0.4431   -0.0510   -2.9919 H   0  0  0  0  0  0  0  0  0  0  0  0
    0.3348   -1.3409   -2.0024 H   0  0  0  0  0  0  0  0  0  0  0  0
    1.6271   -1.3400   -4.7691 H   0  0  0  0  0  0  0  0  0  0  0  0
    2.9891   -0.7039   -5.7104 H   0  0  0  0  0  0  0  0  0  0  0  0
    1.2180   -3.3127   -2.4539 H   0  0  0  0  0  0  0  0  0  0  0  0
    2.2593   -5.4184   -1.6832 H   0  0  0  0  0  0  0  0  0  0  0  0
    4.5660   -5.4035   -0.7247 H   0  0  0  0  0  0  0  0  0  0  0  0
    5.8091   -3.2427   -0.5537 H   0  0  0  0  0  0  0  0  0  0  0  0
    4.7603   -1.1382   -1.3142 H   0  0  0  0  0  0  0  0  0  0  0  0
    2.1740    2.1734    0.6568 H   0  0  0  0  0  0  0  0  0  0  0  0
    3.2367    0.0322    2.5692 H   0  0  0  0  0  0  0  0  0  0  0  0
    1.7716    1.0195    2.8028 H   0  0  0  0  0  0  0  0  0  0  0  0
    3.9940    1.9471    3.9678 H   0  0  0  0  0  0  0  0  0  0  0  0
    3.0752    3.0807    2.9666 H   0  0  0  0  0  0  0  0  0  0  0  0
    5.6981    1.7010    2.2794 H   0  0  0  0  0  0  0  0  0  0  0  0
    5.1549    3.3142    1.8200 H   0  0  0  0  0  0  0  0  0  0  0  0
    4.8503    0.7654    0.3319 H   0  0  0  0  0  0  0  0  0  0  0  0
    4.3976    2.3784   -0.2408 H   0  0  0  0  0  0  0  0  0  0  0  0
  1  2  1  0
  1 20  1  0
  1 21  1  0
  1 22  1  0
  2  3  1  0
  2 15  1  0
  3  4  1  0
  3 23  1  0
  3 24  1  0
  4  5  1  0
  4  6  1  6
  4  9  1  0
  5 25  1  0
  5 26  1  0
  6  7  1  0
  6  8  2  0
  7 27  1  0
  7 28  1  0
  9 10  2  0
  9 14  1  0
 10 11  1  0
 10 29  1  0
 11 12  2  0
 11 30  1  0
 12 13  1  0
 12 31  1  0
 13 14  2  0
 13 32  1  0
 14 33  1  0
 15 16  1  0
 15 19  1  0
 15 34  1  1
 16 17  1  0
 16 35  1  0
 16 36  1  0
 17 18  1  0
 17 37  1  0
 17 38  1  0
 18 19  1  0
 18 39  1  0
 18 40  1  0
 19 41  1  0
 19 42  1  0
M  END

