
     RDKit          3D

 48 50  0  0  0  0  0  0  0  0999 V2000
    1.7431   -1.2332    2.5305 C   0  0  0  0  0  0  0  0  0  0  0  0
    2.8068   -0.5739    1.6682 C   0  0  0  0  0  0  0  0  0  0  0  0
    3.2139   -1.4234    0.5800 O   0  0  0  0  0  0  0  0  0  0  0  0
    4.1828   -2.3270    0.8244 C   0  0  0  0  0  0  0  0  0  0  0  0
    4.7247   -2.4532    1.8994 O   0  0  0  0  0  0  0  0  0  0  0  0
    4.5134   -3.1468   -0.3799 C   0  0  0  0  0  0  0  0  0  0  0  0
    5.5138   -4.1234   -0.2607 C   0  0  0  0  0  0  0  0  0  0  0  0
    5.8661   -4.9085   -1.3551 C   0  0  0  0  0  0  0  0  0  0  0  0
    5.2112   -4.7469   -2.5882 C   0  0  0  0  0  0  0  0  0  0  0  0
    5.5977   -5.5387   -3.7140 N   0  0  0  0  0  0  0  0  0  0  0  0
    6.3608   -4.8678   -4.7825 C   0  0  0  0  0  0  0  0  0  0  0  0
    5.5726   -3.8879   -5.6252 C   0  0  0  0  0  0  0  0  0  0  0  0
    5.8768   -2.5185   -5.5848 C   0  0  0  0  0  0  0  0  0  0  0  0
    5.1986   -1.5776   -6.3606 C   0  0  0  0  0  0  0  0  0  0  0  0
    4.1760   -2.0127   -7.2061 C   0  0  0  0  0  0  0  0  0  0  0  0
    3.3045   -0.8590   -8.1853 Cl  0  0  0  0  0  0  0  0  0  0  0  0
    3.8413   -3.3666   -7.2831 C   0  0  0  0  0  0  0  0  0  0  0  0
    4.5426   -4.2862   -6.4984 C   0  0  0  0  0  0  0  0  0  0  0  0
    4.1071   -5.9740   -6.6405 Cl  0  0  0  0  0  0  0  0  0  0  0  0
    5.7096   -6.9301   -3.6449 C   0  0  0  0  0  0  0  0  0  0  0  0
    6.4729   -7.5484   -4.3673 O   0  0  0  0  0  0  0  0  0  0  0  0
    4.8182   -7.6653   -2.6811 C   0  0  0  0  0  0  0  0  0  0  0  0
    3.4820   -7.3027   -2.4503 C   0  0  0  0  0  0  0  0  0  0  0  0
    2.6744   -8.0844   -1.6208 C   0  0  0  0  0  0  0  0  0  0  0  0
    3.1957   -9.2270   -1.0066 C   0  0  0  0  0  0  0  0  0  0  0  0
    4.5234   -9.6003   -1.2424 C   0  0  0  0  0  0  0  0  0  0  0  0
    5.3252   -8.8325   -2.0873 C   0  0  0  0  0  0  0  0  0  0  0  0
    4.2082   -3.7704   -2.7059 C   0  0  0  0  0  0  0  0  0  0  0  0
    3.8657   -2.9753   -1.6130 C   0  0  0  0  0  0  0  0  0  0  0  0
    1.3990   -0.5276    3.3037 H   0  0  0  0  0  0  0  0  0  0  0  0
    2.1461   -2.1233    3.0355 H   0  0  0  0  0  0  0  0  0  0  0  0
    0.8729   -1.5310    1.9249 H   0  0  0  0  0  0  0  0  0  0  0  0
    3.6922   -0.3141    2.2668 H   0  0  0  0  0  0  0  0  0  0  0  0
    2.4209    0.3343    1.1827 H   0  0  0  0  0  0  0  0  0  0  0  0
    6.0134   -4.2451    0.7022 H   0  0  0  0  0  0  0  0  0  0  0  0
    6.6555   -5.6570   -1.2609 H   0  0  0  0  0  0  0  0  0  0  0  0
    6.7608   -5.6801   -5.4051 H   0  0  0  0  0  0  0  0  0  0  0  0
    7.2196   -4.3381   -4.3380 H   0  0  0  0  0  0  0  0  0  0  0  0
    6.6733   -2.1793   -4.9173 H   0  0  0  0  0  0  0  0  0  0  0  0
    5.4546   -0.5185   -6.3105 H   0  0  0  0  0  0  0  0  0  0  0  0
    3.0497   -3.7067   -7.9504 H   0  0  0  0  0  0  0  0  0  0  0  0
    3.0651   -6.4204   -2.9373 H   0  0  0  0  0  0  0  0  0  0  0  0
    1.6319   -7.8006   -1.4560 H   0  0  0  0  0  0  0  0  0  0  0  0
    2.5645   -9.8323   -0.3508 H   0  0  0  0  0  0  0  0  0  0  0  0
    4.9314  -10.4992   -0.7732 H   0  0  0  0  0  0  0  0  0  0  0  0
    6.3530   -9.1291   -2.3057 H   0  0  0  0  0  0  0  0  0  0  0  0
    3.6841   -3.6491   -3.6539 H   0  0  0  0  0  0  0  0  0  0  0  0
    3.0826   -2.2222   -1.7068 H   0  0  0  0  0  0  0  0  0  0  0  0
  1  2  1  0
  1 30  1  0
  1 31  1  0
  1 32  1  0
  2  3  1  0
  2 33  1  0
  2 34  1  0
  3  4  1  0
  4  5  2  0
  4  6  1  0
  6  7  2  0
  6 29  1  0
  7  8  1  0
  7 35  1  0
  8  9  2  0
  8 36  1  0
  9 10  1  0
  9 28  1  0
 10 11  1  0
 10 20  1  0
 11 12  1  0
 11 37  1  0
 11 38  1  0
 12 13  2  0
 12 18  1  0
 13 14  1  0
 13 39  1  0
 14 15  2  0
 14 40  1  0
 15 16  1  0
 15 17  1  0
 17 18  2  0
 17 41  1  0
 18 19  1  0
 20 21  2  0
 20 22  1  0
 22 23  2  0
 22 27  1  0
 23 24  1  0
 23 42  1  0
 24 25  2  0
 24 43  1  0
 25 26  1  0
 25 44  1  0
 26 27  2  0
 26 45  1  0
 27 46  1  0
 28 29  2  0
 28 47  1  0
 29 48  1  0
M  END

