
     RDKit          3D

 55 58  0  0  0  0  0  0  0  0999 V2000
    1.5255    1.3995    0.1556 C   0  0  0  0  0  0  0  0  0  0  0  0
    2.7364    0.8025    0.0599 C   0  0  0  0  0  0  0  0  0  0  0  0
    3.2719    0.2507   -1.0962 N   0  0  0  0  0  0  0  0  0  0  0  0
    2.6499    0.3509   -2.3988 C   0  0  0  0  0  0  0  0  0  0  0  0
    2.8055    1.7115   -3.0898 C   0  0  1  0  0  0  0  0  0  0  0  0
    4.2440    2.1242   -3.4851 C   0  0  0  0  0  0  0  0  0  0  0  0
    3.6608    2.7918   -5.1143 S   0  0  0  0  0  0  0  0  0  0  0  0
    2.2004    1.8220   -4.5082 C   0  0  0  0  0  0  0  0  0  0  0  0
    3.6108    0.6530    1.2679 C   0  0  0  0  0  0  0  0  0  0  0  0
    4.1036    1.8061    1.8948 C   0  0  0  0  0  0  0  0  0  0  0  0
    4.9293    1.7259    3.0172 C   0  0  0  0  0  0  0  0  0  0  0  0
    5.2784    0.4735    3.5429 C   0  0  0  0  0  0  0  0  0  0  0  0
    6.1482    0.3436    4.7304 C   0  0  0  0  0  0  0  0  0  0  0  0
    6.4485   -0.7905    5.2419 N   0  0  0  0  0  0  0  0  0  0  0  0
    7.2797   -0.6099    6.4142 C   0  0  0  0  0  0  0  0  0  0  0  0
    7.7233    0.8966    6.4601 C   0  0  1  0  0  0  0  0  0  0  0  0
    7.7509    1.5081    7.8612 C   0  0  0  0  0  0  0  0  0  0  0  0
    8.1113    0.7254    8.9686 C   0  0  0  0  0  0  0  0  0  0  0  0
    8.1698    1.2985   10.2409 C   0  0  0  0  0  0  0  0  0  0  0  0
    8.6106    0.3042   11.6075 Cl  0  0  0  0  0  0  0  0  0  0  0  0
    7.8825    2.6493   10.4470 C   0  0  0  0  0  0  0  0  0  0  0  0
    7.5400    3.4219    9.3360 C   0  0  0  0  0  0  0  0  0  0  0  0
    7.1837    5.1179    9.5552 Cl  0  0  0  0  0  0  0  0  0  0  0  0
    7.4761    2.8699    8.0544 C   0  0  0  0  0  0  0  0  0  0  0  0
    9.1395    1.0145    5.8640 C   0  0  1  0  0  0  0  0  0  0  0  0
    9.2026    0.4923    4.6265 F   0  0  0  0  0  0  0  0  0  0  0  0
    9.5336    2.2975    5.7703 F   0  0  0  0  0  0  0  0  0  0  0  0
   10.0496    0.3689    6.6129 F   0  0  0  0  0  0  0  0  0  0  0  0
    6.7131    1.5445    5.4751 C   0  0  0  0  0  0  0  0  0  0  0  0
    4.7695   -0.6818    2.9215 C   0  0  0  0  0  0  0  0  0  0  0  0
    3.9429   -0.6226    1.7968 C   0  0  0  0  0  0  0  0  0  0  0  0
    3.3845   -1.8961    1.2064 C   0  0  0  0  0  0  0  0  0  0  0  0
    0.8672    1.5434   -0.7027 H   0  0  0  0  0  0  0  0  0  0  0  0
    1.1603    1.7252    1.1293 H   0  0  0  0  0  0  0  0  0  0  0  0
    4.2775    0.1273   -1.0898 H   0  0  0  0  0  0  0  0  0  0  0  0
    1.5775    0.1102   -2.2964 H   0  0  0  0  0  0  0  0  0  0  0  0
    3.0831   -0.4325   -3.0454 H   0  0  0  0  0  0  0  0  0  0  0  0
    2.3737    2.4944   -2.4478 H   0  0  0  0  0  0  0  0  0  0  0  0
    4.9260    1.2683   -3.6250 H   0  0  0  0  0  0  0  0  0  0  0  0
    4.7331    2.8706   -2.8428 H   0  0  0  0  0  0  0  0  0  0  0  0
    2.1190    0.8532   -5.0284 H   0  0  0  0  0  0  0  0  0  0  0  0
    1.2405    2.3526   -4.5890 H   0  0  0  0  0  0  0  0  0  0  0  0
    3.8351    2.7822    1.4847 H   0  0  0  0  0  0  0  0  0  0  0  0
    5.2972    2.6466    3.4745 H   0  0  0  0  0  0  0  0  0  0  0  0
    8.1351   -1.3039    6.3928 H   0  0  0  0  0  0  0  0  0  0  0  0
    6.6919   -0.8680    7.3118 H   0  0  0  0  0  0  0  0  0  0  0  0
    8.3590   -0.3297    8.8575 H   0  0  0  0  0  0  0  0  0  0  0  0
    7.9269    3.0871   11.4437 H   0  0  0  0  0  0  0  0  0  0  0  0
    7.2198    3.5174    7.2167 H   0  0  0  0  0  0  0  0  0  0  0  0
    7.1725    2.2920    4.8124 H   0  0  0  0  0  0  0  0  0  0  0  0
    5.8999    2.0540    6.0171 H   0  0  0  0  0  0  0  0  0  0  0  0
    5.0322   -1.6482    3.3566 H   0  0  0  0  0  0  0  0  0  0  0  0
    3.6337   -2.7621    1.8359 H   0  0  0  0  0  0  0  0  0  0  0  0
    3.7677   -2.0836    0.1919 H   0  0  0  0  0  0  0  0  0  0  0  0
    2.2878   -1.8366    1.1155 H   0  0  0  0  0  0  0  0  0  0  0  0
  1  2  2  0
  1 33  1  0
  1 34  1  0
  2  3  1  0
  2  9  1  0
  3  4  1  0
  3 35  1  0
  4  5  1  0
  4 36  1  0
  4 37  1  0
  5  6  1  0
  5  8  1  0
  5 38  1  1
  6  7  1  0
  6 39  1  0
  6 40  1  0
  7  8  1  0
  8 41  1  0
  8 42  1  0
  9 10  2  0
  9 31  1  0
 10 11  1  0
 10 43  1  0
 11 12  2  0
 11 44  1  0
 12 13  1  0
 12 30  1  0
 13 14  2  0
 13 29  1  0
 14 15  1  0
 15 16  1  0
 15 45  1  0
 15 46  1  0
 16 17  1  1
 16 25  1  0
 16 29  1  0
 17 18  2  0
 17 24  1  0
 18 19  1  0
 18 47  1  0
 19 20  1  0
 19 21  2  0
 21 22  1  0
 21 48  1  0
 22 23  1  0
 22 24  2  0
 24 49  1  0
 25 26  1  6
 25 27  1  0
 25 28  1  0
 29 50  1  0
 29 51  1  0
 30 31  2  0
 30 52  1  0
 31 32  1  0
 32 53  1  0
 32 54  1  0
 32 55  1  0
M  END

