
     RDKit          3D

 41 42  0  0  0  0  0  0  0  0999 V2000
    0.8977   -0.1067   -1.5288 C   0  0  0  0  0  0  0  0  0  0  0  0
    2.1795    0.4155   -2.1720 C   0  0  0  0  0  0  0  0  0  0  0  0
    3.3304    0.2283   -1.3096 N   0  0  0  0  0  0  0  0  0  0  0  0
    4.5922   -0.0866   -1.7502 C   0  0  0  0  0  0  0  0  0  0  0  0
    5.6826   -0.1187   -0.8383 C   0  0  0  0  0  0  0  0  0  0  0  0
    6.9367   -0.4597   -1.3122 C   0  0  0  0  0  0  0  0  0  0  0  0
    7.1209   -0.7672   -2.6750 C   0  0  0  0  0  0  0  0  0  0  0  0
    8.4873   -1.0970   -3.2428 C   0  0  0  0  0  0  0  0  0  0  0  0
    9.2226   -2.0614   -2.4361 N   0  0  0  0  0  0  0  0  0  0  0  0
    8.7110   -3.4226   -2.4228 C   0  0  0  0  0  0  0  0  0  0  0  0
    9.2072   -4.2904   -3.5853 C   0  0  0  0  0  0  0  0  0  0  0  0
   11.0347   -4.4437   -3.5907 S   0  0  0  0  0  0  0  0  0  0  0  0
   11.5012   -2.6386   -3.4965 C   0  0  2  0  0  0  0  0  0  0  0  0
   11.3063   -1.9665   -4.8621 C   0  0  0  0  0  0  0  0  0  0  0  0
   12.9839   -2.6121   -3.1067 C   0  0  0  0  0  0  0  0  0  0  0  0
   10.6691   -1.9663   -2.3704 C   0  0  0  0  0  0  0  0  0  0  0  0
    5.9786   -0.7157   -3.4751 C   0  0  0  0  0  0  0  0  0  0  0  0
    4.7582   -0.3834   -3.0445 N   0  0  0  0  0  0  0  0  0  0  0  0
    0.0359    0.0558   -2.1954 H   0  0  0  0  0  0  0  0  0  0  0  0
    0.6795    0.4122   -0.5792 H   0  0  0  0  0  0  0  0  0  0  0  0
    0.9731   -1.1845   -1.3148 H   0  0  0  0  0  0  0  0  0  0  0  0
    2.0540    1.4842   -2.4422 H   0  0  0  0  0  0  0  0  0  0  0  0
    2.3964   -0.1153   -3.1087 H   0  0  0  0  0  0  0  0  0  0  0  0
    3.2555    0.5635   -0.3573 H   0  0  0  0  0  0  0  0  0  0  0  0
    5.5252    0.1177    0.2177 H   0  0  0  0  0  0  0  0  0  0  0  0
    7.7918   -0.5070   -0.6326 H   0  0  0  0  0  0  0  0  0  0  0  0
    9.0985   -0.1779   -3.2778 H   0  0  0  0  0  0  0  0  0  0  0  0
    8.3537   -1.4020   -4.3033 H   0  0  0  0  0  0  0  0  0  0  0  0
    7.6091   -3.3813   -2.4332 H   0  0  0  0  0  0  0  0  0  0  0  0
    9.0104   -3.9073   -1.4757 H   0  0  0  0  0  0  0  0  0  0  0  0
    8.8567   -3.9013   -4.5556 H   0  0  0  0  0  0  0  0  0  0  0  0
    8.8303   -5.3211   -3.4914 H   0  0  0  0  0  0  0  0  0  0  0  0
   11.9611   -2.4291   -5.6162 H   0  0  0  0  0  0  0  0  0  0  0  0
   11.5555   -0.8921   -4.8031 H   0  0  0  0  0  0  0  0  0  0  0  0
   10.2730   -2.0480   -5.2265 H   0  0  0  0  0  0  0  0  0  0  0  0
   13.6013   -3.1344   -3.8548 H   0  0  0  0  0  0  0  0  0  0  0  0
   13.1518   -3.0919   -2.1302 H   0  0  0  0  0  0  0  0  0  0  0  0
   13.3403   -1.5695   -3.0459 H   0  0  0  0  0  0  0  0  0  0  0  0
   10.9458   -0.8971   -2.3306 H   0  0  0  0  0  0  0  0  0  0  0  0
   10.9956   -2.4185   -1.4161 H   0  0  0  0  0  0  0  0  0  0  0  0
    6.0570   -0.9577   -4.5440 H   0  0  0  0  0  0  0  0  0  0  0  0
  1  2  1  0
  1 19  1  0
  1 20  1  0
  1 21  1  0
  2  3  1  0
  2 22  1  0
  2 23  1  0
  3  4  1  0
  3 24  1  0
  4  5  2  0
  4 18  1  0
  5  6  1  0
  5 25  1  0
  6  7  2  0
  6 26  1  0
  7  8  1  0
  7 17  1  0
  8  9  1  0
  8 27  1  0
  8 28  1  0
  9 10  1  0
  9 16  1  0
 10 11  1  0
 10 29  1  0
 10 30  1  0
 11 12  1  0
 11 31  1  0
 11 32  1  0
 12 13  1  0
 13 14  1  6
 13 15  1  0
 13 16  1  0
 14 33  1  0
 14 34  1  0
 14 35  1  0
 15 36  1  0
 15 37  1  0
 15 38  1  0
 16 39  1  0
 16 40  1  0
 17 18  2  0
 17 41  1  0
M  END

