
     RDKit          3D

 51 52  0  0  0  0  0  0  0  0999 V2000
    7.1991    5.4422    0.5417 C   0  0  0  0  0  0  0  0  0  0  0  0
    7.2856    4.0319    1.1263 C   0  0  0  0  0  0  0  0  0  0  0  0
    5.9268    3.4398    1.5373 C   0  0  1  0  0  0  0  0  0  0  0  0
    4.8802    3.3390    0.4059 C   0  0  0  0  0  0  0  0  0  0  0  0
    5.3018    2.5773   -0.8512 C   0  0  0  0  0  0  0  0  0  0  0  0
    6.1239    2.1579    2.2275 N   0  0  0  0  0  0  0  0  0  0  0  0
    5.6072    1.7998    3.4333 C   0  0  0  0  0  0  0  0  0  0  0  0
    6.0727    0.5254    3.7097 C   0  0  0  0  0  0  0  0  0  0  0  0
    6.8820    0.1855    2.5945 C   0  0  0  0  0  0  0  0  0  0  0  0
    7.6740   -1.0672    2.3490 C   0  0  0  0  0  0  0  0  0  0  0  0
    7.0190   -2.1241    1.3954 C   0  0  1  0  0  0  0  0  0  0  0  0
    8.0964   -3.2284    0.9958 C   0  0  1  0  0  0  0  0  0  0  0  0
    8.7546   -3.8639    2.2375 C   0  0  0  0  0  0  0  0  0  0  0  0
    7.4308   -4.3447    0.1662 C   0  0  0  0  0  0  0  0  0  0  0  0
    9.1982   -2.6060    0.1128 C   0  0  0  0  0  0  0  0  0  0  0  0
    5.7448   -2.7345    2.0631 C   0  0  0  0  0  0  0  0  0  0  0  0
    4.6461   -2.6800    0.9917 C   0  0  0  0  0  0  0  0  0  0  0  0
    5.0336   -1.4349    0.1925 C   0  0  0  0  0  0  0  0  0  0  0  0
    6.4928   -1.4939    0.1651 N   0  0  0  0  0  0  0  0  0  0  0  0
    6.8993    1.1891    1.7093 N   0  0  0  0  0  0  0  0  0  0  0  0
    8.2065    5.8444    0.3523 H   0  0  0  0  0  0  0  0  0  0  0  0
    6.6908    6.1382    1.2307 H   0  0  0  0  0  0  0  0  0  0  0  0
    6.6540    5.4656   -0.4151 H   0  0  0  0  0  0  0  0  0  0  0  0
    7.9271    4.0421    2.0233 H   0  0  0  0  0  0  0  0  0  0  0  0
    7.7752    3.3472    0.4172 H   0  0  0  0  0  0  0  0  0  0  0  0
    5.4928    4.0986    2.3082 H   0  0  0  0  0  0  0  0  0  0  0  0
    4.5878    4.3679    0.1344 H   0  0  0  0  0  0  0  0  0  0  0  0
    3.9752    2.8757    0.8347 H   0  0  0  0  0  0  0  0  0  0  0  0
    6.1522    3.0591   -1.3590 H   0  0  0  0  0  0  0  0  0  0  0  0
    4.4691    2.5366   -1.5711 H   0  0  0  0  0  0  0  0  0  0  0  0
    5.5982    1.5463   -0.6137 H   0  0  0  0  0  0  0  0  0  0  0  0
    4.9671    2.4732    4.0000 H   0  0  0  0  0  0  0  0  0  0  0  0
    5.8781   -0.0690    4.5994 H   0  0  0  0  0  0  0  0  0  0  0  0
    7.8832   -1.5423    3.3184 H   0  0  0  0  0  0  0  0  0  0  0  0
    8.6438   -0.7615    1.9303 H   0  0  0  0  0  0  0  0  0  0  0  0
    8.0102   -4.2813    2.9350 H   0  0  0  0  0  0  0  0  0  0  0  0
    9.3766   -3.1480    2.7964 H   0  0  0  0  0  0  0  0  0  0  0  0
    9.4142   -4.6930    1.9328 H   0  0  0  0  0  0  0  0  0  0  0  0
    6.6957   -4.9212    0.7491 H   0  0  0  0  0  0  0  0  0  0  0  0
    8.1933   -5.0582   -0.1866 H   0  0  0  0  0  0  0  0  0  0  0  0
    6.9256   -3.9221   -0.7139 H   0  0  0  0  0  0  0  0  0  0  0  0
    9.7883   -1.8418    0.6424 H   0  0  0  0  0  0  0  0  0  0  0  0
    8.7598   -2.1452   -0.7845 H   0  0  0  0  0  0  0  0  0  0  0  0
    9.9047   -3.3854   -0.2162 H   0  0  0  0  0  0  0  0  0  0  0  0
    5.4445   -2.1075    2.9166 H   0  0  0  0  0  0  0  0  0  0  0  0
    5.9106   -3.7463    2.4586 H   0  0  0  0  0  0  0  0  0  0  0  0
    3.6336   -2.6133    1.4190 H   0  0  0  0  0  0  0  0  0  0  0  0
    4.6781   -3.5710    0.3463 H   0  0  0  0  0  0  0  0  0  0  0  0
    4.6445   -0.5286    0.7028 H   0  0  0  0  0  0  0  0  0  0  0  0
    4.6168   -1.4375   -0.8301 H   0  0  0  0  0  0  0  0  0  0  0  0
    6.9059   -0.5787    0.0013 H   0  0  0  0  0  0  0  0  0  0  0  0
  1  2  1  0
  1 21  1  0
  1 22  1  0
  1 23  1  0
  2  3  1  0
  2 24  1  0
  2 25  1  0
  3  4  1  0
  3  6  1  0
  3 26  1  1
  4  5  1  0
  4 27  1  0
  4 28  1  0
  5 29  1  0
  5 30  1  0
  5 31  1  0
  6  7  1  0
  6 20  1  0
  7  8  2  0
  7 32  1  0
  8  9  1  0
  8 33  1  0
  9 10  1  0
  9 20  2  0
 11 10  1  1
 10 34  1  0
 10 35  1  0
 11 12  1  0
 11 16  1  0
 11 19  1  0
 12 13  1  1
 12 14  1  0
 12 15  1  0
 13 36  1  0
 13 37  1  0
 13 38  1  0
 14 39  1  0
 14 40  1  0
 14 41  1  0
 15 42  1  0
 15 43  1  0
 15 44  1  0
 16 17  1  0
 16 45  1  0
 16 46  1  0
 17 18  1  0
 17 47  1  0
 17 48  1  0
 18 19  1  0
 18 49  1  0
 18 50  1  0
 19 51  1  0
M  END

