
     RDKit          3D

 40 42  0  0  0  0  0  0  0  0999 V2000
    3.6807   -0.7158    1.4478 C   0  0  0  0  0  0  0  0  0  0  0  0
    2.8728    0.0131    0.3581 C   0  0  1  0  0  0  0  0  0  0  0  0
    3.5192    1.3895    0.0937 C   0  0  0  0  0  0  0  0  0  0  0  0
    2.9456   -0.7835   -0.9879 C   0  0  0  0  0  0  0  0  0  0  0  0
    2.4602   -2.1499   -0.9672 N   0  0  0  0  0  0  0  0  0  0  0  0
    3.2303   -3.2788   -0.6826 C   0  0  0  0  0  0  0  0  0  0  0  0
    2.4249   -4.3553   -0.9364 C   0  0  0  0  0  0  0  0  0  0  0  0
    1.1823   -3.9447   -1.3583 N   0  0  0  0  0  0  0  0  0  0  0  0
    1.2271   -2.6293   -1.3730 C   0  0  0  0  0  0  0  0  0  0  0  0
    0.2255   -1.7650   -1.7666 N   0  0  0  0  0  0  0  0  0  0  0  0
   -0.9502   -2.0538   -2.4721 C   0  0  0  0  0  0  0  0  0  0  0  0
   -1.2875   -3.3408   -2.9322 C   0  0  0  0  0  0  0  0  0  0  0  0
   -2.4707   -3.5294   -3.6512 C   0  0  0  0  0  0  0  0  0  0  0  0
   -3.3385   -2.4676   -3.9202 C   0  0  0  0  0  0  0  0  0  0  0  0
   -3.0062   -1.1906   -3.4550 C   0  0  0  0  0  0  0  0  0  0  0  0
   -1.8277   -0.9826   -2.7412 C   0  0  0  0  0  0  0  0  0  0  0  0
    1.4265    0.1729    0.8026 C   0  0  0  0  0  0  0  0  0  0  0  0
    0.7031   -0.5844    1.6939 C   0  0  0  0  0  0  0  0  0  0  0  0
   -0.6636   -0.1830    1.8192 C   0  0  0  0  0  0  0  0  0  0  0  0
   -0.9787    0.8817    1.0197 C   0  0  0  0  0  0  0  0  0  0  0  0
    0.3955    1.4164    0.1085 S   0  0  0  0  0  0  0  0  0  0  0  0
    4.7345   -0.8101    1.1396 H   0  0  0  0  0  0  0  0  0  0  0  0
    3.2984   -1.7278    1.6401 H   0  0  0  0  0  0  0  0  0  0  0  0
    3.6519   -0.1524    2.3926 H   0  0  0  0  0  0  0  0  0  0  0  0
    4.5719    1.2703   -0.2085 H   0  0  0  0  0  0  0  0  0  0  0  0
    3.4922    2.0142    0.9989 H   0  0  0  0  0  0  0  0  0  0  0  0
    3.0039    1.9389   -0.7107 H   0  0  0  0  0  0  0  0  0  0  0  0
    3.9983   -0.8092   -1.3128 H   0  0  0  0  0  0  0  0  0  0  0  0
    2.3904   -0.2336   -1.7642 H   0  0  0  0  0  0  0  0  0  0  0  0
    4.2578   -3.1959   -0.3404 H   0  0  0  0  0  0  0  0  0  0  0  0
    2.6688   -5.4119   -0.8335 H   0  0  0  0  0  0  0  0  0  0  0  0
    0.2732   -0.8257   -1.3892 H   0  0  0  0  0  0  0  0  0  0  0  0
   -0.6261   -4.1739   -2.7023 H   0  0  0  0  0  0  0  0  0  0  0  0
   -2.7175   -4.5357   -4.0013 H   0  0  0  0  0  0  0  0  0  0  0  0
   -4.2623   -2.6313   -4.4799 H   0  0  0  0  0  0  0  0  0  0  0  0
   -3.6693   -0.3435   -3.6513 H   0  0  0  0  0  0  0  0  0  0  0  0
   -1.5736    0.0207   -2.3871 H   0  0  0  0  0  0  0  0  0  0  0  0
    1.1294   -1.4200    2.2488 H   0  0  0  0  0  0  0  0  0  0  0  0
   -1.3818   -0.6728    2.4785 H   0  0  0  0  0  0  0  0  0  0  0  0
   -1.9343    1.3938    0.9171 H   0  0  0  0  0  0  0  0  0  0  0  0
  2  1  1  1
  1 22  1  0
  1 23  1  0
  1 24  1  0
  2  3  1  0
  2  4  1  0
  2 17  1  0
  3 25  1  0
  3 26  1  0
  3 27  1  0
  4  5  1  0
  4 28  1  0
  4 29  1  0
  5  6  1  0
  5  9  1  0
  6  7  2  0
  6 30  1  0
  7  8  1  0
  7 31  1  0
  8  9  2  0
  9 10  1  0
 10 11  1  0
 10 32  1  0
 11 12  2  0
 11 16  1  0
 12 13  1  0
 12 33  1  0
 13 14  2  0
 13 34  1  0
 14 15  1  0
 14 35  1  0
 15 16  2  0
 15 36  1  0
 16 37  1  0
 17 18  2  0
 17 21  1  0
 18 19  1  0
 18 38  1  0
 19 20  2  0
 19 39  1  0
 20 21  1  0
 20 40  1  0
M  END

