
     RDKit          3D

 35 37  0  0  0  0  0  0  0  0999 V2000
    0.9582   -0.3630    0.9781 C   0  0  0  0  0  0  0  0  0  0  0  0
    2.3905   -0.2451    0.4830 C   0  0  0  0  0  0  0  0  0  0  0  0
    2.9548    0.8329    0.4821 O   0  0  0  0  0  0  0  0  0  0  0  0
    3.0916   -1.4811   -0.0027 C   0  0  0  0  0  0  0  0  0  0  0  0
    2.4674   -2.7508   -0.0197 C   0  0  0  0  0  0  0  0  0  0  0  0
    3.1432   -3.8830   -0.4695 C   0  0  0  0  0  0  0  0  0  0  0  0
    4.4585   -3.7229   -0.9106 C   0  0  0  0  0  0  0  0  0  0  0  0
    5.3575   -4.6617   -1.3875 N   0  0  0  0  0  0  0  0  0  0  0  0
    5.1879   -5.6505   -1.5222 H   0  0  0  0  0  0  0  0  0  0  0  0
    6.5443   -4.0415   -1.6693 C   0  0  0  0  0  0  0  0  0  0  0  0
    7.5359   -4.7885   -2.1673 O   0  0  0  0  0  0  0  0  0  0  0  0
    6.4663   -2.6789   -1.4090 C   0  0  0  0  0  0  0  0  0  0  0  0
    7.6132   -1.7735   -1.6202 C   0  0  0  0  0  0  0  0  0  0  0  0
    8.8219   -2.0899   -1.2871 N   0  0  0  0  0  0  0  0  0  0  0  0
    7.4088   -0.4639   -2.3104 C   0  0  0  0  0  0  0  0  0  0  0  0
    6.2713   -0.1935   -3.0883 C   0  0  0  0  0  0  0  0  0  0  0  0
    6.1359    1.0285   -3.7523 C   0  0  0  0  0  0  0  0  0  0  0  0
    7.1363    1.9871   -3.6388 C   0  0  0  0  0  0  0  0  0  0  0  0
    7.0258    3.1626   -4.2590 F   0  0  0  0  0  0  0  0  0  0  0  0
    8.2770    1.7255   -2.8671 C   0  0  0  0  0  0  0  0  0  0  0  0
    9.2229    2.6646   -2.7751 F   0  0  0  0  0  0  0  0  0  0  0  0
    8.4163    0.5143   -2.2102 C   0  0  0  0  0  0  0  0  0  0  0  0
    5.1165   -2.4567   -0.9149 C   0  0  0  0  0  0  0  0  0  0  0  0
    4.4154   -1.3396   -0.4471 C   0  0  0  0  0  0  0  0  0  0  0  0
    0.6121    0.6310    1.2883 H   0  0  0  0  0  0  0  0  0  0  0  0
    0.8891   -1.0564    1.8318 H   0  0  0  0  0  0  0  0  0  0  0  0
    0.2952   -0.7504    0.1876 H   0  0  0  0  0  0  0  0  0  0  0  0
    1.4387   -2.8599    0.3265 H   0  0  0  0  0  0  0  0  0  0  0  0
    2.6591   -4.8625   -0.4729 H   0  0  0  0  0  0  0  0  0  0  0  0
    8.2838   -4.2072   -2.3855 H   0  0  0  0  0  0  0  0  0  0  0  0
    8.8235   -2.9506   -0.7289 H   0  0  0  0  0  0  0  0  0  0  0  0
    5.4873   -0.9445   -3.1878 H   0  0  0  0  0  0  0  0  0  0  0  0
    5.2591    1.2556   -4.3618 H   0  0  0  0  0  0  0  0  0  0  0  0
    9.3102    0.3129   -1.6187 H   0  0  0  0  0  0  0  0  0  0  0  0
    4.8649   -0.3462   -0.4142 H   0  0  0  0  0  0  0  0  0  0  0  0
  1  2  1  0
  1 25  1  0
  1 26  1  0
  1 27  1  0
  2  3  2  0
  2  4  1  0
  4  5  2  0
  4 24  1  0
  5  6  1  0
  5 28  1  0
  6  7  2  0
  6 29  1  0
  7  8  1  0
  7 23  1  0
  8  9  1  0
  8 10  1  0
 10 11  1  0
 10 12  2  0
 11 30  1  0
 12 13  1  0
 12 23  1  0
 13 14  2  0
 13 15  1  0
 14 31  1  0
 15 16  2  0
 15 22  1  0
 16 17  1  0
 16 32  1  0
 17 18  2  0
 17 33  1  0
 18 19  1  0
 18 20  1  0
 20 21  1  0
 20 22  2  0
 22 34  1  0
 23 24  2  0
 24 35  1  0
M  END

