
     RDKit          3D

 73 75  0  0  0  0  0  0  0  0999 V2000
    6.9858   -5.1273    0.2710 C   0  0  0  0  0  0  0  0  0  0  0  0
    5.7646   -4.3479    0.7588 C   0  0  0  0  0  0  0  0  0  0  0  0
    5.2731   -3.2495   -0.2095 C   0  0  1  0  0  0  0  0  0  0  0  0
    3.9500   -2.6342    0.2795 C   0  0  0  0  0  0  0  0  0  0  0  0
    6.3229   -2.1765   -0.4704 C   0  0  0  0  0  0  0  0  0  0  0  0
    6.7988   -1.9292   -1.7674 C   0  0  0  0  0  0  0  0  0  0  0  0
    7.7478   -0.9356   -2.0165 C   0  0  0  0  0  0  0  0  0  0  0  0
    8.2628   -0.1474   -0.9767 C   0  0  0  0  0  0  0  0  0  0  0  0
    9.3231    0.9123   -1.2871 C   0  0  1  0  0  0  0  0  0  0  0  0
    9.4362    1.9416   -0.2642 N   0  0  0  0  0  0  0  0  0  0  0  0
    8.8634    3.1858   -0.1623 C   0  0  0  0  0  0  0  0  0  0  0  0
    9.0415    3.8504    0.8513 O   0  0  0  0  0  0  0  0  0  0  0  0
    8.0033    3.6918   -1.3230 C   0  0  1  0  0  0  0  0  0  0  0  0
    6.5273    3.2467   -1.1478 C   0  0  0  0  0  0  0  0  0  0  0  0
    5.8084    4.0550   -0.0617 C   0  0  0  0  0  0  0  0  0  0  0  0
    5.9079    5.5015   -0.2997 N   0  0  0  0  0  0  0  0  0  0  0  0
    4.7070    6.2137   -1.2371 S   0  0  1  0  0  0  0  0  0  0  0  0
    5.2527    7.4761   -1.7470 O   0  0  0  0  0  0  0  0  0  0  0  0
    4.1137    5.2226   -2.1443 O   0  0  0  0  0  0  0  0  0  0  0  0
    3.4365    6.6266   -0.0262 C   0  0  0  0  0  0  0  0  0  0  0  0
    3.6103    7.7611    0.7776 C   0  0  0  0  0  0  0  0  0  0  0  0
    2.6253    8.0861    1.7092 C   0  0  0  0  0  0  0  0  0  0  0  0
    1.4806    7.2902    1.8309 C   0  0  0  0  0  0  0  0  0  0  0  0
    1.3048    6.1612    1.0162 C   0  0  0  0  0  0  0  0  0  0  0  0
    0.0925    5.2695    1.0950 C   0  0  0  0  0  0  0  0  0  0  0  0
   -1.0048    5.6188    2.0833 C   0  0  0  0  0  0  0  0  0  0  0  0
    0.0026    4.2920    0.3800 O   0  0  0  0  0  0  0  0  0  0  0  0
    2.2968    5.8358    0.0734 C   0  0  0  0  0  0  0  0  0  0  0  0
    7.2896    5.9958   -0.4139 C   0  0  0  0  0  0  0  0  0  0  0  0
    8.0880    5.2272   -1.4744 C   0  0  0  0  0  0  0  0  0  0  0  0
   10.7186    0.2785   -1.5863 C   0  0  1  0  0  0  0  0  0  0  0  0
   11.6803    1.3094   -2.1885 C   0  0  0  0  0  0  0  0  0  0  0  0
   11.3371   -0.4244   -0.3710 C   0  0  0  0  0  0  0  0  0  0  0  0
    7.7850   -0.3853    0.3197 C   0  0  0  0  0  0  0  0  0  0  0  0
    6.8360   -1.3811    0.5665 C   0  0  0  0  0  0  0  0  0  0  0  0
    7.2706   -5.9110    0.9910 H   0  0  0  0  0  0  0  0  0  0  0  0
    7.8583   -4.4694    0.1307 H   0  0  0  0  0  0  0  0  0  0  0  0
    6.7856   -5.6214   -0.6948 H   0  0  0  0  0  0  0  0  0  0  0  0
    5.9801   -3.8946    1.7432 H   0  0  0  0  0  0  0  0  0  0  0  0
    4.9282   -5.0482    0.9314 H   0  0  0  0  0  0  0  0  0  0  0  0
    5.0708   -3.7396   -1.1788 H   0  0  0  0  0  0  0  0  0  0  0  0
    4.0729   -2.1443    1.2594 H   0  0  0  0  0  0  0  0  0  0  0  0
    3.1750   -3.4101    0.3907 H   0  0  0  0  0  0  0  0  0  0  0  0
    3.5752   -1.8770   -0.4265 H   0  0  0  0  0  0  0  0  0  0  0  0
    6.4125   -2.5220   -2.6017 H   0  0  0  0  0  0  0  0  0  0  0  0
    8.0858   -0.7669   -3.0439 H   0  0  0  0  0  0  0  0  0  0  0  0
    9.0141    1.4075   -2.2191 H   0  0  0  0  0  0  0  0  0  0  0  0
    9.9560    1.7026    0.5761 H   0  0  0  0  0  0  0  0  0  0  0  0
    8.3772    3.2447   -2.2564 H   0  0  0  0  0  0  0  0  0  0  0  0
    6.4691    2.1720   -0.9113 H   0  0  0  0  0  0  0  0  0  0  0  0
    5.9937    3.4017   -2.0986 H   0  0  0  0  0  0  0  0  0  0  0  0
    6.2523    3.8607    0.9287 H   0  0  0  0  0  0  0  0  0  0  0  0
    4.7497    3.7650   -0.0089 H   0  0  0  0  0  0  0  0  0  0  0  0
    4.5008    8.3811    0.6589 H   0  0  0  0  0  0  0  0  0  0  0  0
    2.7456    8.9688    2.3418 H   0  0  0  0  0  0  0  0  0  0  0  0
    0.7220    7.5628    2.5668 H   0  0  0  0  0  0  0  0  0  0  0  0
   -1.4150    6.6216    1.8821 H   0  0  0  0  0  0  0  0  0  0  0  0
   -0.6197    5.6236    3.1160 H   0  0  0  0  0  0  0  0  0  0  0  0
   -1.8053    4.8734    1.9974 H   0  0  0  0  0  0  0  0  0  0  0  0
    2.1527    4.9718   -0.5769 H   0  0  0  0  0  0  0  0  0  0  0  0
    7.7616    5.8685    0.5703 H   0  0  0  0  0  0  0  0  0  0  0  0
    7.2585    7.0647   -0.6578 H   0  0  0  0  0  0  0  0  0  0  0  0
    9.1394    5.5553   -1.4434 H   0  0  0  0  0  0  0  0  0  0  0  0
    7.6938    5.4948   -2.4697 H   0  0  0  0  0  0  0  0  0  0  0  0
   10.5270   -0.4945   -2.3503 H   0  0  0  0  0  0  0  0  0  0  0  0
   11.8926    2.1217   -1.4752 H   0  0  0  0  0  0  0  0  0  0  0  0
   11.2641    1.7663   -3.1012 H   0  0  0  0  0  0  0  0  0  0  0  0
   12.6395    0.8394   -2.4576 H   0  0  0  0  0  0  0  0  0  0  0  0
   11.6119    0.2913    0.4231 H   0  0  0  0  0  0  0  0  0  0  0  0
   12.2644   -0.9430   -0.6604 H   0  0  0  0  0  0  0  0  0  0  0  0
   10.6558   -1.1723    0.0624 H   0  0  0  0  0  0  0  0  0  0  0  0
    8.1459    0.2229    1.1521 H   0  0  0  0  0  0  0  0  0  0  0  0
    6.4882   -1.5326    1.5920 H   0  0  0  0  0  0  0  0  0  0  0  0
  1  2  1  0
  1 36  1  0
  1 37  1  0
  1 38  1  0
  2  3  1  0
  2 39  1  0
  2 40  1  0
  3  4  1  0
  3  5  1  0
  3 41  1  6
  4 42  1  0
  4 43  1  0
  4 44  1  0
  5  6  2  0
  5 35  1  0
  6  7  1  0
  6 45  1  0
  7  8  2  0
  7 46  1  0
  8  9  1  0
  8 34  1  0
  9 10  1  0
  9 31  1  0
  9 47  1  6
 10 11  1  0
 10 48  1  0
 11 12  2  0
 11 13  1  0
 13 14  1  0
 13 30  1  0
 13 49  1  6
 14 15  1  0
 14 50  1  0
 14 51  1  0
 15 16  1  0
 15 52  1  0
 15 53  1  0
 16 17  1  0
 16 29  1  0
 17 18  2  0
 17 19  2  0
 17 20  1  1
 20 21  2  0
 20 28  1  0
 21 22  1  0
 21 54  1  0
 22 23  2  0
 22 55  1  0
 23 24  1  0
 23 56  1  0
 24 25  1  0
 24 28  2  0
 25 26  1  0
 25 27  2  0
 26 57  1  0
 26 58  1  0
 26 59  1  0
 28 60  1  0
 29 30  1  0
 29 61  1  0
 29 62  1  0
 30 63  1  0
 30 64  1  0
 31 32  1  0
 31 33  1  0
 31 65  1  6
 32 66  1  0
 32 67  1  0
 32 68  1  0
 33 69  1  0
 33 70  1  0
 33 71  1  0
 34 35  2  0
 34 72  1  0
 35 73  1  0
M  END

