
     RDKit          3D

 28 29  0  0  0  0  0  0  0  0999 V2000
    0.9757    0.0955    0.0707 C   0  0  0  0  0  0  0  0  0  0  0  0
    2.5030   -0.0414    0.0507 C   0  0  1  0  0  0  0  0  0  0  0  0
    3.0262   -0.3882   -1.3615 C   0  0  0  0  0  0  0  0  0  0  0  0
    4.4999   -0.7023   -1.4357 C   0  0  0  0  0  0  0  0  0  0  0  0
    5.5385    0.2802   -1.5685 C   0  0  0  0  0  0  0  0  0  0  0  0
    6.7979   -0.2609   -1.5831 C   0  0  0  0  0  0  0  0  0  0  0  0
    6.7490   -1.9831   -1.4342 S   0  0  0  0  0  0  0  0  0  0  0  0
    5.0220   -1.9737   -1.3534 C   0  0  0  0  0  0  0  0  0  0  0  0
    3.1497    1.1710    0.5462 N   0  0  0  0  0  0  0  0  0  0  0  0
    3.5857    1.3596    1.8148 C   0  0  0  0  0  0  0  0  0  0  0  0
    3.4709    0.3486    2.6948 N   0  0  0  0  0  0  0  0  0  0  0  0
    3.9169    0.5347    3.9325 C   0  0  0  0  0  0  0  0  0  0  0  0
    4.4759    1.6335    4.4322 N   0  0  0  0  0  0  0  0  0  0  0  0
    4.5951    2.6587    3.5752 C   0  0  0  0  0  0  0  0  0  0  0  0
    4.1703    2.5831    2.2576 C   0  0  0  0  0  0  0  0  0  0  0  0
    4.3989    4.2577    0.9629 I   0  0  0  0  0  0  0  0  0  0  0  0
    0.4946   -0.8378   -0.2627 H   0  0  0  0  0  0  0  0  0  0  0  0
    0.6399    0.9064   -0.5979 H   0  0  0  0  0  0  0  0  0  0  0  0
    0.6212    0.3187    1.0878 H   0  0  0  0  0  0  0  0  0  0  0  0
    2.7975   -0.8428    0.7430 H   0  0  0  0  0  0  0  0  0  0  0  0
    2.7877    0.4483   -2.0437 H   0  0  0  0  0  0  0  0  0  0  0  0
    2.4480   -1.2515   -1.7264 H   0  0  0  0  0  0  0  0  0  0  0  0
    5.3502    1.3520   -1.6534 H   0  0  0  0  0  0  0  0  0  0  0  0
    7.7523    0.2556   -1.6756 H   0  0  0  0  0  0  0  0  0  0  0  0
    4.4760   -2.9115   -1.2524 H   0  0  0  0  0  0  0  0  0  0  0  0
    3.1909    1.9747   -0.0722 H   0  0  0  0  0  0  0  0  0  0  0  0
    3.8095   -0.3176    4.6158 H   0  0  0  0  0  0  0  0  0  0  0  0
    5.0502    3.5790    3.9578 H   0  0  0  0  0  0  0  0  0  0  0  0
  1  2  1  0
  1 17  1  0
  1 18  1  0
  1 19  1  0
  2  3  1  0
  2  9  1  0
  2 20  1  1
  3  4  1  0
  3 21  1  0
  3 22  1  0
  4  5  1  0
  4  8  2  0
  5  6  2  0
  5 23  1  0
  6  7  1  0
  6 24  1  0
  7  8  1  0
  8 25  1  0
  9 10  1  0
  9 26  1  0
 10 11  2  0
 10 15  1  0
 11 12  1  0
 12 13  2  0
 12 27  1  0
 13 14  1  0
 14 15  2  0
 14 28  1  0
 15 16  1  0
M  END

