
     RDKit          3D

110118  0  0  0  0  0  0  0  0999 V2000
    6.5877    6.3871    0.4812 C   0  0  0  0  0  0  0  0  0  0  0  0
    7.5821    4.9661    0.9440 S   0  0  1  0  0  0  0  0  0  0  0  0
    8.4451    4.6462   -0.1951 O   0  0  0  0  0  0  0  0  0  0  0  0
    8.1323    5.1971    2.2801 O   0  0  0  0  0  0  0  0  0  0  0  0
    6.3992    3.7410    1.1621 N   0  0  0  0  0  0  0  0  0  0  0  0
    6.1326    2.8527    0.0715 C   0  0  0  0  0  0  0  0  0  0  0  0
    5.0644    3.1285   -0.7908 C   0  0  0  0  0  0  0  0  0  0  0  0
    4.8179    2.2860   -1.8770 C   0  0  0  0  0  0  0  0  0  0  0  0
    5.6258    1.1692   -2.1007 C   0  0  0  0  0  0  0  0  0  0  0  0
    6.6965    0.8721   -1.2376 C   0  0  0  0  0  0  0  0  0  0  0  0
    7.5837   -0.3071   -1.4950 C   0  0  0  0  0  0  0  0  0  0  0  0
    8.9415   -0.0668   -1.8161 C   0  0  0  0  0  0  0  0  0  0  0  0
    9.8770   -1.0205   -2.0846 N   0  0  0  0  0  0  0  0  0  0  0  0
   11.0319   -0.3437   -2.3410 C   0  0  0  0  0  0  0  0  0  0  0  0
   12.2795   -0.9109   -2.6812 C   0  0  0  0  0  0  0  0  0  0  0  0
   13.4375    0.0173   -2.9233 C   0  0  0  0  0  0  0  0  0  0  0  0
   14.3669    0.2747   -1.9042 C   0  0  0  0  0  0  0  0  0  0  0  0
   15.4372    1.1411   -2.1422 C   0  0  0  0  0  0  0  0  0  0  0  0
   15.6024    1.7398   -3.3903 C   0  0  0  0  0  0  0  0  0  0  0  0
   14.6758    1.4909   -4.4183 C   0  0  0  0  0  0  0  0  0  0  0  0
   14.8629    2.1291   -5.6615 N   0  0  0  0  0  0  0  0  0  0  0  0
   14.3796    1.5827   -7.1834 S   0  0  1  0  0  0  0  0  0  0  0  0
   15.2364    0.0138   -7.4114 C   0  0  0  0  0  0  0  0  0  0  0  0
   12.9495    1.2909   -7.1549 O   0  0  0  0  0  0  0  0  0  0  0  0
   14.9527    2.5587   -8.1063 O   0  0  0  0  0  0  0  0  0  0  0  0
   13.5883    0.6342   -4.1742 C   0  0  0  0  0  0  0  0  0  0  0  0
   12.5441   -2.2828   -2.8387 C   0  0  0  0  0  0  0  0  0  0  0  0
   13.7882   -2.8676   -3.2559 C   0  0  0  0  0  0  0  0  0  0  0  0
   13.6162   -4.2261   -3.3433 C   0  0  0  0  0  0  0  0  0  0  0  0
   12.2586   -4.5221   -2.9660 C   0  0  0  0  0  0  0  0  0  0  0  0
   11.6613   -3.3211   -2.6665 N   0  0  0  0  0  0  0  0  0  0  0  0
   10.6896   -3.2208   -2.3774 H   0  0  0  0  0  0  0  0  0  0  0  0
   11.6371   -5.7863   -2.9313 C   0  0  0  0  0  0  0  0  0  0  0  0
   12.4805   -6.9532   -3.3429 C   0  0  0  0  0  0  0  0  0  0  0  0
   12.1733   -7.6936   -4.4999 C   0  0  0  0  0  0  0  0  0  0  0  0
   12.9878   -8.7516   -4.9080 C   0  0  0  0  0  0  0  0  0  0  0  0
   14.1308   -9.0853   -4.1774 C   0  0  0  0  0  0  0  0  0  0  0  0
   14.4579   -8.3500   -3.0321 C   0  0  0  0  0  0  0  0  0  0  0  0
   15.6573   -8.6647   -2.3154 N   0  0  0  0  0  0  0  0  0  0  0  0
   17.0619   -7.7358   -2.6465 S   0  0  1  0  0  0  0  0  0  0  0  0
   17.9350   -8.7624   -3.8319 C   0  0  0  0  0  0  0  0  0  0  0  0
   16.7005   -6.4908   -3.3301 O   0  0  0  0  0  0  0  0  0  0  0  0
   17.8145   -7.7272   -1.3920 O   0  0  0  0  0  0  0  0  0  0  0  0
   13.6277   -7.3017   -2.6156 C   0  0  0  0  0  0  0  0  0  0  0  0
   10.2911   -6.0234   -2.5589 C   0  0  0  0  0  0  0  0  0  0  0  0
    9.3720   -5.0805   -2.2055 N   0  0  0  0  0  0  0  0  0  0  0  0
    8.2345   -5.7631   -1.8927 C   0  0  0  0  0  0  0  0  0  0  0  0
    6.9992   -5.2021   -1.4859 C   0  0  0  0  0  0  0  0  0  0  0  0
    5.8845   -6.1338   -1.1192 C   0  0  0  0  0  0  0  0  0  0  0  0
    5.9891   -6.9782    0.0019 C   0  0  0  0  0  0  0  0  0  0  0  0
    4.9315   -7.8127    0.3684 C   0  0  0  0  0  0  0  0  0  0  0  0
    3.7452   -7.8145   -0.3695 C   0  0  0  0  0  0  0  0  0  0  0  0
    3.6204   -6.9708   -1.4794 C   0  0  0  0  0  0  0  0  0  0  0  0
    2.3845   -6.9421   -2.2026 N   0  0  0  0  0  0  0  0  0  0  0  0
    1.2592   -5.7014   -1.8280 S   0  0  1  0  0  0  0  0  0  0  0  0
    0.1509   -6.5178   -0.6764 C   0  0  0  0  0  0  0  0  0  0  0  0
    1.9218   -4.6150   -1.1014 O   0  0  0  0  0  0  0  0  0  0  0  0
    0.5377   -5.4561   -3.0769 O   0  0  0  0  0  0  0  0  0  0  0  0
    4.6902   -6.1478   -1.8537 C   0  0  0  0  0  0  0  0  0  0  0  0
    6.7196   -3.8255   -1.3726 C   0  0  0  0  0  0  0  0  0  0  0  0
    5.4853   -3.2272   -0.9362 C   0  0  0  0  0  0  0  0  0  0  0  0
    5.6490   -1.8654   -0.9516 C   0  0  0  0  0  0  0  0  0  0  0  0
    6.9872   -1.5791   -1.3889 C   0  0  0  0  0  0  0  0  0  0  0  0
    7.5869   -2.7908   -1.6338 N   0  0  0  0  0  0  0  0  0  0  0  0
    8.5520   -2.9007   -1.9405 H   0  0  0  0  0  0  0  0  0  0  0  0
    8.4334   -7.2023   -2.0582 C   0  0  0  0  0  0  0  0  0  0  0  0
    9.7170   -7.3648   -2.4684 C   0  0  0  0  0  0  0  0  0  0  0  0
   10.8273    1.1003   -2.2278 C   0  0  0  0  0  0  0  0  0  0  0  0
    9.5213    1.2772   -1.9099 C   0  0  0  0  0  0  0  0  0  0  0  0
    6.9342    1.7258   -0.1505 C   0  0  0  0  0  0  0  0  0  0  0  0
    7.2930    7.2170    0.3376 H   0  0  0  0  0  0  0  0  0  0  0  0
    5.8860    6.6007    1.2963 H   0  0  0  0  0  0  0  0  0  0  0  0
    6.0653    6.1630   -0.4575 H   0  0  0  0  0  0  0  0  0  0  0  0
    6.6474    3.2804    2.0387 H   0  0  0  0  0  0  0  0  0  0  0  0
    4.4293    3.9952   -0.5956 H   0  0  0  0  0  0  0  0  0  0  0  0
    3.9886    2.5008   -2.5554 H   0  0  0  0  0  0  0  0  0  0  0  0
    5.4364    0.5224   -2.9602 H   0  0  0  0  0  0  0  0  0  0  0  0
   14.2450   -0.1978   -0.9275 H   0  0  0  0  0  0  0  0  0  0  0  0
   16.1585    1.3482   -1.3477 H   0  0  0  0  0  0  0  0  0  0  0  0
   16.4497    2.4065   -3.5735 H   0  0  0  0  0  0  0  0  0  0  0  0
   15.6355    2.7843   -5.7421 H   0  0  0  0  0  0  0  0  0  0  0  0
   14.9531   -0.6734   -6.6032 H   0  0  0  0  0  0  0  0  0  0  0  0
   16.3176    0.2008   -7.4244 H   0  0  0  0  0  0  0  0  0  0  0  0
   14.8971   -0.3772   -8.3803 H   0  0  0  0  0  0  0  0  0  0  0  0
   12.8488    0.4637   -4.9566 H   0  0  0  0  0  0  0  0  0  0  0  0
   14.6946   -2.3064   -3.4657 H   0  0  0  0  0  0  0  0  0  0  0  0
   14.3669   -4.9572   -3.6326 H   0  0  0  0  0  0  0  0  0  0  0  0
   11.2924   -7.4248   -5.0868 H   0  0  0  0  0  0  0  0  0  0  0  0
   12.7316   -9.3188   -5.8062 H   0  0  0  0  0  0  0  0  0  0  0  0
   14.7705   -9.9170   -4.4804 H   0  0  0  0  0  0  0  0  0  0  0  0
   15.5636   -8.6609   -1.2987 H   0  0  0  0  0  0  0  0  0  0  0  0
   17.3090   -8.8820   -4.7252 H   0  0  0  0  0  0  0  0  0  0  0  0
   18.1561   -9.7268   -3.3590 H   0  0  0  0  0  0  0  0  0  0  0  0
   18.8587   -8.2223   -4.0803 H   0  0  0  0  0  0  0  0  0  0  0  0
   13.8944   -6.7332   -1.7223 H   0  0  0  0  0  0  0  0  0  0  0  0
    6.9069   -6.9676    0.5938 H   0  0  0  0  0  0  0  0  0  0  0  0
    5.0313   -8.4652    1.2393 H   0  0  0  0  0  0  0  0  0  0  0  0
    2.9146   -8.4701   -0.0995 H   0  0  0  0  0  0  0  0  0  0  0  0
    2.4817   -6.9214   -3.2187 H   0  0  0  0  0  0  0  0  0  0  0  0
    0.7232   -6.8259    0.2077 H   0  0  0  0  0  0  0  0  0  0  0  0
   -0.3061   -7.3759   -1.1837 H   0  0  0  0  0  0  0  0  0  0  0  0
   -0.6063   -5.7709   -0.4015 H   0  0  0  0  0  0  0  0  0  0  0  0
    4.5800   -5.4899   -2.7181 H   0  0  0  0  0  0  0  0  0  0  0  0
    4.5856   -3.7673   -0.6528 H   0  0  0  0  0  0  0  0  0  0  0  0
    4.9145   -1.1174   -0.6675 H   0  0  0  0  0  0  0  0  0  0  0  0
    7.6894   -7.9764   -1.8901 H   0  0  0  0  0  0  0  0  0  0  0  0
   10.2309   -8.2985   -2.6810 H   0  0  0  0  0  0  0  0  0  0  0  0
   11.5835    1.8664   -2.3786 H   0  0  0  0  0  0  0  0  0  0  0  0
    9.0075    2.2214   -1.7458 H   0  0  0  0  0  0  0  0  0  0  0  0
    7.7693    1.5229    0.5231 H   0  0  0  0  0  0  0  0  0  0  0  0
  1  2  1  0
  1 71  1  0
  1 72  1  0
  1 73  1  0
  2  3  2  0
  2  4  2  0
  2  5  1  1
  5  6  1  0
  5 74  1  0
  6  7  2  0
  6 70  1  0
  7  8  1  0
  7 75  1  0
  8  9  2  0
  8 76  1  0
  9 10  1  0
  9 77  1  0
 10 11  1  0
 10 70  2  0
 11 12  1  0
 11 63  2  0
 12 13  2  0
 12 69  1  0
 13 14  1  0
 14 15  2  0
 14 68  1  0
 15 16  1  0
 15 27  1  0
 16 17  2  0
 16 26  1  0
 17 18  1  0
 17 78  1  0
 18 19  2  0
 18 79  1  0
 19 20  1  0
 19 80  1  0
 20 21  1  0
 20 26  2  0
 22 21  1  1
 21 81  1  0
 22 23  1  0
 22 24  2  0
 22 25  2  0
 23 82  1  0
 23 83  1  0
 23 84  1  0
 26 85  1  0
 27 28  2  0
 27 31  1  0
 28 29  1  0
 28 86  1  0
 29 30  2  0
 29 87  1  0
 30 31  1  0
 30 33  1  0
 31 32  1  0
 33 34  1  0
 33 45  2  0
 34 35  2  0
 34 44  1  0
 35 36  1  0
 35 88  1  0
 36 37  2  0
 36 89  1  0
 37 38  1  0
 37 90  1  0
 38 39  1  0
 38 44  2  0
 40 39  1  1
 39 91  1  0
 40 41  1  0
 40 42  2  0
 40 43  2  0
 41 92  1  0
 41 93  1  0
 41 94  1  0
 44 95  1  0
 45 46  1  0
 45 67  1  0
 46 47  2  0
 47 48  1  0
 47 66  1  0
 48 49  1  0
 48 60  2  0
 49 50  2  0
 49 59  1  0
 50 51  1  0
 50 96  1  0
 51 52  2  0
 51 97  1  0
 52 53  1  0
 52 98  1  0
 53 54  1  0
 53 59  2  0
 55 54  1  6
 54 99  1  0
 55 56  1  0
 55 57  2  0
 55 58  2  0
 56100  1  0
 56101  1  0
 56102  1  0
 59103  1  0
 60 61  1  0
 60 64  1  0
 61 62  2  0
 61104  1  0
 62 63  1  0
 62105  1  0
 63 64  1  0
 64 65  1  0
 66 67  2  0
 66106  1  0
 67107  1  0
 68 69  2  0
 68108  1  0
 69109  1  0
 70110  1  0
M  END

