
     RDKit          3D

 53 56  0  0  0  0  0  0  0  0999 V2000
    5.2062   -1.8091    9.4807 C   0  0  0  0  0  0  0  0  0  0  0  0
    5.4862   -1.1135    8.2859 O   0  0  0  0  0  0  0  0  0  0  0  0
    5.5658   -1.8013    7.1207 C   0  0  0  0  0  0  0  0  0  0  0  0
    5.8388   -1.0421    5.9684 C   0  0  0  0  0  0  0  0  0  0  0  0
    5.9315   -1.6619    4.7272 C   0  0  0  0  0  0  0  0  0  0  0  0
    5.7660   -3.0513    4.5927 C   0  0  0  0  0  0  0  0  0  0  0  0
    5.9316   -3.7028    3.2293 C   0  0  0  0  0  0  0  0  0  0  0  0
    5.1859   -4.9360    3.0496 N   0  0  0  0  0  0  0  0  0  0  0  0
    5.7088   -6.2075    2.9636 C   0  0  0  0  0  0  0  0  0  0  0  0
    4.8070   -7.1461    2.8250 N   0  0  0  0  0  0  0  0  0  0  0  0
    3.6035   -6.4687    2.8168 C   0  0  0  0  0  0  0  0  0  0  0  0
    2.2977   -6.9851    2.6874 C   0  0  0  0  0  0  0  0  0  0  0  0
    2.1534   -8.3953    2.5381 N   0  0  0  0  0  0  0  0  0  0  0  0
    1.7192   -9.3762    3.8559 S   0  0  1  0  0  0  0  0  0  0  0  0
    0.5055   -8.8123    4.4417 O   0  0  0  0  0  0  0  0  0  0  0  0
    1.7926  -10.7422    3.3443 O   0  0  0  0  0  0  0  0  0  0  0  0
    3.0295   -9.1912    5.0869 C   0  0  0  0  0  0  0  0  0  0  0  0
    2.9177   -8.1851    6.0484 C   0  0  0  0  0  0  0  0  0  0  0  0
    3.9620   -8.0390    6.9642 C   0  0  0  0  0  0  0  0  0  0  0  0
    3.8665   -6.7885    8.1849 Cl  0  0  0  0  0  0  0  0  0  0  0  0
    5.0810   -8.8754    6.9367 C   0  0  0  0  0  0  0  0  0  0  0  0
    5.1474   -9.8807    5.9663 C   0  0  0  0  0  0  0  0  0  0  0  0
    6.5335  -10.9395    5.9351 Cl  0  0  0  0  0  0  0  0  0  0  0  0
    4.1263  -10.0526    5.0301 C   0  0  0  0  0  0  0  0  0  0  0  0
    1.2101   -6.0977    2.6645 C   0  0  0  0  0  0  0  0  0  0  0  0
   -0.1953   -6.5965    2.4412 C   0  0  0  0  0  0  0  0  0  0  0  0
    1.4451   -4.6942    2.8327 C   0  0  0  0  0  0  0  0  0  0  0  0
    0.2733   -3.7412    2.8438 C   0  0  0  0  0  0  0  0  0  0  0  0
    2.7380   -4.1829    2.9807 C   0  0  0  0  0  0  0  0  0  0  0  0
    3.8090   -5.0819    2.9526 C   0  0  0  0  0  0  0  0  0  0  0  0
    5.4932   -3.7958    5.7438 C   0  0  0  0  0  0  0  0  0  0  0  0
    5.3889   -3.1876    6.9995 C   0  0  0  0  0  0  0  0  0  0  0  0
    5.1906   -1.0593   10.2829 H   0  0  0  0  0  0  0  0  0  0  0  0
    5.9821   -2.5618    9.7098 H   0  0  0  0  0  0  0  0  0  0  0  0
    4.2236   -2.3129    9.4426 H   0  0  0  0  0  0  0  0  0  0  0  0
    5.9650    0.0371    6.0757 H   0  0  0  0  0  0  0  0  0  0  0  0
    6.1364   -1.0512    3.8423 H   0  0  0  0  0  0  0  0  0  0  0  0
    6.9924   -3.9468    3.0482 H   0  0  0  0  0  0  0  0  0  0  0  0
    5.6412   -2.9905    2.4387 H   0  0  0  0  0  0  0  0  0  0  0  0
    6.7876   -6.3698    3.0073 H   0  0  0  0  0  0  0  0  0  0  0  0
    2.9633   -8.8222    2.0846 H   0  0  0  0  0  0  0  0  0  0  0  0
    2.0363   -7.5457    6.0860 H   0  0  0  0  0  0  0  0  0  0  0  0
    5.8845   -8.7524    7.6625 H   0  0  0  0  0  0  0  0  0  0  0  0
    4.1732  -10.8439    4.2820 H   0  0  0  0  0  0  0  0  0  0  0  0
   -0.1992   -7.6495    2.1392 H   0  0  0  0  0  0  0  0  0  0  0  0
   -0.7029   -6.0038    1.6635 H   0  0  0  0  0  0  0  0  0  0  0  0
   -0.8032   -6.5241    3.3578 H   0  0  0  0  0  0  0  0  0  0  0  0
   -0.4662   -4.0129    3.6151 H   0  0  0  0  0  0  0  0  0  0  0  0
   -0.2651   -3.7452    1.8806 H   0  0  0  0  0  0  0  0  0  0  0  0
    0.6008   -2.7099    3.0385 H   0  0  0  0  0  0  0  0  0  0  0  0
    2.8941   -3.1113    3.1194 H   0  0  0  0  0  0  0  0  0  0  0  0
    5.3427   -4.8756    5.6752 H   0  0  0  0  0  0  0  0  0  0  0  0
    5.1626   -3.8090    7.8655 H   0  0  0  0  0  0  0  0  0  0  0  0
  1  2  1  0
  1 33  1  0
  1 34  1  0
  1 35  1  0
  2  3  1  0
  3  4  2  0
  3 32  1  0
  4  5  1  0
  4 36  1  0
  5  6  2  0
  5 37  1  0
  6  7  1  0
  6 31  1  0
  7  8  1  0
  7 38  1  0
  7 39  1  0
  8  9  1  0
  8 30  1  0
  9 10  2  0
  9 40  1  0
 10 11  1  0
 11 12  1  0
 11 30  2  0
 12 13  1  0
 12 25  2  0
 14 13  1  6
 13 41  1  0
 14 15  2  0
 14 16  2  0
 14 17  1  0
 17 18  2  0
 17 24  1  0
 18 19  1  0
 18 42  1  0
 19 20  1  0
 19 21  2  0
 21 22  1  0
 21 43  1  0
 22 23  1  0
 22 24  2  0
 24 44  1  0
 25 26  1  0
 25 27  1  0
 26 45  1  0
 26 46  1  0
 26 47  1  0
 27 28  1  0
 27 29  2  0
 28 48  1  0
 28 49  1  0
 28 50  1  0
 29 30  1  0
 29 51  1  0
 31 32  2  0
 31 52  1  0
 32 53  1  0
M  END

