
     RDKit          3D

 56 59  0  0  0  0  0  0  0  0999 V2000
    1.6591    0.8177   -0.2626 C   0  0  0  0  0  0  0  0  0  0  0  0
    3.0477    1.3758   -0.5775 C   0  0  0  0  0  0  0  0  0  0  0  0
    3.1089    2.1657   -1.8895 C   0  0  0  0  0  0  0  0  0  0  0  0
    4.5023    2.7218   -2.1987 C   0  0  0  0  0  0  0  0  0  0  0  0
    4.6427    3.4169   -3.5661 C   0  0  1  0  0  0  0  0  0  0  0  0
    3.7367    4.6536   -3.7562 C   0  0  0  0  0  0  0  0  0  0  0  0
    3.9434    5.8082   -2.7698 C   0  0  0  0  0  0  0  0  0  0  0  0
    6.1048    3.7614   -3.8608 C   0  0  0  0  0  0  0  0  0  0  0  0
    6.8446    2.5529   -3.9557 O   0  0  0  0  0  0  0  0  0  0  0  0
    8.1800    2.5833   -4.1943 C   0  0  0  0  0  0  0  0  0  0  0  0
    8.9224    3.7726   -4.3781 C   0  0  0  0  0  0  0  0  0  0  0  0
   10.2927    3.7219   -4.6216 C   0  0  0  0  0  0  0  0  0  0  0  0
   10.9493    2.4839   -4.6872 C   0  0  0  0  0  0  0  0  0  0  0  0
   12.2916    2.2908   -4.9205 N   0  0  0  0  0  0  0  0  0  0  0  0
   12.6074    1.0319   -4.9248 C   0  0  0  0  0  0  0  0  0  0  0  0
   13.9449    0.5222   -5.1425 C   0  0  0  0  0  0  0  0  0  0  0  0
   14.3954   -0.7858   -5.1846 C   0  0  0  0  0  0  0  0  0  0  0  0
   15.7872   -0.8864   -5.4247 C   0  0  0  0  0  0  0  0  0  0  0  0
   16.4135    0.3409   -5.5705 C   0  0  0  0  0  0  0  0  0  0  0  0
   17.8344    0.6128   -5.8287 C   0  0  0  0  0  0  0  0  0  0  0  0
   18.2593    1.8233   -6.4134 C   0  0  0  0  0  0  0  0  0  0  0  0
   19.6112    2.0666   -6.6579 C   0  0  0  0  0  0  0  0  0  0  0  0
   20.5723    1.1051   -6.3315 C   0  0  0  0  0  0  0  0  0  0  0  0
   20.1666   -0.1016   -5.7517 C   0  0  0  0  0  0  0  0  0  0  0  0
   18.8167   -0.3440   -5.4985 C   0  0  0  0  0  0  0  0  0  0  0  0
   15.2591    1.6404   -5.3964 S   0  0  0  0  0  0  0  0  0  0  0  0
   11.2436   -0.0911   -4.6321 S   0  0  0  0  0  0  0  0  0  0  0  0
   10.1860    1.2963   -4.5008 C   0  0  0  0  0  0  0  0  0  0  0  0
    8.8154    1.3328   -4.2565 C   0  0  0  0  0  0  0  0  0  0  0  0
    1.6531    0.2564    0.6854 H   0  0  0  0  0  0  0  0  0  0  0  0
    1.3124    0.1340   -1.0558 H   0  0  0  0  0  0  0  0  0  0  0  0
    0.9121    1.6247   -0.1755 H   0  0  0  0  0  0  0  0  0  0  0  0
    3.7785    0.5479   -0.6195 H   0  0  0  0  0  0  0  0  0  0  0  0
    3.3811    2.0256    0.2523 H   0  0  0  0  0  0  0  0  0  0  0  0
    2.3698    2.9859   -1.8456 H   0  0  0  0  0  0  0  0  0  0  0  0
    2.7839    1.5131   -2.7216 H   0  0  0  0  0  0  0  0  0  0  0  0
    5.2311    1.8952   -2.1680 H   0  0  0  0  0  0  0  0  0  0  0  0
    4.8068    3.4185   -1.3958 H   0  0  0  0  0  0  0  0  0  0  0  0
    4.3475    2.6851   -4.3405 H   0  0  0  0  0  0  0  0  0  0  0  0
    2.6851    4.3261   -3.7081 H   0  0  0  0  0  0  0  0  0  0  0  0
    3.8767    5.0295   -4.7856 H   0  0  0  0  0  0  0  0  0  0  0  0
    3.7517    5.5023   -1.7290 H   0  0  0  0  0  0  0  0  0  0  0  0
    3.2558    6.6385   -2.9968 H   0  0  0  0  0  0  0  0  0  0  0  0
    4.9667    6.2158   -2.8106 H   0  0  0  0  0  0  0  0  0  0  0  0
    6.5303    4.3978   -3.0625 H   0  0  0  0  0  0  0  0  0  0  0  0
    6.1794    4.3212   -4.8123 H   0  0  0  0  0  0  0  0  0  0  0  0
    8.4287    4.7427   -4.3318 H   0  0  0  0  0  0  0  0  0  0  0  0
   10.8701    4.6374   -4.7641 H   0  0  0  0  0  0  0  0  0  0  0  0
   13.7384   -1.6476   -5.0550 H   0  0  0  0  0  0  0  0  0  0  0  0
   16.3128   -1.8375   -5.5157 H   0  0  0  0  0  0  0  0  0  0  0  0
   17.5187    2.5759   -6.6953 H   0  0  0  0  0  0  0  0  0  0  0  0
   19.9144    3.0123   -7.1144 H   0  0  0  0  0  0  0  0  0  0  0  0
   21.6308    1.2952   -6.5255 H   0  0  0  0  0  0  0  0  0  0  0  0
   20.9094   -0.8575   -5.4840 H   0  0  0  0  0  0  0  0  0  0  0  0
   18.5198   -1.2792   -5.0194 H   0  0  0  0  0  0  0  0  0  0  0  0
    8.2191    0.4307   -4.1128 H   0  0  0  0  0  0  0  0  0  0  0  0
  1  2  1  0
  1 30  1  0
  1 31  1  0
  1 32  1  0
  2  3  1  0
  2 33  1  0
  2 34  1  0
  3  4  1  0
  3 35  1  0
  3 36  1  0
  4  5  1  0
  4 37  1  0
  4 38  1  0
  5  6  1  0
  5  8  1  0
  5 39  1  6
  6  7  1  0
  6 40  1  0
  6 41  1  0
  7 42  1  0
  7 43  1  0
  7 44  1  0
  8  9  1  0
  8 45  1  0
  8 46  1  0
  9 10  1  0
 10 11  2  0
 10 29  1  0
 11 12  1  0
 11 47  1  0
 12 13  2  0
 12 48  1  0
 13 14  1  0
 13 28  1  0
 14 15  2  0
 15 16  1  0
 15 27  1  0
 16 17  2  0
 16 26  1  0
 17 18  1  0
 17 49  1  0
 18 19  2  0
 18 50  1  0
 19 20  1  0
 19 26  1  0
 20 21  2  0
 20 25  1  0
 21 22  1  0
 21 51  1  0
 22 23  2  0
 22 52  1  0
 23 24  1  0
 23 53  1  0
 24 25  2  0
 24 54  1  0
 25 55  1  0
 27 28  1  0
 28 29  2  0
 29 56  1  0
M  END

