
     RDKit          3D

 41 42  0  0  0  0  0  0  0  0999 V2000
    2.2025    0.2853    0.7612 C   0  0  0  0  0  0  0  0  0  0  0  0
    3.2499    0.1709   -0.3540 C   0  0  1  0  0  0  0  0  0  0  0  0
    3.4683   -1.2825   -0.8188 C   0  0  0  0  0  0  0  0  0  0  0  0
    2.3016   -1.7840   -1.6780 C   0  0  0  0  0  0  0  0  0  0  0  0
    2.0175   -0.8327   -2.8403 C   0  0  0  0  0  0  0  0  0  0  0  0
    1.7918    0.5323   -2.3528 N   0  0  0  0  0  0  0  0  0  0  0  0
    1.1225    1.3688   -3.2553 C   0  0  0  0  0  0  0  0  0  0  0  0
    0.8921    1.0231   -4.4060 O   0  0  0  0  0  0  0  0  0  0  0  0
    0.7220    2.6125   -2.7740 N   0  0  0  0  0  0  0  0  0  0  0  0
    0.3418    2.8254   -1.3854 C   0  0  0  0  0  0  0  0  0  0  0  0
    0.2530    3.5617   -3.7783 C   0  0  1  0  0  0  0  0  0  0  0  0
   -1.2560    3.5822   -4.0766 C   0  0  0  0  0  0  0  0  0  0  0  0
   -1.4096    4.9303   -4.7863 C   0  0  0  0  0  0  0  0  0  0  0  0
   -0.3405    5.7609   -4.3277 O   0  0  0  0  0  0  0  0  0  0  0  0
    0.5373    5.0448   -3.4661 C   0  0  2  0  0  0  0  0  0  0  0  0
    1.9698    5.4905   -3.7036 C   0  0  0  0  0  0  0  0  0  0  0  0
    2.9263    1.0507   -1.5757 C   0  0  0  0  0  0  0  0  0  0  0  0
    2.4880   -0.3303    1.6294 H   0  0  0  0  0  0  0  0  0  0  0  0
    1.2079   -0.0502    0.4292 H   0  0  0  0  0  0  0  0  0  0  0  0
    2.1043    1.3259    1.1104 H   0  0  0  0  0  0  0  0  0  0  0  0
    4.2068    0.5468    0.0502 H   0  0  0  0  0  0  0  0  0  0  0  0
    3.6264   -1.9426    0.0507 H   0  0  0  0  0  0  0  0  0  0  0  0
    4.3958   -1.3273   -1.4178 H   0  0  0  0  0  0  0  0  0  0  0  0
    1.3907   -1.8901   -1.0647 H   0  0  0  0  0  0  0  0  0  0  0  0
    2.5267   -2.7853   -2.0809 H   0  0  0  0  0  0  0  0  0  0  0  0
    1.1335   -1.1454   -3.4098 H   0  0  0  0  0  0  0  0  0  0  0  0
    2.8666   -0.8448   -3.5549 H   0  0  0  0  0  0  0  0  0  0  0  0
    0.3359    1.8674   -0.8533 H   0  0  0  0  0  0  0  0  0  0  0  0
   -0.6758    3.2455   -1.3247 H   0  0  0  0  0  0  0  0  0  0  0  0
    1.0182    3.5157   -0.8506 H   0  0  0  0  0  0  0  0  0  0  0  0
    0.7736    3.3012   -4.7104 H   0  0  0  0  0  0  0  0  0  0  0  0
   -1.8380    3.5616   -3.1403 H   0  0  0  0  0  0  0  0  0  0  0  0
   -1.5625    2.7238   -4.6902 H   0  0  0  0  0  0  0  0  0  0  0  0
   -2.3749    5.4206   -4.5704 H   0  0  0  0  0  0  0  0  0  0  0  0
   -1.3317    4.8185   -5.8836 H   0  0  0  0  0  0  0  0  0  0  0  0
    0.2650    5.2622   -2.4119 H   0  0  0  0  0  0  0  0  0  0  0  0
    2.2612    5.3048   -4.7493 H   0  0  0  0  0  0  0  0  0  0  0  0
    2.6591    4.9400   -3.0434 H   0  0  0  0  0  0  0  0  0  0  0  0
    2.0804    6.5668   -3.5014 H   0  0  0  0  0  0  0  0  0  0  0  0
    2.7254    2.0818   -1.2616 H   0  0  0  0  0  0  0  0  0  0  0  0
    3.8237    1.0890   -2.2290 H   0  0  0  0  0  0  0  0  0  0  0  0
  1  2  1  0
  1 18  1  0
  1 19  1  0
  1 20  1  0
  2  3  1  0
  2 17  1  0
  2 21  1  1
  3  4  1  0
  3 22  1  0
  3 23  1  0
  4  5  1  0
  4 24  1  0
  4 25  1  0
  5  6  1  0
  5 26  1  0
  5 27  1  0
  6  7  1  0
  6 17  1  0
  7  8  2  0
  7  9  1  0
  9 10  1  0
  9 11  1  0
 10 28  1  0
 10 29  1  0
 10 30  1  0
 11 12  1  0
 11 15  1  0
 11 31  1  6
 12 13  1  0
 12 32  1  0
 12 33  1  0
 13 14  1  0
 13 34  1  0
 13 35  1  0
 14 15  1  0
 15 16  1  0
 15 36  1  1
 16 37  1  0
 16 38  1  0
 16 39  1  0
 17 40  1  0
 17 41  1  0
M  END

