
     RDKit          3D

 45 48  0  0  0  0  0  0  0  0999 V2000
   -0.0687    0.7442    0.8172 C   0  0  0  0  0  0  0  0  0  0  0  0
    1.1420    0.6029    0.0114 N   0  0  0  0  0  0  0  0  0  0  0  0
    2.1315    1.5358   -0.1621 C   0  0  0  0  0  0  0  0  0  0  0  0
    2.2173    2.8396    0.3623 C   0  0  0  0  0  0  0  0  0  0  0  0
    1.2183    3.4432    1.1741 C   0  0  0  0  0  0  0  0  0  0  0  0
    0.4377    3.9999    1.8378 N   0  0  0  0  0  0  0  0  0  0  0  0
    3.4008    3.6511    0.0460 C   0  0  0  0  0  0  0  0  0  0  0  0
    4.2987    3.2237   -0.6701 O   0  0  0  0  0  0  0  0  0  0  0  0
    3.4776    5.0827    0.6106 C   0  0  0  0  0  0  0  0  0  0  0  0
    4.7366    5.7287    0.3797 N   0  0  0  0  0  0  0  0  0  0  0  0
    4.8789    6.3998   -0.9109 C   0  0  0  0  0  0  0  0  0  0  0  0
    6.3343    6.6521   -1.2842 C   0  0  0  0  0  0  0  0  0  0  0  0
    7.0761    7.2811   -0.1039 C   0  0  0  0  0  0  0  0  0  0  0  0
    6.9755    6.3740    1.0998 C   0  0  0  0  0  0  0  0  0  0  0  0
    8.0174    6.2594    2.0222 C   0  0  0  0  0  0  0  0  0  0  0  0
    7.9321    5.4188    3.1365 C   0  0  0  0  0  0  0  0  0  0  0  0
    6.7750    4.6584    3.3095 C   0  0  0  0  0  0  0  0  0  0  0  0
    5.7249    4.7369    2.3931 C   0  0  0  0  0  0  0  0  0  0  0  0
    5.7932    5.6028    1.2784 C   0  0  0  0  0  0  0  0  0  0  0  0
    3.4204    0.9042   -1.2007 S   0  0  0  0  0  0  0  0  0  0  0  0
    2.5586   -0.6223   -1.3748 C   0  0  0  0  0  0  0  0  0  0  0  0
    2.9483   -1.7466   -2.1056 C   0  0  0  0  0  0  0  0  0  0  0  0
    2.1104   -2.8644   -2.1094 C   0  0  0  0  0  0  0  0  0  0  0  0
    0.9053   -2.8521   -1.3922 C   0  0  0  0  0  0  0  0  0  0  0  0
    0.5122   -1.7296   -0.6591 C   0  0  0  0  0  0  0  0  0  0  0  0
    1.3547   -0.6097   -0.6578 C   0  0  0  0  0  0  0  0  0  0  0  0
   -0.1163    1.7223    1.2965 H   0  0  0  0  0  0  0  0  0  0  0  0
   -0.0844   -0.0329    1.5968 H   0  0  0  0  0  0  0  0  0  0  0  0
   -0.9559    0.6224    0.1767 H   0  0  0  0  0  0  0  0  0  0  0  0
    3.2214    5.0775    1.6811 H   0  0  0  0  0  0  0  0  0  0  0  0
    2.6716    5.6683    0.1308 H   0  0  0  0  0  0  0  0  0  0  0  0
    4.3261    7.3623   -0.8945 H   0  0  0  0  0  0  0  0  0  0  0  0
    4.4079    5.7736   -1.6872 H   0  0  0  0  0  0  0  0  0  0  0  0
    6.3684    7.2993   -2.1752 H   0  0  0  0  0  0  0  0  0  0  0  0
    6.8145    5.6962   -1.5525 H   0  0  0  0  0  0  0  0  0  0  0  0
    6.6305    8.2699    0.1191 H   0  0  0  0  0  0  0  0  0  0  0  0
    8.1334    7.4662   -0.3517 H   0  0  0  0  0  0  0  0  0  0  0  0
    8.9217    6.8546    1.8597 H   0  0  0  0  0  0  0  0  0  0  0  0
    8.7583    5.3527    3.8479 H   0  0  0  0  0  0  0  0  0  0  0  0
    6.6843    3.9797    4.1621 H   0  0  0  0  0  0  0  0  0  0  0  0
    4.8520    4.1025    2.5473 H   0  0  0  0  0  0  0  0  0  0  0  0
    3.8888   -1.7495   -2.6612 H   0  0  0  0  0  0  0  0  0  0  0  0
    2.3975   -3.7535   -2.6752 H   0  0  0  0  0  0  0  0  0  0  0  0
    0.2595   -3.7330   -1.4036 H   0  0  0  0  0  0  0  0  0  0  0  0
   -0.4276   -1.7370   -0.1070 H   0  0  0  0  0  0  0  0  0  0  0  0
  1  2  1  0
  1 27  1  0
  1 28  1  0
  1 29  1  0
  2  3  1  0
  2 26  1  0
  3  4  2  0
  3 20  1  0
  4  5  1  0
  4  7  1  0
  5  6  3  0
  7  8  2  0
  7  9  1  0
  9 10  1  0
  9 30  1  0
  9 31  1  0
 10 11  1  0
 10 19  1  0
 11 12  1  0
 11 32  1  0
 11 33  1  0
 12 13  1  0
 12 34  1  0
 12 35  1  0
 13 14  1  0
 13 36  1  0
 13 37  1  0
 14 15  2  0
 14 19  1  0
 15 16  1  0
 15 38  1  0
 16 17  2  0
 16 39  1  0
 17 18  1  0
 17 40  1  0
 18 19  2  0
 18 41  1  0
 20 21  1  0
 21 22  2  0
 21 26  1  0
 22 23  1  0
 22 42  1  0
 23 24  2  0
 23 43  1  0
 24 25  1  0
 24 44  1  0
 25 26  2  0
 25 45  1  0
M  END

