
     RDKit          3D

 46 48  0  0  0  0  0  0  0  0999 V2000
    6.1888    4.4707    3.7780 C   0  0  0  0  0  0  0  0  0  0  0  0
    6.3185    3.8609    2.4284 C   0  0  0  0  0  0  0  0  0  0  0  0
    6.4727    2.6110    2.1069 N   0  0  0  0  0  0  0  0  0  0  0  0
    6.5380    2.6536    0.7312 C   0  0  0  0  0  0  0  0  0  0  0  0
    6.6702    1.4222   -0.1402 C   0  0  1  0  0  0  0  0  0  0  0  0
    6.8746    1.7598   -1.5553 N   0  0  0  0  0  0  0  0  0  0  0  0
    8.0850    2.4689   -1.9589 C   0  0  0  0  0  0  0  0  0  0  0  0
    8.6975    1.9642   -3.2759 C   0  0  0  0  0  0  0  0  0  0  0  0
    9.6273    2.5551   -3.8042 O   0  0  0  0  0  0  0  0  0  0  0  0
    8.1204    0.8248   -3.7437 N   0  0  0  0  0  0  0  0  0  0  0  0
    8.4915    0.1198   -4.9668 C   0  0  1  0  0  0  0  0  0  0  0  0
    7.5959   -1.0540   -5.0609 C   0  0  0  0  0  0  0  0  0  0  0  0
    6.8948   -1.9740   -5.1323 N   0  0  0  0  0  0  0  0  0  0  0  0
    8.3827    0.9690   -6.2669 C   0  0  0  0  0  0  0  0  0  0  0  0
    9.2018    0.1912   -7.3131 C   0  0  0  0  0  0  0  0  0  0  0  0
   10.2398   -0.6505   -6.5091 C   0  0  0  0  0  0  0  0  0  0  0  0
    9.9752   -0.3484   -5.0218 C   0  0  0  0  0  0  0  0  0  0  0  0
    7.7508    0.4418    0.3733 C   0  0  0  0  0  0  0  0  0  0  0  0
    7.3869   -0.9122   -0.2641 C   0  0  0  0  0  0  0  0  0  0  0  0
    5.8471   -0.8762   -0.4702 C   0  0  0  0  0  0  0  0  0  0  0  0
    5.3997    0.5364   -0.0339 C   0  0  0  0  0  0  0  0  0  0  0  0
    6.4275    3.8600    0.2344 N   0  0  0  0  0  0  0  0  0  0  0  0
    6.2823    4.6680    1.3578 O   0  0  0  0  0  0  0  0  0  0  0  0
    6.2076    3.6791    4.5364 H   0  0  0  0  0  0  0  0  0  0  0  0
    5.2472    5.0355    3.8594 H   0  0  0  0  0  0  0  0  0  0  0  0
    7.0151    5.1745    3.9650 H   0  0  0  0  0  0  0  0  0  0  0  0
    6.0548    2.2615   -1.8928 H   0  0  0  0  0  0  0  0  0  0  0  0
    8.8744    2.3550   -1.2005 H   0  0  0  0  0  0  0  0  0  0  0  0
    7.9404    3.5567   -2.0667 H   0  0  0  0  0  0  0  0  0  0  0  0
    7.3403    0.4968   -3.1745 H   0  0  0  0  0  0  0  0  0  0  0  0
    8.8494    1.9371   -6.0375 H   0  0  0  0  0  0  0  0  0  0  0  0
    7.3373    1.1471   -6.5595 H   0  0  0  0  0  0  0  0  0  0  0  0
    9.6830    0.8760   -8.0272 H   0  0  0  0  0  0  0  0  0  0  0  0
    8.5489   -0.4711   -7.9023 H   0  0  0  0  0  0  0  0  0  0  0  0
   11.2765   -0.4035   -6.7822 H   0  0  0  0  0  0  0  0  0  0  0  0
   10.1056   -1.7229   -6.7189 H   0  0  0  0  0  0  0  0  0  0  0  0
   10.5753    0.5051   -4.6776 H   0  0  0  0  0  0  0  0  0  0  0  0
   10.1651   -1.2002   -4.3522 H   0  0  0  0  0  0  0  0  0  0  0  0
    7.6633    0.3988    1.4693 H   0  0  0  0  0  0  0  0  0  0  0  0
    8.7765    0.7696    0.1482 H   0  0  0  0  0  0  0  0  0  0  0  0
    7.7092   -1.7526    0.3692 H   0  0  0  0  0  0  0  0  0  0  0  0
    7.9004   -1.0297   -1.2297 H   0  0  0  0  0  0  0  0  0  0  0  0
    5.3313   -1.6490    0.1198 H   0  0  0  0  0  0  0  0  0  0  0  0
    5.5913   -1.0646   -1.5234 H   0  0  0  0  0  0  0  0  0  0  0  0
    5.0690    0.5357    1.0160 H   0  0  0  0  0  0  0  0  0  0  0  0
    4.5718    0.9441   -0.6360 H   0  0  0  0  0  0  0  0  0  0  0  0
  1  2  1  0
  1 24  1  0
  1 25  1  0
  1 26  1  0
  2  3  2  0
  2 23  1  0
  3  4  1  0
  4  5  1  0
  4 22  2  0
  5  6  1  6
  5 18  1  0
  5 21  1  0
  6  7  1  0
  6 27  1  0
  7  8  1  0
  7 28  1  0
  7 29  1  0
  8  9  2  0
  8 10  1  0
 10 11  1  0
 10 30  1  0
 11 12  1  6
 11 14  1  0
 11 17  1  0
 12 13  3  0
 14 15  1  0
 14 31  1  0
 14 32  1  0
 15 16  1  0
 15 33  1  0
 15 34  1  0
 16 17  1  0
 16 35  1  0
 16 36  1  0
 17 37  1  0
 17 38  1  0
 18 19  1  0
 18 39  1  0
 18 40  1  0
 19 20  1  0
 19 41  1  0
 19 42  1  0
 20 21  1  0
 20 43  1  0
 20 44  1  0
 21 45  1  0
 21 46  1  0
 22 23  1  0
M  END

