
     RDKit          3D

 63 68  0  0  0  0  0  0  0  0999 V2000
    1.3083   -5.4770    7.3143 C   0  0  0  0  0  0  0  0  0  0  0  0
    1.9972   -4.3858    6.7485 O   0  0  0  0  0  0  0  0  0  0  0  0
    2.7208   -4.5732    5.6161 C   0  0  0  0  0  0  0  0  0  0  0  0
    3.3911   -3.4440    5.1115 C   0  0  0  0  0  0  0  0  0  0  0  0
    4.1562   -3.5422    3.9569 C   0  0  0  0  0  0  0  0  0  0  0  0
    4.2927   -4.7571    3.2549 C   0  0  0  0  0  0  0  0  0  0  0  0
    5.1451   -4.7798    1.9876 C   0  0  1  0  0  0  0  0  0  0  0  0
    4.8063   -3.9274    1.3743 H   0  0  0  0  0  0  0  0  0  0  0  0
    6.6452   -4.5737    2.2686 C   0  0  0  0  0  0  0  0  0  0  0  0
    7.3489   -5.8068    2.8215 C   0  0  0  0  0  0  0  0  0  0  0  0
    8.3261   -5.6829    3.5433 O   0  0  0  0  0  0  0  0  0  0  0  0
    6.8508   -7.1363    2.4209 C   0  0  0  0  0  0  0  0  0  0  0  0
    5.7295   -7.2568    1.6439 C   0  0  0  0  0  0  0  0  0  0  0  0
    4.9917   -6.0359    1.1225 C   0  0  0  0  0  0  0  0  0  0  0  0
    5.1579   -8.4301    1.1983 N   0  0  0  0  0  0  0  0  0  0  0  0
    5.4579   -9.7878    1.4047 C   0  0  0  0  0  0  0  0  0  0  0  0
    4.4093  -10.7147    1.2564 C   0  0  0  0  0  0  0  0  0  0  0  0
    4.6318  -12.0823    1.3933 C   0  0  0  0  0  0  0  0  0  0  0  0
    5.9098  -12.5500    1.7152 C   0  0  0  0  0  0  0  0  0  0  0  0
    6.9504  -11.6387    1.8830 C   0  0  0  0  0  0  0  0  0  0  0  0
    6.7539  -10.2622    1.6967 C   0  0  0  0  0  0  0  0  0  0  0  0
    7.8252   -9.3473    1.8426 N   0  0  0  0  0  0  0  0  0  0  0  0
    9.0771   -9.5032    1.2518 C   0  0  0  0  0  0  0  0  0  0  0  0
   10.0618   -8.9212    1.6729 O   0  0  0  0  0  0  0  0  0  0  0  0
    9.1914  -10.3687    0.0218 C   0  0  0  0  0  0  0  0  0  0  0  0
    8.2297  -10.3815   -1.0005 C   0  0  0  0  0  0  0  0  0  0  0  0
    8.4504  -11.1176   -2.1669 C   0  0  0  0  0  0  0  0  0  0  0  0
    9.6264  -11.8585   -2.3188 C   0  0  0  0  0  0  0  0  0  0  0  0
   10.5935  -11.8421   -1.3081 C   0  0  0  0  0  0  0  0  0  0  0  0
   10.3841  -11.0886   -0.1524 C   0  0  0  0  0  0  0  0  0  0  0  0
    7.6902   -8.3055    2.8901 C   0  0  2  0  0  0  0  0  0  0  0  0
    8.7075   -7.9168    3.0476 H   0  0  0  0  0  0  0  0  0  0  0  0
    7.2306   -8.8928    4.1927 C   0  0  0  0  0  0  0  0  0  0  0  0
    6.2349   -8.5809    5.0778 C   0  0  0  0  0  0  0  0  0  0  0  0
    6.3739   -9.4913    6.1797 C   0  0  0  0  0  0  0  0  0  0  0  0
    7.4395  -10.2874    5.8767 C   0  0  0  0  0  0  0  0  0  0  0  0
    7.9677   -9.9310    4.6779 O   0  0  0  0  0  0  0  0  0  0  0  0
    3.6128   -5.8669    3.7670 C   0  0  0  0  0  0  0  0  0  0  0  0
    2.8345   -5.7897    4.9318 C   0  0  0  0  0  0  0  0  0  0  0  0
    0.8052   -5.0981    8.2141 H   0  0  0  0  0  0  0  0  0  0  0  0
    1.9958   -6.2917    7.6060 H   0  0  0  0  0  0  0  0  0  0  0  0
    0.5469   -5.8862    6.6254 H   0  0  0  0  0  0  0  0  0  0  0  0
    3.2906   -2.4982    5.6476 H   0  0  0  0  0  0  0  0  0  0  0  0
    4.6619   -2.6463    3.5844 H   0  0  0  0  0  0  0  0  0  0  0  0
    6.8313   -3.7454    2.9661 H   0  0  0  0  0  0  0  0  0  0  0  0
    7.1591   -4.3146    1.3240 H   0  0  0  0  0  0  0  0  0  0  0  0
    3.9237   -6.2779    0.9876 H   0  0  0  0  0  0  0  0  0  0  0  0
    5.3820   -5.8164    0.1119 H   0  0  0  0  0  0  0  0  0  0  0  0
    4.2638   -8.2934    0.7412 H   0  0  0  0  0  0  0  0  0  0  0  0
    3.4055  -10.3454    1.0253 H   0  0  0  0  0  0  0  0  0  0  0  0
    3.8015  -12.7805    1.2643 H   0  0  0  0  0  0  0  0  0  0  0  0
    6.0931  -13.6185    1.8465 H   0  0  0  0  0  0  0  0  0  0  0  0
    7.9487  -11.9839    2.1551 H   0  0  0  0  0  0  0  0  0  0  0  0
    7.3126   -9.8000   -0.8939 H   0  0  0  0  0  0  0  0  0  0  0  0
    7.7003  -11.1114   -2.9620 H   0  0  0  0  0  0  0  0  0  0  0  0
    9.7933  -12.4410   -3.2287 H   0  0  0  0  0  0  0  0  0  0  0  0
   11.5198  -12.4100   -1.4268 H   0  0  0  0  0  0  0  0  0  0  0  0
   11.1452  -11.0381    0.6289 H   0  0  0  0  0  0  0  0  0  0  0  0
    5.5066   -7.7823    4.9663 H   0  0  0  0  0  0  0  0  0  0  0  0
    5.7609   -9.5422    7.0772 H   0  0  0  0  0  0  0  0  0  0  0  0
    7.9242  -11.1161    6.3864 H   0  0  0  0  0  0  0  0  0  0  0  0
    3.6776   -6.8346    3.2665 H   0  0  0  0  0  0  0  0  0  0  0  0
    2.3273   -6.6862    5.2889 H   0  0  0  0  0  0  0  0  0  0  0  0
  1  2  1  0
  1 40  1  0
  1 41  1  0
  1 42  1  0
  2  3  1  0
  3  4  2  0
  3 39  1  0
  4  5  1  0
  4 43  1  0
  5  6  2  0
  5 44  1  0
  6  7  1  0
  6 38  1  0
  7  8  1  6
  7  9  1  0
  7 14  1  0
  9 10  1  0
  9 45  1  0
  9 46  1  0
 10 11  2  0
 10 12  1  0
 12 13  2  0
 12 31  1  0
 13 14  1  0
 13 15  1  0
 14 47  1  0
 14 48  1  0
 15 16  1  0
 15 49  1  0
 16 17  1  0
 16 21  2  0
 17 18  2  0
 17 50  1  0
 18 19  1  0
 18 51  1  0
 19 20  2  0
 19 52  1  0
 20 21  1  0
 20 53  1  0
 21 22  1  0
 22 23  1  0
 22 31  1  0
 23 24  2  0
 23 25  1  0
 25 26  2  0
 25 30  1  0
 26 27  1  0
 26 54  1  0
 27 28  2  0
 27 55  1  0
 28 29  1  0
 28 56  1  0
 29 30  2  0
 29 57  1  0
 30 58  1  0
 31 32  1  1
 31 33  1  0
 33 34  2  0
 33 37  1  0
 34 35  1  0
 34 59  1  0
 35 36  2  0
 35 60  1  0
 36 37  1  0
 36 61  1  0
 38 39  2  0
 38 62  1  0
 39 63  1  0
M  END

