
     RDKit          3D

 24 23  0  0  0  0  0  0  0  0999 V2000
    2.6480   -0.4619    1.2871 C   0  0  0  0  0  0  0  0  0  0  0  0
    2.1766   -0.1313    0.0772 C   0  0  0  0  0  0  0  0  0  0  0  0
    0.9621   -0.4543   -0.4361 O   0  0  0  0  0  0  0  0  0  0  0  0
    0.0594   -1.1906    0.3593 C   0  0  0  0  0  0  0  0  0  0  0  0
    2.9546    0.7117   -0.9346 C   0  0  1  0  0  0  0  0  0  0  0  0
    2.4516    0.1472   -2.7659 Si  0  0  0  0  0  4  0  0  0  0  0  0
    1.1402    0.7397   -3.1397 H   0  0  0  0  0  0  0  0  0  0  0  0
    3.4779    0.6388   -3.7357 H   0  0  0  0  0  0  0  0  0  0  0  0
    2.4011   -1.3378   -2.8801 H   0  0  0  0  0  0  0  0  0  0  0  0
    2.5500    2.0349   -0.6905 O   0  0  0  0  0  0  0  0  0  0  0  0
    3.1239    3.0407   -1.5013 C   0  0  0  0  0  0  0  0  0  0  0  0
    4.3479    0.6615   -0.6831 O   0  0  0  0  0  0  0  0  0  0  0  0
    5.0488   -0.4995   -1.0632 C   0  0  0  0  0  0  0  0  0  0  0  0
    2.0772   -1.0431    2.0113 H   0  0  0  0  0  0  0  0  0  0  0  0
    3.6417   -0.1145    1.5677 H   0  0  0  0  0  0  0  0  0  0  0  0
   -0.8490   -1.3342   -0.2405 H   0  0  0  0  0  0  0  0  0  0  0  0
   -0.1950   -0.6433    1.2841 H   0  0  0  0  0  0  0  0  0  0  0  0
    0.4764   -2.1765    0.6333 H   0  0  0  0  0  0  0  0  0  0  0  0
    2.7641    4.0031   -1.1108 H   0  0  0  0  0  0  0  0  0  0  0  0
    2.8072    2.9568   -2.5592 H   0  0  0  0  0  0  0  0  0  0  0  0
    4.2248    3.0198   -1.4593 H   0  0  0  0  0  0  0  0  0  0  0  0
    6.0968   -0.3521   -0.7647 H   0  0  0  0  0  0  0  0  0  0  0  0
    5.0255   -0.6667   -2.1571 H   0  0  0  0  0  0  0  0  0  0  0  0
    4.6632   -1.4055   -0.5611 H   0  0  0  0  0  0  0  0  0  0  0  0
  1  2  2  0
  1 14  1  0
  1 15  1  0
  2  3  1  0
  2  5  1  0
  3  4  1  0
  4 16  1  0
  4 17  1  0
  4 18  1  0
  5  6  1  0
  5 10  1  6
  5 12  1  0
  6  7  1  0
  6  8  1  0
  6  9  1  0
 10 11  1  0
 11 19  1  0
 11 20  1  0
 11 21  1  0
 12 13  1  0
 13 22  1  0
 13 23  1  0
 13 24  1  0
M  END

