
     RDKit          3D

 50 51  0  0  0  0  0  0  0  0999 V2000
    0.9213    0.4702    1.1047 C   0  0  0  0  0  0  0  0  0  0  0  0
    2.3915    0.3700    0.6922 C   0  0  0  0  0  0  0  0  0  0  0  0
    2.5935   -0.4331   -0.5998 C   0  0  0  0  0  0  0  0  0  0  0  0
    4.0644   -0.5891   -1.0829 C   0  0  1  0  0  0  0  0  0  0  0  0
    4.7198    0.7150   -1.2635 N   0  0  0  0  0  0  0  0  0  0  0  0
    4.9164   -1.4012   -0.0856 C   0  0  0  0  0  0  0  0  0  0  0  0
    4.3739   -2.3781    0.7680 C   0  0  0  0  0  0  0  0  0  0  0  0
    5.1859   -3.1299    1.6235 C   0  0  0  0  0  0  0  0  0  0  0  0
    6.5669   -2.9244    1.6484 C   0  0  0  0  0  0  0  0  0  0  0  0
    7.1246   -1.9580    0.8069 C   0  0  0  0  0  0  0  0  0  0  0  0
    6.3106   -1.2087   -0.0462 C   0  0  0  0  0  0  0  0  0  0  0  0
    4.1558   -1.3199   -2.5053 C   0  0  1  0  0  0  0  0  0  0  0  0
    3.3498   -2.6324   -2.5707 C   0  0  0  0  0  0  0  0  0  0  0  0
    3.7468   -3.5280   -3.7452 C   0  0  0  0  0  0  0  0  0  0  0  0
    3.9208   -0.4938   -3.6875 N   0  0  0  0  0  0  0  0  0  0  0  0
    5.0330    0.2278   -4.2888 C   0  0  0  0  0  0  0  0  0  0  0  0
    4.8715    0.3335   -5.8097 C   0  0  0  0  0  0  0  0  0  0  0  0
    3.5233    0.9670   -6.1687 C   0  0  0  0  0  0  0  0  0  0  0  0
    2.3800    0.2097   -5.4863 C   0  0  0  0  0  0  0  0  0  0  0  0
    2.6204    0.0823   -3.9748 C   0  0  0  0  0  0  0  0  0  0  0  0
    0.7991    1.0650    2.0241 H   0  0  0  0  0  0  0  0  0  0  0  0
    0.4880   -0.5263    1.2946 H   0  0  0  0  0  0  0  0  0  0  0  0
    0.3130    0.9463    0.3171 H   0  0  0  0  0  0  0  0  0  0  0  0
    2.9736   -0.0816    1.5130 H   0  0  0  0  0  0  0  0  0  0  0  0
    2.7970    1.3879    0.5577 H   0  0  0  0  0  0  0  0  0  0  0  0
    2.0244    0.0636   -1.4015 H   0  0  0  0  0  0  0  0  0  0  0  0
    2.1215   -1.4216   -0.4816 H   0  0  0  0  0  0  0  0  0  0  0  0
    4.8006    1.2037   -0.3725 H   0  0  0  0  0  0  0  0  0  0  0  0
    4.1616    1.3055   -1.8782 H   0  0  0  0  0  0  0  0  0  0  0  0
    3.2989   -2.5645    0.7783 H   0  0  0  0  0  0  0  0  0  0  0  0
    4.7307   -3.8798    2.2762 H   0  0  0  0  0  0  0  0  0  0  0  0
    7.2018   -3.5105    2.3179 H   0  0  0  0  0  0  0  0  0  0  0  0
    8.2041   -1.7831    0.8135 H   0  0  0  0  0  0  0  0  0  0  0  0
    6.7501   -0.4516   -0.6971 H   0  0  0  0  0  0  0  0  0  0  0  0
    5.2179   -1.6002   -2.5786 H   0  0  0  0  0  0  0  0  0  0  0  0
    2.2696   -2.4148   -2.6247 H   0  0  0  0  0  0  0  0  0  0  0  0
    3.4973   -3.1848   -1.6299 H   0  0  0  0  0  0  0  0  0  0  0  0
    3.6262   -3.0010   -4.7035 H   0  0  0  0  0  0  0  0  0  0  0  0
    3.1324   -4.4421   -3.7760 H   0  0  0  0  0  0  0  0  0  0  0  0
    4.8023   -3.8389   -3.6685 H   0  0  0  0  0  0  0  0  0  0  0  0
    5.9676   -0.2961   -4.0385 H   0  0  0  0  0  0  0  0  0  0  0  0
    5.1418    1.2556   -3.8750 H   0  0  0  0  0  0  0  0  0  0  0  0
    4.9356   -0.6770   -6.2505 H   0  0  0  0  0  0  0  0  0  0  0  0
    5.7038    0.9252   -6.2279 H   0  0  0  0  0  0  0  0  0  0  0  0
    3.3773    0.9916   -7.2616 H   0  0  0  0  0  0  0  0  0  0  0  0
    3.5160    2.0201   -5.8290 H   0  0  0  0  0  0  0  0  0  0  0  0
    2.2991   -0.8030   -5.9185 H   0  0  0  0  0  0  0  0  0  0  0  0
    1.4152    0.7157   -5.6627 H   0  0  0  0  0  0  0  0  0  0  0  0
    1.8331   -0.5459   -3.5339 H   0  0  0  0  0  0  0  0  0  0  0  0
    2.5002    1.0974   -3.5209 H   0  0  0  0  0  0  0  0  0  0  0  0
  1  2  1  0
  1 21  1  0
  1 22  1  0
  1 23  1  0
  2  3  1  0
  2 24  1  0
  2 25  1  0
  3  4  1  0
  3 26  1  0
  3 27  1  0
  4  5  1  6
  4  6  1  0
  4 12  1  0
  5 28  1  0
  5 29  1  0
  6  7  2  0
  6 11  1  0
  7  8  1  0
  7 30  1  0
  8  9  2  0
  8 31  1  0
  9 10  1  0
  9 32  1  0
 10 11  2  0
 10 33  1  0
 11 34  1  0
 12 13  1  0
 12 15  1  0
 12 35  1  6
 13 14  1  0
 13 36  1  0
 13 37  1  0
 14 38  1  0
 14 39  1  0
 14 40  1  0
 15 16  1  0
 15 20  1  0
 16 17  1  0
 16 41  1  0
 16 42  1  0
 17 18  1  0
 17 43  1  0
 17 44  1  0
 18 19  1  0
 18 45  1  0
 18 46  1  0
 19 20  1  0
 19 47  1  0
 19 48  1  0
 20 49  1  0
 20 50  1  0
M  END

