
     RDKit          3D

 20 20  0  0  0  0  0  0  0  0999 V2000
    0.6204    0.8221   -1.9250 C   0  0  0  0  0  0  0  0  0  0  0  0
    1.8062   -0.0012   -2.0821 N   0  0  0  0  0  0  0  0  0  0  0  0
    1.4997   -1.3800   -2.0280 N   0  0  0  0  0  0  0  0  0  0  0  0
    2.9095    0.3241   -1.1660 C   0  0  2  0  0  0  0  0  0  0  0  0
    2.5882    0.1739   -0.1082 H   0  0  0  0  0  0  0  0  0  0  0  0
    3.4140    1.7647   -1.3610 C   0  0  0  0  0  0  0  0  0  0  0  0
    4.1307    1.8122   -2.7113 C   0  0  0  0  0  0  0  0  0  0  0  0
    5.0884    0.2391   -2.8201 S   0  0  0  0  0  0  0  0  0  0  0  0
    4.1374   -0.5546   -1.4453 C   0  0  0  0  0  0  0  0  0  0  0  0
   -0.1252    0.5285   -2.6803 H   0  0  0  0  0  0  0  0  0  0  0  0
    0.8411    1.8871   -2.0816 H   0  0  0  0  0  0  0  0  0  0  0  0
    0.1483    0.7130   -0.9192 H   0  0  0  0  0  0  0  0  0  0  0  0
    1.0963   -1.6636   -2.9204 H   0  0  0  0  0  0  0  0  0  0  0  0
    0.8024   -1.5772   -1.2960 H   0  0  0  0  0  0  0  0  0  0  0  0
    4.1298    1.9805   -0.5514 H   0  0  0  0  0  0  0  0  0  0  0  0
    2.6185    2.5222   -1.2910 H   0  0  0  0  0  0  0  0  0  0  0  0
    4.8195    2.6660   -2.7910 H   0  0  0  0  0  0  0  0  0  0  0  0
    3.4114    1.8574   -3.5425 H   0  0  0  0  0  0  0  0  0  0  0  0
    4.7719   -0.6103   -0.5478 H   0  0  0  0  0  0  0  0  0  0  0  0
    3.8309   -1.5659   -1.7353 H   0  0  0  0  0  0  0  0  0  0  0  0
  1  2  1  0
  1 10  1  0
  1 11  1  0
  1 12  1  0
  2  3  1  0
  2  4  1  0
  3 13  1  0
  3 14  1  0
  4  5  1  1
  4  6  1  0
  4  9  1  0
  6  7  1  0
  6 15  1  0
  6 16  1  0
  7  8  1  0
  7 17  1  0
  7 18  1  0
  8  9  1  0
  9 19  1  0
  9 20  1  0
M  END

