
     RDKit          3D

 53 55  0  0  0  0  0  0  0  0999 V2000
    2.4968   -0.8915   -2.9924 C   0  0  0  0  0  0  0  0  0  0  0  0
    2.3152   -1.6590   -1.6806 C   0  0  0  0  0  0  0  0  0  0  0  0
    3.2160   -1.2581   -0.6064 N   0  0  0  0  0  0  0  0  0  0  0  0
    4.5846   -1.4864   -0.5825 C   0  0  0  0  0  0  0  0  0  0  0  0
    5.4448   -0.7895    0.0721 N   0  0  0  0  0  0  0  0  0  0  0  0
    5.0186    0.3986    0.7573 C   0  0  0  0  0  0  0  0  0  0  0  0
    6.1779    1.1868    1.3357 C   0  0  0  0  0  0  0  0  0  0  0  0
    7.5013    0.7465    1.2448 C   0  0  0  0  0  0  0  0  0  0  0  0
    8.5264    1.5103    1.7994 C   0  0  0  0  0  0  0  0  0  0  0  0
    9.7924    1.0687    1.7009 F   0  0  0  0  0  0  0  0  0  0  0  0
    8.2805    2.7153    2.4519 C   0  0  0  0  0  0  0  0  0  0  0  0
    6.9596    3.1650    2.5492 C   0  0  0  0  0  0  0  0  0  0  0  0
    5.9403    2.3992    1.9951 C   0  0  0  0  0  0  0  0  0  0  0  0
    4.6656    2.8356    2.0907 F   0  0  0  0  0  0  0  0  0  0  0  0
    5.0078   -2.5723   -1.3396 N   0  0  0  0  0  0  0  0  0  0  0  0
    6.3984   -2.9901   -1.2748 C   0  0  0  0  0  0  0  0  0  0  0  0
    6.6881   -4.0924   -2.2893 C   0  0  1  0  0  0  0  0  0  0  0  0
    6.5353   -3.6978   -3.7679 C   0  0  0  0  0  0  0  0  0  0  0  0
    7.3447   -4.7659   -4.5111 C   0  0  0  0  0  0  0  0  0  0  0  0
    8.3835   -5.1360   -3.5588 N   0  0  0  0  0  0  0  0  0  0  0  0
    9.4725   -5.9155   -3.8811 C   0  0  0  0  0  0  0  0  0  0  0  0
   10.5107   -6.1581   -2.9482 C   0  0  0  0  0  0  0  0  0  0  0  0
   11.6065   -6.9524   -3.2888 C   0  0  0  0  0  0  0  0  0  0  0  0
   11.7072   -7.5215   -4.5531 C   0  0  0  0  0  0  0  0  0  0  0  0
   12.7586   -8.2842   -4.8894 F   0  0  0  0  0  0  0  0  0  0  0  0
   10.6909   -7.2866   -5.4817 C   0  0  0  0  0  0  0  0  0  0  0  0
   10.7806   -7.8343   -6.6999 F   0  0  0  0  0  0  0  0  0  0  0  0
    9.5887   -6.5031   -5.1646 C   0  0  0  0  0  0  0  0  0  0  0  0
    8.1350   -4.6114   -2.2247 C   0  0  0  0  0  0  0  0  0  0  0  0
    1.7728   -1.2352   -3.7492 H   0  0  0  0  0  0  0  0  0  0  0  0
    3.5113   -1.0409   -3.3921 H   0  0  0  0  0  0  0  0  0  0  0  0
    2.3428    0.1892   -2.8412 H   0  0  0  0  0  0  0  0  0  0  0  0
    2.4139   -2.7419   -1.8635 H   0  0  0  0  0  0  0  0  0  0  0  0
    1.2883   -1.5250   -1.3028 H   0  0  0  0  0  0  0  0  0  0  0  0
    2.9322   -0.4251   -0.1064 H   0  0  0  0  0  0  0  0  0  0  0  0
    4.3274    0.1675    1.5984 H   0  0  0  0  0  0  0  0  0  0  0  0
    4.4411    1.0888    0.1014 H   0  0  0  0  0  0  0  0  0  0  0  0
    7.7125   -0.1950    0.7385 H   0  0  0  0  0  0  0  0  0  0  0  0
    9.1111    3.2845    2.8727 H   0  0  0  0  0  0  0  0  0  0  0  0
    6.7117    4.1029    3.0498 H   0  0  0  0  0  0  0  0  0  0  0  0
    4.3422   -3.3377   -1.3817 H   0  0  0  0  0  0  0  0  0  0  0  0
    6.6756   -3.3260   -0.2558 H   0  0  0  0  0  0  0  0  0  0  0  0
    7.0258   -2.1095   -1.4806 H   0  0  0  0  0  0  0  0  0  0  0  0
    6.0169   -4.9497   -2.0871 H   0  0  0  0  0  0  0  0  0  0  0  0
    6.9812   -2.7015   -3.9286 H   0  0  0  0  0  0  0  0  0  0  0  0
    5.4889   -3.6487   -4.1010 H   0  0  0  0  0  0  0  0  0  0  0  0
    7.7790   -4.3793   -5.4496 H   0  0  0  0  0  0  0  0  0  0  0  0
    6.7139   -5.6370   -4.7838 H   0  0  0  0  0  0  0  0  0  0  0  0
   10.4718   -5.7165   -1.9531 H   0  0  0  0  0  0  0  0  0  0  0  0
   12.4079   -7.1365   -2.5698 H   0  0  0  0  0  0  0  0  0  0  0  0
    8.8275   -6.3724   -5.9326 H   0  0  0  0  0  0  0  0  0  0  0  0
    8.8379   -3.7918   -1.9669 H   0  0  0  0  0  0  0  0  0  0  0  0
    8.2569   -5.3929   -1.4542 H   0  0  0  0  0  0  0  0  0  0  0  0
  1  2  1  0
  1 30  1  0
  1 31  1  0
  1 32  1  0
  2  3  1  0
  2 33  1  0
  2 34  1  0
  3  4  1  0
  3 35  1  0
  4  5  2  0
  4 15  1  0
  5  6  1  0
  6  7  1  0
  6 36  1  0
  6 37  1  0
  7  8  2  0
  7 13  1  0
  8  9  1  0
  8 38  1  0
  9 10  1  0
  9 11  2  0
 11 12  1  0
 11 39  1  0
 12 13  2  0
 12 40  1  0
 13 14  1  0
 15 16  1  0
 15 41  1  0
 16 17  1  0
 16 42  1  0
 16 43  1  0
 17 18  1  0
 17 29  1  0
 17 44  1  1
 18 19  1  0
 18 45  1  0
 18 46  1  0
 19 20  1  0
 19 47  1  0
 19 48  1  0
 20 21  1  0
 20 29  1  0
 21 22  2  0
 21 28  1  0
 22 23  1  0
 22 49  1  0
 23 24  2  0
 23 50  1  0
 24 25  1  0
 24 26  1  0
 26 27  1  0
 26 28  2  0
 28 51  1  0
 29 52  1  0
 29 53  1  0
M  END

