
     RDKit          3D

 40 40  0  0  0  0  0  0  0  0999 V2000
    3.4228    0.0730    1.7885 C   0  0  0  0  0  0  0  0  0  0  0  0
    2.6181    0.3806    0.5359 C   0  0  1  0  0  0  0  0  0  0  0  0
    0.8442    1.1392    1.0689 Br  0  0  0  0  0  0  0  0  0  0  0  0
    3.2835    1.3546   -0.4362 C   0  0  0  0  0  0  0  0  0  0  0  0
    4.6269    0.8716   -1.0341 C   0  0  1  0  0  0  0  0  0  0  0  0
    4.5033   -0.4153   -1.8551 C   0  0  0  0  0  0  0  0  0  0  0  0
    5.2132    1.9344   -1.8424 N   0  0  0  0  0  0  0  0  0  0  0  0
    6.2792    2.6860   -1.4268 C   0  0  0  0  0  0  0  0  0  0  0  0
    6.8357    2.4776   -0.3591 O   0  0  0  0  0  0  0  0  0  0  0  0
    6.6986    3.8600   -2.3533 C   0  0  1  0  0  0  0  0  0  0  0  0
    5.7647    5.0402   -2.0083 C   0  0  0  0  0  0  0  0  0  0  0  0
    8.1628    4.2430   -2.0342 C   0  0  0  0  0  0  0  0  0  0  0  0
    9.1796    3.1885   -2.4899 C   0  0  0  0  0  0  0  0  0  0  0  0
    9.0315    2.8550   -3.9791 C   0  0  0  0  0  0  0  0  0  0  0  0
    7.5910    2.4532   -4.3193 C   0  0  0  0  0  0  0  0  0  0  0  0
    6.5930    3.5244   -3.8615 C   0  0  0  0  0  0  0  0  0  0  0  0
    2.8653   -0.5863    2.4687 H   0  0  0  0  0  0  0  0  0  0  0  0
    3.6812    0.9955    2.3308 H   0  0  0  0  0  0  0  0  0  0  0  0
    4.3629   -0.4368    1.5180 H   0  0  0  0  0  0  0  0  0  0  0  0
    2.3294   -0.5477    0.0252 H   0  0  0  0  0  0  0  0  0  0  0  0
    3.4642    2.3084    0.0851 H   0  0  0  0  0  0  0  0  0  0  0  0
    2.5835    1.5700   -1.2615 H   0  0  0  0  0  0  0  0  0  0  0  0
    5.3465    0.7192   -0.2168 H   0  0  0  0  0  0  0  0  0  0  0  0
    3.7987   -0.2887   -2.6956 H   0  0  0  0  0  0  0  0  0  0  0  0
    4.1384   -1.2540   -1.2423 H   0  0  0  0  0  0  0  0  0  0  0  0
    5.4812   -0.7035   -2.2693 H   0  0  0  0  0  0  0  0  0  0  0  0
    4.7609    2.1674   -2.7179 H   0  0  0  0  0  0  0  0  0  0  0  0
    5.8358    5.2958   -0.9397 H   0  0  0  0  0  0  0  0  0  0  0  0
    4.7117    4.8045   -2.2322 H   0  0  0  0  0  0  0  0  0  0  0  0
    6.0426    5.9325   -2.5923 H   0  0  0  0  0  0  0  0  0  0  0  0
    8.2586    4.4147   -0.9526 H   0  0  0  0  0  0  0  0  0  0  0  0
    8.3763    5.2017   -2.5405 H   0  0  0  0  0  0  0  0  0  0  0  0
    9.0411    2.2750   -1.8873 H   0  0  0  0  0  0  0  0  0  0  0  0
   10.2018    3.5454   -2.2792 H   0  0  0  0  0  0  0  0  0  0  0  0
    9.7301    2.0511   -4.2664 H   0  0  0  0  0  0  0  0  0  0  0  0
    9.3102    3.7388   -4.5831 H   0  0  0  0  0  0  0  0  0  0  0  0
    7.3507    1.4927   -3.8289 H   0  0  0  0  0  0  0  0  0  0  0  0
    7.4841    2.2825   -5.4040 H   0  0  0  0  0  0  0  0  0  0  0  0
    5.5616    3.2428   -4.1402 H   0  0  0  0  0  0  0  0  0  0  0  0
    6.7888    4.4586   -4.4183 H   0  0  0  0  0  0  0  0  0  0  0  0
  1  2  1  0
  1 17  1  0
  1 18  1  0
  1 19  1  0
  2  3  1  0
  2  4  1  0
  2 20  1  6
  4  5  1  0
  4 21  1  0
  4 22  1  0
  5  6  1  0
  5  7  1  0
  5 23  1  1
  6 24  1  0
  6 25  1  0
  6 26  1  0
  7  8  1  0
  7 27  1  0
  8  9  2  0
 10  8  1  1
 10 11  1  0
 10 12  1  0
 10 16  1  0
 11 28  1  0
 11 29  1  0
 11 30  1  0
 12 13  1  0
 12 31  1  0
 12 32  1  0
 13 14  1  0
 13 33  1  0
 13 34  1  0
 14 15  1  0
 14 35  1  0
 14 36  1  0
 15 16  1  0
 15 37  1  0
 15 38  1  0
 16 39  1  0
 16 40  1  0
M  END

