
     RDKit          3D

 51 55  0  0  0  0  0  0  0  0999 V2000
    0.9065    0.0480    0.1444 C   0  0  0  0  0  0  0  0  0  0  0  0
    2.4078    0.1044    0.0044 C   0  0  0  0  0  0  0  0  0  0  0  0
    3.2557   -0.2914    1.0499 C   0  0  0  0  0  0  0  0  0  0  0  0
    4.6451   -0.2132    0.9286 C   0  0  0  0  0  0  0  0  0  0  0  0
    5.2197    0.2508   -0.2610 C   0  0  0  0  0  0  0  0  0  0  0  0
    6.6366    0.3247   -0.3960 N   0  0  0  0  0  0  0  0  0  0  0  0
    7.5233   -0.7581   -0.3268 C   0  0  0  0  0  0  0  0  0  0  0  0
    7.2510   -2.1170   -0.1307 C   0  0  0  0  0  0  0  0  0  0  0  0
    8.3320   -2.9997   -0.1200 C   0  0  0  0  0  0  0  0  0  0  0  0
    9.6523   -2.5469   -0.3027 C   0  0  0  0  0  0  0  0  0  0  0  0
    9.9170   -1.1934   -0.5074 C   0  0  0  0  0  0  0  0  0  0  0  0
    8.8485   -0.2858   -0.5228 C   0  0  0  0  0  0  0  0  0  0  0  0
    8.7508    1.1487   -0.7190 C   0  0  0  0  0  0  0  0  0  0  0  0
    9.6896    2.1559   -0.9406 C   0  0  0  0  0  0  0  0  0  0  0  0
    9.2665    3.4907   -1.1050 C   0  0  0  0  0  0  0  0  0  0  0  0
   10.2667    4.5416   -1.3713 C   0  0  0  0  0  0  0  0  0  0  0  0
   10.0239    5.5891   -2.2426 C   0  0  0  0  0  0  0  0  0  0  0  0
   10.9109    6.7113   -2.3800 C   0  0  0  0  0  0  0  0  0  0  0  0
   11.5861    7.6467   -2.5190 N   0  0  0  0  0  0  0  0  0  0  0  0
    8.8725    5.6568   -3.0990 C   0  0  0  0  0  0  0  0  0  0  0  0
    7.9696    5.7519   -3.8243 N   0  0  0  0  0  0  0  0  0  0  0  0
   11.5711    4.4435   -0.6654 C   0  0  0  0  0  0  0  0  0  0  0  0
   11.6008    4.1762    0.7183 C   0  0  0  0  0  0  0  0  0  0  0  0
   12.8147    4.0928    1.4001 C   0  0  0  0  0  0  0  0  0  0  0  0
   14.0207    4.2495    0.7088 C   0  0  0  0  0  0  0  0  0  0  0  0
   14.0055    4.4950   -0.6673 C   0  0  0  0  0  0  0  0  0  0  0  0
   12.7920    4.5977   -1.3492 C   0  0  0  0  0  0  0  0  0  0  0  0
    7.8815    3.7898   -0.9952 C   0  0  0  0  0  0  0  0  0  0  0  0
    6.9311    2.8062   -0.7534 C   0  0  0  0  0  0  0  0  0  0  0  0
    7.3676    1.4786   -0.6346 C   0  0  0  0  0  0  0  0  0  0  0  0
    4.3873    0.6398   -1.3205 C   0  0  0  0  0  0  0  0  0  0  0  0
    3.0014    0.5728   -1.1802 C   0  0  0  0  0  0  0  0  0  0  0  0
    0.6031   -0.5252    1.0326 H   0  0  0  0  0  0  0  0  0  0  0  0
    0.4378   -0.4163   -0.7380 H   0  0  0  0  0  0  0  0  0  0  0  0
    0.4790    1.0610    0.2399 H   0  0  0  0  0  0  0  0  0  0  0  0
    2.8225   -0.6593    1.9841 H   0  0  0  0  0  0  0  0  0  0  0  0
    5.2892   -0.5080    1.7597 H   0  0  0  0  0  0  0  0  0  0  0  0
    6.2299   -2.4762    0.0056 H   0  0  0  0  0  0  0  0  0  0  0  0
    8.1463   -4.0661    0.0312 H   0  0  0  0  0  0  0  0  0  0  0  0
   10.4751   -3.2654   -0.2882 H   0  0  0  0  0  0  0  0  0  0  0  0
   10.9421   -0.8454   -0.6574 H   0  0  0  0  0  0  0  0  0  0  0  0
   10.7508    1.9095   -1.0087 H   0  0  0  0  0  0  0  0  0  0  0  0
   10.6616    4.0508    1.2610 H   0  0  0  0  0  0  0  0  0  0  0  0
   12.8196    3.9030    2.4763 H   0  0  0  0  0  0  0  0  0  0  0  0
   14.9719    4.1765    1.2421 H   0  0  0  0  0  0  0  0  0  0  0  0
   14.9437    4.6077   -1.2157 H   0  0  0  0  0  0  0  0  0  0  0  0
   12.7924    4.7799   -2.4252 H   0  0  0  0  0  0  0  0  0  0  0  0
    7.5495    4.8254   -1.0725 H   0  0  0  0  0  0  0  0  0  0  0  0
    5.8768    3.0672   -0.6535 H   0  0  0  0  0  0  0  0  0  0  0  0
    4.8317    0.9869   -2.2558 H   0  0  0  0  0  0  0  0  0  0  0  0
    2.3665    0.8805   -2.0160 H   0  0  0  0  0  0  0  0  0  0  0  0
  1  2  1  0
  1 33  1  0
  1 34  1  0
  1 35  1  0
  2  3  2  0
  2 32  1  0
  3  4  1  0
  3 36  1  0
  4  5  2  0
  4 37  1  0
  5  6  1  0
  5 31  1  0
  6  7  1  0
  6 30  1  0
  7  8  2  0
  7 12  1  0
  8  9  1  0
  8 38  1  0
  9 10  2  0
  9 39  1  0
 10 11  1  0
 10 40  1  0
 11 12  2  0
 11 41  1  0
 12 13  1  0
 13 14  1  0
 13 30  2  0
 14 15  2  0
 14 42  1  0
 15 16  1  0
 15 28  1  0
 16 17  2  0
 16 22  1  0
 17 18  1  0
 17 20  1  0
 18 19  3  0
 20 21  3  0
 22 23  2  0
 22 27  1  0
 23 24  1  0
 23 43  1  0
 24 25  2  0
 24 44  1  0
 25 26  1  0
 25 45  1  0
 26 27  2  0
 26 46  1  0
 27 47  1  0
 28 29  2  0
 28 48  1  0
 29 30  1  0
 29 49  1  0
 31 32  2  0
 31 50  1  0
 32 51  1  0
M  END

