
     RDKit          3D

 41 42  0  0  0  0  0  0  0  0999 V2000
    1.0598    0.4629   -0.4627 C   0  0  0  0  0  0  0  0  0  0  0  0
    2.4201    0.0675    0.1292 C   0  0  1  0  0  0  0  0  0  0  0  0
    3.4719   -0.1254   -0.9820 C   0  0  0  0  0  0  0  0  0  0  0  0
    2.8763    1.1057    1.1318 C   0  0  0  0  0  0  0  0  0  0  0  0
    2.6294    2.3769    0.9885 N   0  0  0  0  0  0  0  0  0  0  0  0
    3.2217    3.0048    2.0628 C   0  0  0  0  0  0  0  0  0  0  0  0
    3.2631    4.3770    2.3399 C   0  0  0  0  0  0  0  0  0  0  0  0
    3.9454    4.7949    3.4766 C   0  0  0  0  0  0  0  0  0  0  0  0
    4.5425    3.8567    4.3340 C   0  0  0  0  0  0  0  0  0  0  0  0
    4.4753    2.4739    4.1067 C   0  0  0  0  0  0  0  0  0  0  0  0
    5.0660    1.6114    5.1951 C   0  0  0  0  0  0  0  0  0  0  0  0
    6.2306    1.6656    5.5100 O   0  0  0  0  0  0  0  0  0  0  0  0
    4.2123    0.8125    5.8459 O   0  0  0  0  0  0  0  0  0  0  0  0
    3.8394    2.0521    2.9187 C   0  0  0  0  0  0  0  0  0  0  0  0
    3.6231    0.8177    2.2838 N   0  0  0  0  0  0  0  0  0  0  0  0
    4.2578   -0.4895    2.5172 C   0  0  1  0  0  0  0  0  0  0  0  0
    5.7892   -0.4115    2.5708 C   0  0  0  0  0  0  0  0  0  0  0  0
    3.6879   -1.2759    3.7180 C   0  0  0  0  0  0  0  0  0  0  0  0
    1.8995   -0.9084    4.0135 S   0  0  0  0  0  0  0  0  0  0  0  0
    1.6117   -2.2213    5.2535 C   0  0  0  0  0  0  0  0  0  0  0  0
    1.8517    0.4000    4.8063 O   0  0  0  0  0  0  0  0  0  0  0  0
    0.7327   -0.2859   -1.2015 H   0  0  0  0  0  0  0  0  0  0  0  0
    1.1274    1.4435   -0.9547 H   0  0  0  0  0  0  0  0  0  0  0  0
    0.2908    0.5383    0.3208 H   0  0  0  0  0  0  0  0  0  0  0  0
    2.2865   -0.8933    0.6545 H   0  0  0  0  0  0  0  0  0  0  0  0
    3.6226    0.8198   -1.5263 H   0  0  0  0  0  0  0  0  0  0  0  0
    3.1399   -0.8898   -1.7027 H   0  0  0  0  0  0  0  0  0  0  0  0
    4.4504   -0.4391   -0.5839 H   0  0  0  0  0  0  0  0  0  0  0  0
    2.7728    5.0788    1.6625 H   0  0  0  0  0  0  0  0  0  0  0  0
    4.0132    5.8582    3.7180 H   0  0  0  0  0  0  0  0  0  0  0  0
    5.0617    4.2004    5.2313 H   0  0  0  0  0  0  0  0  0  0  0  0
    3.2734    0.8442    5.4940 H   0  0  0  0  0  0  0  0  0  0  0  0
    4.0026   -1.0727    1.6252 H   0  0  0  0  0  0  0  0  0  0  0  0
    6.1587    0.1613    3.4321 H   0  0  0  0  0  0  0  0  0  0  0  0
    6.1755    0.0586    1.6539 H   0  0  0  0  0  0  0  0  0  0  0  0
    6.2097   -1.4274    2.6377 H   0  0  0  0  0  0  0  0  0  0  0  0
    4.1976   -1.0403    4.6622 H   0  0  0  0  0  0  0  0  0  0  0  0
    3.7709   -2.3571    3.5265 H   0  0  0  0  0  0  0  0  0  0  0  0
    1.6408   -3.2099    4.7721 H   0  0  0  0  0  0  0  0  0  0  0  0
    0.6110   -2.0261    5.6620 H   0  0  0  0  0  0  0  0  0  0  0  0
    2.3654   -2.1363    6.0492 H   0  0  0  0  0  0  0  0  0  0  0  0
  1  2  1  0
  1 22  1  0
  1 23  1  0
  1 24  1  0
  2  3  1  0
  2  4  1  0
  2 25  1  1
  3 26  1  0
  3 27  1  0
  3 28  1  0
  4  5  2  0
  4 15  1  0
  5  6  1  0
  6  7  2  0
  6 14  1  0
  7  8  1  0
  7 29  1  0
  8  9  2  0
  8 30  1  0
  9 10  1  0
  9 31  1  0
 10 11  1  0
 10 14  2  0
 11 12  2  0
 11 13  1  0
 13 32  1  0
 14 15  1  0
 15 16  1  0
 16 17  1  0
 16 18  1  0
 16 33  1  6
 17 34  1  0
 17 35  1  0
 17 36  1  0
 18 19  1  0
 18 37  1  0
 18 38  1  0
 19 20  1  0
 19 21  1  1
 20 39  1  0
 20 40  1  0
 20 41  1  0
M  CHG  2  19   1  21  -1
M  END

