
     RDKit          3D

 33 35  0  0  0  0  0  0  0  0999 V2000
    1.2794    0.0972    1.4928 O   0  0  0  0  0  0  0  0  0  0  0  0
    2.5626    0.1078    1.0706 C   0  0  0  0  0  0  0  0  0  0  0  0
    3.5959   -0.5425    1.7641 C   0  0  0  0  0  0  0  0  0  0  0  0
    4.9086   -0.5072    1.2977 C   0  0  0  0  0  0  0  0  0  0  0  0
    5.2333    0.1783    0.1172 C   0  0  0  0  0  0  0  0  0  0  0  0
    6.6620    0.2350   -0.3798 C   0  0  0  0  0  0  0  0  0  0  0  0
    7.2435   -1.0892   -0.4745 N   0  0  0  0  0  0  0  0  0  0  0  0
    8.5648   -1.3021   -0.8157 C   0  0  0  0  0  0  0  0  0  0  0  0
    8.9967   -2.6509   -1.0687 C   0  0  0  0  0  0  0  0  0  0  0  0
   10.2182   -2.9976   -1.3683 N   0  0  0  0  0  0  0  0  0  0  0  0
   11.1786   -2.0302   -1.4493 C   0  0  0  0  0  0  0  0  0  0  0  0
   12.5104   -2.4043   -1.7686 C   0  0  0  0  0  0  0  0  0  0  0  0
   13.5040   -1.4505   -1.8629 C   0  0  0  0  0  0  0  0  0  0  0  0
   13.1999   -0.0836   -1.6416 C   0  0  0  0  0  0  0  0  0  0  0  0
   11.9136    0.3093   -1.3293 C   0  0  0  0  0  0  0  0  0  0  0  0
   10.8683   -0.6499   -1.2225 C   0  0  0  0  0  0  0  0  0  0  0  0
    9.5262   -0.3045   -0.9099 C   0  0  0  0  0  0  0  0  0  0  0  0
    4.2031    0.8224   -0.5804 C   0  0  0  0  0  0  0  0  0  0  0  0
    2.8877    0.7938   -0.1135 C   0  0  0  0  0  0  0  0  0  0  0  0
    1.5171    1.6798   -1.0887 Br  0  0  0  0  0  0  0  0  0  0  0  0
    1.2123   -0.4096    2.3130 H   0  0  0  0  0  0  0  0  0  0  0  0
    3.3573   -1.0801    2.6875 H   0  0  0  0  0  0  0  0  0  0  0  0
    5.6936   -1.0224    1.8564 H   0  0  0  0  0  0  0  0  0  0  0  0
    7.2717    0.8299    0.3253 H   0  0  0  0  0  0  0  0  0  0  0  0
    6.6977    0.7773   -1.3469 H   0  0  0  0  0  0  0  0  0  0  0  0
    6.5982   -1.8257   -0.7393 H   0  0  0  0  0  0  0  0  0  0  0  0
    8.2478   -3.4548   -1.0056 H   0  0  0  0  0  0  0  0  0  0  0  0
   12.7098   -3.4651   -1.9343 H   0  0  0  0  0  0  0  0  0  0  0  0
   14.5274   -1.7446   -2.1090 H   0  0  0  0  0  0  0  0  0  0  0  0
   13.9932    0.6647   -1.7194 H   0  0  0  0  0  0  0  0  0  0  0  0
   11.6830    1.3650   -1.1592 H   0  0  0  0  0  0  0  0  0  0  0  0
    9.2758    0.7458   -0.7499 H   0  0  0  0  0  0  0  0  0  0  0  0
    4.4203    1.3591   -1.5064 H   0  0  0  0  0  0  0  0  0  0  0  0
  1  2  1  0
  1 21  1  0
  2  3  2  0
  2 19  1  0
  3  4  1  0
  3 22  1  0
  4  5  2  0
  4 23  1  0
  5  6  1  0
  5 18  1  0
  6  7  1  0
  6 24  1  0
  6 25  1  0
  7  8  1  0
  7 26  1  0
  8  9  2  0
  8 17  1  0
  9 10  1  0
  9 27  1  0
 10 11  2  0
 11 12  1  0
 11 16  1  0
 12 13  2  0
 12 28  1  0
 13 14  1  0
 13 29  1  0
 14 15  2  0
 14 30  1  0
 15 16  1  0
 15 31  1  0
 16 17  2  0
 17 32  1  0
 18 19  2  0
 18 33  1  0
 19 20  1  0
M  END

