
     RDKit          3D

 30 32  0  0  0  0  0  0  0  0999 V2000
    2.3957    2.2279    0.3354 C   0  0  0  0  0  0  0  0  0  0  0  0
    3.0822    0.9044    0.2349 C   0  0  0  0  0  0  0  0  0  0  0  0
    2.4730   -0.2406    0.2683 N   0  0  0  0  0  0  0  0  0  0  0  0
    3.2989   -1.3159    0.1597 N   0  0  0  0  0  0  0  0  0  0  0  0
    4.5538   -0.9884    0.0426 C   0  0  0  0  0  0  0  0  0  0  0  0
    5.8866   -2.1161   -0.1186 S   0  0  0  0  0  0  0  0  0  0  0  0
    4.9520   -3.6957   -0.0630 C   0  0  0  0  0  0  0  0  0  0  0  0
    5.9443   -4.8576   -0.1628 C   0  0  0  0  0  0  0  0  0  0  0  0
    5.2723   -6.1333   -0.0639 N   0  0  0  0  0  0  0  0  0  0  0  0
    4.7236   -6.5495    1.1265 N   0  0  0  0  0  0  0  0  0  0  0  0
    4.1856   -7.7109    0.8510 C   0  0  0  0  0  0  0  0  0  0  0  0
    3.4729   -8.6348    1.6790 C   0  0  0  0  0  0  0  0  0  0  0  0
    3.0138   -9.7959    1.1200 C   0  0  0  0  0  0  0  0  0  0  0  0
    3.2344  -10.0998   -0.2720 C   0  0  0  0  0  0  0  0  0  0  0  0
    3.9135   -9.2188   -1.0575 C   0  0  0  0  0  0  0  0  0  0  0  0
    4.3737   -8.0534   -0.4930 N   0  0  0  0  0  0  0  0  0  0  0  0
    5.0922   -7.0085   -1.1154 C   0  0  0  0  0  0  0  0  0  0  0  0
    5.4472   -6.9350   -2.2746 O   0  0  0  0  0  0  0  0  0  0  0  0
    4.8329    0.7469    0.0562 S   0  0  0  0  0  0  0  0  0  0  0  0
    1.3170    2.0476    0.4379 H   0  0  0  0  0  0  0  0  0  0  0  0
    2.5706    2.8435   -0.5616 H   0  0  0  0  0  0  0  0  0  0  0  0
    2.7461    2.8002    1.2093 H   0  0  0  0  0  0  0  0  0  0  0  0
    4.2335   -3.7099   -0.8944 H   0  0  0  0  0  0  0  0  0  0  0  0
    4.3893   -3.7414    0.8791 H   0  0  0  0  0  0  0  0  0  0  0  0
    6.6967   -4.7946    0.6400 H   0  0  0  0  0  0  0  0  0  0  0  0
    6.4636   -4.8536   -1.1324 H   0  0  0  0  0  0  0  0  0  0  0  0
    3.3177   -8.3821    2.7283 H   0  0  0  0  0  0  0  0  0  0  0  0
    2.4664  -10.5131    1.7359 H   0  0  0  0  0  0  0  0  0  0  0  0
    2.8606  -11.0302   -0.7006 H   0  0  0  0  0  0  0  0  0  0  0  0
    4.1362   -9.3449   -2.1183 H   0  0  0  0  0  0  0  0  0  0  0  0
  1  2  1  0
  1 20  1  0
  1 21  1  0
  1 22  1  0
  2  3  2  0
  2 19  1  0
  3  4  1  0
  4  5  2  0
  5  6  1  0
  5 19  1  0
  6  7  1  0
  7  8  1  0
  7 23  1  0
  7 24  1  0
  8  9  1  0
  8 25  1  0
  8 26  1  0
  9 10  1  0
  9 17  1  0
 10 11  2  0
 11 12  1  0
 11 16  1  0
 12 13  2  0
 12 27  1  0
 13 14  1  0
 13 28  1  0
 14 15  2  0
 14 29  1  0
 15 16  1  0
 15 30  1  0
 16 17  1  0
 17 18  2  0
M  END

