
     RDKit          3D

 46 47  0  0  0  0  0  0  0  0999 V2000
    1.1572   -0.5794   -2.1594 C   0  0  0  0  0  0  0  0  0  0  0  0
    2.5358   -1.2276   -2.0383 C   0  0  0  0  0  0  0  0  0  0  0  0
    3.0051   -1.3419   -0.6535 N   0  0  0  0  0  0  0  0  0  0  0  0
    2.2525   -2.2402    0.1845 C   0  0  0  0  0  0  0  0  0  0  0  0
    2.3256   -3.7398   -0.1563 C   0  0  0  0  0  0  0  0  0  0  0  0
    2.9688   -4.2144   -1.0517 O   0  0  0  0  0  0  0  0  0  0  0  0
    1.5872   -4.5373    0.6534 O   0  0  0  0  0  0  0  0  0  0  0  0
    4.4486   -1.4743   -0.5181 C   0  0  1  0  0  0  0  0  0  0  0  0
    5.3133   -0.2852   -1.0082 C   0  0  0  0  0  0  0  0  0  0  0  0
    6.1978   -0.4388    0.2541 C   0  0  2  0  0  0  0  0  0  0  0  0
    7.3920   -1.2203   -0.0235 N   0  0  0  0  0  0  0  0  0  0  0  0
    8.2445   -1.5544    1.0117 C   0  0  0  0  0  0  0  0  0  0  0  0
    7.9773   -1.3091    2.1767 O   0  0  0  0  0  0  0  0  0  0  0  0
    9.3978   -2.2006    0.5893 N   0  0  0  0  0  0  0  0  0  0  0  0
   10.4758   -2.6552    1.3717 C   0  0  0  0  0  0  0  0  0  0  0  0
   10.5660   -2.4832    2.7600 C   0  0  0  0  0  0  0  0  0  0  0  0
   11.6835   -2.9615    3.4570 C   0  0  0  0  0  0  0  0  0  0  0  0
   12.7334   -3.6189    2.8064 C   0  0  0  0  0  0  0  0  0  0  0  0
   13.8521   -4.1166    3.3901 O   0  0  0  0  0  0  0  0  0  0  0  0
   14.0047   -3.9786    4.7832 C   0  0  0  0  0  0  0  0  0  0  0  0
   12.6225   -3.7828    1.4123 C   0  0  0  0  0  0  0  0  0  0  0  0
   13.6083   -4.4080    0.7557 F   0  0  0  0  0  0  0  0  0  0  0  0
   11.5273   -3.3162    0.7053 C   0  0  0  0  0  0  0  0  0  0  0  0
    5.0507   -1.2646    0.8954 C   0  0  0  0  0  0  0  0  0  0  0  0
    0.9059   -0.4208   -3.2200 H   0  0  0  0  0  0  0  0  0  0  0  0
    1.1364    0.3955   -1.6467 H   0  0  0  0  0  0  0  0  0  0  0  0
    0.3559   -1.2048   -1.7335 H   0  0  0  0  0  0  0  0  0  0  0  0
    3.2625   -0.5919   -2.5681 H   0  0  0  0  0  0  0  0  0  0  0  0
    2.5440   -2.2058   -2.5584 H   0  0  0  0  0  0  0  0  0  0  0  0
    1.1850   -1.9542    0.1821 H   0  0  0  0  0  0  0  0  0  0  0  0
    2.5842   -2.1302    1.2333 H   0  0  0  0  0  0  0  0  0  0  0  0
    1.1331   -4.0125    1.3290 H   0  0  0  0  0  0  0  0  0  0  0  0
    4.8227   -2.4199   -0.9543 H   0  0  0  0  0  0  0  0  0  0  0  0
    4.7431    0.6546   -0.9714 H   0  0  0  0  0  0  0  0  0  0  0  0
    5.8085   -0.3674   -1.9897 H   0  0  0  0  0  0  0  0  0  0  0  0
    6.4576    0.4891    0.7896 H   0  0  0  0  0  0  0  0  0  0  0  0
    7.7646   -1.1633   -0.9648 H   0  0  0  0  0  0  0  0  0  0  0  0
    9.4494   -2.4486   -0.3911 H   0  0  0  0  0  0  0  0  0  0  0  0
    9.7591   -1.9816    3.2880 H   0  0  0  0  0  0  0  0  0  0  0  0
   11.7214   -2.8118    4.5364 H   0  0  0  0  0  0  0  0  0  0  0  0
   14.9650   -4.4454    5.0409 H   0  0  0  0  0  0  0  0  0  0  0  0
   13.1977   -4.4902    5.3394 H   0  0  0  0  0  0  0  0  0  0  0  0
   14.0285   -2.9174    5.0926 H   0  0  0  0  0  0  0  0  0  0  0  0
   11.5100   -3.4774   -0.3756 H   0  0  0  0  0  0  0  0  0  0  0  0
    4.4071   -0.6121    1.5051 H   0  0  0  0  0  0  0  0  0  0  0  0
    5.3479   -2.1441    1.4818 H   0  0  0  0  0  0  0  0  0  0  0  0
  1  2  1  0
  1 25  1  0
  1 26  1  0
  1 27  1  0
  2  3  1  0
  2 28  1  0
  2 29  1  0
  3  4  1  0
  3  8  1  0
  4  5  1  0
  4 30  1  0
  4 31  1  0
  5  6  2  0
  5  7  1  0
  7 32  1  0
  8  9  1  0
  8 24  1  0
  8 33  1  6
  9 10  1  0
  9 34  1  0
  9 35  1  0
 10 11  1  0
 10 24  1  0
 10 36  1  1
 11 12  1  0
 11 37  1  0
 12 13  2  0
 12 14  1  0
 14 15  1  0
 14 38  1  0
 15 16  2  0
 15 23  1  0
 16 17  1  0
 16 39  1  0
 17 18  2  0
 17 40  1  0
 18 19  1  0
 18 21  1  0
 19 20  1  0
 20 41  1  0
 20 42  1  0
 20 43  1  0
 21 22  1  0
 21 23  2  0
 23 44  1  0
 24 45  1  0
 24 46  1  0
M  END

