
     RDKit          3D

 38 39  0  0  0  0  0  0  0  0999 V2000
    1.0550    0.2508   -0.4988 C   0  0  0  0  0  0  0  0  0  0  0  0
    2.4652    0.1366    0.1114 C   0  0  1  0  0  0  0  0  0  0  0  0
    2.3697    0.7146    1.5438 C   0  0  0  0  0  0  0  0  0  0  0  0
    2.7855   -1.3078    0.1590 N   0  0  0  0  0  0  0  0  0  0  0  0
    4.1440   -1.8251    0.0058 C   0  0  0  0  0  0  0  0  0  0  0  0
    5.1239   -1.5068    1.1498 C   0  0  0  0  0  0  0  0  0  0  0  0
    6.0350   -0.2851    0.9626 C   0  0  0  0  0  0  0  0  0  0  0  0
    5.3669    1.0862    0.8038 C   0  0  0  0  0  0  0  0  0  0  0  0
    4.6971    1.3066   -0.4910 N   0  0  0  0  0  0  0  0  0  0  0  0
    5.5053    1.9256   -1.5050 C   0  0  0  0  0  0  0  0  0  0  0  0
    5.9467    3.2446   -1.3251 C   0  0  0  0  0  0  0  0  0  0  0  0
    6.7637    3.8583   -2.2719 C   0  0  0  0  0  0  0  0  0  0  0  0
    7.1456    3.1577   -3.4300 C   0  0  0  0  0  0  0  0  0  0  0  0
    7.9895    3.7825   -4.4096 C   0  0  0  0  0  0  0  0  0  0  0  0
    8.6746    4.2874   -5.1999 N   0  0  0  0  0  0  0  0  0  0  0  0
    6.6919    1.8382   -3.6192 C   0  0  0  0  0  0  0  0  0  0  0  0
    5.8814    1.2313   -2.6647 C   0  0  0  0  0  0  0  0  0  0  0  0
    3.4282    0.8856   -0.8771 C   0  0  0  0  0  0  0  0  0  0  0  0
    3.0700    1.0599   -2.0310 O   0  0  0  0  0  0  0  0  0  0  0  0
    0.3635   -0.3734    0.0874 H   0  0  0  0  0  0  0  0  0  0  0  0
    1.0527   -0.0722   -1.5474 H   0  0  0  0  0  0  0  0  0  0  0  0
    0.6967    1.2901   -0.4712 H   0  0  0  0  0  0  0  0  0  0  0  0
    1.4220    0.3780    1.9898 H   0  0  0  0  0  0  0  0  0  0  0  0
    2.3688    1.8171    1.5418 H   0  0  0  0  0  0  0  0  0  0  0  0
    3.1609    0.3581    2.2110 H   0  0  0  0  0  0  0  0  0  0  0  0
    2.1935   -1.7859   -0.5154 H   0  0  0  0  0  0  0  0  0  0  0  0
    4.6205   -1.5420   -0.9594 H   0  0  0  0  0  0  0  0  0  0  0  0
    4.0232   -2.9194   -0.0389 H   0  0  0  0  0  0  0  0  0  0  0  0
    5.7888   -2.3782    1.2721 H   0  0  0  0  0  0  0  0  0  0  0  0
    4.5532   -1.4357    2.0911 H   0  0  0  0  0  0  0  0  0  0  0  0
    6.6936   -0.4518    0.0914 H   0  0  0  0  0  0  0  0  0  0  0  0
    6.7068   -0.2180    1.8364 H   0  0  0  0  0  0  0  0  0  0  0  0
    6.1467    1.8561    0.8822 H   0  0  0  0  0  0  0  0  0  0  0  0
    4.6733    1.2829    1.6257 H   0  0  0  0  0  0  0  0  0  0  0  0
    5.6357    3.7992   -0.4370 H   0  0  0  0  0  0  0  0  0  0  0  0
    7.1010    4.8859   -2.1244 H   0  0  0  0  0  0  0  0  0  0  0  0
    6.9823    1.2921   -4.5187 H   0  0  0  0  0  0  0  0  0  0  0  0
    5.5245    0.2138   -2.8223 H   0  0  0  0  0  0  0  0  0  0  0  0
  2  1  1  6
  1 20  1  0
  1 21  1  0
  1 22  1  0
  2  3  1  0
  2  4  1  0
  2 18  1  0
  3 23  1  0
  3 24  1  0
  3 25  1  0
  4  5  1  0
  4 26  1  0
  5  6  1  0
  5 27  1  0
  5 28  1  0
  6  7  1  0
  6 29  1  0
  6 30  1  0
  7  8  1  0
  7 31  1  0
  7 32  1  0
  8  9  1  0
  8 33  1  0
  8 34  1  0
  9 10  1  0
  9 18  1  0
 10 11  2  0
 10 17  1  0
 11 12  1  0
 11 35  1  0
 12 13  2  0
 12 36  1  0
 13 14  1  0
 13 16  1  0
 14 15  3  0
 16 17  2  0
 16 37  1  0
 17 38  1  0
 18 19  2  0
M  END

