
     RDKit          3D

 42 42  0  0  0  0  0  0  0  0999 V2000
    2.2053    5.0791   -4.1416 C   0  0  0  0  0  0  0  0  0  0  0  0
    2.8666    3.7709   -3.7046 C   0  0  0  0  0  0  0  0  0  0  0  0
    3.9985    3.9690   -2.8137 N   0  0  0  0  0  0  0  0  0  0  0  0
    3.9273    3.7313   -1.4792 C   0  0  0  0  0  0  0  0  0  0  0  0
    2.9274    3.3334   -0.9005 O   0  0  0  0  0  0  0  0  0  0  0  0
    5.2121    4.0398   -0.6680 C   0  0  2  0  0  0  0  0  0  0  0  0
    4.9770    3.6366    0.3257 H   0  0  0  0  0  0  0  0  0  0  0  0
    5.4657    5.5475   -0.5394 C   0  0  0  0  0  0  0  0  0  0  0  0
    6.4020    3.2962   -1.1192 N   0  0  0  0  0  0  0  0  0  0  0  0
    7.1178    3.5271   -2.2452 C   0  0  0  0  0  0  0  0  0  0  0  0
    6.8238    4.3504   -3.1015 O   0  0  0  0  0  0  0  0  0  0  0  0
    8.3646    2.6367   -2.3925 C   0  0  0  0  0  0  0  0  0  0  0  0
    9.0912    2.9842   -3.5533 O   0  0  0  0  0  0  0  0  0  0  0  0
    9.8091    4.1173   -3.4740 C   0  0  0  0  0  0  0  0  0  0  0  0
    9.9459    4.7650   -2.4686 O   0  0  0  0  0  0  0  0  0  0  0  0
   10.3987    4.5325   -4.8088 C   0  0  0  0  0  0  0  0  0  0  0  0
   10.6340    3.4177   -5.6293 O   0  0  0  0  0  0  0  0  0  0  0  0
   11.0830    3.6079   -6.8981 C   0  0  0  0  0  0  0  0  0  0  0  0
   11.3799    4.8601   -7.4563 C   0  0  0  0  0  0  0  0  0  0  0  0
   11.8385    4.9276   -8.7775 C   0  0  0  0  0  0  0  0  0  0  0  0
   12.0087    3.7794   -9.5489 C   0  0  0  0  0  0  0  0  0  0  0  0
   11.7081    2.5391   -8.9707 C   0  0  0  0  0  0  0  0  0  0  0  0
   11.9122    1.0806   -9.9153 Cl  0  0  0  0  0  0  0  0  0  0  0  0
   11.2492    2.4392   -7.6608 C   0  0  0  0  0  0  0  0  0  0  0  0
    1.3671    4.8781   -4.8284 H   0  0  0  0  0  0  0  0  0  0  0  0
    2.9197    5.7358   -4.6648 H   0  0  0  0  0  0  0  0  0  0  0  0
    1.8109    5.6274   -3.2718 H   0  0  0  0  0  0  0  0  0  0  0  0
    3.2073    3.2058   -4.5896 H   0  0  0  0  0  0  0  0  0  0  0  0
    2.1435    3.1419   -3.1660 H   0  0  0  0  0  0  0  0  0  0  0  0
    4.8861    4.3041   -3.1919 H   0  0  0  0  0  0  0  0  0  0  0  0
    6.3011    5.7365    0.1526 H   0  0  0  0  0  0  0  0  0  0  0  0
    4.5649    6.0354   -0.1374 H   0  0  0  0  0  0  0  0  0  0  0  0
    5.7119    6.0004   -1.5087 H   0  0  0  0  0  0  0  0  0  0  0  0
    6.7278    2.5624   -0.5004 H   0  0  0  0  0  0  0  0  0  0  0  0
    8.0590    1.5879   -2.5249 H   0  0  0  0  0  0  0  0  0  0  0  0
    8.9940    2.7250   -1.4925 H   0  0  0  0  0  0  0  0  0  0  0  0
   11.3209    5.1010   -4.5980 H   0  0  0  0  0  0  0  0  0  0  0  0
    9.6688    5.2279   -5.2687 H   0  0  0  0  0  0  0  0  0  0  0  0
   11.2631    5.7784   -6.8814 H   0  0  0  0  0  0  0  0  0  0  0  0
   12.0693    5.9040   -9.2110 H   0  0  0  0  0  0  0  0  0  0  0  0
   12.3666    3.8325  -10.5775 H   0  0  0  0  0  0  0  0  0  0  0  0
   11.0137    1.4735   -7.2134 H   0  0  0  0  0  0  0  0  0  0  0  0
  1  2  1  0
  1 25  1  0
  1 26  1  0
  1 27  1  0
  2  3  1  0
  2 28  1  0
  2 29  1  0
  3  4  1  0
  3 30  1  0
  4  5  2  0
  4  6  1  0
  6  7  1  1
  6  8  1  0
  6  9  1  0
  8 31  1  0
  8 32  1  0
  8 33  1  0
  9 10  1  0
  9 34  1  0
 10 11  2  0
 10 12  1  0
 12 13  1  0
 12 35  1  0
 12 36  1  0
 13 14  1  0
 14 15  2  0
 14 16  1  0
 16 17  1  0
 16 37  1  0
 16 38  1  0
 17 18  1  0
 18 19  2  0
 18 24  1  0
 19 20  1  0
 19 39  1  0
 20 21  2  0
 20 40  1  0
 21 22  1  0
 21 41  1  0
 22 23  1  0
 22 24  2  0
 24 42  1  0
M  END

