
     RDKit          3D

 59 58  0  0  0  0  0  0  0  0999 V2000
    1.9073    2.9623    5.4575 C   0  0  0  0  0  0  0  0  0  0  0  0
    2.5371    2.6949    4.0838 C   0  0  1  0  0  0  0  0  0  0  0  0
    3.7615    1.7767    4.2092 C   0  0  0  0  0  0  0  0  0  0  0  0
    1.5309    2.1641    3.0394 C   0  0  1  0  0  0  0  0  0  0  0  0
    1.0307    0.8749    3.4883 O   0  0  0  0  0  0  0  0  0  0  0  0
    1.4579   -0.2543    2.8871 C   0  0  0  0  0  0  0  0  0  0  0  0
    2.2271   -0.2670    1.9556 O   0  0  0  0  0  0  0  0  0  0  0  0
    0.8424   -1.5137    3.5293 C   0  0  1  0  0  0  0  0  0  0  0  0
    1.5833   -2.7432    2.9780 C   0  0  0  0  0  0  0  0  0  0  0  0
    1.0527   -1.4287    5.0577 C   0  0  0  0  0  0  0  0  0  0  0  0
   -0.6887   -1.5233    3.1692 C   0  0  1  0  0  0  0  0  0  0  0  0
   -0.9507   -1.5574    1.6552 C   0  0  0  0  0  0  0  0  0  0  0  0
   -1.4663   -2.6519    3.8642 C   0  0  0  0  0  0  0  0  0  0  0  0
   -2.9727   -2.4371    3.8572 C   0  0  0  0  0  0  0  0  0  0  0  0
   -3.5130   -1.3634    3.7221 O   0  0  0  0  0  0  0  0  0  0  0  0
   -3.6095   -3.6009    4.0623 O   0  0  0  0  0  0  0  0  0  0  0  0
   -5.0717   -3.6979    4.1845 C   0  0  1  0  0  0  0  0  0  0  0  0
   -5.7367   -3.2486    2.8794 C   0  0  0  0  0  0  0  0  0  0  0  0
   -5.2945   -5.1927    4.4204 C   0  0  0  0  0  0  0  0  0  0  0  0
   -5.5512   -2.8801    5.3882 C   0  0  0  0  0  0  0  0  0  0  0  0
    0.3102    3.0628    2.7553 C   0  0  1  0  0  0  0  0  0  0  0  0
    0.7303    4.4894    2.3726 C   0  0  0  0  0  0  0  0  0  0  0  0
   -0.5772    2.4597    1.6581 C   0  0  0  0  0  0  0  0  0  0  0  0
    2.6672    3.3308    6.1651 H   0  0  0  0  0  0  0  0  0  0  0  0
    1.4769    2.0397    5.8779 H   0  0  0  0  0  0  0  0  0  0  0  0
    1.1062    3.7161    5.4133 H   0  0  0  0  0  0  0  0  0  0  0  0
    2.8998    3.6553    3.6787 H   0  0  0  0  0  0  0  0  0  0  0  0
    3.4969    0.8156    4.6782 H   0  0  0  0  0  0  0  0  0  0  0  0
    4.5320    2.2469    4.8410 H   0  0  0  0  0  0  0  0  0  0  0  0
    4.2088    1.5554    3.2283 H   0  0  0  0  0  0  0  0  0  0  0  0
    2.0715    1.9917    2.0957 H   0  0  0  0  0  0  0  0  0  0  0  0
    2.6444   -2.7168    3.2689 H   0  0  0  0  0  0  0  0  0  0  0  0
    1.5533   -2.7820    1.8815 H   0  0  0  0  0  0  0  0  0  0  0  0
    1.1469   -3.6711    3.3784 H   0  0  0  0  0  0  0  0  0  0  0  0
    2.1090   -1.2240    5.2933 H   0  0  0  0  0  0  0  0  0  0  0  0
    0.7973   -2.3822    5.5439 H   0  0  0  0  0  0  0  0  0  0  0  0
    0.4451   -0.6306    5.5076 H   0  0  0  0  0  0  0  0  0  0  0  0
   -1.1013   -0.5790    3.5580 H   0  0  0  0  0  0  0  0  0  0  0  0
   -0.6739   -2.5294    1.2160 H   0  0  0  0  0  0  0  0  0  0  0  0
   -0.3853   -0.7821    1.1176 H   0  0  0  0  0  0  0  0  0  0  0  0
   -2.0187   -1.3874    1.4535 H   0  0  0  0  0  0  0  0  0  0  0  0
   -1.1937   -2.7316    4.9297 H   0  0  0  0  0  0  0  0  0  0  0  0
   -1.2557   -3.6391    3.4251 H   0  0  0  0  0  0  0  0  0  0  0  0
   -5.3315   -3.8167    2.0274 H   0  0  0  0  0  0  0  0  0  0  0  0
   -5.5773   -2.1780    2.6992 H   0  0  0  0  0  0  0  0  0  0  0  0
   -6.8200   -3.4403    2.9318 H   0  0  0  0  0  0  0  0  0  0  0  0
   -4.9080   -5.7802    3.5738 H   0  0  0  0  0  0  0  0  0  0  0  0
   -6.3684   -5.4061    4.5325 H   0  0  0  0  0  0  0  0  0  0  0  0
   -4.7753   -5.5225    5.3331 H   0  0  0  0  0  0  0  0  0  0  0  0
   -5.3820   -1.8069    5.2334 H   0  0  0  0  0  0  0  0  0  0  0  0
   -5.0230   -3.1956    6.3018 H   0  0  0  0  0  0  0  0  0  0  0  0
   -6.6284   -3.0480    5.5435 H   0  0  0  0  0  0  0  0  0  0  0  0
   -0.2889    3.1131    3.6816 H   0  0  0  0  0  0  0  0  0  0  0  0
    1.4102    4.4843    1.5031 H   0  0  0  0  0  0  0  0  0  0  0  0
    1.2363    5.0204    3.1925 H   0  0  0  0  0  0  0  0  0  0  0  0
   -0.1537    5.0843    2.0938 H   0  0  0  0  0  0  0  0  0  0  0  0
   -0.0291    2.3803    0.7037 H   0  0  0  0  0  0  0  0  0  0  0  0
   -1.4621    3.0922    1.4841 H   0  0  0  0  0  0  0  0  0  0  0  0
   -0.9354    1.4572    1.9286 H   0  0  0  0  0  0  0  0  0  0  0  0
  1  2  1  0
  1 24  1  0
  1 25  1  0
  1 26  1  0
  2  3  1  0
  2  4  1  0
  2 27  1  6
  3 28  1  0
  3 29  1  0
  3 30  1  0
  4  5  1  0
  4 21  1  0
  4 31  1  6
  5  6  1  0
  6  7  2  0
  8  6  1  6
  8  9  1  0
  8 10  1  0
  8 11  1  0
  9 32  1  0
  9 33  1  0
  9 34  1  0
 10 35  1  0
 10 36  1  0
 10 37  1  0
 11 12  1  0
 11 13  1  0
 11 38  1  1
 12 39  1  0
 12 40  1  0
 12 41  1  0
 13 14  1  0
 13 42  1  0
 13 43  1  0
 14 15  2  0
 14 16  1  0
 17 16  1  6
 17 18  1  0
 17 19  1  0
 17 20  1  0
 18 44  1  0
 18 45  1  0
 18 46  1  0
 19 47  1  0
 19 48  1  0
 19 49  1  0
 20 50  1  0
 20 51  1  0
 20 52  1  0
 21 22  1  0
 21 23  1  0
 21 53  1  1
 22 54  1  0
 22 55  1  0
 22 56  1  0
 23 57  1  0
 23 58  1  0
 23 59  1  0
M  END

