
     RDKit          3D

 47 48  0  0  0  0  0  0  0  0999 V2000
    3.6804    0.3277   -1.3373 N   0  0  0  0  0  0  0  0  0  0  0  0
    4.1874   -0.3973   -0.5833 C   0  0  0  0  0  0  0  0  0  0  0  0
    4.8058   -1.2989    0.3387 C   0  0  0  0  0  0  0  0  0  0  0  0
    4.6557   -2.6564    0.3258 C   0  0  0  0  0  0  0  0  0  0  0  0
    3.8998   -3.5497   -0.5327 C   0  0  0  0  0  0  0  0  0  0  0  0
    3.9806   -4.9298   -0.2426 C   0  0  0  0  0  0  0  0  0  0  0  0
    3.2909   -5.8666   -1.0101 C   0  0  0  0  0  0  0  0  0  0  0  0
    2.5071   -5.4412   -2.0825 C   0  0  0  0  0  0  0  0  0  0  0  0
    1.7938   -6.2658   -2.8963 O   0  0  0  0  0  0  0  0  0  0  0  0
    2.4099   -4.0633   -2.3934 C   0  0  0  0  0  0  0  0  0  0  0  0
    1.6484   -3.6598   -3.4339 O   0  0  0  0  0  0  0  0  0  0  0  0
    3.0996   -3.1341   -1.6249 C   0  0  0  0  0  0  0  0  0  0  0  0
    5.6885   -0.7221    1.4053 C   0  0  0  0  0  0  0  0  0  0  0  0
    6.2635   -1.3818    2.2413 O   0  0  0  0  0  0  0  0  0  0  0  0
    5.7550    0.6137    1.3180 O   0  0  0  0  0  0  0  0  0  0  0  0
    6.5687    1.3106    2.2774 C   0  0  0  0  0  0  0  0  0  0  0  0
    8.0228    1.3972    1.8290 C   0  0  0  0  0  0  0  0  0  0  0  0
    8.8817    2.2222    2.7924 C   0  0  0  0  0  0  0  0  0  0  0  0
   10.3479    2.3234    2.3620 C   0  0  0  0  0  0  0  0  0  0  0  0
   11.2135    3.1496    3.3302 C   0  0  0  0  0  0  0  0  0  0  0  0
   12.6625    3.2498    2.9055 C   0  0  0  0  0  0  0  0  0  0  0  0
   13.0976    4.2853    2.0624 C   0  0  0  0  0  0  0  0  0  0  0  0
   14.4270    4.3583    1.6370 C   0  0  0  0  0  0  0  0  0  0  0  0
   15.3500    3.3924    2.0490 C   0  0  0  0  0  0  0  0  0  0  0  0
   14.9323    2.3562    2.8896 C   0  0  0  0  0  0  0  0  0  0  0  0
   13.6017    2.2881    3.3119 C   0  0  0  0  0  0  0  0  0  0  0  0
    5.2207   -3.1492    1.1238 H   0  0  0  0  0  0  0  0  0  0  0  0
    4.5931   -5.2674    0.5961 H   0  0  0  0  0  0  0  0  0  0  0  0
    3.3595   -6.9336   -0.7780 H   0  0  0  0  0  0  0  0  0  0  0  0
    1.8988   -7.1884   -2.6290 H   0  0  0  0  0  0  0  0  0  0  0  0
    1.2506   -4.4437   -3.8427 H   0  0  0  0  0  0  0  0  0  0  0  0
    2.9998   -2.0838   -1.8952 H   0  0  0  0  0  0  0  0  0  0  0  0
    6.4878    0.8041    3.2511 H   0  0  0  0  0  0  0  0  0  0  0  0
    6.1174    2.3108    2.3524 H   0  0  0  0  0  0  0  0  0  0  0  0
    8.0566    1.8391    0.8182 H   0  0  0  0  0  0  0  0  0  0  0  0
    8.4306    0.3758    1.7477 H   0  0  0  0  0  0  0  0  0  0  0  0
    8.8288    1.7792    3.8041 H   0  0  0  0  0  0  0  0  0  0  0  0
    8.4584    3.2397    2.8864 H   0  0  0  0  0  0  0  0  0  0  0  0
   10.4079    2.7689    1.3531 H   0  0  0  0  0  0  0  0  0  0  0  0
   10.7764    1.3097    2.2685 H   0  0  0  0  0  0  0  0  0  0  0  0
   11.1552    2.6997    4.3364 H   0  0  0  0  0  0  0  0  0  0  0  0
   10.7851    4.1630    3.4187 H   0  0  0  0  0  0  0  0  0  0  0  0
   12.3841    5.0492    1.7386 H   0  0  0  0  0  0  0  0  0  0  0  0
   14.7443    5.1757    0.9839 H   0  0  0  0  0  0  0  0  0  0  0  0
   16.3908    3.4493    1.7200 H   0  0  0  0  0  0  0  0  0  0  0  0
   15.6472    1.5987    3.2219 H   0  0  0  0  0  0  0  0  0  0  0  0
   13.2859    1.4760    3.9741 H   0  0  0  0  0  0  0  0  0  0  0  0
  1  2  3  0
  2  3  1  0
  3  4  2  0
  3 13  1  0
  4  5  1  0
  4 27  1  0
  5  6  2  0
  5 12  1  0
  6  7  1  0
  6 28  1  0
  7  8  2  0
  7 29  1  0
  8  9  1  0
  8 10  1  0
  9 30  1  0
 10 11  1  0
 10 12  2  0
 11 31  1  0
 12 32  1  0
 13 14  2  0
 13 15  1  0
 15 16  1  0
 16 17  1  0
 16 33  1  0
 16 34  1  0
 17 18  1  0
 17 35  1  0
 17 36  1  0
 18 19  1  0
 18 37  1  0
 18 38  1  0
 19 20  1  0
 19 39  1  0
 19 40  1  0
 20 21  1  0
 20 41  1  0
 20 42  1  0
 21 22  2  0
 21 26  1  0
 22 23  1  0
 22 43  1  0
 23 24  2  0
 23 44  1  0
 24 25  1  0
 24 45  1  0
 25 26  2  0
 25 46  1  0
 26 47  1  0
M  END

