
     RDKit          3D

 40 41  0  0  0  0  0  0  0  0999 V2000
    0.8780    0.4010    0.3795 C   0  0  0  0  0  0  0  0  0  0  0  0
    2.3474    0.2506    0.0582 C   0  0  0  0  0  0  0  0  0  0  0  0
    3.1567    1.3957    0.0662 C   0  0  0  0  0  0  0  0  0  0  0  0
    4.5324    1.3479   -0.1750 C   0  0  0  0  0  0  0  0  0  0  0  0
    5.2981    2.4737   -0.1788 O   0  0  0  0  0  0  0  0  0  0  0  0
    5.1818    0.1132   -0.4000 C   0  0  0  0  0  0  0  0  0  0  0  0
    6.6908    0.0787   -0.6061 C   0  0  1  0  0  0  0  0  0  0  0  0
    7.4328    0.2469    0.7348 C   0  0  0  0  0  0  0  0  0  0  0  0
    7.1841   -1.1659   -1.3528 C   0  0  0  0  0  0  0  0  0  0  0  0
    4.3817   -1.0255   -0.3739 C   0  0  0  0  0  0  0  0  0  0  0  0
    2.9811   -0.9936   -0.1915 C   0  0  0  0  0  0  0  0  0  0  0  0
    2.3482   -2.2419   -0.2110 N   0  0  0  0  0  0  0  0  0  0  0  0
    1.2031   -2.4551   -0.7367 C   0  0  0  0  0  0  0  0  0  0  0  0
    0.5706   -3.7855   -0.7105 C   0  0  0  0  0  0  0  0  0  0  0  0
    1.1932   -4.8767   -0.0709 C   0  0  0  0  0  0  0  0  0  0  0  0
    0.5869   -6.1270   -0.0555 C   0  0  0  0  0  0  0  0  0  0  0  0
   -0.6537   -6.2840   -0.6834 C   0  0  0  0  0  0  0  0  0  0  0  0
   -1.3031   -7.6103   -0.6677 N   0  0  0  0  0  0  0  0  0  0  0  0
   -0.7182   -8.5186   -0.0991 O   0  0  0  0  0  0  0  0  0  0  0  0
   -2.3848   -7.7166   -1.2242 O   0  0  0  0  0  0  0  0  0  0  0  0
   -1.2968   -5.2246   -1.3243 C   0  0  0  0  0  0  0  0  0  0  0  0
   -0.6768   -3.9766   -1.3332 C   0  0  0  0  0  0  0  0  0  0  0  0
    0.7105    1.2988    0.9935 H   0  0  0  0  0  0  0  0  0  0  0  0
    0.4870   -0.4645    0.9354 H   0  0  0  0  0  0  0  0  0  0  0  0
    0.2585    0.5122   -0.5267 H   0  0  0  0  0  0  0  0  0  0  0  0
    2.6943    2.3666    0.2765 H   0  0  0  0  0  0  0  0  0  0  0  0
    4.7390    3.2461   -0.0233 H   0  0  0  0  0  0  0  0  0  0  0  0
    6.9380    0.9600   -1.2224 H   0  0  0  0  0  0  0  0  0  0  0  0
    7.2225   -0.6015    1.4071 H   0  0  0  0  0  0  0  0  0  0  0  0
    7.1281    1.1725    1.2446 H   0  0  0  0  0  0  0  0  0  0  0  0
    8.5226    0.2907    0.5741 H   0  0  0  0  0  0  0  0  0  0  0  0
    7.0543   -2.0831   -0.7550 H   0  0  0  0  0  0  0  0  0  0  0  0
    8.2596   -1.0741   -1.5725 H   0  0  0  0  0  0  0  0  0  0  0  0
    6.6544   -1.3074   -2.3080 H   0  0  0  0  0  0  0  0  0  0  0  0
    4.8261   -2.0108   -0.5183 H   0  0  0  0  0  0  0  0  0  0  0  0
    0.6340   -1.6726   -1.2697 H   0  0  0  0  0  0  0  0  0  0  0  0
    2.1598   -4.7127    0.4083 H   0  0  0  0  0  0  0  0  0  0  0  0
    1.0484   -6.9859    0.4311 H   0  0  0  0  0  0  0  0  0  0  0  0
   -2.2618   -5.3950   -1.8004 H   0  0  0  0  0  0  0  0  0  0  0  0
   -1.1657   -3.1351   -1.8316 H   0  0  0  0  0  0  0  0  0  0  0  0
  1  2  1  0
  1 23  1  0
  1 24  1  0
  1 25  1  0
  2  3  2  0
  2 11  1  0
  3  4  1  0
  3 26  1  0
  4  5  1  0
  4  6  2  0
  5 27  1  0
  6  7  1  0
  6 10  1  0
  7  8  1  0
  7  9  1  0
  7 28  1  6
  8 29  1  0
  8 30  1  0
  8 31  1  0
  9 32  1  0
  9 33  1  0
  9 34  1  0
 10 11  2  0
 10 35  1  0
 11 12  1  0
 12 13  2  0
 13 14  1  0
 13 36  1  0
 14 15  2  0
 14 22  1  0
 15 16  1  0
 15 37  1  0
 16 17  2  0
 16 38  1  0
 17 18  1  0
 17 21  1  0
 18 19  2  0
 18 20  1  0
 21 22  2  0
 21 39  1  0
 22 40  1  0
M  CHG  2  18   1  20  -1
M  END

