
     RDKit          3D

 29 30  0  0  0  0  0  0  0  0999 V2000
    1.8459    0.9704    0.0137 C   0  0  0  0  0  0  0  0  0  0  0  0
    1.5781   -0.4063    0.1349 O   0  0  0  0  0  0  0  0  0  0  0  0
    2.4854   -1.3074   -0.3524 C   0  0  0  0  0  0  0  0  0  0  0  0
    3.6814   -0.9797   -0.9849 C   0  0  0  0  0  0  0  0  0  0  0  0
    4.5402   -1.9976   -1.4342 C   0  0  0  0  0  0  0  0  0  0  0  0
    4.1824   -3.3307   -1.2551 C   0  0  0  0  0  0  0  0  0  0  0  0
    2.9658   -3.6844   -0.6419 C   0  0  0  0  0  0  0  0  0  0  0  0
    2.1103   -2.6684   -0.1637 C   0  0  0  0  0  0  0  0  0  0  0  0
    0.9460   -2.9506    0.5088 N   0  0  0  0  0  0  0  0  0  0  0  0
    0.4418   -4.3014    0.6501 C   0  0  0  0  0  0  0  0  0  0  0  0
    1.6032   -5.2913    0.7386 C   0  0  0  0  0  0  0  0  0  0  0  0
    2.5408   -5.1308   -0.4696 C   0  0  1  0  0  0  0  0  0  0  0  0
    1.8890   -5.7873   -1.7178 C   0  0  0  0  0  0  0  0  0  0  0  0
    2.1197   -5.1755   -2.9084 N   0  0  0  0  0  0  0  0  0  0  0  0
    1.2422   -6.8164   -1.6202 O   0  0  0  0  0  0  0  0  0  0  0  0
    0.9988    1.4998    0.4709 H   0  0  0  0  0  0  0  0  0  0  0  0
    1.9330    1.2808   -1.0437 H   0  0  0  0  0  0  0  0  0  0  0  0
    2.7736    1.2558    0.5424 H   0  0  0  0  0  0  0  0  0  0  0  0
    3.9621    0.0645   -1.1263 H   0  0  0  0  0  0  0  0  0  0  0  0
    5.4862   -1.7360   -1.9131 H   0  0  0  0  0  0  0  0  0  0  0  0
    4.8540   -4.1261   -1.5918 H   0  0  0  0  0  0  0  0  0  0  0  0
    0.3387   -2.1652    0.7001 H   0  0  0  0  0  0  0  0  0  0  0  0
   -0.2157   -4.5891   -0.1962 H   0  0  0  0  0  0  0  0  0  0  0  0
   -0.1753   -4.3569    1.5618 H   0  0  0  0  0  0  0  0  0  0  0  0
    1.2161   -6.3187    0.7596 H   0  0  0  0  0  0  0  0  0  0  0  0
    2.1710   -5.1107    1.6657 H   0  0  0  0  0  0  0  0  0  0  0  0
    3.4428   -5.7437   -0.2934 H   0  0  0  0  0  0  0  0  0  0  0  0
    2.5952   -4.2835   -2.9624 H   0  0  0  0  0  0  0  0  0  0  0  0
    1.7227   -5.5898   -3.7432 H   0  0  0  0  0  0  0  0  0  0  0  0
  1  2  1  0
  1 16  1  0
  1 17  1  0
  1 18  1  0
  2  3  1  0
  3  4  2  0
  3  8  1  0
  4  5  1  0
  4 19  1  0
  5  6  2  0
  5 20  1  0
  6  7  1  0
  6 21  1  0
  7  8  2  0
  7 12  1  0
  8  9  1  0
  9 10  1  0
  9 22  1  0
 10 11  1  0
 10 23  1  0
 10 24  1  0
 11 12  1  0
 11 25  1  0
 11 26  1  0
 12 13  1  0
 12 27  1  1
 13 14  1  0
 13 15  2  0
 14 28  1  0
 14 29  1  0
M  END

