
     RDKit          3D

 69 72  0  0  0  0  0  0  0  0999 V2000
    6.1102   -6.0662   -5.4185 C   0  0  0  0  0  0  0  0  0  0  0  0
    6.9629   -6.7403   -4.3378 C   0  0  1  0  0  0  0  0  0  0  0  0
    8.4402   -6.3447   -4.4489 C   0  0  0  0  0  0  0  0  0  0  0  0
    6.4484   -6.4289   -2.9336 C   0  0  0  0  0  0  0  0  0  0  0  0
    5.1294   -6.9438   -2.7969 O   0  0  0  0  0  0  0  0  0  0  0  0
    4.4547   -6.7840   -1.6393 C   0  0  0  0  0  0  0  0  0  0  0  0
    4.9452   -6.1085   -0.5330 C   0  0  0  0  0  0  0  0  0  0  0  0
    4.1542   -5.9892    0.6318 C   0  0  0  0  0  0  0  0  0  0  0  0
    2.8825   -6.5372    0.7275 C   0  0  0  0  0  0  0  0  0  0  0  0
    2.0438   -6.3217    1.9321 C   0  0  0  0  0  0  0  0  0  0  0  0
    2.3489   -6.4782    3.1707 N   0  0  0  0  0  0  0  0  0  0  0  0
    3.5695   -6.9678    3.4955 N   0  0  0  0  0  0  0  0  0  0  0  0
    3.9540   -7.1182    4.8100 C   0  0  0  0  0  0  0  0  0  0  0  0
    3.3115   -6.7550    5.7710 O   0  0  0  0  0  0  0  0  0  0  0  0
    5.3111   -7.8278    4.9810 C   0  0  2  0  0  0  0  0  0  0  0  0
    5.8964   -7.7953    4.0504 H   0  0  0  0  0  0  0  0  0  0  0  0
    5.0428   -9.2959    5.3743 C   0  0  0  0  0  0  0  0  0  0  0  0
    6.2682  -10.1528    5.4660 C   0  0  0  0  0  0  0  0  0  0  0  0
    7.5748  -10.0047    5.0411 C   0  0  0  0  0  0  0  0  0  0  0  0
    8.3146  -11.1255    5.3387 N   0  0  0  0  0  0  0  0  0  0  0  0
    7.4862  -11.9487    5.9333 C   0  0  0  0  0  0  0  0  0  0  0  0
    6.2322  -11.4111    6.0386 N   0  0  0  0  0  0  0  0  0  0  0  0
    5.4228  -11.8497    6.4612 H   0  0  0  0  0  0  0  0  0  0  0  0
    6.0759   -7.1087    5.9764 N   0  0  0  0  0  0  0  0  0  0  0  0
    7.2724   -6.5224    5.6954 C   0  0  0  0  0  0  0  0  0  0  0  0
    7.8840   -6.6469    4.6495 O   0  0  0  0  0  0  0  0  0  0  0  0
    7.6966   -5.7961    6.7521 O   0  0  0  0  0  0  0  0  0  0  0  0
    8.9630   -5.1194    6.6209 C   0  0  0  0  0  0  0  0  0  0  0  0
    8.8085   -3.7103    6.0987 C   0  0  0  0  0  0  0  0  0  0  0  0
    8.6953   -2.6312    6.9879 C   0  0  0  0  0  0  0  0  0  0  0  0
    8.5374   -1.3267    6.5117 C   0  0  0  0  0  0  0  0  0  0  0  0
    8.4902   -1.0869    5.1353 C   0  0  0  0  0  0  0  0  0  0  0  0
    8.6016   -2.1560    4.2401 C   0  0  0  0  0  0  0  0  0  0  0  0
    8.7598   -3.4594    4.7173 C   0  0  0  0  0  0  0  0  0  0  0  0
    2.3532   -7.2484   -0.4087 C   0  0  0  0  0  0  0  0  0  0  0  0
    1.0670   -7.8574   -0.3941 C   0  0  0  0  0  0  0  0  0  0  0  0
    0.5818   -8.5344   -1.4956 C   0  0  0  0  0  0  0  0  0  0  0  0
    1.3641   -8.6466   -2.6677 C   0  0  0  0  0  0  0  0  0  0  0  0
    2.6217   -8.0792   -2.7151 C   0  0  0  0  0  0  0  0  0  0  0  0
    3.1423   -7.3722   -1.5992 C   0  0  0  0  0  0  0  0  0  0  0  0
    6.4548   -6.3506   -6.4254 H   0  0  0  0  0  0  0  0  0  0  0  0
    6.1745   -4.9668   -5.3417 H   0  0  0  0  0  0  0  0  0  0  0  0
    5.0511   -6.3488   -5.3276 H   0  0  0  0  0  0  0  0  0  0  0  0
    6.8855   -7.8353   -4.4659 H   0  0  0  0  0  0  0  0  0  0  0  0
    8.5755   -5.2594   -4.3014 H   0  0  0  0  0  0  0  0  0  0  0  0
    8.8367   -6.5928   -5.4457 H   0  0  0  0  0  0  0  0  0  0  0  0
    9.0619   -6.8658   -3.7029 H   0  0  0  0  0  0  0  0  0  0  0  0
    6.4437   -5.3354   -2.7608 H   0  0  0  0  0  0  0  0  0  0  0  0
    7.1037   -6.8875   -2.1704 H   0  0  0  0  0  0  0  0  0  0  0  0
    5.9328   -5.6495   -0.5460 H   0  0  0  0  0  0  0  0  0  0  0  0
    4.5575   -5.4106    1.4669 H   0  0  0  0  0  0  0  0  0  0  0  0
    1.0157   -5.9725    1.7713 H   0  0  0  0  0  0  0  0  0  0  0  0
    4.2008   -7.2871    2.7587 H   0  0  0  0  0  0  0  0  0  0  0  0
    4.3381   -9.7193    4.6331 H   0  0  0  0  0  0  0  0  0  0  0  0
    4.4989   -9.2907    6.3360 H   0  0  0  0  0  0  0  0  0  0  0  0
    8.0176   -9.1360    4.5555 H   0  0  0  0  0  0  0  0  0  0  0  0
    7.7260  -12.9428    6.3127 H   0  0  0  0  0  0  0  0  0  0  0  0
    5.5824   -6.8176    6.8152 H   0  0  0  0  0  0  0  0  0  0  0  0
    9.6126   -5.7138    5.9641 H   0  0  0  0  0  0  0  0  0  0  0  0
    9.3805   -5.1114    7.6371 H   0  0  0  0  0  0  0  0  0  0  0  0
    8.7337   -2.8149    8.0657 H   0  0  0  0  0  0  0  0  0  0  0  0
    8.4527   -0.4955    7.2166 H   0  0  0  0  0  0  0  0  0  0  0  0
    8.3687   -0.0672    4.7604 H   0  0  0  0  0  0  0  0  0  0  0  0
    8.5677   -1.9722    3.1629 H   0  0  0  0  0  0  0  0  0  0  0  0
    8.8359   -4.3000    4.0238 H   0  0  0  0  0  0  0  0  0  0  0  0
    0.4591   -7.7982    0.5103 H   0  0  0  0  0  0  0  0  0  0  0  0
   -0.4100   -8.9920   -1.4580 H   0  0  0  0  0  0  0  0  0  0  0  0
    0.9746   -9.1881   -3.5331 H   0  0  0  0  0  0  0  0  0  0  0  0
    3.2396   -8.1686   -3.6087 H   0  0  0  0  0  0  0  0  0  0  0  0
  1  2  1  0
  1 41  1  0
  1 42  1  0
  1 43  1  0
  2  3  1  0
  2  4  1  0
  2 44  1  6
  3 45  1  0
  3 46  1  0
  3 47  1  0
  4  5  1  0
  4 48  1  0
  4 49  1  0
  5  6  1  0
  6  7  2  0
  6 40  1  0
  7  8  1  0
  7 50  1  0
  8  9  2  0
  8 51  1  0
  9 10  1  0
  9 35  1  0
 10 11  2  0
 10 52  1  0
 11 12  1  0
 12 13  1  0
 12 53  1  0
 13 14  2  0
 13 15  1  0
 15 16  1  6
 15 17  1  0
 15 24  1  0
 17 18  1  0
 17 54  1  0
 17 55  1  0
 18 19  2  0
 18 22  1  0
 19 20  1  0
 19 56  1  0
 20 21  2  0
 21 22  1  0
 21 57  1  0
 22 23  1  0
 24 25  1  0
 24 58  1  0
 25 26  2  0
 25 27  1  0
 27 28  1  0
 28 29  1  0
 28 59  1  0
 28 60  1  0
 29 30  2  0
 29 34  1  0
 30 31  1  0
 30 61  1  0
 31 32  2  0
 31 62  1  0
 32 33  1  0
 32 63  1  0
 33 34  2  0
 33 64  1  0
 34 65  1  0
 35 36  1  0
 35 40  2  0
 36 37  2  0
 36 66  1  0
 37 38  1  0
 37 67  1  0
 38 39  2  0
 38 68  1  0
 39 40  1  0
 39 69  1  0
M  END

