
     RDKit          3D

 49 50  0  0  0  0  0  0  0  0999 V2000
   -0.7120   -5.6473   -4.2954 C   0  0  0  0  0  0  0  0  0  0  0  0
    0.4230   -4.7418   -4.6572 C   0  0  0  0  0  0  0  0  0  0  0  0
    0.8758   -4.7207   -5.8879 N   0  0  0  0  0  0  0  0  0  0  0  0
    1.9085   -3.8005   -5.9008 O   0  0  0  0  0  0  0  0  0  0  0  0
    2.0700   -3.2772   -4.6721 C   0  0  0  0  0  0  0  0  0  0  0  0
    3.1454   -2.2583   -4.5206 C   0  0  0  0  0  0  0  0  0  0  0  0
    1.1518   -3.8293   -3.8146 C   0  0  0  0  0  0  0  0  0  0  0  0
    0.9315   -3.5276   -2.3616 C   0  0  0  0  0  0  0  0  0  0  0  0
    1.0989   -4.6807   -1.4665 N   0  0  0  0  0  0  0  0  0  0  0  0
    2.4350   -5.2581   -1.5261 C   0  0  0  0  0  0  0  0  0  0  0  0
    0.6965   -4.3495   -0.1056 C   0  0  0  0  0  0  0  0  0  0  0  0
   -0.8175   -4.3218    0.1375 C   0  0  0  0  0  0  0  0  0  0  0  0
   -1.3020   -3.7037    1.0712 O   0  0  0  0  0  0  0  0  0  0  0  0
   -1.5446   -5.0760   -0.7313 N   0  0  0  0  0  0  0  0  0  0  0  0
   -2.9753   -5.2516   -0.5846 C   0  0  0  0  0  0  0  0  0  0  0  0
   -3.3574   -6.3562    0.4245 C   0  0  0  0  0  0  0  0  0  0  0  0
   -4.8516   -6.4732    0.6168 C   0  0  0  0  0  0  0  0  0  0  0  0
   -5.6065   -7.4201   -0.0933 C   0  0  0  0  0  0  0  0  0  0  0  0
   -6.9932   -7.5012    0.0548 C   0  0  0  0  0  0  0  0  0  0  0  0
   -7.6333   -6.6203    0.9249 C   0  0  0  0  0  0  0  0  0  0  0  0
   -9.0280   -6.6558    1.0376 O   0  0  0  0  0  0  0  0  0  0  0  0
   -9.5766   -7.4604    1.9729 C   0  0  1  0  0  0  0  0  0  0  0  0
   -9.2653   -8.7525    1.7812 F   0  0  0  0  0  0  0  0  0  0  0  0
   -9.1806   -7.1429    3.2154 F   0  0  0  0  0  0  0  0  0  0  0  0
  -10.8946   -7.3292    1.9025 F   0  0  0  0  0  0  0  0  0  0  0  0
   -6.9134   -5.6650    1.6422 C   0  0  0  0  0  0  0  0  0  0  0  0
   -5.5285   -5.5977    1.4833 C   0  0  0  0  0  0  0  0  0  0  0  0
   -1.1109   -6.1244   -5.2009 H   0  0  0  0  0  0  0  0  0  0  0  0
   -1.5233   -5.0878   -3.8035 H   0  0  0  0  0  0  0  0  0  0  0  0
   -0.3771   -6.4360   -3.6025 H   0  0  0  0  0  0  0  0  0  0  0  0
    4.1160   -2.6661   -4.8456 H   0  0  0  0  0  0  0  0  0  0  0  0
    3.2334   -1.9343   -3.4752 H   0  0  0  0  0  0  0  0  0  0  0  0
    2.9369   -1.3726   -5.1427 H   0  0  0  0  0  0  0  0  0  0  0  0
   -0.0957   -3.1508   -2.2201 H   0  0  0  0  0  0  0  0  0  0  0  0
    1.6043   -2.6949   -2.0585 H   0  0  0  0  0  0  0  0  0  0  0  0
    2.6796   -5.5438   -2.5591 H   0  0  0  0  0  0  0  0  0  0  0  0
    2.4785   -6.1649   -0.9037 H   0  0  0  0  0  0  0  0  0  0  0  0
    3.2260   -4.5610   -1.1696 H   0  0  0  0  0  0  0  0  0  0  0  0
    1.0942   -3.3768    0.2508 H   0  0  0  0  0  0  0  0  0  0  0  0
    1.0978   -5.1151    0.5793 H   0  0  0  0  0  0  0  0  0  0  0  0
   -1.0168   -5.5797   -1.4378 H   0  0  0  0  0  0  0  0  0  0  0  0
   -3.4104   -5.4738   -1.5721 H   0  0  0  0  0  0  0  0  0  0  0  0
   -3.3986   -4.2949   -0.2427 H   0  0  0  0  0  0  0  0  0  0  0  0
   -2.8736   -6.1136    1.3837 H   0  0  0  0  0  0  0  0  0  0  0  0
   -2.9423   -7.3185    0.0818 H   0  0  0  0  0  0  0  0  0  0  0  0
   -5.1020   -8.1136   -0.7721 H   0  0  0  0  0  0  0  0  0  0  0  0
   -7.5808   -8.2376   -0.4957 H   0  0  0  0  0  0  0  0  0  0  0  0
   -7.4410   -4.9869    2.3151 H   0  0  0  0  0  0  0  0  0  0  0  0
   -4.9598   -4.8525    2.0467 H   0  0  0  0  0  0  0  0  0  0  0  0
  1  2  1  0
  1 28  1  0
  1 29  1  0
  1 30  1  0
  2  3  2  0
  2  7  1  0
  3  4  1  0
  4  5  1  0
  5  6  1  0
  5  7  2  0
  6 31  1  0
  6 32  1  0
  6 33  1  0
  7  8  1  0
  8  9  1  0
  8 34  1  0
  8 35  1  0
  9 10  1  0
  9 11  1  0
 10 36  1  0
 10 37  1  0
 10 38  1  0
 11 12  1  0
 11 39  1  0
 11 40  1  0
 12 13  2  0
 12 14  1  0
 14 15  1  0
 14 41  1  0
 15 16  1  0
 15 42  1  0
 15 43  1  0
 16 17  1  0
 16 44  1  0
 16 45  1  0
 17 18  2  0
 17 27  1  0
 18 19  1  0
 18 46  1  0
 19 20  2  0
 19 47  1  0
 20 21  1  0
 20 26  1  0
 21 22  1  0
 22 23  1  6
 22 24  1  0
 22 25  1  0
 26 27  2  0
 26 48  1  0
 27 49  1  0
M  END

