
     RDKit          3D

 16 16  0  0  0  0  0  0  0  0999 V2000
    1.2102   -0.0005   -0.2663 O   0  0  0  0  0  0  0  0  0  0  0  0
    2.5805   -0.0408   -0.0893 C   0  0  1  0  0  0  0  0  0  0  0  0
    3.0070    0.5601    1.1147 O   0  0  0  0  0  0  0  0  0  0  0  0
    3.0825   -1.4832   -0.0282 C   0  0  0  0  0  0  0  0  0  0  0  0
    4.4478   -1.7869   -0.0467 C   0  0  0  0  0  0  0  0  0  0  0  0
    4.8165   -3.1279    0.0517 C   0  0  0  0  0  0  0  0  0  0  0  0
    6.4975   -3.5783    0.0259 Cl  0  0  0  0  0  0  0  0  0  0  0  0
    3.8292   -4.1118    0.1729 C   0  0  0  0  0  0  0  0  0  0  0  0
    2.4984   -3.6939    0.1907 C   0  0  0  0  0  0  0  0  0  0  0  0
    2.1342   -2.4126    0.0913 N   0  0  0  0  0  0  0  0  0  0  0  0
    0.8798   -0.8727    0.0281 H   0  0  0  0  0  0  0  0  0  0  0  0
    3.0440    0.4806   -0.9525 H   0  0  0  0  0  0  0  0  0  0  0  0
    2.6465    1.4582    1.1202 H   0  0  0  0  0  0  0  0  0  0  0  0
    5.1982   -0.9994   -0.1269 H   0  0  0  0  0  0  0  0  0  0  0  0
    4.0931   -5.1672    0.2506 H   0  0  0  0  0  0  0  0  0  0  0  0
    1.6936   -4.4307    0.2885 H   0  0  0  0  0  0  0  0  0  0  0  0
  1  2  1  0
  1 11  1  0
  2  3  1  0
  2  4  1  0
  2 12  1  6
  3 13  1  0
  4  5  2  0
  4 10  1  0
  5  6  1  0
  5 14  1  0
  6  7  1  0
  6  8  2  0
  8  9  1  0
  8 15  1  0
  9 10  2  0
  9 16  1  0
M  END

