
     RDKit          3D

 43 45  0  0  0  0  0  0  0  0999 V2000
   -0.7098    0.6484   -1.0777 C   0  0  0  0  0  0  0  0  0  0  0  0
    0.1689   -0.1819   -0.1293 C   0  0  0  0  0  0  0  0  0  0  0  0
    1.5174   -0.5374   -0.7198 C   0  0  0  0  0  0  0  0  0  0  0  0
    2.6115    0.3348   -0.6012 C   0  0  0  0  0  0  0  0  0  0  0  0
    3.8363    0.0102   -1.1870 C   0  0  0  0  0  0  0  0  0  0  0  0
    4.0102   -1.1780   -1.9005 C   0  0  0  0  0  0  0  0  0  0  0  0
    2.9237   -2.0602   -2.0251 C   0  0  0  0  0  0  0  0  0  0  0  0
    2.9991   -3.2845   -2.7203 N   0  0  0  0  0  0  0  0  0  0  0  0
    4.0661   -3.8542   -3.3676 C   0  0  0  0  0  0  0  0  0  0  0  0
    5.1786   -3.3647   -3.4485 O   0  0  0  0  0  0  0  0  0  0  0  0
    3.7295   -5.2144   -4.0022 C   0  0  0  0  0  0  0  0  0  0  0  0
    3.3098   -6.2618   -2.9977 C   0  0  0  0  0  0  0  0  0  0  0  0
    2.0335   -6.5120   -2.9315 N   0  0  0  0  0  0  0  0  0  0  0  0
    1.5678   -7.4271   -2.0605 N   0  0  0  0  0  0  0  0  0  0  0  0
    0.1269   -7.6533   -2.0652 C   0  0  0  0  0  0  0  0  0  0  0  0
    2.3408   -8.1952   -1.1859 C   0  0  0  0  0  0  0  0  0  0  0  0
    1.8155   -9.0199   -0.4533 O   0  0  0  0  0  0  0  0  0  0  0  0
    3.7846   -7.9037   -1.2405 C   0  0  0  0  0  0  0  0  0  0  0  0
    4.6614   -8.5955   -0.3886 C   0  0  0  0  0  0  0  0  0  0  0  0
    6.0210   -8.3114   -0.4187 C   0  0  0  0  0  0  0  0  0  0  0  0
    6.5161   -7.3280   -1.2949 C   0  0  0  0  0  0  0  0  0  0  0  0
    5.6600   -6.6397   -2.1461 C   0  0  0  0  0  0  0  0  0  0  0  0
    4.2758   -6.9249   -2.1359 C   0  0  0  0  0  0  0  0  0  0  0  0
    1.6914   -1.7281   -1.4338 C   0  0  0  0  0  0  0  0  0  0  0  0
   -1.6781    0.8906   -0.6104 H   0  0  0  0  0  0  0  0  0  0  0  0
   -0.9114    0.1024   -2.0134 H   0  0  0  0  0  0  0  0  0  0  0  0
   -0.2171    1.5959   -1.3484 H   0  0  0  0  0  0  0  0  0  0  0  0
   -0.3659   -1.1062    0.1471 H   0  0  0  0  0  0  0  0  0  0  0  0
    0.3210    0.3790    0.8082 H   0  0  0  0  0  0  0  0  0  0  0  0
    2.5019    1.2688   -0.0429 H   0  0  0  0  0  0  0  0  0  0  0  0
    4.6833    0.6940   -1.0858 H   0  0  0  0  0  0  0  0  0  0  0  0
    4.9645   -1.4340   -2.3540 H   0  0  0  0  0  0  0  0  0  0  0  0
    2.1454   -3.8349   -2.7221 H   0  0  0  0  0  0  0  0  0  0  0  0
    4.6221   -5.5245   -4.5605 H   0  0  0  0  0  0  0  0  0  0  0  0
    2.9025   -5.0869   -4.7168 H   0  0  0  0  0  0  0  0  0  0  0  0
   -0.3105   -6.9800   -2.8101 H   0  0  0  0  0  0  0  0  0  0  0  0
   -0.2955   -7.4545   -1.0688 H   0  0  0  0  0  0  0  0  0  0  0  0
   -0.0959   -8.7009   -2.3173 H   0  0  0  0  0  0  0  0  0  0  0  0
    4.2418   -9.3449    0.2851 H   0  0  0  0  0  0  0  0  0  0  0  0
    6.7072   -8.8458    0.2427 H   0  0  0  0  0  0  0  0  0  0  0  0
    7.5845   -7.0986   -1.3053 H   0  0  0  0  0  0  0  0  0  0  0  0
    6.0544   -5.8608   -2.8011 H   0  0  0  0  0  0  0  0  0  0  0  0
    0.8488   -2.4214   -1.5307 H   0  0  0  0  0  0  0  0  0  0  0  0
  1  2  1  0
  1 25  1  0
  1 26  1  0
  1 27  1  0
  2  3  1  0
  2 28  1  0
  2 29  1  0
  3  4  2  0
  3 24  1  0
  4  5  1  0
  4 30  1  0
  5  6  2  0
  5 31  1  0
  6  7  1  0
  6 32  1  0
  7  8  1  0
  7 24  2  0
  8  9  1  0
  8 33  1  0
  9 10  2  0
  9 11  1  0
 11 12  1  0
 11 34  1  0
 11 35  1  0
 12 13  2  0
 12 23  1  0
 13 14  1  0
 14 15  1  0
 14 16  1  0
 15 36  1  0
 15 37  1  0
 15 38  1  0
 16 17  2  0
 16 18  1  0
 18 19  1  0
 18 23  2  0
 19 20  2  0
 19 39  1  0
 20 21  1  0
 20 40  1  0
 21 22  2  0
 21 41  1  0
 22 23  1  0
 22 42  1  0
 24 43  1  0
M  END

