
     RDKit          3D

 44 45  0  0  0  0  0  0  0  0999 V2000
    0.8433   -5.0872   -0.8570 C   0  0  0  0  0  0  0  0  0  0  0  0
    1.9321   -5.1655    0.2091 C   0  0  0  0  0  0  0  0  0  0  0  0
    2.8546   -4.0134    0.1762 N   0  0  0  0  0  0  0  0  0  0  0  0
    3.9858   -4.1321   -0.6588 C   0  0  0  0  0  0  0  0  0  0  0  0
    4.1512   -5.1690   -1.3119 O   0  0  0  0  0  0  0  0  0  0  0  0
    4.9054   -3.0132   -0.7022 C   0  0  0  0  0  0  0  0  0  0  0  0
    6.0472   -3.0589   -1.5007 C   0  0  0  0  0  0  0  0  0  0  0  0
    6.4081   -4.0802   -2.2596 N   0  0  0  0  0  0  0  0  0  0  0  0
    7.5873   -4.1212   -3.1238 C   0  0  1  0  0  0  0  0  0  0  0  0
    8.1632   -3.2095   -2.8961 H   0  0  0  0  0  0  0  0  0  0  0  0
    8.4463   -5.3569   -2.7952 C   0  0  0  0  0  0  0  0  0  0  0  0
    7.7646   -6.6654   -3.2167 C   0  0  0  0  0  0  0  0  0  0  0  0
    7.3454   -6.6358   -4.6924 C   0  0  0  0  0  0  0  0  0  0  0  0
    6.4772   -5.4085   -5.0288 C   0  0  2  0  0  0  0  0  0  0  0  0
    5.5662   -5.4785   -4.4046 H   0  0  0  0  0  0  0  0  0  0  0  0
    6.0098   -5.4198   -6.4876 C   0  0  0  0  0  0  0  0  0  0  0  0
    7.1784   -4.0823   -4.6232 C   0  0  2  0  0  0  0  0  0  0  0  0
    6.4327   -3.2732   -4.7196 H   0  0  0  0  0  0  0  0  0  0  0  0
    8.3727   -3.6991   -5.5103 C   0  0  0  0  0  0  0  0  0  0  0  0
    4.6659   -1.8046    0.0749 C   0  0  0  0  0  0  0  0  0  0  0  0
    5.3747   -0.8126    0.1058 O   0  0  0  0  0  0  0  0  0  0  0  0
    3.4883   -1.8579    0.8282 N   0  0  0  0  0  0  0  0  0  0  0  0
    3.2717   -1.0318    1.3794 H   0  0  0  0  0  0  0  0  0  0  0  0
    2.5718   -2.8782    0.9191 C   0  0  0  0  0  0  0  0  0  0  0  0
    1.2263   -2.6932    1.8846 S   0  0  0  0  0  0  0  0  0  0  0  0
    0.1906   -5.9718   -0.7842 H   0  0  0  0  0  0  0  0  0  0  0  0
    1.2795   -5.0699   -1.8673 H   0  0  0  0  0  0  0  0  0  0  0  0
    0.2193   -4.1921   -0.7155 H   0  0  0  0  0  0  0  0  0  0  0  0
    2.5498   -6.0592    0.0599 H   0  0  0  0  0  0  0  0  0  0  0  0
    1.4902   -5.1878    1.2126 H   0  0  0  0  0  0  0  0  0  0  0  0
    5.7539   -4.8736   -2.2190 H   0  0  0  0  0  0  0  0  0  0  0  0
    6.6946   -2.1741   -1.4914 H   0  0  0  0  0  0  0  0  0  0  0  0
    8.6787   -5.3630   -1.7179 H   0  0  0  0  0  0  0  0  0  0  0  0
    9.4095   -5.2562   -3.3227 H   0  0  0  0  0  0  0  0  0  0  0  0
    6.8752   -6.8437   -2.5851 H   0  0  0  0  0  0  0  0  0  0  0  0
    8.4406   -7.5146   -3.0253 H   0  0  0  0  0  0  0  0  0  0  0  0
    6.7911   -7.5553   -4.9449 H   0  0  0  0  0  0  0  0  0  0  0  0
    8.2456   -6.6392   -5.3333 H   0  0  0  0  0  0  0  0  0  0  0  0
    5.3864   -6.3057   -6.6883 H   0  0  0  0  0  0  0  0  0  0  0  0
    6.8576   -5.4511   -7.1911 H   0  0  0  0  0  0  0  0  0  0  0  0
    5.4075   -4.5278   -6.7260 H   0  0  0  0  0  0  0  0  0  0  0  0
    8.0533   -3.5194   -6.5473 H   0  0  0  0  0  0  0  0  0  0  0  0
    9.1538   -4.4745   -5.5369 H   0  0  0  0  0  0  0  0  0  0  0  0
    8.8429   -2.7696   -5.1502 H   0  0  0  0  0  0  0  0  0  0  0  0
  1  2  1  0
  1 26  1  0
  1 27  1  0
  1 28  1  0
  2  3  1  0
  2 29  1  0
  2 30  1  0
  3  4  1  0
  3 24  1  0
  4  5  2  0
  4  6  1  0
  6  7  2  0
  6 20  1  0
  7  8  1  0
  7 32  1  0
  8  9  1  0
  8 31  1  0
  9 10  1  1
  9 11  1  0
  9 17  1  0
 11 12  1  0
 11 33  1  0
 11 34  1  0
 12 13  1  0
 12 35  1  0
 12 36  1  0
 13 14  1  0
 13 37  1  0
 13 38  1  0
 14 15  1  1
 14 16  1  0
 14 17  1  0
 16 39  1  0
 16 40  1  0
 16 41  1  0
 17 18  1  1
 17 19  1  0
 19 42  1  0
 19 43  1  0
 19 44  1  0
 20 21  2  0
 20 22  1  0
 22 23  1  0
 22 24  1  0
 24 25  2  0
M  END

