
     RDKit          3D

 64 67  0  0  0  0  0  0  0  0999 V2000
    0.1479    0.5019   -2.3004 C   0  0  0  0  0  0  0  0  0  0  0  0
    1.6439    0.4854   -2.4902 C   0  0  0  0  0  0  0  0  0  0  0  0
    2.4047   -0.6328   -2.0965 C   0  0  0  0  0  0  0  0  0  0  0  0
    3.7851   -0.6631   -2.2569 C   0  0  0  0  0  0  0  0  0  0  0  0
    4.4740    0.4318   -2.8232 C   0  0  0  0  0  0  0  0  0  0  0  0
    5.9240    0.4601   -3.0169 C   0  0  0  0  0  0  0  0  0  0  0  0
    6.8240   -0.4722   -2.6387 C   0  0  0  0  0  0  0  0  0  0  0  0
    8.2638   -0.2602   -2.9404 C   0  0  0  0  0  0  0  0  0  0  0  0
    8.6512    0.7234   -3.5688 O   0  0  0  0  0  0  0  0  0  0  0  0
    9.1754   -1.2026   -2.4744 N   0  0  0  0  0  0  0  0  0  0  0  0
    8.8037   -2.2982   -1.5685 C   0  0  0  0  0  0  0  0  0  0  0  0
    7.9361   -3.4007   -2.1546 C   0  0  0  0  0  0  0  0  0  0  0  0
    8.0049   -3.7900   -3.4983 C   0  0  0  0  0  0  0  0  0  0  0  0
    7.2142   -4.8330   -3.9800 C   0  0  0  0  0  0  0  0  0  0  0  0
    6.3290   -5.5306   -3.1383 C   0  0  0  0  0  0  0  0  0  0  0  0
    5.4719   -6.6512   -3.6197 C   0  0  0  0  0  0  0  0  0  0  0  0
    5.6004   -7.2011   -4.9112 C   0  0  0  0  0  0  0  0  0  0  0  0
    4.7647   -8.2477   -5.2961 C   0  0  0  0  0  0  0  0  0  0  0  0
    3.8192   -8.7310   -4.3896 C   0  0  0  0  0  0  0  0  0  0  0  0
    3.7668   -8.1316   -3.1274 C   0  0  0  0  0  0  0  0  0  0  0  0
    4.5602   -7.1308   -2.7550 N   0  0  0  0  0  0  0  0  0  0  0  0
    6.2617   -5.1350   -1.7901 C   0  0  0  0  0  0  0  0  0  0  0  0
    7.0496   -4.0898   -1.3117 C   0  0  0  0  0  0  0  0  0  0  0  0
   10.5738   -0.8496   -2.6912 C   0  0  1  0  0  0  0  0  0  0  0  0
   10.5605   -0.2137   -3.5933 H   0  0  0  0  0  0  0  0  0  0  0  0
   11.1519    0.0675   -1.5695 C   0  0  0  0  0  0  0  0  0  0  0  0
   11.2351   -0.5200   -0.1766 C   0  0  0  0  0  0  0  0  0  0  0  0
   12.2311   -1.4508    0.1681 C   0  0  0  0  0  0  0  0  0  0  0  0
   12.2887   -1.9946    1.4539 C   0  0  0  0  0  0  0  0  0  0  0  0
   11.3535   -1.6147    2.4218 C   0  0  0  0  0  0  0  0  0  0  0  0
   10.3640   -0.6835    2.0954 C   0  0  0  0  0  0  0  0  0  0  0  0
   10.3080   -0.1419    0.8076 C   0  0  0  0  0  0  0  0  0  0  0  0
   11.4565   -2.0465   -3.0580 C   0  0  0  0  0  0  0  0  0  0  0  0
   11.0761   -3.1720   -3.2234 O   0  0  0  0  0  0  0  0  0  0  0  0
   12.7641   -1.7446   -3.2439 O   0  0  0  0  0  0  0  0  0  0  0  0
    3.7108    1.5453   -3.2219 C   0  0  0  0  0  0  0  0  0  0  0  0
    2.3251    1.5717   -3.0568 C   0  0  0  0  0  0  0  0  0  0  0  0
   -0.3250   -0.3766   -2.7698 H   0  0  0  0  0  0  0  0  0  0  0  0
   -0.3068    1.4043   -2.7346 H   0  0  0  0  0  0  0  0  0  0  0  0
   -0.1181    0.4735   -1.2298 H   0  0  0  0  0  0  0  0  0  0  0  0
    1.8984   -1.4984   -1.6590 H   0  0  0  0  0  0  0  0  0  0  0  0
    4.3363   -1.5540   -1.9479 H   0  0  0  0  0  0  0  0  0  0  0  0
    6.3274    1.3407   -3.5285 H   0  0  0  0  0  0  0  0  0  0  0  0
    6.5080   -1.3803   -2.1288 H   0  0  0  0  0  0  0  0  0  0  0  0
    8.3095   -1.8936   -0.6697 H   0  0  0  0  0  0  0  0  0  0  0  0
    9.7379   -2.7523   -1.2145 H   0  0  0  0  0  0  0  0  0  0  0  0
    8.6914   -3.2757   -4.1704 H   0  0  0  0  0  0  0  0  0  0  0  0
    7.2946   -5.0934   -5.0368 H   0  0  0  0  0  0  0  0  0  0  0  0
    6.3505   -6.8245   -5.6068 H   0  0  0  0  0  0  0  0  0  0  0  0
    4.8553   -8.6835   -6.2946 H   0  0  0  0  0  0  0  0  0  0  0  0
    3.1437   -9.5497   -4.6471 H   0  0  0  0  0  0  0  0  0  0  0  0
    3.0431   -8.4824   -2.3811 H   0  0  0  0  0  0  0  0  0  0  0  0
    5.5727   -5.6646   -1.1314 H   0  0  0  0  0  0  0  0  0  0  0  0
    6.9734   -3.8024   -0.2581 H   0  0  0  0  0  0  0  0  0  0  0  0
   10.5132    0.9623   -1.5629 H   0  0  0  0  0  0  0  0  0  0  0  0
   12.1501    0.4323   -1.8759 H   0  0  0  0  0  0  0  0  0  0  0  0
   12.9743   -1.7527   -0.5747 H   0  0  0  0  0  0  0  0  0  0  0  0
   13.0713   -2.7165    1.7012 H   0  0  0  0  0  0  0  0  0  0  0  0
   11.4003   -2.0388    3.4279 H   0  0  0  0  0  0  0  0  0  0  0  0
    9.6334   -0.3730    2.8469 H   0  0  0  0  0  0  0  0  0  0  0  0
    9.5339    0.5907    0.5615 H   0  0  0  0  0  0  0  0  0  0  0  0
   12.9232   -0.7986   -3.1155 H   0  0  0  0  0  0  0  0  0  0  0  0
    4.2183    2.4045   -3.6690 H   0  0  0  0  0  0  0  0  0  0  0  0
    1.7619    2.4528   -3.3769 H   0  0  0  0  0  0  0  0  0  0  0  0
  1  2  1  0
  1 38  1  0
  1 39  1  0
  1 40  1  0
  2  3  2  0
  2 37  1  0
  3  4  1  0
  3 41  1  0
  4  5  2  0
  4 42  1  0
  5  6  1  0
  5 36  1  0
  6  7  2  0
  6 43  1  0
  7  8  1  0
  7 44  1  0
  8  9  2  0
  8 10  1  0
 10 11  1  0
 10 24  1  0
 11 12  1  0
 11 45  1  0
 11 46  1  0
 12 13  2  0
 12 23  1  0
 13 14  1  0
 13 47  1  0
 14 15  2  0
 14 48  1  0
 15 16  1  0
 15 22  1  0
 16 17  2  0
 16 21  1  0
 17 18  1  0
 17 49  1  0
 18 19  2  0
 18 50  1  0
 19 20  1  0
 19 51  1  0
 20 21  2  0
 20 52  1  0
 22 23  2  0
 22 53  1  0
 23 54  1  0
 24 25  1  6
 24 26  1  0
 24 33  1  0
 26 27  1  0
 26 55  1  0
 26 56  1  0
 27 28  2  0
 27 32  1  0
 28 29  1  0
 28 57  1  0
 29 30  2  0
 29 58  1  0
 30 31  1  0
 30 59  1  0
 31 32  2  0
 31 60  1  0
 32 61  1  0
 33 34  2  0
 33 35  1  0
 35 62  1  0
 36 37  2  0
 36 63  1  0
 37 64  1  0
M  END

