
     RDKit          3D

 19 19  0  0  0  0  0  0  0  0999 V2000
    1.3719   -0.8408   -0.7376 O   0  0  0  0  0  0  0  0  0  0  0  0
    2.4491   -0.3682   -0.4159 C   0  0  0  0  0  0  0  0  0  0  0  0
    2.8455    1.0122   -0.2707 C   0  0  0  0  0  0  0  0  0  0  0  0
    2.1235    2.1833   -0.3913 C   0  0  0  0  0  0  0  0  0  0  0  0
    2.7648    3.3519   -0.1738 O   0  0  0  0  0  0  0  0  0  0  0  0
    0.7292    2.4124   -0.7208 C   0  0  0  0  0  0  0  0  0  0  0  0
   -0.2948    1.5336   -1.0501 C   0  0  0  0  0  0  0  0  0  0  0  0
   -1.5240    2.1920   -1.3023 C   0  0  0  0  0  0  0  0  0  0  0  0
   -1.4323    3.5597   -1.1661 C   0  0  0  0  0  0  0  0  0  0  0  0
    0.1480    4.0717   -0.7304 S   0  0  0  0  0  0  0  0  0  0  0  0
    3.5839   -1.3752   -0.0573 C   0  0  1  0  0  0  0  0  0  0  0  0
    4.7697   -1.0017   -0.5798 F   0  0  0  0  0  0  0  0  0  0  0  0
    3.7387   -1.4329    1.2785 F   0  0  0  0  0  0  0  0  0  0  0  0
    3.3038   -2.5948   -0.4989 F   0  0  0  0  0  0  0  0  0  0  0  0
    3.8996    1.1535   -0.0131 H   0  0  0  0  0  0  0  0  0  0  0  0
    3.6904    3.1886    0.0568 H   0  0  0  0  0  0  0  0  0  0  0  0
   -0.1328    0.4587   -1.0991 H   0  0  0  0  0  0  0  0  0  0  0  0
   -2.4439    1.6735   -1.5754 H   0  0  0  0  0  0  0  0  0  0  0  0
   -2.2227    4.2976   -1.3026 H   0  0  0  0  0  0  0  0  0  0  0  0
  1  2  2  0
  2  3  1  0
  2 11  1  0
  3  4  2  0
  3 15  1  0
  4  5  1  0
  4  6  1  0
  5 16  1  0
  6  7  2  0
  6 10  1  0
  7  8  1  0
  7 17  1  0
  8  9  2  0
  8 18  1  0
  9 10  1  0
  9 19  1  0
 11 12  1  6
 11 13  1  0
 11 14  1  0
M  END

