
     RDKit          3D

 32 33  0  0  0  0  0  0  0  0999 V2000
    1.1010    0.7526    0.5939 C   0  0  0  0  0  0  0  0  0  0  0  0
    2.3085    0.8559    0.6068 C   0  0  0  0  0  0  0  0  0  0  0  0
    3.7670    0.9510    0.6382 C   0  0  0  0  0  0  0  0  0  0  0  0
    4.4350   -0.2147    1.4302 C   0  0  1  0  0  0  0  0  0  0  0  0
    4.0111   -1.5485    1.0007 N   0  0  0  0  0  0  0  0  0  0  0  0
    4.2044   -1.9040   -0.3488 N   0  0  0  0  0  0  0  0  0  0  0  0
    5.9734   -0.1081    1.4269 C   0  0  2  0  0  0  0  0  0  0  0  0
    6.5951   -1.1958    2.3074 C   0  0  0  0  0  0  0  0  0  0  0  0
    8.0120   -1.2231    2.2054 O   0  0  0  0  0  0  0  0  0  0  0  0
    8.6657   -0.0324    2.2959 C   0  0  0  0  0  0  0  0  0  0  0  0
   10.0526   -0.0822    2.5072 C   0  0  0  0  0  0  0  0  0  0  0  0
   10.7884    1.0968    2.5965 C   0  0  0  0  0  0  0  0  0  0  0  0
   10.1474    2.3364    2.4753 C   0  0  0  0  0  0  0  0  0  0  0  0
    8.7704    2.3757    2.2550 C   0  0  0  0  0  0  0  0  0  0  0  0
    8.0051    1.2034    2.1594 C   0  0  0  0  0  0  0  0  0  0  0  0
    6.5129    1.2518    1.8951 C   0  0  0  0  0  0  0  0  0  0  0  0
    0.0303    0.6729    0.5765 H   0  0  0  0  0  0  0  0  0  0  0  0
    4.0523    1.9155    1.0877 H   0  0  0  0  0  0  0  0  0  0  0  0
    4.1581    0.9745   -0.3954 H   0  0  0  0  0  0  0  0  0  0  0  0
    4.0883   -0.1288    2.4760 H   0  0  0  0  0  0  0  0  0  0  0  0
    3.0321   -1.6996    1.2335 H   0  0  0  0  0  0  0  0  0  0  0  0
    5.1600   -2.2260   -0.4914 H   0  0  0  0  0  0  0  0  0  0  0  0
    4.0207   -1.1385   -1.0047 H   0  0  0  0  0  0  0  0  0  0  0  0
    6.3254   -0.2867    0.3940 H   0  0  0  0  0  0  0  0  0  0  0  0
    6.2419   -2.1920    2.0166 H   0  0  0  0  0  0  0  0  0  0  0  0
    6.3031   -1.0296    3.3638 H   0  0  0  0  0  0  0  0  0  0  0  0
   10.5253   -1.0623    2.6000 H   0  0  0  0  0  0  0  0  0  0  0  0
   11.8675    1.0493    2.7638 H   0  0  0  0  0  0  0  0  0  0  0  0
   10.7193    3.2645    2.5457 H   0  0  0  0  0  0  0  0  0  0  0  0
    8.2662    3.3412    2.1455 H   0  0  0  0  0  0  0  0  0  0  0  0
    6.3083    2.0376    1.1505 H   0  0  0  0  0  0  0  0  0  0  0  0
    5.9805    1.5556    2.8172 H   0  0  0  0  0  0  0  0  0  0  0  0
  1  2  3  0
  1 17  1  0
  2  3  1  0
  3  4  1  0
  3 18  1  0
  3 19  1  0
  4  5  1  0
  4  7  1  0
  4 20  1  1
  5  6  1  0
  5 21  1  0
  6 22  1  0
  6 23  1  0
  7  8  1  0
  7 16  1  0
  7 24  1  6
  8  9  1  0
  8 25  1  0
  8 26  1  0
  9 10  1  0
 10 11  1  0
 10 15  2  0
 11 12  2  0
 11 27  1  0
 12 13  1  0
 12 28  1  0
 13 14  2  0
 13 29  1  0
 14 15  1  0
 14 30  1  0
 15 16  1  0
 16 31  1  0
 16 32  1  0
M  END

