
     RDKit          3D

 27 28  0  0  0  0  0  0  0  0999 V2000
    5.8546   -4.0979    1.9422 N   0  0  0  0  0  0  0  0  0  0  0  0
    5.6028   -3.5877    0.6696 N   0  0  0  0  0  0  0  0  0  0  0  0
    4.7136   -2.6021    0.4145 C   0  0  0  0  0  0  0  0  0  0  0  0
    3.7521   -1.8908    1.5779 S   0  0  0  0  0  0  0  0  0  0  0  0
    4.5993   -2.2372   -0.9174 N   0  0  0  0  0  0  0  0  0  0  0  0
    5.5396   -2.6150   -1.8514 N   0  0  0  0  0  0  0  0  0  0  0  0
    6.5859   -1.7731   -2.1857 C   0  0  0  0  0  0  0  0  0  0  0  0
    6.8518   -0.7542   -1.5803 O   0  0  0  0  0  0  0  0  0  0  0  0
    7.3557   -2.2579   -3.3627 C   0  0  0  0  0  0  0  0  0  0  0  0
    8.4916   -1.6535   -3.8831 C   0  0  0  0  0  0  0  0  0  0  0  0
    8.8517   -2.4306   -4.9540 N   0  0  0  0  0  0  0  0  0  0  0  0
    9.8978   -2.3118   -5.8423 C   0  0  0  0  0  0  0  0  0  0  0  0
   10.0105   -3.2502   -6.8299 C   0  0  0  0  0  0  0  0  0  0  0  0
   11.0166   -3.1569   -7.7036 F   0  0  0  0  0  0  0  0  0  0  0  0
    9.0906   -4.3272   -6.9608 C   0  0  0  0  0  0  0  0  0  0  0  0
    8.0510   -4.4361   -6.0690 C   0  0  0  0  0  0  0  0  0  0  0  0
    7.9081   -3.4780   -5.0332 C   0  0  0  0  0  0  0  0  0  0  0  0
    7.0044   -3.3685   -4.0670 N   0  0  0  0  0  0  0  0  0  0  0  0
    4.9735   -4.4701    2.3082 H   0  0  0  0  0  0  0  0  0  0  0  0
    6.0672   -3.3066    2.5584 H   0  0  0  0  0  0  0  0  0  0  0  0
    6.2014   -3.9276   -0.0757 H   0  0  0  0  0  0  0  0  0  0  0  0
    4.1463   -1.3364   -1.0567 H   0  0  0  0  0  0  0  0  0  0  0  0
    5.2793   -3.3283   -2.5317 H   0  0  0  0  0  0  0  0  0  0  0  0
    9.0378   -0.7665   -3.5765 H   0  0  0  0  0  0  0  0  0  0  0  0
   10.5900   -1.4791   -5.7229 H   0  0  0  0  0  0  0  0  0  0  0  0
    9.2361   -5.0431   -7.7714 H   0  0  0  0  0  0  0  0  0  0  0  0
    7.3194   -5.2424   -6.1264 H   0  0  0  0  0  0  0  0  0  0  0  0
  1  2  1  0
  1 19  1  0
  1 20  1  0
  2  3  1  0
  2 21  1  0
  3  4  2  0
  3  5  1  0
  5  6  1  0
  5 22  1  0
  6  7  1  0
  6 23  1  0
  7  8  2  0
  7  9  1  0
  9 10  2  0
  9 18  1  0
 10 11  1  0
 10 24  1  0
 11 12  1  0
 11 17  1  0
 12 13  2  0
 12 25  1  0
 13 14  1  0
 13 15  1  0
 15 16  2  0
 15 26  1  0
 16 17  1  0
 16 27  1  0
 17 18  2  0
M  END

