
     RDKit          3D

 40 42  0  0  0  0  0  0  0  0999 V2000
    4.3564    2.4813   -1.9462 C   0  0  0  0  0  0  0  0  0  0  0  0
    4.4209    1.4253   -0.8684 C   0  0  0  0  0  0  0  0  0  0  0  0
    4.1436    1.7321    0.4715 C   0  0  0  0  0  0  0  0  0  0  0  0
    4.1889    0.7367    1.4522 C   0  0  0  0  0  0  0  0  0  0  0  0
    4.5107   -0.5766    1.1118 C   0  0  0  0  0  0  0  0  0  0  0  0
    4.7960   -0.9167   -0.2246 C   0  0  0  0  0  0  0  0  0  0  0  0
    5.1434   -2.3145   -0.6011 C   0  0  0  0  0  0  0  0  0  0  0  0
    6.1262   -2.5857   -1.5709 C   0  0  0  0  0  0  0  0  0  0  0  0
    6.4648   -3.9002   -1.9001 C   0  0  0  0  0  0  0  0  0  0  0  0
    5.8305   -4.9716   -1.2711 C   0  0  0  0  0  0  0  0  0  0  0  0
    4.8234   -4.7283   -0.3253 C   0  0  0  0  0  0  0  0  0  0  0  0
    4.2249   -5.9129    0.3937 C   0  0  0  0  0  0  0  0  0  0  0  0
    4.9577   -6.8006    0.8074 O   0  0  0  0  0  0  0  0  0  0  0  0
    2.8604   -5.9384    0.5926 N   0  0  0  0  0  0  0  0  0  0  0  0
    1.8610   -5.1696   -0.1443 C   0  0  0  0  0  0  0  0  0  0  0  0
    0.9164   -6.1166   -0.8924 C   0  0  0  0  0  0  0  0  0  0  0  0
    0.3437   -7.0751   -0.0309 O   0  0  0  0  0  0  0  0  0  0  0  0
    1.3328   -7.8632    0.6057 C   0  0  0  0  0  0  0  0  0  0  0  0
    2.2876   -6.9968    1.4236 C   0  0  0  0  0  0  0  0  0  0  0  0
    4.4978   -3.4064    0.0076 C   0  0  0  0  0  0  0  0  0  0  0  0
    4.7453    0.0994   -1.1940 C   0  0  0  0  0  0  0  0  0  0  0  0
    4.2097    3.4851   -1.5210 H   0  0  0  0  0  0  0  0  0  0  0  0
    3.5234    2.2894   -2.6439 H   0  0  0  0  0  0  0  0  0  0  0  0
    5.2802    2.4999   -2.5473 H   0  0  0  0  0  0  0  0  0  0  0  0
    3.8912    2.7592    0.7498 H   0  0  0  0  0  0  0  0  0  0  0  0
    3.9809    0.9912    2.4948 H   0  0  0  0  0  0  0  0  0  0  0  0
    4.5706   -1.3397    1.8911 H   0  0  0  0  0  0  0  0  0  0  0  0
    6.6553   -1.7572   -2.0472 H   0  0  0  0  0  0  0  0  0  0  0  0
    7.2456   -4.0887   -2.6414 H   0  0  0  0  0  0  0  0  0  0  0  0
    6.1119   -6.0024   -1.4948 H   0  0  0  0  0  0  0  0  0  0  0  0
    2.3489   -4.4965   -0.8594 H   0  0  0  0  0  0  0  0  0  0  0  0
    1.2717   -4.5531    0.5603 H   0  0  0  0  0  0  0  0  0  0  0  0
    1.4772   -6.6175   -1.7097 H   0  0  0  0  0  0  0  0  0  0  0  0
    0.0879   -5.5474   -1.3417 H   0  0  0  0  0  0  0  0  0  0  0  0
    1.9084   -8.4394   -0.1477 H   0  0  0  0  0  0  0  0  0  0  0  0
    0.8049   -8.5768    1.2565 H   0  0  0  0  0  0  0  0  0  0  0  0
    3.1137   -7.5934    1.8304 H   0  0  0  0  0  0  0  0  0  0  0  0
    1.7300   -6.5323    2.2580 H   0  0  0  0  0  0  0  0  0  0  0  0
    3.7261   -3.2167    0.7565 H   0  0  0  0  0  0  0  0  0  0  0  0
    4.9423   -0.1533   -2.2397 H   0  0  0  0  0  0  0  0  0  0  0  0
  1  2  1  0
  1 22  1  0
  1 23  1  0
  1 24  1  0
  2  3  2  0
  2 21  1  0
  3  4  1  0
  3 25  1  0
  4  5  2  0
  4 26  1  0
  5  6  1  0
  5 27  1  0
  6  7  1  0
  6 21  2  0
  7  8  2  0
  7 20  1  0
  8  9  1  0
  8 28  1  0
  9 10  2  0
  9 29  1  0
 10 11  1  0
 10 30  1  0
 11 12  1  0
 11 20  2  0
 12 13  2  0
 12 14  1  0
 14 15  1  0
 14 19  1  0
 15 16  1  0
 15 31  1  0
 15 32  1  0
 16 17  1  0
 16 33  1  0
 16 34  1  0
 17 18  1  0
 18 19  1  0
 18 35  1  0
 18 36  1  0
 19 37  1  0
 19 38  1  0
 20 39  1  0
 21 40  1  0
M  END

