
     RDKit          3D

 49 52  0  0  0  0  0  0  0  0999 V2000
    3.7721    1.8388    2.2307 C   0  0  0  0  0  0  0  0  0  0  0  0
    4.4946    0.7534    1.4231 C   0  0  0  0  0  0  0  0  0  0  0  0
    4.6161   -0.5457    2.1602 C   0  0  0  0  0  0  0  0  0  0  0  0
    5.2422   -0.6606    3.3701 N   0  0  0  0  0  0  0  0  0  0  0  0
    5.1232   -1.9435    3.6610 C   0  0  0  0  0  0  0  0  0  0  0  0
    4.4390   -2.5708    2.6676 N   0  0  0  0  0  0  0  0  0  0  0  0
    4.1159   -1.6859    1.6985 N   0  0  0  0  0  0  0  0  0  0  0  0
    4.1687   -3.9960    2.5514 C   0  0  0  0  0  0  0  0  0  0  0  0
    4.2598   -4.6509    3.9339 C   0  0  2  0  0  0  0  0  0  0  0  0
    3.0601   -4.3720    4.7161 N   0  0  0  0  0  0  0  0  0  0  0  0
    2.5356   -5.2870    5.5901 C   0  0  0  0  0  0  0  0  0  0  0  0
    3.0155   -6.4006    5.7304 O   0  0  0  0  0  0  0  0  0  0  0  0
    1.3310   -4.7991    6.3939 C   0  0  0  0  0  0  0  0  0  0  0  0
    0.4312   -5.9513    6.8829 C   0  0  2  0  0  0  0  0  0  0  0  0
   -0.3426   -6.6284    5.7385 C   0  0  0  0  0  0  0  0  0  0  0  0
   -1.5622   -5.8042    5.3523 C   0  0  0  0  0  0  0  0  0  0  0  0
   -2.4566   -5.6335    6.4443 O   0  0  0  0  0  0  0  0  0  0  0  0
   -1.9209   -5.3596    7.6660 C   0  0  0  0  0  0  0  0  0  0  0  0
   -2.8232   -4.9599    8.6662 C   0  0  0  0  0  0  0  0  0  0  0  0
   -2.3678   -4.6825    9.9517 C   0  0  0  0  0  0  0  0  0  0  0  0
   -1.0058   -4.8057   10.2566 C   0  0  0  0  0  0  0  0  0  0  0  0
   -0.1181   -5.2101    9.2605 C   0  0  0  0  0  0  0  0  0  0  0  0
   -0.5469   -5.4919    7.9530 C   0  0  0  0  0  0  0  0  0  0  0  0
    5.5513   -4.2024    4.6506 C   0  0  0  0  0  0  0  0  0  0  0  0
    5.5792   -2.6831    4.8819 C   0  0  0  0  0  0  0  0  0  0  0  0
    3.7493    2.7913    1.6783 H   0  0  0  0  0  0  0  0  0  0  0  0
    4.2819    2.0088    3.1912 H   0  0  0  0  0  0  0  0  0  0  0  0
    2.7317    1.5475    2.4479 H   0  0  0  0  0  0  0  0  0  0  0  0
    5.5099    1.1055    1.1697 H   0  0  0  0  0  0  0  0  0  0  0  0
    3.9753    0.5572    0.4729 H   0  0  0  0  0  0  0  0  0  0  0  0
    4.9030   -4.4544    1.8676 H   0  0  0  0  0  0  0  0  0  0  0  0
    3.1707   -4.1273    2.1089 H   0  0  0  0  0  0  0  0  0  0  0  0
    4.2883   -5.7426    3.8084 H   0  0  0  0  0  0  0  0  0  0  0  0
    2.6383   -3.4522    4.6562 H   0  0  0  0  0  0  0  0  0  0  0  0
    0.7546   -4.0558    5.8172 H   0  0  0  0  0  0  0  0  0  0  0  0
    1.7293   -4.2554    7.2684 H   0  0  0  0  0  0  0  0  0  0  0  0
    1.1121   -6.6961    7.3232 H   0  0  0  0  0  0  0  0  0  0  0  0
   -0.6806   -7.6260    6.0645 H   0  0  0  0  0  0  0  0  0  0  0  0
    0.3048   -6.7847    4.8614 H   0  0  0  0  0  0  0  0  0  0  0  0
   -2.1475   -6.2932    4.5599 H   0  0  0  0  0  0  0  0  0  0  0  0
   -1.2610   -4.8075    4.9735 H   0  0  0  0  0  0  0  0  0  0  0  0
   -3.8794   -4.8767    8.4017 H   0  0  0  0  0  0  0  0  0  0  0  0
   -3.0785   -4.3706   10.7214 H   0  0  0  0  0  0  0  0  0  0  0  0
   -0.6426   -4.5961   11.2653 H   0  0  0  0  0  0  0  0  0  0  0  0
    0.9442   -5.3268    9.4989 H   0  0  0  0  0  0  0  0  0  0  0  0
    6.4120   -4.5043    4.0294 H   0  0  0  0  0  0  0  0  0  0  0  0
    5.6411   -4.7417    5.6047 H   0  0  0  0  0  0  0  0  0  0  0  0
    6.5845   -2.3346    5.1631 H   0  0  0  0  0  0  0  0  0  0  0  0
    4.9200   -2.4135    5.7262 H   0  0  0  0  0  0  0  0  0  0  0  0
  1  2  1  0
  1 26  1  0
  1 27  1  0
  1 28  1  0
  2  3  1  0
  2 29  1  0
  2 30  1  0
  3  4  1  0
  3  7  2  0
  4  5  2  0
  5  6  1  0
  5 25  1  0
  6  7  1  0
  6  8  1  0
  8  9  1  0
  8 31  1  0
  8 32  1  0
  9 10  1  0
  9 24  1  0
  9 33  1  6
 10 11  1  0
 10 34  1  0
 11 12  2  0
 11 13  1  0
 13 14  1  0
 13 35  1  0
 13 36  1  0
 14 15  1  0
 14 23  1  0
 14 37  1  1
 15 16  1  0
 15 38  1  0
 15 39  1  0
 16 17  1  0
 16 40  1  0
 16 41  1  0
 17 18  1  0
 18 19  2  0
 18 23  1  0
 19 20  1  0
 19 42  1  0
 20 21  2  0
 20 43  1  0
 21 22  1  0
 21 44  1  0
 22 23  2  0
 22 45  1  0
 24 25  1  0
 24 46  1  0
 24 47  1  0
 25 48  1  0
 25 49  1  0
M  END

