
     RDKit          3D

 52 55  0  0  0  0  0  0  0  0999 V2000
    4.1277   -8.4551   -2.0328 C   0  0  0  0  0  0  0  0  0  0  0  0
    2.9036   -8.7685   -2.9044 C   0  0  0  0  0  0  0  0  0  0  0  0
    1.6081   -8.3868   -2.2770 C   0  0  0  0  0  0  0  0  0  0  0  0
    0.6010   -9.1370   -1.9663 N   0  0  0  0  0  0  0  0  0  0  0  0
   -0.3608   -8.3050   -1.4067 N   0  0  0  0  0  0  0  0  0  0  0  0
    0.1301   -7.1076   -1.4167 C   0  0  0  0  0  0  0  0  0  0  0  0
   -0.4733   -5.8459   -0.9083 C   0  0  0  0  0  0  0  0  0  0  0  0
    0.2163   -5.2883    0.3500 C   0  0  2  0  0  0  0  0  0  0  0  0
    1.2712   -5.0885    0.0939 H   0  0  0  0  0  0  0  0  0  0  0  0
    0.1806   -6.2422    1.5819 C   0  0  0  0  0  0  0  0  0  0  0  0
   -0.0537   -5.3420    2.8206 C   0  0  0  0  0  0  0  0  0  0  0  0
    0.1049   -3.8957    2.3128 C   0  0  2  0  0  0  0  0  0  0  0  0
    1.1694   -3.6192    2.2850 H   0  0  0  0  0  0  0  0  0  0  0  0
   -0.5509   -2.9242    3.1624 N   0  0  0  0  0  0  0  0  0  0  0  0
   -0.1696   -1.6175    3.2794 C   0  0  0  0  0  0  0  0  0  0  0  0
   -0.8959   -0.7197    4.0883 C   0  0  0  0  0  0  0  0  0  0  0  0
   -0.4340    0.6071    4.1567 C   0  0  0  0  0  0  0  0  0  0  0  0
   -1.0760    1.5967    4.8696 N   0  0  0  0  0  0  0  0  0  0  0  0
   -0.3872    2.8475    5.1844 C   0  0  0  0  0  0  0  0  0  0  0  0
   -1.3813    4.0007    5.2255 C   0  0  0  0  0  0  0  0  0  0  0  0
   -2.4478    3.7316    6.1169 O   0  0  0  0  0  0  0  0  0  0  0  0
   -3.1480    2.5705    5.7360 C   0  0  0  0  0  0  0  0  0  0  0  0
   -2.2423    1.3365    5.6974 C   0  0  0  0  0  0  0  0  0  0  0  0
    0.6886    0.9732    3.4941 N   0  0  0  0  0  0  0  0  0  0  0  0
    1.2935    0.0399    2.7750 C   0  0  0  0  0  0  0  0  0  0  0  0
    0.9352   -1.2300    2.6106 N   0  0  0  0  0  0  0  0  0  0  0  0
   -0.3978   -3.9754    0.8595 C   0  0  0  0  0  0  0  0  0  0  0  0
    1.3826   -7.0808   -1.9543 O   0  0  0  0  0  0  0  0  0  0  0  0
    5.0533   -8.7514   -2.5494 H   0  0  0  0  0  0  0  0  0  0  0  0
    4.0831   -8.9979   -1.0758 H   0  0  0  0  0  0  0  0  0  0  0  0
    4.1931   -7.3787   -1.8111 H   0  0  0  0  0  0  0  0  0  0  0  0
    2.8380   -9.8445   -3.1214 H   0  0  0  0  0  0  0  0  0  0  0  0
    2.9936   -8.2473   -3.8738 H   0  0  0  0  0  0  0  0  0  0  0  0
   -1.5312   -6.0638   -0.6969 H   0  0  0  0  0  0  0  0  0  0  0  0
   -0.4439   -5.0865   -1.7084 H   0  0  0  0  0  0  0  0  0  0  0  0
    1.1171   -6.8144    1.6638 H   0  0  0  0  0  0  0  0  0  0  0  0
   -0.6239   -6.9868    1.4745 H   0  0  0  0  0  0  0  0  0  0  0  0
    0.6255   -5.5648    3.6573 H   0  0  0  0  0  0  0  0  0  0  0  0
   -1.0818   -5.4793    3.2008 H   0  0  0  0  0  0  0  0  0  0  0  0
   -1.4342   -3.1885    3.5810 H   0  0  0  0  0  0  0  0  0  0  0  0
   -1.7674   -1.0700    4.6401 H   0  0  0  0  0  0  0  0  0  0  0  0
    0.3880    3.0140    4.4274 H   0  0  0  0  0  0  0  0  0  0  0  0
    0.1104    2.7645    6.1724 H   0  0  0  0  0  0  0  0  0  0  0  0
   -1.7752    4.1907    4.2056 H   0  0  0  0  0  0  0  0  0  0  0  0
   -0.8873    4.9171    5.5823 H   0  0  0  0  0  0  0  0  0  0  0  0
   -3.6085    2.7099    4.7352 H   0  0  0  0  0  0  0  0  0  0  0  0
   -3.9555    2.4207    6.4692 H   0  0  0  0  0  0  0  0  0  0  0  0
   -2.8211    0.4985    5.2865 H   0  0  0  0  0  0  0  0  0  0  0  0
   -1.9407    1.0653    6.7305 H   0  0  0  0  0  0  0  0  0  0  0  0
    2.2026    0.3550    2.2446 H   0  0  0  0  0  0  0  0  0  0  0  0
   -0.1098   -3.0937    0.2674 H   0  0  0  0  0  0  0  0  0  0  0  0
   -1.5021   -4.0399    0.8573 H   0  0  0  0  0  0  0  0  0  0  0  0
  1  2  1  0
  1 29  1  0
  1 30  1  0
  1 31  1  0
  2  3  1  0
  2 32  1  0
  2 33  1  0
  3  4  2  0
  3 28  1  0
  4  5  1  0
  5  6  2  0
  6  7  1  0
  6 28  1  0
  7  8  1  0
  7 34  1  0
  7 35  1  0
  8  9  1  6
  8 10  1  0
  8 27  1  0
 10 11  1  0
 10 36  1  0
 10 37  1  0
 11 12  1  0
 11 38  1  0
 11 39  1  0
 12 13  1  6
 12 14  1  0
 12 27  1  0
 14 15  1  0
 14 40  1  0
 15 16  2  0
 15 26  1  0
 16 17  1  0
 16 41  1  0
 17 18  1  0
 17 24  2  0
 18 19  1  0
 18 23  1  0
 19 20  1  0
 19 42  1  0
 19 43  1  0
 20 21  1  0
 20 44  1  0
 20 45  1  0
 21 22  1  0
 22 23  1  0
 22 46  1  0
 22 47  1  0
 23 48  1  0
 23 49  1  0
 24 25  1  0
 25 26  2  0
 25 50  1  0
 27 51  1  0
 27 52  1  0
M  END

