
     RDKit          3D

 63 66  0  0  0  0  0  0  0  0999 V2000
    9.2041   -0.2966   -9.0822 C   0  0  0  0  0  0  0  0  0  0  0  0
    8.6225   -0.8846   -7.8021 C   0  0  0  0  0  0  0  0  0  0  0  0
    9.1178    0.1607   -6.3711 S   0  0  0  0  0  0  0  0  0  0  0  0
    8.3342   -0.7174   -5.0709 C   0  0  0  0  0  0  0  0  0  0  0  0
    7.6126   -1.7910   -5.2159 N   0  0  0  0  0  0  0  0  0  0  0  0
    7.1286   -2.2718   -4.0367 N   0  0  0  0  0  0  0  0  0  0  0  0
    7.4855   -1.5525   -3.0119 C   0  0  0  0  0  0  0  0  0  0  0  0
    7.0852   -1.8828   -1.7331 N   0  0  0  0  0  0  0  0  0  0  0  0
    7.5233   -1.2856   -0.5780 C   0  0  0  0  0  0  0  0  0  0  0  0
    8.2562   -0.3171   -0.5723 O   0  0  0  0  0  0  0  0  0  0  0  0
    7.0381   -1.9125    0.7313 C   0  0  0  0  0  0  0  0  0  0  0  0
    6.0618   -3.4591    0.6121 S   0  0  0  0  0  0  0  0  0  0  0  0
    7.3902   -4.5744    0.2542 C   0  0  0  0  0  0  0  0  0  0  0  0
    8.6149   -4.4880    0.7078 N   0  0  0  0  0  0  0  0  0  0  0  0
    9.3227   -5.5335    0.1840 N   0  0  0  0  0  0  0  0  0  0  0  0
    8.5160   -6.2407   -0.5695 C   0  0  0  0  0  0  0  0  0  0  0  0
    8.9029   -7.5177   -1.2572 C   0  0  0  0  0  0  0  0  0  0  0  0
    8.7422   -8.6880   -0.4100 N   0  0  0  0  0  0  0  0  0  0  0  0
    7.7499   -9.6131   -0.6222 C   0  0  0  0  0  0  0  0  0  0  0  0
    6.9613   -9.5179   -1.5508 O   0  0  0  0  0  0  0  0  0  0  0  0
    7.6825  -10.7405    0.3741 C   0  0  0  0  0  0  0  0  0  0  0  0
    6.4429  -11.3463    0.5572 C   0  0  0  0  0  0  0  0  0  0  0  0
    6.3114  -12.4010    1.4801 C   0  0  0  0  0  0  0  0  0  0  0  0
    5.0688  -12.9228    1.6108 O   0  0  0  0  0  0  0  0  0  0  0  0
    4.8564  -13.9903    2.5076 C   0  0  0  0  0  0  0  0  0  0  0  0
    7.4260  -12.8476    2.1950 C   0  0  0  0  0  0  0  0  0  0  0  0
    8.6804  -12.2427    1.9892 C   0  0  0  0  0  0  0  0  0  0  0  0
    9.7000  -12.7653    2.7154 O   0  0  0  0  0  0  0  0  0  0  0  0
   10.9948  -12.2231    2.5826 C   0  0  0  0  0  0  0  0  0  0  0  0
    8.8177  -11.1857    1.0828 C   0  0  0  0  0  0  0  0  0  0  0  0
    7.2539   -5.6711   -0.5714 N   0  0  0  0  0  0  0  0  0  0  0  0
    6.0994   -6.0675   -1.3242 C   0  0  0  0  0  0  0  0  0  0  0  0
    5.8645   -5.5178   -2.5911 C   0  0  0  0  0  0  0  0  0  0  0  0
    4.7426   -5.9228   -3.3122 C   0  0  0  0  0  0  0  0  0  0  0  0
    3.8604   -6.8740   -2.7866 C   0  0  0  0  0  0  0  0  0  0  0  0
    2.4782   -7.3569   -3.7193 Cl  0  0  0  0  0  0  0  0  0  0  0  0
    4.1052   -7.4240   -1.5161 C   0  0  0  0  0  0  0  0  0  0  0  0
    3.0480   -8.6193   -0.8317 Cl  0  0  0  0  0  0  0  0  0  0  0  0
    5.2244   -7.0139   -0.7882 C   0  0  0  0  0  0  0  0  0  0  0  0
    8.4961   -0.1723   -3.3945 S   0  0  0  0  0  0  0  0  0  0  0  0
    8.9093   -0.9200   -9.9410 H   0  0  0  0  0  0  0  0  0  0  0  0
   10.3047   -0.2636   -9.0521 H   0  0  0  0  0  0  0  0  0  0  0  0
    8.8354    0.7250   -9.2653 H   0  0  0  0  0  0  0  0  0  0  0  0
    8.9841   -1.9053   -7.6130 H   0  0  0  0  0  0  0  0  0  0  0  0
    7.5243   -0.9233   -7.8250 H   0  0  0  0  0  0  0  0  0  0  0  0
    6.4358   -2.6649   -1.6589 H   0  0  0  0  0  0  0  0  0  0  0  0
    6.3983   -1.1866    1.2559 H   0  0  0  0  0  0  0  0  0  0  0  0
    7.9227   -2.1014    1.3553 H   0  0  0  0  0  0  0  0  0  0  0  0
    9.9567   -7.4134   -1.5575 H   0  0  0  0  0  0  0  0  0  0  0  0
    8.2922   -7.6880   -2.1534 H   0  0  0  0  0  0  0  0  0  0  0  0
    9.2634   -8.7116    0.4584 H   0  0  0  0  0  0  0  0  0  0  0  0
    5.5739  -11.0041   -0.0049 H   0  0  0  0  0  0  0  0  0  0  0  0
    3.7902  -14.2452    2.4430 H   0  0  0  0  0  0  0  0  0  0  0  0
    5.0945  -13.7060    3.5485 H   0  0  0  0  0  0  0  0  0  0  0  0
    5.4543  -14.8791    2.2369 H   0  0  0  0  0  0  0  0  0  0  0  0
    7.3740  -13.6637    2.9141 H   0  0  0  0  0  0  0  0  0  0  0  0
   11.6432  -12.7911    3.2630 H   0  0  0  0  0  0  0  0  0  0  0  0
   11.0252  -11.1560    2.8683 H   0  0  0  0  0  0  0  0  0  0  0  0
   11.3807  -12.3268    1.5524 H   0  0  0  0  0  0  0  0  0  0  0  0
    9.7934  -10.7422    0.8905 H   0  0  0  0  0  0  0  0  0  0  0  0
    6.5404   -4.7756   -3.0234 H   0  0  0  0  0  0  0  0  0  0  0  0
    4.5431   -5.5009   -4.2982 H   0  0  0  0  0  0  0  0  0  0  0  0
    5.4130   -7.4472    0.1936 H   0  0  0  0  0  0  0  0  0  0  0  0
  1  2  1  0
  1 41  1  0
  1 42  1  0
  1 43  1  0
  2  3  1  0
  2 44  1  0
  2 45  1  0
  3  4  1  0
  4  5  2  0
  4 40  1  0
  5  6  1  0
  6  7  2  0
  7  8  1  0
  7 40  1  0
  8  9  1  0
  8 46  1  0
  9 10  2  0
  9 11  1  0
 11 12  1  0
 11 47  1  0
 11 48  1  0
 12 13  1  0
 13 14  2  0
 13 31  1  0
 14 15  1  0
 15 16  2  0
 16 17  1  0
 16 31  1  0
 17 18  1  0
 17 49  1  0
 17 50  1  0
 18 19  1  0
 18 51  1  0
 19 20  2  0
 19 21  1  0
 21 22  2  0
 21 30  1  0
 22 23  1  0
 22 52  1  0
 23 24  1  0
 23 26  2  0
 24 25  1  0
 25 53  1  0
 25 54  1  0
 25 55  1  0
 26 27  1  0
 26 56  1  0
 27 28  1  0
 27 30  2  0
 28 29  1  0
 29 57  1  0
 29 58  1  0
 29 59  1  0
 30 60  1  0
 31 32  1  0
 32 33  2  0
 32 39  1  0
 33 34  1  0
 33 61  1  0
 34 35  2  0
 34 62  1  0
 35 36  1  0
 35 37  1  0
 37 38  1  0
 37 39  2  0
 39 63  1  0
M  END

