
     RDKit          3D

 30 32  0  0  0  0  0  0  0  0999 V2000
    1.1169   -0.8920    0.2804 O   0  0  0  0  0  0  0  0  0  0  0  0
    2.2360   -0.5564    0.0090 C   0  0  0  0  0  0  0  0  0  0  0  0
    3.1608   -1.4634   -0.5031 O   0  0  0  0  0  0  0  0  0  0  0  0
    4.3272   -0.7669   -0.7013 C   0  0  0  0  0  0  0  0  0  0  0  0
    5.4700   -1.5012   -1.2401 C   0  0  0  0  0  0  0  0  0  0  0  0
    6.6849   -0.8256   -1.4579 C   0  0  0  0  0  0  0  0  0  0  0  0
    7.7780   -1.5190   -1.9709 C   0  0  0  0  0  0  0  0  0  0  0  0
    7.6806   -2.8829   -2.2724 C   0  0  0  0  0  0  0  0  0  0  0  0
    6.4690   -3.5451   -2.0523 C   0  0  0  0  0  0  0  0  0  0  0  0
    6.3264   -5.4020   -2.4595 Br  0  0  0  0  0  0  0  0  0  0  0  0
    5.3607   -2.8707   -1.5393 C   0  0  0  0  0  0  0  0  0  0  0  0
    4.2841    0.4813   -0.3846 N   0  0  0  0  0  0  0  0  0  0  0  0
    2.9911    0.7269    0.0837 C   0  0  0  0  0  0  0  0  0  0  0  0
    2.6208    1.9754    0.5030 C   0  0  0  0  0  0  0  0  0  0  0  0
    1.3933    2.5420    1.0315 C   0  0  0  0  0  0  0  0  0  0  0  0
    0.1869    1.8329    1.2472 C   0  0  0  0  0  0  0  0  0  0  0  0
   -0.9354    2.4752    1.7615 C   0  0  0  0  0  0  0  0  0  0  0  0
   -0.8797    3.8396    2.0719 C   0  0  0  0  0  0  0  0  0  0  0  0
   -2.2886    4.6383    2.7156 Cl  0  0  0  0  0  0  0  0  0  0  0  0
    0.2977    4.5692    1.8703 C   0  0  0  0  0  0  0  0  0  0  0  0
    1.4147    3.9206    1.3564 C   0  0  0  0  0  0  0  0  0  0  0  0
    6.7475    0.2370   -1.2186 H   0  0  0  0  0  0  0  0  0  0  0  0
    8.7234   -0.9985   -2.1415 H   0  0  0  0  0  0  0  0  0  0  0  0
    8.5368   -3.4270   -2.6746 H   0  0  0  0  0  0  0  0  0  0  0  0
    4.4192   -3.3930   -1.3700 H   0  0  0  0  0  0  0  0  0  0  0  0
    3.4451    2.6911    0.4146 H   0  0  0  0  0  0  0  0  0  0  0  0
    0.1349    0.7714    1.0076 H   0  0  0  0  0  0  0  0  0  0  0  0
   -1.8614    1.9214    1.9244 H   0  0  0  0  0  0  0  0  0  0  0  0
    0.3293    5.6317    2.1164 H   0  0  0  0  0  0  0  0  0  0  0  0
    2.3340    4.4908    1.1989 H   0  0  0  0  0  0  0  0  0  0  0  0
  1  2  2  0
  2  3  1  0
  2 13  1  0
  3  4  1  0
  4  5  1  0
  4 12  2  0
  5  6  2  0
  5 11  1  0
  6  7  1  0
  6 22  1  0
  7  8  2  0
  7 23  1  0
  8  9  1  0
  8 24  1  0
  9 10  1  0
  9 11  2  0
 11 25  1  0
 12 13  1  0
 13 14  2  0
 14 15  1  0
 14 26  1  0
 15 16  2  0
 15 21  1  0
 16 17  1  0
 16 27  1  0
 17 18  2  0
 17 28  1  0
 18 19  1  0
 18 20  1  0
 20 21  2  0
 20 29  1  0
 21 30  1  0
M  END

