
     RDKit          3D

 31 32  0  0  0  0  0  0  0  0999 V2000
    0.6651   -0.0320    0.4594 O   0  0  0  0  0  0  0  0  0  0  0  0
    1.8621   -0.1246    0.3956 C   0  0  0  0  0  0  0  0  0  0  0  0
    2.4403   -1.2898    0.0253 O   0  0  0  0  0  0  0  0  0  0  0  0
    2.7900    1.0173    0.7089 C   0  0  0  0  0  0  0  0  0  0  0  0
    4.1472    0.8419    1.0342 C   0  0  0  0  0  0  0  0  0  0  0  0
    4.9541    1.9346    1.3341 C   0  0  0  0  0  0  0  0  0  0  0  0
    4.4300    3.2443    1.3186 C   0  0  0  0  0  0  0  0  0  0  0  0
    5.2310    4.4316    1.6188 C   0  0  0  0  0  0  0  0  0  0  0  0
    6.5377    4.4807    1.9566 C   0  0  0  0  0  0  0  0  0  0  0  0
    7.1763    5.7858    2.2647 C   0  0  0  0  0  0  0  0  0  0  0  0
    6.5381    6.8245    2.3007 O   0  0  0  0  0  0  0  0  0  0  0  0
    8.6377    5.8199    2.6614 C   0  0  0  0  0  0  0  0  0  0  0  0
    8.9629    6.6757    3.7266 C   0  0  0  0  0  0  0  0  0  0  0  0
   10.2638    6.7860    4.2000 C   0  0  0  0  0  0  0  0  0  0  0  0
   11.2881    6.0533    3.5929 C   0  0  0  0  0  0  0  0  0  0  0  0
   12.9069    6.2054    4.2008 Cl  0  0  0  0  0  0  0  0  0  0  0  0
   11.0079    5.2164    2.4971 C   0  0  0  0  0  0  0  0  0  0  0  0
   12.2863    4.3452    1.7170 Cl  0  0  0  0  0  0  0  0  0  0  0  0
    9.6785    5.1076    2.0377 C   0  0  0  0  0  0  0  0  0  0  0  0
    9.3704    4.1311    0.6235 Cl  0  0  0  0  0  0  0  0  0  0  0  0
    3.0646    3.4076    1.0030 C   0  0  0  0  0  0  0  0  0  0  0  0
    2.2548    2.3138    0.7133 C   0  0  0  0  0  0  0  0  0  0  0  0
    3.3897   -1.1710   -0.1163 H   0  0  0  0  0  0  0  0  0  0  0  0
    4.5850   -0.1594    1.0877 H   0  0  0  0  0  0  0  0  0  0  0  0
    6.0022    1.7671    1.5888 H   0  0  0  0  0  0  0  0  0  0  0  0
    4.7095    5.3934    1.5636 H   0  0  0  0  0  0  0  0  0  0  0  0
    7.1454    3.5790    2.0366 H   0  0  0  0  0  0  0  0  0  0  0  0
    8.1583    7.2574    4.1795 H   0  0  0  0  0  0  0  0  0  0  0  0
   10.5043    7.4395    5.0395 H   0  0  0  0  0  0  0  0  0  0  0  0
    2.6393    4.4144    0.9917 H   0  0  0  0  0  0  0  0  0  0  0  0
    1.1953    2.4395    0.4834 H   0  0  0  0  0  0  0  0  0  0  0  0
  1  2  2  0
  2  3  1  0
  2  4  1  0
  3 23  1  0
  4  5  2  0
  4 22  1  0
  5  6  1  0
  5 24  1  0
  6  7  2  0
  6 25  1  0
  7  8  1  0
  7 21  1  0
  8  9  2  0
  8 26  1  0
  9 10  1  0
  9 27  1  0
 10 11  2  0
 10 12  1  0
 12 13  2  0
 12 19  1  0
 13 14  1  0
 13 28  1  0
 14 15  2  0
 14 29  1  0
 15 16  1  0
 15 17  1  0
 17 18  1  0
 17 19  2  0
 19 20  1  0
 21 22  2  0
 21 30  1  0
 22 31  1  0
M  END

