
     RDKit          3D

 38 39  0  0  0  0  0  0  0  0999 V2000
    3.0092   -3.0400    2.5832 C   0  0  0  0  0  0  0  0  0  0  0  0
    2.5466   -1.7280    1.9145 C   0  0  1  0  0  0  0  0  0  0  0  0
    1.0069   -1.6895    1.8777 C   0  0  0  0  0  0  0  0  0  0  0  0
    3.0402   -0.5372    2.7641 C   0  0  0  0  0  0  0  0  0  0  0  0
    3.1065   -1.5467    0.4656 C   0  0  2  0  0  0  0  0  0  0  0  0
    2.8479   -0.5203    0.1565 H   0  0  0  0  0  0  0  0  0  0  0  0
    2.5112   -2.4119   -0.6740 C   0  0  0  0  0  0  0  0  0  0  0  0
    2.7088   -3.8532   -0.5971 N   0  0  0  0  0  0  0  0  0  0  0  0
    1.7473   -4.8067   -0.3234 C   0  0  0  0  0  0  0  0  0  0  0  0
    2.3980   -6.0202   -0.3709 C   0  0  0  0  0  0  0  0  0  0  0  0
    3.7234   -5.8394   -0.6710 N   0  0  0  0  0  0  0  0  0  0  0  0
    3.8766   -4.5407   -0.8025 C   0  0  0  0  0  0  0  0  0  0  0  0
    4.5641   -1.6111    0.4595 N   0  0  0  0  0  0  0  0  0  0  0  0
    5.2892   -0.8439   -0.3873 C   0  0  0  0  0  0  0  0  0  0  0  0
    4.8378   -0.0872   -1.2296 O   0  0  0  0  0  0  0  0  0  0  0  0
    6.7036   -0.9567   -0.2703 N   0  0  0  0  0  0  0  0  0  0  0  0
    7.4488   -1.6845    0.6169 C   0  0  0  0  0  0  0  0  0  0  0  0
    6.9546   -2.4657    1.5455 N   0  0  0  0  0  0  0  0  0  0  0  0
    7.9033   -3.0781    2.2977 N   0  0  0  0  0  0  0  0  0  0  0  0
    9.1084   -2.7724    1.9493 C   0  0  0  0  0  0  0  0  0  0  0  0
    9.2075   -1.6497    0.6014 S   0  0  0  0  0  0  0  0  0  0  0  0
    2.5906   -3.1013    3.6008 H   0  0  0  0  0  0  0  0  0  0  0  0
    4.1045   -3.0924    2.6907 H   0  0  0  0  0  0  0  0  0  0  0  0
    2.6780   -3.9322    2.0338 H   0  0  0  0  0  0  0  0  0  0  0  0
    0.6065   -1.6613    2.9033 H   0  0  0  0  0  0  0  0  0  0  0  0
    0.5771   -2.5764    1.3887 H   0  0  0  0  0  0  0  0  0  0  0  0
    0.6357   -0.7933    1.3528 H   0  0  0  0  0  0  0  0  0  0  0  0
    2.6594   -0.6178    3.7945 H   0  0  0  0  0  0  0  0  0  0  0  0
    2.6914    0.4231    2.3498 H   0  0  0  0  0  0  0  0  0  0  0  0
    4.1386   -0.5040    2.8154 H   0  0  0  0  0  0  0  0  0  0  0  0
    2.9623   -2.0446   -1.6085 H   0  0  0  0  0  0  0  0  0  0  0  0
    1.4316   -2.2278   -0.7528 H   0  0  0  0  0  0  0  0  0  0  0  0
    0.7093   -4.5412   -0.1380 H   0  0  0  0  0  0  0  0  0  0  0  0
    1.9735   -7.0113   -0.2118 H   0  0  0  0  0  0  0  0  0  0  0  0
    4.8062   -4.0298   -1.0502 H   0  0  0  0  0  0  0  0  0  0  0  0
    5.0726   -2.2105    1.1151 H   0  0  0  0  0  0  0  0  0  0  0  0
    7.1835   -0.3701   -0.9436 H   0  0  0  0  0  0  0  0  0  0  0  0
   10.0032   -3.1650    2.4342 H   0  0  0  0  0  0  0  0  0  0  0  0
  2  1  1  1
  1 22  1  0
  1 23  1  0
  1 24  1  0
  2  3  1  0
  2  4  1  0
  2  5  1  0
  3 25  1  0
  3 26  1  0
  3 27  1  0
  4 28  1  0
  4 29  1  0
  4 30  1  0
  5  6  1  6
  5  7  1  0
  5 13  1  0
  7  8  1  0
  7 31  1  0
  7 32  1  0
  8  9  1  0
  8 12  1  0
  9 10  2  0
  9 33  1  0
 10 11  1  0
 10 34  1  0
 11 12  2  0
 12 35  1  0
 13 14  1  0
 13 36  1  0
 14 15  2  0
 14 16  1  0
 16 17  1  0
 16 37  1  0
 17 18  2  0
 17 21  1  0
 18 19  1  0
 19 20  2  0
 20 21  1  0
 20 38  1  0
M  END

