
     RDKit          3D

 73 73  0  0  0  0  0  0  0  0999 V2000
    2.3666   -1.6841   -2.4574 C   0  0  0  0  0  0  0  0  0  0  0  0
    3.5903   -0.8020   -2.6063 C   0  0  0  0  0  0  0  0  0  0  0  0
    3.9510   -0.2825   -1.3142 O   0  0  0  0  0  0  0  0  0  0  0  0
    4.7436    1.1337   -1.1769 P   0  0  1  0  0  0  0  0  0  0  0  0
    4.4263    2.1204   -2.2525 O   0  0  0  0  0  0  0  0  0  0  0  0
    4.3674    1.5646    0.3148 O   0  0  0  0  0  0  0  0  0  0  0  0
    3.5900    2.7242    0.6523 C   0  0  0  0  0  0  0  0  0  0  0  0
    2.1669    2.3372    1.0117 C   0  0  0  0  0  0  0  0  0  0  0  0
    6.5221    0.6616   -1.1450 C   0  0  0  0  0  0  0  0  0  0  0  0
    7.4436    1.7863   -1.7037 C   0  0  0  0  0  0  0  0  0  0  0  0
    7.2881    3.2406   -1.2268 C   0  0  0  0  0  0  0  0  0  0  0  0
    7.5920    3.4977    0.2358 C   0  0  0  0  0  0  0  0  0  0  0  0
    7.3482    2.6422    1.0680 O   0  0  0  0  0  0  0  0  0  0  0  0
    8.1571    4.8252    0.6714 C   0  0  0  0  0  0  0  0  0  0  0  0
    8.4393    5.8901   -0.2003 C   0  0  0  0  0  0  0  0  0  0  0  0
    8.9546    7.0832    0.3114 C   0  0  0  0  0  0  0  0  0  0  0  0
    9.2010    7.2447    1.6758 C   0  0  0  0  0  0  0  0  0  0  0  0
    8.9177    6.1818    2.5566 C   0  0  0  0  0  0  0  0  0  0  0  0
    9.1225    6.2507    3.9490 N   0  0  0  0  0  0  0  0  0  0  0  0
    9.6521    7.2776    4.6935 C   0  0  0  0  0  0  0  0  0  0  0  0
   10.0736    8.3195    4.2204 O   0  0  0  0  0  0  0  0  0  0  0  0
    9.7011    7.0297    6.1841 C   0  0  0  0  0  0  0  0  0  0  0  0
   10.6277    7.7857    6.9213 C   0  0  0  0  0  0  0  0  0  0  0  0
   10.7331    7.6316    8.3011 C   0  0  0  0  0  0  0  0  0  0  0  0
    9.8867    6.7236    8.9392 C   0  0  0  0  0  0  0  0  0  0  0  0
    9.9890    6.5546   10.4071 N   0  0  0  0  0  0  0  0  0  0  0  0
   10.8229    7.2252   10.9922 O   0  0  0  0  0  0  0  0  0  0  0  0
    9.2275    5.7611   10.9352 O   0  0  0  0  0  0  0  0  0  0  0  0
    8.9408    5.9751    8.2403 C   0  0  0  0  0  0  0  0  0  0  0  0
    8.8525    6.1343    6.8574 C   0  0  0  0  0  0  0  0  0  0  0  0
    8.3973    4.9877    2.0431 C   0  0  0  0  0  0  0  0  0  0  0  0
    7.0909   -0.2915    0.3477 P   0  0  0  0  0  0  0  0  0  0  0  0
    6.4433   -0.1555    1.6773 O   0  0  0  0  0  0  0  0  0  0  0  0
    7.0111   -1.8366   -0.2032 O   0  0  0  0  0  0  0  0  0  0  0  0
    6.0256   -2.7506    0.3106 C   0  0  0  0  0  0  0  0  0  0  0  0
    6.4051   -4.1536   -0.1181 C   0  0  0  0  0  0  0  0  0  0  0  0
    8.6875   -0.0247    0.2518 O   0  0  0  0  0  0  0  0  0  0  0  0
    9.5814   -0.6100    1.2171 C   0  0  0  0  0  0  0  0  0  0  0  0
    9.6976    0.2389    2.4715 C   0  0  0  0  0  0  0  0  0  0  0  0
    2.0877   -2.1090   -3.4348 H   0  0  0  0  0  0  0  0  0  0  0  0
    1.5135   -1.1045   -2.0729 H   0  0  0  0  0  0  0  0  0  0  0  0
    2.5592   -2.5153   -1.7617 H   0  0  0  0  0  0  0  0  0  0  0  0
    3.3975    0.0394   -3.2908 H   0  0  0  0  0  0  0  0  0  0  0  0
    4.4414   -1.3804   -3.0106 H   0  0  0  0  0  0  0  0  0  0  0  0
    3.6023    3.4330   -0.1920 H   0  0  0  0  0  0  0  0  0  0  0  0
    4.1069    3.1849    1.5073 H   0  0  0  0  0  0  0  0  0  0  0  0
    1.6462    1.9014    0.1448 H   0  0  0  0  0  0  0  0  0  0  0  0
    1.6038    3.2265    1.3384 H   0  0  0  0  0  0  0  0  0  0  0  0
    2.1588    1.5997    1.8287 H   0  0  0  0  0  0  0  0  0  0  0  0
    6.5632   -0.1417   -1.8995 H   0  0  0  0  0  0  0  0  0  0  0  0
    7.2533    1.8120   -2.7871 H   0  0  0  0  0  0  0  0  0  0  0  0
    8.4840    1.4590   -1.5694 H   0  0  0  0  0  0  0  0  0  0  0  0
    6.2494    3.5696   -1.4108 H   0  0  0  0  0  0  0  0  0  0  0  0
    7.9120    3.8712   -1.8753 H   0  0  0  0  0  0  0  0  0  0  0  0
    8.2577    5.8026   -1.2720 H   0  0  0  0  0  0  0  0  0  0  0  0
    9.1736    7.9119   -0.3664 H   0  0  0  0  0  0  0  0  0  0  0  0
    9.6102    8.1719    2.0695 H   0  0  0  0  0  0  0  0  0  0  0  0
    8.9030    5.3965    4.4470 H   0  0  0  0  0  0  0  0  0  0  0  0
   11.2588    8.4970    6.3861 H   0  0  0  0  0  0  0  0  0  0  0  0
   11.4514    8.1992    8.8922 H   0  0  0  0  0  0  0  0  0  0  0  0
    8.2893    5.2921    8.7845 H   0  0  0  0  0  0  0  0  0  0  0  0
    8.0881    5.5706    6.3174 H   0  0  0  0  0  0  0  0  0  0  0  0
    8.1609    4.1447    2.6980 H   0  0  0  0  0  0  0  0  0  0  0  0
    5.0335   -2.4693   -0.0799 H   0  0  0  0  0  0  0  0  0  0  0  0
    5.9835   -2.6583    1.4074 H   0  0  0  0  0  0  0  0  0  0  0  0
    6.4635   -4.2286   -1.2154 H   0  0  0  0  0  0  0  0  0  0  0  0
    5.6525   -4.8748    0.2391 H   0  0  0  0  0  0  0  0  0  0  0  0
    7.3842   -4.4415    0.2959 H   0  0  0  0  0  0  0  0  0  0  0  0
   10.5499   -0.6954    0.7002 H   0  0  0  0  0  0  0  0  0  0  0  0
    9.2435   -1.6326    1.4558 H   0  0  0  0  0  0  0  0  0  0  0  0
   10.0425    1.2542    2.2228 H   0  0  0  0  0  0  0  0  0  0  0  0
   10.4235   -0.2167    3.1650 H   0  0  0  0  0  0  0  0  0  0  0  0
    8.7211    0.3171    2.9703 H   0  0  0  0  0  0  0  0  0  0  0  0
  1  2  1  0
  1 40  1  0
  1 41  1  0
  1 42  1  0
  2  3  1  0
  2 43  1  0
  2 44  1  0
  3  4  1  0
  4  5  1  6
  4  6  1  0
  4  9  2  0
  6  7  1  0
  7  8  1  0
  7 45  1  0
  7 46  1  0
  8 47  1  0
  8 48  1  0
  8 49  1  0
  9 10  1  0
  9 50  1  0
 10 11  1  0
 10 51  1  0
 10 52  1  0
 11 12  1  0
 11 53  1  0
 11 54  1  0
 12 13  2  0
 12 14  1  0
 14 15  2  0
 14 31  1  0
 15 16  1  0
 15 55  1  0
 16 17  2  0
 16 56  1  0
 17 18  1  0
 17 57  1  0
 18 19  1  0
 18 31  2  0
 19 20  1  0
 19 58  1  0
 20 21  2  0
 20 22  1  0
 22 23  2  0
 22 30  1  0
 23 24  1  0
 23 59  1  0
 24 25  2  0
 24 60  1  0
 25 26  1  0
 25 29  1  0
 26 27  2  0
 26 28  1  0
 29 30  2  0
 29 61  1  0
 30 62  1  0
 31 63  1  0
 32 33  2  0
 32 34  1  0
 32 37  2  0
 34 35  1  0
 35 36  1  0
 35 64  1  0
 35 65  1  0
 36 66  1  0
 36 67  1  0
 36 68  1  0
 37 38  1  0
 38 39  1  0
 38 69  1  0
 38 70  1  0
 39 71  1  0
 39 72  1  0
 39 73  1  0
M  CHG  4   5  -1  26   1  28  -1  37   1
M  END

