
     RDKit          3D

 91 99  0  0  0  0  0  0  0  0999 V2000
    0.1197   -0.0182   -0.1736 C   0  0  0  0  0  0  0  0  0  0  0  0
    1.5419    0.5114   -0.4311 C   0  0  1  0  0  0  0  0  0  0  0  0
    2.4621   -0.6958   -0.7277 C   0  0  0  0  0  0  0  0  0  0  0  0
    1.4966    1.4405   -1.6667 C   0  0  0  0  0  0  0  0  0  0  0  0
    2.0996    1.2926    0.7742 C   0  0  0  0  0  0  0  0  0  0  0  0
    1.3745    1.4848    1.9612 C   0  0  0  0  0  0  0  0  0  0  0  0
    1.9073    2.2006    3.0384 C   0  0  0  0  0  0  0  0  0  0  0  0
    3.1915    2.7404    2.9555 C   0  0  0  0  0  0  0  0  0  0  0  0
    3.7431    3.4699    4.0559 N   0  0  0  0  0  0  0  0  0  0  0  0
    4.2603    2.9395    5.2418 C   0  0  0  0  0  0  0  0  0  0  0  0
    4.3687    1.5100    5.5883 C   0  0  0  0  0  0  0  0  0  0  0  0
    4.4585    0.4543    4.6616 C   0  0  0  0  0  0  0  0  0  0  0  0
    4.5929   -0.8652    5.0916 C   0  0  0  0  0  0  0  0  0  0  0  0
    4.6449   -1.1973    6.4580 C   0  0  0  0  0  0  0  0  0  0  0  0
    4.7813   -2.6042    6.9087 C   0  0  0  0  0  0  0  0  0  0  0  0
    5.5176   -3.5479    6.1661 C   0  0  0  0  0  0  0  0  0  0  0  0
    5.6432   -4.8708    6.5824 C   0  0  0  0  0  0  0  0  0  0  0  0
    5.0429   -5.3091    7.7778 C   0  0  0  0  0  0  0  0  0  0  0  0
    5.1738   -6.6517    8.2092 N   0  0  0  0  0  0  0  0  0  0  0  0
    6.4102   -7.3345    8.0514 C   0  0  0  0  0  0  0  0  0  0  0  0
    7.6267   -6.6933    8.3491 C   0  0  0  0  0  0  0  0  0  0  0  0
    8.8383   -7.3668    8.1863 C   0  0  0  0  0  0  0  0  0  0  0  0
    8.8613   -8.6929    7.7421 C   0  0  0  0  0  0  0  0  0  0  0  0
    7.6539   -9.3373    7.4538 C   0  0  0  0  0  0  0  0  0  0  0  0
    6.4386   -8.6660    7.5976 C   0  0  0  0  0  0  0  0  0  0  0  0
    4.0711   -7.3214    8.8047 C   0  0  0  0  0  0  0  0  0  0  0  0
    2.7779   -7.1942    8.2647 C   0  0  0  0  0  0  0  0  0  0  0  0
    1.6974   -7.8495    8.8573 C   0  0  0  0  0  0  0  0  0  0  0  0
    1.8853   -8.6556    9.9848 C   0  0  0  0  0  0  0  0  0  0  0  0
    3.1704   -8.7924   10.5194 C   0  0  0  0  0  0  0  0  0  0  0  0
    4.2539   -8.1272    9.9434 C   0  0  0  0  0  0  0  0  0  0  0  0
    4.3098   -4.3735    8.5317 C   0  0  0  0  0  0  0  0  0  0  0  0
    4.1802   -3.0560    8.0998 C   0  0  0  0  0  0  0  0  0  0  0  0
    4.5667   -0.1340    7.3808 C   0  0  0  0  0  0  0  0  0  0  0  0
    4.4361    1.1839    6.9591 C   0  0  0  0  0  0  0  0  0  0  0  0
    4.6433    3.8897    6.0700 N   0  0  0  0  0  0  0  0  0  0  0  0
    4.3920    5.0769    5.4455 C   0  0  0  0  0  0  0  0  0  0  0  0
    4.6401    6.3886    5.9503 C   0  0  0  0  0  0  0  0  0  0  0  0
    5.2214    6.6328    7.2180 C   0  0  0  0  0  0  0  0  0  0  0  0
    5.4197    7.9295    7.6546 C   0  0  0  0  0  0  0  0  0  0  0  0
    5.0429    9.0262    6.8401 C   0  0  0  0  0  0  0  0  0  0  0  0
    4.4810    8.8117    5.5972 C   0  0  0  0  0  0  0  0  0  0  0  0
    4.2643    7.4908    5.1162 C   0  0  0  0  0  0  0  0  0  0  0  0
    3.6886    7.2474    3.8346 C   0  0  0  0  0  0  0  0  0  0  0  0
    3.0141    8.1981    2.9018 C   0  0  0  0  0  0  0  0  0  0  0  0
    3.3986    7.9474    1.6199 C   0  0  0  0  0  0  0  0  0  0  0  0
    2.6106    6.7960    1.0986 C   0  0  0  0  0  0  0  0  0  0  0  0
    2.7433    5.7762    1.9987 C   0  0  0  0  0  0  0  0  0  0  0  0
    3.4336    5.9408    3.3222 C   0  0  0  0  0  0  0  0  0  0  0  0
    3.8164    4.8608    4.1756 C   0  0  0  0  0  0  0  0  0  0  0  0
    3.9363    2.5609    1.7825 C   0  0  0  0  0  0  0  0  0  0  0  0
    3.3925    1.8509    0.7141 C   0  0  0  0  0  0  0  0  0  0  0  0
   -0.2374   -0.5685   -1.0580 H   0  0  0  0  0  0  0  0  0  0  0  0
   -0.5954    0.7972    0.0175 H   0  0  0  0  0  0  0  0  0  0  0  0
    0.0866   -0.7117    0.6812 H   0  0  0  0  0  0  0  0  0  0  0  0
    2.0798   -1.2660   -1.5900 H   0  0  0  0  0  0  0  0  0  0  0  0
    2.5108   -1.3778    0.1360 H   0  0  0  0  0  0  0  0  0  0  0  0
    3.4899   -0.3824   -0.9665 H   0  0  0  0  0  0  0  0  0  0  0  0
    1.1021    0.8965   -2.5404 H   0  0  0  0  0  0  0  0  0  0  0  0
    2.4944    1.8200   -1.9349 H   0  0  0  0  0  0  0  0  0  0  0  0
    0.8445    2.3095   -1.4848 H   0  0  0  0  0  0  0  0  0  0  0  0
    0.3696    1.0763    2.0651 H   0  0  0  0  0  0  0  0  0  0  0  0
    1.3239    2.3396    3.9508 H   0  0  0  0  0  0  0  0  0  0  0  0
    4.4360    0.6506    3.5914 H   0  0  0  0  0  0  0  0  0  0  0  0
    4.6394   -1.6579    4.3417 H   0  0  0  0  0  0  0  0  0  0  0  0
    6.0173   -3.2392    5.2451 H   0  0  0  0  0  0  0  0  0  0  0  0
    6.2200   -5.5751    5.9805 H   0  0  0  0  0  0  0  0  0  0  0  0
    7.6160   -5.6631    8.7099 H   0  0  0  0  0  0  0  0  0  0  0  0
    9.7733   -6.8522    8.4231 H   0  0  0  0  0  0  0  0  0  0  0  0
    9.8111   -9.2193    7.6223 H   0  0  0  0  0  0  0  0  0  0  0  0
    7.6560  -10.3716    7.0998 H   0  0  0  0  0  0  0  0  0  0  0  0
    5.5008   -9.1710    7.3585 H   0  0  0  0  0  0  0  0  0  0  0  0
    2.6258   -6.5780    7.3766 H   0  0  0  0  0  0  0  0  0  0  0  0
    0.7001   -7.7386    8.4234 H   0  0  0  0  0  0  0  0  0  0  0  0
    1.0384   -9.1724   10.4422 H   0  0  0  0  0  0  0  0  0  0  0  0
    3.3322   -9.4138   11.4042 H   0  0  0  0  0  0  0  0  0  0  0  0
    5.2518   -8.2283   10.3742 H   0  0  0  0  0  0  0  0  0  0  0  0
    3.8327   -4.6874    9.4617 H   0  0  0  0  0  0  0  0  0  0  0  0
    3.5858   -2.3640    8.7007 H   0  0  0  0  0  0  0  0  0  0  0  0
    4.6347   -0.3418    8.4509 H   0  0  0  0  0  0  0  0  0  0  0  0
    4.3957    1.9959    7.6862 H   0  0  0  0  0  0  0  0  0  0  0  0
    5.5033    5.7762    7.8331 H   0  0  0  0  0  0  0  0  0  0  0  0
    5.8686    8.1131    8.6342 H   0  0  0  0  0  0  0  0  0  0  0  0
    5.2010   10.0464    7.1992 H   0  0  0  0  0  0  0  0  0  0  0  0
    4.1943    9.6500    4.9569 H   0  0  0  0  0  0  0  0  0  0  0  0
    1.9234    8.2341    3.0711 H   0  0  0  0  0  0  0  0  0  0  0  0
    4.4831    7.8418    1.4415 H   0  0  0  0  0  0  0  0  0  0  0  0
    2.1790    6.6419    0.1037 H   0  0  0  0  0  0  0  0  0  0  0  0
    2.3832    4.7807    1.7339 H   0  0  0  0  0  0  0  0  0  0  0  0
    4.9414    2.9828    1.7145 H   0  0  0  0  0  0  0  0  0  0  0  0
    3.9968    1.7297   -0.1875 H   0  0  0  0  0  0  0  0  0  0  0  0
  2  1  1  1
  1 53  1  0
  1 54  1  0
  1 55  1  0
  2  3  1  0
  2  4  1  0
  2  5  1  0
  3 56  1  0
  3 57  1  0
  3 58  1  0
  4 59  1  0
  4 60  1  0
  4 61  1  0
  5  6  2  0
  5 52  1  0
  6  7  1  0
  6 62  1  0
  7  8  2  0
  7 63  1  0
  8  9  1  0
  8 51  1  0
  9 10  1  0
  9 50  1  0
 10 11  1  0
 10 36  2  0
 11 12  2  0
 11 35  1  0
 12 13  1  0
 12 64  1  0
 13 14  2  0
 13 65  1  0
 14 15  1  0
 14 34  1  0
 15 16  2  0
 15 33  1  0
 16 17  1  0
 16 66  1  0
 17 18  2  0
 17 67  1  0
 18 19  1  0
 18 32  1  0
 19 20  1  0
 19 26  1  0
 20 21  2  0
 20 25  1  0
 21 22  1  0
 21 68  1  0
 22 23  2  0
 22 69  1  0
 23 24  1  0
 23 70  1  0
 24 25  2  0
 24 71  1  0
 25 72  1  0
 26 27  2  0
 26 31  1  0
 27 28  1  0
 27 73  1  0
 28 29  2  0
 28 74  1  0
 29 30  1  0
 29 75  1  0
 30 31  2  0
 30 76  1  0
 31 77  1  0
 32 33  2  0
 32 78  1  0
 33 79  1  0
 34 35  2  0
 34 80  1  0
 35 81  1  0
 36 37  1  0
 37 38  2  0
 37 50  1  0
 38 39  1  0
 38 43  1  0
 39 40  2  0
 39 82  1  0
 40 41  1  0
 40 83  1  0
 41 42  2  0
 41 84  1  0
 42 43  1  0
 42 85  1  0
 43 44  2  0
 44 45  1  0
 44 49  1  0
 45 46  2  0
 45 86  1  0
 46 47  1  0
 46 87  1  0
 47 48  2  0
 47 88  1  0
 48 49  1  0
 48 89  1  0
 49 50  2  0
 51 52  2  0
 51 90  1  0
 52 91  1  0
M  END

