
     RDKit          3D

 45 49  0  0  0  0  0  0  0  0999 V2000
   17.1189   -0.5188   -2.7393 O   0  0  0  0  0  0  0  0  0  0  0  0
   17.1215    0.4941   -3.3888 C   0  0  0  0  0  0  0  0  0  0  0  0
   16.4763    1.6178   -2.8548 O   0  0  0  0  0  0  0  0  0  0  0  0
   16.4245    2.8310   -3.4667 C   0  0  0  0  0  0  0  0  0  0  0  0
   15.7422    3.8445   -2.7781 C   0  0  0  0  0  0  0  0  0  0  0  0
   15.6822    5.1185   -3.3740 C   0  0  0  0  0  0  0  0  0  0  0  0
   16.2645    5.3561   -4.6374 C   0  0  0  0  0  0  0  0  0  0  0  0
   16.9213    4.3331   -5.3003 C   0  0  0  0  0  0  0  0  0  0  0  0
   17.0210    3.0453   -4.7305 C   0  0  0  0  0  0  0  0  0  0  0  0
   17.6766    1.9124   -5.3297 C   0  0  0  0  0  0  0  0  0  0  0  0
   17.7210    0.7070   -4.6939 C   0  0  0  0  0  0  0  0  0  0  0  0
   18.4852   -0.3302   -5.4741 C   0  0  0  0  0  0  0  0  0  0  0  0
   18.6165    0.3282   -6.8717 C   0  0  0  0  0  0  0  0  0  0  0  0
   18.4176    1.8497   -6.6444 C   0  0  0  0  0  0  0  0  0  0  0  0
   15.0559    6.1569   -2.7724 O   0  0  0  0  0  0  0  0  0  0  0  0
   14.7270    5.9414   -1.3671 C   0  0  0  0  0  0  0  0  0  0  0  0
   14.1658    4.6778   -1.0898 N   0  0  0  0  0  0  0  0  0  0  0  0
   12.7329    4.4571   -1.2321 C   0  0  0  0  0  0  0  0  0  0  0  0
   12.1639    4.1705   -2.6378 C   0  0  2  0  0  0  0  0  0  0  0  0
   12.8113    3.4264   -3.1379 H   0  0  0  0  0  0  0  0  0  0  0  0
   11.9437    5.3989   -3.5502 C   0  0  0  0  0  0  0  0  0  0  0  0
   10.4479    5.6959   -3.3761 C   0  0  0  0  0  0  0  0  0  0  0  0
    9.8873    4.2866   -3.1928 C   0  0  0  0  0  0  0  0  0  0  0  0
   10.8673    3.5932   -2.4372 O   0  0  0  0  0  0  0  0  0  0  0  0
   15.0760    3.5922   -1.4385 C   0  0  0  0  0  0  0  0  0  0  0  0
   16.1878    6.3584   -5.0618 H   0  0  0  0  0  0  0  0  0  0  0  0
   17.3758    4.5223   -6.2752 H   0  0  0  0  0  0  0  0  0  0  0  0
   17.9714   -1.3040   -5.4985 H   0  0  0  0  0  0  0  0  0  0  0  0
   19.4696   -0.5151   -5.0053 H   0  0  0  0  0  0  0  0  0  0  0  0
   17.8139   -0.0464   -7.5271 H   0  0  0  0  0  0  0  0  0  0  0  0
   19.5709    0.0964   -7.3669 H   0  0  0  0  0  0  0  0  0  0  0  0
   17.8725    2.3389   -7.4680 H   0  0  0  0  0  0  0  0  0  0  0  0
   19.3808    2.3853   -6.5496 H   0  0  0  0  0  0  0  0  0  0  0  0
   14.0377    6.7554   -1.1087 H   0  0  0  0  0  0  0  0  0  0  0  0
   15.6741    6.0677   -0.8104 H   0  0  0  0  0  0  0  0  0  0  0  0
   12.2083    5.3274   -0.8021 H   0  0  0  0  0  0  0  0  0  0  0  0
   12.4527    3.5922   -0.6081 H   0  0  0  0  0  0  0  0  0  0  0  0
   12.1564    5.1311   -4.5978 H   0  0  0  0  0  0  0  0  0  0  0  0
   12.6021    6.2413   -3.2983 H   0  0  0  0  0  0  0  0  0  0  0  0
   10.0074    6.2340   -4.2291 H   0  0  0  0  0  0  0  0  0  0  0  0
   10.2678    6.2969   -2.4691 H   0  0  0  0  0  0  0  0  0  0  0  0
    9.7292    3.7965   -4.1761 H   0  0  0  0  0  0  0  0  0  0  0  0
    8.9337    4.2519   -2.6421 H   0  0  0  0  0  0  0  0  0  0  0  0
   14.5291    2.6385   -1.4620 H   0  0  0  0  0  0  0  0  0  0  0  0
   15.8472    3.4733   -0.6519 H   0  0  0  0  0  0  0  0  0  0  0  0
  1  2  2  0
  2  3  1  0
  2 11  1  0
  3  4  1  0
  4  5  2  0
  4  9  1  0
  5  6  1  0
  5 25  1  0
  6  7  2  0
  6 15  1  0
  7  8  1  0
  7 26  1  0
  8  9  2  0
  8 27  1  0
  9 10  1  0
 10 11  2  0
 10 14  1  0
 11 12  1  0
 12 13  1  0
 12 28  1  0
 12 29  1  0
 13 14  1  0
 13 30  1  0
 13 31  1  0
 14 32  1  0
 14 33  1  0
 15 16  1  0
 16 17  1  0
 16 34  1  0
 16 35  1  0
 17 18  1  0
 17 25  1  0
 18 19  1  0
 18 36  1  0
 18 37  1  0
 19 20  1  6
 19 21  1  0
 19 24  1  0
 21 22  1  0
 21 38  1  0
 21 39  1  0
 22 23  1  0
 22 40  1  0
 22 41  1  0
 23 24  1  0
 23 42  1  0
 23 43  1  0
 25 44  1  0
 25 45  1  0
M  END

