
     RDKit          3D

 43 44  0  0  0  0  0  0  0  0999 V2000
    1.3071    0.0374    0.6434 C   0  0  0  0  0  0  0  0  0  0  0  0
    2.3152    0.3551   -0.3411 N   0  0  0  0  0  0  0  0  0  0  0  0
    2.8303   -0.7287   -1.1670 C   0  0  1  0  0  0  0  0  0  0  0  0
    2.3783   -0.5354   -2.6199 C   0  0  0  0  0  0  0  0  0  0  0  0
    2.7579    0.6284   -3.3125 C   0  0  0  0  0  0  0  0  0  0  0  0
    2.3335    0.8625   -4.6174 C   0  0  0  0  0  0  0  0  0  0  0  0
    2.8452    2.3190   -5.4449 Cl  0  0  0  0  0  0  0  0  0  0  0  0
    1.4986   -0.0450   -5.2779 C   0  0  0  0  0  0  0  0  0  0  0  0
    1.0928   -1.1924   -4.6027 C   0  0  0  0  0  0  0  0  0  0  0  0
    1.5283   -1.4286   -3.2924 C   0  0  0  0  0  0  0  0  0  0  0  0
    0.9276   -2.8940   -2.5126 Cl  0  0  0  0  0  0  0  0  0  0  0  0
    4.3832   -0.8869   -0.9875 C   0  0  1  0  0  0  0  0  0  0  0  0
    4.8692    0.4639   -1.1237 O   0  0  0  0  0  0  0  0  0  0  0  0
    6.2489    0.7266   -1.2035 C   0  0  0  0  0  0  0  0  0  0  0  0
    4.6959   -1.4037    0.4382 C   0  0  0  0  0  0  0  0  0  0  0  0
    4.3702   -2.8906    0.6519 C   0  0  0  0  0  0  0  0  0  0  0  0
    5.0285   -3.8138   -0.3930 C   0  0  2  0  0  0  0  0  0  0  0  0
    6.5392   -3.9788   -0.1709 C   0  0  0  0  0  0  0  0  0  0  0  0
    4.6808   -3.3122   -1.8095 C   0  0  0  0  0  0  0  0  0  0  0  0
    5.0269   -1.8296   -2.0232 C   0  0  0  0  0  0  0  0  0  0  0  0
    0.9889    0.9588    1.1574 H   0  0  0  0  0  0  0  0  0  0  0  0
    1.6220   -0.6898    1.4263 H   0  0  0  0  0  0  0  0  0  0  0  0
    0.4109   -0.3827    0.1557 H   0  0  0  0  0  0  0  0  0  0  0  0
    3.0600    0.9568   -0.0060 H   0  0  0  0  0  0  0  0  0  0  0  0
    2.3855   -1.6735   -0.8269 H   0  0  0  0  0  0  0  0  0  0  0  0
    3.3961    1.3500   -2.8053 H   0  0  0  0  0  0  0  0  0  0  0  0
    1.1665    0.1508   -6.2984 H   0  0  0  0  0  0  0  0  0  0  0  0
    0.4290   -1.9119   -5.0847 H   0  0  0  0  0  0  0  0  0  0  0  0
    6.3681    1.8159   -1.1026 H   0  0  0  0  0  0  0  0  0  0  0  0
    6.6866    0.4243   -2.1723 H   0  0  0  0  0  0  0  0  0  0  0  0
    6.8305    0.2462   -0.3951 H   0  0  0  0  0  0  0  0  0  0  0  0
    4.1549   -0.7848    1.1707 H   0  0  0  0  0  0  0  0  0  0  0  0
    5.7679   -1.2385    0.6329 H   0  0  0  0  0  0  0  0  0  0  0  0
    3.2774   -3.0378    0.6151 H   0  0  0  0  0  0  0  0  0  0  0  0
    4.6780   -3.1879    1.6690 H   0  0  0  0  0  0  0  0  0  0  0  0
    4.5787   -4.8159   -0.2783 H   0  0  0  0  0  0  0  0  0  0  0  0
    7.0899   -3.0285   -0.2585 H   0  0  0  0  0  0  0  0  0  0  0  0
    6.9715   -4.6752   -0.9079 H   0  0  0  0  0  0  0  0  0  0  0  0
    6.7477   -4.3846    0.8326 H   0  0  0  0  0  0  0  0  0  0  0  0
    3.6075   -3.4757   -1.9939 H   0  0  0  0  0  0  0  0  0  0  0  0
    5.2125   -3.9172   -2.5637 H   0  0  0  0  0  0  0  0  0  0  0  0
    4.7532   -1.5133   -3.0412 H   0  0  0  0  0  0  0  0  0  0  0  0
    6.1202   -1.7144   -1.9515 H   0  0  0  0  0  0  0  0  0  0  0  0
  1  2  1  0
  1 21  1  0
  1 22  1  0
  1 23  1  0
  2  3  1  0
  2 24  1  0
  3  4  1  0
  3 12  1  0
  3 25  1  1
  4  5  2  0
  4 10  1  0
  5  6  1  0
  5 26  1  0
  6  7  1  0
  6  8  2  0
  8  9  1  0
  8 27  1  0
  9 10  2  0
  9 28  1  0
 10 11  1  0
 12 13  1  1
 12 15  1  0
 12 20  1  0
 13 14  1  0
 14 29  1  0
 14 30  1  0
 14 31  1  0
 15 16  1  0
 15 32  1  0
 15 33  1  0
 16 17  1  0
 16 34  1  0
 16 35  1  0
 17 18  1  0
 17 19  1  0
 17 36  1  6
 18 37  1  0
 18 38  1  0
 18 39  1  0
 19 20  1  0
 19 40  1  0
 19 41  1  0
 20 42  1  0
 20 43  1  0
M  END

