
     RDKit          3D

 68 68  0  0  0  0  0  0  0  0999 V2000
    0.8766   -0.1580    0.1949 C   0  0  0  0  0  0  0  0  0  0  0  0
    2.2726    0.4429    0.0241 C   0  0  0  0  0  0  0  0  0  0  0  0
    2.9759    0.0055   -1.2647 C   0  0  0  0  0  0  0  0  0  0  0  0
    4.3747    0.6029   -1.4433 C   0  0  0  0  0  0  0  0  0  0  0  0
    5.0780    0.1656   -2.7316 C   0  0  0  0  0  0  0  0  0  0  0  0
    6.4770    0.7634   -2.9088 C   0  0  0  0  0  0  0  0  0  0  0  0
    7.1810    0.3267   -4.1969 C   0  0  0  0  0  0  0  0  0  0  0  0
    8.5802    0.9244   -4.3726 C   0  0  0  0  0  0  0  0  0  0  0  0
    9.2852    0.4885   -5.6604 C   0  0  0  0  0  0  0  0  0  0  0  0
   10.6846    1.0862   -5.8330 C   0  0  0  0  0  0  0  0  0  0  0  0
   11.3910    0.6525   -7.1208 C   0  0  0  0  0  0  0  0  0  0  0  0
   12.7932    1.2462   -7.2772 C   0  0  0  0  0  0  0  0  0  0  0  0
   13.4944    0.8153   -8.5653 C   0  0  0  0  0  0  0  0  0  0  0  0
   14.9402    1.2854   -8.6514 C   0  0  0  0  0  0  0  0  0  0  0  0
   15.6256    1.4989   -7.6615 O   0  0  0  0  0  0  0  0  0  0  0  0
   15.4275    1.4496   -9.9247 N   0  0  0  0  0  0  0  0  0  0  0  0
   16.8560    1.5482  -10.1787 C   0  0  1  0  0  0  0  0  0  0  0  0
   17.4121    0.1978  -10.6675 C   0  0  0  0  0  0  0  0  0  0  0  0
   17.0206   -0.8733   -9.8437 O   0  0  0  0  0  0  0  0  0  0  0  0
   17.1861    2.6855  -11.1589 C   0  0  1  0  0  0  0  0  0  0  0  0
   16.5261    2.4855  -12.4049 O   0  0  0  0  0  0  0  0  0  0  0  0
   16.9485    4.1002  -10.6346 C   0  0  0  0  0  0  0  0  0  0  0  0
   16.7099    4.3995   -9.2826 C   0  0  0  0  0  0  0  0  0  0  0  0
   16.5282    5.7209   -8.8683 C   0  0  0  0  0  0  0  0  0  0  0  0
   16.5847    6.7423   -9.8144 C   0  0  0  0  0  0  0  0  0  0  0  0
   16.3923    8.1415   -9.3779 N   0  0  0  0  0  0  0  0  0  0  0  0
   16.1963    8.3407   -8.1901 O   0  0  0  0  0  0  0  0  0  0  0  0
   16.4414    9.0104  -10.2339 O   0  0  0  0  0  0  0  0  0  0  0  0
   16.8145    6.4783  -11.1655 C   0  0  0  0  0  0  0  0  0  0  0  0
   16.9924    5.1563  -11.5651 C   0  0  0  0  0  0  0  0  0  0  0  0
    0.4018    0.1777    1.1307 H   0  0  0  0  0  0  0  0  0  0  0  0
    0.9145   -1.2602    0.2181 H   0  0  0  0  0  0  0  0  0  0  0  0
    0.2116    0.1296   -0.6370 H   0  0  0  0  0  0  0  0  0  0  0  0
    2.9011    0.1682    0.8910 H   0  0  0  0  0  0  0  0  0  0  0  0
    2.2043    1.5460    0.0432 H   0  0  0  0  0  0  0  0  0  0  0  0
    2.3479    0.2802   -2.1330 H   0  0  0  0  0  0  0  0  0  0  0  0
    3.0451   -1.0984   -1.2848 H   0  0  0  0  0  0  0  0  0  0  0  0
    5.0019    0.3282   -0.5746 H   0  0  0  0  0  0  0  0  0  0  0  0
    4.3050    1.7066   -1.4228 H   0  0  0  0  0  0  0  0  0  0  0  0
    4.4513    0.4406   -3.6006 H   0  0  0  0  0  0  0  0  0  0  0  0
    5.1478   -0.9381   -2.7525 H   0  0  0  0  0  0  0  0  0  0  0  0
    7.1036    0.4884   -2.0399 H   0  0  0  0  0  0  0  0  0  0  0  0
    6.4072    1.8670   -2.8878 H   0  0  0  0  0  0  0  0  0  0  0  0
    6.5549    0.6022   -5.0661 H   0  0  0  0  0  0  0  0  0  0  0  0
    7.2507   -0.7770   -4.2183 H   0  0  0  0  0  0  0  0  0  0  0  0
    9.2062    0.6487   -3.5035 H   0  0  0  0  0  0  0  0  0  0  0  0
    8.5106    2.0280   -4.3509 H   0  0  0  0  0  0  0  0  0  0  0  0
    8.6601    0.7654   -6.5300 H   0  0  0  0  0  0  0  0  0  0  0  0
    9.3545   -0.6151   -5.6826 H   0  0  0  0  0  0  0  0  0  0  0  0
   11.3109    0.8085   -4.9651 H   0  0  0  0  0  0  0  0  0  0  0  0
   10.6160    2.1896   -5.8096 H   0  0  0  0  0  0  0  0  0  0  0  0
   10.7686    0.9351   -7.9906 H   0  0  0  0  0  0  0  0  0  0  0  0
   11.4565   -0.4515   -7.1474 H   0  0  0  0  0  0  0  0  0  0  0  0
   13.4277    0.9580   -6.4237 H   0  0  0  0  0  0  0  0  0  0  0  0
   12.7359    2.3488   -7.2465 H   0  0  0  0  0  0  0  0  0  0  0  0
   12.9351    1.1545   -9.4547 H   0  0  0  0  0  0  0  0  0  0  0  0
   13.5248   -0.2891   -8.6276 H   0  0  0  0  0  0  0  0  0  0  0  0
   14.8629    1.0766  -10.6810 H   0  0  0  0  0  0  0  0  0  0  0  0
   17.3186    1.7680   -9.2058 H   0  0  0  0  0  0  0  0  0  0  0  0
   18.5143    0.2786  -10.7602 H   0  0  0  0  0  0  0  0  0  0  0  0
   17.0221   -0.0150  -11.6758 H   0  0  0  0  0  0  0  0  0  0  0  0
   17.3338   -0.7037   -8.9443 H   0  0  0  0  0  0  0  0  0  0  0  0
   18.2624    2.6015  -11.3965 H   0  0  0  0  0  0  0  0  0  0  0  0
   15.6230    2.8217  -12.3153 H   0  0  0  0  0  0  0  0  0  0  0  0
   16.6429    3.6084   -8.5335 H   0  0  0  0  0  0  0  0  0  0  0  0
   16.3377    5.9686   -7.8244 H   0  0  0  0  0  0  0  0  0  0  0  0
   16.8523    7.3052  -11.8741 H   0  0  0  0  0  0  0  0  0  0  0  0
   17.1682    4.9283  -12.6183 H   0  0  0  0  0  0  0  0  0  0  0  0
  1  2  1  0
  1 31  1  0
  1 32  1  0
  1 33  1  0
  2  3  1  0
  2 34  1  0
  2 35  1  0
  3  4  1  0
  3 36  1  0
  3 37  1  0
  4  5  1  0
  4 38  1  0
  4 39  1  0
  5  6  1  0
  5 40  1  0
  5 41  1  0
  6  7  1  0
  6 42  1  0
  6 43  1  0
  7  8  1  0
  7 44  1  0
  7 45  1  0
  8  9  1  0
  8 46  1  0
  8 47  1  0
  9 10  1  0
  9 48  1  0
  9 49  1  0
 10 11  1  0
 10 50  1  0
 10 51  1  0
 11 12  1  0
 11 52  1  0
 11 53  1  0
 12 13  1  0
 12 54  1  0
 12 55  1  0
 13 14  1  0
 13 56  1  0
 13 57  1  0
 14 15  2  0
 14 16  1  0
 16 17  1  0
 16 58  1  0
 17 18  1  0
 17 20  1  0
 17 59  1  1
 18 19  1  0
 18 60  1  0
 18 61  1  0
 19 62  1  0
 20 21  1  0
 20 22  1  0
 20 63  1  6
 21 64  1  0
 22 23  2  0
 22 30  1  0
 23 24  1  0
 23 65  1  0
 24 25  2  0
 24 66  1  0
 25 26  1  0
 25 29  1  0
 26 27  2  0
 26 28  1  0
 29 30  2  0
 29 67  1  0
 30 68  1  0
M  CHG  2  26   1  28  -1
M  END

