
     RDKit          3D

 50 52  0  0  0  0  0  0  0  0999 V2000
    7.6020    3.8417   -4.2121 C   0  0  0  0  0  0  0  0  0  0  0  0
    7.3808    2.6062   -3.3733 C   0  0  0  0  0  0  0  0  0  0  0  0
    6.9836    1.3912   -3.9529 C   0  0  0  0  0  0  0  0  0  0  0  0
    6.7478    0.2582   -3.1706 C   0  0  0  0  0  0  0  0  0  0  0  0
    6.9027    0.2924   -1.7759 C   0  0  0  0  0  0  0  0  0  0  0  0
    6.6895   -0.9425   -0.9265 C   0  0  0  0  0  0  0  0  0  0  0  0
    7.8912   -1.8932   -0.9019 C   0  0  1  0  0  0  0  0  0  0  0  0
    9.1309   -1.2982   -0.4677 N   0  0  0  0  0  0  0  0  0  0  0  0
    9.3995   -0.9978    0.8372 C   0  0  0  0  0  0  0  0  0  0  0  0
    8.6364   -1.2687    1.7532 O   0  0  0  0  0  0  0  0  0  0  0  0
   10.7570   -0.3463    1.1047 C   0  0  0  0  0  0  0  0  0  0  0  0
   10.6524    0.7874    2.1490 C   0  0  0  0  0  0  0  0  0  0  0  0
   11.9034    1.0082    2.9704 C   0  0  0  0  0  0  0  0  0  0  0  0
   12.9421    1.9367    2.5807 C   0  0  0  0  0  0  0  0  0  0  0  0
   12.7837    2.7518    1.3187 C   0  0  0  0  0  0  0  0  0  0  0  0
   14.0418    2.1434    3.2621 N   0  0  0  0  0  0  0  0  0  0  0  0
   14.2877    1.4632    4.4375 C   0  0  0  0  0  0  0  0  0  0  0  0
   15.2742    1.5944    5.1328 O   0  0  0  0  0  0  0  0  0  0  0  0
   13.2814    0.5453    4.8227 N   0  0  0  0  0  0  0  0  0  0  0  0
   13.4744    0.0440    5.6858 H   0  0  0  0  0  0  0  0  0  0  0  0
   12.1296    0.3055    4.1378 C   0  0  0  0  0  0  0  0  0  0  0  0
   11.1928   -0.7013    4.7476 C   0  0  0  0  0  0  0  0  0  0  0  0
    7.6678   -3.3350   -0.5285 C   0  0  0  0  0  0  0  0  0  0  0  0
    8.0224   -2.9746   -1.9491 C   0  0  0  0  0  0  0  0  0  0  0  0
    7.2988    1.5081   -1.1959 C   0  0  0  0  0  0  0  0  0  0  0  0
    7.5342    2.6410   -1.9784 C   0  0  0  0  0  0  0  0  0  0  0  0
    7.7939    3.5876   -5.2655 H   0  0  0  0  0  0  0  0  0  0  0  0
    8.4540    4.4344   -3.8434 H   0  0  0  0  0  0  0  0  0  0  0  0
    6.7168    4.5015   -4.1901 H   0  0  0  0  0  0  0  0  0  0  0  0
    6.8511    1.3315   -5.0373 H   0  0  0  0  0  0  0  0  0  0  0  0
    6.4319   -0.6695   -3.6565 H   0  0  0  0  0  0  0  0  0  0  0  0
    5.8139   -1.5041   -1.2892 H   0  0  0  0  0  0  0  0  0  0  0  0
    6.4772   -0.6514    0.1143 H   0  0  0  0  0  0  0  0  0  0  0  0
    9.7382   -0.9108   -1.1811 H   0  0  0  0  0  0  0  0  0  0  0  0
   11.2373   -0.0015    0.1747 H   0  0  0  0  0  0  0  0  0  0  0  0
   11.3992   -1.1506    1.5032 H   0  0  0  0  0  0  0  0  0  0  0  0
    9.8115    0.5380    2.8104 H   0  0  0  0  0  0  0  0  0  0  0  0
   10.3628    1.7193    1.6403 H   0  0  0  0  0  0  0  0  0  0  0  0
   12.6091    2.1118    0.4390 H   0  0  0  0  0  0  0  0  0  0  0  0
   13.6936    3.3435    1.1616 H   0  0  0  0  0  0  0  0  0  0  0  0
   11.9227    3.4367    1.3967 H   0  0  0  0  0  0  0  0  0  0  0  0
   11.7567   -1.5558    5.1547 H   0  0  0  0  0  0  0  0  0  0  0  0
   10.4576   -1.0815    4.0279 H   0  0  0  0  0  0  0  0  0  0  0  0
   10.6366   -0.2458    5.5855 H   0  0  0  0  0  0  0  0  0  0  0  0
    6.6427   -3.6431   -0.3059 H   0  0  0  0  0  0  0  0  0  0  0  0
    8.4279   -3.8167    0.0900 H   0  0  0  0  0  0  0  0  0  0  0  0
    7.2463   -3.0384   -2.7164 H   0  0  0  0  0  0  0  0  0  0  0  0
    9.0276   -3.2194   -2.3041 H   0  0  0  0  0  0  0  0  0  0  0  0
    7.4154    1.5698   -0.1099 H   0  0  0  0  0  0  0  0  0  0  0  0
    7.8384    3.5741   -1.4943 H   0  0  0  0  0  0  0  0  0  0  0  0
  1  2  1  0
  1 27  1  0
  1 28  1  0
  1 29  1  0
  2  3  2  0
  2 26  1  0
  3  4  1  0
  3 30  1  0
  4  5  2  0
  4 31  1  0
  5  6  1  0
  5 25  1  0
  6  7  1  0
  6 32  1  0
  6 33  1  0
  7  8  1  1
  7 23  1  0
  7 24  1  0
  8  9  1  0
  8 34  1  0
  9 10  2  0
  9 11  1  0
 11 12  1  0
 11 35  1  0
 11 36  1  0
 12 13  1  0
 12 37  1  0
 12 38  1  0
 13 14  1  0
 13 21  2  0
 14 15  1  0
 14 16  2  0
 15 39  1  0
 15 40  1  0
 15 41  1  0
 16 17  1  0
 17 18  2  0
 17 19  1  0
 19 20  1  0
 19 21  1  0
 21 22  1  0
 22 42  1  0
 22 43  1  0
 22 44  1  0
 23 24  1  0
 23 45  1  0
 23 46  1  0
 24 47  1  0
 24 48  1  0
 25 26  2  0
 25 49  1  0
 26 50  1  0
M  END

