
     RDKit          3D

 49 49  0  0  0  0  0  0  0  0999 V2000
    7.7196   -2.6694    0.5944 C   0  0  0  0  0  0  0  0  0  0  0  0
    6.7849   -1.5010    0.8890 C   0  0  0  0  0  0  0  0  0  0  0  0
    7.0803   -0.3651    0.0262 N   0  0  0  0  0  0  0  0  0  0  0  0
    6.1658    0.7755    0.1078 C   0  0  1  0  0  0  0  0  0  0  0  0
    6.2556    1.4470    1.4832 C   0  0  0  0  0  0  0  0  0  0  0  0
    6.5002    1.7980   -0.9932 C   0  0  0  0  0  0  0  0  0  0  0  0
    6.3866    1.3210   -2.4635 C   0  0  1  0  0  0  0  0  0  0  0  0
    4.9319    1.0478   -2.8762 C   0  0  0  0  0  0  0  0  0  0  0  0
    7.0471    2.2162   -3.4294 N   0  0  0  0  0  0  0  0  0  0  0  0
    6.5442    3.5788   -3.4034 C   0  0  0  0  0  0  0  0  0  0  0  0
    8.5206    2.1774   -3.5755 C   0  0  1  0  0  0  0  0  0  0  0  0
    9.1576    0.8614   -3.0971 C   0  0  0  0  0  0  0  0  0  0  0  0
   10.6868    0.7492   -3.2355 C   0  0  0  0  0  0  0  0  0  0  0  0
   11.2050    0.5671   -4.6712 C   0  0  0  0  0  0  0  0  0  0  0  0
   11.3895    1.8563   -5.4921 C   0  0  0  0  0  0  0  0  0  0  0  0
   10.3448    2.9616   -5.2560 C   0  0  0  0  0  0  0  0  0  0  0  0
    8.8924    2.5005   -5.0454 C   0  0  0  0  0  0  0  0  0  0  0  0
    7.5217   -3.5155    1.2707 H   0  0  0  0  0  0  0  0  0  0  0  0
    8.7709   -2.3639    0.7144 H   0  0  0  0  0  0  0  0  0  0  0  0
    7.5910   -3.0350   -0.4393 H   0  0  0  0  0  0  0  0  0  0  0  0
    6.9132   -1.1975    1.9413 H   0  0  0  0  0  0  0  0  0  0  0  0
    5.7260   -1.8399    0.7981 H   0  0  0  0  0  0  0  0  0  0  0  0
    7.1162   -0.6977   -0.9357 H   0  0  0  0  0  0  0  0  0  0  0  0
    5.1080    0.4471   -0.0267 H   0  0  0  0  0  0  0  0  0  0  0  0
    7.2922    1.7636    1.6839 H   0  0  0  0  0  0  0  0  0  0  0  0
    5.9412    0.7746    2.2956 H   0  0  0  0  0  0  0  0  0  0  0  0
    5.6046    2.3344    1.5221 H   0  0  0  0  0  0  0  0  0  0  0  0
    7.5287    2.1551   -0.8123 H   0  0  0  0  0  0  0  0  0  0  0  0
    5.8400    2.6703   -0.8527 H   0  0  0  0  0  0  0  0  0  0  0  0
    6.9010    0.3565   -2.5580 H   0  0  0  0  0  0  0  0  0  0  0  0
    4.2818    1.9264   -2.7368 H   0  0  0  0  0  0  0  0  0  0  0  0
    4.5012    0.2309   -2.2760 H   0  0  0  0  0  0  0  0  0  0  0  0
    4.8916    0.7570   -3.9366 H   0  0  0  0  0  0  0  0  0  0  0  0
    5.4453    3.5887   -3.3767 H   0  0  0  0  0  0  0  0  0  0  0  0
    6.8392    4.1246   -4.3120 H   0  0  0  0  0  0  0  0  0  0  0  0
    6.9102    4.1759   -2.5380 H   0  0  0  0  0  0  0  0  0  0  0  0
    8.9678    2.9853   -2.9489 H   0  0  0  0  0  0  0  0  0  0  0  0
    8.7035    0.0202   -3.6531 H   0  0  0  0  0  0  0  0  0  0  0  0
    8.9127    0.7024   -2.0362 H   0  0  0  0  0  0  0  0  0  0  0  0
   10.9938   -0.1301   -2.6447 H   0  0  0  0  0  0  0  0  0  0  0  0
   11.1796    1.6129   -2.7528 H   0  0  0  0  0  0  0  0  0  0  0  0
   10.5130   -0.1135   -5.1982 H   0  0  0  0  0  0  0  0  0  0  0  0
   12.1711    0.0352   -4.6452 H   0  0  0  0  0  0  0  0  0  0  0  0
   11.3999    1.5842   -6.5622 H   0  0  0  0  0  0  0  0  0  0  0  0
   12.3883    2.2803   -5.2874 H   0  0  0  0  0  0  0  0  0  0  0  0
   10.3855    3.6554   -6.1125 H   0  0  0  0  0  0  0  0  0  0  0  0
   10.6416    3.5683   -4.3819 H   0  0  0  0  0  0  0  0  0  0  0  0
    8.6536    1.6246   -5.6740 H   0  0  0  0  0  0  0  0  0  0  0  0
    8.2252    3.3000   -5.3969 H   0  0  0  0  0  0  0  0  0  0  0  0
  1  2  1  0
  1 18  1  0
  1 19  1  0
  1 20  1  0
  2  3  1  0
  2 21  1  0
  2 22  1  0
  3  4  1  0
  3 23  1  0
  4  5  1  0
  4  6  1  0
  4 24  1  6
  5 25  1  0
  5 26  1  0
  5 27  1  0
  6  7  1  0
  6 28  1  0
  6 29  1  0
  7  8  1  0
  7  9  1  0
  7 30  1  1
  8 31  1  0
  8 32  1  0
  8 33  1  0
  9 10  1  0
  9 11  1  0
 10 34  1  0
 10 35  1  0
 10 36  1  0
 11 12  1  0
 11 17  1  0
 11 37  1  1
 12 13  1  0
 12 38  1  0
 12 39  1  0
 13 14  1  0
 13 40  1  0
 13 41  1  0
 14 15  1  0
 14 42  1  0
 14 43  1  0
 15 16  1  0
 15 44  1  0
 15 45  1  0
 16 17  1  0
 16 46  1  0
 16 47  1  0
 17 48  1  0
 17 49  1  0
M  END

