
     RDKit          3D

 55 56  0  0  0  0  0  0  0  0999 V2000
    6.4729    1.4247   -0.0211 C   0  0  0  0  0  0  0  0  0  0  0  0
    5.6986    1.6823    1.1309 O   0  0  0  0  0  0  0  0  0  0  0  0
    4.3577    1.2839    1.0590 C   0  0  0  0  0  0  0  0  0  0  0  0
    4.1203   -0.2328    1.1576 C   0  0  0  0  0  0  0  0  0  0  0  0
    4.6810   -0.8363    2.3616 N   0  0  0  0  0  0  0  0  0  0  0  0
    3.9252   -0.6892    3.5968 C   0  0  0  0  0  0  0  0  0  0  0  0
    2.8355   -1.7398    3.8002 C   0  0  0  0  0  0  0  0  0  0  0  0
    3.4215   -3.0009    3.9951 O   0  0  0  0  0  0  0  0  0  0  0  0
    2.4989   -4.0513    4.1243 C   0  0  0  0  0  0  0  0  0  0  0  0
    5.8896   -1.4927    2.2575 C   0  0  0  0  0  0  0  0  0  0  0  0
    6.4504   -1.6309    1.1779 O   0  0  0  0  0  0  0  0  0  0  0  0
    6.5165   -2.0366    3.5398 C   0  0  0  0  0  0  0  0  0  0  0  0
    7.8117   -2.8140    3.2646 C   0  0  0  0  0  0  0  0  0  0  0  0
    8.4594   -3.3288    4.5301 C   0  0  0  0  0  0  0  0  0  0  0  0
    8.0361   -4.5286    5.1278 C   0  0  0  0  0  0  0  0  0  0  0  0
    8.5989   -4.9915    6.3152 C   0  0  0  0  0  0  0  0  0  0  0  0
    9.6196   -4.2589    6.9402 C   0  0  0  0  0  0  0  0  0  0  0  0
   10.1882   -4.7548    8.1449 N   0  0  0  0  0  0  0  0  0  0  0  0
   10.3308   -6.0952    8.2920 N   0  0  0  0  0  0  0  0  0  0  0  0
   10.8279   -6.2808    9.5076 C   0  0  0  0  0  0  0  0  0  0  0  0
   11.1333   -7.6582   10.0113 C   0  0  0  0  0  0  0  0  0  0  0  0
   11.0014   -5.0364   10.1716 C   0  0  0  0  0  0  0  0  0  0  0  0
   10.5771   -4.0701    9.2757 C   0  0  0  0  0  0  0  0  0  0  0  0
   10.4832   -2.5882    9.4620 C   0  0  0  0  0  0  0  0  0  0  0  0
   10.0740   -3.0746    6.3463 C   0  0  0  0  0  0  0  0  0  0  0  0
    9.4884   -2.6170    5.1629 C   0  0  0  0  0  0  0  0  0  0  0  0
    7.4389    1.9325    0.1181 H   0  0  0  0  0  0  0  0  0  0  0  0
    5.9917    1.8360   -0.9320 H   0  0  0  0  0  0  0  0  0  0  0  0
    6.6610    0.3462   -0.1622 H   0  0  0  0  0  0  0  0  0  0  0  0
    3.8802    1.6426    0.1211 H   0  0  0  0  0  0  0  0  0  0  0  0
    3.8466    1.7964    1.8926 H   0  0  0  0  0  0  0  0  0  0  0  0
    4.5642   -0.7489    0.2967 H   0  0  0  0  0  0  0  0  0  0  0  0
    3.0311   -0.4126    1.1248 H   0  0  0  0  0  0  0  0  0  0  0  0
    3.4461    0.3040    3.6030 H   0  0  0  0  0  0  0  0  0  0  0  0
    4.6002   -0.7054    4.4627 H   0  0  0  0  0  0  0  0  0  0  0  0
    2.1540   -1.7589    2.9234 H   0  0  0  0  0  0  0  0  0  0  0  0
    2.2192   -1.4503    4.6787 H   0  0  0  0  0  0  0  0  0  0  0  0
    3.0666   -4.9820    4.2663 H   0  0  0  0  0  0  0  0  0  0  0  0
    1.8656   -4.1575    3.2206 H   0  0  0  0  0  0  0  0  0  0  0  0
    1.8292   -3.9095    4.9965 H   0  0  0  0  0  0  0  0  0  0  0  0
    5.7846   -2.6730    4.0595 H   0  0  0  0  0  0  0  0  0  0  0  0
    6.7263   -1.1908    4.2192 H   0  0  0  0  0  0  0  0  0  0  0  0
    8.5093   -2.1652    2.7146 H   0  0  0  0  0  0  0  0  0  0  0  0
    7.5832   -3.6515    2.5870 H   0  0  0  0  0  0  0  0  0  0  0  0
    7.2459   -5.1157    4.6505 H   0  0  0  0  0  0  0  0  0  0  0  0
    8.2732   -5.9280    6.7682 H   0  0  0  0  0  0  0  0  0  0  0  0
   10.8417   -8.4034    9.2580 H   0  0  0  0  0  0  0  0  0  0  0  0
   10.5907   -7.8752   10.9463 H   0  0  0  0  0  0  0  0  0  0  0  0
   12.2087   -7.7815   10.2224 H   0  0  0  0  0  0  0  0  0  0  0  0
   11.3744   -4.8614   11.1790 H   0  0  0  0  0  0  0  0  0  0  0  0
   10.5116   -2.3553   10.5360 H   0  0  0  0  0  0  0  0  0  0  0  0
    9.5492   -2.1796    9.0464 H   0  0  0  0  0  0  0  0  0  0  0  0
   11.3189   -2.0468    8.9876 H   0  0  0  0  0  0  0  0  0  0  0  0
   10.9047   -2.5221    6.7851 H   0  0  0  0  0  0  0  0  0  0  0  0
    9.8601   -1.6934    4.7096 H   0  0  0  0  0  0  0  0  0  0  0  0
  1  2  1  0
  1 27  1  0
  1 28  1  0
  1 29  1  0
  2  3  1  0
  3  4  1  0
  3 30  1  0
  3 31  1  0
  4  5  1  0
  4 32  1  0
  4 33  1  0
  5  6  1  0
  5 10  1  0
  6  7  1  0
  6 34  1  0
  6 35  1  0
  7  8  1  0
  7 36  1  0
  7 37  1  0
  8  9  1  0
  9 38  1  0
  9 39  1  0
  9 40  1  0
 10 11  2  0
 10 12  1  0
 12 13  1  0
 12 41  1  0
 12 42  1  0
 13 14  1  0
 13 43  1  0
 13 44  1  0
 14 15  2  0
 14 26  1  0
 15 16  1  0
 15 45  1  0
 16 17  2  0
 16 46  1  0
 17 18  1  0
 17 25  1  0
 18 19  1  0
 18 23  1  0
 19 20  2  0
 20 21  1  0
 20 22  1  0
 21 47  1  0
 21 48  1  0
 21 49  1  0
 22 23  2  0
 22 50  1  0
 23 24  1  0
 24 51  1  0
 24 52  1  0
 24 53  1  0
 25 26  2  0
 25 54  1  0
 26 55  1  0
M  END

