
     RDKit          3D

 36 38  0  0  0  0  0  0  0  0999 V2000
    3.1937   -0.2277   -2.9812 C   0  0  0  0  0  0  0  0  0  0  0  0
    3.4432   -0.0824   -1.5120 C   0  0  0  0  0  0  0  0  0  0  0  0
    3.9671    1.0676   -1.0061 N   0  0  0  0  0  0  0  0  0  0  0  0
    4.0576    0.8864    0.3052 C   0  0  0  0  0  0  0  0  0  0  0  0
    4.5257    1.7459    1.3297 C   0  0  0  0  0  0  0  0  0  0  0  0
    4.5119    1.3155    2.6377 C   0  0  0  0  0  0  0  0  0  0  0  0
    4.0364    0.0112    2.9605 C   0  0  0  0  0  0  0  0  0  0  0  0
    3.5870   -0.8261    1.9726 C   0  0  0  0  0  0  0  0  0  0  0  0
    3.5923   -0.3910    0.6704 N   0  0  0  0  0  0  0  0  0  0  0  0
    3.1921   -1.0141   -0.5031 C   0  0  0  0  0  0  0  0  0  0  0  0
    2.5991   -2.3829   -0.5203 C   0  0  0  0  0  0  0  0  0  0  0  0
    3.5595   -3.3951   -0.0993 N   0  0  0  0  0  0  0  0  0  0  0  0
    3.2395   -4.7465   -0.0269 C   0  0  0  0  0  0  0  0  0  0  0  0
    1.9121   -5.1979   -0.1571 C   0  0  0  0  0  0  0  0  0  0  0  0
    1.6142   -6.5564   -0.0405 C   0  0  0  0  0  0  0  0  0  0  0  0
    2.6203   -7.4898    0.1916 C   0  0  0  0  0  0  0  0  0  0  0  0
    3.9393   -7.0350    0.3126 C   0  0  0  0  0  0  0  0  0  0  0  0
    5.1779   -8.2527    0.6004 Cl  0  0  0  0  0  0  0  0  0  0  0  0
    4.2892   -5.6815    0.2161 C   0  0  0  0  0  0  0  0  0  0  0  0
    5.7011   -5.1800    0.3696 C   0  0  0  0  0  0  0  0  0  0  0  0
    4.1227   -0.0473   -3.5454 H   0  0  0  0  0  0  0  0  0  0  0  0
    2.4627    0.5228   -3.3237 H   0  0  0  0  0  0  0  0  0  0  0  0
    2.8146   -1.2249   -3.2459 H   0  0  0  0  0  0  0  0  0  0  0  0
    4.8845    2.7345    1.0408 H   0  0  0  0  0  0  0  0  0  0  0  0
    4.8698    1.9704    3.4351 H   0  0  0  0  0  0  0  0  0  0  0  0
    4.0312   -0.3395    3.9936 H   0  0  0  0  0  0  0  0  0  0  0  0
    3.2389   -1.8443    2.1459 H   0  0  0  0  0  0  0  0  0  0  0  0
    2.1998   -2.5804   -1.5339 H   0  0  0  0  0  0  0  0  0  0  0  0
    1.7287   -2.4230    0.1616 H   0  0  0  0  0  0  0  0  0  0  0  0
    4.5133   -3.1878   -0.3717 H   0  0  0  0  0  0  0  0  0  0  0  0
    1.1062   -4.4909   -0.3526 H   0  0  0  0  0  0  0  0  0  0  0  0
    0.5787   -6.8912   -0.1420 H   0  0  0  0  0  0  0  0  0  0  0  0
    2.4037   -8.5547    0.2776 H   0  0  0  0  0  0  0  0  0  0  0  0
    6.3853   -5.9869    0.6544 H   0  0  0  0  0  0  0  0  0  0  0  0
    5.7577   -4.3904    1.1383 H   0  0  0  0  0  0  0  0  0  0  0  0
    6.0830   -4.7430   -0.5721 H   0  0  0  0  0  0  0  0  0  0  0  0
  1  2  1  0
  1 21  1  0
  1 22  1  0
  1 23  1  0
  2  3  1  0
  2 10  2  0
  3  4  2  0
  4  5  1  0
  4  9  1  0
  5  6  2  0
  5 24  1  0
  6  7  1  0
  6 25  1  0
  7  8  2  0
  7 26  1  0
  8  9  1  0
  8 27  1  0
  9 10  1  0
 10 11  1  0
 11 12  1  0
 11 28  1  0
 11 29  1  0
 12 13  1  0
 12 30  1  0
 13 14  2  0
 13 19  1  0
 14 15  1  0
 14 31  1  0
 15 16  2  0
 15 32  1  0
 16 17  1  0
 16 33  1  0
 17 18  1  0
 17 19  2  0
 19 20  1  0
 20 34  1  0
 20 35  1  0
 20 36  1  0
M  END

