
     RDKit          3D

 47 50  0  0  0  0  0  0  0  0999 V2000
    1.4042   -0.5309   -0.3234 N   0  0  0  0  0  0  0  0  0  0  0  0
    2.5204   -0.3101   -0.0709 C   0  0  0  0  0  0  0  0  0  0  0  0
    3.8883   -0.0875    0.2380 C   0  0  0  0  0  0  0  0  0  0  0  0
    4.6475   -1.1703    0.6015 C   0  0  0  0  0  0  0  0  0  0  0  0
    4.1932   -2.4377    0.7920 N   0  0  0  0  0  0  0  0  0  0  0  0
    5.9729   -1.0877    0.8497 O   0  0  0  0  0  0  0  0  0  0  0  0
    6.6475    0.0882    0.5854 C   0  0  0  0  0  0  0  0  0  0  0  0
    8.0412    0.0010    0.6763 C   0  0  0  0  0  0  0  0  0  0  0  0
    8.7908    1.1474    0.4116 C   0  0  0  0  0  0  0  0  0  0  0  0
   10.1728    1.2319    0.4625 O   0  0  0  0  0  0  0  0  0  0  0  0
   11.0292    0.2194    0.7546 C   0  0  0  0  0  0  0  0  0  0  0  0
   10.7095   -0.9177    0.9832 O   0  0  0  0  0  0  0  0  0  0  0  0
   12.4553    0.7432    0.7938 C   0  0  0  0  0  0  0  0  0  0  0  0
   12.7607    1.3958    2.1310 C   0  0  0  0  0  0  0  0  0  0  0  0
   12.9036    0.6098    3.2855 C   0  0  0  0  0  0  0  0  0  0  0  0
   13.1658    1.1929    4.5258 C   0  0  0  0  0  0  0  0  0  0  0  0
   13.2850    2.5832    4.6180 C   0  0  0  0  0  0  0  0  0  0  0  0
   13.6182    3.3225    6.1670 Cl  0  0  0  0  0  0  0  0  0  0  0  0
   13.1421    3.3864    3.4840 C   0  0  0  0  0  0  0  0  0  0  0  0
   12.8782    2.7873    2.2499 C   0  0  0  0  0  0  0  0  0  0  0  0
    8.1553    2.3462    0.0568 C   0  0  0  0  0  0  0  0  0  0  0  0
    6.7682    2.3941   -0.0205 C   0  0  0  0  0  0  0  0  0  0  0  0
    5.9761    1.2657    0.2479 C   0  0  0  0  0  0  0  0  0  0  0  0
    4.4561    1.3225    0.1918 C   0  0  2  0  0  0  0  0  0  0  0  0
    3.8865    2.2274    1.2950 C   0  0  0  0  0  0  0  0  0  0  0  0
    3.9079    1.7867    2.6296 C   0  0  0  0  0  0  0  0  0  0  0  0
    3.4163    2.5660    3.6747 C   0  0  0  0  0  0  0  0  0  0  0  0
    2.8763    3.8269    3.4039 C   0  0  0  0  0  0  0  0  0  0  0  0
    2.8395    4.2955    2.0912 C   0  0  0  0  0  0  0  0  0  0  0  0
    3.3442    3.5006    1.0549 C   0  0  0  0  0  0  0  0  0  0  0  0
    3.2617    4.2438   -0.7164 Br  0  0  0  0  0  0  0  0  0  0  0  0
    3.2378   -2.6457    0.5271 H   0  0  0  0  0  0  0  0  0  0  0  0
    4.8698   -3.1892    0.7347 H   0  0  0  0  0  0  0  0  0  0  0  0
    8.5083   -0.9425    0.9403 H   0  0  0  0  0  0  0  0  0  0  0  0
   12.5979    1.4653   -0.0223 H   0  0  0  0  0  0  0  0  0  0  0  0
   13.1139   -0.1206    0.6257 H   0  0  0  0  0  0  0  0  0  0  0  0
   12.8050   -0.4768    3.2149 H   0  0  0  0  0  0  0  0  0  0  0  0
   13.2796    0.5776    5.4197 H   0  0  0  0  0  0  0  0  0  0  0  0
   13.2377    4.4700    3.5699 H   0  0  0  0  0  0  0  0  0  0  0  0
   12.7650    3.4186    1.3646 H   0  0  0  0  0  0  0  0  0  0  0  0
    8.7655    3.2267   -0.1493 H   0  0  0  0  0  0  0  0  0  0  0  0
    6.2768    3.3314   -0.2917 H   0  0  0  0  0  0  0  0  0  0  0  0
    4.1741    1.7767   -0.7695 H   0  0  0  0  0  0  0  0  0  0  0  0
    4.3184    0.7966    2.8440 H   0  0  0  0  0  0  0  0  0  0  0  0
    3.4500    2.1881    4.6992 H   0  0  0  0  0  0  0  0  0  0  0  0
    2.4805    4.4480    4.2112 H   0  0  0  0  0  0  0  0  0  0  0  0
    2.4193    5.2763    1.8630 H   0  0  0  0  0  0  0  0  0  0  0  0
  1  2  3  0
  2  3  1  0
  3  4  2  0
  3 24  1  0
  4  5  1  0
  4  6  1  0
  5 32  1  0
  5 33  1  0
  6  7  1  0
  7  8  1  0
  7 23  2  0
  8  9  2  0
  8 34  1  0
  9 10  1  0
  9 21  1  0
 10 11  1  0
 11 12  2  0
 11 13  1  0
 13 14  1  0
 13 35  1  0
 13 36  1  0
 14 15  2  0
 14 20  1  0
 15 16  1  0
 15 37  1  0
 16 17  2  0
 16 38  1  0
 17 18  1  0
 17 19  1  0
 19 20  2  0
 19 39  1  0
 20 40  1  0
 21 22  2  0
 21 41  1  0
 22 23  1  0
 22 42  1  0
 23 24  1  0
 24 25  1  0
 24 43  1  6
 25 26  2  0
 25 30  1  0
 26 27  1  0
 26 44  1  0
 27 28  2  0
 27 45  1  0
 28 29  1  0
 28 46  1  0
 29 30  2  0
 29 47  1  0
 30 31  1  0
M  END

