
     RDKit          3D

 51 53  0  0  0  0  0  0  0  0999 V2000
    2.0524   -0.4691    6.1815 C   0  0  0  0  0  0  0  0  0  0  0  0
    3.1426    0.3750    5.9142 O   0  0  0  0  0  0  0  0  0  0  0  0
    4.2543   -0.2512    5.3089 C   0  0  0  0  0  0  0  0  0  0  0  0
    4.1118   -0.4038    3.7935 C   0  0  0  0  0  0  0  0  0  0  0  0
    4.0067    0.9157    3.0184 C   0  0  0  0  0  0  0  0  0  0  0  0
    5.2853    1.6468    2.8906 N   0  0  0  0  0  0  0  0  0  0  0  0
    5.5834    2.8081    3.5810 C   0  0  0  0  0  0  0  0  0  0  0  0
    4.3341    3.3869    4.7163 S   0  0  0  0  0  0  0  0  0  0  0  0
    5.2005    4.7614    5.5630 C   0  0  0  0  0  0  0  0  0  0  0  0
    5.0185    6.1393    4.9156 C   0  0  0  0  0  0  0  0  0  0  0  0
    4.3256    6.9943    5.4393 O   0  0  0  0  0  0  0  0  0  0  0  0
    5.7011    6.3041    3.7492 N   0  0  0  0  0  0  0  0  0  0  0  0
    5.6384    7.5236    2.9739 C   0  0  0  0  0  0  0  0  0  0  0  0
    4.9731    7.3660    1.6176 C   0  0  0  0  0  0  0  0  0  0  0  0
    4.0182    6.3769    1.3438 C   0  0  0  0  0  0  0  0  0  0  0  0
    3.4117    6.2808    0.0875 C   0  0  0  0  0  0  0  0  0  0  0  0
    3.7539    7.1798   -0.9266 C   0  0  0  0  0  0  0  0  0  0  0  0
    4.7036    8.1753   -0.6815 C   0  0  0  0  0  0  0  0  0  0  0  0
    5.2899    8.2492    0.5782 C   0  0  0  0  0  0  0  0  0  0  0  0
    6.2037    9.2132    0.8094 F   0  0  0  0  0  0  0  0  0  0  0  0
    6.6899    3.4703    3.4479 N   0  0  0  0  0  0  0  0  0  0  0  0
    7.6664    2.9992    2.5912 C   0  0  0  0  0  0  0  0  0  0  0  0
    8.8902    3.6927    2.4720 C   0  0  0  0  0  0  0  0  0  0  0  0
    9.8678    3.2312    1.6006 C   0  0  0  0  0  0  0  0  0  0  0  0
    9.6565    2.0732    0.8265 C   0  0  0  0  0  0  0  0  0  0  0  0
    8.4580    1.3806    0.9341 C   0  0  0  0  0  0  0  0  0  0  0  0
    7.4613    1.8367    1.8156 C   0  0  0  0  0  0  0  0  0  0  0  0
    6.1920    1.1123    1.9351 C   0  0  0  0  0  0  0  0  0  0  0  0
    5.8910    0.1188    1.2977 O   0  0  0  0  0  0  0  0  0  0  0  0
    1.2796    0.1350    6.6792 H   0  0  0  0  0  0  0  0  0  0  0  0
    2.3336   -1.3034    6.8559 H   0  0  0  0  0  0  0  0  0  0  0  0
    1.6073   -0.9088    5.2669 H   0  0  0  0  0  0  0  0  0  0  0  0
    4.4363   -1.2457    5.7638 H   0  0  0  0  0  0  0  0  0  0  0  0
    5.1285    0.3771    5.5474 H   0  0  0  0  0  0  0  0  0  0  0  0
    3.2034   -0.9880    3.5676 H   0  0  0  0  0  0  0  0  0  0  0  0
    4.9510   -0.9931    3.3937 H   0  0  0  0  0  0  0  0  0  0  0  0
    3.2685    1.5764    3.4906 H   0  0  0  0  0  0  0  0  0  0  0  0
    3.6732    0.7044    1.9937 H   0  0  0  0  0  0  0  0  0  0  0  0
    6.2610    4.4849    5.6444 H   0  0  0  0  0  0  0  0  0  0  0  0
    4.7392    4.8020    6.5578 H   0  0  0  0  0  0  0  0  0  0  0  0
    6.2502    5.5086    3.4192 H   0  0  0  0  0  0  0  0  0  0  0  0
    6.6487    7.9405    2.8325 H   0  0  0  0  0  0  0  0  0  0  0  0
    5.0783    8.2507    3.5841 H   0  0  0  0  0  0  0  0  0  0  0  0
    3.7529    5.6711    2.1342 H   0  0  0  0  0  0  0  0  0  0  0  0
    2.6691    5.5014   -0.0985 H   0  0  0  0  0  0  0  0  0  0  0  0
    3.2842    7.1095   -1.9106 H   0  0  0  0  0  0  0  0  0  0  0  0
    4.9994    8.8954   -1.4470 H   0  0  0  0  0  0  0  0  0  0  0  0
    9.0456    4.5876    3.0779 H   0  0  0  0  0  0  0  0  0  0  0  0
   10.8127    3.7740    1.5148 H   0  0  0  0  0  0  0  0  0  0  0  0
   10.4347    1.7234    0.1444 H   0  0  0  0  0  0  0  0  0  0  0  0
    8.2587    0.4802    0.3498 H   0  0  0  0  0  0  0  0  0  0  0  0
  1  2  1  0
  1 30  1  0
  1 31  1  0
  1 32  1  0
  2  3  1  0
  3  4  1  0
  3 33  1  0
  3 34  1  0
  4  5  1  0
  4 35  1  0
  4 36  1  0
  5  6  1  0
  5 37  1  0
  5 38  1  0
  6  7  1  0
  6 28  1  0
  7  8  2  0
  7 21  1  0
  8  9  1  0
  9 10  1  0
  9 39  1  0
  9 40  1  0
 10 11  2  0
 10 12  1  0
 12 13  1  0
 12 41  1  0
 13 14  1  0
 13 42  1  0
 13 43  1  0
 14 15  2  0
 14 19  1  0
 15 16  1  0
 15 44  1  0
 16 17  2  0
 16 45  1  0
 17 18  1  0
 17 46  1  0
 18 19  2  0
 18 47  1  0
 19 20  1  0
 21 22  2  0
 22 23  1  0
 22 27  1  0
 23 24  2  0
 23 48  1  0
 24 25  1  0
 24 49  1  0
 25 26  2  0
 25 50  1  0
 26 27  1  0
 26 51  1  0
 27 28  2  0
 28 29  1  0
M  CHG  2   8   1  29  -1
M  END

