
     RDKit          3D

 36 37  0  0  0  0  0  0  0  0999 V2000
    4.5380    0.9553   -6.9247 N   0  0  0  0  0  0  0  0  0  0  0  0
    5.1351    0.7879   -5.9413 C   0  0  0  0  0  0  0  0  0  0  0  0
    5.8699    0.5823   -4.7295 C   0  0  0  0  0  0  0  0  0  0  0  0
    5.2836    0.8495   -3.4737 C   0  0  0  0  0  0  0  0  0  0  0  0
    5.9958    0.6486   -2.3028 C   0  0  0  0  0  0  0  0  0  0  0  0
    7.3311    0.1709   -2.3254 C   0  0  0  0  0  0  0  0  0  0  0  0
    8.0087    0.0025   -1.1444 N   0  0  0  0  0  0  0  0  0  0  0  0
    9.3693   -0.4971   -0.9960 C   0  0  1  0  0  0  0  0  0  0  0  0
    9.9485   -0.0501    0.3604 C   0  0  0  0  0  0  0  0  0  0  0  0
    9.3363   -0.8265    1.5413 C   0  0  0  0  0  0  0  0  0  0  0  0
    9.4211   -2.2729    1.3744 N   0  0  0  0  0  0  0  0  0  0  0  0
   10.6462   -2.8974    1.8107 C   0  0  0  0  0  0  0  0  0  0  0  0
   10.5327   -3.4482    3.2273 C   0  0  1  0  0  0  0  0  0  0  0  0
    9.5877   -4.3924    3.3229 F   0  0  0  0  0  0  0  0  0  0  0  0
   11.7012   -3.9980    3.6095 F   0  0  0  0  0  0  0  0  0  0  0  0
   10.2331   -2.4814    4.1156 F   0  0  0  0  0  0  0  0  0  0  0  0
    8.8448   -2.7265    0.1129 C   0  0  0  0  0  0  0  0  0  0  0  0
    9.4586   -2.0382   -1.1159 C   0  0  0  0  0  0  0  0  0  0  0  0
    7.9130   -0.0991   -3.5878 C   0  0  0  0  0  0  0  0  0  0  0  0
    7.1941    0.1065   -4.7600 C   0  0  0  0  0  0  0  0  0  0  0  0
    4.2572    1.2192   -3.4272 H   0  0  0  0  0  0  0  0  0  0  0  0
    5.5232    0.8642   -1.3403 H   0  0  0  0  0  0  0  0  0  0  0  0
    7.4959    0.2199   -0.2998 H   0  0  0  0  0  0  0  0  0  0  0  0
    9.9801   -0.0423   -1.7943 H   0  0  0  0  0  0  0  0  0  0  0  0
    9.8041    1.0355    0.4919 H   0  0  0  0  0  0  0  0  0  0  0  0
   11.0374   -0.2237    0.3400 H   0  0  0  0  0  0  0  0  0  0  0  0
    8.2709   -0.5545    1.6683 H   0  0  0  0  0  0  0  0  0  0  0  0
    9.8232   -0.5419    2.4849 H   0  0  0  0  0  0  0  0  0  0  0  0
   11.5262   -2.2252    1.8026 H   0  0  0  0  0  0  0  0  0  0  0  0
   10.9023   -3.7550    1.1695 H   0  0  0  0  0  0  0  0  0  0  0  0
    7.7595   -2.5194    0.1355 H   0  0  0  0  0  0  0  0  0  0  0  0
    8.9441   -3.8203    0.0432 H   0  0  0  0  0  0  0  0  0  0  0  0
    8.9524   -2.3769   -2.0343 H   0  0  0  0  0  0  0  0  0  0  0  0
   10.5215   -2.3233   -1.2134 H   0  0  0  0  0  0  0  0  0  0  0  0
    8.9344   -0.4733   -3.6566 H   0  0  0  0  0  0  0  0  0  0  0  0
    7.6640   -0.1072   -5.7223 H   0  0  0  0  0  0  0  0  0  0  0  0
  1  2  3  0
  2  3  1  0
  3  4  2  0
  3 20  1  0
  4  5  1  0
  4 21  1  0
  5  6  2  0
  5 22  1  0
  6  7  1  0
  6 19  1  0
  7  8  1  0
  7 23  1  0
  8  9  1  0
  8 18  1  0
  8 24  1  6
  9 10  1  0
  9 25  1  0
  9 26  1  0
 10 11  1  0
 10 27  1  0
 10 28  1  0
 11 12  1  0
 11 17  1  0
 12 13  1  0
 12 29  1  0
 12 30  1  0
 13 14  1  6
 13 15  1  0
 13 16  1  0
 17 18  1  0
 17 31  1  0
 17 32  1  0
 18 33  1  0
 18 34  1  0
 19 20  2  0
 19 35  1  0
 20 36  1  0
M  END

