
     RDKit          3D

 38 39  0  0  0  0  0  0  0  0999 V2000
    1.4081   -0.6985    0.4466 C   0  0  0  0  0  0  0  0  0  0  0  0
    2.8353   -0.4216    0.0440 C   0  0  0  0  0  0  0  0  0  0  0  0
    3.8799   -0.5919    0.9625 C   0  0  0  0  0  0  0  0  0  0  0  0
    5.2110   -0.3371    0.6242 C   0  0  0  0  0  0  0  0  0  0  0  0
    5.5200    0.0864   -0.6734 C   0  0  0  0  0  0  0  0  0  0  0  0
    6.8618    0.4014   -1.0848 N   0  0  0  0  0  0  0  0  0  0  0  0
    7.3231    1.7740   -0.8511 C   0  0  0  0  0  0  0  0  0  0  0  0
    8.0329   -0.8215   -0.9619 S   0  0  1  0  0  0  0  0  0  0  0  0
    9.2404   -0.2475   -1.5589 O   0  0  0  0  0  0  0  0  0  0  0  0
    8.0977   -1.3980    0.3849 O   0  0  0  0  0  0  0  0  0  0  0  0
    7.3776   -1.9821   -1.9402 N   0  0  0  0  0  0  0  0  0  0  0  0
    7.4965   -1.8577   -3.4021 C   0  0  0  0  0  0  0  0  0  0  0  0
    7.0318   -3.2337   -3.8950 C   0  0  0  0  0  0  0  0  0  0  0  0
    7.4944   -4.1824   -2.7789 C   0  0  0  0  0  0  0  0  0  0  0  0
    7.2282   -3.3836   -1.4954 C   0  0  0  0  0  0  0  0  0  0  0  0
    4.4833    0.2537   -1.6022 C   0  0  0  0  0  0  0  0  0  0  0  0
    3.1458    0.0140   -1.2669 C   0  0  0  0  0  0  0  0  0  0  0  0
    2.0561    0.2104   -2.2925 C   0  0  0  0  0  0  0  0  0  0  0  0
    1.3438   -1.0237    1.4949 H   0  0  0  0  0  0  0  0  0  0  0  0
    0.9536   -1.4865   -0.1782 H   0  0  0  0  0  0  0  0  0  0  0  0
    0.7715    0.1956    0.3323 H   0  0  0  0  0  0  0  0  0  0  0  0
    3.6451   -0.9293    1.9762 H   0  0  0  0  0  0  0  0  0  0  0  0
    6.0106   -0.4827    1.3510 H   0  0  0  0  0  0  0  0  0  0  0  0
    6.6134    2.4651   -1.3297 H   0  0  0  0  0  0  0  0  0  0  0  0
    8.3100    1.9030   -1.3120 H   0  0  0  0  0  0  0  0  0  0  0  0
    7.3857    2.0264    0.2235 H   0  0  0  0  0  0  0  0  0  0  0  0
    8.5417   -1.6508   -3.6915 H   0  0  0  0  0  0  0  0  0  0  0  0
    6.8726   -1.0319   -3.7790 H   0  0  0  0  0  0  0  0  0  0  0  0
    7.4473   -3.4839   -4.8826 H   0  0  0  0  0  0  0  0  0  0  0  0
    5.9324   -3.2528   -3.9786 H   0  0  0  0  0  0  0  0  0  0  0  0
    8.5740   -4.3837   -2.8795 H   0  0  0  0  0  0  0  0  0  0  0  0
    6.9717   -5.1506   -2.7857 H   0  0  0  0  0  0  0  0  0  0  0  0
    7.9272   -3.6179   -0.6815 H   0  0  0  0  0  0  0  0  0  0  0  0
    6.2052   -3.5528   -1.1161 H   0  0  0  0  0  0  0  0  0  0  0  0
    4.7400    0.5841   -2.6122 H   0  0  0  0  0  0  0  0  0  0  0  0
    2.4670    0.5471   -3.2553 H   0  0  0  0  0  0  0  0  0  0  0  0
    1.3172    0.9604   -1.9622 H   0  0  0  0  0  0  0  0  0  0  0  0
    1.4942   -0.7217   -2.4739 H   0  0  0  0  0  0  0  0  0  0  0  0
  1  2  1  0
  1 19  1  0
  1 20  1  0
  1 21  1  0
  2  3  2  0
  2 17  1  0
  3  4  1  0
  3 22  1  0
  4  5  2  0
  4 23  1  0
  5  6  1  0
  5 16  1  0
  6  7  1  0
  8  6  1  1
  7 24  1  0
  7 25  1  0
  7 26  1  0
  8  9  2  0
  8 10  2  0
  8 11  1  0
 11 12  1  0
 11 15  1  0
 12 13  1  0
 12 27  1  0
 12 28  1  0
 13 14  1  0
 13 29  1  0
 13 30  1  0
 14 15  1  0
 14 31  1  0
 14 32  1  0
 15 33  1  0
 15 34  1  0
 16 17  2  0
 16 35  1  0
 17 18  1  0
 18 36  1  0
 18 37  1  0
 18 38  1  0
M  END

