
     RDKit          3D

 18 19  0  0  0  0  0  0  0  0999 V2000
    2.6400   -0.2422   -1.1751 N   0  0  0  0  0  0  0  0  0  0  0  0
    2.9149   -0.2376    0.2538 C   0  0  0  0  0  0  0  0  0  0  0  0
    3.2210    1.1548    0.7338 C   0  0  0  0  0  0  0  0  0  0  0  0
    3.8848    1.4658    1.8028 N   0  0  0  0  0  0  0  0  0  0  0  0
    3.9168    2.8229    1.9513 C   0  0  0  0  0  0  0  0  0  0  0  0
    3.2823    3.5690    0.9953 C   0  0  0  0  0  0  0  0  0  0  0  0
    2.5835    2.5420   -0.1977 S   0  0  0  0  0  0  0  0  0  0  0  0
    3.4230    5.0363    1.2773 C   0  0  0  0  0  0  0  0  0  0  0  0
    4.2024    4.9993    2.5060 N   0  0  0  0  0  0  0  0  0  0  0  0
    4.5377    3.7317    2.9649 C   0  0  0  0  0  0  0  0  0  0  0  0
    5.1805    3.4792    3.9597 O   0  0  0  0  0  0  0  0  0  0  0  0
    2.1659   -1.0980   -1.4566 H   0  0  0  0  0  0  0  0  0  0  0  0
    3.5027   -0.1825   -1.7157 H   0  0  0  0  0  0  0  0  0  0  0  0
    3.7430   -0.8904    0.5946 H   0  0  0  0  0  0  0  0  0  0  0  0
    2.0105   -0.5902    0.7808 H   0  0  0  0  0  0  0  0  0  0  0  0
    2.4446    5.5326    1.4190 H   0  0  0  0  0  0  0  0  0  0  0  0
    3.9492    5.5711    0.4643 H   0  0  0  0  0  0  0  0  0  0  0  0
    4.4964    5.8280    3.0071 H   0  0  0  0  0  0  0  0  0  0  0  0
  1  2  1  0
  1 12  1  0
  1 13  1  0
  2  3  1  0
  2 14  1  0
  2 15  1  0
  3  4  2  0
  3  7  1  0
  4  5  1  0
  5  6  1  0
  5 10  2  0
  6  7  2  0
  6  8  1  0
  8  9  1  0
  8 16  1  0
  8 17  1  0
  9 10  1  0
  9 18  1  0
 10 11  1  0
M  CHG  2   7   1  11  -1
M  END

