
     RDKit          3D

 66 73  0  0  0  0  0  0  0  0999 V2000
    1.2258    0.1474   -0.2690 O   0  0  0  0  0  0  0  0  0  0  0  0
    2.4371    0.0837   -0.2425 C   0  0  0  0  0  0  0  0  0  0  0  0
    3.1735   -1.2112   -0.2493 C   0  0  0  0  0  0  0  0  0  0  0  0
    2.4585   -2.3991   -0.2900 C   0  0  0  0  0  0  0  0  0  0  0  0
    3.1342   -3.6398   -0.2963 C   0  0  0  0  0  0  0  0  0  0  0  0
    4.5148   -3.6861   -0.2613 C   0  0  0  0  0  0  0  0  0  0  0  0
    5.2820   -2.4877   -0.2193 C   0  0  0  0  0  0  0  0  0  0  0  0
    6.6981   -2.4865   -0.1826 C   0  0  0  0  0  0  0  0  0  0  0  0
    7.4211   -1.2920   -0.1425 C   0  0  0  0  0  0  0  0  0  0  0  0
    8.8447   -1.3005   -0.1060 C   0  0  0  0  0  0  0  0  0  0  0  0
   10.0693   -1.2982   -0.0747 C   0  0  0  0  0  0  0  0  0  0  0  0
   11.4327   -1.2962   -0.0399 C   0  0  0  0  0  0  0  0  0  0  0  0
   12.6574   -1.2951   -0.0086 C   0  0  0  0  0  0  0  0  0  0  0  0
   14.0809   -1.2825    0.0276 C   0  0  0  0  0  0  0  0  0  0  0  0
   14.7841   -0.0403    0.0054 C   0  0  0  0  0  0  0  0  0  0  0  0
   16.1645   -0.0097    0.0398 C   0  0  0  0  0  0  0  0  0  0  0  0
   16.9113   -1.2168    0.0977 C   0  0  0  0  0  0  0  0  0  0  0  0
   18.3284   -1.1889    0.1318 C   0  0  0  0  0  0  0  0  0  0  0  0
   19.0465   -2.3741    0.1902 C   0  0  0  0  0  0  0  0  0  0  0  0
   18.3741   -3.6164    0.2153 C   0  0  0  0  0  0  0  0  0  0  0  0
   16.9935   -3.6668    0.1815 C   0  0  0  0  0  0  0  0  0  0  0  0
   16.2232   -2.4712    0.1218 C   0  0  0  0  0  0  0  0  0  0  0  0
   14.8071   -2.4743    0.0855 C   0  0  0  0  0  0  0  0  0  0  0  0
   19.0614    0.1078    0.1053 C   0  0  0  0  0  0  0  0  0  0  0  0
   20.2725    0.1750    0.1302 O   0  0  0  0  0  0  0  0  0  0  0  0
   18.2698    1.2760    0.0495 N   0  0  0  0  0  0  0  0  0  0  0  0
   18.9628    2.5449    0.0251 C   0  0  0  0  0  0  0  0  0  0  0  0
   19.5646    2.9846   -1.1564 C   0  0  0  0  0  0  0  0  0  0  0  0
   20.2356    4.2092   -1.1773 C   0  0  0  0  0  0  0  0  0  0  0  0
   20.3002    4.9940   -0.0221 C   0  0  0  0  0  0  0  0  0  0  0  0
   19.6937    4.5501    1.1567 C   0  0  0  0  0  0  0  0  0  0  0  0
   19.0262    3.3238    1.1830 C   0  0  0  0  0  0  0  0  0  0  0  0
   16.8593    1.3100    0.0157 C   0  0  0  0  0  0  0  0  0  0  0  0
   16.2597    2.3632   -0.0309 O   0  0  0  0  0  0  0  0  0  0  0  0
    6.7147   -0.0516   -0.1390 C   0  0  0  0  0  0  0  0  0  0  0  0
    5.3342   -0.0251   -0.1742 C   0  0  0  0  0  0  0  0  0  0  0  0
    4.5906   -1.2349   -0.2143 C   0  0  0  0  0  0  0  0  0  0  0  0
    4.6360    1.2930   -0.1701 C   0  0  0  0  0  0  0  0  0  0  0  0
    5.2328    2.3483   -0.1387 O   0  0  0  0  0  0  0  0  0  0  0  0
    3.2256    1.2548   -0.2041 N   0  0  0  0  0  0  0  0  0  0  0  0
    2.5292    2.5220   -0.1991 C   0  0  0  0  0  0  0  0  0  0  0  0
    1.9234    2.9767    0.9747 C   0  0  0  0  0  0  0  0  0  0  0  0
    1.2492    4.1998    0.9768 C   0  0  0  0  0  0  0  0  0  0  0  0
    1.1854    4.9681   -0.1894 C   0  0  0  0  0  0  0  0  0  0  0  0
    1.7959    4.5093   -1.3604 C   0  0  0  0  0  0  0  0  0  0  0  0
    2.4666    3.2845   -1.3680 C   0  0  0  0  0  0  0  0  0  0  0  0
    1.3683   -2.3480   -0.3165 H   0  0  0  0  0  0  0  0  0  0  0  0
    2.5571   -4.5668   -0.3287 H   0  0  0  0  0  0  0  0  0  0  0  0
    5.0362   -4.6469   -0.2657 H   0  0  0  0  0  0  0  0  0  0  0  0
    7.2331   -3.4386   -0.1861 H   0  0  0  0  0  0  0  0  0  0  0  0
   14.2377    0.9029   -0.0388 H   0  0  0  0  0  0  0  0  0  0  0  0
   20.1366   -2.3197    0.2155 H   0  0  0  0  0  0  0  0  0  0  0  0
   18.9537   -4.5412    0.2615 H   0  0  0  0  0  0  0  0  0  0  0  0
   16.4747   -4.6288    0.2005 H   0  0  0  0  0  0  0  0  0  0  0  0
   14.2746   -3.4277    0.1033 H   0  0  0  0  0  0  0  0  0  0  0  0
   19.5088    2.3653   -2.0538 H   0  0  0  0  0  0  0  0  0  0  0  0
   20.7086    4.5514   -2.1010 H   0  0  0  0  0  0  0  0  0  0  0  0
   20.8236    5.9531   -0.0407 H   0  0  0  0  0  0  0  0  0  0  0  0
   19.7401    5.1605    2.0618 H   0  0  0  0  0  0  0  0  0  0  0  0
   18.5494    2.9693    2.0990 H   0  0  0  0  0  0  0  0  0  0  0  0
    7.2586    0.8937   -0.1087 H   0  0  0  0  0  0  0  0  0  0  0  0
    1.9787    2.3702    1.8808 H   0  0  0  0  0  0  0  0  0  0  0  0
    0.7731    4.5536    1.8945 H   0  0  0  0  0  0  0  0  0  0  0  0
    0.6594    5.9260   -0.1855 H   0  0  0  0  0  0  0  0  0  0  0  0
    1.7501    5.1069   -2.2741 H   0  0  0  0  0  0  0  0  0  0  0  0
    2.9466    2.9185   -2.2777 H   0  0  0  0  0  0  0  0  0  0  0  0
  1  2  2  0
  2  3  1  0
  2 40  1  0
  3  4  1  0
  3 37  2  0
  4  5  2  0
  4 47  1  0
  5  6  1  0
  5 48  1  0
  6  7  2  0
  6 49  1  0
  7  8  1  0
  7 37  1  0
  8  9  2  0
  8 50  1  0
  9 10  1  0
  9 35  1  0
 10 11  3  0
 11 12  1  0
 12 13  3  0
 13 14  1  0
 14 15  2  0
 14 23  1  0
 15 16  1  0
 15 51  1  0
 16 17  2  0
 16 33  1  0
 17 18  1  0
 17 22  1  0
 18 19  2  0
 18 24  1  0
 19 20  1  0
 19 52  1  0
 20 21  2  0
 20 53  1  0
 21 22  1  0
 21 54  1  0
 22 23  2  0
 23 55  1  0
 24 25  2  0
 24 26  1  0
 26 27  1  0
 26 33  1  0
 27 28  2  0
 27 32  1  0
 28 29  1  0
 28 56  1  0
 29 30  2  0
 29 57  1  0
 30 31  1  0
 30 58  1  0
 31 32  2  0
 31 59  1  0
 32 60  1  0
 33 34  2  0
 35 36  2  0
 35 61  1  0
 36 37  1  0
 36 38  1  0
 38 39  2  0
 38 40  1  0
 40 41  1  0
 41 42  2  0
 41 46  1  0
 42 43  1  0
 42 62  1  0
 43 44  2  0
 43 63  1  0
 44 45  1  0
 44 64  1  0
 45 46  2  0
 45 65  1  0
 46 66  1  0
M  END

