
     RDKit          3D

 31 32  0  0  0  0  0  0  0  0999 V2000
    0.6747   -2.3669    0.0941 C   0  0  0  0  0  0  0  0  0  0  0  0
    2.2004   -2.2994    0.1920 C   0  0  0  0  0  0  0  0  0  0  0  0
    2.8565   -1.2152   -0.6814 C   0  0  1  0  0  0  0  0  0  0  0  0
    2.4770    0.2079   -0.2531 C   0  0  0  0  0  0  0  0  0  0  0  0
    4.3946   -1.3432   -0.6993 C   0  0  0  0  0  0  0  0  0  0  0  0
    4.9043   -2.5959   -1.2326 N   0  0  0  0  0  0  0  0  0  0  0  0
    4.9259   -2.9286   -2.5747 C   0  0  0  0  0  0  0  0  0  0  0  0
    5.4654   -4.1795   -2.7536 C   0  0  0  0  0  0  0  0  0  0  0  0
    5.8095   -4.6697   -1.4491 C   0  0  0  0  0  0  0  0  0  0  0  0
    6.3931   -5.8628   -0.9803 C   0  0  0  0  0  0  0  0  0  0  0  0
    6.5947   -6.0051    0.3866 C   0  0  0  0  0  0  0  0  0  0  0  0
    7.3201   -7.4812    1.0036 Cl  0  0  0  0  0  0  0  0  0  0  0  0
    6.2337   -4.9962    1.3056 C   0  0  0  0  0  0  0  0  0  0  0  0
    5.6542   -3.8122    0.8608 C   0  0  0  0  0  0  0  0  0  0  0  0
    5.4439   -3.6517   -0.5173 C   0  0  0  0  0  0  0  0  0  0  0  0
    0.2797   -3.1990    0.6979 H   0  0  0  0  0  0  0  0  0  0  0  0
    0.3486   -2.5311   -0.9468 H   0  0  0  0  0  0  0  0  0  0  0  0
    0.1896   -1.4452    0.4528 H   0  0  0  0  0  0  0  0  0  0  0  0
    2.6165   -3.2799   -0.0920 H   0  0  0  0  0  0  0  0  0  0  0  0
    2.4983   -2.1367    1.2449 H   0  0  0  0  0  0  0  0  0  0  0  0
    2.5073   -1.3641   -1.7210 H   0  0  0  0  0  0  0  0  0  0  0  0
    2.8012    0.4096    0.7827 H   0  0  0  0  0  0  0  0  0  0  0  0
    1.3900    0.3697   -0.2973 H   0  0  0  0  0  0  0  0  0  0  0  0
    2.9478    0.9638   -0.9026 H   0  0  0  0  0  0  0  0  0  0  0  0
    4.7897   -1.2232    0.3214 H   0  0  0  0  0  0  0  0  0  0  0  0
    4.8192   -0.5175   -1.2951 H   0  0  0  0  0  0  0  0  0  0  0  0
    4.5516   -2.2237   -3.3158 H   0  0  0  0  0  0  0  0  0  0  0  0
    5.6081   -4.6871   -3.7052 H   0  0  0  0  0  0  0  0  0  0  0  0
    6.6833   -6.6596   -1.6671 H   0  0  0  0  0  0  0  0  0  0  0  0
    6.4136   -5.1570    2.3696 H   0  0  0  0  0  0  0  0  0  0  0  0
    5.3742   -3.0397    1.5795 H   0  0  0  0  0  0  0  0  0  0  0  0
  1  2  1  0
  1 16  1  0
  1 17  1  0
  1 18  1  0
  2  3  1  0
  2 19  1  0
  2 20  1  0
  3  4  1  0
  3  5  1  0
  3 21  1  6
  4 22  1  0
  4 23  1  0
  4 24  1  0
  5  6  1  0
  5 25  1  0
  5 26  1  0
  6  7  1  0
  6 15  1  0
  7  8  2  0
  7 27  1  0
  8  9  1  0
  8 28  1  0
  9 10  1  0
  9 15  2  0
 10 11  2  0
 10 29  1  0
 11 12  1  0
 11 13  1  0
 13 14  2  0
 13 30  1  0
 14 15  1  0
 14 31  1  0
M  END

