
     RDKit          3D

 22 22  0  0  0  0  0  0  0  0999 V2000
    3.9025    0.8021    1.4074 Br  0  0  0  0  0  0  0  0  0  0  0  0
    2.8485    0.0992   -0.0957 C   0  0  0  0  0  0  0  0  0  0  0  0
    3.4013   -1.2127   -0.6534 C   0  0  1  0  0  0  0  0  0  0  0  0
    3.3162   -2.3858    0.3270 C   0  0  0  0  0  0  0  0  0  0  0  0
    3.7084   -3.7549   -0.2509 C   0  0  0  0  0  0  0  0  0  0  0  0
    2.7251   -4.3036   -1.2988 C   0  0  0  0  0  0  0  0  0  0  0  0
    2.8500   -3.7330   -2.7255 C   0  0  0  0  0  0  0  0  0  0  0  0
    3.2647   -2.2586   -2.8098 C   0  0  0  0  0  0  0  0  0  0  0  0
    2.6482   -1.4308   -1.8390 O   0  0  0  0  0  0  0  0  0  0  0  0
    2.8670    0.8710   -0.8735 H   0  0  0  0  0  0  0  0  0  0  0  0
    1.8212   -0.0240    0.2711 H   0  0  0  0  0  0  0  0  0  0  0  0
    4.4641   -1.0507   -0.9273 H   0  0  0  0  0  0  0  0  0  0  0  0
    2.2804   -2.4454    0.7082 H   0  0  0  0  0  0  0  0  0  0  0  0
    3.9555   -2.1522    1.1936 H   0  0  0  0  0  0  0  0  0  0  0  0
    3.7535   -4.4682    0.5890 H   0  0  0  0  0  0  0  0  0  0  0  0
    4.7346   -3.7185   -0.6615 H   0  0  0  0  0  0  0  0  0  0  0  0
    1.7017   -4.1240   -0.9274 H   0  0  0  0  0  0  0  0  0  0  0  0
    2.8302   -5.3998   -1.3583 H   0  0  0  0  0  0  0  0  0  0  0  0
    1.8872   -3.8750   -3.2442 H   0  0  0  0  0  0  0  0  0  0  0  0
    3.5935   -4.3112   -3.3033 H   0  0  0  0  0  0  0  0  0  0  0  0
    2.9912   -1.8551   -3.7994 H   0  0  0  0  0  0  0  0  0  0  0  0
    4.3643   -2.1669   -2.7221 H   0  0  0  0  0  0  0  0  0  0  0  0
  1  2  1  0
  2  3  1  0
  2 10  1  0
  2 11  1  0
  3  4  1  0
  3  9  1  0
  3 12  1  6
  4  5  1  0
  4 13  1  0
  4 14  1  0
  5  6  1  0
  5 15  1  0
  5 16  1  0
  6  7  1  0
  6 17  1  0
  6 18  1  0
  7  8  1  0
  7 19  1  0
  7 20  1  0
  8  9  1  0
  8 21  1  0
  8 22  1  0
M  END

