
     RDKit          3D

 47 48  0  0  0  0  0  0  0  0999 V2000
    3.9692    0.2200    4.0442 C   0  0  0  0  0  0  0  0  0  0  0  0
    5.2666    0.1715    3.3903 N   0  0  0  0  0  0  0  0  0  0  0  0
    5.2589    0.4007    1.9473 C   0  0  1  0  0  0  0  0  0  0  0  0
    4.8180    1.8244    1.6027 C   0  0  0  0  0  0  0  0  0  0  0  0
    6.6733    0.1554    1.3941 C   0  0  0  0  0  0  0  0  0  0  0  0
    7.2147   -1.1631    1.6928 N   0  0  0  0  0  0  0  0  0  0  0  0
    7.0091   -2.2419    0.8764 C   0  0  0  0  0  0  0  0  0  0  0  0
    6.3010   -2.1716   -0.1194 O   0  0  0  0  0  0  0  0  0  0  0  0
    7.7541   -3.5165    1.2818 C   0  0  1  0  0  0  0  0  0  0  0  0
    6.8504   -4.7665    1.2195 C   0  0  0  0  0  0  0  0  0  0  0  0
    6.5992   -5.2489   -0.2107 C   0  0  0  0  0  0  0  0  0  0  0  0
    7.8696   -5.4563   -0.9187 N   0  0  0  0  0  0  0  0  0  0  0  0
    8.0653   -6.4643   -1.8334 C   0  0  0  0  0  0  0  0  0  0  0  0
    8.7501   -6.1589   -2.9494 N   0  0  0  0  0  0  0  0  0  0  0  0
    8.9599   -7.0597   -3.9006 C   0  0  0  0  0  0  0  0  0  0  0  0
    8.4765   -8.3678   -3.8323 C   0  0  0  0  0  0  0  0  0  0  0  0
    8.6431   -9.3378   -4.9654 C   0  0  1  0  0  0  0  0  0  0  0  0
    9.6720   -9.0023   -5.7634 F   0  0  0  0  0  0  0  0  0  0  0  0
    8.8642  -10.5900   -4.5194 F   0  0  0  0  0  0  0  0  0  0  0  0
    7.5452   -9.3978   -5.7464 F   0  0  0  0  0  0  0  0  0  0  0  0
    7.8242   -8.7472   -2.6511 C   0  0  0  0  0  0  0  0  0  0  0  0
    7.6401   -7.8188   -1.6390 C   0  0  0  0  0  0  0  0  0  0  0  0
    7.0273   -8.4114   -0.1036 Cl  0  0  0  0  0  0  0  0  0  0  0  0
    8.6621   -4.2285   -1.0168 C   0  0  0  0  0  0  0  0  0  0  0  0
    9.0029   -3.7256    0.3899 C   0  0  0  0  0  0  0  0  0  0  0  0
    4.0710   -0.1218    5.0862 H   0  0  0  0  0  0  0  0  0  0  0  0
    3.1870   -0.4043    3.5561 H   0  0  0  0  0  0  0  0  0  0  0  0
    3.5850    1.2517    4.0837 H   0  0  0  0  0  0  0  0  0  0  0  0
    5.6758   -0.7473    3.5541 H   0  0  0  0  0  0  0  0  0  0  0  0
    4.5759   -0.3071    1.4247 H   0  0  0  0  0  0  0  0  0  0  0  0
    5.4500    2.5601    2.1272 H   0  0  0  0  0  0  0  0  0  0  0  0
    3.7724    2.0093    1.8901 H   0  0  0  0  0  0  0  0  0  0  0  0
    4.8947    2.0022    0.5185 H   0  0  0  0  0  0  0  0  0  0  0  0
    7.3581    0.9080    1.8166 H   0  0  0  0  0  0  0  0  0  0  0  0
    6.6512    0.2713    0.3005 H   0  0  0  0  0  0  0  0  0  0  0  0
    7.8477   -1.2611    2.4765 H   0  0  0  0  0  0  0  0  0  0  0  0
    8.0973   -3.3920    2.3230 H   0  0  0  0  0  0  0  0  0  0  0  0
    5.8845   -4.5668    1.7115 H   0  0  0  0  0  0  0  0  0  0  0  0
    7.3416   -5.5797    1.7799 H   0  0  0  0  0  0  0  0  0  0  0  0
    6.0144   -4.4879   -0.7546 H   0  0  0  0  0  0  0  0  0  0  0  0
    6.0201   -6.1765   -0.1949 H   0  0  0  0  0  0  0  0  0  0  0  0
    9.5404   -6.7304   -4.7689 H   0  0  0  0  0  0  0  0  0  0  0  0
    7.5008   -9.7780   -2.4975 H   0  0  0  0  0  0  0  0  0  0  0  0
    8.1059   -3.4558   -1.5772 H   0  0  0  0  0  0  0  0  0  0  0  0
    9.5760   -4.4442   -1.5816 H   0  0  0  0  0  0  0  0  0  0  0  0
    9.5796   -2.7885    0.3146 H   0  0  0  0  0  0  0  0  0  0  0  0
    9.6554   -4.4681    0.8798 H   0  0  0  0  0  0  0  0  0  0  0  0
  1  2  1  0
  1 26  1  0
  1 27  1  0
  1 28  1  0
  2  3  1  0
  2 29  1  0
  3  4  1  0
  3  5  1  0
  3 30  1  6
  4 31  1  0
  4 32  1  0
  4 33  1  0
  5  6  1  0
  5 34  1  0
  5 35  1  0
  6  7  1  0
  6 36  1  0
  7  8  2  0
  7  9  1  0
  9 10  1  0
  9 25  1  0
  9 37  1  1
 10 11  1  0
 10 38  1  0
 10 39  1  0
 11 12  1  0
 11 40  1  0
 11 41  1  0
 12 13  1  0
 12 24  1  0
 13 14  2  0
 13 22  1  0
 14 15  1  0
 15 16  2  0
 15 42  1  0
 16 17  1  0
 16 21  1  0
 17 18  1  6
 17 19  1  0
 17 20  1  0
 21 22  2  0
 21 43  1  0
 22 23  1  0
 24 25  1  0
 24 44  1  0
 24 45  1  0
 25 46  1  0
 25 47  1  0
M  END

