
     RDKit          3D

 36 38  0  0  0  0  0  0  0  0999 V2000
    0.9217    0.5004    0.4674 C   0  0  0  0  0  0  0  0  0  0  0  0
    2.3448    0.2157    0.4568 N   0  0  0  0  0  0  0  0  0  0  0  0
    2.7182   -0.7897    1.4543 C   0  0  0  0  0  0  0  0  0  0  0  0
    4.2169   -1.1049    1.4198 C   0  0  0  0  0  0  0  0  0  0  0  0
    5.0183    0.0626    1.5479 O   0  0  0  0  0  0  0  0  0  0  0  0
    4.6584    0.9700    0.5440 C   0  0  2  0  0  0  0  0  0  0  0  0
    5.3911    2.3059    0.5710 C   0  0  0  0  0  0  0  0  0  0  0  0
    4.4416    3.1424   -0.1869 N   0  0  0  0  0  0  0  0  0  0  0  0
    4.9044    4.4839   -1.0417 S   0  0  1  0  0  0  0  0  0  0  0  0
    6.3535    4.4076   -1.2356 O   0  0  0  0  0  0  0  0  0  0  0  0
    3.9609    4.6302   -2.1504 O   0  0  0  0  0  0  0  0  0  0  0  0
    4.6121    5.8732    0.0695 C   0  0  0  0  0  0  0  0  0  0  0  0
    3.3671    6.5131    0.0892 C   0  0  0  0  0  0  0  0  0  0  0  0
    3.1024    7.5246    0.9175 N   0  0  0  0  0  0  0  0  0  0  0  0
    4.0592    7.9460    1.7435 C   0  0  0  0  0  0  0  0  0  0  0  0
    5.3409    7.3757    1.7683 C   0  0  0  0  0  0  0  0  0  0  0  0
    6.6591    8.0571    2.9540 Br  0  0  0  0  0  0  0  0  0  0  0  0
    5.6347    6.3151    0.9120 C   0  0  0  0  0  0  0  0  0  0  0  0
    3.1095    2.5246   -0.3661 C   0  0  0  0  0  0  0  0  0  0  0  0
    3.1866    1.3794    0.6464 C   0  0  1  0  0  0  0  0  0  0  0  0
    0.3553   -0.4266    0.2862 H   0  0  0  0  0  0  0  0  0  0  0  0
    0.6646    1.2075   -0.3360 H   0  0  0  0  0  0  0  0  0  0  0  0
    0.5682    0.9313    1.4321 H   0  0  0  0  0  0  0  0  0  0  0  0
    2.1558   -1.7178    1.2588 H   0  0  0  0  0  0  0  0  0  0  0  0
    2.4475   -0.4509    2.4814 H   0  0  0  0  0  0  0  0  0  0  0  0
    4.4613   -1.6214    0.4705 H   0  0  0  0  0  0  0  0  0  0  0  0
    4.4813   -1.7692    2.2554 H   0  0  0  0  0  0  0  0  0  0  0  0
    4.7990    0.5034   -0.4537 H   0  0  0  0  0  0  0  0  0  0  0  0
    6.3716    2.2789    0.0790 H   0  0  0  0  0  0  0  0  0  0  0  0
    5.5206    2.6544    1.6119 H   0  0  0  0  0  0  0  0  0  0  0  0
    2.5772    6.2021   -0.6013 H   0  0  0  0  0  0  0  0  0  0  0  0
    3.8155    8.7761    2.4151 H   0  0  0  0  0  0  0  0  0  0  0  0
    6.6229    5.8535    0.8784 H   0  0  0  0  0  0  0  0  0  0  0  0
    2.9709    2.1462   -1.3925 H   0  0  0  0  0  0  0  0  0  0  0  0
    2.3039    3.2423   -0.1495 H   0  0  0  0  0  0  0  0  0  0  0  0
    3.0415    1.8129    1.6657 H   0  0  0  0  0  0  0  0  0  0  0  0
  1  2  1  0
  1 21  1  0
  1 22  1  0
  1 23  1  0
  2  3  1  0
  2 20  1  0
  3  4  1  0
  3 24  1  0
  3 25  1  0
  4  5  1  0
  4 26  1  0
  4 27  1  0
  5  6  1  0
  6  7  1  0
  6 20  1  0
  6 28  1  6
  7  8  1  0
  7 29  1  0
  7 30  1  0
  8  9  1  0
  8 19  1  0
  9 10  2  0
  9 11  2  0
  9 12  1  1
 12 13  2  0
 12 18  1  0
 13 14  1  0
 13 31  1  0
 14 15  2  0
 15 16  1  0
 15 32  1  0
 16 17  1  0
 16 18  2  0
 18 33  1  0
 19 20  1  0
 19 34  1  0
 19 35  1  0
 20 36  1  1
M  END

