
     RDKit          3D

 29 30  0  0  0  0  0  0  0  0999 V2000
    1.2278    0.2448    0.9810 Cl  0  0  0  0  0  0  0  0  0  0  0  0
    2.8992    0.1097    0.5170 C   0  0  0  0  0  0  0  0  0  0  0  0
    3.5791    1.2508    0.0724 C   0  0  0  0  0  0  0  0  0  0  0  0
    4.9151    1.1774   -0.3059 C   0  0  0  0  0  0  0  0  0  0  0  0
    5.7442    2.6094   -0.8500 Cl  0  0  0  0  0  0  0  0  0  0  0  0
    5.6137   -0.0504   -0.2522 C   0  0  0  0  0  0  0  0  0  0  0  0
    6.9027   -0.0438   -0.6414 O   0  0  0  0  0  0  0  0  0  0  0  0
    7.6915   -1.2236   -0.5563 C   0  0  0  0  0  0  0  0  0  0  0  0
    9.1006   -0.8774   -1.0161 C   0  0  1  0  0  0  0  0  0  0  0  0
    9.7184    0.2382   -0.1812 C   0  0  0  0  0  0  0  0  0  0  0  0
   10.0042   -0.2532    1.7154 Br  0  0  0  0  0  0  0  0  0  0  0  0
   10.0403   -2.1025   -1.2336 C   0  0  0  0  0  0  0  0  0  0  0  0
   10.4035   -1.5698   -2.6441 C   0  0  0  0  0  0  0  0  0  0  0  0
    9.2479   -0.5429   -2.5411 C   0  0  0  0  0  0  0  0  0  0  0  0
    4.9284   -1.1862    0.1962 C   0  0  0  0  0  0  0  0  0  0  0  0
    3.5827   -1.1114    0.5777 C   0  0  0  0  0  0  0  0  0  0  0  0
    2.7906   -2.5610    1.1236 Cl  0  0  0  0  0  0  0  0  0  0  0  0
    3.0559    2.2057    0.0249 H   0  0  0  0  0  0  0  0  0  0  0  0
    7.2670   -2.0101   -1.2067 H   0  0  0  0  0  0  0  0  0  0  0  0
    7.7064   -1.5998    0.4825 H   0  0  0  0  0  0  0  0  0  0  0  0
    9.0673    1.1205   -0.1644 H   0  0  0  0  0  0  0  0  0  0  0  0
   10.7119    0.5166   -0.5537 H   0  0  0  0  0  0  0  0  0  0  0  0
    9.4857   -3.0533   -1.2651 H   0  0  0  0  0  0  0  0  0  0  0  0
   10.8570   -2.2091   -0.5047 H   0  0  0  0  0  0  0  0  0  0  0  0
   10.3386   -2.2934   -3.4700 H   0  0  0  0  0  0  0  0  0  0  0  0
   11.3978   -1.0999   -2.6840 H   0  0  0  0  0  0  0  0  0  0  0  0
    8.3531   -0.8342   -3.1113 H   0  0  0  0  0  0  0  0  0  0  0  0
    9.4787    0.5045   -2.7892 H   0  0  0  0  0  0  0  0  0  0  0  0
    5.4277   -2.1514    0.2579 H   0  0  0  0  0  0  0  0  0  0  0  0
  1  2  1  0
  2  3  2  0
  2 16  1  0
  3  4  1  0
  3 18  1  0
  4  5  1  0
  4  6  2  0
  6  7  1  0
  6 15  1  0
  7  8  1  0
  9  8  1  1
  8 19  1  0
  8 20  1  0
  9 10  1  0
  9 12  1  0
  9 14  1  0
 10 11  1  0
 10 21  1  0
 10 22  1  0
 12 13  1  0
 12 23  1  0
 12 24  1  0
 13 14  1  0
 13 25  1  0
 13 26  1  0
 14 27  1  0
 14 28  1  0
 15 16  2  0
 15 29  1  0
 16 17  1  0
M  END

