
     RDKit          3D

 50 52  0  0  0  0  0  0  0  0999 V2000
    3.1700    1.6188   -0.0542 C   0  0  0  0  0  0  0  0  0  0  0  0
    2.2695    0.4260    0.3019 C   0  0  1  0  0  0  0  0  0  0  0  0
    1.4263    0.0196   -0.9158 C   0  0  0  0  0  0  0  0  0  0  0  0
    3.0583   -0.7702    0.9468 C   0  0  2  0  0  0  0  0  0  0  0  0
    3.9108   -0.2973    2.1435 C   0  0  0  0  0  0  0  0  0  0  0  0
    3.9640   -1.5132   -0.0749 C   0  0  0  0  0  0  0  0  0  0  0  0
    3.1744   -2.6891   -0.4569 N   0  0  0  0  0  0  0  0  0  0  0  0
    3.8579   -3.8423   -1.0026 C   0  0  0  0  0  0  0  0  0  0  0  0
    4.1603   -3.7482   -2.5053 C   0  0  0  0  0  0  0  0  0  0  0  0
    5.0703   -4.3874   -2.9994 O   0  0  0  0  0  0  0  0  0  0  0  0
    3.2897   -2.9373   -3.1858 N   0  0  0  0  0  0  0  0  0  0  0  0
    3.2204   -2.6664   -4.5633 C   0  0  0  0  0  0  0  0  0  0  0  0
    2.1975   -1.8131   -5.0163 C   0  0  0  0  0  0  0  0  0  0  0  0
    2.0720   -1.4991   -6.3681 C   0  0  0  0  0  0  0  0  0  0  0  0
    2.9756   -2.0402   -7.2868 C   0  0  0  0  0  0  0  0  0  0  0  0
    2.8258   -1.6502   -8.9865 Cl  0  0  0  0  0  0  0  0  0  0  0  0
    3.9948   -2.8907   -6.8523 C   0  0  0  0  0  0  0  0  0  0  0  0
    4.1220   -3.2066   -5.4986 C   0  0  0  0  0  0  0  0  0  0  0  0
    2.2432   -2.9500    0.5161 N   0  0  0  0  0  0  0  0  0  0  0  0
    2.1061   -1.9359    1.3051 C   0  0  0  0  0  0  0  0  0  0  0  0
    1.0883   -1.9842    2.3747 C   0  0  0  0  0  0  0  0  0  0  0  0
    0.3344   -3.1655    2.5585 C   0  0  0  0  0  0  0  0  0  0  0  0
   -0.6337   -3.2643    3.5512 C   0  0  0  0  0  0  0  0  0  0  0  0
   -0.8763   -2.1708    4.3923 C   0  0  0  0  0  0  0  0  0  0  0  0
   -2.0923   -2.2888    5.6414 Cl  0  0  0  0  0  0  0  0  0  0  0  0
   -0.1520   -0.9892    4.2354 C   0  0  0  0  0  0  0  0  0  0  0  0
    0.8198   -0.9032    3.2352 C   0  0  0  0  0  0  0  0  0  0  0  0
    2.5677    2.4277   -0.4971 H   0  0  0  0  0  0  0  0  0  0  0  0
    3.9379    1.3448   -0.7970 H   0  0  0  0  0  0  0  0  0  0  0  0
    3.6846    2.0384    0.8224 H   0  0  0  0  0  0  0  0  0  0  0  0
    1.5645    0.7735    1.0764 H   0  0  0  0  0  0  0  0  0  0  0  0
    2.0616   -0.2274   -1.7826 H   0  0  0  0  0  0  0  0  0  0  0  0
    0.7783    0.8553   -1.2234 H   0  0  0  0  0  0  0  0  0  0  0  0
    0.7779   -0.8440   -0.7045 H   0  0  0  0  0  0  0  0  0  0  0  0
    4.8097    0.2318    1.7917 H   0  0  0  0  0  0  0  0  0  0  0  0
    4.2470   -1.1545    2.7465 H   0  0  0  0  0  0  0  0  0  0  0  0
    3.3692    0.3909    2.8076 H   0  0  0  0  0  0  0  0  0  0  0  0
    4.9100   -1.8378    0.4027 H   0  0  0  0  0  0  0  0  0  0  0  0
    4.2290   -0.9067   -0.9538 H   0  0  0  0  0  0  0  0  0  0  0  0
    3.2068   -4.7165   -0.8462 H   0  0  0  0  0  0  0  0  0  0  0  0
    4.8201   -4.0526   -0.4974 H   0  0  0  0  0  0  0  0  0  0  0  0
    2.5983   -2.4872   -2.5897 H   0  0  0  0  0  0  0  0  0  0  0  0
    1.4861   -1.3915   -4.3005 H   0  0  0  0  0  0  0  0  0  0  0  0
    1.2751   -0.8374   -6.7112 H   0  0  0  0  0  0  0  0  0  0  0  0
    4.6946   -3.3099   -7.5774 H   0  0  0  0  0  0  0  0  0  0  0  0
    4.9126   -3.8695   -5.1537 H   0  0  0  0  0  0  0  0  0  0  0  0
    0.5256   -4.0133    1.8995 H   0  0  0  0  0  0  0  0  0  0  0  0
   -1.2057   -4.1847    3.6806 H   0  0  0  0  0  0  0  0  0  0  0  0
   -0.3471   -0.1402    4.8923 H   0  0  0  0  0  0  0  0  0  0  0  0
    1.3673    0.0326    3.1362 H   0  0  0  0  0  0  0  0  0  0  0  0
  1  2  1  0
  1 28  1  0
  1 29  1  0
  1 30  1  0
  2  3  1  0
  2  4  1  0
  2 31  1  1
  3 32  1  0
  3 33  1  0
  3 34  1  0
  4  5  1  1
  4  6  1  0
  4 20  1  0
  5 35  1  0
  5 36  1  0
  5 37  1  0
  6  7  1  0
  6 38  1  0
  6 39  1  0
  7  8  1  0
  7 19  1  0
  8  9  1  0
  8 40  1  0
  8 41  1  0
  9 10  2  0
  9 11  1  0
 11 12  1  0
 11 42  1  0
 12 13  2  0
 12 18  1  0
 13 14  1  0
 13 43  1  0
 14 15  2  0
 14 44  1  0
 15 16  1  0
 15 17  1  0
 17 18  2  0
 17 45  1  0
 18 46  1  0
 19 20  2  0
 20 21  1  0
 21 22  2  0
 21 27  1  0
 22 23  1  0
 22 47  1  0
 23 24  2  0
 23 48  1  0
 24 25  1  0
 24 26  1  0
 26 27  2  0
 26 49  1  0
 27 50  1  0
M  END

