
     RDKit          3D

 47 50  0  0  0  0  0  0  0  0999 V2000
    1.0813   -0.8409   -0.6634 C   0  0  0  0  0  0  0  0  0  0  0  0
    2.5541   -0.6288   -0.5246 C   0  0  0  0  0  0  0  0  0  0  0  0
    3.3284    0.4580   -0.8525 C   0  0  0  0  0  0  0  0  0  0  0  0
    4.7005    0.1371   -0.5636 C   0  0  0  0  0  0  0  0  0  0  0  0
    5.7703    1.1004   -0.8124 C   0  0  0  0  0  0  0  0  0  0  0  0
    6.9694    1.0143   -1.2664 N   0  0  0  0  0  0  0  0  0  0  0  0
    7.4545   -0.2596   -1.6461 N   0  0  0  0  0  0  0  0  0  0  0  0
    7.2035   -0.7314   -2.9310 C   0  0  0  0  0  0  0  0  0  0  0  0
    6.2175    0.0248   -3.7741 C   0  0  0  0  0  0  0  0  0  0  0  0
    7.7942   -1.7738   -3.4268 N   0  0  0  0  0  0  0  0  0  0  0  0
    8.7538   -2.4210   -2.6791 C   0  0  0  0  0  0  0  0  0  0  0  0
    9.3945   -3.5634   -3.2118 C   0  0  0  0  0  0  0  0  0  0  0  0
   10.3799   -4.2149   -2.4847 C   0  0  0  0  0  0  0  0  0  0  0  0
   10.7599   -3.7497   -1.2086 C   0  0  0  0  0  0  0  0  0  0  0  0
   10.1423   -2.6302   -0.6692 C   0  0  0  0  0  0  0  0  0  0  0  0
    9.1369   -1.9634   -1.3954 C   0  0  0  0  0  0  0  0  0  0  0  0
    8.4750   -0.7876   -0.8214 C   0  0  0  0  0  0  0  0  0  0  0  0
    8.7091   -0.3017    0.2719 O   0  0  0  0  0  0  0  0  0  0  0  0
    4.7131   -1.1487   -0.0133 C   0  0  0  0  0  0  0  0  0  0  0  0
    5.8196   -1.9394    0.6060 C   0  0  0  0  0  0  0  0  0  0  0  0
    3.4086   -1.5992   -0.0090 N   0  0  0  0  0  0  0  0  0  0  0  0
    2.9711   -2.8770    0.5224 C   0  0  0  0  0  0  0  0  0  0  0  0
    2.5786   -2.8072    1.9691 C   0  0  0  0  0  0  0  0  0  0  0  0
    2.5941   -1.8150    2.9102 C   0  0  0  0  0  0  0  0  0  0  0  0
    2.0885   -2.4065    4.1188 C   0  0  0  0  0  0  0  0  0  0  0  0
    1.8077   -3.7059    3.8157 C   0  0  0  0  0  0  0  0  0  0  0  0
    2.1018   -3.9586    2.5109 O   0  0  0  0  0  0  0  0  0  0  0  0
    0.6151    0.0724   -1.0584 H   0  0  0  0  0  0  0  0  0  0  0  0
    0.5997   -1.0737    0.3013 H   0  0  0  0  0  0  0  0  0  0  0  0
    0.8385   -1.6624   -1.3605 H   0  0  0  0  0  0  0  0  0  0  0  0
    2.9650    1.3859   -1.2913 H   0  0  0  0  0  0  0  0  0  0  0  0
    5.4778    2.1479   -0.6389 H   0  0  0  0  0  0  0  0  0  0  0  0
    6.5040    1.0855   -3.8505 H   0  0  0  0  0  0  0  0  0  0  0  0
    5.2037   -0.0118   -3.3459 H   0  0  0  0  0  0  0  0  0  0  0  0
    6.2078   -0.4343   -4.7692 H   0  0  0  0  0  0  0  0  0  0  0  0
    9.0912   -3.9031   -4.2040 H   0  0  0  0  0  0  0  0  0  0  0  0
   10.8698   -5.0968   -2.9062 H   0  0  0  0  0  0  0  0  0  0  0  0
   11.5392   -4.2714   -0.6478 H   0  0  0  0  0  0  0  0  0  0  0  0
   10.4099   -2.2425    0.3158 H   0  0  0  0  0  0  0  0  0  0  0  0
    6.6604   -1.2838    0.8630 H   0  0  0  0  0  0  0  0  0  0  0  0
    6.2041   -2.7257   -0.0670 H   0  0  0  0  0  0  0  0  0  0  0  0
    5.4891   -2.4273    1.5362 H   0  0  0  0  0  0  0  0  0  0  0  0
    3.7739   -3.6183    0.3842 H   0  0  0  0  0  0  0  0  0  0  0  0
    2.1200   -3.2411   -0.0752 H   0  0  0  0  0  0  0  0  0  0  0  0
    2.9256   -0.7901    2.7603 H   0  0  0  0  0  0  0  0  0  0  0  0
    1.9554   -1.9218    5.0836 H   0  0  0  0  0  0  0  0  0  0  0  0
    1.4128   -4.5416    4.3872 H   0  0  0  0  0  0  0  0  0  0  0  0
  1  2  1  0
  1 28  1  0
  1 29  1  0
  1 30  1  0
  2  3  2  0
  2 21  1  0
  3  4  1  0
  3 31  1  0
  4  5  1  0
  4 19  2  0
  5  6  2  0
  5 32  1  0
  6  7  1  0
  7  8  1  0
  7 17  1  0
  8  9  1  0
  8 10  2  0
  9 33  1  0
  9 34  1  0
  9 35  1  0
 10 11  1  0
 11 12  2  0
 11 16  1  0
 12 13  1  0
 12 36  1  0
 13 14  2  0
 13 37  1  0
 14 15  1  0
 14 38  1  0
 15 16  2  0
 15 39  1  0
 16 17  1  0
 17 18  2  0
 19 20  1  0
 19 21  1  0
 20 40  1  0
 20 41  1  0
 20 42  1  0
 21 22  1  0
 22 23  1  0
 22 43  1  0
 22 44  1  0
 23 24  2  0
 23 27  1  0
 24 25  1  0
 24 45  1  0
 25 26  2  0
 25 46  1  0
 26 27  1  0
 26 47  1  0
M  END

