
     RDKit          3D

 45 49  0  0  0  0  0  0  0  0999 V2000
    0.5571   -0.8906   -4.9076 O   0  0  0  0  0  0  0  0  0  0  0  0
    1.1621   -1.8842   -5.3144 C   0  0  0  0  0  0  0  0  0  0  0  0
    0.8906   -2.3561   -6.6928 C   0  0  0  0  0  0  0  0  0  0  0  0
    0.9892   -3.6052   -7.2840 C   0  0  0  0  0  0  0  0  0  0  0  0
    0.5072   -3.6279   -8.6206 C   0  0  0  0  0  0  0  0  0  0  0  0
    0.0459   -2.3969   -9.0298 C   0  0  0  0  0  0  0  0  0  0  0  0
    0.1660   -1.2082   -7.7919 S   0  0  0  0  0  0  0  0  0  0  0  0
    2.1271   -2.6172   -4.4516 C   0  0  0  0  0  0  0  0  0  0  0  0
    3.1521   -3.3795   -4.9829 C   0  0  0  0  0  0  0  0  0  0  0  0
    4.0527   -4.0926   -4.1548 C   0  0  0  0  0  0  0  0  0  0  0  0
    5.1166   -4.8871   -4.6613 C   0  0  0  0  0  0  0  0  0  0  0  0
    5.9388   -5.5858   -3.8016 C   0  0  0  0  0  0  0  0  0  0  0  0
    5.7206   -5.5080   -2.4012 C   0  0  0  0  0  0  0  0  0  0  0  0
    4.6998   -4.7389   -1.8799 C   0  0  0  0  0  0  0  0  0  0  0  0
    3.8365   -4.0011   -2.7394 C   0  0  0  0  0  0  0  0  0  0  0  0
    2.8628   -3.2302   -2.2050 N   0  0  0  0  0  0  0  0  0  0  0  0
    2.0579   -2.5247   -2.9902 C   0  0  0  0  0  0  0  0  0  0  0  0
    1.1481   -1.7094   -2.4045 N   0  0  0  0  0  0  0  0  0  0  0  0
    1.0232   -1.5635   -0.9569 C   0  0  2  0  0  0  0  0  0  0  0  0
    2.0397   -1.5751   -0.5353 H   0  0  0  0  0  0  0  0  0  0  0  0
    0.1495   -2.6619   -0.2874 C   0  0  0  0  0  0  0  0  0  0  0  0
   -1.2842   -2.0871   -0.2418 C   0  0  0  0  0  0  0  0  0  0  0  0
   -1.0531   -0.5907   -0.2301 C   0  0  0  0  0  0  0  0  0  0  0  0
   -1.9371    0.4409    0.0964 C   0  0  0  0  0  0  0  0  0  0  0  0
   -1.4973    1.7677    0.0166 C   0  0  0  0  0  0  0  0  0  0  0  0
   -0.1895    2.0625   -0.3903 C   0  0  0  0  0  0  0  0  0  0  0  0
    0.6964    1.0305   -0.7210 C   0  0  0  0  0  0  0  0  0  0  0  0
    0.2588   -0.2925   -0.6308 C   0  0  0  0  0  0  0  0  0  0  0  0
    1.3592   -4.4874   -6.7622 H   0  0  0  0  0  0  0  0  0  0  0  0
    0.4969   -4.5181   -9.2513 H   0  0  0  0  0  0  0  0  0  0  0  0
   -0.3650   -2.1314  -10.0036 H   0  0  0  0  0  0  0  0  0  0  0  0
    3.2892   -3.4243   -6.0646 H   0  0  0  0  0  0  0  0  0  0  0  0
    5.2690   -4.9386   -5.7435 H   0  0  0  0  0  0  0  0  0  0  0  0
    6.7550   -6.1980   -4.1918 H   0  0  0  0  0  0  0  0  0  0  0  0
    6.3757   -6.0656   -1.7262 H   0  0  0  0  0  0  0  0  0  0  0  0
    4.5272   -4.6663   -0.8044 H   0  0  0  0  0  0  0  0  0  0  0  0
    0.6303   -1.0946   -3.0302 H   0  0  0  0  0  0  0  0  0  0  0  0
    0.5161   -2.8144    0.7409 H   0  0  0  0  0  0  0  0  0  0  0  0
    0.2321   -3.6241   -0.8107 H   0  0  0  0  0  0  0  0  0  0  0  0
   -1.8598   -2.4404    0.6288 H   0  0  0  0  0  0  0  0  0  0  0  0
   -1.8624   -2.3741   -1.1390 H   0  0  0  0  0  0  0  0  0  0  0  0
   -2.9602    0.2189    0.4130 H   0  0  0  0  0  0  0  0  0  0  0  0
   -2.1796    2.5816    0.2759 H   0  0  0  0  0  0  0  0  0  0  0  0
    0.1405    3.1030   -0.4463 H   0  0  0  0  0  0  0  0  0  0  0  0
    1.7170    1.2583   -1.0410 H   0  0  0  0  0  0  0  0  0  0  0  0
  1  2  2  0
  2  3  1  0
  2  8  1  0
  3  4  2  0
  3  7  1  0
  4  5  1  0
  4 29  1  0
  5  6  2  0
  5 30  1  0
  6  7  1  0
  6 31  1  0
  8  9  2  0
  8 17  1  0
  9 10  1  0
  9 32  1  0
 10 11  2  0
 10 15  1  0
 11 12  1  0
 11 33  1  0
 12 13  2  0
 12 34  1  0
 13 14  1  0
 13 35  1  0
 14 15  2  0
 14 36  1  0
 15 16  1  0
 16 17  2  0
 17 18  1  0
 18 19  1  0
 18 37  1  0
 19 20  1  1
 19 21  1  0
 19 28  1  0
 21 22  1  0
 21 38  1  0
 21 39  1  0
 22 23  1  0
 22 40  1  0
 22 41  1  0
 23 24  1  0
 23 28  2  0
 24 25  2  0
 24 42  1  0
 25 26  1  0
 25 43  1  0
 26 27  2  0
 26 44  1  0
 27 28  1  0
 27 45  1  0
M  END

