
     RDKit          3D

 41 43  0  0  0  0  0  0  0  0999 V2000
    4.8804   -2.4228    0.9469 C   0  0  0  0  0  0  0  0  0  0  0  0
    4.3997   -1.1328    0.3252 C   0  0  0  0  0  0  0  0  0  0  0  0
    5.3201   -0.1110    0.0586 C   0  0  0  0  0  0  0  0  0  0  0  0
    4.9281    1.1012   -0.5155 C   0  0  0  0  0  0  0  0  0  0  0  0
    3.5856    1.3095   -0.8390 C   0  0  0  0  0  0  0  0  0  0  0  0
    2.6509    0.3099   -0.5755 C   0  0  0  0  0  0  0  0  0  0  0  0
    3.0261   -0.9186    0.0107 C   0  0  0  0  0  0  0  0  0  0  0  0
    2.0502   -1.9752    0.2809 C   0  0  0  0  0  0  0  0  0  0  0  0
    0.7034   -1.9150    0.4090 C   0  0  0  0  0  0  0  0  0  0  0  0
   -0.2686   -0.7620    0.3832 C   0  0  0  0  0  0  0  0  0  0  0  0
   -1.5270   -1.3078    1.1017 C   0  0  0  0  0  0  0  0  0  0  0  0
   -1.5494   -2.8265    0.8218 C   0  0  1  0  0  0  0  0  0  0  0  0
   -1.9576   -3.3978    1.6707 H   0  0  0  0  0  0  0  0  0  0  0  0
   -2.3390   -3.2173   -0.4635 C   0  0  2  0  0  0  0  0  0  0  0  0
   -3.8603   -2.9891   -0.3150 C   0  0  0  0  0  0  0  0  0  0  0  0
   -4.3913   -4.2445    0.4151 C   0  0  0  0  0  0  0  0  0  0  0  0
   -3.3649   -5.3725    0.1084 C   0  0  0  0  0  0  0  0  0  0  0  0
   -2.2867   -4.7258   -0.7904 C   0  0  0  0  0  0  0  0  0  0  0  0
   -0.0605   -3.1729    0.6900 C   0  0  0  0  0  0  0  0  0  0  0  0
    0.4193   -4.2849    0.7946 O   0  0  0  0  0  0  0  0  0  0  0  0
    5.9635   -2.3865    1.1323 H   0  0  0  0  0  0  0  0  0  0  0  0
    4.6837   -3.2909    0.2959 H   0  0  0  0  0  0  0  0  0  0  0  0
    4.3815   -2.6280    1.9078 H   0  0  0  0  0  0  0  0  0  0  0  0
    6.3729   -0.2713    0.3071 H   0  0  0  0  0  0  0  0  0  0  0  0
    5.6720    1.8771   -0.7140 H   0  0  0  0  0  0  0  0  0  0  0  0
    3.2663    2.2469   -1.3011 H   0  0  0  0  0  0  0  0  0  0  0  0
    1.6110    0.4725   -0.8567 H   0  0  0  0  0  0  0  0  0  0  0  0
    2.4495   -2.9849    0.4240 H   0  0  0  0  0  0  0  0  0  0  0  0
   -0.5120   -0.4814   -0.6586 H   0  0  0  0  0  0  0  0  0  0  0  0
    0.1301    0.1451    0.8639 H   0  0  0  0  0  0  0  0  0  0  0  0
   -2.4442   -0.7943    0.7793 H   0  0  0  0  0  0  0  0  0  0  0  0
   -1.4276   -1.1356    2.1859 H   0  0  0  0  0  0  0  0  0  0  0  0
   -1.9356   -2.6228   -1.3019 H   0  0  0  0  0  0  0  0  0  0  0  0
   -4.3007   -2.9265   -1.3244 H   0  0  0  0  0  0  0  0  0  0  0  0
   -4.1211   -2.0515    0.2000 H   0  0  0  0  0  0  0  0  0  0  0  0
   -5.4100   -4.4998    0.0842 H   0  0  0  0  0  0  0  0  0  0  0  0
   -4.4580   -4.0646    1.5003 H   0  0  0  0  0  0  0  0  0  0  0  0
   -3.8311   -6.2414   -0.3812 H   0  0  0  0  0  0  0  0  0  0  0  0
   -2.9121   -5.7485    1.0393 H   0  0  0  0  0  0  0  0  0  0  0  0
   -2.5544   -4.8564   -1.8527 H   0  0  0  0  0  0  0  0  0  0  0  0
   -1.2919   -5.1677   -0.6444 H   0  0  0  0  0  0  0  0  0  0  0  0
  1  2  1  0
  1 21  1  0
  1 22  1  0
  1 23  1  0
  2  3  2  0
  2  7  1  0
  3  4  1  0
  3 24  1  0
  4  5  2  0
  4 25  1  0
  5  6  1  0
  5 26  1  0
  6  7  2  0
  6 27  1  0
  7  8  1  0
  8  9  2  0
  8 28  1  0
  9 10  1  0
  9 19  1  0
 10 11  1  0
 10 29  1  0
 10 30  1  0
 11 12  1  0
 11 31  1  0
 11 32  1  0
 12 13  1  1
 12 14  1  0
 12 19  1  0
 14 15  1  0
 14 18  1  0
 14 33  1  6
 15 16  1  0
 15 34  1  0
 15 35  1  0
 16 17  1  0
 16 36  1  0
 16 37  1  0
 17 18  1  0
 17 38  1  0
 17 39  1  0
 18 40  1  0
 18 41  1  0
 19 20  2  0
M  END

