
     RDKit          3D

 98104  0  0  0  0  0  0  0  0999 V2000
   -1.9266    4.0221   -8.9872 C   0  0  0  0  0  0  0  0  0  0  0  0
   -1.7726    5.2309   -8.0968 C   0  0  0  0  0  0  0  0  0  0  0  0
   -0.9742    6.3081   -8.5063 C   0  0  0  0  0  0  0  0  0  0  0  0
   -0.8094    7.4423   -7.7065 C   0  0  0  0  0  0  0  0  0  0  0  0
   -1.4528    7.5081   -6.4711 C   0  0  0  0  0  0  0  0  0  0  0  0
   -2.2522    6.4415   -6.0472 C   0  0  0  0  0  0  0  0  0  0  0  0
   -2.4249    5.2992   -6.8406 C   0  0  0  0  0  0  0  0  0  0  0  0
   -3.2954    4.1297   -6.3911 C   0  0  0  0  0  0  0  0  0  0  0  0
   -3.9426    4.2550   -5.0295 C   0  0  0  0  0  0  0  0  0  0  0  0
   -5.2127    4.8390   -4.8842 C   0  0  0  0  0  0  0  0  0  0  0  0
   -5.8010    4.9575   -3.6241 C   0  0  0  0  0  0  0  0  0  0  0  0
   -5.1263    4.4988   -2.4878 C   0  0  0  0  0  0  0  0  0  0  0  0
   -3.8594    3.9133   -2.6062 C   0  0  0  0  0  0  0  0  0  0  0  0
   -3.1016    3.4239   -1.3849 C   0  0  0  0  0  0  0  0  0  0  0  0
   -1.9140    4.2111   -1.0773 N   0  0  0  0  0  0  0  0  0  0  0  0
   -0.6590    3.8365   -1.4736 C   0  0  0  0  0  0  0  0  0  0  0  0
   -0.4697    2.7789   -2.0572 O   0  0  0  0  0  0  0  0  0  0  0  0
    0.4910    4.8475   -1.1445 C   0  0  2  0  0  0  0  0  0  0  0  0
    1.8279    4.1768   -1.5673 C   0  0  0  0  0  0  0  0  0  0  0  0
    2.3911    3.4622   -0.3155 C   0  0  0  0  0  0  0  0  0  0  0  0
    1.3344    3.6693    0.7846 C   0  0  0  0  0  0  0  0  0  0  0  0
    0.5728    4.9695    0.4236 C   0  0  1  0  0  0  0  0  0  0  0  0
    1.1102    6.2519    1.1534 C   0  0  2  0  0  0  0  0  0  0  0  0
   -0.0446    7.0590    1.8029 C   0  0  0  0  0  0  0  0  0  0  0  0
    0.5339    8.4440    2.1787 C   0  0  0  0  0  0  0  0  0  0  0  0
    2.0089    8.4431    1.6964 C   0  0  1  0  0  0  0  0  0  0  0  0
    3.0729    8.3034    2.8565 C   0  0  2  0  0  0  0  0  0  0  0  0
    2.7139    7.2014    3.8840 C   0  0  0  0  0  0  0  0  0  0  0  0
    3.1081    9.6619    3.6073 C   0  0  0  0  0  0  0  0  0  0  0  0
    4.3043    9.8020    4.5507 C   0  0  0  0  0  0  0  0  0  0  0  0
    5.6295    9.6150    3.8117 C   0  0  1  0  0  0  0  0  0  0  0  0
    6.7367    9.7401    4.6922 O   0  0  0  0  0  0  0  0  0  0  0  0
    5.7454    8.2549    3.0710 C   0  0  1  0  0  0  0  0  0  0  0  0
    6.9937    8.3447    2.1621 C   0  0  0  0  0  0  0  0  0  0  0  0
    5.9867    7.1030    4.0686 C   0  0  0  0  0  0  0  0  0  0  0  0
    4.4662    8.0863    2.1757 C   0  0  1  0  0  0  0  0  0  0  0  0
    4.4389    6.8072    1.3264 C   0  0  0  0  0  0  0  0  0  0  0  0
    3.4551    6.9478    0.1616 C   0  0  0  0  0  0  0  0  0  0  0  0
    2.0186    7.3712    0.5396 C   0  0  1  0  0  0  0  0  0  0  0  0
    1.3632    8.0586   -0.6918 C   0  0  0  0  0  0  0  0  0  0  0  0
    1.2150    7.2519   -1.9835 C   0  0  0  0  0  0  0  0  0  0  0  0
    0.1719    6.1308   -1.9553 C   0  0  0  0  0  0  0  0  0  0  0  0
   -3.2837    3.7944   -3.8821 C   0  0  0  0  0  0  0  0  0  0  0  0
   -1.3558    4.1391   -9.9197 H   0  0  0  0  0  0  0  0  0  0  0  0
   -2.9811    3.8447   -9.2601 H   0  0  0  0  0  0  0  0  0  0  0  0
   -1.5743    3.1009   -8.4923 H   0  0  0  0  0  0  0  0  0  0  0  0
   -0.4704    6.2539   -9.4759 H   0  0  0  0  0  0  0  0  0  0  0  0
   -0.1812    8.2681   -8.0505 H   0  0  0  0  0  0  0  0  0  0  0  0
   -1.3374    8.3883   -5.8331 H   0  0  0  0  0  0  0  0  0  0  0  0
   -2.7534    6.4994   -5.0792 H   0  0  0  0  0  0  0  0  0  0  0  0
   -2.6838    3.2111   -6.4110 H   0  0  0  0  0  0  0  0  0  0  0  0
   -4.0822    3.9682   -7.1493 H   0  0  0  0  0  0  0  0  0  0  0  0
   -5.7447    5.2001   -5.7691 H   0  0  0  0  0  0  0  0  0  0  0  0
   -6.7922    5.4079   -3.5252 H   0  0  0  0  0  0  0  0  0  0  0  0
   -5.5925    4.5912   -1.5021 H   0  0  0  0  0  0  0  0  0  0  0  0
   -2.7518    2.3943   -1.5454 H   0  0  0  0  0  0  0  0  0  0  0  0
   -3.7669    3.4249   -0.5066 H   0  0  0  0  0  0  0  0  0  0  0  0
   -2.0502    5.1379   -0.6943 H   0  0  0  0  0  0  0  0  0  0  0  0
    2.5358    4.9270   -1.9419 H   0  0  0  0  0  0  0  0  0  0  0  0
    1.6364    3.4729   -2.3866 H   0  0  0  0  0  0  0  0  0  0  0  0
    3.3562    3.9007   -0.0144 H   0  0  0  0  0  0  0  0  0  0  0  0
    2.5766    2.3933   -0.4991 H   0  0  0  0  0  0  0  0  0  0  0  0
    1.7596    3.6962    1.8005 H   0  0  0  0  0  0  0  0  0  0  0  0
    0.6226    2.8279    0.7655 H   0  0  0  0  0  0  0  0  0  0  0  0
   -0.4471    4.8637    0.8217 H   0  0  0  0  0  0  0  0  0  0  0  0
    1.6968    5.8460    1.9874 H   0  0  0  0  0  0  0  0  0  0  0  0
   -0.4547    6.5207    2.6730 H   0  0  0  0  0  0  0  0  0  0  0  0
   -0.8802    7.1659    1.0909 H   0  0  0  0  0  0  0  0  0  0  0  0
    0.4498    8.6498    3.2551 H   0  0  0  0  0  0  0  0  0  0  0  0
   -0.0290    9.2477    1.6810 H   0  0  0  0  0  0  0  0  0  0  0  0
    2.2449    9.4156    1.2347 H   0  0  0  0  0  0  0  0  0  0  0  0
    1.6390    7.2047    4.1134 H   0  0  0  0  0  0  0  0  0  0  0  0
    3.2307    7.3585    4.8389 H   0  0  0  0  0  0  0  0  0  0  0  0
    2.9763    6.1895    3.5498 H   0  0  0  0  0  0  0  0  0  0  0  0
    2.1688    9.8147    4.1647 H   0  0  0  0  0  0  0  0  0  0  0  0
    3.1562   10.4752    2.8613 H   0  0  0  0  0  0  0  0  0  0  0  0
    4.2520    9.0851    5.3857 H   0  0  0  0  0  0  0  0  0  0  0  0
    4.2928   10.8062    5.0129 H   0  0  0  0  0  0  0  0  0  0  0  0
    5.6841   10.4018    3.0283 H   0  0  0  0  0  0  0  0  0  0  0  0
    6.6892   10.6065    5.1154 H   0  0  0  0  0  0  0  0  0  0  0  0
    7.8588    8.6725    2.7558 H   0  0  0  0  0  0  0  0  0  0  0  0
    6.8463    9.0717    1.3459 H   0  0  0  0  0  0  0  0  0  0  0  0
    7.2467    7.3744    1.7092 H   0  0  0  0  0  0  0  0  0  0  0  0
    6.9582    7.2396    4.5637 H   0  0  0  0  0  0  0  0  0  0  0  0
    6.0049    6.1331    3.5480 H   0  0  0  0  0  0  0  0  0  0  0  0
    5.2286    7.0424    4.8593 H   0  0  0  0  0  0  0  0  0  0  0  0
    4.5451    8.9214    1.4522 H   0  0  0  0  0  0  0  0  0  0  0  0
    4.1883    5.9310    1.9457 H   0  0  0  0  0  0  0  0  0  0  0  0
    5.4354    6.5990    0.9088 H   0  0  0  0  0  0  0  0  0  0  0  0
    3.4404    6.0192   -0.4239 H   0  0  0  0  0  0  0  0  0  0  0  0
    3.8636    7.7184   -0.5169 H   0  0  0  0  0  0  0  0  0  0  0  0
    1.9702    8.9523   -0.9196 H   0  0  0  0  0  0  0  0  0  0  0  0
    0.3676    8.4464   -0.4193 H   0  0  0  0  0  0  0  0  0  0  0  0
    2.1914    6.8648   -2.3144 H   0  0  0  0  0  0  0  0  0  0  0  0
    0.9059    7.9557   -2.7759 H   0  0  0  0  0  0  0  0  0  0  0  0
   -0.0180    5.8161   -2.9964 H   0  0  0  0  0  0  0  0  0  0  0  0
   -0.7814    6.5654   -1.6054 H   0  0  0  0  0  0  0  0  0  0  0  0
   -2.2997    3.3250   -3.9732 H   0  0  0  0  0  0  0  0  0  0  0  0
  1  2  1  0
  1 44  1  0
  1 45  1  0
  1 46  1  0
  2  3  2  0
  2  7  1  0
  3  4  1  0
  3 47  1  0
  4  5  2  0
  4 48  1  0
  5  6  1  0
  5 49  1  0
  6  7  2  0
  6 50  1  0
  7  8  1  0
  8  9  1  0
  8 51  1  0
  8 52  1  0
  9 10  2  0
  9 43  1  0
 10 11  1  0
 10 53  1  0
 11 12  2  0
 11 54  1  0
 12 13  1  0
 12 55  1  0
 13 14  1  0
 13 43  2  0
 14 15  1  0
 14 56  1  0
 14 57  1  0
 15 16  1  0
 15 58  1  0
 16 17  2  0
 18 16  1  1
 18 19  1  0
 18 22  1  0
 18 42  1  0
 19 20  1  0
 19 59  1  0
 19 60  1  0
 20 21  1  0
 20 61  1  0
 20 62  1  0
 21 22  1  0
 21 63  1  0
 21 64  1  0
 22 23  1  0
 22 65  1  1
 23 24  1  0
 23 39  1  0
 23 66  1  1
 24 25  1  0
 24 67  1  0
 24 68  1  0
 25 26  1  0
 25 69  1  0
 25 70  1  0
 26 27  1  0
 26 39  1  0
 26 71  1  6
 27 28  1  1
 27 29  1  0
 27 36  1  0
 28 72  1  0
 28 73  1  0
 28 74  1  0
 29 30  1  0
 29 75  1  0
 29 76  1  0
 30 31  1  0
 30 77  1  0
 30 78  1  0
 31 32  1  0
 31 33  1  0
 31 79  1  6
 32 80  1  0
 33 34  1  6
 33 35  1  0
 33 36  1  0
 34 81  1  0
 34 82  1  0
 34 83  1  0
 35 84  1  0
 35 85  1  0
 35 86  1  0
 36 37  1  0
 36 87  1  6
 37 38  1  0
 37 88  1  0
 37 89  1  0
 39 38  1  6
 38 90  1  0
 38 91  1  0
 39 40  1  0
 40 41  1  0
 40 92  1  0
 40 93  1  0
 41 42  1  0
 41 94  1  0
 41 95  1  0
 42 96  1  0
 42 97  1  0
 43 98  1  0
M  END

