
     RDKit          3D

 42 42  0  0  0  0  0  0  0  0999 V2000
    3.2476   -0.5387    1.6227 C   0  0  0  0  0  0  0  0  0  0  0  0
    2.6079   -1.6826    0.8304 C   0  0  1  0  0  0  0  0  0  0  0  0
    2.7462   -3.0303    1.5453 C   0  0  0  0  0  0  0  0  0  0  0  0
    1.1406   -1.3797    0.5230 C   0  0  0  0  0  0  0  0  0  0  0  0
    3.2097   -1.7582   -0.5085 O   0  0  0  0  0  0  0  0  0  0  0  0
    4.5158   -2.0092   -0.6968 C   0  0  0  0  0  0  0  0  0  0  0  0
    5.3437   -2.2222    0.1722 O   0  0  0  0  0  0  0  0  0  0  0  0
    4.7982   -2.0039   -2.0354 N   0  0  0  0  0  0  0  0  0  0  0  0
    6.1458   -2.1534   -2.5490 C   0  0  0  0  0  0  0  0  0  0  0  0
    6.4108   -3.4629   -3.2406 C   0  0  0  0  0  0  0  0  0  0  0  0
    6.6441   -3.7361   -4.5829 C   0  0  0  0  0  0  0  0  0  0  0  0
    6.6861   -2.8346   -5.7611 C   0  0  0  0  0  0  0  0  0  0  0  0
    6.4924   -1.6436   -5.7086 O   0  0  0  0  0  0  0  0  0  0  0  0
    6.9580   -3.4729   -6.9071 O   0  0  0  0  0  0  0  0  0  0  0  0
    6.8599   -5.0719   -4.7239 N   0  0  0  0  0  0  0  0  0  0  0  0
    6.7726   -5.6438   -3.5677 N   0  0  0  0  0  0  0  0  0  0  0  0
    6.5010   -4.6882   -2.6547 N   0  0  0  0  0  0  0  0  0  0  0  0
    6.3146   -5.0626   -1.2509 C   0  0  0  0  0  0  0  0  0  0  0  0
    4.9115   -5.5873   -0.9348 C   0  0  0  0  0  0  0  0  0  0  0  0
    4.5627   -6.9491   -1.5379 C   0  0  0  0  0  0  0  0  0  0  0  0
    3.1978   -7.3172   -1.1782 N   0  0  0  0  0  0  0  0  0  0  0  0
    2.7254   -0.4171    2.5845 H   0  0  0  0  0  0  0  0  0  0  0  0
    3.1622    0.4081    1.0669 H   0  0  0  0  0  0  0  0  0  0  0  0
    4.3082   -0.7391    1.8211 H   0  0  0  0  0  0  0  0  0  0  0  0
    2.1851   -3.0043    2.4924 H   0  0  0  0  0  0  0  0  0  0  0  0
    3.7974   -3.2547    1.7661 H   0  0  0  0  0  0  0  0  0  0  0  0
    2.3307   -3.8396    0.9246 H   0  0  0  0  0  0  0  0  0  0  0  0
    0.5670   -1.2906    1.4578 H   0  0  0  0  0  0  0  0  0  0  0  0
    0.6972   -2.1838   -0.0835 H   0  0  0  0  0  0  0  0  0  0  0  0
    1.0483   -0.4354   -0.0344 H   0  0  0  0  0  0  0  0  0  0  0  0
    4.0410   -1.7980   -2.6768 H   0  0  0  0  0  0  0  0  0  0  0  0
    6.8312   -2.0260   -1.6982 H   0  0  0  0  0  0  0  0  0  0  0  0
    6.3553   -1.3645   -3.2848 H   0  0  0  0  0  0  0  0  0  0  0  0
    7.0727   -4.4219   -6.7023 H   0  0  0  0  0  0  0  0  0  0  0  0
    6.5153   -4.1701   -0.6435 H   0  0  0  0  0  0  0  0  0  0  0  0
    7.0804   -5.8204   -1.0284 H   0  0  0  0  0  0  0  0  0  0  0  0
    4.1543   -4.8530   -1.2530 H   0  0  0  0  0  0  0  0  0  0  0  0
    4.8368   -5.6459    0.1657 H   0  0  0  0  0  0  0  0  0  0  0  0
    5.3363   -7.6870   -1.2298 H   0  0  0  0  0  0  0  0  0  0  0  0
    4.6295   -6.8920   -2.6361 H   0  0  0  0  0  0  0  0  0  0  0  0
    3.1396   -7.5468   -0.1849 H   0  0  0  0  0  0  0  0  0  0  0  0
    2.9093   -8.1565   -1.6798 H   0  0  0  0  0  0  0  0  0  0  0  0
  1  2  1  0
  1 22  1  0
  1 23  1  0
  1 24  1  0
  2  3  1  0
  2  4  1  0
  2  5  1  6
  3 25  1  0
  3 26  1  0
  3 27  1  0
  4 28  1  0
  4 29  1  0
  4 30  1  0
  5  6  1  0
  6  7  2  0
  6  8  1  0
  8  9  1  0
  8 31  1  0
  9 10  1  0
  9 32  1  0
  9 33  1  0
 10 11  2  0
 10 17  1  0
 11 12  1  0
 11 15  1  0
 12 13  2  0
 12 14  1  0
 14 34  1  0
 15 16  2  0
 16 17  1  0
 17 18  1  0
 18 19  1  0
 18 35  1  0
 18 36  1  0
 19 20  1  0
 19 37  1  0
 19 38  1  0
 20 21  1  0
 20 39  1  0
 20 40  1  0
 21 41  1  0
 21 42  1  0
M  END

