
     RDKit          3D

 86 90  0  0  0  0  0  0  0  0999 V2000
    5.8195    0.5178   -2.2719 C   0  0  0  0  0  0  0  0  0  0  0  0
    4.4958   -0.2139   -2.0388 C   0  0  0  0  0  0  0  0  0  0  0  0
    4.5999   -1.4679   -1.1683 C   0  0  0  0  0  0  0  0  0  0  0  0
    5.0460   -1.0261    0.5603 S   0  0  0  0  0  0  0  0  0  0  0  0
    5.1367   -2.6306    1.2704 C   0  0  0  0  0  0  0  0  0  0  0  0
    5.4296   -2.7789    2.5994 N   0  0  0  0  0  0  0  0  0  0  0  0
    5.4127   -4.0899    2.7293 C   0  0  0  0  0  0  0  0  0  0  0  0
    5.1369   -4.7028    1.5657 N   0  0  0  0  0  0  0  0  0  0  0  0
    4.9436   -3.7594    0.5999 N   0  0  0  0  0  0  0  0  0  0  0  0
    4.9057   -6.1337    1.3796 C   0  0  2  0  0  0  0  0  0  0  0  0
    3.4167   -6.4166    1.1391 C   0  0  0  0  0  0  0  0  0  0  0  0
    2.8889   -6.3036   -0.1463 C   0  0  0  0  0  0  0  0  0  0  0  0
    1.5204   -6.5039   -0.3798 C   0  0  0  0  0  0  0  0  0  0  0  0
    0.6643   -6.8085    0.6797 C   0  0  0  0  0  0  0  0  0  0  0  0
   -0.6779   -7.0003    0.5718 O   0  0  0  0  0  0  0  0  0  0  0  0
   -1.2991   -6.9071   -0.6961 C   0  0  0  0  0  0  0  0  0  0  0  0
   -0.9821   -8.0604   -1.6681 C   0  0  0  0  0  0  0  0  0  0  0  0
   -0.5443   -7.7934   -2.7801 O   0  0  0  0  0  0  0  0  0  0  0  0
   -1.2107   -9.3385   -1.2410 N   0  0  0  0  0  0  0  0  0  0  0  0
   -0.8853  -10.4547   -2.1307 C   0  0  0  0  0  0  0  0  0  0  0  0
    0.0080  -11.4777   -1.4223 C   0  0  0  0  0  0  0  0  0  0  0  0
   -0.6191  -11.9431   -0.1025 C   0  0  0  0  0  0  0  0  0  0  0  0
   -0.9822  -10.7433    0.7804 C   0  0  0  0  0  0  0  0  0  0  0  0
   -1.8430   -9.7258    0.0215 C   0  0  0  0  0  0  0  0  0  0  0  0
    1.1918   -6.9383    1.9946 C   0  0  0  0  0  0  0  0  0  0  0  0
    0.2974   -7.2685    2.9563 O   0  0  0  0  0  0  0  0  0  0  0  0
    0.7294   -7.3854    4.3032 C   0  0  0  0  0  0  0  0  0  0  0  0
   -0.4751   -7.7371    5.1549 C   0  0  0  0  0  0  0  0  0  0  0  0
    2.5561   -6.7352    2.2066 C   0  0  0  0  0  0  0  0  0  0  0  0
    5.5244   -6.8746    2.5708 C   0  0  0  0  0  0  0  0  0  0  0  0
    5.8280   -8.3318    2.4489 C   0  0  0  0  0  0  0  0  0  0  0  0
    6.5088   -8.9269    3.2784 O   0  0  0  0  0  0  0  0  0  0  0  0
    5.3055   -8.9590    1.3306 N   0  0  0  0  0  0  0  0  0  0  0  0
    5.4739  -10.2969    0.9064 C   0  0  0  0  0  0  0  0  0  0  0  0
    6.1576  -11.2499    1.6826 C   0  0  0  0  0  0  0  0  0  0  0  0
    6.2872  -12.5541    1.2107 C   0  0  0  0  0  0  0  0  0  0  0  0
    5.7443  -12.9234   -0.0182 C   0  0  0  0  0  0  0  0  0  0  0  0
    5.0614  -11.9879   -0.8098 C   0  0  0  0  0  0  0  0  0  0  0  0
    4.4922  -12.4303   -2.1405 C   0  0  0  0  0  0  0  0  0  0  0  0
    4.9243  -10.6589   -0.3532 C   0  0  0  0  0  0  0  0  0  0  0  0
    4.2113   -9.6155   -1.1827 C   0  0  0  0  0  0  0  0  0  0  0  0
    5.8341   -6.2215    3.7412 C   0  0  0  0  0  0  0  0  0  0  0  0
    6.3851   -6.8477    4.9957 C   0  0  0  0  0  0  0  0  0  0  0  0
    5.6721   -4.8500    3.8407 N   0  0  0  0  0  0  0  0  0  0  0  0
    5.6777    1.3919   -2.9270 H   0  0  0  0  0  0  0  0  0  0  0  0
    6.5599   -0.1442   -2.7514 H   0  0  0  0  0  0  0  0  0  0  0  0
    6.2599    0.8740   -1.3273 H   0  0  0  0  0  0  0  0  0  0  0  0
    4.0742   -0.5284   -3.0097 H   0  0  0  0  0  0  0  0  0  0  0  0
    3.7544    0.4762   -1.5985 H   0  0  0  0  0  0  0  0  0  0  0  0
    5.3630   -2.1623   -1.5521 H   0  0  0  0  0  0  0  0  0  0  0  0
    3.6453   -2.0131   -1.1394 H   0  0  0  0  0  0  0  0  0  0  0  0
    5.4489   -6.4060    0.4582 H   0  0  0  0  0  0  0  0  0  0  0  0
    3.5407   -6.0451   -0.9837 H   0  0  0  0  0  0  0  0  0  0  0  0
    1.1353   -6.4383   -1.3978 H   0  0  0  0  0  0  0  0  0  0  0  0
   -1.0210   -5.9797   -1.2194 H   0  0  0  0  0  0  0  0  0  0  0  0
   -2.3803   -6.8735   -0.4903 H   0  0  0  0  0  0  0  0  0  0  0  0
   -0.4064  -10.0346   -3.0233 H   0  0  0  0  0  0  0  0  0  0  0  0
   -1.8276  -10.9406   -2.4521 H   0  0  0  0  0  0  0  0  0  0  0  0
    0.9915  -11.0163   -1.2245 H   0  0  0  0  0  0  0  0  0  0  0  0
    0.1844  -12.3337   -2.0947 H   0  0  0  0  0  0  0  0  0  0  0  0
    0.0633  -12.6233    0.4329 H   0  0  0  0  0  0  0  0  0  0  0  0
   -1.5340  -12.5253   -0.3201 H   0  0  0  0  0  0  0  0  0  0  0  0
   -0.0655  -10.2359    1.1267 H   0  0  0  0  0  0  0  0  0  0  0  0
   -1.5259  -11.0714    1.6819 H   0  0  0  0  0  0  0  0  0  0  0  0
   -2.0068   -8.8443    0.6486 H   0  0  0  0  0  0  0  0  0  0  0  0
   -2.8307  -10.1748   -0.2043 H   0  0  0  0  0  0  0  0  0  0  0  0
    1.1812   -6.4321    4.6371 H   0  0  0  0  0  0  0  0  0  0  0  0
    1.5091   -8.1665    4.3841 H   0  0  0  0  0  0  0  0  0  0  0  0
   -1.2466   -6.9561    5.0777 H   0  0  0  0  0  0  0  0  0  0  0  0
   -0.1790   -7.8333    6.2109 H   0  0  0  0  0  0  0  0  0  0  0  0
   -0.9169   -8.6911    4.8291 H   0  0  0  0  0  0  0  0  0  0  0  0
    2.9734   -6.8356    3.2079 H   0  0  0  0  0  0  0  0  0  0  0  0
    4.6547   -8.4173    0.7755 H   0  0  0  0  0  0  0  0  0  0  0  0
    6.5748  -10.9506    2.6391 H   0  0  0  0  0  0  0  0  0  0  0  0
    6.8196  -13.2914    1.8174 H   0  0  0  0  0  0  0  0  0  0  0  0
    5.8502  -13.9509   -0.3763 H   0  0  0  0  0  0  0  0  0  0  0  0
    4.6911  -13.4983   -2.3107 H   0  0  0  0  0  0  0  0  0  0  0  0
    4.9322  -11.8753   -2.9862 H   0  0  0  0  0  0  0  0  0  0  0  0
    3.4002  -12.2849   -2.1950 H   0  0  0  0  0  0  0  0  0  0  0  0
    3.9026  -10.0011   -2.1608 H   0  0  0  0  0  0  0  0  0  0  0  0
    4.8542   -8.7386   -1.3745 H   0  0  0  0  0  0  0  0  0  0  0  0
    3.2992   -9.2376   -0.6881 H   0  0  0  0  0  0  0  0  0  0  0  0
    7.4420   -7.1203    4.8605 H   0  0  0  0  0  0  0  0  0  0  0  0
    5.8682   -7.7809    5.2460 H   0  0  0  0  0  0  0  0  0  0  0  0
    6.3014   -6.1418    5.8375 H   0  0  0  0  0  0  0  0  0  0  0  0
    5.9423   -4.3640    4.6865 H   0  0  0  0  0  0  0  0  0  0  0  0
  1  2  1  0
  1 45  1  0
  1 46  1  0
  1 47  1  0
  2  3  1  0
  2 48  1  0
  2 49  1  0
  3  4  1  0
  3 50  1  0
  3 51  1  0
  4  5  1  0
  5  6  1  0
  5  9  2  0
  6  7  2  0
  7  8  1  0
  7 44  1  0
  8  9  1  0
  8 10  1  0
 10 11  1  0
 10 30  1  0
 10 52  1  6
 11 12  2  0
 11 29  1  0
 12 13  1  0
 12 53  1  0
 13 14  2  0
 13 54  1  0
 14 15  1  0
 14 25  1  0
 15 16  1  0
 16 17  1  0
 16 55  1  0
 16 56  1  0
 17 18  2  0
 17 19  1  0
 19 20  1  0
 19 24  1  0
 20 21  1  0
 20 57  1  0
 20 58  1  0
 21 22  1  0
 21 59  1  0
 21 60  1  0
 22 23  1  0
 22 61  1  0
 22 62  1  0
 23 24  1  0
 23 63  1  0
 23 64  1  0
 24 65  1  0
 24 66  1  0
 25 26  1  0
 25 29  2  0
 26 27  1  0
 27 28  1  0
 27 67  1  0
 27 68  1  0
 28 69  1  0
 28 70  1  0
 28 71  1  0
 29 72  1  0
 30 31  1  0
 30 42  2  0
 31 32  2  0
 31 33  1  0
 33 34  1  0
 33 73  1  0
 34 35  2  0
 34 40  1  0
 35 36  1  0
 35 74  1  0
 36 37  2  0
 36 75  1  0
 37 38  1  0
 37 76  1  0
 38 39  1  0
 38 40  2  0
 39 77  1  0
 39 78  1  0
 39 79  1  0
 40 41  1  0
 41 80  1  0
 41 81  1  0
 41 82  1  0
 42 43  1  0
 42 44  1  0
 43 83  1  0
 43 84  1  0
 43 85  1  0
 44 86  1  0
M  END

