
     RDKit          3D

 33 34  0  0  0  0  0  0  0  0999 V2000
    0.7752   -0.0735    0.6767 C   0  0  0  0  0  0  0  0  0  0  0  0
    2.2563   -0.1311    0.4573 C   0  0  0  0  0  0  0  0  0  0  0  0
    3.1397    0.9093    0.2739 C   0  0  0  0  0  0  0  0  0  0  0  0
    4.4871    0.4912    0.0926 C   0  0  0  0  0  0  0  0  0  0  0  0
    4.6441   -0.8756    0.1361 C   0  0  0  0  0  0  0  0  0  0  0  0
    5.9547   -1.5642   -0.0269 C   0  0  0  0  0  0  0  0  0  0  0  0
    6.9772   -0.9176   -0.2054 O   0  0  0  0  0  0  0  0  0  0  0  0
    5.9212   -2.9374    0.0374 N   0  0  0  0  0  0  0  0  0  0  0  0
    6.9933   -3.8421   -0.0787 C   0  0  0  0  0  0  0  0  0  0  0  0
    8.3365   -3.4777   -0.2866 C   0  0  0  0  0  0  0  0  0  0  0  0
    9.3027   -4.4706   -0.3855 C   0  0  0  0  0  0  0  0  0  0  0  0
    8.9285   -5.8346   -0.2661 C   0  0  0  0  0  0  0  0  0  0  0  0
    9.8561   -6.8579   -0.3221 N   0  0  0  0  0  0  0  0  0  0  0  0
    9.4301   -8.2415   -0.4158 C   0  0  0  0  0  0  0  0  0  0  0  0
   11.2448   -6.5663   -0.5971 C   0  0  0  0  0  0  0  0  0  0  0  0
    7.6402   -6.1682   -0.0828 N   0  0  0  0  0  0  0  0  0  0  0  0
    6.7221   -5.2162    0.0082 C   0  0  0  0  0  0  0  0  0  0  0  0
    3.1003   -1.6549    0.4064 S   0  0  0  0  0  0  0  0  0  0  0  0
    0.4393    0.9738    0.6754 H   0  0  0  0  0  0  0  0  0  0  0  0
    0.4843   -0.5209    1.6417 H   0  0  0  0  0  0  0  0  0  0  0  0
    0.2210   -0.6074   -0.1132 H   0  0  0  0  0  0  0  0  0  0  0  0
    2.8205    1.9532    0.2704 H   0  0  0  0  0  0  0  0  0  0  0  0
    5.3381    1.1535   -0.0674 H   0  0  0  0  0  0  0  0  0  0  0  0
    5.0177   -3.3734    0.1857 H   0  0  0  0  0  0  0  0  0  0  0  0
    8.6003   -2.4258   -0.3735 H   0  0  0  0  0  0  0  0  0  0  0  0
   10.3377   -4.1795   -0.5584 H   0  0  0  0  0  0  0  0  0  0  0  0
    8.3926   -8.3190   -0.0736 H   0  0  0  0  0  0  0  0  0  0  0  0
   10.0693   -8.8811    0.2157 H   0  0  0  0  0  0  0  0  0  0  0  0
    9.4819   -8.6251   -1.4546 H   0  0  0  0  0  0  0  0  0  0  0  0
   11.6508   -5.8209    0.1071 H   0  0  0  0  0  0  0  0  0  0  0  0
   11.4150   -6.1866   -1.6251 H   0  0  0  0  0  0  0  0  0  0  0  0
   11.8347   -7.4858   -0.4779 H   0  0  0  0  0  0  0  0  0  0  0  0
    5.6861   -5.5539    0.1593 H   0  0  0  0  0  0  0  0  0  0  0  0
  1  2  1  0
  1 19  1  0
  1 20  1  0
  1 21  1  0
  2  3  2  0
  2 18  1  0
  3  4  1  0
  3 22  1  0
  4  5  2  0
  4 23  1  0
  5  6  1  0
  5 18  1  0
  6  7  2  0
  6  8  1  0
  8  9  1  0
  8 24  1  0
  9 10  2  0
  9 17  1  0
 10 11  1  0
 10 25  1  0
 11 12  2  0
 11 26  1  0
 12 13  1  0
 12 16  1  0
 13 14  1  0
 13 15  1  0
 14 27  1  0
 14 28  1  0
 14 29  1  0
 15 30  1  0
 15 31  1  0
 15 32  1  0
 16 17  2  0
 17 33  1  0
M  END

