
     RDKit          3D

200212  0  0  0  0  0  0  0  0999 V2000
    5.5956    7.9843   -5.9971 C   0  0  0  0  0  0  0  0  0  0  0  0
    5.1013    8.9329   -4.9043 C   0  0  0  0  0  0  0  0  0  0  0  0
    3.8168    9.6784   -5.2782 C   0  0  0  0  0  0  0  0  0  0  0  0
    3.3522   10.6699   -4.1953 C   0  0  0  0  0  0  0  0  0  0  0  0
    2.1129   11.4421   -4.5537 C   0  0  0  0  0  0  0  0  0  0  0  0
    2.1001   12.6440   -5.3289 C   0  0  0  0  0  0  0  0  0  0  0  0
    0.7953   13.0695   -5.4158 C   0  0  0  0  0  0  0  0  0  0  0  0
    0.1526   14.2183   -6.0455 C   0  0  0  0  0  0  0  0  0  0  0  0
    0.9082   15.1614   -6.7674 C   0  0  0  0  0  0  0  0  0  0  0  0
    0.2872   16.2613   -7.3583 C   0  0  0  0  0  0  0  0  0  0  0  0
   -1.0925   16.4450   -7.2413 C   0  0  0  0  0  0  0  0  0  0  0  0
   -1.8667   15.5153   -6.5300 C   0  0  0  0  0  0  0  0  0  0  0  0
   -3.3606   15.6952   -6.4182 C   0  0  0  0  0  0  0  0  0  0  0  0
   -3.9679   15.5457   -7.6896 O   0  0  0  0  0  0  0  0  0  0  0  0
   -5.3691   15.6570   -7.6539 C   0  0  0  0  0  0  0  0  0  0  0  0
   -1.2394   14.4126   -5.9431 C   0  0  0  0  0  0  0  0  0  0  0  0
    0.0049   12.1931   -4.7411 O   0  0  0  0  0  0  0  0  0  0  0  0
    0.7900   11.1999   -4.2183 C   0  0  0  0  0  0  0  0  0  0  0  0
    0.0921   10.2068   -3.4019 C   0  0  0  0  0  0  0  0  0  0  0  0
   -1.1860   10.5088   -2.8839 C   0  0  0  0  0  0  0  0  0  0  0  0
   -1.8559    9.5913   -2.0756 C   0  0  0  0  0  0  0  0  0  0  0  0
   -1.2750    8.3650   -1.7573 C   0  0  0  0  0  0  0  0  0  0  0  0
   -0.0024    8.0353   -2.2636 C   0  0  0  0  0  0  0  0  0  0  0  0
    0.6164    6.7622   -1.9016 C   0  0  0  0  0  0  0  0  0  0  0  0
    0.3620    5.8633   -0.8937 C   0  0  0  0  0  0  0  0  0  0  0  0
    1.3364    4.8202   -0.9912 C   0  0  0  0  0  0  0  0  0  0  0  0
    1.4076    3.6116   -0.0999 C   0  0  0  0  0  0  0  0  0  0  0  0
    2.0224    3.8810    1.2856 C   0  0  0  0  0  0  0  0  0  0  0  0
    2.0502    2.6443    2.1885 C   0  0  0  0  0  0  0  0  0  0  0  0
    2.6557    2.9091    3.5676 C   0  0  0  0  0  0  0  0  0  0  0  0
    2.1351    5.1576   -2.0688 C   0  0  0  0  0  0  0  0  0  0  0  0
    3.2604    4.4896   -2.7278 C   0  0  0  0  0  0  0  0  0  0  0  0
    4.2034    3.7629   -1.9745 C   0  0  0  0  0  0  0  0  0  0  0  0
    5.2466    3.0904   -2.6145 C   0  0  0  0  0  0  0  0  0  0  0  0
    5.3715    3.1297   -4.0002 C   0  0  0  0  0  0  0  0  0  0  0  0
    4.4459    3.8567   -4.7781 C   0  0  0  0  0  0  0  0  0  0  0  0
    4.5622    3.8564   -6.2328 C   0  0  0  0  0  0  0  0  0  0  0  0
    5.3772    3.1737   -7.1047 C   0  0  0  0  0  0  0  0  0  0  0  0
    5.0000    3.5423   -8.4323 C   0  0  0  0  0  0  0  0  0  0  0  0
    5.6823    3.0253   -9.6709 C   0  0  0  0  0  0  0  0  0  0  0  0
    6.7315    3.9860  -10.2608 C   0  0  0  0  0  0  0  0  0  0  0  0
    7.4360    3.4285  -11.5012 C   0  0  0  0  0  0  0  0  0  0  0  0
    8.4873    4.3756  -12.0811 C   0  0  0  0  0  0  0  0  0  0  0  0
    3.9610    4.4520   -8.2886 C   0  0  0  0  0  0  0  0  0  0  0  0
    3.1177    5.2230   -9.2030 C   0  0  0  0  0  0  0  0  0  0  0  0
    3.2101    5.0893  -10.6039 C   0  0  0  0  0  0  0  0  0  0  0  0
    2.3979    5.8569  -11.4398 C   0  0  0  0  0  0  0  0  0  0  0  0
    1.4804    6.7636  -10.9142 C   0  0  0  0  0  0  0  0  0  0  0  0
    1.3603    6.9156   -9.5167 C   0  0  0  0  0  0  0  0  0  0  0  0
    0.4156    7.8867   -8.9643 C   0  0  0  0  0  0  0  0  0  0  0  0
    0.1330    8.9616   -9.7636 O   0  0  0  0  0  0  0  0  0  0  0  0
   -0.7298    9.7790   -9.1034 C   0  0  0  0  0  0  0  0  0  0  0  0
   -1.1474   11.0084   -9.7722 C   0  0  0  0  0  0  0  0  0  0  0  0
   -1.9044   11.9762   -9.0853 C   0  0  0  0  0  0  0  0  0  0  0  0
   -2.3017   13.1456   -9.7337 C   0  0  0  0  0  0  0  0  0  0  0  0
   -1.9507   13.3718  -11.0646 C   0  0  0  0  0  0  0  0  0  0  0  0
   -1.1866   12.4220  -11.7771 C   0  0  0  0  0  0  0  0  0  0  0  0
   -0.8229   12.6725  -13.1707 C   0  0  0  0  0  0  0  0  0  0  0  0
   -1.4891   13.6937  -13.7906 O   0  0  0  0  0  0  0  0  0  0  0  0
   -1.0340   13.8079  -15.0654 C   0  0  0  0  0  0  0  0  0  0  0  0
   -1.6214   14.8427  -15.9105 C   0  0  0  0  0  0  0  0  0  0  0  0
   -1.2365   14.9735  -17.2594 C   0  0  0  0  0  0  0  0  0  0  0  0
   -1.7987   15.9751  -18.0494 C   0  0  0  0  0  0  0  0  0  0  0  0
   -2.7493   16.8516  -17.5264 C   0  0  0  0  0  0  0  0  0  0  0  0
   -3.1568   16.7405  -16.1793 C   0  0  0  0  0  0  0  0  0  0  0  0
   -4.1585   17.6629  -15.6438 C   0  0  0  0  0  0  0  0  0  0  0  0
   -4.4123   18.7702  -16.4079 O   0  0  0  0  0  0  0  0  0  0  0  0
   -5.3879   19.5051  -15.8124 C   0  0  0  0  0  0  0  0  0  0  0  0
   -5.8057   20.7425  -16.4637 C   0  0  0  0  0  0  0  0  0  0  0  0
   -6.8571   21.5161  -15.9290 C   0  0  0  0  0  0  0  0  0  0  0  0
   -7.2479   22.6959  -16.5556 C   0  0  0  0  0  0  0  0  0  0  0  0
   -6.6087   23.1333  -17.7220 C   0  0  0  0  0  0  0  0  0  0  0  0
   -5.5637   22.3783  -18.2661 C   0  0  0  0  0  0  0  0  0  0  0  0
   -4.8487   22.8152  -19.5259 C   0  0  0  0  0  0  0  0  0  0  0  0
   -5.3554   24.0364  -19.9932 O   0  0  0  0  0  0  0  0  0  0  0  0
   -4.7378   24.4954  -21.1640 C   0  0  0  0  0  0  0  0  0  0  0  0
   -5.1701   21.1923  -17.6344 C   0  0  0  0  0  0  0  0  0  0  0  0
   -5.7733   18.8689  -14.6555 C   0  0  0  0  0  0  0  0  0  0  0  0
   -4.9899   17.6785  -14.5326 C   0  0  0  0  0  0  0  0  0  0  0  0
   -5.1109   16.6794  -13.4122 C   0  0  0  0  0  0  0  0  0  0  0  0
   -4.1837   16.9242  -12.2025 C   0  0  0  0  0  0  0  0  0  0  0  0
   -4.4732   18.2054  -11.4143 C   0  0  0  0  0  0  0  0  0  0  0  0
   -3.5336   18.4019  -10.2227 C   0  0  0  0  0  0  0  0  0  0  0  0
   -2.5749   15.7337  -15.3871 C   0  0  0  0  0  0  0  0  0  0  0  0
   -0.0612   12.8574  -15.2745 C   0  0  0  0  0  0  0  0  0  0  0  0
    0.0875   12.1176  -14.0599 C   0  0  0  0  0  0  0  0  0  0  0  0
    1.0602   10.9915  -13.8178 C   0  0  0  0  0  0  0  0  0  0  0  0
    2.1473   10.8360  -14.8870 C   0  0  0  0  0  0  0  0  0  0  0  0
    3.1453    9.7180  -14.5698 C   0  0  0  0  0  0  0  0  0  0  0  0
    4.2281    9.5467  -15.6360 C   0  0  0  0  0  0  0  0  0  0  0  0
   -0.7982   11.2429  -11.1137 C   0  0  0  0  0  0  0  0  0  0  0  0
   -1.0197    9.2241   -7.8788 C   0  0  0  0  0  0  0  0  0  0  0  0
   -0.2918    7.9943   -7.7793 C   0  0  0  0  0  0  0  0  0  0  0  0
   -0.3453    7.0257   -6.6257 C   0  0  0  0  0  0  0  0  0  0  0  0
   -1.7498    6.7983   -6.0400 C   0  0  0  0  0  0  0  0  0  0  0  0
   -2.7340    6.1212   -6.9990 C   0  0  0  0  0  0  0  0  0  0  0  0
   -4.1163    5.8927   -6.3855 C   0  0  0  0  0  0  0  0  0  0  0  0
    2.1884    6.1459   -8.6821 C   0  0  0  0  0  0  0  0  0  0  0  0
    3.7083    4.6302   -6.9531 O   0  0  0  0  0  0  0  0  0  0  0  0
    3.4033    4.5395   -4.1272 C   0  0  0  0  0  0  0  0  0  0  0  0
    1.6893    6.3292   -2.6204 O   0  0  0  0  0  0  0  0  0  0  0  0
    0.6611    8.9553   -3.0950 C   0  0  0  0  0  0  0  0  0  0  0  0
    6.5216    7.4698   -5.6947 H   0  0  0  0  0  0  0  0  0  0  0  0
    5.8059    8.5274   -6.9338 H   0  0  0  0  0  0  0  0  0  0  0  0
    4.8467    7.2091   -6.2266 H   0  0  0  0  0  0  0  0  0  0  0  0
    5.8910    9.6702   -4.6688 H   0  0  0  0  0  0  0  0  0  0  0  0
    4.9327    8.3655   -3.9711 H   0  0  0  0  0  0  0  0  0  0  0  0
    3.0105    8.9513   -5.4827 H   0  0  0  0  0  0  0  0  0  0  0  0
    3.9667   10.2255   -6.2260 H   0  0  0  0  0  0  0  0  0  0  0  0
    4.1664   11.3923   -4.0104 H   0  0  0  0  0  0  0  0  0  0  0  0
    3.2047   10.1350   -3.2434 H   0  0  0  0  0  0  0  0  0  0  0  0
    2.9713   13.1368   -5.7553 H   0  0  0  0  0  0  0  0  0  0  0  0
    1.9879   15.0330   -6.8684 H   0  0  0  0  0  0  0  0  0  0  0  0
    0.8874   16.9843   -7.9163 H   0  0  0  0  0  0  0  0  0  0  0  0
   -1.5731   17.3084   -7.7075 H   0  0  0  0  0  0  0  0  0  0  0  0
   -3.5961   16.7016   -6.0126 H   0  0  0  0  0  0  0  0  0  0  0  0
   -3.7777   14.9554   -5.7062 H   0  0  0  0  0  0  0  0  0  0  0  0
   -5.7418   15.5285   -8.6801 H   0  0  0  0  0  0  0  0  0  0  0  0
   -5.6949   16.6477   -7.2783 H   0  0  0  0  0  0  0  0  0  0  0  0
   -5.8274   14.8795   -7.0103 H   0  0  0  0  0  0  0  0  0  0  0  0
   -1.8353   13.6822   -5.3926 H   0  0  0  0  0  0  0  0  0  0  0  0
   -1.6402   11.4735   -3.1108 H   0  0  0  0  0  0  0  0  0  0  0  0
   -2.8459    9.8386   -1.6839 H   0  0  0  0  0  0  0  0  0  0  0  0
   -1.8141    7.6534   -1.1289 H   0  0  0  0  0  0  0  0  0  0  0  0
   -0.4281    5.9374   -0.1495 H   0  0  0  0  0  0  0  0  0  0  0  0
    1.9718    2.8094   -0.6023 H   0  0  0  0  0  0  0  0  0  0  0  0
    0.3840    3.2212    0.0412 H   0  0  0  0  0  0  0  0  0  0  0  0
    1.4570    4.6892    1.7833 H   0  0  0  0  0  0  0  0  0  0  0  0
    3.0484    4.2730    1.1620 H   0  0  0  0  0  0  0  0  0  0  0  0
    2.6156    1.8394    1.6843 H   0  0  0  0  0  0  0  0  0  0  0  0
    1.0212    2.2574    2.3043 H   0  0  0  0  0  0  0  0  0  0  0  0
    3.6978    3.2616    3.4875 H   0  0  0  0  0  0  0  0  0  0  0  0
    2.6596    1.9996    4.1893 H   0  0  0  0  0  0  0  0  0  0  0  0
    2.0888    3.6823    4.1128 H   0  0  0  0  0  0  0  0  0  0  0  0
    4.1375    3.7501   -0.8862 H   0  0  0  0  0  0  0  0  0  0  0  0
    5.9782    2.5370   -2.0205 H   0  0  0  0  0  0  0  0  0  0  0  0
    6.1941    2.5998   -4.4842 H   0  0  0  0  0  0  0  0  0  0  0  0
    6.1569    2.4622   -6.8417 H   0  0  0  0  0  0  0  0  0  0  0  0
    4.9406    2.7670  -10.4446 H   0  0  0  0  0  0  0  0  0  0  0  0
    6.1794    2.0745   -9.4148 H   0  0  0  0  0  0  0  0  0  0  0  0
    7.4791    4.2190   -9.4820 H   0  0  0  0  0  0  0  0  0  0  0  0
    6.2502    4.9482  -10.5098 H   0  0  0  0  0  0  0  0  0  0  0  0
    6.6809    3.1969  -12.2749 H   0  0  0  0  0  0  0  0  0  0  0  0
    7.9083    2.4616  -11.2478 H   0  0  0  0  0  0  0  0  0  0  0  0
    8.0390    5.3384  -12.3783 H   0  0  0  0  0  0  0  0  0  0  0  0
    8.9726    3.9454  -12.9717 H   0  0  0  0  0  0  0  0  0  0  0  0
    9.2783    4.5954  -11.3445 H   0  0  0  0  0  0  0  0  0  0  0  0
    3.9151    4.3902  -11.0488 H   0  0  0  0  0  0  0  0  0  0  0  0
    2.4825    5.7401  -12.5234 H   0  0  0  0  0  0  0  0  0  0  0  0
    0.8478    7.3566  -11.5760 H   0  0  0  0  0  0  0  0  0  0  0  0
   -2.1683   11.8225   -8.0373 H   0  0  0  0  0  0  0  0  0  0  0  0
   -2.8743   13.8976   -9.1851 H   0  0  0  0  0  0  0  0  0  0  0  0
   -2.2559   14.2944  -11.5587 H   0  0  0  0  0  0  0  0  0  0  0  0
   -0.4991   14.2922  -17.6884 H   0  0  0  0  0  0  0  0  0  0  0  0
   -1.4956   16.0710  -19.0952 H   0  0  0  0  0  0  0  0  0  0  0  0
   -3.1900   17.6231  -18.1580 H   0  0  0  0  0  0  0  0  0  0  0  0
   -7.3696   21.1880  -15.0223 H   0  0  0  0  0  0  0  0  0  0  0  0
   -8.0645   23.2867  -16.1321 H   0  0  0  0  0  0  0  0  0  0  0  0
   -6.9106   24.0565  -18.2169 H   0  0  0  0  0  0  0  0  0  0  0  0
   -4.9558   22.0265  -20.3028 H   0  0  0  0  0  0  0  0  0  0  0  0
   -3.7586   22.8973  -19.3218 H   0  0  0  0  0  0  0  0  0  0  0  0
   -5.2071   25.4509  -21.4401 H   0  0  0  0  0  0  0  0  0  0  0  0
   -4.8626   23.7844  -22.0064 H   0  0  0  0  0  0  0  0  0  0  0  0
   -3.6505   24.6644  -21.0221 H   0  0  0  0  0  0  0  0  0  0  0  0
   -4.3510   20.6006  -18.0499 H   0  0  0  0  0  0  0  0  0  0  0  0
   -6.5406   19.2009  -13.9597 H   0  0  0  0  0  0  0  0  0  0  0  0
   -4.9314   15.6647  -13.8008 H   0  0  0  0  0  0  0  0  0  0  0  0
   -6.1564   16.6852  -13.0586 H   0  0  0  0  0  0  0  0  0  0  0  0
   -3.1329   16.9409  -12.5423 H   0  0  0  0  0  0  0  0  0  0  0  0
   -4.2691   16.0572  -11.5228 H   0  0  0  0  0  0  0  0  0  0  0  0
   -5.5208   18.1824  -11.0598 H   0  0  0  0  0  0  0  0  0  0  0  0
   -4.4012   19.0770  -12.0877 H   0  0  0  0  0  0  0  0  0  0  0  0
   -3.5937   17.5579   -9.5156 H   0  0  0  0  0  0  0  0  0  0  0  0
   -3.7733   19.3253   -9.6705 H   0  0  0  0  0  0  0  0  0  0  0  0
   -2.4844   18.4787  -10.5547 H   0  0  0  0  0  0  0  0  0  0  0  0
   -2.8406   15.6392  -14.3376 H   0  0  0  0  0  0  0  0  0  0  0  0
    0.4977   12.7080  -16.1940 H   0  0  0  0  0  0  0  0  0  0  0  0
    0.5084   10.0361  -13.7364 H   0  0  0  0  0  0  0  0  0  0  0  0
    1.5415   11.1332  -12.8346 H   0  0  0  0  0  0  0  0  0  0  0  0
    2.6910   11.7911  -15.0007 H   0  0  0  0  0  0  0  0  0  0  0  0
    1.6792   10.6334  -15.8671 H   0  0  0  0  0  0  0  0  0  0  0  0
    2.5970    8.7665  -14.4435 H   0  0  0  0  0  0  0  0  0  0  0  0
    3.6178    9.9200  -13.5917 H   0  0  0  0  0  0  0  0  0  0  0  0
    3.7899    9.3036  -16.6187 H   0  0  0  0  0  0  0  0  0  0  0  0
    4.9285    8.7373  -15.3751 H   0  0  0  0  0  0  0  0  0  0  0  0
    4.8188   10.4700  -15.7593 H   0  0  0  0  0  0  0  0  0  0  0  0
   -0.2289   10.4787  -11.6364 H   0  0  0  0  0  0  0  0  0  0  0  0
   -1.6867    9.6419   -7.1290 H   0  0  0  0  0  0  0  0  0  0  0  0
    0.3141    7.3862   -5.8154 H   0  0  0  0  0  0  0  0  0  0  0  0
    0.0674    6.0555   -6.9441 H   0  0  0  0  0  0  0  0  0  0  0  0
   -2.1705    7.7591   -5.6937 H   0  0  0  0  0  0  0  0  0  0  0  0
   -1.6453    6.1808   -5.1305 H   0  0  0  0  0  0  0  0  0  0  0  0
   -2.3102    5.1540   -7.3258 H   0  0  0  0  0  0  0  0  0  0  0  0
   -2.8328    6.7300   -7.9144 H   0  0  0  0  0  0  0  0  0  0  0  0
   -4.0577    5.2571   -5.4855 H   0  0  0  0  0  0  0  0  0  0  0  0
   -4.7987    5.3999   -7.0965 H   0  0  0  0  0  0  0  0  0  0  0  0
   -4.5833    6.8456   -6.0838 H   0  0  0  0  0  0  0  0  0  0  0  0
    2.1429    6.2854   -7.6043 H   0  0  0  0  0  0  0  0  0  0  0  0
    2.6741    5.0933   -4.7186 H   0  0  0  0  0  0  0  0  0  0  0  0
    1.6318    8.6778   -3.5017 H   0  0  0  0  0  0  0  0  0  0  0  0
  1  2  1  0
  1103  1  0
  1104  1  0
  1105  1  0
  2  3  1  0
  2106  1  0
  2107  1  0
  3  4  1  0
  3108  1  0
  3109  1  0
  4  5  1  0
  4110  1  0
  4111  1  0
  5  6  1  0
  5 18  2  0
  6  7  2  0
  6112  1  0
  7  8  1  0
  7 17  1  0
  8  9  2  0
  8 16  1  0
  9 10  1  0
  9113  1  0
 10 11  2  0
 10114  1  0
 11 12  1  0
 11115  1  0
 12 13  1  0
 12 16  2  0
 13 14  1  0
 13116  1  0
 13117  1  0
 14 15  1  0
 15118  1  0
 15119  1  0
 15120  1  0
 16121  1  0
 17 18  1  0
 18 19  1  0
 19 20  2  0
 19102  1  0
 20 21  1  0
 20122  1  0
 21 22  2  0
 21123  1  0
 22 23  1  0
 22124  1  0
 23 24  1  0
 23102  2  0
 24 25  2  0
 24101  1  0
 25 26  1  0
 25125  1  0
 26 27  1  0
 26 31  2  0
 27 28  1  0
 27126  1  0
 27127  1  0
 28 29  1  0
 28128  1  0
 28129  1  0
 29 30  1  0
 29130  1  0
 29131  1  0
 30132  1  0
 30133  1  0
 30134  1  0
 31 32  1  0
 31101  1  0
 32 33  2  0
 32100  1  0
 33 34  1  0
 33135  1  0
 34 35  2  0
 34136  1  0
 35 36  1  0
 35137  1  0
 36 37  1  0
 36100  2  0
 37 38  2  0
 37 99  1  0
 38 39  1  0
 38138  1  0
 39 40  1  0
 39 44  2  0
 40 41  1  0
 40139  1  0
 40140  1  0
 41 42  1  0
 41141  1  0
 41142  1  0
 42 43  1  0
 42143  1  0
 42144  1  0
 43145  1  0
 43146  1  0
 43147  1  0
 44 45  1  0
 44 99  1  0
 45 46  2  0
 45 98  1  0
 46 47  1  0
 46148  1  0
 47 48  2  0
 47149  1  0
 48 49  1  0
 48150  1  0
 49 50  1  0
 49 98  2  0
 50 51  1  0
 50 93  2  0
 51 52  1  0
 52 53  1  0
 52 92  2  0
 53 54  2  0
 53 91  1  0
 54 55  1  0
 54151  1  0
 55 56  2  0
 55152  1  0
 56 57  1  0
 56153  1  0
 57 58  1  0
 57 91  2  0
 58 59  1  0
 58 86  2  0
 59 60  1  0
 60 61  1  0
 60 85  2  0
 61 62  2  0
 61 84  1  0
 62 63  1  0
 62154  1  0
 63 64  2  0
 63155  1  0
 64 65  1  0
 64156  1  0
 65 66  1  0
 65 84  2  0
 66 67  1  0
 66 79  2  0
 67 68  1  0
 68 69  1  0
 68 78  2  0
 69 70  2  0
 69 77  1  0
 70 71  1  0
 70157  1  0
 71 72  2  0
 71158  1  0
 72 73  1  0
 72159  1  0
 73 74  1  0
 73 77  2  0
 74 75  1  0
 74160  1  0
 74161  1  0
 75 76  1  0
 76162  1  0
 76163  1  0
 76164  1  0
 77165  1  0
 78 79  1  0
 78166  1  0
 79 80  1  0
 80 81  1  0
 80167  1  0
 80168  1  0
 81 82  1  0
 81169  1  0
 81170  1  0
 82 83  1  0
 82171  1  0
 82172  1  0
 83173  1  0
 83174  1  0
 83175  1  0
 84176  1  0
 85 86  1  0
 85177  1  0
 86 87  1  0
 87 88  1  0
 87178  1  0
 87179  1  0
 88 89  1  0
 88180  1  0
 88181  1  0
 89 90  1  0
 89182  1  0
 89183  1  0
 90184  1  0
 90185  1  0
 90186  1  0
 91187  1  0
 92 93  1  0
 92188  1  0
 93 94  1  0
 94 95  1  0
 94189  1  0
 94190  1  0
 95 96  1  0
 95191  1  0
 95192  1  0
 96 97  1  0
 96193  1  0
 96194  1  0
 97195  1  0
 97196  1  0
 97197  1  0
 98198  1  0
100199  1  0
102200  1  0
M  END

