
     RDKit          3D

 30 29  0  0  0  0  0  0  0  0999 V2000
    4.7768    1.6718    2.0412 C   0  0  0  0  0  0  0  0  0  0  0  0
    4.2877    0.7481    0.9294 C   0  0  0  0  0  0  0  0  0  0  0  0
    4.8396    1.1622   -0.4453 C   0  0  0  0  0  0  0  0  0  0  0  0
    5.5609    2.1491   -0.5208 O   0  0  0  0  0  0  0  0  0  0  0  0
    4.5049    0.4027   -1.5467 N   0  0  0  0  0  0  0  0  0  0  0  0
    3.5775   -0.7167   -1.4438 C   0  0  0  0  0  0  0  0  0  0  0  0
    4.9964    0.8207   -2.9129 C   0  0  1  0  0  0  0  0  0  0  0  0
    4.5067   -0.1650   -3.9921 C   0  0  0  0  0  0  0  0  0  0  0  0
    4.4237    2.2106   -3.2589 C   0  0  0  0  0  0  0  0  0  0  0  0
    6.5505    0.8669   -2.9473 C   0  0  0  0  0  0  0  0  0  0  0  0
    7.2662   -0.4160   -2.5220 C   0  0  0  0  0  0  0  0  0  0  0  0
    4.3648    1.3562    3.0125 H   0  0  0  0  0  0  0  0  0  0  0  0
    4.4740    2.7117    1.8523 H   0  0  0  0  0  0  0  0  0  0  0  0
    5.8744    1.6649    2.1069 H   0  0  0  0  0  0  0  0  0  0  0  0
    3.1842    0.7478    0.8949 H   0  0  0  0  0  0  0  0  0  0  0  0
    4.5817   -0.2938    1.1453 H   0  0  0  0  0  0  0  0  0  0  0  0
    3.3635   -0.9439   -0.3966 H   0  0  0  0  0  0  0  0  0  0  0  0
    3.9932   -1.6311   -1.8916 H   0  0  0  0  0  0  0  0  0  0  0  0
    2.6130   -0.5069   -1.9383 H   0  0  0  0  0  0  0  0  0  0  0  0
    3.4101   -0.1975   -4.0662 H   0  0  0  0  0  0  0  0  0  0  0  0
    4.8730   -1.1903   -3.8434 H   0  0  0  0  0  0  0  0  0  0  0  0
    4.8870    0.1794   -4.9650 H   0  0  0  0  0  0  0  0  0  0  0  0
    3.3217    2.1833   -3.2645 H   0  0  0  0  0  0  0  0  0  0  0  0
    4.7580    2.5180   -4.2626 H   0  0  0  0  0  0  0  0  0  0  0  0
    4.7551    2.9636   -2.5341 H   0  0  0  0  0  0  0  0  0  0  0  0
    6.8830    1.6941   -2.3083 H   0  0  0  0  0  0  0  0  0  0  0  0
    6.8393    1.1248   -3.9813 H   0  0  0  0  0  0  0  0  0  0  0  0
    7.0040   -0.6998   -1.4903 H   0  0  0  0  0  0  0  0  0  0  0  0
    8.3581   -0.2737   -2.5531 H   0  0  0  0  0  0  0  0  0  0  0  0
    7.0328   -1.2728   -3.1751 H   0  0  0  0  0  0  0  0  0  0  0  0
  1  2  1  0
  1 12  1  0
  1 13  1  0
  1 14  1  0
  2  3  1  0
  2 15  1  0
  2 16  1  0
  3  4  2  0
  3  5  1  0
  5  6  1  0
  7  5  1  1
  6 17  1  0
  6 18  1  0
  6 19  1  0
  7  8  1  0
  7  9  1  0
  7 10  1  0
  8 20  1  0
  8 21  1  0
  8 22  1  0
  9 23  1  0
  9 24  1  0
  9 25  1  0
 10 11  1  0
 10 26  1  0
 10 27  1  0
 11 28  1  0
 11 29  1  0
 11 30  1  0
M  END

