
     RDKit          3D

 42 42  0  0  0  0  0  0  0  0999 V2000
    3.3235   -0.3769    4.2799 C   0  0  0  0  0  0  0  0  0  0  0  0
    2.8171   -0.8455    2.9119 C   0  0  1  0  0  0  0  0  0  0  0  0
    1.3241   -1.1923    2.9503 C   0  0  0  0  0  0  0  0  0  0  0  0
    3.0823    0.1970    1.8086 C   0  0  0  0  0  0  0  0  0  0  0  0
    4.4862    0.5141    1.6110 N   0  0  0  0  0  0  0  0  0  0  0  0
    5.0316    1.7347    1.8855 C   0  0  0  0  0  0  0  0  0  0  0  0
    4.3875    2.6736    2.3289 O   0  0  0  0  0  0  0  0  0  0  0  0
    6.5327    1.8952    1.5398 C   0  0  1  0  0  0  0  0  0  0  0  0
    6.6679    2.2868    0.0598 C   0  0  0  0  0  0  0  0  0  0  0  0
    7.1667    2.8893    2.3863 N   0  0  0  0  0  0  0  0  0  0  0  0
    7.4261    2.4781    3.7727 C   0  0  1  0  0  0  0  0  0  0  0  0
    8.6993    1.6118    3.8659 C   0  0  0  0  0  0  0  0  0  0  0  0
    9.9722    2.4033    3.5379 C   0  0  0  0  0  0  0  0  0  0  0  0
   10.1030    3.6512    4.4214 C   0  0  0  0  0  0  0  0  0  0  0  0
    8.8489    4.5314    4.3365 C   0  0  0  0  0  0  0  0  0  0  0  0
    7.5817    3.7270    4.6589 C   0  0  0  0  0  0  0  0  0  0  0  0
    3.1591   -1.1495    5.0482 H   0  0  0  0  0  0  0  0  0  0  0  0
    2.8001    0.5390    4.6012 H   0  0  0  0  0  0  0  0  0  0  0  0
    4.4007   -0.1506    4.2559 H   0  0  0  0  0  0  0  0  0  0  0  0
    3.3699   -1.7661    2.6382 H   0  0  0  0  0  0  0  0  0  0  0  0
    0.7209   -0.3058    3.2110 H   0  0  0  0  0  0  0  0  0  0  0  0
    1.1151   -1.9691    3.7028 H   0  0  0  0  0  0  0  0  0  0  0  0
    0.9664   -1.5644    1.9761 H   0  0  0  0  0  0  0  0  0  0  0  0
    2.5856    1.1465    2.0595 H   0  0  0  0  0  0  0  0  0  0  0  0
    2.6503   -0.1617    0.8569 H   0  0  0  0  0  0  0  0  0  0  0  0
    5.0999   -0.2184    1.2732 H   0  0  0  0  0  0  0  0  0  0  0  0
    7.0381    0.9261    1.6931 H   0  0  0  0  0  0  0  0  0  0  0  0
    6.1632    3.2488   -0.1239 H   0  0  0  0  0  0  0  0  0  0  0  0
    6.2124    1.5347   -0.6038 H   0  0  0  0  0  0  0  0  0  0  0  0
    7.7300    2.4005   -0.2014 H   0  0  0  0  0  0  0  0  0  0  0  0
    6.5441    3.6992    2.3999 H   0  0  0  0  0  0  0  0  0  0  0  0
    6.5744    1.8889    4.1771 H   0  0  0  0  0  0  0  0  0  0  0  0
    8.6152    0.7339    3.2024 H   0  0  0  0  0  0  0  0  0  0  0  0
    8.7645    1.2089    4.8930 H   0  0  0  0  0  0  0  0  0  0  0  0
    9.9350    2.7111    2.4795 H   0  0  0  0  0  0  0  0  0  0  0  0
   10.8588    1.7568    3.6532 H   0  0  0  0  0  0  0  0  0  0  0  0
   10.9980    4.2303    4.1368 H   0  0  0  0  0  0  0  0  0  0  0  0
   10.2572    3.3393    5.4720 H   0  0  0  0  0  0  0  0  0  0  0  0
    8.7667    4.9505    3.3193 H   0  0  0  0  0  0  0  0  0  0  0  0
    8.9336    5.3890    5.0255 H   0  0  0  0  0  0  0  0  0  0  0  0
    6.6802    4.3570    4.5629 H   0  0  0  0  0  0  0  0  0  0  0  0
    7.6159    3.3974    5.7124 H   0  0  0  0  0  0  0  0  0  0  0  0
  1  2  1  0
  1 17  1  0
  1 18  1  0
  1 19  1  0
  2  3  1  0
  2  4  1  0
  2 20  1  6
  3 21  1  0
  3 22  1  0
  3 23  1  0
  4  5  1  0
  4 24  1  0
  4 25  1  0
  5  6  1  0
  5 26  1  0
  6  7  2  0
  6  8  1  0
  8  9  1  0
  8 10  1  0
  8 27  1  6
  9 28  1  0
  9 29  1  0
  9 30  1  0
 10 11  1  0
 10 31  1  0
 11 12  1  0
 11 16  1  0
 11 32  1  1
 12 13  1  0
 12 33  1  0
 12 34  1  0
 13 14  1  0
 13 35  1  0
 13 36  1  0
 14 15  1  0
 14 37  1  0
 14 38  1  0
 15 16  1  0
 15 39  1  0
 15 40  1  0
 16 41  1  0
 16 42  1  0
M  END

