
     RDKit          3D

 44 45  0  0  0  0  0  0  0  0999 V2000
    3.9165   -0.0466   -1.0112 C   0  0  0  0  0  0  0  0  0  0  0  0
    2.8230   -0.0335    0.0551 C   0  0  1  0  0  0  0  0  0  0  0  0
    1.8359    0.0568   -0.4492 H   0  0  0  0  0  0  0  0  0  0  0  0
    2.8580   -1.2185    0.8406 O   0  0  0  0  0  0  0  0  0  0  0  0
    2.9477    1.1298    1.0365 C   0  0  1  0  0  0  0  0  0  0  0  0
    3.9432    1.0606    1.5107 H   0  0  0  0  0  0  0  0  0  0  0  0
    2.7787    2.5363    0.4354 C   0  0  0  0  0  0  0  0  0  0  0  0
    2.4654    3.4123    1.6525 C   0  0  0  0  0  0  0  0  0  0  0  0
    1.7472    2.5005    2.5411 N   0  0  0  0  0  0  0  0  0  0  0  0
    1.1294    2.9816    3.6707 C   0  0  0  0  0  0  0  0  0  0  0  0
    1.1617    4.1688    3.9750 O   0  0  0  0  0  0  0  0  0  0  0  0
    0.4901    2.0334    4.4506 N   0  0  0  0  0  0  0  0  0  0  0  0
   -0.2972    2.4485    5.5962 C   0  0  0  0  0  0  0  0  0  0  0  0
   -1.7174    2.9124    5.2472 C   0  0  0  0  0  0  0  0  0  0  0  0
   -2.5067    3.3668    6.4875 C   0  0  0  0  0  0  0  0  0  0  0  0
   -3.9093    3.8296    6.1715 C   0  0  0  0  0  0  0  0  0  0  0  0
   -4.1862    5.1927    5.9735 C   0  0  0  0  0  0  0  0  0  0  0  0
   -5.4608    5.6612    5.6539 C   0  0  0  0  0  0  0  0  0  0  0  0
   -6.5060    4.7438    5.5252 C   0  0  0  0  0  0  0  0  0  0  0  0
   -8.1148    5.3025    5.1295 Cl  0  0  0  0  0  0  0  0  0  0  0  0
   -6.2816    3.3789    5.7114 C   0  0  0  0  0  0  0  0  0  0  0  0
   -4.9918    2.9427    6.0267 C   0  0  0  0  0  0  0  0  0  0  0  0
   -4.7548    1.2158    6.2489 Cl  0  0  0  0  0  0  0  0  0  0  0  0
    1.8850    1.1011    2.1524 C   0  0  0  0  0  0  0  0  0  0  0  0
    3.7978   -0.9177   -1.6777 H   0  0  0  0  0  0  0  0  0  0  0  0
    4.9112   -0.1107   -0.5417 H   0  0  0  0  0  0  0  0  0  0  0  0
    3.8823    0.8552   -1.6422 H   0  0  0  0  0  0  0  0  0  0  0  0
    2.7577   -1.9786    0.2534 H   0  0  0  0  0  0  0  0  0  0  0  0
    1.9262    2.5426   -0.2667 H   0  0  0  0  0  0  0  0  0  0  0  0
    3.6658    2.8852   -0.1135 H   0  0  0  0  0  0  0  0  0  0  0  0
    1.8509    4.2938    1.4165 H   0  0  0  0  0  0  0  0  0  0  0  0
    3.3892    3.7872    2.1320 H   0  0  0  0  0  0  0  0  0  0  0  0
    0.2853    1.1272    4.0486 H   0  0  0  0  0  0  0  0  0  0  0  0
    0.2461    3.2722    6.0827 H   0  0  0  0  0  0  0  0  0  0  0  0
   -0.3372    1.6098    6.3127 H   0  0  0  0  0  0  0  0  0  0  0  0
   -2.2619    2.0938    4.7457 H   0  0  0  0  0  0  0  0  0  0  0  0
   -1.6457    3.7447    4.5285 H   0  0  0  0  0  0  0  0  0  0  0  0
   -1.9633    4.1924    6.9761 H   0  0  0  0  0  0  0  0  0  0  0  0
   -2.5496    2.5396    7.2149 H   0  0  0  0  0  0  0  0  0  0  0  0
   -3.3687    5.9114    6.0772 H   0  0  0  0  0  0  0  0  0  0  0  0
   -5.6469    6.7260    5.5078 H   0  0  0  0  0  0  0  0  0  0  0  0
   -7.0964    2.6621    5.6130 H   0  0  0  0  0  0  0  0  0  0  0  0
    0.9316    0.6847    1.7663 H   0  0  0  0  0  0  0  0  0  0  0  0
    2.2002    0.4674    2.9966 H   0  0  0  0  0  0  0  0  0  0  0  0
  1  2  1  0
  1 25  1  0
  1 26  1  0
  1 27  1  0
  2  3  1  6
  2  4  1  0
  2  5  1  0
  4 28  1  0
  5  6  1  1
  5  7  1  0
  5 24  1  0
  7  8  1  0
  7 29  1  0
  7 30  1  0
  8  9  1  0
  8 31  1  0
  8 32  1  0
  9 10  1  0
  9 24  1  0
 10 11  2  0
 10 12  1  0
 12 13  1  0
 12 33  1  0
 13 14  1  0
 13 34  1  0
 13 35  1  0
 14 15  1  0
 14 36  1  0
 14 37  1  0
 15 16  1  0
 15 38  1  0
 15 39  1  0
 16 17  2  0
 16 22  1  0
 17 18  1  0
 17 40  1  0
 18 19  2  0
 18 41  1  0
 19 20  1  0
 19 21  1  0
 21 22  2  0
 21 42  1  0
 22 23  1  0
 24 43  1  0
 24 44  1  0
M  END

