
     RDKit          3D

 55 59  0  0  0  0  0  0  0  0999 V2000
    3.0953    0.6374    0.5877 C   0  0  0  0  0  0  0  0  0  0  0  0
    4.0394    0.8295    1.6180 O   0  0  0  0  0  0  0  0  0  0  0  0
    4.4945   -0.2410    2.3124 C   0  0  0  0  0  0  0  0  0  0  0  0
    5.4335    0.0294    3.3243 C   0  0  0  0  0  0  0  0  0  0  0  0
    5.9590   -1.0034    4.0897 C   0  0  0  0  0  0  0  0  0  0  0  0
    5.5694   -2.3439    3.8776 C   0  0  0  0  0  0  0  0  0  0  0  0
    6.1184   -3.4567    4.6813 C   0  0  0  0  0  0  0  0  0  0  0  0
    5.6832   -4.7093    4.4107 N   0  0  0  0  0  0  0  0  0  0  0  0
    6.1091   -5.7724    5.0872 C   0  0  0  0  0  0  0  0  0  0  0  0
    7.0616   -5.7231    6.1510 C   0  0  0  0  0  0  0  0  0  0  0  0
    7.5167   -4.4291    6.4182 C   0  0  0  0  0  0  0  0  0  0  0  0
    7.0580   -3.3201    5.7124 C   0  0  0  0  0  0  0  0  0  0  0  0
    7.9868    2.4522    6.0256 C   0  0  0  0  0  0  0  0  0  0  0  0
    8.1301    3.8289    5.9667 C   0  0  0  0  0  0  0  0  0  0  0  0
    9.1516    4.2481    6.8441 C   0  0  0  0  0  0  0  0  0  0  0  0
    9.8874    3.3348    7.6449 C   0  0  0  0  0  0  0  0  0  0  0  0
   10.9143    3.8383    8.5159 C   0  0  0  0  0  0  0  0  0  0  0  0
   11.7463    4.2335    9.2229 N   0  0  0  0  0  0  0  0  0  0  0  0
    9.6416    1.9291    7.6149 C   0  0  0  0  0  0  0  0  0  0  0  0
    8.6259    1.6314    6.7257 C   0  0  0  0  0  0  0  0  0  0  0  0
    7.8985   -2.3428    6.5240 C   0  0  0  0  0  0  0  0  0  0  0  0
    8.4198   -3.5992    7.3171 C   0  0  0  0  0  0  0  0  0  0  0  0
    7.4760   -6.9577    6.8419 C   0  0  0  0  0  0  0  0  0  0  0  0
    8.6326   -7.0135    7.6447 C   0  0  0  0  0  0  0  0  0  0  0  0
    9.0086   -8.1858    8.2923 C   0  0  0  0  0  0  0  0  0  0  0  0
    8.2245   -9.3454    8.1484 C   0  0  0  0  0  0  0  0  0  0  0  0
    8.6023  -10.5641    8.8059 C   0  0  0  0  0  0  0  0  0  0  0  0
    8.9076  -11.5501    9.3391 N   0  0  0  0  0  0  0  0  0  0  0  0
    7.0666   -9.3003    7.3496 C   0  0  0  0  0  0  0  0  0  0  0  0
    6.6843   -8.1267    6.7009 C   0  0  0  0  0  0  0  0  0  0  0  0
    5.4157   -8.0572    5.8788 C   0  0  0  0  0  0  0  0  0  0  0  0
    5.5708   -7.1260    4.6737 C   0  0  0  0  0  0  0  0  0  0  0  0
    4.6302   -2.5965    2.8634 C   0  0  0  0  0  0  0  0  0  0  0  0
    4.0947   -1.5691    2.0865 C   0  0  0  0  0  0  0  0  0  0  0  0
    2.8768    1.6312    0.1740 H   0  0  0  0  0  0  0  0  0  0  0  0
    2.1575    0.1937    0.9671 H   0  0  0  0  0  0  0  0  0  0  0  0
    3.4920   -0.0059   -0.2182 H   0  0  0  0  0  0  0  0  0  0  0  0
    5.7353    1.0658    3.4891 H   0  0  0  0  0  0  0  0  0  0  0  0
    6.6839   -0.7560    4.8658 H   0  0  0  0  0  0  0  0  0  0  0  0
    7.5645    4.5305    5.3514 H   0  0  0  0  0  0  0  0  0  0  0  0
    9.3902    5.3123    6.9151 H   0  0  0  0  0  0  0  0  0  0  0  0
   10.2136    1.2367    8.2350 H   0  0  0  0  0  0  0  0  0  0  0  0
    8.6734   -1.7936    5.9647 H   0  0  0  0  0  0  0  0  0  0  0  0
    7.3298   -1.6208    7.1315 H   0  0  0  0  0  0  0  0  0  0  0  0
    8.1590   -3.6188    8.3876 H   0  0  0  0  0  0  0  0  0  0  0  0
    9.5007   -3.7881    7.2167 H   0  0  0  0  0  0  0  0  0  0  0  0
    9.2570   -6.1260    7.7537 H   0  0  0  0  0  0  0  0  0  0  0  0
    9.9108   -8.2141    8.9060 H   0  0  0  0  0  0  0  0  0  0  0  0
    6.4582  -10.2014    7.2412 H   0  0  0  0  0  0  0  0  0  0  0  0
    4.5992   -7.6792    6.5234 H   0  0  0  0  0  0  0  0  0  0  0  0
    5.1157   -9.0660    5.5567 H   0  0  0  0  0  0  0  0  0  0  0  0
    4.6163   -6.9815    4.1486 H   0  0  0  0  0  0  0  0  0  0  0  0
    6.2715   -7.5769    3.9451 H   0  0  0  0  0  0  0  0  0  0  0  0
    4.3250   -3.6296    2.6939 H   0  0  0  0  0  0  0  0  0  0  0  0
    3.3691   -1.8127    1.3100 H   0  0  0  0  0  0  0  0  0  0  0  0
  1  2  1  0
  1 35  1  0
  1 36  1  0
  1 37  1  0
  2  3  1  0
  3  4  2  0
  3 34  1  0
  4  5  1  0
  4 38  1  0
  5  6  2  0
  5 39  1  0
  6  7  1  0
  6 33  1  0
  7  8  2  0
  7 12  1  0
  8  9  1  0
  9 10  2  0
  9 32  1  0
 10 11  1  0
 10 23  1  0
 11 12  2  0
 11 22  1  0
 12 21  1  0
 13 14  1  0
 13 20  3  0
 14 15  2  0
 14 40  1  0
 15 16  1  0
 15 41  1  0
 16 17  1  0
 16 19  2  0
 17 18  3  0
 19 20  1  0
 19 42  1  0
 21 22  1  0
 21 43  1  0
 21 44  1  0
 22 45  1  0
 22 46  1  0
 23 24  2  0
 23 30  1  0
 24 25  1  0
 24 47  1  0
 25 26  2  0
 25 48  1  0
 26 27  1  0
 26 29  1  0
 27 28  3  0
 29 30  2  0
 29 49  1  0
 30 31  1  0
 31 32  1  0
 31 50  1  0
 31 51  1  0
 32 52  1  0
 32 53  1  0
 33 34  2  0
 33 54  1  0
 34 55  1  0
M  END

