
     RDKit          3D

 50 53  0  0  0  0  0  0  0  0999 V2000
    4.3472   -0.1730   -0.6326 C   0  0  0  0  0  0  0  0  0  0  0  0
    4.0283   -1.5069    0.0357 C   0  0  1  0  0  0  0  0  0  0  0  0
    4.0832   -1.3684    1.5580 C   0  0  0  0  0  0  0  0  0  0  0  0
    2.6899   -2.2724   -0.4566 C   0  0  1  0  0  0  0  0  0  0  0  0
    2.1994   -1.9090   -1.7591 N   0  0  0  0  0  0  0  0  0  0  0  0
    0.9052   -1.5416   -1.9938 C   0  0  0  0  0  0  0  0  0  0  0  0
    0.0402   -1.4871   -1.1380 O   0  0  0  0  0  0  0  0  0  0  0  0
    0.5788   -1.2018   -3.4558 C   0  0  0  0  0  0  0  0  0  0  0  0
    1.7226   -0.9662   -4.3044 N   0  0  0  0  0  0  0  0  0  0  0  0
    1.9685   -1.6896   -5.4335 C   0  0  0  0  0  0  0  0  0  0  0  0
    1.2608   -2.6108   -5.8249 O   0  0  0  0  0  0  0  0  0  0  0  0
    3.2071   -1.2822   -6.1863 C   0  0  0  0  0  0  0  0  0  0  0  0
    3.4450   -1.9712   -7.3498 C   0  0  0  0  0  0  0  0  0  0  0  0
    4.5128   -1.7363   -8.1429 N   0  0  0  0  0  0  0  0  0  0  0  0
    4.6285   -2.2791   -8.9912 H   0  0  0  0  0  0  0  0  0  0  0  0
    5.4617   -0.7730   -7.8362 C   0  0  0  0  0  0  0  0  0  0  0  0
    6.5668   -0.5485   -8.6799 C   0  0  0  0  0  0  0  0  0  0  0  0
    7.4988    0.4232   -8.3427 C   0  0  0  0  0  0  0  0  0  0  0  0
    7.3481    1.1836   -7.1673 C   0  0  0  0  0  0  0  0  0  0  0  0
    6.2590    0.9622   -6.3366 C   0  0  0  0  0  0  0  0  0  0  0  0
    5.2975   -0.0171   -6.6532 C   0  0  0  0  0  0  0  0  0  0  0  0
    4.1384   -0.2395   -5.7547 C   0  0  0  0  0  0  0  0  0  0  0  0
    4.0021    0.4291   -4.7193 O   0  0  0  0  0  0  0  0  0  0  0  0
    3.5298   -3.5901   -0.3313 C   0  0  1  0  0  0  0  0  0  0  0  0
    3.9247   -4.8756   -1.0435 C   0  0  0  0  0  0  0  0  0  0  0  0
    5.4553   -4.8917   -0.6231 C   0  0  0  0  0  0  0  0  0  0  0  0
    5.8367   -3.5710   -0.1540 O   0  0  0  0  0  0  0  0  0  0  0  0
    4.7541   -2.7630   -0.5555 C   0  0  2  0  0  0  0  0  0  0  0  0
    3.6178    0.5992   -0.3374 H   0  0  0  0  0  0  0  0  0  0  0  0
    4.3404   -0.2331   -1.7316 H   0  0  0  0  0  0  0  0  0  0  0  0
    5.3469    0.1770   -0.3260 H   0  0  0  0  0  0  0  0  0  0  0  0
    3.3621   -0.6085    1.9000 H   0  0  0  0  0  0  0  0  0  0  0  0
    5.0883   -1.0492    1.8777 H   0  0  0  0  0  0  0  0  0  0  0  0
    3.8529   -2.3066    2.0839 H   0  0  0  0  0  0  0  0  0  0  0  0
    1.8354   -2.1962    0.2279 H   0  0  0  0  0  0  0  0  0  0  0  0
    2.8240   -1.9192   -2.5568 H   0  0  0  0  0  0  0  0  0  0  0  0
   -0.0962   -0.3306   -3.4247 H   0  0  0  0  0  0  0  0  0  0  0  0
    0.0087   -2.0408   -3.8830 H   0  0  0  0  0  0  0  0  0  0  0  0
    2.3675   -0.1889   -4.1260 H   0  0  0  0  0  0  0  0  0  0  0  0
    2.7440   -2.7507   -7.6580 H   0  0  0  0  0  0  0  0  0  0  0  0
    6.6833   -1.1394   -9.5926 H   0  0  0  0  0  0  0  0  0  0  0  0
    8.3557    0.5961   -8.9983 H   0  0  0  0  0  0  0  0  0  0  0  0
    8.0885    1.9453   -6.9133 H   0  0  0  0  0  0  0  0  0  0  0  0
    6.1086    1.5324   -5.4181 H   0  0  0  0  0  0  0  0  0  0  0  0
    3.5023   -3.8228    0.7448 H   0  0  0  0  0  0  0  0  0  0  0  0
    3.8198   -4.7996   -2.1373 H   0  0  0  0  0  0  0  0  0  0  0  0
    3.4063   -5.7874   -0.7111 H   0  0  0  0  0  0  0  0  0  0  0  0
    6.0954   -5.1761   -1.4765 H   0  0  0  0  0  0  0  0  0  0  0  0
    5.6434   -5.6057    0.1954 H   0  0  0  0  0  0  0  0  0  0  0  0
    4.8632   -2.5461   -1.6425 H   0  0  0  0  0  0  0  0  0  0  0  0
  2  1  1  6
  1 29  1  0
  1 30  1  0
  1 31  1  0
  2  3  1  0
  2  4  1  0
  2 28  1  0
  3 32  1  0
  3 33  1  0
  3 34  1  0
  4  5  1  0
  4 24  1  0
  4 35  1  1
  5  6  1  0
  5 36  1  0
  6  7  2  0
  6  8  1  0
  8  9  1  0
  8 37  1  0
  8 38  1  0
  9 10  1  0
  9 39  1  0
 10 11  2  0
 10 12  1  0
 12 13  2  0
 12 22  1  0
 13 14  1  0
 13 40  1  0
 14 15  1  0
 14 16  1  0
 16 17  2  0
 16 21  1  0
 17 18  1  0
 17 41  1  0
 18 19  2  0
 18 42  1  0
 19 20  1  0
 19 43  1  0
 20 21  2  0
 20 44  1  0
 21 22  1  0
 22 23  2  0
 24 25  1  0
 24 28  1  0
 24 45  1  1
 25 26  1  0
 25 46  1  0
 25 47  1  0
 26 27  1  0
 26 48  1  0
 26 49  1  0
 27 28  1  0
 28 50  1  6
M  END

