
     RDKit          3D

 67 70  0  0  0  0  0  0  0  0999 V2000
    2.0102    0.2589   -1.1163 C   0  0  0  0  0  0  0  0  0  0  0  0
    2.8333   -0.3964   -0.1801 O   0  0  0  0  0  0  0  0  0  0  0  0
    3.5394    0.3399    0.7168 C   0  0  0  0  0  0  0  0  0  0  0  0
    3.5107    1.7327    0.7872 C   0  0  0  0  0  0  0  0  0  0  0  0
    4.2883    2.3986    1.7645 C   0  0  0  0  0  0  0  0  0  0  0  0
    4.3073    3.8594    1.8965 C   0  0  0  0  0  0  0  0  0  0  0  0
    3.6444    4.7717    1.1612 C   0  0  0  0  0  0  0  0  0  0  0  0
    3.7978    6.2269    1.4547 C   0  0  0  0  0  0  0  0  0  0  0  0
    4.5119    6.6585    2.3515 O   0  0  0  0  0  0  0  0  0  0  0  0
    3.0757    7.0538    0.6343 N   0  0  0  0  0  0  0  0  0  0  0  0
    3.1008    8.5078    0.7738 C   0  0  1  0  0  0  0  0  0  0  0  0
    2.8384    9.1842   -0.5822 C   0  0  0  0  0  0  0  0  0  0  0  0
    1.3768    9.0493   -1.0421 C   0  0  0  0  0  0  0  0  0  0  0  0
    0.3594    9.5390    0.0122 C   0  0  2  0  0  0  0  0  0  0  0  0
    0.3181   11.0705    0.1223 C   0  0  0  0  0  0  0  0  0  0  0  0
    0.6400    8.8516    1.3668 C   0  0  0  0  0  0  0  0  0  0  0  0
    2.0939    9.0093    1.8307 C   0  0  0  0  0  0  0  0  0  0  0  0
    5.0746    1.6506    2.6464 C   0  0  0  0  0  0  0  0  0  0  0  0
    5.0995    0.2450    2.5696 C   0  0  0  0  0  0  0  0  0  0  0  0
    5.8938   -0.3839    3.4696 O   0  0  0  0  0  0  0  0  0  0  0  0
    5.9723   -1.8010    3.4658 C   0  0  0  0  0  0  0  0  0  0  0  0
    6.9458   -2.1954    4.5689 C   0  0  0  0  0  0  0  0  0  0  0  0
    7.1309   -3.6820    4.6304 C   0  0  0  0  0  0  0  0  0  0  0  0
    6.8362   -4.5120    3.6529 N   0  0  0  0  0  0  0  0  0  0  0  0
    7.1177   -5.7727    4.1158 C   0  0  0  0  0  0  0  0  0  0  0  0
    7.5863   -5.7128    5.4040 C   0  0  0  0  0  0  0  0  0  0  0  0
    7.6019   -4.3652    5.7381 N   0  0  0  0  0  0  0  0  0  0  0  0
    7.9846   -3.8384    7.0053 C   0  0  0  0  0  0  0  0  0  0  0  0
    7.4119   -4.3605    8.1744 C   0  0  0  0  0  0  0  0  0  0  0  0
    7.7958   -3.8618    9.4210 C   0  0  0  0  0  0  0  0  0  0  0  0
    8.7387   -2.8329    9.5096 C   0  0  0  0  0  0  0  0  0  0  0  0
    9.3051   -2.3107    8.3432 C   0  0  0  0  0  0  0  0  0  0  0  0
    8.9389   -2.8155    7.0931 C   0  0  0  0  0  0  0  0  0  0  0  0
    4.3333   -0.4131    1.6068 C   0  0  0  0  0  0  0  0  0  0  0  0
    1.5465   -0.5258   -1.7294 H   0  0  0  0  0  0  0  0  0  0  0  0
    2.5895    0.9311   -1.7752 H   0  0  0  0  0  0  0  0  0  0  0  0
    1.2129    0.8459   -0.6249 H   0  0  0  0  0  0  0  0  0  0  0  0
    2.8968    2.3113    0.1001 H   0  0  0  0  0  0  0  0  0  0  0  0
    4.9405    4.2655    2.6929 H   0  0  0  0  0  0  0  0  0  0  0  0
    2.9846    4.4771    0.3386 H   0  0  0  0  0  0  0  0  0  0  0  0
    2.4841    6.6383   -0.0741 H   0  0  0  0  0  0  0  0  0  0  0  0
    4.1148    8.7531    1.1238 H   0  0  0  0  0  0  0  0  0  0  0  0
    3.5214    8.7704   -1.3428 H   0  0  0  0  0  0  0  0  0  0  0  0
    3.0970   10.2515   -0.4839 H   0  0  0  0  0  0  0  0  0  0  0  0
    1.1582    7.9904   -1.2768 H   0  0  0  0  0  0  0  0  0  0  0  0
    1.2328    9.5938   -1.9909 H   0  0  0  0  0  0  0  0  0  0  0  0
   -0.6427    9.2172   -0.3232 H   0  0  0  0  0  0  0  0  0  0  0  0
    1.2783   11.4996    0.4498 H   0  0  0  0  0  0  0  0  0  0  0  0
   -0.4467   11.3909    0.8484 H   0  0  0  0  0  0  0  0  0  0  0  0
    0.0684   11.5292   -0.8485 H   0  0  0  0  0  0  0  0  0  0  0  0
    0.4141    7.7742    1.2725 H   0  0  0  0  0  0  0  0  0  0  0  0
   -0.0487    9.2396    2.1365 H   0  0  0  0  0  0  0  0  0  0  0  0
    2.2672    8.4660    2.7725 H   0  0  0  0  0  0  0  0  0  0  0  0
    2.3153   10.0702    2.0405 H   0  0  0  0  0  0  0  0  0  0  0  0
    5.6827    2.1408    3.4085 H   0  0  0  0  0  0  0  0  0  0  0  0
    6.3263   -2.1763    2.4915 H   0  0  0  0  0  0  0  0  0  0  0  0
    4.9781   -2.2471    3.6464 H   0  0  0  0  0  0  0  0  0  0  0  0
    6.5831   -1.8081    5.5348 H   0  0  0  0  0  0  0  0  0  0  0  0
    7.9054   -1.6834    4.3769 H   0  0  0  0  0  0  0  0  0  0  0  0
    6.9729   -6.6582    3.4979 H   0  0  0  0  0  0  0  0  0  0  0  0
    7.9344   -6.4739    6.0972 H   0  0  0  0  0  0  0  0  0  0  0  0
    6.6589   -5.1476    8.0983 H   0  0  0  0  0  0  0  0  0  0  0  0
    7.3457   -4.2731   10.3278 H   0  0  0  0  0  0  0  0  0  0  0  0
    9.0319   -2.4395   10.4858 H   0  0  0  0  0  0  0  0  0  0  0  0
   10.0482   -1.5119    8.4039 H   0  0  0  0  0  0  0  0  0  0  0  0
    9.4035   -2.4296    6.1845 H   0  0  0  0  0  0  0  0  0  0  0  0
    4.3190   -1.4971    1.5053 H   0  0  0  0  0  0  0  0  0  0  0  0
  1  2  1  0
  1 35  1  0
  1 36  1  0
  1 37  1  0
  2  3  1  0
  3  4  2  0
  3 34  1  0
  4  5  1  0
  4 38  1  0
  5  6  1  0
  5 18  2  0
  6  7  2  0
  6 39  1  0
  7  8  1  0
  7 40  1  0
  8  9  2  0
  8 10  1  0
 10 11  1  0
 10 41  1  0
 11 12  1  0
 11 17  1  0
 11 42  1  1
 12 13  1  0
 12 43  1  0
 12 44  1  0
 13 14  1  0
 13 45  1  0
 13 46  1  0
 14 15  1  0
 14 16  1  0
 14 47  1  6
 15 48  1  0
 15 49  1  0
 15 50  1  0
 16 17  1  0
 16 51  1  0
 16 52  1  0
 17 53  1  0
 17 54  1  0
 18 19  1  0
 18 55  1  0
 19 20  1  0
 19 34  2  0
 20 21  1  0
 21 22  1  0
 21 56  1  0
 21 57  1  0
 22 23  1  0
 22 58  1  0
 22 59  1  0
 23 24  2  0
 23 27  1  0
 24 25  1  0
 25 26  2  0
 25 60  1  0
 26 27  1  0
 26 61  1  0
 27 28  1  0
 28 29  2  0
 28 33  1  0
 29 30  1  0
 29 62  1  0
 30 31  2  0
 30 63  1  0
 31 32  1  0
 31 64  1  0
 32 33  2  0
 32 65  1  0
 33 66  1  0
 34 67  1  0
M  END

