
     RDKit          3D

 33 34  0  0  0  0  0  0  0  0999 V2000
    2.5356   -2.1728    0.8349 N   0  0  0  0  0  0  0  0  0  0  0  0
    2.0448   -1.5613   -0.2694 C   0  0  0  0  0  0  0  0  0  0  0  0
    0.8601   -1.4899   -0.5442 O   0  0  0  0  0  0  0  0  0  0  0  0
    3.0703   -0.9400   -1.2340 C   0  0  0  0  0  0  0  0  0  0  0  0
    4.4440   -0.7759   -0.7687 N   0  0  0  0  0  0  0  0  0  0  0  0
    4.7165    0.2466    0.2145 C   0  0  0  0  0  0  0  0  0  0  0  0
    5.3522   -0.2896    1.5075 C   0  0  0  0  0  0  0  0  0  0  0  0
    5.2140   -1.4161    1.9019 O   0  0  0  0  0  0  0  0  0  0  0  0
    6.0275    0.6166    2.2321 O   0  0  0  0  0  0  0  0  0  0  0  0
    5.3952   -1.6842   -1.2269 C   0  0  0  0  0  0  0  0  0  0  0  0
    5.0654   -2.6867   -1.8391 O   0  0  0  0  0  0  0  0  0  0  0  0
    6.8337   -1.4053   -0.9605 C   0  0  0  0  0  0  0  0  0  0  0  0
    7.5732   -0.2337   -0.9882 C   0  0  0  0  0  0  0  0  0  0  0  0
    8.9652   -0.4706   -0.8289 C   0  0  0  0  0  0  0  0  0  0  0  0
    9.2638   -1.8055   -0.6795 C   0  0  0  0  0  0  0  0  0  0  0  0
    7.8669   -2.8059   -0.7568 S   0  0  0  0  0  0  0  0  0  0  0  0
   10.7252   -2.0599   -0.4388 C   0  0  0  0  0  0  0  0  0  0  0  0
   11.3463   -0.6923   -0.8521 C   0  0  0  0  0  0  0  0  0  0  0  0
   10.2154    0.3701   -0.7266 C   0  0  0  0  0  0  0  0  0  0  0  0
    1.8684   -2.6132    1.4581 H   0  0  0  0  0  0  0  0  0  0  0  0
    3.5258   -2.2078    1.0670 H   0  0  0  0  0  0  0  0  0  0  0  0
    2.6534    0.0299   -1.5492 H   0  0  0  0  0  0  0  0  0  0  0  0
    3.0968   -1.5944   -2.1155 H   0  0  0  0  0  0  0  0  0  0  0  0
    3.7524    0.6859    0.5213 H   0  0  0  0  0  0  0  0  0  0  0  0
    5.3139    1.0863   -0.1832 H   0  0  0  0  0  0  0  0  0  0  0  0
    6.1028    1.4560    1.7550 H   0  0  0  0  0  0  0  0  0  0  0  0
    7.1395    0.7493   -1.1753 H   0  0  0  0  0  0  0  0  0  0  0  0
   11.1333   -2.9015   -1.0207 H   0  0  0  0  0  0  0  0  0  0  0  0
   10.9117   -2.2898    0.6266 H   0  0  0  0  0  0  0  0  0  0  0  0
   11.6655   -0.7521   -1.9048 H   0  0  0  0  0  0  0  0  0  0  0  0
   12.2361   -0.4385   -0.2570 H   0  0  0  0  0  0  0  0  0  0  0  0
   10.2891    1.1488   -1.5032 H   0  0  0  0  0  0  0  0  0  0  0  0
   10.2572    0.8906    0.2482 H   0  0  0  0  0  0  0  0  0  0  0  0
  1  2  1  0
  1 20  1  0
  1 21  1  0
  2  3  2  0
  2  4  1  0
  4  5  1  0
  4 22  1  0
  4 23  1  0
  5  6  1  0
  5 10  1  0
  6  7  1  0
  6 24  1  0
  6 25  1  0
  7  8  2  0
  7  9  1  0
  9 26  1  0
 10 11  2  0
 10 12  1  0
 12 13  2  0
 12 16  1  0
 13 14  1  0
 13 27  1  0
 14 15  2  0
 14 19  1  0
 15 16  1  0
 15 17  1  0
 17 18  1  0
 17 28  1  0
 17 29  1  0
 18 19  1  0
 18 30  1  0
 18 31  1  0
 19 32  1  0
 19 33  1  0
M  END

