
     RDKit          3D

 55 55  0  0  0  0  0  0  0  0999 V2000
    2.5777   -1.5034   -1.9298 C   0  0  0  0  0  0  0  0  0  0  0  0
    2.4300   -0.9267   -0.5211 C   0  0  0  0  0  0  0  0  0  0  0  0
    3.4835   -1.4503    0.4600 C   0  0  0  0  0  0  0  0  0  0  0  0
    3.3235   -0.8656    1.8592 C   0  0  0  0  0  0  0  0  0  0  0  0
    4.2563   -1.4309    2.7889 O   0  0  0  0  0  0  0  0  0  0  0  0
    5.4829   -0.8595    2.8664 C   0  0  0  0  0  0  0  0  0  0  0  0
    5.8080    0.0945    2.1912 O   0  0  0  0  0  0  0  0  0  0  0  0
    6.3567   -1.5267    3.8584 C   0  0  0  0  0  0  0  0  0  0  0  0
    7.6611   -1.0402    4.0486 C   0  0  0  0  0  0  0  0  0  0  0  0
    8.5255   -1.6201    4.9656 C   0  0  0  0  0  0  0  0  0  0  0  0
    8.1282   -2.7383    5.7502 C   0  0  0  0  0  0  0  0  0  0  0  0
    8.9869   -3.3237    6.6606 N   0  0  0  0  0  0  0  0  0  0  0  0
   10.3721   -2.8785    6.8113 C   0  0  0  0  0  0  0  0  0  0  0  0
   10.5506   -1.7087    7.7834 C   0  0  0  0  0  0  0  0  0  0  0  0
    8.5507   -4.3838    7.5508 C   0  0  0  0  0  0  0  0  0  0  0  0
    8.7169   -5.8066    6.9954 C   0  0  1  0  0  0  0  0  0  0  0  0
   10.0765   -6.0434    6.8414 O   0  0  0  0  0  0  0  0  0  0  0  0
   10.4145   -7.2492    6.1690 C   0  0  0  0  0  0  0  0  0  0  0  0
   11.9248   -7.3539    6.0844 C   0  0  0  0  0  0  0  0  0  0  0  0
    8.1807   -6.7410    7.9082 O   0  0  0  0  0  0  0  0  0  0  0  0
    6.8493   -7.1611    7.6734 C   0  0  0  0  0  0  0  0  0  0  0  0
    6.4770   -8.2016    8.7131 C   0  0  0  0  0  0  0  0  0  0  0  0
    6.8069   -3.2229    5.5462 C   0  0  0  0  0  0  0  0  0  0  0  0
    5.9501   -2.6290    4.6280 C   0  0  0  0  0  0  0  0  0  0  0  0
    1.8096   -1.1054   -2.6120 H   0  0  0  0  0  0  0  0  0  0  0  0
    2.4825   -2.6022   -1.9249 H   0  0  0  0  0  0  0  0  0  0  0  0
    3.5638   -1.2604   -2.3592 H   0  0  0  0  0  0  0  0  0  0  0  0
    1.4202   -1.1562   -0.1336 H   0  0  0  0  0  0  0  0  0  0  0  0
    2.4913    0.1757   -0.5672 H   0  0  0  0  0  0  0  0  0  0  0  0
    4.4926   -1.2042    0.0895 H   0  0  0  0  0  0  0  0  0  0  0  0
    3.4246   -2.5514    0.5252 H   0  0  0  0  0  0  0  0  0  0  0  0
    2.3300   -1.1014    2.2711 H   0  0  0  0  0  0  0  0  0  0  0  0
    3.4517    0.2273    1.8371 H   0  0  0  0  0  0  0  0  0  0  0  0
    7.9847   -0.1804    3.4582 H   0  0  0  0  0  0  0  0  0  0  0  0
    9.5193   -1.1913    5.0823 H   0  0  0  0  0  0  0  0  0  0  0  0
   10.7778   -2.6209    5.8208 H   0  0  0  0  0  0  0  0  0  0  0  0
   10.9533   -3.7470    7.1496 H   0  0  0  0  0  0  0  0  0  0  0  0
    9.9944   -0.8171    7.4554 H   0  0  0  0  0  0  0  0  0  0  0  0
   11.6155   -1.4365    7.8655 H   0  0  0  0  0  0  0  0  0  0  0  0
   10.1938   -1.9737    8.7919 H   0  0  0  0  0  0  0  0  0  0  0  0
    7.4996   -4.2391    7.8391 H   0  0  0  0  0  0  0  0  0  0  0  0
    9.1367   -4.3417    8.4818 H   0  0  0  0  0  0  0  0  0  0  0  0
    8.1959   -5.9091    6.0171 H   0  0  0  0  0  0  0  0  0  0  0  0
    9.9630   -7.2471    5.1559 H   0  0  0  0  0  0  0  0  0  0  0  0
    9.9925   -8.1100    6.7171 H   0  0  0  0  0  0  0  0  0  0  0  0
   12.3475   -6.5036    5.5269 H   0  0  0  0  0  0  0  0  0  0  0  0
   12.2161   -8.2839    5.5716 H   0  0  0  0  0  0  0  0  0  0  0  0
   12.3686   -7.3599    7.0920 H   0  0  0  0  0  0  0  0  0  0  0  0
    6.7561   -7.5805    6.6507 H   0  0  0  0  0  0  0  0  0  0  0  0
    6.1486   -6.3032    7.7309 H   0  0  0  0  0  0  0  0  0  0  0  0
    7.1511   -9.0699    8.6514 H   0  0  0  0  0  0  0  0  0  0  0  0
    5.4438   -8.5494    8.5580 H   0  0  0  0  0  0  0  0  0  0  0  0
    6.5552   -7.7801    9.7270 H   0  0  0  0  0  0  0  0  0  0  0  0
    6.4433   -4.0858    6.1020 H   0  0  0  0  0  0  0  0  0  0  0  0
    4.9439   -3.0293    4.4953 H   0  0  0  0  0  0  0  0  0  0  0  0
  1  2  1  0
  1 25  1  0
  1 26  1  0
  1 27  1  0
  2  3  1  0
  2 28  1  0
  2 29  1  0
  3  4  1  0
  3 30  1  0
  3 31  1  0
  4  5  1  0
  4 32  1  0
  4 33  1  0
  5  6  1  0
  6  7  2  0
  6  8  1  0
  8  9  2  0
  8 24  1  0
  9 10  1  0
  9 34  1  0
 10 11  2  0
 10 35  1  0
 11 12  1  0
 11 23  1  0
 12 13  1  0
 12 15  1  0
 13 14  1  0
 13 36  1  0
 13 37  1  0
 14 38  1  0
 14 39  1  0
 14 40  1  0
 15 16  1  0
 15 41  1  0
 15 42  1  0
 16 17  1  0
 16 20  1  0
 16 43  1  6
 17 18  1  0
 18 19  1  0
 18 44  1  0
 18 45  1  0
 19 46  1  0
 19 47  1  0
 19 48  1  0
 20 21  1  0
 21 22  1  0
 21 49  1  0
 21 50  1  0
 22 51  1  0
 22 52  1  0
 22 53  1  0
 23 24  2  0
 23 54  1  0
 24 55  1  0
M  END

