
     RDKit          3D

 35 36  0  0  0  0  0  0  0  0999 V2000
    1.7065    1.3460   -1.1051 C   0  0  0  0  0  0  0  0  0  0  0  0
    1.8926    0.0562   -0.5574 O   0  0  0  0  0  0  0  0  0  0  0  0
    2.5946   -0.8584   -1.2569 C   0  0  0  0  0  0  0  0  0  0  0  0
    3.1666   -0.6296   -2.5080 C   0  0  0  0  0  0  0  0  0  0  0  0
    3.8836   -1.6464   -3.1669 C   0  0  0  0  0  0  0  0  0  0  0  0
    4.4577   -1.3404   -4.4801 C   0  0  0  0  0  0  0  0  0  0  0  0
    4.3738   -0.1725   -5.1112 N   0  0  0  0  0  0  0  0  0  0  0  0
    5.0512   -0.3753   -6.2652 C   0  0  0  0  0  0  0  0  0  0  0  0
    5.2129    0.8968   -7.4684 S   0  0  0  0  0  0  0  0  0  0  0  0
    6.5282    0.1985   -8.5487 C   0  0  0  0  0  0  0  0  0  0  0  0
    6.0641   -0.8338   -9.5852 C   0  0  0  0  0  0  0  0  0  0  0  0
    6.0570   -0.5863  -10.7626 O   0  0  0  0  0  0  0  0  0  0  0  0
    5.7019   -2.0252   -9.1060 O   0  0  0  0  0  0  0  0  0  0  0  0
    5.5529   -1.6005   -6.3977 N   0  0  0  0  0  0  0  0  0  0  0  0
    5.1691   -2.2033   -5.2474 N   0  0  0  0  0  0  0  0  0  0  0  0
    5.4215   -3.1680   -5.0701 H   0  0  0  0  0  0  0  0  0  0  0  0
    4.0223   -2.8977   -2.5568 C   0  0  0  0  0  0  0  0  0  0  0  0
    3.4557   -3.1443   -1.3023 C   0  0  0  0  0  0  0  0  0  0  0  0
    2.7444   -2.1360   -0.6497 C   0  0  0  0  0  0  0  0  0  0  0  0
    2.1336   -2.2398    0.5786 O   0  0  0  0  0  0  0  0  0  0  0  0
    2.1432   -3.3295    1.3995 C   0  0  0  0  0  0  0  0  0  0  0  0
    1.3573   -3.0216    2.6476 C   0  0  0  0  0  0  0  0  0  0  0  0
    2.6956   -4.3688    1.1554 O   0  0  0  0  0  0  0  0  0  0  0  0
    1.1158    1.9106   -0.3719 H   0  0  0  0  0  0  0  0  0  0  0  0
    1.1547    1.3082   -2.0608 H   0  0  0  0  0  0  0  0  0  0  0  0
    2.6683    1.8631   -1.2686 H   0  0  0  0  0  0  0  0  0  0  0  0
    3.0747    0.3340   -3.0059 H   0  0  0  0  0  0  0  0  0  0  0  0
    7.3205   -0.2132   -7.9044 H   0  0  0  0  0  0  0  0  0  0  0  0
    6.9186    1.0632   -9.0993 H   0  0  0  0  0  0  0  0  0  0  0  0
    5.7372   -2.0445   -8.1185 H   0  0  0  0  0  0  0  0  0  0  0  0
    4.5726   -3.7080   -3.0404 H   0  0  0  0  0  0  0  0  0  0  0  0
    3.5625   -4.1138   -0.8250 H   0  0  0  0  0  0  0  0  0  0  0  0
    1.7935   -2.1504    3.1599 H   0  0  0  0  0  0  0  0  0  0  0  0
    1.3668   -3.8950    3.3099 H   0  0  0  0  0  0  0  0  0  0  0  0
    0.3222   -2.7566    2.3826 H   0  0  0  0  0  0  0  0  0  0  0  0
  1  2  1  0
  1 24  1  0
  1 25  1  0
  1 26  1  0
  2  3  1  0
  3  4  2  0
  3 19  1  0
  4  5  1  0
  4 27  1  0
  5  6  1  0
  5 17  2  0
  6  7  2  0
  6 15  1  0
  7  8  1  0
  8  9  1  0
  8 14  2  0
  9 10  1  0
 10 11  1  0
 10 28  1  0
 10 29  1  0
 11 12  2  0
 11 13  1  0
 13 30  1  0
 14 15  1  0
 15 16  1  0
 17 18  1  0
 17 31  1  0
 18 19  2  0
 18 32  1  0
 19 20  1  0
 20 21  1  0
 21 22  1  0
 21 23  2  0
 22 33  1  0
 22 34  1  0
 22 35  1  0
M  END

