
     RDKit          3D

 28 30  0  0  0  0  0  0  0  0999 V2000
    1.0090    0.1483    0.0729 C   0  0  0  0  0  0  0  0  0  0  0  0
    2.5117    0.1547   -0.0278 C   0  0  0  0  0  0  0  0  0  0  0  0
    3.2528    1.3259   -0.2016 C   0  0  0  0  0  0  0  0  0  0  0  0
    4.6601    1.3219   -0.3001 C   0  0  0  0  0  0  0  0  0  0  0  0
    5.3414    2.6165   -0.4431 C   0  0  0  0  0  0  0  0  0  0  0  0
    4.8711    3.7559    0.0564 N   0  0  0  0  0  0  0  0  0  0  0  0
    5.7439    4.7383   -0.2544 C   0  0  0  0  0  0  0  0  0  0  0  0
    6.8117    4.2247   -0.9894 C   0  0  0  0  0  0  0  0  0  0  0  0
    7.9876    4.7459   -1.5883 C   0  0  0  0  0  0  0  0  0  0  0  0
    8.8131    3.9188   -2.3077 C   0  0  0  0  0  0  0  0  0  0  0  0
    8.4682    2.5376   -2.4629 C   0  0  0  0  0  0  0  0  0  0  0  0
    7.3467    2.0261   -1.8771 C   0  0  0  0  0  0  0  0  0  0  0  0
    6.5330    2.8446   -1.1141 N   0  0  0  0  0  0  0  0  0  0  0  0
    5.3328    0.0906   -0.1933 C   0  0  0  0  0  0  0  0  0  0  0  0
    4.6157   -1.0965   -0.0253 C   0  0  0  0  0  0  0  0  0  0  0  0
    3.2294   -1.0478    0.0477 C   0  0  0  0  0  0  0  0  0  0  0  0
    2.5434   -2.1943    0.2069 F   0  0  0  0  0  0  0  0  0  0  0  0
    0.6056    1.1681    0.0027 H   0  0  0  0  0  0  0  0  0  0  0  0
    0.6753   -0.2909    1.0272 H   0  0  0  0  0  0  0  0  0  0  0  0
    0.5570   -0.4590   -0.7286 H   0  0  0  0  0  0  0  0  0  0  0  0
    2.7373    2.2867   -0.2571 H   0  0  0  0  0  0  0  0  0  0  0  0
    5.5948    5.7720    0.0554 H   0  0  0  0  0  0  0  0  0  0  0  0
    8.2053    5.8092   -1.4687 H   0  0  0  0  0  0  0  0  0  0  0  0
    9.7208    4.3063   -2.7743 H   0  0  0  0  0  0  0  0  0  0  0  0
    9.0941    1.8748   -3.0629 H   0  0  0  0  0  0  0  0  0  0  0  0
    7.0298    0.9919   -1.9929 H   0  0  0  0  0  0  0  0  0  0  0  0
    6.4227    0.0466   -0.1952 H   0  0  0  0  0  0  0  0  0  0  0  0
    5.1204   -2.0603    0.0659 H   0  0  0  0  0  0  0  0  0  0  0  0
  1  2  1  0
  1 18  1  0
  1 19  1  0
  1 20  1  0
  2  3  2  0
  2 16  1  0
  3  4  1  0
  3 21  1  0
  4  5  1  0
  4 14  2  0
  5  6  2  0
  5 13  1  0
  6  7  1  0
  7  8  2  0
  7 22  1  0
  8  9  1  0
  8 13  1  0
  9 10  2  0
  9 23  1  0
 10 11  1  0
 10 24  1  0
 11 12  2  0
 11 25  1  0
 12 13  1  0
 12 26  1  0
 14 15  1  0
 14 27  1  0
 15 16  2  0
 15 28  1  0
 16 17  1  0
M  END

