
     RDKit          3D

 46 51  0  0  0  0  0  0  0  0999 V2000
    1.1706   -0.5435    0.5992 C   0  0  0  0  0  0  0  0  0  0  0  0
    2.5840   -0.1146    0.1143 C   0  0  2  0  0  0  0  0  0  0  0  0
    2.4551    0.6529   -1.2230 C   0  0  0  0  0  0  0  0  0  0  0  0
    3.4199   -1.3859   -0.0770 C   0  0  0  0  0  0  0  0  0  0  0  0
    3.2326   -2.2408   -1.1062 C   0  0  0  0  0  0  0  0  0  0  0  0
    3.8378   -3.5715   -1.1697 C   0  0  0  0  0  0  0  0  0  0  0  0
    3.4053   -4.5423   -2.1140 C   0  0  0  0  0  0  0  0  0  0  0  0
    3.9402   -5.8128   -2.1213 C   0  0  0  0  0  0  0  0  0  0  0  0
    4.9230   -6.1945   -1.1670 C   0  0  0  0  0  0  0  0  0  0  0  0
    5.4768   -7.5050   -1.1155 C   0  0  0  0  0  0  0  0  0  0  0  0
    6.4094   -7.8363   -0.1536 C   0  0  0  0  0  0  0  0  0  0  0  0
    6.8239   -6.8833    0.8076 C   0  0  0  0  0  0  0  0  0  0  0  0
    6.3221   -5.5898    0.7941 C   0  0  0  0  0  0  0  0  0  0  0  0
    5.3684   -5.2187   -0.2161 C   0  0  0  0  0  0  0  0  0  0  0  0
    4.8363   -3.9063   -0.2553 C   0  0  0  0  0  0  0  0  0  0  0  0
    5.4013   -2.8113    0.6206 C   0  0  2  0  0  0  0  0  0  0  0  0
    6.2427   -3.3266    1.7566 C   0  0  0  0  0  0  0  0  0  0  0  0
    6.6847   -4.5964    1.8029 C   0  0  0  0  0  0  0  0  0  0  0  0
    4.3415   -1.7892    1.0561 C   0  0  1  0  0  0  0  0  0  0  0  0
    5.0851   -0.6856    1.5731 O   0  0  0  0  0  0  0  0  0  0  0  0
    4.4215    0.4772    1.8142 C   0  0  0  0  0  0  0  0  0  0  0  0
    5.0181    1.3544    2.7343 C   0  0  0  0  0  0  0  0  0  0  0  0
    4.4168    2.5734    3.0304 C   0  0  0  0  0  0  0  0  0  0  0  0
    3.2085    2.9188    2.4136 C   0  0  0  0  0  0  0  0  0  0  0  0
    2.6302    2.0418    1.4969 C   0  0  0  0  0  0  0  0  0  0  0  0
    3.2200    0.8091    1.1646 C   0  0  0  0  0  0  0  0  0  0  0  0
    0.6774   -1.1700   -0.1597 H   0  0  0  0  0  0  0  0  0  0  0  0
    0.5335    0.3341    0.7892 H   0  0  0  0  0  0  0  0  0  0  0  0
    1.2305   -1.1218    1.5340 H   0  0  0  0  0  0  0  0  0  0  0  0
    1.9576    0.0417   -1.9907 H   0  0  0  0  0  0  0  0  0  0  0  0
    3.4443    0.9473   -1.6043 H   0  0  0  0  0  0  0  0  0  0  0  0
    1.8534    1.5645   -1.0942 H   0  0  0  0  0  0  0  0  0  0  0  0
    2.5221   -1.9914   -1.8989 H   0  0  0  0  0  0  0  0  0  0  0  0
    2.6327   -4.2690   -2.8383 H   0  0  0  0  0  0  0  0  0  0  0  0
    3.6038   -6.5486   -2.8566 H   0  0  0  0  0  0  0  0  0  0  0  0
    5.1473   -8.2467   -1.8480 H   0  0  0  0  0  0  0  0  0  0  0  0
    6.8264   -8.8462   -0.1218 H   0  0  0  0  0  0  0  0  0  0  0  0
    7.5441   -7.1712    1.5785 H   0  0  0  0  0  0  0  0  0  0  0  0
    6.0753   -2.2084   -0.0306 H   0  0  0  0  0  0  0  0  0  0  0  0
    6.5323   -2.6024    2.5214 H   0  0  0  0  0  0  0  0  0  0  0  0
    7.3343   -4.9218    2.6210 H   0  0  0  0  0  0  0  0  0  0  0  0
    3.7260   -2.2002    1.8872 H   0  0  0  0  0  0  0  0  0  0  0  0
    5.9555    1.0481    3.2030 H   0  0  0  0  0  0  0  0  0  0  0  0
    4.8860    3.2512    3.7481 H   0  0  0  0  0  0  0  0  0  0  0  0
    2.7204    3.8686    2.6436 H   0  0  0  0  0  0  0  0  0  0  0  0
    1.6917    2.3293    1.0166 H   0  0  0  0  0  0  0  0  0  0  0  0
  2  1  1  1
  1 27  1  0
  1 28  1  0
  1 29  1  0
  2  3  1  0
  2  4  1  0
  2 26  1  0
  3 30  1  0
  3 31  1  0
  3 32  1  0
  4  5  2  0
  4 19  1  0
  5  6  1  0
  5 33  1  0
  6  7  2  0
  6 15  1  0
  7  8  1  0
  7 34  1  0
  8  9  2  0
  8 35  1  0
  9 10  1  0
  9 14  1  0
 10 11  2  0
 10 36  1  0
 11 12  1  0
 11 37  1  0
 12 13  2  0
 12 38  1  0
 13 14  1  0
 13 18  1  0
 14 15  2  0
 15 16  1  0
 16 17  1  0
 16 19  1  0
 16 39  1  6
 17 18  2  0
 17 40  1  0
 18 41  1  0
 19 20  1  0
 19 42  1  1
 20 21  1  0
 21 22  1  0
 21 26  2  0
 22 23  2  0
 22 43  1  0
 23 24  1  0
 23 44  1  0
 24 25  2  0
 24 45  1  0
 25 26  1  0
 25 46  1  0
M  END

