
     RDKit          3D

 34 36  0  0  0  0  0  0  0  0999 V2000
    0.4728    1.5700   -1.1659 F   0  0  0  0  0  0  0  0  0  0  0  0
    1.7548    1.2494   -0.9273 C   0  0  1  0  0  0  0  0  0  0  0  0
    1.7880    0.4697    0.1582 F   0  0  0  0  0  0  0  0  0  0  0  0
    2.1877    0.5169   -1.9685 F   0  0  0  0  0  0  0  0  0  0  0  0
    2.6136    2.4938   -0.7463 C   0  0  0  0  0  0  0  0  0  0  0  0
    2.0955    3.7702   -0.9422 C   0  0  0  0  0  0  0  0  0  0  0  0
    3.0124    4.8176   -0.7545 C   0  0  0  0  0  0  0  0  0  0  0  0
    4.2743    4.6162   -0.4156 N   0  0  0  0  0  0  0  0  0  0  0  0
    4.6665    3.3300   -0.2495 C   0  0  0  0  0  0  0  0  0  0  0  0
    5.9787    3.1879    0.1031 N   0  0  0  0  0  0  0  0  0  0  0  0
    6.7791    2.0676    0.3805 C   0  0  0  0  0  0  0  0  0  0  0  0
    8.1170    2.3260    0.7325 C   0  0  0  0  0  0  0  0  0  0  0  0
    8.9768    1.2691    1.0255 C   0  0  0  0  0  0  0  0  0  0  0  0
    8.5260   -0.0478    0.9737 C   0  0  0  0  0  0  0  0  0  0  0  0
    7.1929   -0.2977    0.6198 C   0  0  0  0  0  0  0  0  0  0  0  0
    6.8648   -1.6381    0.6440 O   0  0  0  0  0  0  0  0  0  0  0  0
    5.7660   -2.2561    0.1607 C   0  0  0  0  0  0  0  0  0  0  0  0
    5.7064   -3.6532    0.3903 C   0  0  0  0  0  0  0  0  0  0  0  0
    4.6876   -4.3732   -0.0464 N   0  0  0  0  0  0  0  0  0  0  0  0
    3.7167   -3.7280   -0.7127 C   0  0  0  0  0  0  0  0  0  0  0  0
    3.7819   -2.3551   -0.9330 C   0  0  0  0  0  0  0  0  0  0  0  0
    4.8131   -1.6201   -0.4934 N   0  0  0  0  0  0  0  0  0  0  0  0
    6.3067    0.7430    0.3195 C   0  0  0  0  0  0  0  0  0  0  0  0
    3.8764    2.2605   -0.4049 N   0  0  0  0  0  0  0  0  0  0  0  0
    1.0575    3.9450   -1.2192 H   0  0  0  0  0  0  0  0  0  0  0  0
    2.6992    5.8602   -0.8871 H   0  0  0  0  0  0  0  0  0  0  0  0
    6.4420    4.0871    0.1816 H   0  0  0  0  0  0  0  0  0  0  0  0
    8.4792    3.3568    0.7751 H   0  0  0  0  0  0  0  0  0  0  0  0
   10.0141    1.4769    1.2989 H   0  0  0  0  0  0  0  0  0  0  0  0
    9.1796   -0.8904    1.2036 H   0  0  0  0  0  0  0  0  0  0  0  0
    6.5155   -4.1496    0.9367 H   0  0  0  0  0  0  0  0  0  0  0  0
    2.8699   -4.3195   -1.0753 H   0  0  0  0  0  0  0  0  0  0  0  0
    2.9908   -1.8229   -1.4696 H   0  0  0  0  0  0  0  0  0  0  0  0
    5.2830    0.5375    0.0333 H   0  0  0  0  0  0  0  0  0  0  0  0
  2  1  1  6
  2  3  1  0
  2  4  1  0
  2  5  1  0
  5  6  2  0
  5 24  1  0
  6  7  1  0
  6 25  1  0
  7  8  2  0
  7 26  1  0
  8  9  1  0
  9 10  1  0
  9 24  2  0
 10 11  1  0
 10 27  1  0
 11 12  2  0
 11 23  1  0
 12 13  1  0
 12 28  1  0
 13 14  2  0
 13 29  1  0
 14 15  1  0
 14 30  1  0
 15 16  1  0
 15 23  2  0
 16 17  1  0
 17 18  2  0
 17 22  1  0
 18 19  1  0
 18 31  1  0
 19 20  2  0
 20 21  1  0
 20 32  1  0
 21 22  2  0
 21 33  1  0
 23 34  1  0
M  END

