
     RDKit          3D

 45 45  0  0  0  0  0  0  0  0999 V2000
    0.8498    0.5142    0.6341 C   0  0  0  0  0  0  0  0  0  0  0  0
    2.3285    0.2723    0.4256 C   0  0  0  0  0  0  0  0  0  0  0  0
    3.1851    1.3730    0.3438 C   0  0  0  0  0  0  0  0  0  0  0  0
    4.5677    1.2459    0.1806 C   0  0  0  0  0  0  0  0  0  0  0  0
    5.4042    2.5055    0.1077 C   0  0  0  0  0  0  0  0  0  0  0  0
    5.1321   -0.0489    0.1190 C   0  0  0  0  0  0  0  0  0  0  0  0
    6.6330   -0.2115   -0.0666 C   0  0  0  0  0  0  0  0  0  0  0  0
    7.0956   -0.6780   -1.4716 C   0  0  1  0  0  0  0  0  0  0  0  0
    6.7365    0.3228   -2.5763 C   0  0  0  0  0  0  0  0  0  0  0  0
    8.6006   -0.9734   -1.4660 C   0  0  0  0  0  0  0  0  0  0  0  0
    4.2835   -1.1820    0.2306 C   0  0  0  0  0  0  0  0  0  0  0  0
    4.8768   -2.5791    0.2619 C   0  0  0  0  0  0  0  0  0  0  0  0
    2.8779   -1.0276    0.3486 C   0  0  0  0  0  0  0  0  0  0  0  0
    1.9432   -2.2252    0.3998 C   0  0  0  0  0  0  0  0  0  0  0  0
    1.2144   -2.5756   -0.9263 C   0  0  1  0  0  0  0  0  0  0  0  0
    2.1690   -2.9905   -2.0515 C   0  0  0  0  0  0  0  0  0  0  0  0
    0.1577   -3.6593   -0.6779 C   0  0  0  0  0  0  0  0  0  0  0  0
    0.6377    1.5909    0.7052 H   0  0  0  0  0  0  0  0  0  0  0  0
    0.4860    0.0441    1.5638 H   0  0  0  0  0  0  0  0  0  0  0  0
    0.2332    0.1100   -0.1843 H   0  0  0  0  0  0  0  0  0  0  0  0
    2.7555    2.3771    0.4124 H   0  0  0  0  0  0  0  0  0  0  0  0
    4.7662    3.3979    0.1854 H   0  0  0  0  0  0  0  0  0  0  0  0
    5.9653    2.5822   -0.8369 H   0  0  0  0  0  0  0  0  0  0  0  0
    6.1442    2.5591    0.9240 H   0  0  0  0  0  0  0  0  0  0  0  0
    7.0227   -0.9289    0.6747 H   0  0  0  0  0  0  0  0  0  0  0  0
    7.1433    0.7365    0.1599 H   0  0  0  0  0  0  0  0  0  0  0  0
    6.5702   -1.6221   -1.7006 H   0  0  0  0  0  0  0  0  0  0  0  0
    7.2820    1.2733   -2.4446 H   0  0  0  0  0  0  0  0  0  0  0  0
    5.6589    0.5488   -2.5867 H   0  0  0  0  0  0  0  0  0  0  0  0
    7.0055   -0.0742   -3.5688 H   0  0  0  0  0  0  0  0  0  0  0  0
    9.1807   -0.0657   -1.2248 H   0  0  0  0  0  0  0  0  0  0  0  0
    8.9428   -1.3335   -2.4499 H   0  0  0  0  0  0  0  0  0  0  0  0
    8.8612   -1.7410   -0.7187 H   0  0  0  0  0  0  0  0  0  0  0  0
    5.9660   -2.5697    0.3777 H   0  0  0  0  0  0  0  0  0  0  0  0
    4.6529   -3.1483   -0.6540 H   0  0  0  0  0  0  0  0  0  0  0  0
    4.4730   -3.1642    1.1028 H   0  0  0  0  0  0  0  0  0  0  0  0
    1.1679   -2.0403    1.1615 H   0  0  0  0  0  0  0  0  0  0  0  0
    2.4764   -3.1254    0.7400 H   0  0  0  0  0  0  0  0  0  0  0  0
    0.6869   -1.6671   -1.2670 H   0  0  0  0  0  0  0  0  0  0  0  0
    2.6879   -3.9334   -1.8070 H   0  0  0  0  0  0  0  0  0  0  0  0
    2.9318   -2.2202   -2.2436 H   0  0  0  0  0  0  0  0  0  0  0  0
    1.6167   -3.1552   -2.9911 H   0  0  0  0  0  0  0  0  0  0  0  0
    0.6256   -4.5926   -0.3192 H   0  0  0  0  0  0  0  0  0  0  0  0
   -0.3953   -3.8996   -1.6006 H   0  0  0  0  0  0  0  0  0  0  0  0
   -0.5769   -3.3441    0.0813 H   0  0  0  0  0  0  0  0  0  0  0  0
  1  2  1  0
  1 18  1  0
  1 19  1  0
  1 20  1  0
  2  3  2  0
  2 13  1  0
  3  4  1  0
  3 21  1  0
  4  5  1  0
  4  6  2  0
  5 22  1  0
  5 23  1  0
  5 24  1  0
  6  7  1  0
  6 11  1  0
  7  8  1  0
  7 25  1  0
  7 26  1  0
  8  9  1  0
  8 10  1  0
  8 27  1  6
  9 28  1  0
  9 29  1  0
  9 30  1  0
 10 31  1  0
 10 32  1  0
 10 33  1  0
 11 12  1  0
 11 13  2  0
 12 34  1  0
 12 35  1  0
 12 36  1  0
 13 14  1  0
 14 15  1  0
 14 37  1  0
 14 38  1  0
 15 16  1  0
 15 17  1  0
 15 39  1  6
 16 40  1  0
 16 41  1  0
 16 42  1  0
 17 43  1  0
 17 44  1  0
 17 45  1  0
M  END

