
     RDKit          3D

 52 55  0  0  0  0  0  0  0  0999 V2000
    3.8285    1.9641   -1.6816 C   0  0  0  0  0  0  0  0  0  0  0  0
    4.1995    0.8994   -0.6770 C   0  0  0  0  0  0  0  0  0  0  0  0
    4.2440    1.1771    0.6965 C   0  0  0  0  0  0  0  0  0  0  0  0
    4.6144    0.1864    1.6101 C   0  0  0  0  0  0  0  0  0  0  0  0
    4.9531   -1.0942    1.1752 C   0  0  0  0  0  0  0  0  0  0  0  0
    4.9031   -1.3863   -0.1964 C   0  0  0  0  0  0  0  0  0  0  0  0
    5.2367   -2.6943   -0.6538 N   0  0  0  0  0  0  0  0  0  0  0  0
    4.8646   -3.9089    0.0048 C   0  0  0  0  0  0  0  0  0  0  0  0
    4.1999   -3.9596    1.0123 O   0  0  0  0  0  0  0  0  0  0  0  0
    5.4128   -5.0240   -0.7846 C   0  0  0  0  0  0  0  0  0  0  0  0
    5.0966   -6.4106   -0.3698 C   0  0  0  0  0  0  0  0  0  0  0  0
    4.1106   -7.1565   -1.0405 C   0  0  0  0  0  0  0  0  0  0  0  0
    3.7479   -8.4421   -0.6391 C   0  0  0  0  0  0  0  0  0  0  0  0
    4.3766   -9.0057    0.4742 C   0  0  0  0  0  0  0  0  0  0  0  0
    3.9369  -10.6122    0.9997 Cl  0  0  0  0  0  0  0  0  0  0  0  0
    5.3547   -8.2996    1.1769 C   0  0  0  0  0  0  0  0  0  0  0  0
    5.7032   -7.0156    0.7497 C   0  0  0  0  0  0  0  0  0  0  0  0
    6.9600   -6.1724    1.6220 Cl  0  0  0  0  0  0  0  0  0  0  0  0
    6.0804   -4.5112   -1.8757 C   0  0  0  0  0  0  0  0  0  0  0  0
    6.8129   -5.1188   -2.8403 N   0  0  0  0  0  0  0  0  0  0  0  0
    7.2234   -6.5220   -2.7479 C   0  0  0  0  0  0  0  0  0  0  0  0
    6.6585   -7.3492   -3.9066 C   0  0  0  0  0  0  0  0  0  0  0  0
    7.0328   -6.7287   -5.2577 C   0  0  0  0  0  0  0  0  0  0  0  0
    6.6682   -5.2382   -5.3102 C   0  0  2  0  0  0  0  0  0  0  0  0
    7.1216   -4.5826   -6.6193 C   0  0  0  0  0  0  0  0  0  0  0  0
    6.8114   -3.2088   -6.7016 O   0  0  0  0  0  0  0  0  0  0  0  0
    7.2423   -4.4890   -4.0944 C   0  0  0  0  0  0  0  0  0  0  0  0
    5.9638   -2.9803   -1.7972 C   0  0  0  0  0  0  0  0  0  0  0  0
    6.4228   -2.1653   -2.5672 O   0  0  0  0  0  0  0  0  0  0  0  0
    4.5231   -0.3948   -1.1104 C   0  0  0  0  0  0  0  0  0  0  0  0
    3.3538    2.8299   -1.1964 H   0  0  0  0  0  0  0  0  0  0  0  0
    3.1331    1.5767   -2.4433 H   0  0  0  0  0  0  0  0  0  0  0  0
    4.7209    2.3315   -2.2176 H   0  0  0  0  0  0  0  0  0  0  0  0
    3.9859    2.1777    1.0541 H   0  0  0  0  0  0  0  0  0  0  0  0
    4.6432    0.4148    2.6786 H   0  0  0  0  0  0  0  0  0  0  0  0
    5.2360   -1.8666    1.8885 H   0  0  0  0  0  0  0  0  0  0  0  0
    3.6055   -6.7008   -1.8953 H   0  0  0  0  0  0  0  0  0  0  0  0
    2.9780   -9.0008   -1.1729 H   0  0  0  0  0  0  0  0  0  0  0  0
    5.8439   -8.7412    2.0447 H   0  0  0  0  0  0  0  0  0  0  0  0
    6.9264   -6.9343   -1.7796 H   0  0  0  0  0  0  0  0  0  0  0  0
    8.3294   -6.5456   -2.7864 H   0  0  0  0  0  0  0  0  0  0  0  0
    5.5610   -7.4041   -3.8061 H   0  0  0  0  0  0  0  0  0  0  0  0
    7.0373   -8.3819   -3.8337 H   0  0  0  0  0  0  0  0  0  0  0  0
    6.5442   -7.2757   -6.0816 H   0  0  0  0  0  0  0  0  0  0  0  0
    8.1227   -6.8345   -5.4162 H   0  0  0  0  0  0  0  0  0  0  0  0
    5.5639   -5.1528   -5.2548 H   0  0  0  0  0  0  0  0  0  0  0  0
    6.7024   -5.1520   -7.4740 H   0  0  0  0  0  0  0  0  0  0  0  0
    8.2199   -4.6507   -6.7038 H   0  0  0  0  0  0  0  0  0  0  0  0
    5.8502   -3.1090   -6.6889 H   0  0  0  0  0  0  0  0  0  0  0  0
    6.9511   -3.4377   -4.1119 H   0  0  0  0  0  0  0  0  0  0  0  0
    8.3483   -4.5217   -4.1395 H   0  0  0  0  0  0  0  0  0  0  0  0
    4.4925   -0.6286   -2.1747 H   0  0  0  0  0  0  0  0  0  0  0  0
  1  2  1  0
  1 31  1  0
  1 32  1  0
  1 33  1  0
  2  3  2  0
  2 30  1  0
  3  4  1  0
  3 34  1  0
  4  5  2  0
  4 35  1  0
  5  6  1  0
  5 36  1  0
  6  7  1  0
  6 30  2  0
  7  8  1  0
  7 28  1  0
  8  9  2  0
  8 10  1  0
 10 11  1  0
 10 19  2  0
 11 12  2  0
 11 17  1  0
 12 13  1  0
 12 37  1  0
 13 14  2  0
 13 38  1  0
 14 15  1  0
 14 16  1  0
 16 17  2  0
 16 39  1  0
 17 18  1  0
 19 20  1  0
 19 28  1  0
 20 21  1  0
 20 27  1  0
 21 22  1  0
 21 40  1  0
 21 41  1  0
 22 23  1  0
 22 42  1  0
 22 43  1  0
 23 24  1  0
 23 44  1  0
 23 45  1  0
 24 25  1  0
 24 27  1  0
 24 46  1  1
 25 26  1  0
 25 47  1  0
 25 48  1  0
 26 49  1  0
 27 50  1  0
 27 51  1  0
 28 29  2  0
 30 52  1  0
M  END

