
     RDKit          3D

 52 57  0  0  0  0  0  0  0  0999 V2000
   -4.3439    1.1652    1.8944 C   0  0  0  0  0  0  0  0  0  0  0  0
   -2.9365    0.7674    1.5268 C   0  0  0  0  0  0  0  0  0  0  0  0
   -1.9165    1.6333    1.6926 C   0  0  0  0  0  0  0  0  0  0  0  0
   -0.5163    1.3244    1.2929 C   0  0  2  0  0  0  0  0  0  0  0  0
    0.2015    1.7651    2.0031 H   0  0  0  0  0  0  0  0  0  0  0  0
   -0.1119    1.6025   -0.1797 C   0  0  1  0  0  0  0  0  0  0  0  0
   -1.0222    1.3386   -0.7531 H   0  0  0  0  0  0  0  0  0  0  0  0
    0.5324    2.7437   -0.8973 C   0  0  0  0  0  0  0  0  0  0  0  0
    1.1431    2.3936   -2.0477 C   0  0  0  0  0  0  0  0  0  0  0  0
    1.1961    0.9928   -2.5172 C   0  0  0  0  0  0  0  0  0  0  0  0
    1.5188    0.7120   -3.8553 C   0  0  0  0  0  0  0  0  0  0  0  0
    1.5779   -0.6006   -4.3282 C   0  0  0  0  0  0  0  0  0  0  0  0
    1.3317   -1.6643   -3.4585 C   0  0  0  0  0  0  0  0  0  0  0  0
    1.0297   -1.4116   -2.1149 C   0  0  0  0  0  0  0  0  0  0  0  0
    0.9380   -0.1040   -1.6369 C   0  0  0  0  0  0  0  0  0  0  0  0
    0.7249    0.3128   -0.1973 C   0  0  1  0  0  0  0  0  0  0  0  0
    2.1224    0.4081    0.4773 C   0  0  0  0  0  0  0  0  0  0  0  0
    3.1128    0.9200    0.0101 O   0  0  0  0  0  0  0  0  0  0  0  0
    2.0907   -0.2655    1.6980 N   0  0  0  0  0  0  0  0  0  0  0  0
    3.2641   -0.4742    2.5694 C   0  0  1  0  0  0  0  0  0  0  0  0
    4.3358   -1.3153    1.8685 C   0  0  0  0  0  0  0  0  0  0  0  0
    3.8029    0.8571    3.1037 C   0  0  0  0  0  0  0  0  0  0  0  0
    0.8219   -0.7321    2.0487 C   0  0  0  0  0  0  0  0  0  0  0  0
    0.5773   -1.3891    3.0324 O   0  0  0  0  0  0  0  0  0  0  0  0
   -0.1654   -0.2049    1.0138 C   0  0  1  0  0  0  0  0  0  0  0  0
   -1.3701   -1.0895    0.8067 C   0  0  0  0  0  0  0  0  0  0  0  0
   -1.1827   -2.4316    0.4548 C   0  0  0  0  0  0  0  0  0  0  0  0
   -2.2608   -3.2915    0.2393 C   0  0  0  0  0  0  0  0  0  0  0  0
   -3.5605   -2.8074    0.3913 C   0  0  0  0  0  0  0  0  0  0  0  0
   -3.7641   -1.4854    0.7859 C   0  0  0  0  0  0  0  0  0  0  0  0
   -2.6881   -0.6048    1.0147 C   0  0  0  0  0  0  0  0  0  0  0  0
   -4.3680    2.1877    2.2971 H   0  0  0  0  0  0  0  0  0  0  0  0
   -4.7736    0.4900    2.6532 H   0  0  0  0  0  0  0  0  0  0  0  0
   -5.0167    1.1332    1.0206 H   0  0  0  0  0  0  0  0  0  0  0  0
   -2.1138    2.6267    2.1084 H   0  0  0  0  0  0  0  0  0  0  0  0
    0.4596    3.7829   -0.5665 H   0  0  0  0  0  0  0  0  0  0  0  0
    1.5971    3.1500   -2.6943 H   0  0  0  0  0  0  0  0  0  0  0  0
    1.7222    1.5436   -4.5357 H   0  0  0  0  0  0  0  0  0  0  0  0
    1.8225   -0.7920   -5.3761 H   0  0  0  0  0  0  0  0  0  0  0  0
    1.3814   -2.6947   -3.8192 H   0  0  0  0  0  0  0  0  0  0  0  0
    0.8612   -2.2493   -1.4379 H   0  0  0  0  0  0  0  0  0  0  0  0
    2.8558   -1.0547    3.4103 H   0  0  0  0  0  0  0  0  0  0  0  0
    4.7564   -0.7830    1.0034 H   0  0  0  0  0  0  0  0  0  0  0  0
    3.9194   -2.2745    1.5237 H   0  0  0  0  0  0  0  0  0  0  0  0
    5.1524   -1.5358    2.5736 H   0  0  0  0  0  0  0  0  0  0  0  0
    4.1945    1.4814    2.2879 H   0  0  0  0  0  0  0  0  0  0  0  0
    4.6177    0.6675    3.8199 H   0  0  0  0  0  0  0  0  0  0  0  0
    3.0156    1.4179    3.6317 H   0  0  0  0  0  0  0  0  0  0  0  0
   -0.1665   -2.8209    0.3625 H   0  0  0  0  0  0  0  0  0  0  0  0
   -2.0837   -4.3327   -0.0408 H   0  0  0  0  0  0  0  0  0  0  0  0
   -4.4186   -3.4623    0.2208 H   0  0  0  0  0  0  0  0  0  0  0  0
   -4.7864   -1.1334    0.9266 H   0  0  0  0  0  0  0  0  0  0  0  0
  1  2  1  0
  1 32  1  0
  1 33  1  0
  1 34  1  0
  2  3  2  0
  2 31  1  0
  3  4  1  0
  3 35  1  0
  4  5  1  1
  4  6  1  0
  4 25  1  0
  6  7  1  6
  6  8  1  0
  6 16  1  0
  8  9  2  0
  8 36  1  0
  9 10  1  0
  9 37  1  0
 10 11  2  0
 10 15  1  0
 11 12  1  0
 11 38  1  0
 12 13  2  0
 12 39  1  0
 13 14  1  0
 13 40  1  0
 14 15  2  0
 14 41  1  0
 15 16  1  0
 16 17  1  1
 16 25  1  0
 17 18  2  0
 17 19  1  0
 19 20  1  0
 19 23  1  0
 20 21  1  0
 20 22  1  0
 20 42  1  1
 21 43  1  0
 21 44  1  0
 21 45  1  0
 22 46  1  0
 22 47  1  0
 22 48  1  0
 23 24  2  0
 25 23  1  1
 25 26  1  0
 26 27  1  0
 26 31  2  0
 27 28  2  0
 27 49  1  0
 28 29  1  0
 28 50  1  0
 29 30  2  0
 29 51  1  0
 30 31  1  0
 30 52  1  0
M  END

