
     RDKit          3D

 34 34  0  0  0  0  0  0  0  0999 V2000
    3.1780    3.7725   -0.4176 C   0  0  0  0  0  0  0  0  0  0  0  0
    4.0489    2.7418   -0.0277 O   0  0  0  0  0  0  0  0  0  0  0  0
    3.3938    1.5858    0.4368 C   0  0  0  0  0  0  0  0  0  0  0  0
    4.4259    0.5457    0.8472 C   0  0  0  0  0  0  0  0  0  0  0  0
    5.2006    0.9306    2.0253 N   0  0  0  0  0  0  0  0  0  0  0  0
    6.8487    1.2907    1.8905 S   0  0  1  0  0  0  0  0  0  0  0  0
    7.4315    0.8814    3.1739 O   0  0  0  0  0  0  0  0  0  0  0  0
    7.3631    0.7741    0.6179 O   0  0  0  0  0  0  0  0  0  0  0  0
    6.8512    3.1141    1.7982 C   0  0  0  0  0  0  0  0  0  0  0  0
    8.2336    3.6501    1.5701 C   0  0  0  0  0  0  0  0  0  0  0  0
    8.6712    3.9890    0.2773 C   0  0  0  0  0  0  0  0  0  0  0  0
    9.9608    4.4574    0.0569 C   0  0  0  0  0  0  0  0  0  0  0  0
   10.8596    4.5896    1.1304 C   0  0  0  0  0  0  0  0  0  0  0  0
   12.0953    5.0560    0.8213 O   0  0  0  0  0  0  0  0  0  0  0  0
   13.0573    5.1947    1.8420 C   0  0  0  0  0  0  0  0  0  0  0  0
   10.4413    4.2424    2.4246 C   0  0  0  0  0  0  0  0  0  0  0  0
    9.1402    3.7747    2.6301 C   0  0  0  0  0  0  0  0  0  0  0  0
    3.7896    4.6205   -0.7584 H   0  0  0  0  0  0  0  0  0  0  0  0
    2.5363    4.1125    0.4201 H   0  0  0  0  0  0  0  0  0  0  0  0
    2.5156    3.4590   -1.2494 H   0  0  0  0  0  0  0  0  0  0  0  0
    2.7495    1.1578   -0.3608 H   0  0  0  0  0  0  0  0  0  0  0  0
    2.7362    1.8294    1.2976 H   0  0  0  0  0  0  0  0  0  0  0  0
    5.1135    0.3649    0.0052 H   0  0  0  0  0  0  0  0  0  0  0  0
    3.9070   -0.4054    1.0499 H   0  0  0  0  0  0  0  0  0  0  0  0
    5.0723    0.3708    2.8649 H   0  0  0  0  0  0  0  0  0  0  0  0
    6.4143    3.4319    2.7554 H   0  0  0  0  0  0  0  0  0  0  0  0
    6.1491    3.3450    0.9856 H   0  0  0  0  0  0  0  0  0  0  0  0
    7.9883    3.8775   -0.5688 H   0  0  0  0  0  0  0  0  0  0  0  0
   10.3051    4.7261   -0.9436 H   0  0  0  0  0  0  0  0  0  0  0  0
   13.9701    5.5735    1.3627 H   0  0  0  0  0  0  0  0  0  0  0  0
   13.2838    4.2287    2.3285 H   0  0  0  0  0  0  0  0  0  0  0  0
   12.7359    5.9145    2.6167 H   0  0  0  0  0  0  0  0  0  0  0  0
   11.1165    4.3276    3.2761 H   0  0  0  0  0  0  0  0  0  0  0  0
    8.8310    3.4892    3.6386 H   0  0  0  0  0  0  0  0  0  0  0  0
  1  2  1  0
  1 18  1  0
  1 19  1  0
  1 20  1  0
  2  3  1  0
  3  4  1  0
  3 21  1  0
  3 22  1  0
  4  5  1  0
  4 23  1  0
  4 24  1  0
  6  5  1  1
  5 25  1  0
  6  7  2  0
  6  8  2  0
  6  9  1  0
  9 10  1  0
  9 26  1  0
  9 27  1  0
 10 11  2  0
 10 17  1  0
 11 12  1  0
 11 28  1  0
 12 13  2  0
 12 29  1  0
 13 14  1  0
 13 16  1  0
 14 15  1  0
 15 30  1  0
 15 31  1  0
 15 32  1  0
 16 17  2  0
 16 33  1  0
 17 34  1  0
M  END

