
     RDKit          3D

 40 41  0  0  0  0  0  0  0  0999 V2000
    1.0701   -0.0595    0.3357 C   0  0  0  0  0  0  0  0  0  0  0  0
    2.6044   -0.0583    0.1844 C   0  0  1  0  0  0  0  0  0  0  0  0
    3.2259    0.3446    1.5322 C   0  0  0  0  0  0  0  0  0  0  0  0
    3.1225   -1.4604   -0.2197 C   0  0  0  0  0  0  0  0  0  0  0  0
    2.7725   -1.8818   -1.6543 C   0  0  0  0  0  0  0  0  0  0  0  0
    3.2103   -0.8560   -2.7215 C   0  0  2  0  0  0  0  0  0  0  0  0
    2.6411   -1.2172   -4.1363 C   0  0  0  0  0  0  0  0  0  0  0  0
    3.0124   -2.5720   -4.7029 C   0  0  0  0  0  0  0  0  0  0  0  0
    4.2926   -2.7681   -5.2567 C   0  0  0  0  0  0  0  0  0  0  0  0
    4.6911   -3.9919   -5.7922 C   0  0  0  0  0  0  0  0  0  0  0  0
    3.8022   -5.0694   -5.7972 C   0  0  0  0  0  0  0  0  0  0  0  0
    2.5191   -4.9083   -5.2742 C   0  0  0  0  0  0  0  0  0  0  0  0
    2.1365   -3.6738   -4.7382 C   0  0  0  0  0  0  0  0  0  0  0  0
    0.3339   -3.5484   -4.0842 Br  0  0  0  0  0  0  0  0  0  0  0  0
    4.7530   -0.8330   -2.8074 C   0  0  0  0  0  0  0  0  0  0  0  0
    5.4800   -1.6411   -2.2983 O   0  0  0  0  0  0  0  0  0  0  0  0
    5.2910    0.1615   -3.5610 O   0  0  0  0  0  0  0  0  0  0  0  0
    2.6606    0.5385   -2.3224 C   0  0  0  0  0  0  0  0  0  0  0  0
    3.0475    0.9559   -0.8995 C   0  0  0  0  0  0  0  0  0  0  0  0
    0.7608   -0.7618    1.1269 H   0  0  0  0  0  0  0  0  0  0  0  0
    0.5471   -0.3581   -0.5856 H   0  0  0  0  0  0  0  0  0  0  0  0
    0.7012    0.9411    0.6163 H   0  0  0  0  0  0  0  0  0  0  0  0
    2.9458   -0.3681    2.3253 H   0  0  0  0  0  0  0  0  0  0  0  0
    2.8852    1.3455    1.8461 H   0  0  0  0  0  0  0  0  0  0  0  0
    4.3264    0.3653    1.4745 H   0  0  0  0  0  0  0  0  0  0  0  0
    2.7254   -2.2131    0.4833 H   0  0  0  0  0  0  0  0  0  0  0  0
    4.2178   -1.4808   -0.1055 H   0  0  0  0  0  0  0  0  0  0  0  0
    1.6855   -2.0291   -1.7532 H   0  0  0  0  0  0  0  0  0  0  0  0
    3.2422   -2.8521   -1.8705 H   0  0  0  0  0  0  0  0  0  0  0  0
    2.9681   -0.4436   -4.8527 H   0  0  0  0  0  0  0  0  0  0  0  0
    1.5474   -1.1321   -4.0756 H   0  0  0  0  0  0  0  0  0  0  0  0
    4.9918   -1.9286   -5.2706 H   0  0  0  0  0  0  0  0  0  0  0  0
    5.6957   -4.1014   -6.2068 H   0  0  0  0  0  0  0  0  0  0  0  0
    4.0994   -6.0349   -6.2137 H   0  0  0  0  0  0  0  0  0  0  0  0
    1.8083   -5.7360   -5.2828 H   0  0  0  0  0  0  0  0  0  0  0  0
    4.5980    0.7574   -3.8794 H   0  0  0  0  0  0  0  0  0  0  0  0
    1.5631    0.5035   -2.4206 H   0  0  0  0  0  0  0  0  0  0  0  0
    2.9798    1.3166   -3.0415 H   0  0  0  0  0  0  0  0  0  0  0  0
    2.6191    1.9487   -0.6777 H   0  0  0  0  0  0  0  0  0  0  0  0
    4.1443    1.0775   -0.8437 H   0  0  0  0  0  0  0  0  0  0  0  0
  2  1  1  1
  1 20  1  0
  1 21  1  0
  1 22  1  0
  2  3  1  0
  2  4  1  0
  2 19  1  0
  3 23  1  0
  3 24  1  0
  3 25  1  0
  4  5  1  0
  4 26  1  0
  4 27  1  0
  5  6  1  0
  5 28  1  0
  5 29  1  0
  6  7  1  0
  6 15  1  6
  6 18  1  0
  7  8  1  0
  7 30  1  0
  7 31  1  0
  8  9  2  0
  8 13  1  0
  9 10  1  0
  9 32  1  0
 10 11  2  0
 10 33  1  0
 11 12  1  0
 11 34  1  0
 12 13  2  0
 12 35  1  0
 13 14  1  0
 15 16  2  0
 15 17  1  0
 17 36  1  0
 18 19  1  0
 18 37  1  0
 18 38  1  0
 19 39  1  0
 19 40  1  0
M  END

