
     RDKit          3D

 43 45  0  0  0  0  0  0  0  0999 V2000
    1.7890   -0.9800    0.9274 C   0  0  0  0  0  0  0  0  0  0  0  0
    3.2263   -1.1604    1.3848 C   0  0  0  0  0  0  0  0  0  0  0  0
    3.7122    0.0045    2.0822 O   0  0  0  0  0  0  0  0  0  0  0  0
    4.2792    0.9823    1.3560 C   0  0  0  0  0  0  0  0  0  0  0  0
    4.3389    0.9712    0.1464 O   0  0  0  0  0  0  0  0  0  0  0  0
    4.8045    2.0764    2.2390 C   0  0  0  0  0  0  0  0  0  0  0  0
    5.7369    1.7534    3.3012 C   0  0  0  0  0  0  0  0  0  0  0  0
    6.3588    0.4055    3.4585 C   0  0  0  0  0  0  0  0  0  0  0  0
    6.5505   -0.1302    4.7424 C   0  0  0  0  0  0  0  0  0  0  0  0
    7.1744   -1.3668    4.9148 C   0  0  0  0  0  0  0  0  0  0  0  0
    7.6220   -2.0756    3.8044 C   0  0  0  0  0  0  0  0  0  0  0  0
    8.2211   -3.2606    3.9469 F   0  0  0  0  0  0  0  0  0  0  0  0
    7.4479   -1.5451    2.5224 C   0  0  0  0  0  0  0  0  0  0  0  0
    7.8978   -2.2304    1.4667 F   0  0  0  0  0  0  0  0  0  0  0  0
    6.8248   -0.3157    2.3454 C   0  0  0  0  0  0  0  0  0  0  0  0
    6.1454    2.6352    4.1810 N   0  0  0  0  0  0  0  0  0  0  0  0
    5.6742    3.8813    4.0587 N   0  0  0  0  0  0  0  0  0  0  0  0
    6.0018    4.9085    4.8930 C   0  0  0  0  0  0  0  0  0  0  0  0
    5.3679    6.0530    4.4215 C   0  0  0  0  0  0  0  0  0  0  0  0
    4.6362    5.7137    3.2650 C   0  0  0  0  0  0  0  0  0  0  0  0
    4.8225    4.3441    3.0303 C   0  0  0  0  0  0  0  0  0  0  0  0
    4.3607    3.3874    2.0822 C   0  0  0  0  0  0  0  0  0  0  0  0
    3.3901    3.8041    0.9826 C   0  0  1  0  0  0  0  0  0  0  0  0
    2.0597    4.3451    1.5388 C   0  0  0  0  0  0  0  0  0  0  0  0
    4.0501    4.7723   -0.0178 C   0  0  0  0  0  0  0  0  0  0  0  0
    1.4202   -1.9166    0.4793 H   0  0  0  0  0  0  0  0  0  0  0  0
    1.7148   -0.1871    0.1685 H   0  0  0  0  0  0  0  0  0  0  0  0
    1.1347   -0.7240    1.7752 H   0  0  0  0  0  0  0  0  0  0  0  0
    3.8888   -1.3673    0.5317 H   0  0  0  0  0  0  0  0  0  0  0  0
    3.3140   -1.9767    2.1161 H   0  0  0  0  0  0  0  0  0  0  0  0
    6.2057    0.4338    5.6095 H   0  0  0  0  0  0  0  0  0  0  0  0
    7.3223   -1.7999    5.9061 H   0  0  0  0  0  0  0  0  0  0  0  0
    6.7346    0.0680    1.3274 H   0  0  0  0  0  0  0  0  0  0  0  0
    6.6625    4.7340    5.7377 H   0  0  0  0  0  0  0  0  0  0  0  0
    5.4353    7.0402    4.8749 H   0  0  0  0  0  0  0  0  0  0  0  0
    4.0374    6.3910    2.6640 H   0  0  0  0  0  0  0  0  0  0  0  0
    3.1508    2.9019    0.4079 H   0  0  0  0  0  0  0  0  0  0  0  0
    2.1781    5.2933    2.0822 H   0  0  0  0  0  0  0  0  0  0  0  0
    1.5930    3.6227    2.2269 H   0  0  0  0  0  0  0  0  0  0  0  0
    1.3563    4.5205    0.7090 H   0  0  0  0  0  0  0  0  0  0  0  0
    4.3388    5.7270    0.4461 H   0  0  0  0  0  0  0  0  0  0  0  0
    3.3504    4.9932   -0.8398 H   0  0  0  0  0  0  0  0  0  0  0  0
    4.9522    4.3201   -0.4571 H   0  0  0  0  0  0  0  0  0  0  0  0
  1  2  1  0
  1 26  1  0
  1 27  1  0
  1 28  1  0
  2  3  1  0
  2 29  1  0
  2 30  1  0
  3  4  1  0
  4  5  2  0
  4  6  1  0
  6  7  1  0
  6 22  2  0
  7  8  1  0
  7 16  2  0
  8  9  2  0
  8 15  1  0
  9 10  1  0
  9 31  1  0
 10 11  2  0
 10 32  1  0
 11 12  1  0
 11 13  1  0
 13 14  1  0
 13 15  2  0
 15 33  1  0
 16 17  1  0
 17 18  1  0
 17 21  1  0
 18 19  2  0
 18 34  1  0
 19 20  1  0
 19 35  1  0
 20 21  2  0
 20 36  1  0
 21 22  1  0
 22 23  1  0
 23 24  1  0
 23 25  1  0
 23 37  1  6
 24 38  1  0
 24 39  1  0
 24 40  1  0
 25 41  1  0
 25 42  1  0
 25 43  1  0
M  END

