
     RDKit          3D

 47 49  0  0  0  0  0  0  0  0999 V2000
   -2.8780    0.1717    0.8904 C   0  0  0  0  0  0  0  0  0  0  0  0
   -3.2043   -0.2440    2.2869 C   0  0  0  0  0  0  0  0  0  0  0  0
   -3.3823    0.6034    3.2940 N   0  0  0  0  0  0  0  0  0  0  0  0
   -3.6749   -0.1502    4.3797 C   0  0  0  0  0  0  0  0  0  0  0  0
   -3.6733   -1.4885    4.0302 C   0  0  0  0  0  0  0  0  0  0  0  0
   -3.9194   -2.6114    4.8758 N   0  0  0  0  0  0  0  0  0  0  0  0
   -4.2371   -2.3698    6.0312 O   0  0  0  0  0  0  0  0  0  0  0  0
   -3.7972   -3.7409    4.4029 O   0  0  0  0  0  0  0  0  0  0  0  0
   -3.3708   -1.5478    2.6745 N   0  0  0  0  0  0  0  0  0  0  0  0
   -3.2506   -2.7155    1.8022 C   0  0  0  0  0  0  0  0  0  0  0  0
   -1.8721   -3.3646    1.8807 C   0  0  0  0  0  0  0  0  0  0  0  0
   -1.9045   -4.4257    0.9315 O   0  0  0  0  0  0  0  0  0  0  0  0
   -0.7555   -5.0960    0.7267 C   0  0  0  0  0  0  0  0  0  0  0  0
    0.2684   -4.8163    1.3088 O   0  0  0  0  0  0  0  0  0  0  0  0
   -0.8785   -6.2380   -0.2311 C   0  0  0  0  0  0  0  0  0  0  0  0
    0.1628   -7.1792   -0.1835 C   0  0  0  0  0  0  0  0  0  0  0  0
    0.1596   -8.3206   -0.9817 C   0  0  0  0  0  0  0  0  0  0  0  0
   -0.9073   -8.5281   -1.8579 C   0  0  0  0  0  0  0  0  0  0  0  0
   -1.9475   -7.6010   -1.9458 C   0  0  0  0  0  0  0  0  0  0  0  0
   -1.9450   -6.4425   -1.1482 C   0  0  0  0  0  0  0  0  0  0  0  0
   -2.9028   -5.4922   -1.2390 O   0  0  0  0  0  0  0  0  0  0  0  0
   -4.0540   -5.7169   -2.0423 C   0  0  0  0  0  0  0  0  0  0  0  0
   -4.9414   -4.5059   -1.9502 C   0  0  0  0  0  0  0  0  0  0  0  0
   -5.0468   -3.5782   -2.9937 C   0  0  0  0  0  0  0  0  0  0  0  0
   -4.3519   -3.8001   -4.1186 F   0  0  0  0  0  0  0  0  0  0  0  0
   -5.8504   -2.4421   -2.9193 C   0  0  0  0  0  0  0  0  0  0  0  0
   -6.5749   -2.2102   -1.7480 C   0  0  0  0  0  0  0  0  0  0  0  0
   -6.4971   -3.1010   -0.6730 C   0  0  0  0  0  0  0  0  0  0  0  0
   -5.6812   -4.2227   -0.7945 C   0  0  0  0  0  0  0  0  0  0  0  0
   -5.6004   -5.0773    0.2334 F   0  0  0  0  0  0  0  0  0  0  0  0
   -2.7710    1.2634    0.8811 H   0  0  0  0  0  0  0  0  0  0  0  0
   -3.6749   -0.1072    0.1808 H   0  0  0  0  0  0  0  0  0  0  0  0
   -1.9383   -0.2771    0.5306 H   0  0  0  0  0  0  0  0  0  0  0  0
   -3.8718    0.2644    5.3662 H   0  0  0  0  0  0  0  0  0  0  0  0
   -3.4401   -2.3850    0.7726 H   0  0  0  0  0  0  0  0  0  0  0  0
   -4.0168   -3.4506    2.0709 H   0  0  0  0  0  0  0  0  0  0  0  0
   -1.6810   -3.7599    2.8898 H   0  0  0  0  0  0  0  0  0  0  0  0
   -1.0670   -2.6535    1.6334 H   0  0  0  0  0  0  0  0  0  0  0  0
    0.9769   -6.9852    0.5172 H   0  0  0  0  0  0  0  0  0  0  0  0
    0.9767   -9.0420   -0.9172 H   0  0  0  0  0  0  0  0  0  0  0  0
   -0.9355   -9.4194   -2.4903 H   0  0  0  0  0  0  0  0  0  0  0  0
   -2.7581   -7.7816   -2.6506 H   0  0  0  0  0  0  0  0  0  0  0  0
   -4.5915   -6.6108   -1.6798 H   0  0  0  0  0  0  0  0  0  0  0  0
   -3.7705   -5.8825   -3.0936 H   0  0  0  0  0  0  0  0  0  0  0  0
   -5.8943   -1.7635   -3.7723 H   0  0  0  0  0  0  0  0  0  0  0  0
   -7.2129   -1.3267   -1.6728 H   0  0  0  0  0  0  0  0  0  0  0  0
   -7.0575   -2.9452    0.2501 H   0  0  0  0  0  0  0  0  0  0  0  0
  1  2  1  0
  1 31  1  0
  1 32  1  0
  1 33  1  0
  2  3  2  0
  2  9  1  0
  3  4  1  0
  4  5  2  0
  4 34  1  0
  5  6  1  0
  5  9  1  0
  6  7  2  0
  6  8  1  0
  9 10  1  0
 10 11  1  0
 10 35  1  0
 10 36  1  0
 11 12  1  0
 11 37  1  0
 11 38  1  0
 12 13  1  0
 13 14  2  0
 13 15  1  0
 15 16  2  0
 15 20  1  0
 16 17  1  0
 16 39  1  0
 17 18  2  0
 17 40  1  0
 18 19  1  0
 18 41  1  0
 19 20  2  0
 19 42  1  0
 20 21  1  0
 21 22  1  0
 22 23  1  0
 22 43  1  0
 22 44  1  0
 23 24  2  0
 23 29  1  0
 24 25  1  0
 24 26  1  0
 26 27  2  0
 26 45  1  0
 27 28  1  0
 27 46  1  0
 28 29  2  0
 28 47  1  0
 29 30  1  0
M  CHG  2   6   1   8  -1
M  END

