
     RDKit          3D

 39 41  0  0  0  0  0  0  0  0999 V2000
    1.1814   -0.3186    0.1147 O   0  0  0  0  0  0  0  0  0  0  0  0
    2.3939   -0.2068    0.1260 C   0  0  0  0  0  0  0  0  0  0  0  0
    3.1295    0.2892    1.3561 C   0  0  0  0  0  0  0  0  0  0  0  0
    2.2647    1.1648    2.2789 C   0  0  0  0  0  0  0  0  0  0  0  0
    2.9694    1.5499    3.5616 C   0  0  0  0  0  0  0  0  0  0  0  0
    3.7455    2.7189    3.6365 C   0  0  0  0  0  0  0  0  0  0  0  0
    4.4425    3.0802    4.7971 C   0  0  0  0  0  0  0  0  0  0  0  0
    4.3440    2.2337    5.8984 C   0  0  0  0  0  0  0  0  0  0  0  0
    3.5742    1.0637    5.8593 C   0  0  0  0  0  0  0  0  0  0  0  0
    2.8865    0.7226    4.7001 C   0  0  0  0  0  0  0  0  0  0  0  0
    3.6283    0.4376    7.2354 C   0  0  0  0  0  0  0  0  0  0  0  0
    4.7738    1.2459    7.8890 C   0  0  0  0  0  0  0  0  0  0  0  0
    4.9443    2.4407    7.1003 O   0  0  0  0  0  0  0  0  0  0  0  0
    3.1663   -0.5765   -1.1502 C   0  0  1  0  0  0  0  0  0  0  0  0
    2.2713   -1.2095   -2.0346 O   0  0  0  0  0  0  0  0  0  0  0  0
    3.7651    0.6823   -1.8414 C   0  0  0  0  0  0  0  0  0  0  0  0
    4.7858    0.0664   -2.8049 C   0  0  0  0  0  0  0  0  0  0  0  0
    5.4813   -1.0110   -1.9506 C   0  0  0  0  0  0  0  0  0  0  0  0
    4.4076   -1.4927   -0.9357 C   0  0  0  0  0  0  0  0  0  0  0  0
    4.0587    0.8070    1.0707 H   0  0  0  0  0  0  0  0  0  0  0  0
    3.4584   -0.6126    1.9059 H   0  0  0  0  0  0  0  0  0  0  0  0
    1.3347    0.6193    2.4982 H   0  0  0  0  0  0  0  0  0  0  0  0
    1.9635    2.0712    1.7283 H   0  0  0  0  0  0  0  0  0  0  0  0
    3.8070    3.3722    2.7608 H   0  0  0  0  0  0  0  0  0  0  0  0
    5.0408    3.9917    4.8465 H   0  0  0  0  0  0  0  0  0  0  0  0
    2.2719   -0.1827    4.6687 H   0  0  0  0  0  0  0  0  0  0  0  0
    3.8403   -0.6427    7.2226 H   0  0  0  0  0  0  0  0  0  0  0  0
    2.6718    0.5776    7.7695 H   0  0  0  0  0  0  0  0  0  0  0  0
    5.7235    0.6818    7.8694 H   0  0  0  0  0  0  0  0  0  0  0  0
    4.5710    1.5486    8.9261 H   0  0  0  0  0  0  0  0  0  0  0  0
    1.3874   -1.0534   -1.6514 H   0  0  0  0  0  0  0  0  0  0  0  0
    4.2760    1.3325   -1.1100 H   0  0  0  0  0  0  0  0  0  0  0  0
    2.9729    1.2668   -2.3323 H   0  0  0  0  0  0  0  0  0  0  0  0
    5.4852    0.8045   -3.2275 H   0  0  0  0  0  0  0  0  0  0  0  0
    4.2423   -0.4030   -3.6393 H   0  0  0  0  0  0  0  0  0  0  0  0
    6.3386   -0.5712   -1.4144 H   0  0  0  0  0  0  0  0  0  0  0  0
    5.8789   -1.8361   -2.5605 H   0  0  0  0  0  0  0  0  0  0  0  0
    4.7885   -1.4399    0.0949 H   0  0  0  0  0  0  0  0  0  0  0  0
    4.0829   -2.5267   -1.1165 H   0  0  0  0  0  0  0  0  0  0  0  0
  1  2  2  0
  2  3  1  0
  2 14  1  0
  3  4  1  0
  3 20  1  0
  3 21  1  0
  4  5  1  0
  4 22  1  0
  4 23  1  0
  5  6  2  0
  5 10  1  0
  6  7  1  0
  6 24  1  0
  7  8  2  0
  7 25  1  0
  8  9  1  0
  8 13  1  0
  9 10  2  0
  9 11  1  0
 10 26  1  0
 11 12  1  0
 11 27  1  0
 11 28  1  0
 12 13  1  0
 12 29  1  0
 12 30  1  0
 14 15  1  6
 14 16  1  0
 14 19  1  0
 15 31  1  0
 16 17  1  0
 16 32  1  0
 16 33  1  0
 17 18  1  0
 17 34  1  0
 17 35  1  0
 18 19  1  0
 18 36  1  0
 18 37  1  0
 19 38  1  0
 19 39  1  0
M  END

