
     RDKit          3D

 47 47  0  0  0  0  0  0  0  0999 V2000
    5.7598   -0.5639    2.4772 C   0  0  0  0  0  0  0  0  0  0  0  0
    4.9457   -0.2890    1.2129 C   0  0  0  0  0  0  0  0  0  0  0  0
    5.0074   -1.3594    0.2135 N   0  0  0  0  0  0  0  0  0  0  0  0
    4.6088   -2.6747    0.7333 C   0  0  0  0  0  0  0  0  0  0  0  0
    3.1351   -2.8542    1.1288 C   0  0  0  0  0  0  0  0  0  0  0  0
    4.4232   -1.0309   -1.1062 C   0  0  1  0  0  0  0  0  0  0  0  0
    4.7772    0.3832   -1.5859 C   0  0  0  0  0  0  0  0  0  0  0  0
    4.8869   -2.0649   -2.1544 C   0  0  0  0  0  0  0  0  0  0  0  0
    6.3281   -2.1984   -2.1431 N   0  0  0  0  0  0  0  0  0  0  0  0
    7.0714   -2.3071   -3.2861 C   0  0  0  0  0  0  0  0  0  0  0  0
    6.5590   -2.3329   -4.3981 O   0  0  0  0  0  0  0  0  0  0  0  0
    8.5630   -2.3827   -3.1027 C   0  0  0  0  0  0  0  0  0  0  0  0
    9.3663   -2.1177   -4.2108 C   0  0  0  0  0  0  0  0  0  0  0  0
   10.7614   -2.1649   -4.1080 C   0  0  0  0  0  0  0  0  0  0  0  0
   11.3764   -2.4927   -2.8966 C   0  0  0  0  0  0  0  0  0  0  0  0
   12.7116   -2.5678   -2.6975 O   0  0  0  0  0  0  0  0  0  0  0  0
   13.5811   -2.3058   -3.7747 C   0  0  0  0  0  0  0  0  0  0  0  0
   10.5653   -2.7856   -1.7631 C   0  0  0  0  0  0  0  0  0  0  0  0
   11.2367   -3.1169   -0.6325 O   0  0  0  0  0  0  0  0  0  0  0  0
   10.5071   -3.4267    0.5294 C   0  0  0  0  0  0  0  0  0  0  0  0
    9.1775   -2.7270   -1.8796 C   0  0  0  0  0  0  0  0  0  0  0  0
    5.8087    0.3499    3.0900 H   0  0  0  0  0  0  0  0  0  0  0  0
    6.7904   -0.8575    2.2196 H   0  0  0  0  0  0  0  0  0  0  0  0
    5.3266   -1.3537    3.1096 H   0  0  0  0  0  0  0  0  0  0  0  0
    5.3520    0.6218    0.7557 H   0  0  0  0  0  0  0  0  0  0  0  0
    3.8987   -0.0420    1.5022 H   0  0  0  0  0  0  0  0  0  0  0  0
    5.2409   -2.8961    1.6066 H   0  0  0  0  0  0  0  0  0  0  0  0
    4.8770   -3.4390   -0.0115 H   0  0  0  0  0  0  0  0  0  0  0  0
    2.8288   -2.1487    1.9178 H   0  0  0  0  0  0  0  0  0  0  0  0
    2.9732   -3.8727    1.5172 H   0  0  0  0  0  0  0  0  0  0  0  0
    2.4530   -2.7175    0.2749 H   0  0  0  0  0  0  0  0  0  0  0  0
    3.3132   -1.0926   -1.0757 H   0  0  0  0  0  0  0  0  0  0  0  0
    5.8664    0.5466   -1.5909 H   0  0  0  0  0  0  0  0  0  0  0  0
    4.3093    1.1682   -0.9756 H   0  0  0  0  0  0  0  0  0  0  0  0
    4.4149    0.5141   -2.6162 H   0  0  0  0  0  0  0  0  0  0  0  0
    4.5802   -1.7483   -3.1614 H   0  0  0  0  0  0  0  0  0  0  0  0
    4.3993   -3.0411   -1.9802 H   0  0  0  0  0  0  0  0  0  0  0  0
    6.7705   -2.0082   -1.2498 H   0  0  0  0  0  0  0  0  0  0  0  0
    8.8820   -1.8739   -5.1575 H   0  0  0  0  0  0  0  0  0  0  0  0
   11.3684   -1.9453   -4.9866 H   0  0  0  0  0  0  0  0  0  0  0  0
   14.6021   -2.4257   -3.3878 H   0  0  0  0  0  0  0  0  0  0  0  0
   13.4625   -1.2764   -4.1590 H   0  0  0  0  0  0  0  0  0  0  0  0
   13.4286   -3.0145   -4.6089 H   0  0  0  0  0  0  0  0  0  0  0  0
   11.2442   -3.6542    1.3114 H   0  0  0  0  0  0  0  0  0  0  0  0
    9.8555   -4.3086    0.3864 H   0  0  0  0  0  0  0  0  0  0  0  0
    9.8821   -2.5779    0.8644 H   0  0  0  0  0  0  0  0  0  0  0  0
    8.5626   -2.9869   -1.0186 H   0  0  0  0  0  0  0  0  0  0  0  0
  1  2  1  0
  1 22  1  0
  1 23  1  0
  1 24  1  0
  2  3  1  0
  2 25  1  0
  2 26  1  0
  3  4  1  0
  3  6  1  0
  4  5  1  0
  4 27  1  0
  4 28  1  0
  5 29  1  0
  5 30  1  0
  5 31  1  0
  6  7  1  0
  6  8  1  0
  6 32  1  1
  7 33  1  0
  7 34  1  0
  7 35  1  0
  8  9  1  0
  8 36  1  0
  8 37  1  0
  9 10  1  0
  9 38  1  0
 10 11  2  0
 10 12  1  0
 12 13  2  0
 12 21  1  0
 13 14  1  0
 13 39  1  0
 14 15  2  0
 14 40  1  0
 15 16  1  0
 15 18  1  0
 16 17  1  0
 17 41  1  0
 17 42  1  0
 17 43  1  0
 18 19  1  0
 18 21  2  0
 19 20  1  0
 20 44  1  0
 20 45  1  0
 20 46  1  0
 21 47  1  0
M  END

