
     RDKit          3D

 27 28  0  0  0  0  0  0  0  0999 V2000
    1.0404    0.2747   -0.4378 C   0  0  0  0  0  0  0  0  0  0  0  0
    2.4467    0.7534   -0.1207 C   0  0  0  0  0  0  0  0  0  0  0  0
    2.6401    1.6336    0.7092 O   0  0  0  0  0  0  0  0  0  0  0  0
    3.4395    0.1382   -0.8274 N   0  0  0  0  0  0  0  0  0  0  0  0
    4.8224    0.3863   -0.8336 C   0  0  0  0  0  0  0  0  0  0  0  0
    5.5338   -0.1655   -1.8520 N   0  0  0  0  0  0  0  0  0  0  0  0
    6.7947    0.1947   -1.6450 C   0  0  0  0  0  0  0  0  0  0  0  0
    7.9849   -0.0945   -2.3526 C   0  0  0  0  0  0  0  0  0  0  0  0
    9.1792    0.4356   -1.9182 C   0  0  0  0  0  0  0  0  0  0  0  0
    9.2444    1.2840   -0.7641 C   0  0  0  0  0  0  0  0  0  0  0  0
   10.5595    1.8753   -0.3245 C   0  0  0  0  0  0  0  0  0  0  0  0
    8.0846    1.5482   -0.0775 C   0  0  0  0  0  0  0  0  0  0  0  0
    6.8964    1.0030   -0.5022 N   0  0  0  0  0  0  0  0  0  0  0  0
    5.6299    1.1157    0.0461 C   0  0  0  0  0  0  0  0  0  0  0  0
    5.4180    1.8929    1.1838 N   0  0  0  0  0  0  0  0  0  0  0  0
    0.5463   -0.0074    0.5038 H   0  0  0  0  0  0  0  0  0  0  0  0
    1.0009   -0.5729   -1.1367 H   0  0  0  0  0  0  0  0  0  0  0  0
    0.4708    1.1171   -0.8604 H   0  0  0  0  0  0  0  0  0  0  0  0
    3.1760   -0.5332   -1.5409 H   0  0  0  0  0  0  0  0  0  0  0  0
    7.9172   -0.7328   -3.2346 H   0  0  0  0  0  0  0  0  0  0  0  0
   10.1009    0.2133   -2.4621 H   0  0  0  0  0  0  0  0  0  0  0  0
   11.2948    1.0860   -0.0938 H   0  0  0  0  0  0  0  0  0  0  0  0
   10.4444    2.5013    0.5726 H   0  0  0  0  0  0  0  0  0  0  0  0
   11.0001    2.5020   -1.1184 H   0  0  0  0  0  0  0  0  0  0  0  0
    8.0180    2.1937    0.7992 H   0  0  0  0  0  0  0  0  0  0  0  0
    5.7435    1.4317    2.0364 H   0  0  0  0  0  0  0  0  0  0  0  0
    4.4149    2.0820    1.2724 H   0  0  0  0  0  0  0  0  0  0  0  0
  1  2  1  0
  1 16  1  0
  1 17  1  0
  1 18  1  0
  2  3  2  0
  2  4  1  0
  4  5  1  0
  4 19  1  0
  5  6  1  0
  5 14  2  0
  6  7  2  0
  7  8  1  0
  7 13  1  0
  8  9  2  0
  8 20  1  0
  9 10  1  0
  9 21  1  0
 10 11  1  0
 10 12  2  0
 11 22  1  0
 11 23  1  0
 11 24  1  0
 12 13  1  0
 12 25  1  0
 13 14  1  0
 14 15  1  0
 15 26  1  0
 15 27  1  0
M  END

