
     RDKit          3D

 38 40  0  0  0  0  0  0  0  0999 V2000
    2.0403    1.1056   -3.3686 C   0  0  0  0  0  0  0  0  0  0  0  0
    2.6947    1.7609   -2.1729 C   0  0  1  0  0  0  0  0  0  0  0  0
    2.3037    1.3854   -0.7720 C   0  0  0  0  0  0  0  0  0  0  0  0
    3.6715    0.9900   -1.3148 C   0  0  2  0  0  0  0  0  0  0  0  0
    4.9030    1.6415   -0.8003 C   0  0  0  0  0  0  0  0  0  0  0  0
    5.0362    2.9615   -0.8154 N   0  0  0  0  0  0  0  0  0  0  0  0
    6.2678    3.2135   -0.3032 N   0  0  0  0  0  0  0  0  0  0  0  0
    6.7362    4.5711   -0.1605 C   0  0  0  0  0  0  0  0  0  0  0  0
    6.9170    2.0742    0.0525 C   0  0  0  0  0  0  0  0  0  0  0  0
    8.2054    2.0993    0.5756 N   0  0  0  0  0  0  0  0  0  0  0  0
    6.0675    1.0042   -0.2579 C   0  0  0  0  0  0  0  0  0  0  0  0
    6.3401   -0.4248   -0.0390 C   0  0  0  0  0  0  0  0  0  0  0  0
    5.3604   -1.2897    0.4970 C   0  0  0  0  0  0  0  0  0  0  0  0
    5.6215   -2.6404    0.7100 C   0  0  0  0  0  0  0  0  0  0  0  0
    6.8844   -3.1641    0.4123 C   0  0  0  0  0  0  0  0  0  0  0  0
    7.0764   -4.5070    0.6819 O   0  0  0  0  0  0  0  0  0  0  0  0
    7.9227   -5.2299   -0.1064 C   0  0  1  0  0  0  0  0  0  0  0  0
    9.2156   -5.0557    0.2793 F   0  0  0  0  0  0  0  0  0  0  0  0
    7.6247   -6.5229    0.0699 F   0  0  0  0  0  0  0  0  0  0  0  0
    7.8847   -2.3326   -0.1002 C   0  0  0  0  0  0  0  0  0  0  0  0
    7.5989   -0.9838   -0.3359 C   0  0  0  0  0  0  0  0  0  0  0  0
    1.0930    1.6070   -3.6301 H   0  0  0  0  0  0  0  0  0  0  0  0
    1.8098    0.0459   -3.1695 H   0  0  0  0  0  0  0  0  0  0  0  0
    2.6944    1.1437   -4.2556 H   0  0  0  0  0  0  0  0  0  0  0  0
    2.9692    2.8122   -2.3081 H   0  0  0  0  0  0  0  0  0  0  0  0
    1.5606    0.5928   -0.6336 H   0  0  0  0  0  0  0  0  0  0  0  0
    2.2856    2.1728   -0.0135 H   0  0  0  0  0  0  0  0  0  0  0  0
    3.7976   -0.0690   -1.5581 H   0  0  0  0  0  0  0  0  0  0  0  0
    6.2023    5.1904   -0.8922 H   0  0  0  0  0  0  0  0  0  0  0  0
    7.8168    4.6179   -0.3653 H   0  0  0  0  0  0  0  0  0  0  0  0
    6.5428    4.9767    0.8491 H   0  0  0  0  0  0  0  0  0  0  0  0
    8.3545    2.8058    1.2927 H   0  0  0  0  0  0  0  0  0  0  0  0
    8.5036    1.1892    0.9158 H   0  0  0  0  0  0  0  0  0  0  0  0
    4.3801   -0.8882    0.7610 H   0  0  0  0  0  0  0  0  0  0  0  0
    4.8602   -3.3070    1.1201 H   0  0  0  0  0  0  0  0  0  0  0  0
    7.8449   -4.9618   -1.1765 H   0  0  0  0  0  0  0  0  0  0  0  0
    8.8808   -2.7255   -0.3073 H   0  0  0  0  0  0  0  0  0  0  0  0
    8.3742   -0.3550   -0.7816 H   0  0  0  0  0  0  0  0  0  0  0  0
  1  2  1  0
  1 22  1  0
  1 23  1  0
  1 24  1  0
  2  3  1  0
  2  4  1  0
  2 25  1  6
  3  4  1  0
  3 26  1  0
  3 27  1  0
  4  5  1  0
  4 28  1  6
  5  6  2  0
  5 11  1  0
  6  7  1  0
  7  8  1  0
  7  9  1  0
  8 29  1  0
  8 30  1  0
  8 31  1  0
  9 10  1  0
  9 11  2  0
 10 32  1  0
 10 33  1  0
 11 12  1  0
 12 13  2  0
 12 21  1  0
 13 14  1  0
 13 34  1  0
 14 15  2  0
 14 35  1  0
 15 16  1  0
 15 20  1  0
 16 17  1  0
 17 18  1  0
 17 19  1  0
 17 36  1  6
 20 21  2  0
 20 37  1  0
 21 38  1  0
M  END

