
     RDKit          3D

 27 28  0  0  0  0  0  0  0  0999 V2000
    2.1344    0.1035   -3.0707 O   0  0  0  0  0  0  0  0  0  0  0  0
    3.3412   -0.6267   -2.9387 C   0  0  0  0  0  0  0  0  0  0  0  0
    4.4376    0.1863   -3.6228 C   0  0  0  0  0  0  0  0  0  0  0  0
    4.6131    1.5358   -3.0966 N   0  0  0  0  0  0  0  0  0  0  0  0
    5.3006    1.6407   -1.8138 C   0  0  0  0  0  0  0  0  0  0  0  0
    6.7883    1.5031   -1.9770 C   0  0  0  0  0  0  0  0  0  0  0  0
    7.7469    0.9630   -1.1439 C   0  0  0  0  0  0  0  0  0  0  0  0
    9.0173    1.1575   -1.7863 C   0  0  0  0  0  0  0  0  0  0  0  0
   10.3616    0.8627   -1.5114 C   0  0  0  0  0  0  0  0  0  0  0  0
   11.3131    1.2334   -2.4615 C   0  0  0  0  0  0  0  0  0  0  0  0
   10.9108    1.8786   -3.6493 C   0  0  0  0  0  0  0  0  0  0  0  0
    9.6443    2.1759   -3.9453 N   0  0  0  0  0  0  0  0  0  0  0  0
    8.7529    1.8206   -3.0270 C   0  0  0  0  0  0  0  0  0  0  0  0
    7.3956    2.0192   -3.1022 N   0  0  0  0  0  0  0  0  0  0  0  0
    6.8812    2.4032   -3.8867 H   0  0  0  0  0  0  0  0  0  0  0  0
    1.4379   -0.3495   -2.5806 H   0  0  0  0  0  0  0  0  0  0  0  0
    3.2760   -1.6241   -3.4193 H   0  0  0  0  0  0  0  0  0  0  0  0
    3.5950   -0.7967   -1.8724 H   0  0  0  0  0  0  0  0  0  0  0  0
    4.1833    0.2624   -4.6943 H   0  0  0  0  0  0  0  0  0  0  0  0
    5.3948   -0.3572   -3.5585 H   0  0  0  0  0  0  0  0  0  0  0  0
    3.7005    1.9849   -3.0471 H   0  0  0  0  0  0  0  0  0  0  0  0
    4.9658    0.9161   -1.0427 H   0  0  0  0  0  0  0  0  0  0  0  0
    5.0760    2.6426   -1.4052 H   0  0  0  0  0  0  0  0  0  0  0  0
    7.5583    0.4900   -0.1818 H   0  0  0  0  0  0  0  0  0  0  0  0
   10.6560    0.3595   -0.5863 H   0  0  0  0  0  0  0  0  0  0  0  0
   12.3735    1.0283   -2.2974 H   0  0  0  0  0  0  0  0  0  0  0  0
   11.6646    2.1647   -4.3920 H   0  0  0  0  0  0  0  0  0  0  0  0
  1  2  1  0
  1 16  1  0
  2  3  1  0
  2 17  1  0
  2 18  1  0
  3  4  1  0
  3 19  1  0
  3 20  1  0
  4  5  1  0
  4 21  1  0
  5  6  1  0
  5 22  1  0
  5 23  1  0
  6  7  2  0
  6 14  1  0
  7  8  1  0
  7 24  1  0
  8  9  2  0
  8 13  1  0
  9 10  1  0
  9 25  1  0
 10 11  2  0
 10 26  1  0
 11 12  1  0
 11 27  1  0
 12 13  2  0
 13 14  1  0
 14 15  1  0
M  END

