
     RDKit          3D

 39 42  0  0  0  0  0  0  0  0999 V2000
    1.1109    0.4640   -0.5091 C   0  0  0  0  0  0  0  0  0  0  0  0
    2.2727    0.1085    0.2048 O   0  0  0  0  0  0  0  0  0  0  0  0
    2.9797    1.0742    0.8454 C   0  0  0  0  0  0  0  0  0  0  0  0
    2.6382    2.4349    0.8632 C   0  0  0  0  0  0  0  0  0  0  0  0
    3.4354    3.3502    1.5551 C   0  0  0  0  0  0  0  0  0  0  0  0
    4.5805    2.9233    2.2367 C   0  0  0  0  0  0  0  0  0  0  0  0
    5.3742    3.8840    2.9342 N   0  0  0  0  0  0  0  0  0  0  0  0
    5.0030    5.1915    2.9200 N   0  0  0  0  0  0  0  0  0  0  0  0
    5.8844    5.8688    3.6258 C   0  0  0  0  0  0  0  0  0  0  0  0
    6.8902    5.0009    4.1385 C   0  0  0  0  0  0  0  0  0  0  0  0
    8.0703    5.0603    4.9318 C   0  0  0  0  0  0  0  0  0  0  0  0
    8.4988    6.2604    5.4257 N   0  0  0  0  0  0  0  0  0  0  0  0
    9.6038    6.5874    6.2233 C   0  0  0  0  0  0  0  0  0  0  0  0
   10.5732    5.6931    6.7090 C   0  0  0  0  0  0  0  0  0  0  0  0
   11.6316    6.1523    7.4982 C   0  0  0  0  0  0  0  0  0  0  0  0
   11.7302    7.5051    7.8080 C   0  0  0  0  0  0  0  0  0  0  0  0
   12.7450    7.9435    8.5647 F   0  0  0  0  0  0  0  0  0  0  0  0
   10.7893    8.4249    7.3455 C   0  0  0  0  0  0  0  0  0  0  0  0
    9.7490    7.9462    6.5649 C   0  0  0  0  0  0  0  0  0  0  0  0
    8.8199    8.8093    6.1001 F   0  0  0  0  0  0  0  0  0  0  0  0
    8.7430    3.9347    5.1808 N   0  0  0  0  0  0  0  0  0  0  0  0
    8.2803    2.7799    4.6701 C   0  0  0  0  0  0  0  0  0  0  0  0
    7.2051    2.5888    3.9207 N   0  0  0  0  0  0  0  0  0  0  0  0
    6.5253    3.7190    3.6687 C   0  0  0  0  0  0  0  0  0  0  0  0
    4.9266    1.5608    2.2218 C   0  0  0  0  0  0  0  0  0  0  0  0
    4.1307    0.6531    1.5321 C   0  0  0  0  0  0  0  0  0  0  0  0
    0.7135   -0.4634   -0.9433 H   0  0  0  0  0  0  0  0  0  0  0  0
    1.3304    1.1751   -1.3263 H   0  0  0  0  0  0  0  0  0  0  0  0
    0.3418    0.9076    0.1492 H   0  0  0  0  0  0  0  0  0  0  0  0
    1.7529    2.8008    0.3430 H   0  0  0  0  0  0  0  0  0  0  0  0
    3.1724    4.4068    1.5704 H   0  0  0  0  0  0  0  0  0  0  0  0
    5.7652    6.9469    3.7391 H   0  0  0  0  0  0  0  0  0  0  0  0
    7.9232    7.0589    5.1856 H   0  0  0  0  0  0  0  0  0  0  0  0
   10.4775    4.6403    6.4554 H   0  0  0  0  0  0  0  0  0  0  0  0
   12.3857    5.4605    7.8772 H   0  0  0  0  0  0  0  0  0  0  0  0
   10.8626    9.4860    7.5854 H   0  0  0  0  0  0  0  0  0  0  0  0
    8.8733    1.8887    4.9074 H   0  0  0  0  0  0  0  0  0  0  0  0
    5.8163    1.2242    2.7509 H   0  0  0  0  0  0  0  0  0  0  0  0
    4.3875   -0.4079    1.5120 H   0  0  0  0  0  0  0  0  0  0  0  0
  1  2  1  0
  1 27  1  0
  1 28  1  0
  1 29  1  0
  2  3  1  0
  3  4  2  0
  3 26  1  0
  4  5  1  0
  4 30  1  0
  5  6  2  0
  5 31  1  0
  6  7  1  0
  6 25  1  0
  7  8  1  0
  7 24  1  0
  8  9  2  0
  9 10  1  0
  9 32  1  0
 10 11  1  0
 10 24  2  0
 11 12  1  0
 11 21  2  0
 12 13  1  0
 12 33  1  0
 13 14  2  0
 13 19  1  0
 14 15  1  0
 14 34  1  0
 15 16  2  0
 15 35  1  0
 16 17  1  0
 16 18  1  0
 18 19  2  0
 18 36  1  0
 19 20  1  0
 21 22  1  0
 22 23  2  0
 22 37  1  0
 23 24  1  0
 25 26  2  0
 25 38  1  0
 26 39  1  0
M  END

