
     RDKit          3D

 87 97  0  0  0  0  0  0  0  0999 V2000
    1.7582    0.6965    0.5143 C   0  0  0  0  0  0  0  0  0  0  0  0
    2.9069    0.5236   -0.4500 C   0  0  0  0  0  0  0  0  0  0  0  0
    3.5078    1.6796   -0.9681 C   0  0  0  0  0  0  0  0  0  0  0  0
    4.5741    1.6402   -1.8716 C   0  0  0  0  0  0  0  0  0  0  0  0
    5.1286    2.8665   -2.3425 N   0  0  0  0  0  0  0  0  0  0  0  0
    4.5287    3.7334   -3.2574 C   0  0  0  0  0  0  0  0  0  0  0  0
    3.3025    3.6114   -3.9223 C   0  0  0  0  0  0  0  0  0  0  0  0
    2.9396    4.6281   -4.8067 C   0  0  0  0  0  0  0  0  0  0  0  0
    3.7756    5.7394   -5.0289 C   0  0  0  0  0  0  0  0  0  0  0  0
    4.9981    5.8534   -4.3681 C   0  0  0  0  0  0  0  0  0  0  0  0
    5.3887    4.8464   -3.4724 C   0  0  0  0  0  0  0  0  0  0  0  0
    6.5559    4.6378   -2.6387 C   0  0  0  0  0  0  0  0  0  0  0  0
    7.7296    5.3787   -2.4054 C   0  0  0  0  0  0  0  0  0  0  0  0
    8.6618    4.8837   -1.5042 C   0  0  0  0  0  0  0  0  0  0  0  0
    8.4391    3.6595   -0.8232 C   0  0  0  0  0  0  0  0  0  0  0  0
    7.2890    2.9087   -1.0341 C   0  0  0  0  0  0  0  0  0  0  0  0
    6.3544    3.4085   -1.9562 C   0  0  0  0  0  0  0  0  0  0  0  0
    9.5810    3.3007    0.1305 C   0  0  2  0  0  0  0  0  0  0  0  0
    9.7279    4.4909    1.0799 C   0  0  0  0  0  0  0  0  0  0  0  0
    9.6598    4.4638    2.4702 C   0  0  0  0  0  0  0  0  0  0  0  0
    9.8168    5.6575    3.1915 C   0  0  0  0  0  0  0  0  0  0  0  0
   10.0392    6.8618    2.5205 C   0  0  0  0  0  0  0  0  0  0  0  0
   10.1077    6.8893    1.1189 C   0  0  0  0  0  0  0  0  0  0  0  0
    9.9519    5.7056    0.4027 C   0  0  0  0  0  0  0  0  0  0  0  0
    9.9906    5.5380   -1.1169 C   0  0  1  0  0  0  0  0  0  0  0  0
   11.0735    4.4957   -1.3991 C   0  0  0  0  0  0  0  0  0  0  0  0
   12.1868    4.6462   -2.2214 C   0  0  0  0  0  0  0  0  0  0  0  0
   13.0842    3.5773   -2.3705 C   0  0  0  0  0  0  0  0  0  0  0  0
   12.8628    2.3728   -1.6996 C   0  0  0  0  0  0  0  0  0  0  0  0
   11.7407    2.2202   -0.8705 C   0  0  0  0  0  0  0  0  0  0  0  0
   10.8504    3.2804   -0.7226 C   0  0  0  0  0  0  0  0  0  0  0  0
    5.0826    0.4054   -2.3213 C   0  0  0  0  0  0  0  0  0  0  0  0
    6.2065    0.3260   -3.3228 C   0  0  0  0  0  0  0  0  0  0  0  0
    4.4818   -0.7480   -1.8112 C   0  0  0  0  0  0  0  0  0  0  0  0
    3.4229   -0.7255   -0.8841 C   0  0  0  0  0  0  0  0  0  0  0  0
    2.9016   -2.0459   -0.4254 C   0  0  0  0  0  0  0  0  0  0  0  0
    3.1416   -3.1062   -1.2118 N   0  0  0  0  0  0  0  0  0  0  0  0
    2.6840   -4.2874   -0.7828 C   0  0  0  0  0  0  0  0  0  0  0  0
    2.9168   -5.4822   -1.6350 C   0  0  0  0  0  0  0  0  0  0  0  0
    3.5350   -5.3506   -2.8912 C   0  0  0  0  0  0  0  0  0  0  0  0
    3.7518   -6.4727   -3.6910 C   0  0  0  0  0  0  0  0  0  0  0  0
    3.3565   -7.7393   -3.2467 C   0  0  0  0  0  0  0  0  0  0  0  0
    2.7405   -7.8785   -1.9982 C   0  0  0  0  0  0  0  0  0  0  0  0
    2.5199   -6.7579   -1.1970 C   0  0  0  0  0  0  0  0  0  0  0  0
    2.0241   -4.4516    0.3720 N   0  0  0  0  0  0  0  0  0  0  0  0
    1.8306   -3.3503    1.1054 C   0  0  0  0  0  0  0  0  0  0  0  0
    1.1124   -3.4871    2.3992 C   0  0  0  0  0  0  0  0  0  0  0  0
    0.6122   -4.7369    2.8061 C   0  0  0  0  0  0  0  0  0  0  0  0
   -0.0621   -4.8656    4.0204 C   0  0  0  0  0  0  0  0  0  0  0  0
   -0.2442   -3.7498    4.8448 C   0  0  0  0  0  0  0  0  0  0  0  0
    0.2514   -2.5030    4.4482 C   0  0  0  0  0  0  0  0  0  0  0  0
    0.9250   -2.3711    3.2337 C   0  0  0  0  0  0  0  0  0  0  0  0
    2.2497   -2.1285    0.7401 N   0  0  0  0  0  0  0  0  0  0  0  0
    1.4052    1.7382    0.4979 H   0  0  0  0  0  0  0  0  0  0  0  0
    2.0613    0.4511    1.5432 H   0  0  0  0  0  0  0  0  0  0  0  0
    0.9134    0.0345    0.2792 H   0  0  0  0  0  0  0  0  0  0  0  0
    3.1365    2.6585   -0.6564 H   0  0  0  0  0  0  0  0  0  0  0  0
    2.6525    2.7507   -3.7538 H   0  0  0  0  0  0  0  0  0  0  0  0
    1.9865    4.5580   -5.3374 H   0  0  0  0  0  0  0  0  0  0  0  0
    3.4612    6.5182   -5.7279 H   0  0  0  0  0  0  0  0  0  0  0  0
    5.6451    6.7162   -4.5463 H   0  0  0  0  0  0  0  0  0  0  0  0
    7.9007    6.3271   -2.9219 H   0  0  0  0  0  0  0  0  0  0  0  0
    7.1139    1.9725   -0.4995 H   0  0  0  0  0  0  0  0  0  0  0  0
    9.4095    2.3542    0.6595 H   0  0  0  0  0  0  0  0  0  0  0  0
    9.4858    3.5210    2.9965 H   0  0  0  0  0  0  0  0  0  0  0  0
    9.7648    5.6424    4.2832 H   0  0  0  0  0  0  0  0  0  0  0  0
   10.1607    7.7882    3.0878 H   0  0  0  0  0  0  0  0  0  0  0  0
   10.2817    7.8331    0.5944 H   0  0  0  0  0  0  0  0  0  0  0  0
   10.1652    6.4851   -1.6442 H   0  0  0  0  0  0  0  0  0  0  0  0
   12.3613    5.5892   -2.7473 H   0  0  0  0  0  0  0  0  0  0  0  0
   13.9599    3.6902   -3.0148 H   0  0  0  0  0  0  0  0  0  0  0  0
   13.5658    1.5442   -1.8191 H   0  0  0  0  0  0  0  0  0  0  0  0
   11.5684    1.2768   -0.3448 H   0  0  0  0  0  0  0  0  0  0  0  0
    6.0219    0.9878   -4.1834 H   0  0  0  0  0  0  0  0  0  0  0  0
    6.3274   -0.7012   -3.6950 H   0  0  0  0  0  0  0  0  0  0  0  0
    7.1674    0.6423   -2.8840 H   0  0  0  0  0  0  0  0  0  0  0  0
    4.8382   -1.7233   -2.1438 H   0  0  0  0  0  0  0  0  0  0  0  0
    3.8347   -4.3574   -3.2270 H   0  0  0  0  0  0  0  0  0  0  0  0
    4.2307   -6.3600   -4.6669 H   0  0  0  0  0  0  0  0  0  0  0  0
    3.5278   -8.6180   -3.8741 H   0  0  0  0  0  0  0  0  0  0  0  0
    2.4306   -8.8663   -1.6480 H   0  0  0  0  0  0  0  0  0  0  0  0
    2.0406   -6.8528   -0.2224 H   0  0  0  0  0  0  0  0  0  0  0  0
    0.7603   -5.5984    2.1545 H   0  0  0  0  0  0  0  0  0  0  0  0
   -0.4482   -5.8411    4.3266 H   0  0  0  0  0  0  0  0  0  0  0  0
   -0.7721   -3.8520    5.7966 H   0  0  0  0  0  0  0  0  0  0  0  0
    0.1124   -1.6293    5.0899 H   0  0  0  0  0  0  0  0  0  0  0  0
    1.3168   -1.4052    2.9151 H   0  0  0  0  0  0  0  0  0  0  0  0
  1  2  1  0
  1 54  1  0
  1 55  1  0
  1 56  1  0
  2  3  2  0
  2 35  1  0
  3  4  1  0
  3 57  1  0
  4  5  1  0
  4 32  2  0
  5  6  1  0
  5 17  1  0
  6  7  2  0
  6 11  1  0
  7  8  1  0
  7 58  1  0
  8  9  2  0
  8 59  1  0
  9 10  1  0
  9 60  1  0
 10 11  2  0
 10 61  1  0
 11 12  1  0
 12 13  1  0
 12 17  2  0
 13 14  2  0
 13 62  1  0
 14 15  1  0
 14 25  1  0
 15 16  2  0
 15 18  1  0
 16 17  1  0
 16 63  1  0
 18 19  1  0
 18 31  1  0
 18 64  1  1
 19 20  1  0
 19 24  2  0
 20 21  2  0
 20 65  1  0
 21 22  1  0
 21 66  1  0
 22 23  2  0
 22 67  1  0
 23 24  1  0
 23 68  1  0
 24 25  1  0
 25 26  1  0
 25 69  1  6
 26 27  2  0
 26 31  1  0
 27 28  1  0
 27 70  1  0
 28 29  2  0
 28 71  1  0
 29 30  1  0
 29 72  1  0
 30 31  2  0
 30 73  1  0
 32 33  1  0
 32 34  1  0
 33 74  1  0
 33 75  1  0
 33 76  1  0
 34 35  2  0
 34 77  1  0
 35 36  1  0
 36 37  2  0
 36 53  1  0
 37 38  1  0
 38 39  1  0
 38 45  2  0
 39 40  2  0
 39 44  1  0
 40 41  1  0
 40 78  1  0
 41 42  2  0
 41 79  1  0
 42 43  1  0
 42 80  1  0
 43 44  2  0
 43 81  1  0
 44 82  1  0
 45 46  1  0
 46 47  1  0
 46 53  2  0
 47 48  2  0
 47 52  1  0
 48 49  1  0
 48 83  1  0
 49 50  2  0
 49 84  1  0
 50 51  1  0
 50 85  1  0
 51 52  2  0
 51 86  1  0
 52 87  1  0
M  END

