
     RDKit          3D

 44 44  0  0  0  0  0  0  0  0999 V2000
    0.9265   -0.6998   -0.4054 C   0  0  0  0  0  0  0  0  0  0  0  0
    2.4054   -0.4166   -0.1705 C   0  0  0  0  0  0  0  0  0  0  0  0
    2.9110   -1.1087    1.4402 S   0  0  1  0  0  0  0  0  0  0  0  0
    2.1910   -0.3580    2.4822 O   0  0  0  0  0  0  0  0  0  0  0  0
    2.7914   -2.5727    1.3424 O   0  0  0  0  0  0  0  0  0  0  0  0
    4.6607   -0.7027    1.5745 C   0  0  0  0  0  0  0  0  0  0  0  0
    5.0396    0.4874    2.1979 C   0  0  0  0  0  0  0  0  0  0  0  0
    6.3987    0.7931    2.3010 C   0  0  0  0  0  0  0  0  0  0  0  0
    7.3749   -0.0770    1.7913 C   0  0  0  0  0  0  0  0  0  0  0  0
    8.8471    0.2689    1.9052 C   0  0  0  0  0  0  0  0  0  0  0  0
    9.6448   -0.7730    2.6962 C   0  0  0  0  0  0  0  0  0  0  0  0
    9.7667   -1.9253    2.3087 O   0  0  0  0  0  0  0  0  0  0  0  0
   10.2201   -0.3192    3.8455 N   0  0  0  0  0  0  0  0  0  0  0  0
   10.8579   -1.2140    4.7898 C   0  0  1  0  0  0  0  0  0  0  0  0
   12.3869   -1.3356    4.6100 C   0  0  0  0  0  0  0  0  0  0  0  0
   12.8232   -1.9193    3.2716 C   0  0  0  0  0  0  0  0  0  0  0  0
   14.2212   -2.0656    3.3138 O   0  0  0  0  0  0  0  0  0  0  0  0
   14.7740   -2.5751    2.1291 C   0  0  0  0  0  0  0  0  0  0  0  0
   10.5280   -0.7016    6.2003 C   0  0  0  0  0  0  0  0  0  0  0  0
   10.0174    0.3673    6.4058 O   0  0  0  0  0  0  0  0  0  0  0  0
   10.8744   -1.5086    7.2160 O   0  0  0  0  0  0  0  0  0  0  0  0
    6.9674   -1.2779    1.1830 C   0  0  0  0  0  0  0  0  0  0  0  0
    5.6140   -1.5971    1.0778 C   0  0  0  0  0  0  0  0  0  0  0  0
    0.6129   -0.2865   -1.3764 H   0  0  0  0  0  0  0  0  0  0  0  0
    0.3146   -0.2407    0.3847 H   0  0  0  0  0  0  0  0  0  0  0  0
    0.7362   -1.7830   -0.4081 H   0  0  0  0  0  0  0  0  0  0  0  0
    2.6294    0.6597   -0.1249 H   0  0  0  0  0  0  0  0  0  0  0  0
    3.0528   -0.8896   -0.9242 H   0  0  0  0  0  0  0  0  0  0  0  0
    4.2763    1.1493    2.6115 H   0  0  0  0  0  0  0  0  0  0  0  0
    6.7028    1.7220    2.7913 H   0  0  0  0  0  0  0  0  0  0  0  0
    8.9686    1.2723    2.3386 H   0  0  0  0  0  0  0  0  0  0  0  0
    9.2983    0.2903    0.8989 H   0  0  0  0  0  0  0  0  0  0  0  0
    9.9599    0.5866    4.2284 H   0  0  0  0  0  0  0  0  0  0  0  0
   10.4082   -2.2153    4.6570 H   0  0  0  0  0  0  0  0  0  0  0  0
   12.8044   -1.9820    5.4012 H   0  0  0  0  0  0  0  0  0  0  0  0
   12.8516   -0.3445    4.7424 H   0  0  0  0  0  0  0  0  0  0  0  0
   12.5211   -1.2532    2.4389 H   0  0  0  0  0  0  0  0  0  0  0  0
   12.3215   -2.8914    3.0892 H   0  0  0  0  0  0  0  0  0  0  0  0
   15.8621   -2.6500    2.2707 H   0  0  0  0  0  0  0  0  0  0  0  0
   14.5758   -1.9151    1.2600 H   0  0  0  0  0  0  0  0  0  0  0  0
   14.3790   -3.5823    1.8852 H   0  0  0  0  0  0  0  0  0  0  0  0
   11.2538   -2.3381    6.8908 H   0  0  0  0  0  0  0  0  0  0  0  0
    7.7263   -1.9729    0.8194 H   0  0  0  0  0  0  0  0  0  0  0  0
    5.2897   -2.5393    0.6313 H   0  0  0  0  0  0  0  0  0  0  0  0
  1  2  1  0
  1 24  1  0
  1 25  1  0
  1 26  1  0
  3  2  1  6
  2 27  1  0
  2 28  1  0
  3  4  2  0
  3  5  2  0
  3  6  1  0
  6  7  2  0
  6 23  1  0
  7  8  1  0
  7 29  1  0
  8  9  2  0
  8 30  1  0
  9 10  1  0
  9 22  1  0
 10 11  1  0
 10 31  1  0
 10 32  1  0
 11 12  2  0
 11 13  1  0
 13 14  1  0
 13 33  1  0
 14 15  1  0
 14 19  1  0
 14 34  1  1
 15 16  1  0
 15 35  1  0
 15 36  1  0
 16 17  1  0
 16 37  1  0
 16 38  1  0
 17 18  1  0
 18 39  1  0
 18 40  1  0
 18 41  1  0
 19 20  2  0
 19 21  1  0
 21 42  1  0
 22 23  2  0
 22 43  1  0
 23 44  1  0
M  END

