
     RDKit          3D

 39 40  0  0  0  0  0  0  0  0999 V2000
    2.5187    0.2026    1.4155 C   0  0  0  0  0  0  0  0  0  0  0  0
    2.5244    0.0472   -0.1037 C   0  0  2  0  0  0  0  0  0  0  0  0
    1.4993    0.2868   -0.4493 H   0  0  0  0  0  0  0  0  0  0  0  0
    2.7856   -1.4207   -0.5231 C   0  0  2  0  0  0  0  0  0  0  0  0
    2.0702   -2.0566    0.0177 H   0  0  0  0  0  0  0  0  0  0  0  0
    4.1667   -1.9603   -0.1209 C   0  0  0  0  0  0  0  0  0  0  0  0
    4.3370   -3.0774    0.2858 O   0  0  0  0  0  0  0  0  0  0  0  0
    5.2025   -1.1126   -0.2990 O   0  0  0  0  0  0  0  0  0  0  0  0
    2.5482   -1.6001   -2.0388 C   0  0  0  0  0  0  0  0  0  0  0  0
    3.3451   -0.5811   -2.8553 C   0  0  0  0  0  0  0  0  0  0  0  0
    3.1370    0.8430   -2.3421 C   0  0  0  0  0  0  0  0  0  0  0  0
    3.4332    0.9544   -0.8903 N   0  0  0  0  0  0  0  0  0  0  0  0
    3.6807    2.2956   -0.4975 C   0  0  0  0  0  0  0  0  0  0  0  0
    3.4831    3.2125   -1.2719 O   0  0  0  0  0  0  0  0  0  0  0  0
    4.2994    2.5989    0.8421 C   0  0  0  0  0  0  0  0  0  0  0  0
    5.2993    1.8127    1.4360 C   0  0  0  0  0  0  0  0  0  0  0  0
    5.9144    2.2296    2.6192 C   0  0  0  0  0  0  0  0  0  0  0  0
    5.5272    3.4303    3.2263 C   0  0  0  0  0  0  0  0  0  0  0  0
    6.2769    3.9283    4.7798 S   0  0  0  0  0  0  0  0  0  0  0  0
    7.6016    5.0089    4.1236 C   0  0  1  0  0  0  0  0  0  0  0  0
    7.1213    6.0489    3.4313 F   0  0  0  0  0  0  0  0  0  0  0  0
    8.2903    5.4784    5.1661 F   0  0  0  0  0  0  0  0  0  0  0  0
    8.4450    4.3564    3.3172 F   0  0  0  0  0  0  0  0  0  0  0  0
    4.5323    4.2246    2.6370 C   0  0  0  0  0  0  0  0  0  0  0  0
    3.9408    3.8185    1.4432 C   0  0  0  0  0  0  0  0  0  0  0  0
    3.4785   -0.0622    1.8788 H   0  0  0  0  0  0  0  0  0  0  0  0
    1.7552   -0.4824    1.8144 H   0  0  0  0  0  0  0  0  0  0  0  0
    2.2515    1.2181    1.7359 H   0  0  0  0  0  0  0  0  0  0  0  0
    4.8499   -0.2466   -0.6083 H   0  0  0  0  0  0  0  0  0  0  0  0
    1.4695   -1.4603   -2.2285 H   0  0  0  0  0  0  0  0  0  0  0  0
    2.7919   -2.6314   -2.3382 H   0  0  0  0  0  0  0  0  0  0  0  0
    3.0414   -0.6177   -3.9140 H   0  0  0  0  0  0  0  0  0  0  0  0
    4.4191   -0.8307   -2.8339 H   0  0  0  0  0  0  0  0  0  0  0  0
    2.0970    1.1726   -2.5271 H   0  0  0  0  0  0  0  0  0  0  0  0
    3.7829    1.5515   -2.8735 H   0  0  0  0  0  0  0  0  0  0  0  0
    5.6218    0.8749    0.9835 H   0  0  0  0  0  0  0  0  0  0  0  0
    6.7022    1.6238    3.0705 H   0  0  0  0  0  0  0  0  0  0  0  0
    4.2381    5.1631    3.1102 H   0  0  0  0  0  0  0  0  0  0  0  0
    3.1921    4.4464    0.9570 H   0  0  0  0  0  0  0  0  0  0  0  0
  1  2  1  0
  1 26  1  0
  1 27  1  0
  1 28  1  0
  2  3  1  6
  2  4  1  0
  2 12  1  0
  4  5  1  1
  4  6  1  0
  4  9  1  0
  6  7  2  0
  6  8  1  0
  8 29  1  0
  9 10  1  0
  9 30  1  0
  9 31  1  0
 10 11  1  0
 10 32  1  0
 10 33  1  0
 11 12  1  0
 11 34  1  0
 11 35  1  0
 12 13  1  0
 13 14  2  0
 13 15  1  0
 15 16  2  0
 15 25  1  0
 16 17  1  0
 16 36  1  0
 17 18  2  0
 17 37  1  0
 18 19  1  0
 18 24  1  0
 19 20  1  0
 20 21  1  6
 20 22  1  0
 20 23  1  0
 24 25  2  0
 24 38  1  0
 25 39  1  0
M  END

