
     RDKit          3D

 70 73  0  0  0  0  0  0  0  0999 V2000
    3.3667    1.2325   -3.7197 C   0  0  0  0  0  0  0  0  0  0  0  0
    3.3631    0.6531   -2.5039 C   0  0  0  0  0  0  0  0  0  0  0  0
    4.1050   -0.5545   -2.1890 C   0  0  0  0  0  0  0  0  0  0  0  0
    4.1496   -1.2277   -0.9996 C   0  0  0  0  0  0  0  0  0  0  0  0
    3.3757   -0.7956    0.1715 C   0  0  0  0  0  0  0  0  0  0  0  0
    3.5222   -1.2295    1.4360 C   0  0  0  0  0  0  0  0  0  0  0  0
    5.0223   -2.4367   -0.8953 C   0  0  0  0  0  0  0  0  0  0  0  0
    6.3690   -2.3767   -1.2861 C   0  0  0  0  0  0  0  0  0  0  0  0
    7.1997   -3.5099   -1.2499 C   0  0  0  0  0  0  0  0  0  0  0  0
    8.6291   -3.4234   -1.6604 C   0  0  0  0  0  0  0  0  0  0  0  0
    9.3975   -2.2885   -1.3497 C   0  0  0  0  0  0  0  0  0  0  0  0
   10.7502   -2.1856   -1.7194 C   0  0  0  0  0  0  0  0  0  0  0  0
   11.5563   -0.9848   -1.3440 C   0  0  0  0  0  0  0  0  0  0  0  0
   10.8092    0.3270   -1.2587 C   0  0  0  0  0  0  0  0  0  0  0  0
   12.8756   -1.1061   -1.0792 C   0  0  0  0  0  0  0  0  0  0  0  0
   13.8552   -0.0362   -0.6994 C   0  0  0  0  0  0  0  0  0  0  0  0
   11.3146   -3.2466   -2.4503 C   0  0  0  0  0  0  0  0  0  0  0  0
   10.5773   -4.3940   -2.7810 C   0  0  0  0  0  0  0  0  0  0  0  0
   11.1968   -5.4972   -3.5664 C   0  0  0  0  0  0  0  0  0  0  0  0
   10.8983   -6.8436   -3.2829 C   0  0  0  0  0  0  0  0  0  0  0  0
   11.4788   -7.8800   -4.0171 C   0  0  0  0  0  0  0  0  0  0  0  0
   12.3720   -7.5948   -5.0541 C   0  0  0  0  0  0  0  0  0  0  0  0
   12.6785   -6.2630   -5.3489 C   0  0  0  0  0  0  0  0  0  0  0  0
   12.0979   -5.2273   -4.6138 C   0  0  0  0  0  0  0  0  0  0  0  0
    9.2347   -4.4702   -2.3729 C   0  0  0  0  0  0  0  0  0  0  0  0
    6.6469   -4.7258   -0.8120 C   0  0  0  0  0  0  0  0  0  0  0  0
    5.3048   -4.8192   -0.4135 C   0  0  0  0  0  0  0  0  0  0  0  0
    4.7365   -6.1295    0.0469 C   0  0  0  0  0  0  0  0  0  0  0  0
    4.8300   -6.4980    1.4091 C   0  0  0  0  0  0  0  0  0  0  0  0
    5.4905   -5.5877    2.4185 C   0  0  0  0  0  0  0  0  0  0  0  0
    4.2939   -7.7279    1.8186 C   0  0  0  0  0  0  0  0  0  0  0  0
    3.6762   -8.5808    0.9042 C   0  0  0  0  0  0  0  0  0  0  0  0
    3.5871   -8.2111   -0.4376 C   0  0  0  0  0  0  0  0  0  0  0  0
    4.1113   -6.9895   -0.8856 C   0  0  0  0  0  0  0  0  0  0  0  0
    4.0042   -6.6103   -2.3446 C   0  0  0  0  0  0  0  0  0  0  0  0
    4.5054   -3.6681   -0.4528 C   0  0  0  0  0  0  0  0  0  0  0  0
    2.7969    2.1429   -3.9205 H   0  0  0  0  0  0  0  0  0  0  0  0
    3.9429    0.8121   -4.5503 H   0  0  0  0  0  0  0  0  0  0  0  0
    2.7739    1.1218   -1.7096 H   0  0  0  0  0  0  0  0  0  0  0  0
    4.6907   -0.9675   -3.0176 H   0  0  0  0  0  0  0  0  0  0  0  0
    2.6178   -0.0290   -0.0133 H   0  0  0  0  0  0  0  0  0  0  0  0
    4.2653   -1.9810    1.7132 H   0  0  0  0  0  0  0  0  0  0  0  0
    2.8976   -0.8283    2.2383 H   0  0  0  0  0  0  0  0  0  0  0  0
    6.7736   -1.4246   -1.6354 H   0  0  0  0  0  0  0  0  0  0  0  0
    8.9363   -1.4890   -0.7688 H   0  0  0  0  0  0  0  0  0  0  0  0
   10.1670    0.4749   -2.1422 H   0  0  0  0  0  0  0  0  0  0  0  0
   11.4852    1.1882   -1.1817 H   0  0  0  0  0  0  0  0  0  0  0  0
   10.1463    0.3576   -0.3766 H   0  0  0  0  0  0  0  0  0  0  0  0
   13.3032   -2.1144   -1.1184 H   0  0  0  0  0  0  0  0  0  0  0  0
   13.4318    0.9774   -0.7195 H   0  0  0  0  0  0  0  0  0  0  0  0
   14.7289   -0.0508   -1.3749 H   0  0  0  0  0  0  0  0  0  0  0  0
   14.2526   -0.2118    0.3167 H   0  0  0  0  0  0  0  0  0  0  0  0
   12.3556   -3.1759   -2.7694 H   0  0  0  0  0  0  0  0  0  0  0  0
   10.2205   -7.0822   -2.4599 H   0  0  0  0  0  0  0  0  0  0  0  0
   11.2372   -8.9176   -3.7718 H   0  0  0  0  0  0  0  0  0  0  0  0
   12.8262   -8.4056   -5.6293 H   0  0  0  0  0  0  0  0  0  0  0  0
   13.3686   -6.0271   -6.1633 H   0  0  0  0  0  0  0  0  0  0  0  0
   12.3276   -4.1908   -4.8717 H   0  0  0  0  0  0  0  0  0  0  0  0
    8.6354   -5.3335   -2.6676 H   0  0  0  0  0  0  0  0  0  0  0  0
    7.2778   -5.6160   -0.7552 H   0  0  0  0  0  0  0  0  0  0  0  0
    6.5360   -5.3691    2.1484 H   0  0  0  0  0  0  0  0  0  0  0  0
    5.4850   -6.0391    3.4214 H   0  0  0  0  0  0  0  0  0  0  0  0
    4.9769   -4.6145    2.4820 H   0  0  0  0  0  0  0  0  0  0  0  0
    4.3643   -8.0160    2.8712 H   0  0  0  0  0  0  0  0  0  0  0  0
    3.2632   -9.5363    1.2383 H   0  0  0  0  0  0  0  0  0  0  0  0
    3.1034   -8.8789   -1.1559 H   0  0  0  0  0  0  0  0  0  0  0  0
    3.5025   -7.4001   -2.9227 H   0  0  0  0  0  0  0  0  0  0  0  0
    4.9957   -6.4370   -2.7931 H   0  0  0  0  0  0  0  0  0  0  0  0
    3.4365   -5.6757   -2.4810 H   0  0  0  0  0  0  0  0  0  0  0  0
    3.4577   -3.7356   -0.1517 H   0  0  0  0  0  0  0  0  0  0  0  0
  1  2  2  0
  1 37  1  0
  1 38  1  0
  2  3  1  0
  2 39  1  0
  3  4  2  0
  3 40  1  0
  4  5  1  0
  4  7  1  0
  5  6  2  0
  5 41  1  0
  6 42  1  0
  6 43  1  0
  7  8  2  0
  7 36  1  0
  8  9  1  0
  8 44  1  0
  9 10  1  0
  9 26  2  0
 10 11  2  0
 10 25  1  0
 11 12  1  0
 11 45  1  0
 12 13  1  0
 12 17  2  0
 13 14  1  0
 13 15  2  0
 14 46  1  0
 14 47  1  0
 14 48  1  0
 15 16  1  0
 15 49  1  0
 16 50  1  0
 16 51  1  0
 16 52  1  0
 17 18  1  0
 17 53  1  0
 18 19  1  0
 18 25  2  0
 19 20  2  0
 19 24  1  0
 20 21  1  0
 20 54  1  0
 21 22  2  0
 21 55  1  0
 22 23  1  0
 22 56  1  0
 23 24  2  0
 23 57  1  0
 24 58  1  0
 25 59  1  0
 26 27  1  0
 26 60  1  0
 27 28  1  0
 27 36  2  0
 28 29  2  0
 28 34  1  0
 29 30  1  0
 29 31  1  0
 30 61  1  0
 30 62  1  0
 30 63  1  0
 31 32  2  0
 31 64  1  0
 32 33  1  0
 32 65  1  0
 33 34  2  0
 33 66  1  0
 34 35  1  0
 35 67  1  0
 35 68  1  0
 35 69  1  0
 36 70  1  0
M  END

