
     RDKit          3D

 48 49  0  0  0  0  0  0  0  0999 V2000
    8.0955   -0.7118   -2.3764 C   0  0  0  0  0  0  0  0  0  0  0  0
    7.1919    0.0805   -1.5608 N   0  0  0  0  0  0  0  0  0  0  0  0
    7.8111    0.8870   -0.5281 C   0  0  0  0  0  0  0  0  0  0  0  0
    5.8374   -0.0665   -1.7363 C   0  0  0  0  0  0  0  0  0  0  0  0
    5.3701   -0.8160   -2.5843 O   0  0  0  0  0  0  0  0  0  0  0  0
    4.8826    0.7286   -0.8225 C   0  0  0  0  0  0  0  0  0  0  0  0
    4.9259    2.1651   -1.0597 N   0  0  0  0  0  0  0  0  0  0  0  0
    4.4607    2.4927   -2.4059 C   0  0  0  0  0  0  0  0  0  0  0  0
    4.9925    3.7961   -3.0187 C   0  0  0  0  0  0  0  0  0  0  0  0
    4.4357    5.0847   -2.4002 C   0  0  0  0  0  0  0  0  0  0  0  0
    5.0590    5.5033   -1.0565 C   0  0  0  0  0  0  0  0  0  0  0  0
    5.4732    4.3622   -0.1068 C   0  0  0  0  0  0  0  0  0  0  0  0
    4.4955    3.1556   -0.0267 C   0  0  2  0  0  0  0  0  0  0  0  0
    4.3168    2.5462    1.4001 C   0  0  1  0  0  0  0  0  0  0  0  0
    4.3045    3.5501    2.5785 C   0  0  0  0  0  0  0  0  0  0  0  0
    3.0273    4.3900    2.6493 C   0  0  0  0  0  0  0  0  0  0  0  0
    1.8761    3.5058    2.7664 N   0  0  0  0  0  0  0  0  0  0  0  0
    1.7557    2.5917    1.6395 C   0  0  0  0  0  0  0  0  0  0  0  0
    3.0087    1.7162    1.5163 C   0  0  0  0  0  0  0  0  0  0  0  0
    8.8088   -0.0609   -2.9123 H   0  0  0  0  0  0  0  0  0  0  0  0
    7.5036   -1.2821   -3.1013 H   0  0  0  0  0  0  0  0  0  0  0  0
    8.6783   -1.4144   -1.7527 H   0  0  0  0  0  0  0  0  0  0  0  0
    8.6792    1.4239   -0.9477 H   0  0  0  0  0  0  0  0  0  0  0  0
    8.1789    0.2694    0.3140 H   0  0  0  0  0  0  0  0  0  0  0  0
    7.1113    1.6409   -0.1560 H   0  0  0  0  0  0  0  0  0  0  0  0
    5.1389    0.5056    0.2209 H   0  0  0  0  0  0  0  0  0  0  0  0
    3.8937    0.2714   -1.0257 H   0  0  0  0  0  0  0  0  0  0  0  0
    3.3453    2.5237   -2.4383 H   0  0  0  0  0  0  0  0  0  0  0  0
    4.7497    1.6643   -3.0686 H   0  0  0  0  0  0  0  0  0  0  0  0
    4.7109    3.7741   -4.0857 H   0  0  0  0  0  0  0  0  0  0  0  0
    6.0963    3.7919   -2.9917 H   0  0  0  0  0  0  0  0  0  0  0  0
    3.3442    4.9600   -2.2841 H   0  0  0  0  0  0  0  0  0  0  0  0
    4.5579    5.9168   -3.1142 H   0  0  0  0  0  0  0  0  0  0  0  0
    4.3496    6.1728   -0.5387 H   0  0  0  0  0  0  0  0  0  0  0  0
    5.9557    6.1190   -1.2459 H   0  0  0  0  0  0  0  0  0  0  0  0
    5.6355    4.8126    0.8809 H   0  0  0  0  0  0  0  0  0  0  0  0
    6.4496    3.9608   -0.4173 H   0  0  0  0  0  0  0  0  0  0  0  0
    3.4925    3.5278   -0.3175 H   0  0  0  0  0  0  0  0  0  0  0  0
    5.1751    1.8795    1.5879 H   0  0  0  0  0  0  0  0  0  0  0  0
    5.1907    4.2002    2.5790 H   0  0  0  0  0  0  0  0  0  0  0  0
    4.3576    2.9584    3.5080 H   0  0  0  0  0  0  0  0  0  0  0  0
    2.9709    5.0631    1.7616 H   0  0  0  0  0  0  0  0  0  0  0  0
    3.0652    5.0440    3.5364 H   0  0  0  0  0  0  0  0  0  0  0  0
    1.0191    4.0416    2.8871 H   0  0  0  0  0  0  0  0  0  0  0  0
    1.5806    3.1222    0.6747 H   0  0  0  0  0  0  0  0  0  0  0  0
    0.8779    1.9437    1.7987 H   0  0  0  0  0  0  0  0  0  0  0  0
    2.8798    1.0377    0.6625 H   0  0  0  0  0  0  0  0  0  0  0  0
    3.0742    1.0861    2.4194 H   0  0  0  0  0  0  0  0  0  0  0  0
  1  2  1  0
  1 20  1  0
  1 21  1  0
  1 22  1  0
  2  3  1  0
  2  4  1  0
  3 23  1  0
  3 24  1  0
  3 25  1  0
  4  5  2  0
  4  6  1  0
  6  7  1  0
  6 26  1  0
  6 27  1  0
  7  8  1  0
  7 13  1  0
  8  9  1  0
  8 28  1  0
  8 29  1  0
  9 10  1  0
  9 30  1  0
  9 31  1  0
 10 11  1  0
 10 32  1  0
 10 33  1  0
 11 12  1  0
 11 34  1  0
 11 35  1  0
 12 13  1  0
 12 36  1  0
 12 37  1  0
 13 14  1  0
 13 38  1  6
 14 15  1  0
 14 19  1  0
 14 39  1  1
 15 16  1  0
 15 40  1  0
 15 41  1  0
 16 17  1  0
 16 42  1  0
 16 43  1  0
 17 18  1  0
 17 44  1  0
 18 19  1  0
 18 45  1  0
 18 46  1  0
 19 47  1  0
 19 48  1  0
M  END

