
     RDKit          3D

 30 30  0  0  0  0  0  0  0  0999 V2000
    1.3881   -0.0069   -0.8756 C   0  0  0  0  0  0  0  0  0  0  0  0
    2.6101   -0.4976   -0.2988 N   0  0  0  0  0  0  0  0  0  0  0  0
    2.9308   -0.9490    0.7828 C   0  0  0  0  0  0  0  0  0  0  0  0
    3.3472   -1.5449    1.7656 N   0  0  0  0  0  0  0  0  0  0  0  0
    3.8976   -1.2708    3.0182 C   0  0  0  0  0  0  0  0  0  0  0  0
    4.0248    0.0544    3.5081 C   0  0  0  0  0  0  0  0  0  0  0  0
    3.5623    1.2352    2.6946 C   0  0  0  0  0  0  0  0  0  0  0  0
    4.5878    0.2458    4.7757 C   0  0  0  0  0  0  0  0  0  0  0  0
    5.0149   -0.8347    5.5471 C   0  0  0  0  0  0  0  0  0  0  0  0
    4.8766   -2.1339    5.0562 C   0  0  0  0  0  0  0  0  0  0  0  0
    4.3185   -2.3808    3.7959 C   0  0  0  0  0  0  0  0  0  0  0  0
    4.1918   -3.7927    3.2347 C   0  0  1  0  0  0  0  0  0  0  0  0
    5.3981   -4.1344    2.3387 C   0  0  0  0  0  0  0  0  0  0  0  0
    3.9829   -4.8711    4.3060 C   0  0  0  0  0  0  0  0  0  0  0  0
    1.5085    1.0455   -1.1816 H   0  0  0  0  0  0  0  0  0  0  0  0
    0.5286   -0.0711   -0.1852 H   0  0  0  0  0  0  0  0  0  0  0  0
    1.1444   -0.5813   -1.7844 H   0  0  0  0  0  0  0  0  0  0  0  0
    4.1014    1.3163    1.7363 H   0  0  0  0  0  0  0  0  0  0  0  0
    3.7163    2.1740    3.2455 H   0  0  0  0  0  0  0  0  0  0  0  0
    2.4881    1.1666    2.4486 H   0  0  0  0  0  0  0  0  0  0  0  0
    4.6899    1.2647    5.1598 H   0  0  0  0  0  0  0  0  0  0  0  0
    5.4535   -0.6649    6.5336 H   0  0  0  0  0  0  0  0  0  0  0  0
    5.2091   -2.9730    5.6701 H   0  0  0  0  0  0  0  0  0  0  0  0
    3.3013   -3.7893    2.5859 H   0  0  0  0  0  0  0  0  0  0  0  0
    6.3330   -4.1413    2.9238 H   0  0  0  0  0  0  0  0  0  0  0  0
    5.5115   -3.4012    1.5263 H   0  0  0  0  0  0  0  0  0  0  0  0
    5.2764   -5.1309    1.8823 H   0  0  0  0  0  0  0  0  0  0  0  0
    4.8794   -5.0166    4.9313 H   0  0  0  0  0  0  0  0  0  0  0  0
    3.7652   -5.8403    3.8291 H   0  0  0  0  0  0  0  0  0  0  0  0
    3.1419   -4.6261    4.9739 H   0  0  0  0  0  0  0  0  0  0  0  0
  1  2  1  0
  1 15  1  0
  1 16  1  0
  1 17  1  0
  2  3  2  0
  3  4  2  0
  4  5  1  0
  5  6  2  0
  5 11  1  0
  6  7  1  0
  6  8  1  0
  7 18  1  0
  7 19  1  0
  7 20  1  0
  8  9  2  0
  8 21  1  0
  9 10  1  0
  9 22  1  0
 10 11  2  0
 10 23  1  0
 11 12  1  0
 12 13  1  0
 12 14  1  0
 12 24  1  6
 13 25  1  0
 13 26  1  0
 13 27  1  0
 14 28  1  0
 14 29  1  0
 14 30  1  0
M  END

