
     RDKit          3D

 49 51  0  0  0  0  0  0  0  0999 V2000
    4.1794    0.9126    2.7275 C   0  0  0  0  0  0  0  0  0  0  0  0
    3.9834    0.3727    1.3300 C   0  0  0  0  0  0  0  0  0  0  0  0
    2.7960    0.6511    0.6402 C   0  0  0  0  0  0  0  0  0  0  0  0
    2.5696    0.1578   -0.6469 C   0  0  0  0  0  0  0  0  0  0  0  0
    3.5338   -0.6388   -1.2564 C   0  0  0  0  0  0  0  0  0  0  0  0
    4.7313   -0.9217   -0.5825 C   0  0  0  0  0  0  0  0  0  0  0  0
    5.6861   -1.7527   -1.2445 N   0  0  0  0  0  0  0  0  0  0  0  0
    6.2808   -1.3900   -2.5308 C   0  0  0  0  0  0  0  0  0  0  0  0
    6.7480   -2.7331   -3.1158 C   0  0  2  0  0  0  0  0  0  0  0  0
    5.6633   -3.3351   -4.0306 C   0  0  0  0  0  0  0  0  0  0  0  0
    4.5749   -2.8086   -4.2058 O   0  0  0  0  0  0  0  0  0  0  0  0
    6.0149   -4.5013   -4.6451 N   0  0  0  0  0  0  0  0  0  0  0  0
    5.0940   -5.2302   -5.5023 C   0  0  0  0  0  0  0  0  0  0  0  0
    4.1687   -6.1962   -4.7336 C   0  0  0  0  0  0  0  0  0  0  0  0
    3.1860   -6.9002   -5.6418 C   0  0  0  0  0  0  0  0  0  0  0  0
    3.4505   -8.1823   -6.1492 C   0  0  0  0  0  0  0  0  0  0  0  0
    2.5615   -8.8187   -7.0195 C   0  0  0  0  0  0  0  0  0  0  0  0
    1.3929   -8.1570   -7.3873 C   0  0  0  0  0  0  0  0  0  0  0  0
    0.5317   -8.7606   -8.2208 F   0  0  0  0  0  0  0  0  0  0  0  0
    1.0955   -6.8841   -6.9051 C   0  0  0  0  0  0  0  0  0  0  0  0
    1.9958   -6.2649   -6.0358 C   0  0  0  0  0  0  0  0  0  0  0  0
    6.9982   -3.5930   -1.8585 C   0  0  0  0  0  0  0  0  0  0  0  0
    6.0525   -3.0051   -0.8051 C   0  0  0  0  0  0  0  0  0  0  0  0
    5.7043   -3.5418    0.2253 O   0  0  0  0  0  0  0  0  0  0  0  0
    4.9849   -0.4125    0.7077 C   0  0  0  0  0  0  0  0  0  0  0  0
    6.2832   -0.7131    1.4124 C   0  0  0  0  0  0  0  0  0  0  0  0
    3.2828    1.4477    3.0723 H   0  0  0  0  0  0  0  0  0  0  0  0
    5.0275    1.6167    2.7824 H   0  0  0  0  0  0  0  0  0  0  0  0
    4.3892    0.1072    3.4508 H   0  0  0  0  0  0  0  0  0  0  0  0
    2.0314    1.2632    1.1266 H   0  0  0  0  0  0  0  0  0  0  0  0
    1.6330    0.3792   -1.1648 H   0  0  0  0  0  0  0  0  0  0  0  0
    3.3691   -1.0721   -2.2457 H   0  0  0  0  0  0  0  0  0  0  0  0
    7.1305   -0.6970   -2.3873 H   0  0  0  0  0  0  0  0  0  0  0  0
    5.5422   -0.9092   -3.1843 H   0  0  0  0  0  0  0  0  0  0  0  0
    7.6638   -2.6088   -3.7160 H   0  0  0  0  0  0  0  0  0  0  0  0
    6.9136   -4.9163   -4.4305 H   0  0  0  0  0  0  0  0  0  0  0  0
    5.6777   -5.7821   -6.2561 H   0  0  0  0  0  0  0  0  0  0  0  0
    4.4808   -4.4888   -6.0348 H   0  0  0  0  0  0  0  0  0  0  0  0
    3.6279   -5.6122   -3.9722 H   0  0  0  0  0  0  0  0  0  0  0  0
    4.7844   -6.9369   -4.1964 H   0  0  0  0  0  0  0  0  0  0  0  0
    4.3665   -8.7017   -5.8527 H   0  0  0  0  0  0  0  0  0  0  0  0
    2.7584   -9.8184   -7.4120 H   0  0  0  0  0  0  0  0  0  0  0  0
    0.1665   -6.3985   -7.2104 H   0  0  0  0  0  0  0  0  0  0  0  0
    1.7650   -5.2679   -5.6495 H   0  0  0  0  0  0  0  0  0  0  0  0
    8.0343   -3.4914   -1.4935 H   0  0  0  0  0  0  0  0  0  0  0  0
    6.7954   -4.6665   -1.9777 H   0  0  0  0  0  0  0  0  0  0  0  0
    7.0985   -0.8682    0.6914 H   0  0  0  0  0  0  0  0  0  0  0  0
    6.2021   -1.6434    1.9989 H   0  0  0  0  0  0  0  0  0  0  0  0
    6.5809    0.0983    2.0909 H   0  0  0  0  0  0  0  0  0  0  0  0
  1  2  1  0
  1 27  1  0
  1 28  1  0
  1 29  1  0
  2  3  2  0
  2 25  1  0
  3  4  1  0
  3 30  1  0
  4  5  2  0
  4 31  1  0
  5  6  1  0
  5 32  1  0
  6  7  1  0
  6 25  2  0
  7  8  1  0
  7 23  1  0
  8  9  1  0
  8 33  1  0
  8 34  1  0
  9 10  1  0
  9 22  1  0
  9 35  1  6
 10 11  2  0
 10 12  1  0
 12 13  1  0
 12 36  1  0
 13 14  1  0
 13 37  1  0
 13 38  1  0
 14 15  1  0
 14 39  1  0
 14 40  1  0
 15 16  2  0
 15 21  1  0
 16 17  1  0
 16 41  1  0
 17 18  2  0
 17 42  1  0
 18 19  1  0
 18 20  1  0
 20 21  2  0
 20 43  1  0
 21 44  1  0
 22 23  1  0
 22 45  1  0
 22 46  1  0
 23 24  2  0
 25 26  1  0
 26 47  1  0
 26 48  1  0
 26 49  1  0
M  END

