
     RDKit          3D

 34 35  0  0  0  0  0  0  0  0999 V2000
    1.0183   -0.1911   -0.1660 C   0  0  0  0  0  0  0  0  0  0  0  0
    2.4650   -0.0747   -0.2592 N   0  0  0  0  0  0  0  0  0  0  0  0
    3.2580   -1.0946    0.4188 C   0  0  0  0  0  0  0  0  0  0  0  0
    3.7547   -2.2033   -0.5119 C   0  0  0  0  0  0  0  0  0  0  0  0
    4.5665   -1.6920   -1.5633 O   0  0  0  0  0  0  0  0  0  0  0  0
    2.9818    1.1631   -0.6468 C   0  0  0  0  0  0  0  0  0  0  0  0
    2.2857    2.1329   -0.8545 O   0  0  0  0  0  0  0  0  0  0  0  0
    4.3741    1.1533   -0.8015 N   0  0  0  0  0  0  0  0  0  0  0  0
    5.1721    2.2617   -1.0476 C   0  0  0  0  0  0  0  0  0  0  0  0
    6.4819    2.1912   -1.6201 C   0  0  0  0  0  0  0  0  0  0  0  0
    6.8970    3.4977   -1.6394 C   0  0  0  0  0  0  0  0  0  0  0  0
    8.1218    4.1599   -2.0925 C   0  0  0  0  0  0  0  0  0  0  0  0
    9.1942    3.4093   -2.6098 C   0  0  0  0  0  0  0  0  0  0  0  0
   10.3589    4.0437   -3.0406 C   0  0  0  0  0  0  0  0  0  0  0  0
   10.4727    5.4361   -2.9622 C   0  0  0  0  0  0  0  0  0  0  0  0
    9.4120    6.1894   -2.4491 C   0  0  0  0  0  0  0  0  0  0  0  0
    8.2443    5.5600   -2.0167 C   0  0  0  0  0  0  0  0  0  0  0  0
    5.9222    4.2707   -1.1263 O   0  0  0  0  0  0  0  0  0  0  0  0
    4.8334    3.4986   -0.7464 N   0  0  0  0  0  0  0  0  0  0  0  0
    0.6873   -1.1801   -0.5239 H   0  0  0  0  0  0  0  0  0  0  0  0
    0.5572    0.5900   -0.7812 H   0  0  0  0  0  0  0  0  0  0  0  0
    0.6619   -0.0620    0.8734 H   0  0  0  0  0  0  0  0  0  0  0  0
    2.6486   -1.5441    1.2222 H   0  0  0  0  0  0  0  0  0  0  0  0
    4.1224   -0.6211    0.9105 H   0  0  0  0  0  0  0  0  0  0  0  0
    2.9014   -2.7742   -0.9222 H   0  0  0  0  0  0  0  0  0  0  0  0
    4.3757   -2.9106    0.0622 H   0  0  0  0  0  0  0  0  0  0  0  0
    3.9815   -1.3988   -2.2751 H   0  0  0  0  0  0  0  0  0  0  0  0
    4.8053    0.2521   -1.0015 H   0  0  0  0  0  0  0  0  0  0  0  0
    7.0093    1.3055   -1.9628 H   0  0  0  0  0  0  0  0  0  0  0  0
    9.1170    2.3217   -2.6738 H   0  0  0  0  0  0  0  0  0  0  0  0
   11.1836    3.4479   -3.4398 H   0  0  0  0  0  0  0  0  0  0  0  0
   11.3861    5.9318   -3.3001 H   0  0  0  0  0  0  0  0  0  0  0  0
    9.4941    7.2773   -2.3851 H   0  0  0  0  0  0  0  0  0  0  0  0
    7.4154    6.1460   -1.6168 H   0  0  0  0  0  0  0  0  0  0  0  0
  1  2  1  0
  1 20  1  0
  1 21  1  0
  1 22  1  0
  2  3  1  0
  2  6  1  0
  3  4  1  0
  3 23  1  0
  3 24  1  0
  4  5  1  0
  4 25  1  0
  4 26  1  0
  5 27  1  0
  6  7  2  0
  6  8  1  0
  8  9  1  0
  8 28  1  0
  9 10  1  0
  9 19  2  0
 10 11  2  0
 10 29  1  0
 11 12  1  0
 11 18  1  0
 12 13  2  0
 12 17  1  0
 13 14  1  0
 13 30  1  0
 14 15  2  0
 14 31  1  0
 15 16  1  0
 15 32  1  0
 16 17  2  0
 16 33  1  0
 17 34  1  0
 18 19  1  0
M  END

