
     RDKit          3D

 35 35  0  0  0  0  0  0  0  0999 V2000
    1.0311    0.5047   -0.3625 C   0  0  0  0  0  0  0  0  0  0  0  0
    2.5207    0.1602   -0.3964 C   0  0  0  0  0  0  0  0  0  0  0  0
    2.9258   -0.9101    0.6221 C   0  0  0  0  0  0  0  0  0  0  0  0
    4.4165   -1.2599    0.5953 C   0  0  0  0  0  0  0  0  0  0  0  0
    4.8228   -2.3310    1.6113 C   0  0  0  0  0  0  0  0  0  0  0  0
    6.3250   -2.6577    1.5779 C   0  0  0  0  0  0  0  0  0  0  0  0
    6.8062   -3.6398    2.5392 N   0  0  0  0  0  0  0  0  0  0  0  0
    6.3191   -4.9980    2.3763 C   0  0  0  0  0  0  0  0  0  0  0  0
    7.1006   -5.9914    3.2145 C   0  0  0  0  0  0  0  0  0  0  0  0
    8.4036   -5.7374    3.6630 C   0  0  0  0  0  0  0  0  0  0  0  0
    9.1185   -6.6703    4.4195 C   0  0  0  0  0  0  0  0  0  0  0  0
    8.5197   -7.8920    4.7358 C   0  0  0  0  0  0  0  0  0  0  0  0
    9.4754   -9.1792    5.7686 Br  0  0  0  0  0  0  0  0  0  0  0  0
    7.2238   -8.1876    4.3066 C   0  0  0  0  0  0  0  0  0  0  0  0
    6.5465   -7.2312    3.5551 C   0  0  0  0  0  0  0  0  0  0  0  0
    5.2999   -7.5201    3.1380 F   0  0  0  0  0  0  0  0  0  0  0  0
    0.7763    1.2763   -1.1066 H   0  0  0  0  0  0  0  0  0  0  0  0
    0.7299    0.8858    0.6278 H   0  0  0  0  0  0  0  0  0  0  0  0
    0.4095   -0.3811   -0.5761 H   0  0  0  0  0  0  0  0  0  0  0  0
    3.1153    1.0747   -0.2169 H   0  0  0  0  0  0  0  0  0  0  0  0
    2.7976   -0.1814   -1.4105 H   0  0  0  0  0  0  0  0  0  0  0  0
    2.3326   -1.8264    0.4429 H   0  0  0  0  0  0  0  0  0  0  0  0
    2.6491   -0.5699    1.6376 H   0  0  0  0  0  0  0  0  0  0  0  0
    5.0090   -0.3431    0.7744 H   0  0  0  0  0  0  0  0  0  0  0  0
    4.6925   -1.5985   -0.4210 H   0  0  0  0  0  0  0  0  0  0  0  0
    4.2354   -3.2486    1.4282 H   0  0  0  0  0  0  0  0  0  0  0  0
    4.5531   -1.9947    2.6305 H   0  0  0  0  0  0  0  0  0  0  0  0
    6.8971   -1.7258    1.7350 H   0  0  0  0  0  0  0  0  0  0  0  0
    6.5990   -3.0114    0.5669 H   0  0  0  0  0  0  0  0  0  0  0  0
    6.6426   -3.3185    3.4932 H   0  0  0  0  0  0  0  0  0  0  0  0
    6.4348   -5.2692    1.3094 H   0  0  0  0  0  0  0  0  0  0  0  0
    5.2398   -5.1313    2.5935 H   0  0  0  0  0  0  0  0  0  0  0  0
    8.8493   -4.7747    3.4058 H   0  0  0  0  0  0  0  0  0  0  0  0
   10.1316   -6.4501    4.7589 H   0  0  0  0  0  0  0  0  0  0  0  0
    6.7363   -9.1341    4.5414 H   0  0  0  0  0  0  0  0  0  0  0  0
  1  2  1  0
  1 17  1  0
  1 18  1  0
  1 19  1  0
  2  3  1  0
  2 20  1  0
  2 21  1  0
  3  4  1  0
  3 22  1  0
  3 23  1  0
  4  5  1  0
  4 24  1  0
  4 25  1  0
  5  6  1  0
  5 26  1  0
  5 27  1  0
  6  7  1  0
  6 28  1  0
  6 29  1  0
  7  8  1  0
  7 30  1  0
  8  9  1  0
  8 31  1  0
  8 32  1  0
  9 10  2  0
  9 15  1  0
 10 11  1  0
 10 33  1  0
 11 12  2  0
 11 34  1  0
 12 13  1  0
 12 14  1  0
 14 15  2  0
 14 35  1  0
 15 16  1  0
M  END

