
     RDKit          3D

 59 63  0  0  0  0  0  0  0  0999 V2000
    1.8203    0.2203    0.9044 O   0  0  0  0  0  0  0  0  0  0  0  0
    2.9202    0.1691    0.3682 C   0  0  0  0  0  0  0  0  0  0  0  0
    3.3755   -1.1176   -0.2707 C   0  0  0  0  0  0  0  0  0  0  0  0
    3.9353   -1.1761   -1.5565 C   0  0  0  0  0  0  0  0  0  0  0  0
    4.2375   -2.4034   -2.1465 C   0  0  0  0  0  0  0  0  0  0  0  0
    3.9999   -3.6147   -1.4697 C   0  0  0  0  0  0  0  0  0  0  0  0
    4.3331   -4.9212   -2.0945 C   0  0  0  0  0  0  0  0  0  0  0  0
    5.4731   -5.0698   -2.9071 C   0  0  0  0  0  0  0  0  0  0  0  0
    5.7933   -6.2928   -3.4968 C   0  0  0  0  0  0  0  0  0  0  0  0
    4.9654   -7.3977   -3.2798 C   0  0  0  0  0  0  0  0  0  0  0  0
    5.3578   -8.9342   -4.0149 Cl  0  0  0  0  0  0  0  0  0  0  0  0
    3.8257   -7.2820   -2.4789 C   0  0  0  0  0  0  0  0  0  0  0  0
    3.5197   -6.0528   -1.8948 C   0  0  0  0  0  0  0  0  0  0  0  0
    3.4257   -3.5459   -0.1851 C   0  0  0  0  0  0  0  0  0  0  0  0
    3.1050   -2.3217    0.3967 C   0  0  0  0  0  0  0  0  0  0  0  0
    3.7411    1.2762    0.2879 N   0  0  0  0  0  0  0  0  0  0  0  0
    5.2012    1.2202    0.1985 C   0  0  0  0  0  0  0  0  0  0  0  0
    5.7435    2.3868   -0.6247 C   0  0  0  0  0  0  0  0  0  0  0  0
    5.2249    3.6427   -0.1079 N   0  0  0  0  0  0  0  0  0  0  0  0
    6.0308    4.7298    0.1141 C   0  0  0  0  0  0  0  0  0  0  0  0
    7.3541    4.5812   -0.1053 N   0  0  0  0  0  0  0  0  0  0  0  0
    8.1251    5.6388    0.1206 C   0  0  0  0  0  0  0  0  0  0  0  0
    7.6221    6.8660    0.5607 C   0  0  0  0  0  0  0  0  0  0  0  0
    6.2393    6.9102    0.7579 C   0  0  0  0  0  0  0  0  0  0  0  0
    5.4450    5.8670    0.5439 N   0  0  0  0  0  0  0  0  0  0  0  0
    3.7713    3.7068   -0.0372 C   0  0  0  0  0  0  0  0  0  0  0  0
    3.1934    2.5478    0.7896 C   0  0  2  0  0  0  0  0  0  0  0  0
    3.3965    2.7222    2.3180 C   0  0  0  0  0  0  0  0  0  0  0  0
    2.4118    3.6915    2.9355 C   0  0  0  0  0  0  0  0  0  0  0  0
    1.0894    3.2795    3.1805 C   0  0  0  0  0  0  0  0  0  0  0  0
    0.1581    4.1588    3.7370 C   0  0  0  0  0  0  0  0  0  0  0  0
    0.5314    5.4688    4.0574 C   0  0  0  0  0  0  0  0  0  0  0  0
    1.8404    5.8914    3.8133 C   0  0  0  0  0  0  0  0  0  0  0  0
    2.7724    5.0092    3.2556 C   0  0  0  0  0  0  0  0  0  0  0  0
    4.1040   -0.2546   -2.1190 H   0  0  0  0  0  0  0  0  0  0  0  0
    4.6359   -2.4220   -3.1634 H   0  0  0  0  0  0  0  0  0  0  0  0
    6.1403   -4.2194   -3.0638 H   0  0  0  0  0  0  0  0  0  0  0  0
    6.6857   -6.3965   -4.1163 H   0  0  0  0  0  0  0  0  0  0  0  0
    3.1807   -8.1485   -2.3240 H   0  0  0  0  0  0  0  0  0  0  0  0
    2.6134   -5.9681   -1.2913 H   0  0  0  0  0  0  0  0  0  0  0  0
    3.2411   -4.4663    0.3733 H   0  0  0  0  0  0  0  0  0  0  0  0
    2.6383   -2.2843    1.3832 H   0  0  0  0  0  0  0  0  0  0  0  0
    5.5136    0.2683   -0.2449 H   0  0  0  0  0  0  0  0  0  0  0  0
    5.6397    1.2656    1.2135 H   0  0  0  0  0  0  0  0  0  0  0  0
    5.4388    2.2654   -1.6836 H   0  0  0  0  0  0  0  0  0  0  0  0
    6.8381    2.4153   -0.5849 H   0  0  0  0  0  0  0  0  0  0  0  0
    9.1994    5.5050   -0.0591 H   0  0  0  0  0  0  0  0  0  0  0  0
    8.2640    7.7293    0.7384 H   0  0  0  0  0  0  0  0  0  0  0  0
    5.7512    7.8293    1.1059 H   0  0  0  0  0  0  0  0  0  0  0  0
    3.3561    3.6516   -1.0621 H   0  0  0  0  0  0  0  0  0  0  0  0
    3.4800    4.6695    0.3964 H   0  0  0  0  0  0  0  0  0  0  0  0
    2.1127    2.5033    0.6045 H   0  0  0  0  0  0  0  0  0  0  0  0
    4.4283    3.0478    2.5252 H   0  0  0  0  0  0  0  0  0  0  0  0
    3.2632    1.7339    2.7833 H   0  0  0  0  0  0  0  0  0  0  0  0
    0.7961    2.2565    2.9263 H   0  0  0  0  0  0  0  0  0  0  0  0
   -0.8641    3.8192    3.9245 H   0  0  0  0  0  0  0  0  0  0  0  0
   -0.1965    6.1567    4.4957 H   0  0  0  0  0  0  0  0  0  0  0  0
    2.1409    6.9137    4.0582 H   0  0  0  0  0  0  0  0  0  0  0  0
    3.7922    5.3510    3.0585 H   0  0  0  0  0  0  0  0  0  0  0  0
  1  2  2  0
  2  3  1  0
  2 16  1  0
  3  4  2  0
  3 15  1  0
  4  5  1  0
  4 35  1  0
  5  6  2  0
  5 36  1  0
  6  7  1  0
  6 14  1  0
  7  8  2  0
  7 13  1  0
  8  9  1  0
  8 37  1  0
  9 10  2  0
  9 38  1  0
 10 11  1  0
 10 12  1  0
 12 13  2  0
 12 39  1  0
 13 40  1  0
 14 15  2  0
 14 41  1  0
 15 42  1  0
 16 17  1  0
 16 27  1  0
 17 18  1  0
 17 43  1  0
 17 44  1  0
 18 19  1  0
 18 45  1  0
 18 46  1  0
 19 20  1  0
 19 26  1  0
 20 21  2  0
 20 25  1  0
 21 22  1  0
 22 23  2  0
 22 47  1  0
 23 24  1  0
 23 48  1  0
 24 25  2  0
 24 49  1  0
 26 27  1  0
 26 50  1  0
 26 51  1  0
 27 28  1  0
 27 52  1  1
 28 29  1  0
 28 53  1  0
 28 54  1  0
 29 30  2  0
 29 34  1  0
 30 31  1  0
 30 55  1  0
 31 32  2  0
 31 56  1  0
 32 33  1  0
 32 57  1  0
 33 34  2  0
 33 58  1  0
 34 59  1  0
M  END

