
     RDKit          3D

 33 32  0  0  0  0  0  0  0  0999 V2000
    6.3746   -2.8006    5.9316 C   0  0  0  0  0  0  0  0  0  0  0  0
    6.2536   -2.9093    4.6068 C   0  0  0  0  0  0  0  0  0  0  0  0
    6.3563   -1.7652    3.6428 C   0  0  0  0  0  0  0  0  0  0  0  0
    7.2792   -2.1029    2.6237 O   0  0  0  0  0  0  0  0  0  0  0  0
    7.4179   -1.1512    1.5772 C   0  0  2  0  0  0  0  0  0  0  0  0
    7.3256   -0.1261    1.9821 H   0  0  0  0  0  0  0  0  0  0  0  0
    6.3722   -1.3713    0.4849 C   0  0  0  0  0  0  0  0  0  0  0  0
    8.8622   -1.3020    1.0610 C   0  0  1  0  0  0  0  0  0  0  0  0
    9.0210   -2.3777    0.8426 H   0  0  0  0  0  0  0  0  0  0  0  0
    9.0939   -0.5010   -0.0860 O   0  0  0  0  0  0  0  0  0  0  0  0
    9.8771   -0.8699    2.1323 C   0  0  2  0  0  0  0  0  0  0  0  0
    9.7694    0.5073    2.4134 O   0  0  0  0  0  0  0  0  0  0  0  0
   11.3429   -1.2463    1.8066 C   0  0  2  0  0  0  0  0  0  0  0  0
   11.3734   -2.2990    1.4630 H   0  0  0  0  0  0  0  0  0  0  0  0
   12.2307   -1.1066    3.0503 C   0  0  0  0  0  0  0  0  0  0  0  0
   13.5729   -1.4569    2.8273 O   0  0  0  0  0  0  0  0  0  0  0  0
   11.8923   -0.3589    0.7606 N   0  0  0  0  0  0  0  0  0  0  0  0
   11.9204   -0.7623   -0.3931 N   0  0  0  0  0  0  0  0  0  0  0  0
   12.0002   -1.0373   -1.4947 N   0  0  0  0  0  0  0  0  0  0  0  0
    6.2577   -3.6660    6.5897 H   0  0  0  0  0  0  0  0  0  0  0  0
    6.5899   -1.8399    6.4116 H   0  0  0  0  0  0  0  0  0  0  0  0
    6.0482   -3.8846    4.1492 H   0  0  0  0  0  0  0  0  0  0  0  0
    6.6679   -0.8395    4.1661 H   0  0  0  0  0  0  0  0  0  0  0  0
    5.3548   -1.5684    3.2047 H   0  0  0  0  0  0  0  0  0  0  0  0
    6.4586   -0.6085   -0.3042 H   0  0  0  0  0  0  0  0  0  0  0  0
    5.3534   -1.2977    0.8947 H   0  0  0  0  0  0  0  0  0  0  0  0
    6.4821   -2.3729    0.0362 H   0  0  0  0  0  0  0  0  0  0  0  0
    8.6392   -0.8834   -0.8456 H   0  0  0  0  0  0  0  0  0  0  0  0
    9.5945   -1.4058    3.0518 H   0  0  0  0  0  0  0  0  0  0  0  0
   10.0515    0.9701    1.6082 H   0  0  0  0  0  0  0  0  0  0  0  0
   11.7728   -1.6970    3.8695 H   0  0  0  0  0  0  0  0  0  0  0  0
   12.2169   -0.0518    3.3611 H   0  0  0  0  0  0  0  0  0  0  0  0
   13.6197   -2.4069    2.6580 H   0  0  0  0  0  0  0  0  0  0  0  0
  1  2  2  0
  1 20  1  0
  1 21  1  0
  2  3  1  0
  2 22  1  0
  3  4  1  0
  3 23  1  0
  3 24  1  0
  4  5  1  0
  5  6  1  1
  5  7  1  0
  5  8  1  0
  7 25  1  0
  7 26  1  0
  7 27  1  0
  8  9  1  6
  8 10  1  0
  8 11  1  0
 10 28  1  0
 11 12  1  0
 11 13  1  0
 11 29  1  1
 12 30  1  0
 13 14  1  6
 13 15  1  0
 13 17  1  0
 15 16  1  0
 15 31  1  0
 15 32  1  0
 16 33  1  0
 17 18  1  0
 18 19  3  0
M  CHG  2  17  -1  18   1
M  END

