
     RDKit          3D

 34 35  0  0  0  0  0  0  0  0999 V2000
    0.7204    2.2457   -0.9703 C   0  0  0  0  0  0  0  0  0  0  0  0
    2.2230    2.5052   -1.0344 C   0  0  0  0  0  0  0  0  0  0  0  0
    3.0699    1.3128   -1.0218 N   0  0  0  0  0  0  0  0  0  0  0  0
    2.6239    0.1355   -0.2851 C   0  0  0  0  0  0  0  0  0  0  0  0
    2.9374    0.1583    1.2158 C   0  0  0  0  0  0  0  0  0  0  0  0
    4.4235    1.4639   -1.3233 C   0  0  0  0  0  0  0  0  0  0  0  0
    4.9732    2.7159   -1.6981 C   0  0  0  0  0  0  0  0  0  0  0  0
    6.3184    2.8543   -2.0368 C   0  0  0  0  0  0  0  0  0  0  0  0
    7.1861    1.7568   -2.0240 C   0  0  0  0  0  0  0  0  0  0  0  0
    8.5542    1.9001   -2.3769 N   0  0  0  0  0  0  0  0  0  0  0  0
    9.0432    2.6826   -3.4050 C   0  0  0  0  0  0  0  0  0  0  0  0
   10.4180    2.5607   -3.4322 C   0  0  0  0  0  0  0  0  0  0  0  0
   10.7839    1.6716   -2.3790 C   0  0  0  0  0  0  0  0  0  0  0  0
    9.6187    1.2818   -1.7498 C   0  0  0  0  0  0  0  0  0  0  0  0
    6.6650    0.5132   -1.6424 C   0  0  0  0  0  0  0  0  0  0  0  0
    5.3271    0.3711   -1.2864 C   0  0  0  0  0  0  0  0  0  0  0  0
    0.1916    3.2015   -1.1079 H   0  0  0  0  0  0  0  0  0  0  0  0
    0.3936    1.8317   -0.0044 H   0  0  0  0  0  0  0  0  0  0  0  0
    0.3918    1.5635   -1.7703 H   0  0  0  0  0  0  0  0  0  0  0  0
    2.5046    3.2045   -0.2182 H   0  0  0  0  0  0  0  0  0  0  0  0
    2.4232    3.0450   -1.9736 H   0  0  0  0  0  0  0  0  0  0  0  0
    3.0604   -0.7623   -0.7477 H   0  0  0  0  0  0  0  0  0  0  0  0
    1.5418    0.0250   -0.4331 H   0  0  0  0  0  0  0  0  0  0  0  0
    4.0202    0.2364    1.3992 H   0  0  0  0  0  0  0  0  0  0  0  0
    2.5754   -0.7629    1.7011 H   0  0  0  0  0  0  0  0  0  0  0  0
    2.4505    1.0134    1.7123 H   0  0  0  0  0  0  0  0  0  0  0  0
    4.3568    3.6124   -1.7097 H   0  0  0  0  0  0  0  0  0  0  0  0
    6.7038    3.8436   -2.2925 H   0  0  0  0  0  0  0  0  0  0  0  0
    8.3650    3.2282   -4.0565 H   0  0  0  0  0  0  0  0  0  0  0  0
   11.0855    3.0487   -4.1403 H   0  0  0  0  0  0  0  0  0  0  0  0
   11.7899    1.3596   -2.1038 H   0  0  0  0  0  0  0  0  0  0  0  0
    9.4581    0.6475   -0.8815 H   0  0  0  0  0  0  0  0  0  0  0  0
    7.3137   -0.3653   -1.6364 H   0  0  0  0  0  0  0  0  0  0  0  0
    4.9843   -0.6211   -0.9976 H   0  0  0  0  0  0  0  0  0  0  0  0
  1  2  1  0
  1 17  1  0
  1 18  1  0
  1 19  1  0
  2  3  1  0
  2 20  1  0
  2 21  1  0
  3  4  1  0
  3  6  1  0
  4  5  1  0
  4 22  1  0
  4 23  1  0
  5 24  1  0
  5 25  1  0
  5 26  1  0
  6  7  2  0
  6 16  1  0
  7  8  1  0
  7 27  1  0
  8  9  2  0
  8 28  1  0
  9 10  1  0
  9 15  1  0
 10 11  1  0
 10 14  1  0
 11 12  2  0
 11 29  1  0
 12 13  1  0
 12 30  1  0
 13 14  2  0
 13 31  1  0
 14 32  1  0
 15 16  2  0
 15 33  1  0
 16 34  1  0
M  END

