
     RDKit          3D

 46 50  0  0  0  0  0  0  0  0999 V2000
    1.5702    0.1091    1.6646 C   0  0  0  0  0  0  0  0  0  0  0  0
    2.0220    0.1659    0.3335 O   0  0  0  0  0  0  0  0  0  0  0  0
    2.6231    1.3004   -0.1162 C   0  0  0  0  0  0  0  0  0  0  0  0
    2.8229    2.4543    0.6559 C   0  0  0  0  0  0  0  0  0  0  0  0
    3.4536    3.5666    0.0856 C   0  0  0  0  0  0  0  0  0  0  0  0
    3.8928    3.5642   -1.2424 C   0  0  0  0  0  0  0  0  0  0  0  0
    4.6027    4.7799   -1.8539 C   0  0  2  0  0  0  0  0  0  0  0  0
    5.9900    4.9672   -1.2661 C   0  0  0  0  0  0  0  0  0  0  0  0
    6.2572    5.9554   -0.3580 C   0  0  0  0  0  0  0  0  0  0  0  0
    7.4949    6.0721    0.2435 N   0  0  0  0  0  0  0  0  0  0  0  0
    7.6908    6.8064    0.9147 H   0  0  0  0  0  0  0  0  0  0  0  0
    8.5712    5.2232   -0.0193 C   0  0  0  0  0  0  0  0  0  0  0  0
    9.6438    5.3529    0.5312 O   0  0  0  0  0  0  0  0  0  0  0  0
    8.2774    4.2585   -0.9570 N   0  0  0  0  0  0  0  0  0  0  0  0
    9.0337    3.6216   -1.1928 H   0  0  0  0  0  0  0  0  0  0  0  0
    7.0551    4.0503   -1.6401 C   0  0  0  0  0  0  0  0  0  0  0  0
    6.9686    3.1590   -2.4655 O   0  0  0  0  0  0  0  0  0  0  0  0
    5.3122    6.8947   -0.0145 N   0  0  0  0  0  0  0  0  0  0  0  0
    4.1449    7.0347   -0.7667 C   0  0  0  0  0  0  0  0  0  0  0  0
    3.4733    8.1820   -0.5428 N   0  0  0  0  0  0  0  0  0  0  0  0
    2.3645    8.4154   -1.2211 C   0  0  0  0  0  0  0  0  0  0  0  0
    1.7098    9.6092   -0.9517 N   0  0  0  0  0  0  0  0  0  0  0  0
    1.8474    7.4799   -2.1792 C   0  0  0  0  0  0  0  0  0  0  0  0
    0.5992    7.5756   -2.8828 C   0  0  0  0  0  0  0  0  0  0  0  0
   -0.3128    8.5648   -2.6224 N   0  0  0  0  0  0  0  0  0  0  0  0
    0.2788    6.7057   -3.8355 N   0  0  0  0  0  0  0  0  0  0  0  0
    1.1438    5.7037   -4.0715 C   0  0  0  0  0  0  0  0  0  0  0  0
    2.2560    5.4316   -3.4251 N   0  0  0  0  0  0  0  0  0  0  0  0
    2.6239    6.3088   -2.4526 C   0  0  0  0  0  0  0  0  0  0  0  0
    3.7980    6.0587   -1.6922 C   0  0  0  0  0  0  0  0  0  0  0  0
    3.6866    2.3994   -1.9993 C   0  0  0  0  0  0  0  0  0  0  0  0
    3.0627    1.2840   -1.4506 C   0  0  0  0  0  0  0  0  0  0  0  0
    1.1317   -0.8883    1.8064 H   0  0  0  0  0  0  0  0  0  0  0  0
    0.7959    0.8706    1.8728 H   0  0  0  0  0  0  0  0  0  0  0  0
    2.3957    0.2410    2.3884 H   0  0  0  0  0  0  0  0  0  0  0  0
    2.4949    2.5010    1.6947 H   0  0  0  0  0  0  0  0  0  0  0  0
    3.5992    4.4562    0.7053 H   0  0  0  0  0  0  0  0  0  0  0  0
    4.7064    4.5701   -2.9283 H   0  0  0  0  0  0  0  0  0  0  0  0
    5.5490    7.6884    0.5700 H   0  0  0  0  0  0  0  0  0  0  0  0
    2.2619   10.2222   -0.3577 H   0  0  0  0  0  0  0  0  0  0  0  0
    1.3115   10.0837   -1.7578 H   0  0  0  0  0  0  0  0  0  0  0  0
   -0.3416    8.9464   -1.6822 H   0  0  0  0  0  0  0  0  0  0  0  0
   -1.2080    8.4242   -3.0812 H   0  0  0  0  0  0  0  0  0  0  0  0
    0.8678    5.0238   -4.8882 H   0  0  0  0  0  0  0  0  0  0  0  0
    4.0309    2.3694   -3.0351 H   0  0  0  0  0  0  0  0  0  0  0  0
    2.9029    0.3771   -2.0376 H   0  0  0  0  0  0  0  0  0  0  0  0
  1  2  1  0
  1 33  1  0
  1 34  1  0
  1 35  1  0
  2  3  1  0
  3  4  2  0
  3 32  1  0
  4  5  1  0
  4 36  1  0
  5  6  2  0
  5 37  1  0
  6  7  1  0
  6 31  1  0
  7  8  1  0
  7 30  1  0
  7 38  1  6
  8  9  2  0
  8 16  1  0
  9 10  1  0
  9 18  1  0
 10 11  1  0
 10 12  1  0
 12 13  2  0
 12 14  1  0
 14 15  1  0
 14 16  1  0
 16 17  2  0
 18 19  1  0
 18 39  1  0
 19 20  2  0
 19 30  1  0
 20 21  1  0
 21 22  1  0
 21 23  2  0
 22 40  1  0
 22 41  1  0
 23 24  1  0
 23 29  1  0
 24 25  1  0
 24 26  2  0
 25 42  1  0
 25 43  1  0
 26 27  1  0
 27 28  2  0
 27 44  1  0
 28 29  1  0
 29 30  2  0
 31 32  2  0
 31 45  1  0
 32 46  1  0
M  END

