
     RDKit          3D

 39 39  0  0  0  0  0  0  0  0999 V2000
    1.2054   -0.4429   -0.2055 C   0  0  0  0  0  0  0  0  0  0  0  0
    2.4530    0.2663    0.0023 N   0  0  0  0  0  0  0  0  0  0  0  0
    2.2975    1.6955   -0.1968 C   0  0  0  0  0  0  0  0  0  0  0  0
    3.0971   -0.0795    1.2596 C   0  0  0  0  0  0  0  0  0  0  0  0
    4.6022    0.1729    1.2480 C   0  0  0  0  0  0  0  0  0  0  0  0
    5.1256   -0.2746    2.4776 O   0  0  0  0  0  0  0  0  0  0  0  0
    6.5087   -0.0876    2.6258 C   0  0  0  0  0  0  0  0  0  0  0  0
    6.8917   -0.5599    4.0284 C   0  0  0  0  0  0  0  0  0  0  0  0
    8.3198   -0.4727    4.2819 N   0  0  0  0  0  0  0  0  0  0  0  0
    8.8978    0.6808    4.7184 C   0  0  0  0  0  0  0  0  0  0  0  0
    8.2863    1.6690    5.0740 O   0  0  0  0  0  0  0  0  0  0  0  0
   10.4113    0.6222    4.8575 C   0  0  0  0  0  0  0  0  0  0  0  0
   10.9636   -0.1408    5.8920 C   0  0  0  0  0  0  0  0  0  0  0  0
   12.3394   -0.0971    6.1463 C   0  0  0  0  0  0  0  0  0  0  0  0
   12.9988   -1.0589    7.4386 Cl  0  0  0  0  0  0  0  0  0  0  0  0
   13.1886    0.7106    5.3827 C   0  0  0  0  0  0  0  0  0  0  0  0
   12.6484    1.4705    4.3476 C   0  0  0  0  0  0  0  0  0  0  0  0
   11.2793    1.4107    4.0873 C   0  0  0  0  0  0  0  0  0  0  0  0
   10.7712    2.1659    2.9261 N   0  0  0  0  0  0  0  0  0  0  0  0
    9.7440    1.7623    2.4027 O   0  0  0  0  0  0  0  0  0  0  0  0
   11.4258    3.1200    2.5440 O   0  0  0  0  0  0  0  0  0  0  0  0
    0.8081   -0.2197   -1.2088 H   0  0  0  0  0  0  0  0  0  0  0  0
    0.4137   -0.1759    0.5337 H   0  0  0  0  0  0  0  0  0  0  0  0
    1.3686   -1.5304   -0.1432 H   0  0  0  0  0  0  0  0  0  0  0  0
    1.9006    1.8944   -1.2051 H   0  0  0  0  0  0  0  0  0  0  0  0
    3.2653    2.2125   -0.1181 H   0  0  0  0  0  0  0  0  0  0  0  0
    1.6036    2.1662    0.5391 H   0  0  0  0  0  0  0  0  0  0  0  0
    2.9523   -1.1556    1.4453 H   0  0  0  0  0  0  0  0  0  0  0  0
    2.6507    0.4510    2.1322 H   0  0  0  0  0  0  0  0  0  0  0  0
    4.8316    1.2480    1.1050 H   0  0  0  0  0  0  0  0  0  0  0  0
    5.0569   -0.3719    0.3955 H   0  0  0  0  0  0  0  0  0  0  0  0
    6.7916    0.9763    2.5014 H   0  0  0  0  0  0  0  0  0  0  0  0
    7.0738   -0.6642    1.8616 H   0  0  0  0  0  0  0  0  0  0  0  0
    6.5597   -1.6007    4.1678 H   0  0  0  0  0  0  0  0  0  0  0  0
    6.3754    0.0636    4.7710 H   0  0  0  0  0  0  0  0  0  0  0  0
    8.9251   -1.1769    3.8753 H   0  0  0  0  0  0  0  0  0  0  0  0
   10.3171   -0.7569    6.5190 H   0  0  0  0  0  0  0  0  0  0  0  0
   14.2579    0.7365    5.5964 H   0  0  0  0  0  0  0  0  0  0  0  0
   13.2761    2.1084    3.7253 H   0  0  0  0  0  0  0  0  0  0  0  0
  1  2  1  0
  1 22  1  0
  1 23  1  0
  1 24  1  0
  2  3  1  0
  2  4  1  0
  3 25  1  0
  3 26  1  0
  3 27  1  0
  4  5  1  0
  4 28  1  0
  4 29  1  0
  5  6  1  0
  5 30  1  0
  5 31  1  0
  6  7  1  0
  7  8  1  0
  7 32  1  0
  7 33  1  0
  8  9  1  0
  8 34  1  0
  8 35  1  0
  9 10  1  0
  9 36  1  0
 10 11  2  0
 10 12  1  0
 12 13  2  0
 12 18  1  0
 13 14  1  0
 13 37  1  0
 14 15  1  0
 14 16  2  0
 16 17  1  0
 16 38  1  0
 17 18  2  0
 17 39  1  0
 18 19  1  0
 19 20  2  0
 19 21  1  0
M  CHG  2  19   1  21  -1
M  END

