
     RDKit          3D

 67 68  0  0  0  0  0  0  0  0999 V2000
    8.5722    0.2864    5.9244 C   0  0  0  0  0  0  0  0  0  0  0  0
    8.7760   -0.8054    4.8733 C   0  0  0  0  0  0  0  0  0  0  0  0
    7.6780   -0.8783    3.7992 C   0  0  2  0  0  0  0  0  0  0  0  0
    6.6980   -0.9797    4.2917 H   0  0  0  0  0  0  0  0  0  0  0  0
    7.8727   -2.0754    2.8598 C   0  0  0  0  0  0  0  0  0  0  0  0
    7.6072    0.3707    3.0443 N   0  0  0  0  0  0  0  0  0  0  0  0
    6.4418    1.0134    2.7809 C   0  0  0  0  0  0  0  0  0  0  0  0
    5.3385    0.6127    3.1271 O   0  0  0  0  0  0  0  0  0  0  0  0
    6.5643    2.3377    1.9828 C   0  0  2  0  0  0  0  0  0  0  0  0
    5.5195    2.6531    1.8734 H   0  0  0  0  0  0  0  0  0  0  0  0
    7.1385    2.1657    0.5726 C   0  0  0  0  0  0  0  0  0  0  0  0
    7.2037    3.4096    2.7889 N   0  0  0  0  0  0  0  0  0  0  0  0
    6.2651    4.2770    3.5027 C   0  0  0  0  0  0  0  0  0  0  0  0
    5.5439    5.2913    2.6280 C   0  0  0  0  0  0  0  0  0  0  0  0
    4.2334    5.6773    2.9458 C   0  0  0  0  0  0  0  0  0  0  0  0
    3.5768    6.6516    2.1905 C   0  0  0  0  0  0  0  0  0  0  0  0
    4.2100    7.2536    1.0996 C   0  0  0  0  0  0  0  0  0  0  0  0
    5.5120    6.8606    0.7816 C   0  0  0  0  0  0  0  0  0  0  0  0
    6.3974    7.6586   -0.7098 Br  0  0  0  0  0  0  0  0  0  0  0  0
    6.1808    5.8906    1.5321 C   0  0  0  0  0  0  0  0  0  0  0  0
    8.5532    3.4372    2.9874 C   0  0  0  0  0  0  0  0  0  0  0  0
    9.3168    2.5887    2.5328 O   0  0  0  0  0  0  0  0  0  0  0  0
    9.1500    4.5881    3.8092 C   0  0  0  0  0  0  0  0  0  0  0  0
    8.8372    4.3740    5.1729 O   0  0  0  0  0  0  0  0  0  0  0  0
    9.4017    5.1867    6.1197 C   0  0  0  0  0  0  0  0  0  0  0  0
   10.2537    6.2575    5.8388 C   0  0  0  0  0  0  0  0  0  0  0  0
   10.7721    7.0286    6.8899 C   0  0  0  0  0  0  0  0  0  0  0  0
   10.4667    6.7660    8.2306 C   0  0  0  0  0  0  0  0  0  0  0  0
   11.0241    7.5965    9.4026 C   0  0  1  0  0  0  0  0  0  0  0  0
   11.9435    8.7336    8.9220 C   0  0  0  0  0  0  0  0  0  0  0  0
    9.8524    8.2246   10.1925 C   0  0  0  0  0  0  0  0  0  0  0  0
   11.8416    6.6790   10.3413 C   0  0  0  0  0  0  0  0  0  0  0  0
    9.6036    5.6781    8.4805 C   0  0  0  0  0  0  0  0  0  0  0  0
    9.0787    4.9002    7.4552 C   0  0  0  0  0  0  0  0  0  0  0  0
    9.3623    0.2467    6.6911 H   0  0  0  0  0  0  0  0  0  0  0  0
    7.6027    0.1695    6.4366 H   0  0  0  0  0  0  0  0  0  0  0  0
    8.5964    1.2933    5.4800 H   0  0  0  0  0  0  0  0  0  0  0  0
    8.8251   -1.7907    5.3681 H   0  0  0  0  0  0  0  0  0  0  0  0
    9.7553   -0.6710    4.3766 H   0  0  0  0  0  0  0  0  0  0  0  0
    7.0594   -2.1235    2.1200 H   0  0  0  0  0  0  0  0  0  0  0  0
    7.8781   -3.0217    3.4246 H   0  0  0  0  0  0  0  0  0  0  0  0
    8.8289   -1.9998    2.3150 H   0  0  0  0  0  0  0  0  0  0  0  0
    8.4707    0.8346    2.7583 H   0  0  0  0  0  0  0  0  0  0  0  0
    7.0832    3.1182    0.0228 H   0  0  0  0  0  0  0  0  0  0  0  0
    6.5277    1.4278    0.0300 H   0  0  0  0  0  0  0  0  0  0  0  0
    8.1813    1.8291    0.5777 H   0  0  0  0  0  0  0  0  0  0  0  0
    6.7951    4.7885    4.3161 H   0  0  0  0  0  0  0  0  0  0  0  0
    5.5192    3.6357    4.0008 H   0  0  0  0  0  0  0  0  0  0  0  0
    3.7212    5.2079    3.7900 H   0  0  0  0  0  0  0  0  0  0  0  0
    2.5548    6.9425    2.4461 H   0  0  0  0  0  0  0  0  0  0  0  0
    3.6995    8.0103    0.5020 H   0  0  0  0  0  0  0  0  0  0  0  0
    7.1937    5.5948    1.2552 H   0  0  0  0  0  0  0  0  0  0  0  0
    8.7819    5.5744    3.4696 H   0  0  0  0  0  0  0  0  0  0  0  0
   10.2367    4.5380    3.6401 H   0  0  0  0  0  0  0  0  0  0  0  0
   10.5279    6.5101    4.8142 H   0  0  0  0  0  0  0  0  0  0  0  0
   11.4335    7.8548    6.6278 H   0  0  0  0  0  0  0  0  0  0  0  0
   11.4127    9.4433    8.2681 H   0  0  0  0  0  0  0  0  0  0  0  0
   12.8186    8.3509    8.3736 H   0  0  0  0  0  0  0  0  0  0  0  0
   12.3194    9.3010    9.7879 H   0  0  0  0  0  0  0  0  0  0  0  0
    9.2550    8.8907    9.5497 H   0  0  0  0  0  0  0  0  0  0  0  0
   10.2324    8.8192   11.0396 H   0  0  0  0  0  0  0  0  0  0  0  0
    9.1751    7.4593   10.6017 H   0  0  0  0  0  0  0  0  0  0  0  0
   12.6894    6.2219    9.8065 H   0  0  0  0  0  0  0  0  0  0  0  0
   11.2290    5.8636   10.7555 H   0  0  0  0  0  0  0  0  0  0  0  0
   12.2449    7.2559   11.1900 H   0  0  0  0  0  0  0  0  0  0  0  0
    9.3308    5.4250    9.5078 H   0  0  0  0  0  0  0  0  0  0  0  0
    8.4144    4.0597    7.6664 H   0  0  0  0  0  0  0  0  0  0  0  0
  1  2  1  0
  1 35  1  0
  1 36  1  0
  1 37  1  0
  2  3  1  0
  2 38  1  0
  2 39  1  0
  3  4  1  1
  3  5  1  0
  3  6  1  0
  5 40  1  0
  5 41  1  0
  5 42  1  0
  6  7  1  0
  6 43  1  0
  7  8  2  0
  7  9  1  0
  9 10  1  6
  9 11  1  0
  9 12  1  0
 11 44  1  0
 11 45  1  0
 11 46  1  0
 12 13  1  0
 12 21  1  0
 13 14  1  0
 13 47  1  0
 13 48  1  0
 14 15  2  0
 14 20  1  0
 15 16  1  0
 15 49  1  0
 16 17  2  0
 16 50  1  0
 17 18  1  0
 17 51  1  0
 18 19  1  0
 18 20  2  0
 20 52  1  0
 21 22  2  0
 21 23  1  0
 23 24  1  0
 23 53  1  0
 23 54  1  0
 24 25  1  0
 25 26  2  0
 25 34  1  0
 26 27  1  0
 26 55  1  0
 27 28  2  0
 27 56  1  0
 28 29  1  0
 28 33  1  0
 29 30  1  6
 29 31  1  0
 29 32  1  0
 30 57  1  0
 30 58  1  0
 30 59  1  0
 31 60  1  0
 31 61  1  0
 31 62  1  0
 32 63  1  0
 32 64  1  0
 32 65  1  0
 33 34  2  0
 33 66  1  0
 34 67  1  0
M  END

