
     RDKit          3D

 44 46  0  0  0  0  0  0  0  0999 V2000
    3.0584    0.2288    1.4361 O   0  0  0  0  0  0  0  0  0  0  0  0
    2.4336    0.5617    0.4404 C   0  0  0  0  0  0  0  0  0  0  0  0
    1.0531    0.5206    0.3393 N   0  0  0  0  0  0  0  0  0  0  0  0
    0.1170    0.0931    1.3012 C   0  0  0  0  0  0  0  0  0  0  0  0
    0.4723   -0.3780    2.5789 C   0  0  0  0  0  0  0  0  0  0  0  0
   -0.5203   -0.7863    3.4723 C   0  0  0  0  0  0  0  0  0  0  0  0
   -1.8604   -0.7264    3.1015 C   0  0  0  0  0  0  0  0  0  0  0  0
   -2.8080   -1.1206    3.9683 F   0  0  0  0  0  0  0  0  0  0  0  0
   -2.2350   -0.2626    1.8434 C   0  0  0  0  0  0  0  0  0  0  0  0
   -1.2448    0.1439    0.9497 C   0  0  0  0  0  0  0  0  0  0  0  0
    3.0524    1.0504   -0.6972 N   0  0  0  0  0  0  0  0  0  0  0  0
    4.5092    0.9998   -0.8318 C   0  0  1  0  0  0  0  0  0  0  0  0
    4.9238   -0.2523   -1.6013 C   0  0  0  0  0  0  0  0  0  0  0  0
    5.3061   -1.4139   -0.9150 C   0  0  0  0  0  0  0  0  0  0  0  0
    5.6205   -2.5654   -1.6376 C   0  0  0  0  0  0  0  0  0  0  0  0
    5.5359   -2.5211   -3.0325 C   0  0  0  0  0  0  0  0  0  0  0  0
    5.1692   -1.4277   -3.7051 N   0  0  0  0  0  0  0  0  0  0  0  0
    4.8757   -0.3313   -3.0035 C   0  0  0  0  0  0  0  0  0  0  0  0
    5.0625    2.3307   -1.4074 C   0  0  1  0  0  0  0  0  0  0  0  0
    4.6325    3.5556   -0.5710 C   0  0  0  0  0  0  0  0  0  0  0  0
    5.4191    3.6653    0.7373 C   0  0  0  0  0  0  0  0  0  0  0  0
    6.8155    3.6826    0.5095 O   0  0  0  0  0  0  0  0  0  0  0  0
    7.2728    2.5199   -0.1499 C   0  0  0  0  0  0  0  0  0  0  0  0
    6.6034    2.3356   -1.5147 C   0  0  0  0  0  0  0  0  0  0  0  0
    0.6448    0.8750   -0.5171 H   0  0  0  0  0  0  0  0  0  0  0  0
    1.5223   -0.4168    2.8582 H   0  0  0  0  0  0  0  0  0  0  0  0
   -0.2577   -1.1534    4.4666 H   0  0  0  0  0  0  0  0  0  0  0  0
   -3.2922   -0.2242    1.5739 H   0  0  0  0  0  0  0  0  0  0  0  0
   -1.5372    0.5066   -0.0405 H   0  0  0  0  0  0  0  0  0  0  0  0
    2.5207    1.0933   -1.5602 H   0  0  0  0  0  0  0  0  0  0  0  0
    4.8677    0.8770    0.1981 H   0  0  0  0  0  0  0  0  0  0  0  0
    5.3428   -1.4115    0.1779 H   0  0  0  0  0  0  0  0  0  0  0  0
    5.9236   -3.4842   -1.1302 H   0  0  0  0  0  0  0  0  0  0  0  0
    5.7744   -3.4086   -3.6308 H   0  0  0  0  0  0  0  0  0  0  0  0
    4.5857    0.5464   -3.5951 H   0  0  0  0  0  0  0  0  0  0  0  0
    4.6464    2.4529   -2.4236 H   0  0  0  0  0  0  0  0  0  0  0  0
    3.5530    3.5210   -0.3568 H   0  0  0  0  0  0  0  0  0  0  0  0
    4.8197    4.4665   -1.1644 H   0  0  0  0  0  0  0  0  0  0  0  0
    5.1515    2.8352    1.4241 H   0  0  0  0  0  0  0  0  0  0  0  0
    5.1750    4.6053    1.2557 H   0  0  0  0  0  0  0  0  0  0  0  0
    7.1067    1.6270    0.4900 H   0  0  0  0  0  0  0  0  0  0  0  0
    8.3615    2.6332   -0.2685 H   0  0  0  0  0  0  0  0  0  0  0  0
    6.9779    1.4167   -1.9930 H   0  0  0  0  0  0  0  0  0  0  0  0
    6.9047    3.1774   -2.1605 H   0  0  0  0  0  0  0  0  0  0  0  0
  1  2  2  0
  2  3  1  0
  2 11  1  0
  3  4  1  0
  3 25  1  0
  4  5  2  0
  4 10  1  0
  5  6  1  0
  5 26  1  0
  6  7  2  0
  6 27  1  0
  7  8  1  0
  7  9  1  0
  9 10  2  0
  9 28  1  0
 10 29  1  0
 11 12  1  0
 11 30  1  0
 12 13  1  0
 12 19  1  0
 12 31  1  1
 13 14  2  0
 13 18  1  0
 14 15  1  0
 14 32  1  0
 15 16  2  0
 15 33  1  0
 16 17  1  0
 16 34  1  0
 17 18  2  0
 18 35  1  0
 19 20  1  0
 19 24  1  0
 19 36  1  6
 20 21  1  0
 20 37  1  0
 20 38  1  0
 21 22  1  0
 21 39  1  0
 21 40  1  0
 22 23  1  0
 23 24  1  0
 23 41  1  0
 23 42  1  0
 24 43  1  0
 24 44  1  0
M  END

