
     RDKit          3D

 54 62  0  0  0  0  0  0  0  0999 V2000
   -1.5437   -0.1095   -0.3498 C   0  0  0  0  0  0  0  0  0  0  0  0
   -0.8815   -0.0422    0.8821 C   0  0  0  0  0  0  0  0  0  0  0  0
    0.5120    0.0100    0.9296 C   0  0  0  0  0  0  0  0  0  0  0  0
    1.2718   -0.0038   -0.2526 C   0  0  0  0  0  0  0  0  0  0  0  0
    2.7923    0.0542   -0.2020 C   0  0  2  0  0  0  0  0  0  0  0  0
    3.4625   -1.0757    0.5727 C   0  0  0  0  0  0  0  0  0  0  0  0
    3.3030   -2.4513    0.4283 C   0  0  0  0  0  0  0  0  0  0  0  0
    4.0517   -3.3113    1.2436 C   0  0  0  0  0  0  0  0  0  0  0  0
    4.9476   -2.7954    2.1904 C   0  0  0  0  0  0  0  0  0  0  0  0
    5.1085   -1.4146    2.3415 C   0  0  0  0  0  0  0  0  0  0  0  0
    4.3601   -0.5532    1.5301 C   0  0  0  0  0  0  0  0  0  0  0  0
    4.3099    0.9131    1.4703 C   0  0  0  0  0  0  0  0  0  0  0  0
    5.0089    1.8840    2.1997 C   0  0  0  0  0  0  0  0  0  0  0  0
    4.7537    3.2279    1.9300 C   0  0  0  0  0  0  0  0  0  0  0  0
    3.7923    3.6075    0.9533 C   0  0  0  0  0  0  0  0  0  0  0  0
    3.1014    2.6290    0.2179 C   0  0  0  0  0  0  0  0  0  0  0  0
    3.3752    1.2911    0.4754 C   0  0  0  0  0  0  0  0  0  0  0  0
    3.5708    5.0627    0.9998 C   0  0  0  0  0  0  0  0  0  0  0  0
    2.4408    5.7187    0.6239 C   0  0  0  0  0  0  0  0  0  0  0  0
    1.9689    6.9736    1.1982 C   0  0  0  0  0  0  0  0  0  0  0  0
    2.4639    7.6402    2.2724 C   0  0  0  0  0  0  0  0  0  0  0  0
    3.7457    7.3572    3.0182 C   0  0  1  0  0  0  0  0  0  0  0  0
    4.5775    5.6162    1.9680 C   0  0  2  0  0  0  0  0  0  0  0  0
    5.4765    4.4434    2.4639 C   0  0  1  0  0  0  0  0  0  0  0  0
    5.3074    5.2386    3.7977 C   0  0  0  0  0  0  0  0  0  0  0  0
    3.9773    5.8682    3.3838 C   0  0  1  0  0  0  0  0  0  0  0  0
    4.9587    7.1583    2.0056 C   0  0  2  0  0  0  0  0  0  0  0  0
    6.1540    7.7210    2.7455 C   0  0  0  0  0  0  0  0  0  0  0  0
    6.7215    7.2303    3.8765 C   0  0  0  0  0  0  0  0  0  0  0  0
    6.4530    5.8386    4.2146 C   0  0  0  0  0  0  0  0  0  0  0  0
    0.5982   -0.0715   -1.4800 C   0  0  0  0  0  0  0  0  0  0  0  0
   -0.7999   -0.1241   -1.5310 C   0  0  0  0  0  0  0  0  0  0  0  0
   -2.6354   -0.1505   -0.3858 H   0  0  0  0  0  0  0  0  0  0  0  0
   -1.4564   -0.0305    1.8119 H   0  0  0  0  0  0  0  0  0  0  0  0
    1.0209    0.0621    1.8957 H   0  0  0  0  0  0  0  0  0  0  0  0
    3.1584    0.0259   -1.2449 H   0  0  0  0  0  0  0  0  0  0  0  0
    2.6009   -2.8567   -0.3051 H   0  0  0  0  0  0  0  0  0  0  0  0
    3.9351   -4.3932    1.1416 H   0  0  0  0  0  0  0  0  0  0  0  0
    5.5236   -3.4797    2.8187 H   0  0  0  0  0  0  0  0  0  0  0  0
    5.8060   -1.0187    3.0842 H   0  0  0  0  0  0  0  0  0  0  0  0
    5.7435    1.5995    2.9578 H   0  0  0  0  0  0  0  0  0  0  0  0
    2.3587    2.9120   -0.5326 H   0  0  0  0  0  0  0  0  0  0  0  0
    1.7293    5.1979   -0.0251 H   0  0  0  0  0  0  0  0  0  0  0  0
    1.0448    7.3673    0.7612 H   0  0  0  0  0  0  0  0  0  0  0  0
    1.9131    8.5271    2.6017 H   0  0  0  0  0  0  0  0  0  0  0  0
    3.9116    8.1106    3.7988 H   0  0  0  0  0  0  0  0  0  0  0  0
    6.5253    4.4264    2.1268 H   0  0  0  0  0  0  0  0  0  0  0  0
    3.1045    5.2699    3.6855 H   0  0  0  0  0  0  0  0  0  0  0  0
    4.8345    7.6617    1.0379 H   0  0  0  0  0  0  0  0  0  0  0  0
    6.4475    8.7213    2.4055 H   0  0  0  0  0  0  0  0  0  0  0  0
    7.5278    7.7897    4.3629 H   0  0  0  0  0  0  0  0  0  0  0  0
    7.3479    5.2013    4.2846 H   0  0  0  0  0  0  0  0  0  0  0  0
    1.1742   -0.0836   -2.4100 H   0  0  0  0  0  0  0  0  0  0  0  0
   -1.3060   -0.1767   -2.4986 H   0  0  0  0  0  0  0  0  0  0  0  0
  1  2  2  0
  1 32  1  0
  1 33  1  0
  2  3  1  0
  2 34  1  0
  3  4  2  0
  3 35  1  0
  4  5  1  0
  4 31  1  0
  5  6  1  0
  5 17  1  0
  5 36  1  6
  6  7  1  0
  6 11  2  0
  7  8  2  0
  7 37  1  0
  8  9  1  0
  8 38  1  0
  9 10  2  0
  9 39  1  0
 10 11  1  0
 10 40  1  0
 11 12  1  0
 12 13  1  0
 12 17  2  0
 13 14  2  0
 13 41  1  0
 14 15  1  0
 14 24  1  0
 15 16  2  0
 15 18  1  0
 16 17  1  0
 16 42  1  0
 18 19  2  0
 23 18  1  6
 19 20  1  0
 19 43  1  0
 20 21  2  0
 20 44  1  0
 21 22  1  0
 21 45  1  0
 22 26  1  0
 22 27  1  0
 22 46  1  1
 23 24  1  0
 23 26  1  0
 23 27  1  0
 24 25  1  0
 24 47  1  6
 25 26  1  0
 25 30  2  0
 26 48  1  6
 27 28  1  0
 27 49  1  6
 28 29  2  0
 28 50  1  0
 29 30  1  0
 29 51  1  0
 30 52  1  0
 31 32  2  0
 31 53  1  0
 32 54  1  0
M  END

