
     RDKit          3D

 36 37  0  0  0  0  0  0  0  0999 V2000
    5.1418    4.7968   -5.4961 C   0  0  0  0  0  0  0  0  0  0  0  0
    6.3560    5.6441   -5.1556 C   0  0  0  0  0  0  0  0  0  0  0  0
    6.5738    5.7119   -3.7326 O   0  0  0  0  0  0  0  0  0  0  0  0
    7.2890    4.7368   -3.1559 C   0  0  0  0  0  0  0  0  0  0  0  0
    7.7656    3.8083   -3.7711 O   0  0  0  0  0  0  0  0  0  0  0  0
    7.4015    4.9772   -1.6826 C   0  0  0  0  0  0  0  0  0  0  0  0
    6.7257    6.1507   -1.1892 C   0  0  0  0  0  0  0  0  0  0  0  0
    6.1960    7.0839   -0.7449 N   0  0  0  0  0  0  0  0  0  0  0  0
    8.0609    4.2320   -0.7375 C   0  0  0  0  0  0  0  0  0  0  0  0
    8.8664    3.0137   -0.7014 C   0  0  0  0  0  0  0  0  0  0  0  0
    9.1955    2.1821   -1.7959 C   0  0  0  0  0  0  0  0  0  0  0  0
    9.9716    1.0432   -1.5908 C   0  0  0  0  0  0  0  0  0  0  0  0
   10.4351    0.7045   -0.3176 C   0  0  0  0  0  0  0  0  0  0  0  0
   10.1283    1.5089    0.7960 C   0  0  0  0  0  0  0  0  0  0  0  0
   10.6163    1.1561    2.1574 C   0  0  0  0  0  0  0  0  0  0  0  0
   10.6635   -0.1839    2.5845 C   0  0  0  0  0  0  0  0  0  0  0  0
   11.1208   -0.5085    3.8629 C   0  0  0  0  0  0  0  0  0  0  0  0
   11.5419    0.4888    4.7456 C   0  0  0  0  0  0  0  0  0  0  0  0
   11.4961    1.8201    4.3229 C   0  0  0  0  0  0  0  0  0  0  0  0
   12.0286    3.0873    5.4049 Cl  0  0  0  0  0  0  0  0  0  0  0  0
   11.0415    2.1590    3.0471 C   0  0  0  0  0  0  0  0  0  0  0  0
    9.3470    2.6511    0.5801 C   0  0  0  0  0  0  0  0  0  0  0  0
    4.9565    4.8336   -6.5815 H   0  0  0  0  0  0  0  0  0  0  0  0
    4.2442    5.1713   -4.9804 H   0  0  0  0  0  0  0  0  0  0  0  0
    5.3029    3.7461   -5.2130 H   0  0  0  0  0  0  0  0  0  0  0  0
    6.2124    6.6906   -5.4590 H   0  0  0  0  0  0  0  0  0  0  0  0
    7.2639    5.2493   -5.6347 H   0  0  0  0  0  0  0  0  0  0  0  0
    7.9603    4.6672    0.2623 H   0  0  0  0  0  0  0  0  0  0  0  0
    8.8383    2.4415   -2.7892 H   0  0  0  0  0  0  0  0  0  0  0  0
   10.2279    0.4099   -2.4437 H   0  0  0  0  0  0  0  0  0  0  0  0
   11.0613   -0.1812   -0.1879 H   0  0  0  0  0  0  0  0  0  0  0  0
   10.3152   -0.9768    1.9193 H   0  0  0  0  0  0  0  0  0  0  0  0
   11.1428   -1.5533    4.1827 H   0  0  0  0  0  0  0  0  0  0  0  0
   11.9009    0.2457    5.7467 H   0  0  0  0  0  0  0  0  0  0  0  0
   11.0450    3.2066    2.7432 H   0  0  0  0  0  0  0  0  0  0  0  0
    9.0782    3.2756    1.4354 H   0  0  0  0  0  0  0  0  0  0  0  0
  1  2  1  0
  1 23  1  0
  1 24  1  0
  1 25  1  0
  2  3  1  0
  2 26  1  0
  2 27  1  0
  3  4  1  0
  4  5  2  0
  4  6  1  0
  6  7  1  0
  6  9  2  0
  7  8  3  0
  9 10  1  0
  9 28  1  0
 10 11  2  0
 10 22  1  0
 11 12  1  0
 11 29  1  0
 12 13  2  0
 12 30  1  0
 13 14  1  0
 13 31  1  0
 14 15  1  0
 14 22  2  0
 15 16  2  0
 15 21  1  0
 16 17  1  0
 16 32  1  0
 17 18  2  0
 17 33  1  0
 18 19  1  0
 18 34  1  0
 19 20  1  0
 19 21  2  0
 21 35  1  0
 22 36  1  0
M  END

