
     RDKit          3D

 49 50  0  0  0  0  0  0  0  0999 V2000
    1.8860    0.1186    0.8866 C   0  0  0  0  0  0  0  0  0  0  0  0
    3.1816    0.0885    0.0620 C   0  0  1  0  0  0  0  0  0  0  0  0
    4.0025    0.3103    0.7666 H   0  0  0  0  0  0  0  0  0  0  0  0
    3.4539   -1.3165   -0.5282 C   0  0  0  0  0  0  0  0  0  0  0  0
    2.6245   -1.5738   -1.7608 C   0  0  0  0  0  0  0  0  0  0  0  0
    1.8312   -2.5835   -1.7505 N   0  0  0  0  0  0  0  0  0  0  0  0
    1.0471   -2.8554   -2.8115 N   0  0  0  0  0  0  0  0  0  0  0  0
    0.2314   -3.9764   -2.8608 C   0  0  0  0  0  0  0  0  0  0  0  0
    0.2026   -5.1612   -1.6935 S   0  0  0  0  0  0  0  0  0  0  0  0
   -0.5306   -3.9942   -3.9945 N   0  0  0  0  0  0  0  0  0  0  0  0
   -1.4740   -5.0540   -4.3521 C   0  0  1  0  0  0  0  0  0  0  0  0
   -2.8618   -4.8461   -3.7109 C   0  0  0  0  0  0  0  0  0  0  0  0
   -3.6221   -3.6649   -4.3266 C   0  0  0  0  0  0  0  0  0  0  0  0
   -3.7413   -3.8028   -5.8512 C   0  0  0  0  0  0  0  0  0  0  0  0
   -2.3665   -3.9876   -6.5088 C   0  0  0  0  0  0  0  0  0  0  0  0
   -1.5913   -5.1585   -5.8830 C   0  0  0  0  0  0  0  0  0  0  0  0
    2.8271   -0.5512   -2.8596 C   0  0  0  0  0  0  0  0  0  0  0  0
    2.5134    0.8948   -2.3743 C   0  0  2  0  0  0  0  0  0  0  0  0
    0.9894    1.0660   -2.2158 C   0  0  0  0  0  0  0  0  0  0  0  0
    3.0040    1.8982   -3.4336 C   0  0  0  0  0  0  0  0  0  0  0  0
    3.2838    1.1573   -1.0513 C   0  0  0  0  0  0  0  0  0  0  0  0
    1.9965   -0.5042    1.7887 H   0  0  0  0  0  0  0  0  0  0  0  0
    1.0200   -0.2745    0.3349 H   0  0  0  0  0  0  0  0  0  0  0  0
    1.6438    1.1426    1.2149 H   0  0  0  0  0  0  0  0  0  0  0  0
    3.2556   -2.1072    0.2094 H   0  0  0  0  0  0  0  0  0  0  0  0
    4.5225   -1.3809   -0.8081 H   0  0  0  0  0  0  0  0  0  0  0  0
    1.1025   -2.2667   -3.6433 H   0  0  0  0  0  0  0  0  0  0  0  0
   -0.5474   -3.1575   -4.5688 H   0  0  0  0  0  0  0  0  0  0  0  0
   -1.0410   -5.9791   -3.9446 H   0  0  0  0  0  0  0  0  0  0  0  0
   -2.7335   -4.7247   -2.6245 H   0  0  0  0  0  0  0  0  0  0  0  0
   -3.4446   -5.7733   -3.8582 H   0  0  0  0  0  0  0  0  0  0  0  0
   -3.0968   -2.7222   -4.0839 H   0  0  0  0  0  0  0  0  0  0  0  0
   -4.6219   -3.5784   -3.8697 H   0  0  0  0  0  0  0  0  0  0  0  0
   -4.2569   -2.9277   -6.2815 H   0  0  0  0  0  0  0  0  0  0  0  0
   -4.3715   -4.6806   -6.0861 H   0  0  0  0  0  0  0  0  0  0  0  0
   -1.7865   -3.0489   -6.4095 H   0  0  0  0  0  0  0  0  0  0  0  0
   -2.4747   -4.1488   -7.5944 H   0  0  0  0  0  0  0  0  0  0  0  0
   -0.5867   -5.2498   -6.3287 H   0  0  0  0  0  0  0  0  0  0  0  0
   -2.1233   -6.0979   -6.1121 H   0  0  0  0  0  0  0  0  0  0  0  0
    2.2428   -0.7601   -3.7712 H   0  0  0  0  0  0  0  0  0  0  0  0
    3.8885   -0.5957   -3.1653 H   0  0  0  0  0  0  0  0  0  0  0  0
    0.4938    1.0221   -3.2004 H   0  0  0  0  0  0  0  0  0  0  0  0
    0.7457    2.0425   -1.7672 H   0  0  0  0  0  0  0  0  0  0  0  0
    0.5394    0.2862   -1.5863 H   0  0  0  0  0  0  0  0  0  0  0  0
    2.5038    1.7318   -4.4023 H   0  0  0  0  0  0  0  0  0  0  0  0
    4.0908    1.8139   -3.5966 H   0  0  0  0  0  0  0  0  0  0  0  0
    2.7909    2.9341   -3.1226 H   0  0  0  0  0  0  0  0  0  0  0  0
    2.9860    2.1425   -0.6518 H   0  0  0  0  0  0  0  0  0  0  0  0
    4.3526    1.2516   -1.3155 H   0  0  0  0  0  0  0  0  0  0  0  0
  1  2  1  0
  1 22  1  0
  1 23  1  0
  1 24  1  0
  2  3  1  1
  2  4  1  0
  2 21  1  0
  4  5  1  0
  4 25  1  0
  4 26  1  0
  5  6  2  0
  5 17  1  0
  6  7  1  0
  7  8  1  0
  7 27  1  0
  8  9  2  0
  8 10  1  0
 10 11  1  0
 10 28  1  0
 11 12  1  0
 11 16  1  0
 11 29  1  1
 12 13  1  0
 12 30  1  0
 12 31  1  0
 13 14  1  0
 13 32  1  0
 13 33  1  0
 14 15  1  0
 14 34  1  0
 14 35  1  0
 15 16  1  0
 15 36  1  0
 15 37  1  0
 16 38  1  0
 16 39  1  0
 17 18  1  0
 17 40  1  0
 17 41  1  0
 18 19  1  1
 18 20  1  0
 18 21  1  0
 19 42  1  0
 19 43  1  0
 19 44  1  0
 20 45  1  0
 20 46  1  0
 20 47  1  0
 21 48  1  0
 21 49  1  0
M  END

