
     RDKit          3D

 23 22  0  0  0  0  0  0  0  0999 V2000
    1.1348    0.0885    0.1009 C   0  0  0  0  0  0  0  0  0  0  0  0
    2.3417    0.1509    0.1726 C   0  0  0  0  0  0  0  0  0  0  0  0
    3.8034    0.2129    0.2346 C   0  0  0  0  0  0  0  0  0  0  0  0
    4.3707   -1.0525    0.7060 N   0  0  0  0  0  0  0  0  0  0  0  0
    5.8243   -1.1852    0.6249 C   0  0  1  0  0  0  0  0  0  0  0  0
    6.5668   -0.0165    1.2887 C   0  0  0  0  0  0  0  0  0  0  0  0
    6.2821   -2.4874    1.3067 C   0  0  0  0  0  0  0  0  0  0  0  0
    7.3595   -2.9927    1.0241 O   0  0  0  0  0  0  0  0  0  0  0  0
    5.4181   -2.9642    2.2526 N   0  0  0  0  0  0  0  0  0  0  0  0
    5.5426   -4.1031    3.0993 C   0  0  0  0  0  0  0  0  0  0  0  0
    6.6845   -4.8080    2.9273 N   0  0  0  0  0  0  0  0  0  0  0  0
    4.6548   -4.3595    3.8868 O   0  0  0  0  0  0  0  0  0  0  0  0
    0.0634    0.0379    0.0459 H   0  0  0  0  0  0  0  0  0  0  0  0
    4.0927    1.0228    0.9246 H   0  0  0  0  0  0  0  0  0  0  0  0
    4.1863    0.5101   -0.7673 H   0  0  0  0  0  0  0  0  0  0  0  0
    3.9319   -1.8125    0.1857 H   0  0  0  0  0  0  0  0  0  0  0  0
    6.1921   -1.2693   -0.4189 H   0  0  0  0  0  0  0  0  0  0  0  0
    6.2198    0.1296    2.3240 H   0  0  0  0  0  0  0  0  0  0  0  0
    6.4252    0.9225    0.7335 H   0  0  0  0  0  0  0  0  0  0  0  0
    7.6436   -0.2362    1.3048 H   0  0  0  0  0  0  0  0  0  0  0  0
    4.5580   -2.4301    2.3780 H   0  0  0  0  0  0  0  0  0  0  0  0
    7.3710   -4.4994    2.2402 H   0  0  0  0  0  0  0  0  0  0  0  0
    6.8199   -5.6237    3.5089 H   0  0  0  0  0  0  0  0  0  0  0  0
  1  2  3  0
  1 13  1  0
  2  3  1  0
  3  4  1  0
  3 14  1  0
  3 15  1  0
  4  5  1  0
  4 16  1  0
  5  6  1  0
  5  7  1  0
  5 17  1  6
  6 18  1  0
  6 19  1  0
  6 20  1  0
  7  8  2  0
  7  9  1  0
  9 10  1  0
  9 21  1  0
 10 11  1  0
 10 12  2  0
 11 22  1  0
 11 23  1  0
M  END

