
     RDKit          3D

 48 49  0  0  0  0  0  0  0  0999 V2000
    0.4748    1.4767   -5.7741 C   0  0  0  0  0  0  0  0  0  0  0  0
    1.8465    1.6751   -5.9812 O   0  0  0  0  0  0  0  0  0  0  0  0
    2.5207    2.2054   -4.8683 C   0  0  0  0  0  0  0  0  0  0  0  0
    3.9956    2.3910   -5.2181 C   0  0  1  0  0  0  0  0  0  0  0  0
    4.2011    3.3558   -6.3838 C   0  0  0  0  0  0  0  0  0  0  0  0
    4.6082    2.8331   -4.0191 O   0  0  0  0  0  0  0  0  0  0  0  0
    6.0046    2.7011   -3.9488 C   0  0  0  0  0  0  0  0  0  0  0  0
    6.4804    3.0755   -2.5501 C   0  0  1  0  0  0  0  0  0  0  0  0
    5.9943    2.1966   -1.5536 O   0  0  0  0  0  0  0  0  0  0  0  0
    8.0175    3.1561   -2.4749 C   0  0  0  0  0  0  0  0  0  0  0  0
    8.6141    4.2014   -3.3009 N   0  0  0  0  0  0  0  0  0  0  0  0
    8.5067    5.5170   -2.6749 C   0  0  0  0  0  0  0  0  0  0  0  0
    8.7044    6.7080   -3.6289 C   0  0  0  0  0  0  0  0  0  0  0  0
   10.1382    7.0465   -3.9720 C   0  0  0  0  0  0  0  0  0  0  0  0
   10.6577    8.3125   -3.6646 C   0  0  0  0  0  0  0  0  0  0  0  0
   11.9792    8.6522   -3.9670 C   0  0  0  0  0  0  0  0  0  0  0  0
   12.8059    7.7137   -4.5863 C   0  0  0  0  0  0  0  0  0  0  0  0
   12.2998    6.4482   -4.8953 C   0  0  0  0  0  0  0  0  0  0  0  0
   10.9747    6.0969   -4.5991 C   0  0  0  0  0  0  0  0  0  0  0  0
   10.4562    4.7197   -4.9486 C   0  0  0  0  0  0  0  0  0  0  0  0
    9.9543    3.8646   -3.7713 C   0  0  0  0  0  0  0  0  0  0  0  0
    0.0496    1.0611   -6.6997 H   0  0  0  0  0  0  0  0  0  0  0  0
   -0.0517    2.4241   -5.5381 H   0  0  0  0  0  0  0  0  0  0  0  0
    0.2778    0.7659   -4.9455 H   0  0  0  0  0  0  0  0  0  0  0  0
    2.4462    1.5322   -3.9904 H   0  0  0  0  0  0  0  0  0  0  0  0
    2.0916    3.1841   -4.5653 H   0  0  0  0  0  0  0  0  0  0  0  0
    4.3997    1.3953   -5.4980 H   0  0  0  0  0  0  0  0  0  0  0  0
    3.8493    4.3631   -6.1070 H   0  0  0  0  0  0  0  0  0  0  0  0
    3.6268    3.0102   -7.2555 H   0  0  0  0  0  0  0  0  0  0  0  0
    5.2605    3.4268   -6.6744 H   0  0  0  0  0  0  0  0  0  0  0  0
    6.5256    3.3480   -4.6786 H   0  0  0  0  0  0  0  0  0  0  0  0
    6.3095    1.6513   -4.1685 H   0  0  0  0  0  0  0  0  0  0  0  0
    6.0408    4.0567   -2.3070 H   0  0  0  0  0  0  0  0  0  0  0  0
    6.2298    1.2936   -1.8074 H   0  0  0  0  0  0  0  0  0  0  0  0
    8.4200    2.1822   -2.8046 H   0  0  0  0  0  0  0  0  0  0  0  0
    8.2866    3.2519   -1.4011 H   0  0  0  0  0  0  0  0  0  0  0  0
    9.2108    5.6142   -1.8164 H   0  0  0  0  0  0  0  0  0  0  0  0
    7.4941    5.5984   -2.2530 H   0  0  0  0  0  0  0  0  0  0  0  0
    8.2408    7.5915   -3.1626 H   0  0  0  0  0  0  0  0  0  0  0  0
    8.1275    6.5012   -4.5481 H   0  0  0  0  0  0  0  0  0  0  0  0
   10.0098    9.0481   -3.1786 H   0  0  0  0  0  0  0  0  0  0  0  0
   12.3595    9.6460   -3.7173 H   0  0  0  0  0  0  0  0  0  0  0  0
   13.8423    7.9627   -4.8282 H   0  0  0  0  0  0  0  0  0  0  0  0
   12.9478    5.7126   -5.3814 H   0  0  0  0  0  0  0  0  0  0  0  0
   11.2646    4.1601   -5.4452 H   0  0  0  0  0  0  0  0  0  0  0  0
    9.6322    4.7949   -5.6809 H   0  0  0  0  0  0  0  0  0  0  0  0
   10.7062    3.9030   -2.9492 H   0  0  0  0  0  0  0  0  0  0  0  0
    9.9201    2.8188   -4.1152 H   0  0  0  0  0  0  0  0  0  0  0  0
  1  2  1  0
  1 22  1  0
  1 23  1  0
  1 24  1  0
  2  3  1  0
  3  4  1  0
  3 25  1  0
  3 26  1  0
  4  5  1  0
  4  6  1  0
  4 27  1  6
  5 28  1  0
  5 29  1  0
  5 30  1  0
  6  7  1  0
  7  8  1  0
  7 31  1  0
  7 32  1  0
  8  9  1  0
  8 10  1  0
  8 33  1  1
  9 34  1  0
 10 11  1  0
 10 35  1  0
 10 36  1  0
 11 12  1  0
 11 21  1  0
 12 13  1  0
 12 37  1  0
 12 38  1  0
 13 14  1  0
 13 39  1  0
 13 40  1  0
 14 15  2  0
 14 19  1  0
 15 16  1  0
 15 41  1  0
 16 17  2  0
 16 42  1  0
 17 18  1  0
 17 43  1  0
 18 19  2  0
 18 44  1  0
 19 20  1  0
 20 21  1  0
 20 45  1  0
 20 46  1  0
 21 47  1  0
 21 48  1  0
M  END

