
     RDKit          3D

 43 45  0  0  0  0  0  0  0  0999 V2000
    5.9111    3.3460   -2.6655 C   0  0  0  0  0  0  0  0  0  0  0  0
    5.3287    2.1430   -2.2172 O   0  0  0  0  0  0  0  0  0  0  0  0
    4.0492    1.8415   -2.5762 C   0  0  0  0  0  0  0  0  0  0  0  0
    3.2338    2.6660   -3.3606 C   0  0  0  0  0  0  0  0  0  0  0  0
    1.9283    2.2600   -3.6674 C   0  0  0  0  0  0  0  0  0  0  0  0
    1.4388    1.0436   -3.1972 C   0  0  0  0  0  0  0  0  0  0  0  0
    2.2628    0.2247   -2.4132 C   0  0  0  0  0  0  0  0  0  0  0  0
    3.5659    0.6035   -2.0939 C   0  0  0  0  0  0  0  0  0  0  0  0
    4.4940   -0.2484   -1.2404 C   0  0  0  0  0  0  0  0  0  0  0  0
    3.9443   -1.4974   -0.7684 N   0  0  0  0  0  0  0  0  0  0  0  0
    4.0200   -2.7400   -1.3301 C   0  0  0  0  0  0  0  0  0  0  0  0
    3.4256   -3.7121   -0.6293 N   0  0  0  0  0  0  0  0  0  0  0  0
    3.4530   -4.9756   -1.0955 C   0  0  0  0  0  0  0  0  0  0  0  0
    2.8048   -5.9315   -0.3638 N   0  0  0  0  0  0  0  0  0  0  0  0
    2.2347   -5.7420    0.9616 C   0  0  1  0  0  0  0  0  0  0  0  0
    1.0844   -6.7312    1.1636 C   0  0  0  0  0  0  0  0  0  0  0  0
    3.2927   -5.8508    2.0701 C   0  0  0  0  0  0  0  0  0  0  0  0
    4.0445   -5.3935   -2.2215 N   0  0  0  0  0  0  0  0  0  0  0  0
    4.6403   -4.4309   -2.9397 C   0  0  0  0  0  0  0  0  0  0  0  0
    5.3227   -4.6418   -4.1938 C   0  0  0  0  0  0  0  0  0  0  0  0
    5.8243   -3.4886   -4.7171 C   0  0  0  0  0  0  0  0  0  0  0  0
    5.5117   -2.0838   -3.7411 S   0  0  0  0  0  0  0  0  0  0  0  0
    4.6664   -3.0662   -2.5520 C   0  0  0  0  0  0  0  0  0  0  0  0
    6.9341    3.3673   -2.2660 H   0  0  0  0  0  0  0  0  0  0  0  0
    5.3634    4.2309   -2.2941 H   0  0  0  0  0  0  0  0  0  0  0  0
    5.9562    3.3937   -3.7683 H   0  0  0  0  0  0  0  0  0  0  0  0
    3.6024    3.6207   -3.7363 H   0  0  0  0  0  0  0  0  0  0  0  0
    1.2977    2.9085   -4.2811 H   0  0  0  0  0  0  0  0  0  0  0  0
    0.4217    0.7256   -3.4375 H   0  0  0  0  0  0  0  0  0  0  0  0
    1.8888   -0.7324   -2.0432 H   0  0  0  0  0  0  0  0  0  0  0  0
    4.8095    0.3425   -0.3636 H   0  0  0  0  0  0  0  0  0  0  0  0
    5.4312   -0.4326   -1.7881 H   0  0  0  0  0  0  0  0  0  0  0  0
    3.4081   -1.4926    0.0924 H   0  0  0  0  0  0  0  0  0  0  0  0
    2.9422   -6.8758   -0.7062 H   0  0  0  0  0  0  0  0  0  0  0  0
    1.8322   -4.7176    0.9782 H   0  0  0  0  0  0  0  0  0  0  0  0
    1.4469   -7.7737    1.1253 H   0  0  0  0  0  0  0  0  0  0  0  0
    0.3170   -6.6086    0.3838 H   0  0  0  0  0  0  0  0  0  0  0  0
    0.6093   -6.5842    2.1458 H   0  0  0  0  0  0  0  0  0  0  0  0
    3.7461   -6.8566    2.0846 H   0  0  0  0  0  0  0  0  0  0  0  0
    2.8481   -5.6634    3.0616 H   0  0  0  0  0  0  0  0  0  0  0  0
    4.0932   -5.1134    1.9090 H   0  0  0  0  0  0  0  0  0  0  0  0
    5.4098   -5.6250   -4.6558 H   0  0  0  0  0  0  0  0  0  0  0  0
    6.3761   -3.3686   -5.6494 H   0  0  0  0  0  0  0  0  0  0  0  0
  1  2  1  0
  1 24  1  0
  1 25  1  0
  1 26  1  0
  2  3  1  0
  3  4  2  0
  3  8  1  0
  4  5  1  0
  4 27  1  0
  5  6  2  0
  5 28  1  0
  6  7  1  0
  6 29  1  0
  7  8  2  0
  7 30  1  0
  8  9  1  0
  9 10  1  0
  9 31  1  0
  9 32  1  0
 10 11  1  0
 10 33  1  0
 11 12  2  0
 11 23  1  0
 12 13  1  0
 13 14  1  0
 13 18  2  0
 14 15  1  0
 14 34  1  0
 15 16  1  0
 15 17  1  0
 15 35  1  6
 16 36  1  0
 16 37  1  0
 16 38  1  0
 17 39  1  0
 17 40  1  0
 17 41  1  0
 18 19  1  0
 19 20  1  0
 19 23  2  0
 20 21  2  0
 20 42  1  0
 21 22  1  0
 21 43  1  0
 22 23  1  0
M  END

