
     RDKit          3D

 53 54  0  0  0  0  0  0  0  0999 V2000
    1.1353    0.4083    0.0498 C   0  0  0  0  0  0  0  0  0  0  0  0
    2.6305    0.7113    0.1480 C   0  0  0  0  0  0  0  0  0  0  0  0
    3.0178    1.7036    1.2558 C   0  0  1  0  0  0  0  0  0  0  0  0
    2.6039    1.2410    2.6776 C   0  0  0  0  0  0  0  0  0  0  0  0
    2.9624   -0.1758    3.0852 C   0  0  0  0  0  0  0  0  0  0  0  0
    4.2822   -0.6589    3.0137 C   0  0  0  0  0  0  0  0  0  0  0  0
    4.5926   -1.9597    3.4186 C   0  0  0  0  0  0  0  0  0  0  0  0
    3.5941   -2.8079    3.9090 C   0  0  0  0  0  0  0  0  0  0  0  0
    2.2792   -2.3427    3.9866 C   0  0  0  0  0  0  0  0  0  0  0  0
    1.9709   -1.0416    3.5763 C   0  0  0  0  0  0  0  0  0  0  0  0
    4.4554    1.9872    1.1779 N   0  0  0  0  0  0  0  0  0  0  0  0
    4.8409    3.3157    1.6367 C   0  0  0  0  0  0  0  0  0  0  0  0
    6.3675    3.5047    1.7324 C   0  0  1  0  0  0  0  0  0  0  0  0
    6.9689    2.8015    2.9563 C   0  0  0  0  0  0  0  0  0  0  0  0
    7.1134    3.0477    0.4618 C   0  0  0  0  0  0  0  0  0  0  0  0
    6.5015    3.4761   -0.7936 N   0  0  0  0  0  0  0  0  0  0  0  0
    6.5324    4.9163   -1.0589 C   0  0  0  0  0  0  0  0  0  0  0  0
    7.8971    5.4302   -1.5525 C   0  0  0  0  0  0  0  0  0  0  0  0
    8.3620    4.6388   -2.7830 C   0  0  0  0  0  0  0  0  0  0  0  0
    8.3166    3.1291   -2.5087 C   0  0  0  0  0  0  0  0  0  0  0  0
    6.9331    2.7215   -1.9714 C   0  0  0  0  0  0  0  0  0  0  0  0
    0.9221   -0.2299   -0.8224 H   0  0  0  0  0  0  0  0  0  0  0  0
    0.5424    1.3318   -0.0626 H   0  0  0  0  0  0  0  0  0  0  0  0
    0.7643   -0.1234    0.9395 H   0  0  0  0  0  0  0  0  0  0  0  0
    2.9741    1.1355   -0.8133 H   0  0  0  0  0  0  0  0  0  0  0  0
    3.1958   -0.2251    0.2918 H   0  0  0  0  0  0  0  0  0  0  0  0
    2.4389    2.6369    1.0650 H   0  0  0  0  0  0  0  0  0  0  0  0
    1.5147    1.3707    2.7808 H   0  0  0  0  0  0  0  0  0  0  0  0
    3.0508    1.9481    3.3982 H   0  0  0  0  0  0  0  0  0  0  0  0
    5.0559    0.0009    2.6183 H   0  0  0  0  0  0  0  0  0  0  0  0
    5.6252   -2.3140    3.3526 H   0  0  0  0  0  0  0  0  0  0  0  0
    3.8400   -3.8240    4.2286 H   0  0  0  0  0  0  0  0  0  0  0  0
    1.4876   -2.9937    4.3678 H   0  0  0  0  0  0  0  0  0  0  0  0
    0.9375   -0.6879    3.6450 H   0  0  0  0  0  0  0  0  0  0  0  0
    4.7485    1.9124    0.2042 H   0  0  0  0  0  0  0  0  0  0  0  0
    4.4134    3.4850    2.6398 H   0  0  0  0  0  0  0  0  0  0  0  0
    4.4126    4.1091    0.9870 H   0  0  0  0  0  0  0  0  0  0  0  0
    6.5343    4.5895    1.8641 H   0  0  0  0  0  0  0  0  0  0  0  0
    6.7629    1.7199    2.9313 H   0  0  0  0  0  0  0  0  0  0  0  0
    6.5472    3.2011    3.8923 H   0  0  0  0  0  0  0  0  0  0  0  0
    8.0623    2.9360    2.9998 H   0  0  0  0  0  0  0  0  0  0  0  0
    7.1181    1.9449    0.4538 H   0  0  0  0  0  0  0  0  0  0  0  0
    8.1784    3.3527    0.5634 H   0  0  0  0  0  0  0  0  0  0  0  0
    6.2174    5.4606   -0.1559 H   0  0  0  0  0  0  0  0  0  0  0  0
    5.7707    5.1319   -1.8318 H   0  0  0  0  0  0  0  0  0  0  0  0
    8.6456    5.3347   -0.7456 H   0  0  0  0  0  0  0  0  0  0  0  0
    7.8262    6.5069   -1.7836 H   0  0  0  0  0  0  0  0  0  0  0  0
    9.3742    4.9512   -3.0903 H   0  0  0  0  0  0  0  0  0  0  0  0
    7.6937    4.8704   -3.6339 H   0  0  0  0  0  0  0  0  0  0  0  0
    9.0953    2.8601   -1.7727 H   0  0  0  0  0  0  0  0  0  0  0  0
    8.5432    2.5579   -3.4253 H   0  0  0  0  0  0  0  0  0  0  0  0
    6.9105    1.6458   -1.7312 H   0  0  0  0  0  0  0  0  0  0  0  0
    6.1837    2.8835   -2.7697 H   0  0  0  0  0  0  0  0  0  0  0  0
  1  2  1  0
  1 22  1  0
  1 23  1  0
  1 24  1  0
  2  3  1  0
  2 25  1  0
  2 26  1  0
  3  4  1  0
  3 11  1  0
  3 27  1  6
  4  5  1  0
  4 28  1  0
  4 29  1  0
  5  6  2  0
  5 10  1  0
  6  7  1  0
  6 30  1  0
  7  8  2  0
  7 31  1  0
  8  9  1  0
  8 32  1  0
  9 10  2  0
  9 33  1  0
 10 34  1  0
 11 12  1  0
 11 35  1  0
 12 13  1  0
 12 36  1  0
 12 37  1  0
 13 14  1  0
 13 15  1  0
 13 38  1  1
 14 39  1  0
 14 40  1  0
 14 41  1  0
 15 16  1  0
 15 42  1  0
 15 43  1  0
 16 17  1  0
 16 21  1  0
 17 18  1  0
 17 44  1  0
 17 45  1  0
 18 19  1  0
 18 46  1  0
 18 47  1  0
 19 20  1  0
 19 48  1  0
 19 49  1  0
 20 21  1  0
 20 50  1  0
 20 51  1  0
 21 52  1  0
 21 53  1  0
M  END

