
     RDKit          3D

 52 55  0  0  0  0  0  0  0  0999 V2000
    0.8512   -0.3120    0.1531 C   0  0  0  0  0  0  0  0  0  0  0  0
    2.3346   -0.1127    0.0851 C   0  0  0  0  0  0  0  0  0  0  0  0
    3.3162   -1.0752    0.1213 C   0  0  0  0  0  0  0  0  0  0  0  0
    4.6175   -0.4916    0.0471 C   0  0  0  0  0  0  0  0  0  0  0  0
    4.6233    0.9041   -0.0536 C   0  0  0  0  0  0  0  0  0  0  0  0
    5.9662    1.3310   -0.1595 C   0  0  0  0  0  0  0  0  0  0  0  0
    6.7531    0.1840   -0.0999 C   0  0  0  0  0  0  0  0  0  0  0  0
    8.2375    0.2164   -0.1522 C   0  0  0  0  0  0  0  0  0  0  0  0
    8.8221    1.1682   -0.6537 O   0  0  0  0  0  0  0  0  0  0  0  0
    8.9208   -0.8508    0.3876 N   0  0  0  0  0  0  0  0  0  0  0  0
   10.3738   -0.8468    0.4277 C   0  0  0  0  0  0  0  0  0  0  0  0
   10.9604   -0.0550    1.6108 C   0  0  0  0  0  0  0  0  0  0  0  0
   12.4090    0.0453    1.4951 N   0  0  0  0  0  0  0  0  0  0  0  0
   12.8853    1.1630    0.6766 C   0  0  0  0  0  0  0  0  0  0  0  0
   13.0040    2.4615    1.4811 C   0  0  0  0  0  0  0  0  0  0  0  0
   13.8081    2.2772    2.6340 O   0  0  0  0  0  0  0  0  0  0  0  0
   13.2989    1.2628    3.4787 C   0  0  0  0  0  0  0  0  0  0  0  0
   13.1909   -0.0653    2.7229 C   0  0  0  0  0  0  0  0  0  0  0  0
    5.9197   -0.9401    0.0237 N   0  0  0  0  0  0  0  0  0  0  0  0
    6.2809   -2.3430   -0.0594 C   0  0  0  0  0  0  0  0  0  0  0  0
    6.4937   -3.0250    1.2841 C   0  0  0  0  0  0  0  0  0  0  0  0
    6.2476   -2.4093    2.5188 C   0  0  0  0  0  0  0  0  0  0  0  0
    6.4525   -3.0837    3.7268 C   0  0  0  0  0  0  0  0  0  0  0  0
    6.9082   -4.3990    3.6926 C   0  0  0  0  0  0  0  0  0  0  0  0
    7.1080   -5.0571    4.8391 F   0  0  0  0  0  0  0  0  0  0  0  0
    7.1653   -5.0553    2.4892 C   0  0  0  0  0  0  0  0  0  0  0  0
    6.9500   -4.3500    1.3108 C   0  0  0  0  0  0  0  0  0  0  0  0
    7.1886   -4.9619    0.1393 F   0  0  0  0  0  0  0  0  0  0  0  0
    2.9938    1.5219   -0.0446 S   0  0  0  0  0  0  0  0  0  0  0  0
    0.6162   -1.3848    0.2155 H   0  0  0  0  0  0  0  0  0  0  0  0
    0.3416    0.0946   -0.7367 H   0  0  0  0  0  0  0  0  0  0  0  0
    0.4102    0.1827    1.0352 H   0  0  0  0  0  0  0  0  0  0  0  0
    3.0969   -2.1401    0.2089 H   0  0  0  0  0  0  0  0  0  0  0  0
    6.3694    2.3353   -0.2577 H   0  0  0  0  0  0  0  0  0  0  0  0
    8.4362   -1.4564    1.0407 H   0  0  0  0  0  0  0  0  0  0  0  0
   10.7256   -0.4022   -0.5131 H   0  0  0  0  0  0  0  0  0  0  0  0
   10.7389   -1.8851    0.4625 H   0  0  0  0  0  0  0  0  0  0  0  0
   10.7117   -0.5780    2.5497 H   0  0  0  0  0  0  0  0  0  0  0  0
   10.4515    0.9284    1.6546 H   0  0  0  0  0  0  0  0  0  0  0  0
   12.2099    1.3110   -0.1808 H   0  0  0  0  0  0  0  0  0  0  0  0
   13.8820    0.9062    0.2734 H   0  0  0  0  0  0  0  0  0  0  0  0
   11.9959    2.8229    1.7749 H   0  0  0  0  0  0  0  0  0  0  0  0
   13.4808    3.2528    0.8814 H   0  0  0  0  0  0  0  0  0  0  0  0
   12.3039    1.5581    3.8773 H   0  0  0  0  0  0  0  0  0  0  0  0
   13.9914    1.1774    4.3317 H   0  0  0  0  0  0  0  0  0  0  0  0
   12.7590   -0.8469    3.3693 H   0  0  0  0  0  0  0  0  0  0  0  0
   14.2137   -0.3902    2.4553 H   0  0  0  0  0  0  0  0  0  0  0  0
    7.1881   -2.4425   -0.6720 H   0  0  0  0  0  0  0  0  0  0  0  0
    5.4845   -2.8668   -0.6135 H   0  0  0  0  0  0  0  0  0  0  0  0
    5.8851   -1.3793    2.5319 H   0  0  0  0  0  0  0  0  0  0  0  0
    6.2604   -2.6052    4.6884 H   0  0  0  0  0  0  0  0  0  0  0  0
    7.5225   -6.0854    2.4697 H   0  0  0  0  0  0  0  0  0  0  0  0
  1  2  1  0
  1 30  1  0
  1 31  1  0
  1 32  1  0
  2  3  2  0
  2 29  1  0
  3  4  1  0
  3 33  1  0
  4  5  2  0
  4 19  1  0
  5  6  1  0
  5 29  1  0
  6  7  2  0
  6 34  1  0
  7  8  1  0
  7 19  1  0
  8  9  2  0
  8 10  1  0
 10 11  1  0
 10 35  1  0
 11 12  1  0
 11 36  1  0
 11 37  1  0
 12 13  1  0
 12 38  1  0
 12 39  1  0
 13 14  1  0
 13 18  1  0
 14 15  1  0
 14 40  1  0
 14 41  1  0
 15 16  1  0
 15 42  1  0
 15 43  1  0
 16 17  1  0
 17 18  1  0
 17 44  1  0
 17 45  1  0
 18 46  1  0
 18 47  1  0
 19 20  1  0
 20 21  1  0
 20 48  1  0
 20 49  1  0
 21 22  2  0
 21 27  1  0
 22 23  1  0
 22 50  1  0
 23 24  2  0
 23 51  1  0
 24 25  1  0
 24 26  1  0
 26 27  2  0
 26 52  1  0
 27 28  1  0
M  END

