
     RDKit          3D

 35 38  0  0  0  0  0  0  0  0999 V2000
   11.2836   -4.9725   -5.2256 C   0  0  0  0  0  0  0  0  0  0  0  0
   11.6681   -3.7648   -5.8283 C   0  0  0  0  0  0  0  0  0  0  0  0
   10.8620   -2.6609   -5.6007 C   0  0  0  0  0  0  0  0  0  0  0  0
    9.7135   -2.7394   -4.8064 C   0  0  0  0  0  0  0  0  0  0  0  0
    9.3168   -3.9160   -4.2041 C   0  0  0  0  0  0  0  0  0  0  0  0
   10.1303   -5.0562   -4.4262 C   0  0  0  0  0  0  0  0  0  0  0  0
    9.7831   -6.3377   -3.8244 C   0  0  0  0  0  0  0  0  0  0  0  0
   10.4029   -7.4760   -3.9076 N   0  0  0  0  0  0  0  0  0  0  0  0
    9.6727   -8.3959   -3.1792 N   0  0  0  0  0  0  0  0  0  0  0  0
    8.6590   -7.7509   -2.6917 C   0  0  0  0  0  0  0  0  0  0  0  0
    7.4256   -8.4004   -1.6370 S   0  0  0  0  0  0  0  0  0  0  0  0
    6.2021   -7.0256   -1.6540 C   0  0  0  0  0  0  0  0  0  0  0  0
    4.9710   -7.4197   -0.8300 C   0  0  2  0  0  0  0  0  0  0  0  0
    5.3086   -7.7756    0.1616 H   0  0  0  0  0  0  0  0  0  0  0  0
    4.0422   -8.4555   -1.5035 C   0  0  0  0  0  0  0  0  0  0  0  0
    2.9498   -7.5768   -2.1298 C   0  0  0  0  0  0  0  0  0  0  0  0
    2.8595   -6.4420   -1.1108 C   0  0  0  0  0  0  0  0  0  0  0  0
    4.1928   -6.2355   -0.6587 O   0  0  0  0  0  0  0  0  0  0  0  0
    8.6537   -6.4398   -3.0538 O   0  0  0  0  0  0  0  0  0  0  0  0
    9.1133   -1.5132   -4.7572 O   0  0  0  0  0  0  0  0  0  0  0  0
    9.9248   -0.6289   -5.5256 C   0  0  0  0  0  0  0  0  0  0  0  0
   11.0066   -1.3880   -6.0646 O   0  0  0  0  0  0  0  0  0  0  0  0
   11.8818   -5.8732   -5.3707 H   0  0  0  0  0  0  0  0  0  0  0  0
   12.5617   -3.6938   -6.4497 H   0  0  0  0  0  0  0  0  0  0  0  0
    8.4205   -3.9642   -3.5864 H   0  0  0  0  0  0  0  0  0  0  0  0
    5.9192   -6.7984   -2.6927 H   0  0  0  0  0  0  0  0  0  0  0  0
    6.6566   -6.1290   -1.2108 H   0  0  0  0  0  0  0  0  0  0  0  0
    3.6063   -9.1208   -0.7415 H   0  0  0  0  0  0  0  0  0  0  0  0
    4.5740   -9.0886   -2.2291 H   0  0  0  0  0  0  0  0  0  0  0  0
    1.9967   -8.1065   -2.2760 H   0  0  0  0  0  0  0  0  0  0  0  0
    3.2723   -7.1869   -3.1093 H   0  0  0  0  0  0  0  0  0  0  0  0
    2.2028   -6.7233   -0.2627 H   0  0  0  0  0  0  0  0  0  0  0  0
    2.4848   -5.4945   -1.5290 H   0  0  0  0  0  0  0  0  0  0  0  0
   10.3214    0.1739   -4.8773 H   0  0  0  0  0  0  0  0  0  0  0  0
    9.3295   -0.1952   -6.3488 H   0  0  0  0  0  0  0  0  0  0  0  0
  1  2  2  0
  1  6  1  0
  1 23  1  0
  2  3  1  0
  2 24  1  0
  3  4  2  0
  3 22  1  0
  4  5  1  0
  4 20  1  0
  5  6  2  0
  5 25  1  0
  6  7  1  0
  7  8  2  0
  7 19  1  0
  8  9  1  0
  9 10  2  0
 10 11  1  0
 10 19  1  0
 11 12  1  0
 12 13  1  0
 12 26  1  0
 12 27  1  0
 13 14  1  1
 13 15  1  0
 13 18  1  0
 15 16  1  0
 15 28  1  0
 15 29  1  0
 16 17  1  0
 16 30  1  0
 16 31  1  0
 17 18  1  0
 17 32  1  0
 17 33  1  0
 20 21  1  0
 21 22  1  0
 21 34  1  0
 21 35  1  0
M  END

