
     RDKit          3D

 40 41  0  0  0  0  0  0  0  0999 V2000
    0.4546   -0.3221    0.5430 C   0  0  0  0  0  0  0  0  0  0  0  0
    1.9773   -0.3114    0.4024 C   0  0  0  0  0  0  0  0  0  0  0  0
    2.6531    0.6611    1.3747 C   0  0  0  0  0  0  0  0  0  0  0  0
    4.1907    0.6864    1.2646 C   0  0  1  0  0  0  0  0  0  0  0  0
    4.6765    1.3555   -0.0280 C   0  0  0  0  0  0  0  0  0  0  0  0
    3.9655    1.8937   -0.8377 O   0  0  0  0  0  0  0  0  0  0  0  0
    6.0095    1.2535   -0.1329 O   0  0  0  0  0  0  0  0  0  0  0  0
    6.6454    1.8677   -1.2736 C   0  0  0  0  0  0  0  0  0  0  0  0
    6.6834    0.9275   -2.4659 C   0  0  0  0  0  0  0  0  0  0  0  0
    4.8162    1.3718    2.4414 C   0  0  0  0  0  0  0  0  0  0  0  0
    4.8327    2.6395    2.7263 N   0  0  0  0  0  0  0  0  0  0  0  0
    5.4950    2.6708    3.9350 C   0  0  0  0  0  0  0  0  0  0  0  0
    5.7889    3.9272    4.6959 C   0  0  0  0  0  0  0  0  0  0  0  0
    4.5644    4.6470    5.2453 C   0  0  0  0  0  0  0  0  0  0  0  0
    3.4859    5.0071    4.4192 C   0  0  0  0  0  0  0  0  0  0  0  0
    2.4078    5.6885    4.9833 C   0  0  0  0  0  0  0  0  0  0  0  0
    2.4387    5.9925    6.3467 C   0  0  0  0  0  0  0  0  0  0  0  0
    3.5576    5.5945    7.0822 C   0  0  0  0  0  0  0  0  0  0  0  0
    4.5929    4.9396    6.5502 N   0  0  0  0  0  0  0  0  0  0  0  0
    5.8636    1.4907    4.3673 N   0  0  0  0  0  0  0  0  0  0  0  0
    5.4137    0.6231    3.3744 O   0  0  0  0  0  0  0  0  0  0  0  0
   -0.0073   -1.0323   -0.1609 H   0  0  0  0  0  0  0  0  0  0  0  0
    0.0284    0.6738    0.3382 H   0  0  0  0  0  0  0  0  0  0  0  0
    0.1444   -0.6125    1.5609 H   0  0  0  0  0  0  0  0  0  0  0  0
    2.2504   -0.0393   -0.6295 H   0  0  0  0  0  0  0  0  0  0  0  0
    2.3718   -1.3295    0.5757 H   0  0  0  0  0  0  0  0  0  0  0  0
    2.3876    0.3850    2.4094 H   0  0  0  0  0  0  0  0  0  0  0  0
    2.2792    1.6843    1.2107 H   0  0  0  0  0  0  0  0  0  0  0  0
    4.5846   -0.3429    1.2598 H   0  0  0  0  0  0  0  0  0  0  0  0
    7.6583    2.1148   -0.9248 H   0  0  0  0  0  0  0  0  0  0  0  0
    6.1113    2.7975   -1.5177 H   0  0  0  0  0  0  0  0  0  0  0  0
    7.1805   -0.0199   -2.2055 H   0  0  0  0  0  0  0  0  0  0  0  0
    7.2444    1.3944   -3.2912 H   0  0  0  0  0  0  0  0  0  0  0  0
    5.6670    0.7090   -2.8258 H   0  0  0  0  0  0  0  0  0  0  0  0
    6.3375    4.6088    4.0222 H   0  0  0  0  0  0  0  0  0  0  0  0
    6.4426    3.6860    5.5428 H   0  0  0  0  0  0  0  0  0  0  0  0
    3.5004    4.7427    3.3603 H   0  0  0  0  0  0  0  0  0  0  0  0
    1.5542    5.9800    4.3653 H   0  0  0  0  0  0  0  0  0  0  0  0
    1.6171    6.5250    6.8311 H   0  0  0  0  0  0  0  0  0  0  0  0
    3.6209    5.8142    8.1548 H   0  0  0  0  0  0  0  0  0  0  0  0
  1  2  1  0
  1 22  1  0
  1 23  1  0
  1 24  1  0
  2  3  1  0
  2 25  1  0
  2 26  1  0
  3  4  1  0
  3 27  1  0
  3 28  1  0
  4  5  1  0
  4 10  1  0
  4 29  1  6
  5  6  2  0
  5  7  1  0
  7  8  1  0
  8  9  1  0
  8 30  1  0
  8 31  1  0
  9 32  1  0
  9 33  1  0
  9 34  1  0
 10 11  2  0
 10 21  1  0
 11 12  1  0
 12 13  1  0
 12 20  2  0
 13 14  1  0
 13 35  1  0
 13 36  1  0
 14 15  2  0
 14 19  1  0
 15 16  1  0
 15 37  1  0
 16 17  2  0
 16 38  1  0
 17 18  1  0
 17 39  1  0
 18 19  2  0
 18 40  1  0
 20 21  1  0
M  END

