
     RDKit          3D

 37 38  0  0  0  0  0  0  0  0999 V2000
    1.1328    2.6963   -1.1528 C   0  0  0  0  0  0  0  0  0  0  0  0
    2.6372    2.4567   -1.1930 C   0  0  0  0  0  0  0  0  0  0  0  0
    2.9751    0.6948   -1.5134 S   0  0  1  0  0  0  0  0  0  0  0  0
    2.4581   -0.0698   -0.3574 O   0  0  0  0  0  0  0  0  0  0  0  0
    2.4834    0.3907   -2.8652 O   0  0  0  0  0  0  0  0  0  0  0  0
    4.7726    0.5742   -1.5185 C   0  0  0  0  0  0  0  0  0  0  0  0
    5.3776    0.4666   -2.7747 C   0  0  0  0  0  0  0  0  0  0  0  0
    6.7659    0.4096   -2.8814 C   0  0  0  0  0  0  0  0  0  0  0  0
    7.5371    0.4696   -1.7167 C   0  0  0  0  0  0  0  0  0  0  0  0
    6.9451    0.5655   -0.4581 C   0  0  0  0  0  0  0  0  0  0  0  0
    5.5413    0.6050   -0.3248 C   0  0  0  0  0  0  0  0  0  0  0  0
    4.9097    0.6681    0.9189 N   0  0  0  0  0  0  0  0  0  0  0  0
    5.4814    0.8912    2.1493 C   0  0  0  0  0  0  0  0  0  0  0  0
    6.6649    1.0983    2.3626 O   0  0  0  0  0  0  0  0  0  0  0  0
    4.4720    0.8599    3.2766 C   0  0  0  0  0  0  0  0  0  0  0  0
    4.9122    1.0168    4.5940 C   0  0  0  0  0  0  0  0  0  0  0  0
    3.9514    0.9622    5.6055 C   0  0  0  0  0  0  0  0  0  0  0  0
    2.6146    0.7567    5.2638 C   0  0  0  0  0  0  0  0  0  0  0  0
    2.2602    0.6162    3.9086 C   0  0  0  0  0  0  0  0  0  0  0  0
    0.8321    0.4193    3.4707 C   0  0  0  0  0  0  0  0  0  0  0  0
    3.1905    0.6714    2.9504 N   0  0  0  0  0  0  0  0  0  0  0  0
    0.9286    3.7618   -0.9656 H   0  0  0  0  0  0  0  0  0  0  0  0
    0.6664    2.1050   -0.3516 H   0  0  0  0  0  0  0  0  0  0  0  0
    0.6693    2.4146   -2.1095 H   0  0  0  0  0  0  0  0  0  0  0  0
    3.1299    2.6948   -0.2382 H   0  0  0  0  0  0  0  0  0  0  0  0
    3.1341    3.0067   -2.0058 H   0  0  0  0  0  0  0  0  0  0  0  0
    4.7355    0.4267   -3.6564 H   0  0  0  0  0  0  0  0  0  0  0  0
    7.2388    0.3229   -3.8619 H   0  0  0  0  0  0  0  0  0  0  0  0
    8.6277    0.4345   -1.7828 H   0  0  0  0  0  0  0  0  0  0  0  0
    7.5512    0.6115    0.4433 H   0  0  0  0  0  0  0  0  0  0  0  0
    3.9043    0.4555    0.9526 H   0  0  0  0  0  0  0  0  0  0  0  0
    5.9739    1.1678    4.7913 H   0  0  0  0  0  0  0  0  0  0  0  0
    4.2425    1.0730    6.6533 H   0  0  0  0  0  0  0  0  0  0  0  0
    1.8440    0.7030    6.0365 H   0  0  0  0  0  0  0  0  0  0  0  0
    0.2487   -0.1398    4.2173 H   0  0  0  0  0  0  0  0  0  0  0  0
    0.8073   -0.1098    2.5080 H   0  0  0  0  0  0  0  0  0  0  0  0
    0.3363    1.3954    3.3266 H   0  0  0  0  0  0  0  0  0  0  0  0
  1  2  1  0
  1 22  1  0
  1 23  1  0
  1 24  1  0
  3  2  1  1
  2 25  1  0
  2 26  1  0
  3  4  2  0
  3  5  2  0
  3  6  1  0
  6  7  2  0
  6 11  1  0
  7  8  1  0
  7 27  1  0
  8  9  2  0
  8 28  1  0
  9 10  1  0
  9 29  1  0
 10 11  2  0
 10 30  1  0
 11 12  1  0
 12 13  1  0
 12 31  1  0
 13 14  2  0
 13 15  1  0
 15 16  2  0
 15 21  1  0
 16 17  1  0
 16 32  1  0
 17 18  2  0
 17 33  1  0
 18 19  1  0
 18 34  1  0
 19 20  1  0
 19 21  2  0
 20 35  1  0
 20 36  1  0
 20 37  1  0
M  END

