
     RDKit          3D

 72 74  0  0  0  0  0  0  0  0999 V2000
    5.1519   -0.9315    0.8845 C   0  0  0  0  0  0  0  0  0  0  0  0
    4.1708    0.1166    0.6353 N   0  0  0  0  0  0  0  0  0  0  0  0
    4.0231    1.0912    1.7174 C   0  0  0  0  0  0  0  0  0  0  0  0
    5.0924    2.1875    1.6988 C   0  0  2  0  0  0  0  0  0  0  0  0
    4.7842    3.1254    2.6736 F   0  0  0  0  0  0  0  0  0  0  0  0
    5.1160    2.8499    0.3231 C   0  0  0  0  0  0  0  0  0  0  0  0
    5.2543    1.8609   -0.7467 N   0  0  0  0  0  0  0  0  0  0  0  0
    4.3066    0.7517   -0.6912 C   0  0  2  0  0  0  0  0  0  0  0  0
    2.8956    1.1725   -1.2169 C   0  0  1  0  0  0  0  0  0  0  0  0
    2.9723    2.3744   -2.1752 C   0  0  0  0  0  0  0  0  0  0  0  0
    2.6506    3.4881   -1.8028 O   0  0  0  0  0  0  0  0  0  0  0  0
    3.4391    2.0938   -3.4342 N   0  0  0  0  0  0  0  0  0  0  0  0
    3.7027    2.9679   -4.4881 C   0  0  0  0  0  0  0  0  0  0  0  0
    3.4098    4.3480   -4.4954 C   0  0  0  0  0  0  0  0  0  0  0  0
    3.6813    5.1297   -5.5408 N   0  0  0  0  0  0  0  0  0  0  0  0
    4.2509    4.6076   -6.6249 C   0  0  0  0  0  0  0  0  0  0  0  0
    4.5766    3.2539   -6.6965 C   0  0  0  0  0  0  0  0  0  0  0  0
    5.1577    2.7704   -7.8065 F   0  0  0  0  0  0  0  0  0  0  0  0
    4.3093    2.3910   -5.6313 C   0  0  0  0  0  0  0  0  0  0  0  0
    4.6151    0.9968   -5.6272 N   0  0  0  0  0  0  0  0  0  0  0  0
    6.0596    0.6946   -5.5530 C   0  0  0  0  0  0  0  0  0  0  0  0
    6.2845   -0.7908   -5.2567 C   0  0  0  0  0  0  0  0  0  0  0  0
    5.5451   -1.7246   -6.2313 C   0  0  2  0  0  0  0  0  0  0  0  0
    6.2442   -1.7975   -7.6035 C   0  0  0  0  0  0  0  0  0  0  0  0
    7.0553   -0.9582   -7.9719 O   0  0  0  0  0  0  0  0  0  0  0  0
    5.8713   -2.8643   -8.3673 N   0  0  0  0  0  0  0  0  0  0  0  0
    6.3590   -3.1771   -9.7314 C   0  0  1  0  0  0  0  0  0  0  0  0
    7.8799   -3.4188   -9.7048 C   0  0  0  0  0  0  0  0  0  0  0  0
    5.6326   -4.4575  -10.1696 C   0  0  0  0  0  0  0  0  0  0  0  0
    6.0133   -2.0249  -10.6924 C   0  0  0  0  0  0  0  0  0  0  0  0
    4.0671   -1.2852   -6.3597 C   0  0  0  0  0  0  0  0  0  0  0  0
    3.9317    0.2069   -6.6638 C   0  0  0  0  0  0  0  0  0  0  0  0
    2.1233   -0.0331   -1.7994 C   0  0  1  0  0  0  0  0  0  0  0  0
    2.2171   -1.2288   -1.0320 N   0  0  0  0  0  0  0  0  0  0  0  0
    0.7077    0.4759   -2.0681 N   0  0  0  0  0  0  0  0  0  0  0  0
   -0.1507   -0.2532   -1.6621 O   0  0  0  0  0  0  0  0  0  0  0  0
    4.9789   -1.3712    1.8787 H   0  0  0  0  0  0  0  0  0  0  0  0
    6.2100   -0.5944    0.8499 H   0  0  0  0  0  0  0  0  0  0  0  0
    5.0230   -1.7325    0.1395 H   0  0  0  0  0  0  0  0  0  0  0  0
    4.0269    0.5646    2.6841 H   0  0  0  0  0  0  0  0  0  0  0  0
    3.0448    1.5971    1.6364 H   0  0  0  0  0  0  0  0  0  0  0  0
    6.0873    1.7707    1.9442 H   0  0  0  0  0  0  0  0  0  0  0  0
    5.9367    3.5800    0.2505 H   0  0  0  0  0  0  0  0  0  0  0  0
    4.1766    3.4098    0.1833 H   0  0  0  0  0  0  0  0  0  0  0  0
    6.2077    1.5076   -0.7917 H   0  0  0  0  0  0  0  0  0  0  0  0
    4.6949   -0.0221   -1.3697 H   0  0  0  0  0  0  0  0  0  0  0  0
    2.3084    1.5585   -0.3712 H   0  0  0  0  0  0  0  0  0  0  0  0
    3.7357    1.1462   -3.6678 H   0  0  0  0  0  0  0  0  0  0  0  0
    2.9455    4.8021   -3.6200 H   0  0  0  0  0  0  0  0  0  0  0  0
    4.4690    5.2624   -7.4760 H   0  0  0  0  0  0  0  0  0  0  0  0
    6.4911    1.3038   -4.7432 H   0  0  0  0  0  0  0  0  0  0  0  0
    6.5710    0.9618   -6.4936 H   0  0  0  0  0  0  0  0  0  0  0  0
    5.9272   -1.0117   -4.2356 H   0  0  0  0  0  0  0  0  0  0  0  0
    7.3650   -0.9985   -5.2806 H   0  0  0  0  0  0  0  0  0  0  0  0
    5.5591   -2.7466   -5.8130 H   0  0  0  0  0  0  0  0  0  0  0  0
    5.2356   -3.5334   -7.9496 H   0  0  0  0  0  0  0  0  0  0  0  0
    8.1288   -4.2532   -9.0295 H   0  0  0  0  0  0  0  0  0  0  0  0
    8.4055   -2.5191   -9.3577 H   0  0  0  0  0  0  0  0  0  0  0  0
    8.2441   -3.6729  -10.7129 H   0  0  0  0  0  0  0  0  0  0  0  0
    5.8603   -5.2978   -9.4924 H   0  0  0  0  0  0  0  0  0  0  0  0
    5.9503   -4.7486  -11.1816 H   0  0  0  0  0  0  0  0  0  0  0  0
    4.5401   -4.3098  -10.1891 H   0  0  0  0  0  0  0  0  0  0  0  0
    6.4992   -1.0945  -10.3698 H   0  0  0  0  0  0  0  0  0  0  0  0
    4.9245   -1.8593  -10.7245 H   0  0  0  0  0  0  0  0  0  0  0  0
    6.3541   -2.2652  -11.7118 H   0  0  0  0  0  0  0  0  0  0  0  0
    3.5527   -1.5028   -5.4078 H   0  0  0  0  0  0  0  0  0  0  0  0
    3.5538   -1.8655   -7.1436 H   0  0  0  0  0  0  0  0  0  0  0  0
    2.8678    0.4909   -6.6696 H   0  0  0  0  0  0  0  0  0  0  0  0
    4.3365    0.4286   -7.6705 H   0  0  0  0  0  0  0  0  0  0  0  0
    2.4509   -0.2132   -2.8475 H   0  0  0  0  0  0  0  0  0  0  0  0
    1.3365   -1.7436   -1.0962 H   0  0  0  0  0  0  0  0  0  0  0  0
    2.4186   -1.0158   -0.0534 H   0  0  0  0  0  0  0  0  0  0  0  0
  1  2  1  0
  1 37  1  0
  1 38  1  0
  1 39  1  0
  2  3  1  0
  2  8  1  0
  3  4  1  0
  3 40  1  0
  3 41  1  0
  4  5  1  0
  4  6  1  0
  4 42  1  1
  6  7  1  0
  6 43  1  0
  6 44  1  0
  7  8  1  0
  7 45  1  0
  8  9  1  0
  8 46  1  6
  9 10  1  0
  9 33  1  0
  9 47  1  1
 10 11  2  0
 10 12  1  0
 12 13  1  0
 12 48  1  0
 13 14  2  0
 13 19  1  0
 14 15  1  0
 14 49  1  0
 15 16  2  0
 16 17  1  0
 16 50  1  0
 17 18  1  0
 17 19  2  0
 19 20  1  0
 20 21  1  0
 20 32  1  0
 21 22  1  0
 21 51  1  0
 21 52  1  0
 22 23  1  0
 22 53  1  0
 22 54  1  0
 23 24  1  0
 23 31  1  0
 23 55  1  1
 24 25  2  0
 24 26  1  0
 27 26  1  1
 26 56  1  0
 27 28  1  0
 27 29  1  0
 27 30  1  0
 28 57  1  0
 28 58  1  0
 28 59  1  0
 29 60  1  0
 29 61  1  0
 29 62  1  0
 30 63  1  0
 30 64  1  0
 30 65  1  0
 31 32  1  0
 31 66  1  0
 31 67  1  0
 32 68  1  0
 32 69  1  0
 33 34  1  0
 33 35  1  0
 33 70  1  6
 34 71  1  0
 34 72  1  0
 35 36  2  0
M  END

