
     RDKit          3D

 37 37  0  0  0  0  0  0  0  0999 V2000
    0.4682    2.0599    1.3001 C   0  0  0  0  0  0  0  0  0  0  0  0
    1.9489    2.3265    1.0277 C   0  0  0  0  0  0  0  0  0  0  0  0
    2.7913    1.0519    0.9325 C   0  0  0  0  0  0  0  0  0  0  0  0
    4.2859    1.3131    0.7273 C   0  0  0  0  0  0  0  0  0  0  0  0
    4.8718    1.9674    1.8771 N   0  0  0  0  0  0  0  0  0  0  0  0
    6.1036    2.3204    1.8414 C   0  0  0  0  0  0  0  0  0  0  0  0
    6.9419    2.1459    0.7377 N   0  0  0  0  0  0  0  0  0  0  0  0
    8.3236    2.3031    0.7404 N   0  0  0  0  0  0  0  0  0  0  0  0
    6.7399    2.9437    2.9042 N   0  0  0  0  0  0  0  0  0  0  0  0
    6.2932    3.2148    4.1908 C   0  0  0  0  0  0  0  0  0  0  0  0
    4.9933    2.9679    4.6718 C   0  0  0  0  0  0  0  0  0  0  0  0
    4.6600    3.2893    5.9897 C   0  0  0  0  0  0  0  0  0  0  0  0
    5.5901    3.8682    6.8573 C   0  0  0  0  0  0  0  0  0  0  0  0
    6.8838    4.1243    6.3930 C   0  0  0  0  0  0  0  0  0  0  0  0
    7.2253    3.7878    5.0874 C   0  0  0  0  0  0  0  0  0  0  0  0
    8.5104    4.0685    4.6039 O   0  0  0  0  0  0  0  0  0  0  0  0
    9.5083    3.1895    4.9090 C   0  0  1  0  0  0  0  0  0  0  0  0
    9.5998    2.2300    3.9346 F   0  0  0  0  0  0  0  0  0  0  0  0
   10.6673    3.8574    4.9063 F   0  0  0  0  0  0  0  0  0  0  0  0
   -0.1090    2.9969    1.3568 H   0  0  0  0  0  0  0  0  0  0  0  0
    0.3268    1.5250    2.2546 H   0  0  0  0  0  0  0  0  0  0  0  0
    0.0161    1.4393    0.5075 H   0  0  0  0  0  0  0  0  0  0  0  0
    2.3687    2.9685    1.8200 H   0  0  0  0  0  0  0  0  0  0  0  0
    2.0549    2.8988    0.0872 H   0  0  0  0  0  0  0  0  0  0  0  0
    2.4231    0.4251    0.0999 H   0  0  0  0  0  0  0  0  0  0  0  0
    2.6674    0.4549    1.8539 H   0  0  0  0  0  0  0  0  0  0  0  0
    4.4132    1.9216   -0.1955 H   0  0  0  0  0  0  0  0  0  0  0  0
    4.7864    0.3410    0.5200 H   0  0  0  0  0  0  0  0  0  0  0  0
    6.5990    1.5186    0.0217 H   0  0  0  0  0  0  0  0  0  0  0  0
    8.7844    1.8478    1.5300 H   0  0  0  0  0  0  0  0  0  0  0  0
    8.5982    3.2835    0.6886 H   0  0  0  0  0  0  0  0  0  0  0  0
    7.7019    3.2100    2.7390 H   0  0  0  0  0  0  0  0  0  0  0  0
    4.2758    2.5200    3.9880 H   0  0  0  0  0  0  0  0  0  0  0  0
    3.6447    3.0859    6.3398 H   0  0  0  0  0  0  0  0  0  0  0  0
    5.3142    4.1276    7.8815 H   0  0  0  0  0  0  0  0  0  0  0  0
    7.6360    4.5939    7.0314 H   0  0  0  0  0  0  0  0  0  0  0  0
    9.3560    2.6762    5.8740 H   0  0  0  0  0  0  0  0  0  0  0  0
  1  2  1  0
  1 20  1  0
  1 21  1  0
  1 22  1  0
  2  3  1  0
  2 23  1  0
  2 24  1  0
  3  4  1  0
  3 25  1  0
  3 26  1  0
  4  5  1  0
  4 27  1  0
  4 28  1  0
  5  6  2  0
  6  7  1  0
  6  9  1  0
  7  8  1  0
  7 29  1  0
  8 30  1  0
  8 31  1  0
  9 10  1  0
  9 32  1  0
 10 11  2  0
 10 15  1  0
 11 12  1  0
 11 33  1  0
 12 13  2  0
 12 34  1  0
 13 14  1  0
 13 35  1  0
 14 15  2  0
 14 36  1  0
 15 16  1  0
 16 17  1  0
 17 18  1  0
 17 19  1  0
 17 37  1  1
M  END

