
     RDKit          3D

 29 29  0  0  0  0  0  0  0  0999 V2000
    5.9410   -3.6160   -3.0335 C   0  0  0  0  0  0  0  0  0  0  0  0
    7.1186   -2.9921   -3.1229 C   0  0  0  0  0  0  0  0  0  0  0  0
    7.3008   -1.5236   -3.3959 C   0  0  0  0  0  0  0  0  0  0  0  0
    7.9475   -0.8038   -2.2105 C   0  0  0  0  0  0  0  0  0  0  0  0
    8.2912    0.5581   -2.5372 O   0  0  0  0  0  0  0  0  0  0  0  0
    7.3374    1.4903   -2.4070 C   0  0  0  0  0  0  0  0  0  0  0  0
    6.2093    1.2731   -2.0355 O   0  0  0  0  0  0  0  0  0  0  0  0
    7.8353    2.8583   -2.7754 C   0  0  0  0  0  0  0  0  0  0  0  0
    6.9362    3.9289   -2.6773 C   0  0  0  0  0  0  0  0  0  0  0  0
    7.3703    5.2091   -3.0110 C   0  0  0  0  0  0  0  0  0  0  0  0
    6.4182    6.3430   -2.9076 N   0  0  0  0  0  0  0  0  0  0  0  0
    5.2900    6.0892   -2.5263 O   0  0  0  0  0  0  0  0  0  0  0  0
    6.8337    7.4469   -3.2119 O   0  0  0  0  0  0  0  0  0  0  0  0
    8.6700    5.4675   -3.4406 C   0  0  0  0  0  0  0  0  0  0  0  0
    9.5390    4.3832   -3.5278 C   0  0  0  0  0  0  0  0  0  0  0  0
   10.9311    4.6224   -3.9822 N   0  0  0  0  0  0  0  0  0  0  0  0
   11.2396    5.7694   -4.2512 O   0  0  0  0  0  0  0  0  0  0  0  0
   11.6671    3.6540   -4.0541 O   0  0  0  0  0  0  0  0  0  0  0  0
    9.1497    3.0843   -3.2045 C   0  0  0  0  0  0  0  0  0  0  0  0
    5.8768   -4.6887   -2.8309 H   0  0  0  0  0  0  0  0  0  0  0  0
    4.9958   -3.0788   -3.1661 H   0  0  0  0  0  0  0  0  0  0  0  0
    8.0396   -3.5737   -2.9818 H   0  0  0  0  0  0  0  0  0  0  0  0
    6.3306   -1.0534   -3.6200 H   0  0  0  0  0  0  0  0  0  0  0  0
    7.9528   -1.3832   -4.2770 H   0  0  0  0  0  0  0  0  0  0  0  0
    8.9025   -1.2729   -1.9337 H   0  0  0  0  0  0  0  0  0  0  0  0
    7.2755   -0.8068   -1.3404 H   0  0  0  0  0  0  0  0  0  0  0  0
    5.9126    3.7586   -2.3437 H   0  0  0  0  0  0  0  0  0  0  0  0
    8.9923    6.4750   -3.6974 H   0  0  0  0  0  0  0  0  0  0  0  0
    9.8644    2.2677   -3.2887 H   0  0  0  0  0  0  0  0  0  0  0  0
  1  2  2  0
  1 20  1  0
  1 21  1  0
  2  3  1  0
  2 22  1  0
  3  4  1  0
  3 23  1  0
  3 24  1  0
  4  5  1  0
  4 25  1  0
  4 26  1  0
  5  6  1  0
  6  7  2  0
  6  8  1  0
  8  9  2  0
  8 19  1  0
  9 10  1  0
  9 27  1  0
 10 11  1  0
 10 14  2  0
 11 12  2  0
 11 13  1  0
 14 15  1  0
 14 28  1  0
 15 16  1  0
 15 19  2  0
 16 17  2  0
 16 18  1  0
 19 29  1  0
M  CHG  4  11   1  13  -1  16   1  18  -1
M  END

