
     RDKit          3D

 42 44  0  0  0  0  0  0  0  0999 V2000
    0.8662   -1.4288    1.1513 O   0  0  0  0  0  0  0  0  0  0  0  0
    1.7771   -1.0782    0.4356 C   0  0  0  0  0  0  0  0  0  0  0  0
    2.7994   -2.0428   -0.1223 C   0  0  0  0  0  0  0  0  0  0  0  0
    3.9895   -1.9462    0.8620 C   0  0  0  0  0  0  0  0  0  0  0  0
    4.7777   -0.6994    0.8560 N   0  0  0  0  0  0  0  0  0  0  0  0
    6.2407   -0.8629    0.7723 C   0  0  0  0  0  0  0  0  0  0  0  0
    6.8546   -0.1703   -0.4570 C   0  0  0  0  0  0  0  0  0  0  0  0
    8.3138   -0.4983   -0.5938 C   0  0  0  0  0  0  0  0  0  0  0  0
    8.7879   -1.7109   -0.6608 N   0  0  0  0  0  0  0  0  0  0  0  0
   10.1529   -1.7152   -0.7762 C   0  0  0  0  0  0  0  0  0  0  0  0
   10.7529   -0.4831   -0.7980 C   0  0  0  0  0  0  0  0  0  0  0  0
    9.5468    0.7485   -0.6622 S   0  0  0  0  0  0  0  0  0  0  0  0
    4.3741    0.5563    1.3124 C   0  0  0  0  0  0  0  0  0  0  0  0
    5.2192    1.3784    1.6332 O   0  0  0  0  0  0  0  0  0  0  0  0
    2.8665    0.9759    1.3255 C   0  0  1  0  0  0  0  0  0  0  0  0
    2.2777    0.7270    2.7351 C   0  0  0  0  0  0  0  0  0  0  0  0
    0.8719    1.3142    2.9216 C   0  0  0  0  0  0  0  0  0  0  0  0
    0.8222    2.8031    2.5632 C   0  0  0  0  0  0  0  0  0  0  0  0
    1.3768    3.0494    1.1558 C   0  0  0  0  0  0  0  0  0  0  0  0
    2.7949    2.4906    1.0094 C   0  0  0  0  0  0  0  0  0  0  0  0
    2.1372    0.2656    0.2452 N   0  0  0  0  0  0  0  0  0  0  0  0
    3.1266   -1.7890   -1.1433 H   0  0  0  0  0  0  0  0  0  0  0  0
    2.4045   -3.0686   -0.1079 H   0  0  0  0  0  0  0  0  0  0  0  0
    4.6907   -2.7558    0.6261 H   0  0  0  0  0  0  0  0  0  0  0  0
    3.6061   -2.1576    1.8765 H   0  0  0  0  0  0  0  0  0  0  0  0
    6.4711   -1.9337    0.7171 H   0  0  0  0  0  0  0  0  0  0  0  0
    6.7103   -0.4576    1.6809 H   0  0  0  0  0  0  0  0  0  0  0  0
    6.7107    0.9157   -0.3781 H   0  0  0  0  0  0  0  0  0  0  0  0
    6.3299   -0.5163   -1.3647 H   0  0  0  0  0  0  0  0  0  0  0  0
   10.6868   -2.6652   -0.8444 H   0  0  0  0  0  0  0  0  0  0  0  0
   11.8113   -0.2439   -0.8836 H   0  0  0  0  0  0  0  0  0  0  0  0
    2.9795    1.2025    3.4411 H   0  0  0  0  0  0  0  0  0  0  0  0
    2.2688   -0.3473    2.9732 H   0  0  0  0  0  0  0  0  0  0  0  0
    0.1680    0.7474    2.2933 H   0  0  0  0  0  0  0  0  0  0  0  0
    0.5577    1.1590    3.9675 H   0  0  0  0  0  0  0  0  0  0  0  0
    1.4181    3.3800    3.2950 H   0  0  0  0  0  0  0  0  0  0  0  0
   -0.2122    3.1780    2.6395 H   0  0  0  0  0  0  0  0  0  0  0  0
    1.3865    4.1285    0.9281 H   0  0  0  0  0  0  0  0  0  0  0  0
    0.7174    2.5715    0.4118 H   0  0  0  0  0  0  0  0  0  0  0  0
    3.4886    3.0086    1.6865 H   0  0  0  0  0  0  0  0  0  0  0  0
    3.1786    2.6631   -0.0114 H   0  0  0  0  0  0  0  0  0  0  0  0
    2.6804    0.3680   -0.6100 H   0  0  0  0  0  0  0  0  0  0  0  0
  1  2  2  0
  2  3  1  0
  2 21  1  0
  3  4  1  0
  3 22  1  0
  3 23  1  0
  4  5  1  0
  4 24  1  0
  4 25  1  0
  5  6  1  0
  5 13  1  0
  6  7  1  0
  6 26  1  0
  6 27  1  0
  7  8  1  0
  7 28  1  0
  7 29  1  0
  8  9  2  0
  8 12  1  0
  9 10  1  0
 10 11  2  0
 10 30  1  0
 11 12  1  0
 11 31  1  0
 13 14  2  0
 15 13  1  1
 15 16  1  0
 15 20  1  0
 15 21  1  0
 16 17  1  0
 16 32  1  0
 16 33  1  0
 17 18  1  0
 17 34  1  0
 17 35  1  0
 18 19  1  0
 18 36  1  0
 18 37  1  0
 19 20  1  0
 19 38  1  0
 19 39  1  0
 20 40  1  0
 20 41  1  0
 21 42  1  0
M  END

