
     RDKit          3D

 36 38  0  0  0  0  0  0  0  0999 V2000
    0.8414    0.0886    0.0099 C   0  0  0  0  0  0  0  0  0  0  0  0
    2.3496    0.0038   -0.0037 C   0  0  0  0  0  0  0  0  0  0  0  0
    3.0232   -1.2047    0.2522 C   0  0  0  0  0  0  0  0  0  0  0  0
    4.4143   -1.2937    0.2388 C   0  0  0  0  0  0  0  0  0  0  0  0
    5.1894   -0.1532   -0.0366 C   0  0  0  0  0  0  0  0  0  0  0  0
    4.5311    1.0714   -0.2802 C   0  0  0  0  0  0  0  0  0  0  0  0
    3.1331    1.1343   -0.2602 C   0  0  0  0  0  0  0  0  0  0  0  0
    5.3259    2.3171   -0.4511 C   0  0  0  0  0  0  0  0  0  0  0  0
    4.8029    3.4234   -0.4708 O   0  0  0  0  0  0  0  0  0  0  0  0
    6.7057    2.1523   -0.5391 N   0  0  0  0  0  0  0  0  0  0  0  0
    7.5107    3.3516   -0.7184 C   0  0  0  0  0  0  0  0  0  0  0  0
    7.2967    0.8248   -0.8162 C   0  0  1  0  0  0  0  0  0  0  0  0
    7.2232    0.5410   -2.3486 C   0  0  0  0  0  0  0  0  0  0  0  0
    7.8278   -0.7996   -2.7903 C   0  0  0  0  0  0  0  0  0  0  0  0
    9.2934   -0.9692   -2.3907 C   0  0  0  0  0  0  0  0  0  0  0  0
    9.5423   -0.8567   -0.5766 S   0  0  0  0  0  0  0  0  0  0  0  0
    8.7669    0.7855   -0.3405 C   0  0  0  0  0  0  0  0  0  0  0  0
    6.5676   -0.1619   -0.0368 N   0  0  0  0  0  0  0  0  0  0  0  0
    0.3847   -0.8869    0.2352 H   0  0  0  0  0  0  0  0  0  0  0  0
    0.4455    0.4254   -0.9630 H   0  0  0  0  0  0  0  0  0  0  0  0
    0.4836    0.8071    0.7666 H   0  0  0  0  0  0  0  0  0  0  0  0
    2.4404   -2.1062    0.4646 H   0  0  0  0  0  0  0  0  0  0  0  0
    4.9076   -2.2487    0.4397 H   0  0  0  0  0  0  0  0  0  0  0  0
    2.6748    2.1105   -0.4377 H   0  0  0  0  0  0  0  0  0  0  0  0
    6.8282    4.2078   -0.6631 H   0  0  0  0  0  0  0  0  0  0  0  0
    8.0144    3.3716   -1.7009 H   0  0  0  0  0  0  0  0  0  0  0  0
    8.2748    3.4547    0.0683 H   0  0  0  0  0  0  0  0  0  0  0  0
    7.7337    1.3654   -2.8765 H   0  0  0  0  0  0  0  0  0  0  0  0
    6.1651    0.5843   -2.6505 H   0  0  0  0  0  0  0  0  0  0  0  0
    7.7442   -0.8855   -3.8879 H   0  0  0  0  0  0  0  0  0  0  0  0
    7.2385   -1.6318   -2.3701 H   0  0  0  0  0  0  0  0  0  0  0  0
    9.9289   -0.2105   -2.8793 H   0  0  0  0  0  0  0  0  0  0  0  0
    9.6785   -1.9583   -2.6815 H   0  0  0  0  0  0  0  0  0  0  0  0
    9.3698    1.5321   -0.8751 H   0  0  0  0  0  0  0  0  0  0  0  0
    8.8115    1.0006    0.7368 H   0  0  0  0  0  0  0  0  0  0  0  0
    7.0455   -1.0522    0.0614 H   0  0  0  0  0  0  0  0  0  0  0  0
  1  2  1  0
  1 19  1  0
  1 20  1  0
  1 21  1  0
  2  3  2  0
  2  7  1  0
  3  4  1  0
  3 22  1  0
  4  5  2  0
  4 23  1  0
  5  6  1  0
  5 18  1  0
  6  7  2  0
  6  8  1  0
  7 24  1  0
  8  9  2  0
  8 10  1  0
 10 11  1  0
 12 10  1  6
 11 25  1  0
 11 26  1  0
 11 27  1  0
 12 13  1  0
 12 17  1  0
 12 18  1  0
 13 14  1  0
 13 28  1  0
 13 29  1  0
 14 15  1  0
 14 30  1  0
 14 31  1  0
 15 16  1  0
 15 32  1  0
 15 33  1  0
 16 17  1  0
 17 34  1  0
 17 35  1  0
 18 36  1  0
M  END

