
     RDKit          3D

 34 35  0  0  0  0  0  0  0  0999 V2000
    0.7893    0.3956    0.2704 C   0  0  0  0  0  0  0  0  0  0  0  0
    2.3019    0.3493    0.0892 C   0  0  0  0  0  0  0  0  0  0  0  0
    2.9724    0.9827    1.2212 N   0  0  0  0  0  0  0  0  0  0  0  0
    4.4180    0.8585    1.2852 C   0  0  1  0  0  0  0  0  0  0  0  0
    5.1303    1.3944    0.0074 C   0  0  0  0  0  0  0  0  0  0  0  0
    4.7678    2.7821   -0.4245 C   0  0  0  0  0  0  0  0  0  0  0  0
    3.7690    3.0847   -1.2443 N   0  0  0  0  0  0  0  0  0  0  0  0
    3.8326    4.4354   -1.3371 C   0  0  0  0  0  0  0  0  0  0  0  0
    4.8060    4.9932   -0.6376 N   0  0  0  0  0  0  0  0  0  0  0  0
    5.4026    3.9307   -0.0552 N   0  0  0  0  0  0  0  0  0  0  0  0
    6.5599    4.1429    0.7909 C   0  0  0  0  0  0  0  0  0  0  0  0
    4.9567    1.5413    2.5364 C   0  0  0  0  0  0  0  0  0  0  0  0
    4.2276    2.5153    3.2346 C   0  0  0  0  0  0  0  0  0  0  0  0
    4.7884    3.1011    4.3709 C   0  0  0  0  0  0  0  0  0  0  0  0
    6.0633    2.6932    4.7645 C   0  0  0  0  0  0  0  0  0  0  0  0
    6.8284    3.3718    6.1765 Cl  0  0  0  0  0  0  0  0  0  0  0  0
    6.7294    1.7230    4.0028 C   0  0  0  0  0  0  0  0  0  0  0  0
    6.1863    1.1694    2.9221 N   0  0  0  0  0  0  0  0  0  0  0  0
    0.2774   -0.0513   -0.5958 H   0  0  0  0  0  0  0  0  0  0  0  0
    0.4465    1.4366    0.3761 H   0  0  0  0  0  0  0  0  0  0  0  0
    0.4698   -0.1623    1.1683 H   0  0  0  0  0  0  0  0  0  0  0  0
    2.5687    0.9022   -0.8243 H   0  0  0  0  0  0  0  0  0  0  0  0
    2.6277   -0.7067   -0.0549 H   0  0  0  0  0  0  0  0  0  0  0  0
    2.5778    0.6183    2.0889 H   0  0  0  0  0  0  0  0  0  0  0  0
    4.7559   -0.1995    1.3594 H   0  0  0  0  0  0  0  0  0  0  0  0
    4.8925    0.7273   -0.8329 H   0  0  0  0  0  0  0  0  0  0  0  0
    6.2117    1.3029    0.1854 H   0  0  0  0  0  0  0  0  0  0  0  0
    3.1478    5.0302   -1.9419 H   0  0  0  0  0  0  0  0  0  0  0  0
    7.3017    4.7464    0.2485 H   0  0  0  0  0  0  0  0  0  0  0  0
    7.0019    3.1782    1.0657 H   0  0  0  0  0  0  0  0  0  0  0  0
    6.2710    4.6761    1.7089 H   0  0  0  0  0  0  0  0  0  0  0  0
    3.2381    2.8028    2.8772 H   0  0  0  0  0  0  0  0  0  0  0  0
    4.2511    3.8608    4.9422 H   0  0  0  0  0  0  0  0  0  0  0  0
    7.7337    1.3958    4.2936 H   0  0  0  0  0  0  0  0  0  0  0  0
  1  2  1  0
  1 19  1  0
  1 20  1  0
  1 21  1  0
  2  3  1  0
  2 22  1  0
  2 23  1  0
  3  4  1  0
  3 24  1  0
  4  5  1  0
  4 12  1  0
  4 25  1  1
  5  6  1  0
  5 26  1  0
  5 27  1  0
  6  7  2  0
  6 10  1  0
  7  8  1  0
  8  9  2  0
  8 28  1  0
  9 10  1  0
 10 11  1  0
 11 29  1  0
 11 30  1  0
 11 31  1  0
 12 13  2  0
 12 18  1  0
 13 14  1  0
 13 32  1  0
 14 15  2  0
 14 33  1  0
 15 16  1  0
 15 17  1  0
 17 18  2  0
 17 34  1  0
M  END

