
     RDKit          3D

 38 39  0  0  0  0  0  0  0  0999 V2000
    2.9931   -0.7950    3.3142 C   0  0  0  0  0  0  0  0  0  0  0  0
    3.1220   -0.0937    1.9821 C   0  0  0  0  0  0  0  0  0  0  0  0
    4.0799    0.9190    1.8253 C   0  0  0  0  0  0  0  0  0  0  0  0
    4.2370    1.6020    0.6180 C   0  0  0  0  0  0  0  0  0  0  0  0
    3.4247    1.2740   -0.4717 C   0  0  0  0  0  0  0  0  0  0  0  0
    2.4676    0.2724   -0.3363 C   0  0  0  0  0  0  0  0  0  0  0  0
    2.2893   -0.4237    0.8774 C   0  0  0  0  0  0  0  0  0  0  0  0
    1.2724   -1.4733    1.0148 C   0  0  0  0  0  0  0  0  0  0  0  0
    0.2624   -1.7603    0.1682 C   0  0  0  0  0  0  0  0  0  0  0  0
   -0.6704   -2.8782    0.5054 C   0  0  0  0  0  0  0  0  0  0  0  0
   -0.5585   -3.4896    1.5639 O   0  0  0  0  0  0  0  0  0  0  0  0
   -1.6656   -3.1970   -0.3989 N   0  0  0  0  0  0  0  0  0  0  0  0
   -1.8995   -2.6110   -1.7122 C   0  0  0  0  0  0  0  0  0  0  0  0
   -1.9455   -3.7080   -2.7797 C   0  0  0  0  0  0  0  0  0  0  0  0
   -2.9462   -4.6983   -2.4174 N   0  0  0  0  0  0  0  0  0  0  0  0
   -2.6725   -5.3364   -1.1299 C   0  0  2  0  0  0  0  0  0  0  0  0
   -3.7420   -6.3778   -0.8179 C   0  0  0  0  0  0  0  0  0  0  0  0
   -2.6214   -4.2451   -0.0524 C   0  0  0  0  0  0  0  0  0  0  0  0
    3.7188   -0.3949    4.0368 H   0  0  0  0  0  0  0  0  0  0  0  0
    3.1731   -1.8793    3.2278 H   0  0  0  0  0  0  0  0  0  0  0  0
    1.9872   -0.6739    3.7478 H   0  0  0  0  0  0  0  0  0  0  0  0
    4.7184    1.1768    2.6750 H   0  0  0  0  0  0  0  0  0  0  0  0
    4.9947    2.3845    0.5273 H   0  0  0  0  0  0  0  0  0  0  0  0
    3.5421    1.7935   -1.4260 H   0  0  0  0  0  0  0  0  0  0  0  0
    1.8502    0.0093   -1.1979 H   0  0  0  0  0  0  0  0  0  0  0  0
    1.3146   -2.1032    1.9070 H   0  0  0  0  0  0  0  0  0  0  0  0
    0.1098   -1.1675   -0.7332 H   0  0  0  0  0  0  0  0  0  0  0  0
   -1.1174   -1.8880   -1.9647 H   0  0  0  0  0  0  0  0  0  0  0  0
   -2.8691   -2.0777   -1.7101 H   0  0  0  0  0  0  0  0  0  0  0  0
   -0.9214   -4.1364   -2.8778 H   0  0  0  0  0  0  0  0  0  0  0  0
   -2.2121   -3.2577   -3.7502 H   0  0  0  0  0  0  0  0  0  0  0  0
   -3.0408   -5.3999   -3.1498 H   0  0  0  0  0  0  0  0  0  0  0  0
   -1.6757   -5.8357   -1.1293 H   0  0  0  0  0  0  0  0  0  0  0  0
   -4.7395   -5.9109   -0.7888 H   0  0  0  0  0  0  0  0  0  0  0  0
   -3.5502   -6.8621    0.1522 H   0  0  0  0  0  0  0  0  0  0  0  0
   -3.7601   -7.1673   -1.5875 H   0  0  0  0  0  0  0  0  0  0  0  0
   -2.3214   -4.6596    0.9170 H   0  0  0  0  0  0  0  0  0  0  0  0
   -3.6302   -3.7997    0.0441 H   0  0  0  0  0  0  0  0  0  0  0  0
  1  2  1  0
  1 19  1  0
  1 20  1  0
  1 21  1  0
  2  3  2  0
  2  7  1  0
  3  4  1  0
  3 22  1  0
  4  5  2  0
  4 23  1  0
  5  6  1  0
  5 24  1  0
  6  7  2  0
  6 25  1  0
  7  8  1  0
  8  9  2  0
  8 26  1  0
  9 10  1  0
  9 27  1  0
 10 11  2  0
 10 12  1  0
 12 13  1  0
 12 18  1  0
 13 14  1  0
 13 28  1  0
 13 29  1  0
 14 15  1  0
 14 30  1  0
 14 31  1  0
 15 16  1  0
 15 32  1  0
 16 17  1  0
 16 18  1  0
 16 33  1  6
 17 34  1  0
 17 35  1  0
 17 36  1  0
 18 37  1  0
 18 38  1  0
M  END

