
     RDKit          3D

 43 44  0  0  0  0  0  0  0  0999 V2000
   -1.7254    2.5697   -0.8095 C   0  0  0  0  0  0  0  0  0  0  0  0
   -0.5230    1.7181   -1.0192 C   0  0  0  0  0  0  0  0  0  0  0  0
   -0.2548    0.6458   -1.8268 C   0  0  0  0  0  0  0  0  0  0  0  0
    1.1063    0.2695   -1.5730 C   0  0  0  0  0  0  0  0  0  0  0  0
    1.5770    1.1370   -0.6263 C   0  0  0  0  0  0  0  0  0  0  0  0
    2.9000    1.2904    0.0589 C   0  0  0  0  0  0  0  0  0  0  0  0
    3.1367    0.3893    1.2015 N   0  0  0  0  0  0  0  0  0  0  0  0
    3.5548   -0.8758    0.8836 C   0  0  0  0  0  0  0  0  0  0  0  0
    3.6769   -1.2301   -0.2849 O   0  0  0  0  0  0  0  0  0  0  0  0
    3.8882   -1.8913    2.0129 C   0  0  2  0  0  0  0  0  0  0  0  0
    4.4854   -1.3795    2.7852 H   0  0  0  0  0  0  0  0  0  0  0  0
    4.6940   -3.0027    1.5237 N   0  0  0  0  0  0  0  0  0  0  0  0
    2.6242   -2.4308    2.6783 C   0  0  0  0  0  0  0  0  0  0  0  0
    2.6620   -2.8359    4.0219 C   0  0  0  0  0  0  0  0  0  0  0  0
    1.5336   -3.3829    4.6362 C   0  0  0  0  0  0  0  0  0  0  0  0
    0.3477   -3.5410    3.9109 C   0  0  0  0  0  0  0  0  0  0  0  0
    0.3016   -3.1505    2.5703 C   0  0  0  0  0  0  0  0  0  0  0  0
    1.4324   -2.5997    1.9574 C   0  0  0  0  0  0  0  0  0  0  0  0
    2.9624    0.9008    2.5736 C   0  0  1  0  0  0  0  0  0  0  0  0
    4.0351    1.9392    2.9345 C   0  0  0  0  0  0  0  0  0  0  0  0
    1.5417    1.4225    2.8220 C   0  0  0  0  0  0  0  0  0  0  0  0
    0.5875    2.0209   -0.2882 O   0  0  0  0  0  0  0  0  0  0  0  0
   -2.5426    2.2335   -1.4625 H   0  0  0  0  0  0  0  0  0  0  0  0
   -1.5151    3.6286   -1.0377 H   0  0  0  0  0  0  0  0  0  0  0  0
   -2.0783    2.5240    0.2349 H   0  0  0  0  0  0  0  0  0  0  0  0
   -0.9490    0.1819   -2.5248 H   0  0  0  0  0  0  0  0  0  0  0  0
    1.6782   -0.5404   -2.0186 H   0  0  0  0  0  0  0  0  0  0  0  0
    2.9975    2.3274    0.4070 H   0  0  0  0  0  0  0  0  0  0  0  0
    3.6935    1.1003   -0.6762 H   0  0  0  0  0  0  0  0  0  0  0  0
    4.2007   -3.4288    0.7363 H   0  0  0  0  0  0  0  0  0  0  0  0
    5.5526   -2.6325    1.1117 H   0  0  0  0  0  0  0  0  0  0  0  0
    3.5918   -2.7277    4.5874 H   0  0  0  0  0  0  0  0  0  0  0  0
    1.5801   -3.6901    5.6844 H   0  0  0  0  0  0  0  0  0  0  0  0
   -0.5367   -3.9689    4.3901 H   0  0  0  0  0  0  0  0  0  0  0  0
   -0.6193   -3.2742    1.9944 H   0  0  0  0  0  0  0  0  0  0  0  0
    1.3852   -2.3017    0.9069 H   0  0  0  0  0  0  0  0  0  0  0  0
    3.0977    0.0418    3.2410 H   0  0  0  0  0  0  0  0  0  0  0  0
    3.9399    2.8569    2.3320 H   0  0  0  0  0  0  0  0  0  0  0  0
    5.0470    1.5337    2.7787 H   0  0  0  0  0  0  0  0  0  0  0  0
    3.9415    2.2322    3.9922 H   0  0  0  0  0  0  0  0  0  0  0  0
    1.3052    2.2983    2.1999 H   0  0  0  0  0  0  0  0  0  0  0  0
    1.4337    1.7165    3.8781 H   0  0  0  0  0  0  0  0  0  0  0  0
    0.7978    0.6418    2.6047 H   0  0  0  0  0  0  0  0  0  0  0  0
  1  2  1  0
  1 23  1  0
  1 24  1  0
  1 25  1  0
  2  3  2  0
  2 22  1  0
  3  4  1  0
  3 26  1  0
  4  5  2  0
  4 27  1  0
  5  6  1  0
  5 22  1  0
  6  7  1  0
  6 28  1  0
  6 29  1  0
  7  8  1  0
  7 19  1  0
  8  9  2  0
  8 10  1  0
 10 11  1  1
 10 12  1  0
 10 13  1  0
 12 30  1  0
 12 31  1  0
 13 14  2  0
 13 18  1  0
 14 15  1  0
 14 32  1  0
 15 16  2  0
 15 33  1  0
 16 17  1  0
 16 34  1  0
 17 18  2  0
 17 35  1  0
 18 36  1  0
 19 20  1  0
 19 21  1  0
 19 37  1  1
 20 38  1  0
 20 39  1  0
 20 40  1  0
 21 41  1  0
 21 42  1  0
 21 43  1  0
M  END

