
     RDKit          3D

 38 39  0  0  0  0  0  0  0  0999 V2000
    0.9565    1.7439    3.8070 C   0  0  0  0  0  0  0  0  0  0  0  0
    2.4568    2.0363    3.7716 C   0  0  0  0  0  0  0  0  0  0  0  0
    2.8836    2.8343    2.5356 C   0  0  0  0  0  0  0  0  0  0  0  0
    4.3593    3.1963    2.4848 C   0  0  0  0  0  0  0  0  0  0  0  0
    5.1316    2.0002    2.4009 O   0  0  0  0  0  0  0  0  0  0  0  0
    6.4844    2.0708    2.2640 C   0  0  0  0  0  0  0  0  0  0  0  0
    7.2177    3.2647    2.2748 C   0  0  0  0  0  0  0  0  0  0  0  0
    8.6081    3.2391    2.1201 C   0  0  0  0  0  0  0  0  0  0  0  0
    9.2489    2.0191    1.9523 C   0  0  0  0  0  0  0  0  0  0  0  0
   10.5805    1.9846    1.7945 F   0  0  0  0  0  0  0  0  0  0  0  0
    8.5356    0.8209    1.9376 C   0  0  0  0  0  0  0  0  0  0  0  0
    7.1493    0.8312    2.1006 C   0  0  0  0  0  0  0  0  0  0  0  0
    6.3133   -0.4479    2.0838 C   0  0  1  0  0  0  0  0  0  0  0  0
    7.0068   -1.6172    1.5780 N   0  0  0  0  0  0  0  0  0  0  0  0
    7.8239   -2.4247    2.3246 C   0  0  0  0  0  0  0  0  0  0  0  0
    8.5704   -3.2598    1.8640 O   0  0  0  0  0  0  0  0  0  0  0  0
    7.7401   -2.2071    3.7144 N   0  0  0  0  0  0  0  0  0  0  0  0
    6.8405   -1.4163    4.3974 C   0  0  0  0  0  0  0  0  0  0  0  0
    6.8758   -1.2513    5.5920 O   0  0  0  0  0  0  0  0  0  0  0  0
    5.7572   -0.7896    3.4955 C   0  0  2  0  0  0  0  0  0  0  0  0
    4.6026   -1.6921    3.4127 C   0  0  0  0  0  0  0  0  0  0  0  0
    3.6829   -2.3923    3.3341 N   0  0  0  0  0  0  0  0  0  0  0  0
    0.6826    1.1655    4.7028 H   0  0  0  0  0  0  0  0  0  0  0  0
    0.6426    1.1585    2.9270 H   0  0  0  0  0  0  0  0  0  0  0  0
    0.3644    2.6745    3.8150 H   0  0  0  0  0  0  0  0  0  0  0  0
    3.0144    1.0856    3.8008 H   0  0  0  0  0  0  0  0  0  0  0  0
    2.7497    2.5928    4.6808 H   0  0  0  0  0  0  0  0  0  0  0  0
    2.3170    3.7817    2.4907 H   0  0  0  0  0  0  0  0  0  0  0  0
    2.6240    2.2769    1.6182 H   0  0  0  0  0  0  0  0  0  0  0  0
    4.6536    3.7625    3.3886 H   0  0  0  0  0  0  0  0  0  0  0  0
    4.5704    3.8310    1.6050 H   0  0  0  0  0  0  0  0  0  0  0  0
    6.7180    4.2241    2.4030 H   0  0  0  0  0  0  0  0  0  0  0  0
    9.1937    4.1602    2.1261 H   0  0  0  0  0  0  0  0  0  0  0  0
    9.0829   -0.1098    1.7826 H   0  0  0  0  0  0  0  0  0  0  0  0
    5.4431   -0.2638    1.4375 H   0  0  0  0  0  0  0  0  0  0  0  0
    7.0926   -1.7501    0.5766 H   0  0  0  0  0  0  0  0  0  0  0  0
    8.4146   -2.7263    4.2719 H   0  0  0  0  0  0  0  0  0  0  0  0
    5.4267    0.1299    3.9959 H   0  0  0  0  0  0  0  0  0  0  0  0
  1  2  1  0
  1 23  1  0
  1 24  1  0
  1 25  1  0
  2  3  1  0
  2 26  1  0
  2 27  1  0
  3  4  1  0
  3 28  1  0
  3 29  1  0
  4  5  1  0
  4 30  1  0
  4 31  1  0
  5  6  1  0
  6  7  2  0
  6 12  1  0
  7  8  1  0
  7 32  1  0
  8  9  2  0
  8 33  1  0
  9 10  1  0
  9 11  1  0
 11 12  2  0
 11 34  1  0
 12 13  1  0
 13 14  1  0
 13 20  1  0
 13 35  1  6
 14 15  1  0
 14 36  1  0
 15 16  2  0
 15 17  1  0
 17 18  1  0
 17 37  1  0
 18 19  2  0
 18 20  1  0
 20 21  1  0
 20 38  1  1
 21 22  3  0
M  END

