
     RDKit          3D

 58 60  0  0  0  0  0  0  0  0999 V2000
    3.3296   -1.2529   -0.5799 C   0  0  0  0  0  0  0  0  0  0  0  0
    2.5172   -0.0067   -0.1843 C   0  0  1  0  0  0  0  0  0  0  0  0
    2.5240    0.9750   -1.3795 C   0  0  0  0  0  0  0  0  0  0  0  0
    1.0646   -0.4492    0.1100 C   0  0  0  0  0  0  0  0  0  0  0  0
    3.0953    0.6981    1.0572 C   0  0  0  0  0  0  0  0  0  0  0  0
    4.2376    0.2406    1.7323 C   0  0  0  0  0  0  0  0  0  0  0  0
    4.7309    0.8976    2.8645 C   0  0  0  0  0  0  0  0  0  0  0  0
    4.1019    2.0497    3.3576 C   0  0  0  0  0  0  0  0  0  0  0  0
    4.6212    2.8556    4.5141 C   0  0  0  0  0  0  0  0  0  0  0  0
    4.4016    4.0544    4.5645 O   0  0  0  0  0  0  0  0  0  0  0  0
    5.4120    2.1978    5.6131 C   0  0  0  0  0  0  0  0  0  0  0  0
    6.3367    2.9855    6.3204 C   0  0  0  0  0  0  0  0  0  0  0  0
    7.0501    2.4280    7.3785 C   0  0  0  0  0  0  0  0  0  0  0  0
    6.8472    1.1024    7.7757 C   0  0  0  0  0  0  0  0  0  0  0  0
    5.9034    0.3142    7.0931 C   0  0  0  0  0  0  0  0  0  0  0  0
    5.6041   -1.0207    7.4269 N   0  0  0  0  0  0  0  0  0  0  0  0
    6.1297   -1.7888    8.4323 C   0  0  0  0  0  0  0  0  0  0  0  0
    7.0054   -1.3944    9.1878 O   0  0  0  0  0  0  0  0  0  0  0  0
    5.6268   -3.2171    8.5583 C   0  0  0  0  0  0  0  0  0  0  0  0
    6.4606   -4.0516    9.3297 C   0  0  0  0  0  0  0  0  0  0  0  0
    6.1916   -5.3896    9.5815 C   0  0  0  0  0  0  0  0  0  0  0  0
    5.0265   -5.9714    9.0482 C   0  0  0  0  0  0  0  0  0  0  0  0
    4.6797   -7.3122    9.2419 N   0  0  0  0  0  0  0  0  0  0  0  0
    5.6269   -8.5869    9.8298 S   0  0  1  0  0  0  0  0  0  0  0  0
    6.8100   -8.9042    8.5118 C   0  0  0  0  0  0  0  0  0  0  0  0
    6.3799   -8.1287   10.9925 O   0  0  0  0  0  0  0  0  0  0  0  0
    4.6947   -9.7068    9.8949 O   0  0  0  0  0  0  0  0  0  0  0  0
    4.1623   -5.1663    8.2884 C   0  0  0  0  0  0  0  0  0  0  0  0
    4.4563   -3.8223    8.0569 C   0  0  0  0  0  0  0  0  0  0  0  0
    3.2360   -2.9578    7.1174 Cl  0  0  0  0  0  0  0  0  0  0  0  0
    5.1995    0.8712    6.0088 C   0  0  0  0  0  0  0  0  0  0  0  0
    2.9726    2.5316    2.6712 C   0  0  0  0  0  0  0  0  0  0  0  0
    2.4765    1.8626    1.5583 C   0  0  0  0  0  0  0  0  0  0  0  0
    2.8795   -1.7238   -1.4679 H   0  0  0  0  0  0  0  0  0  0  0  0
    3.3431   -2.0074    0.2223 H   0  0  0  0  0  0  0  0  0  0  0  0
    4.3716   -1.0021   -0.8327 H   0  0  0  0  0  0  0  0  0  0  0  0
    2.1103    0.4878   -2.2777 H   0  0  0  0  0  0  0  0  0  0  0  0
    3.5483    1.3063   -1.6130 H   0  0  0  0  0  0  0  0  0  0  0  0
    1.9194    1.8724   -1.1794 H   0  0  0  0  0  0  0  0  0  0  0  0
    0.6316   -0.9526   -0.7699 H   0  0  0  0  0  0  0  0  0  0  0  0
    0.4161    0.4047    0.3577 H   0  0  0  0  0  0  0  0  0  0  0  0
    1.0294   -1.1535    0.9565 H   0  0  0  0  0  0  0  0  0  0  0  0
    4.7696   -0.6422    1.3776 H   0  0  0  0  0  0  0  0  0  0  0  0
    5.6346    0.5184    3.3456 H   0  0  0  0  0  0  0  0  0  0  0  0
    6.4747    4.0266    6.0244 H   0  0  0  0  0  0  0  0  0  0  0  0
    7.7808    3.0342    7.9202 H   0  0  0  0  0  0  0  0  0  0  0  0
    7.3987    0.6713    8.6071 H   0  0  0  0  0  0  0  0  0  0  0  0
    4.8768   -1.4468    6.8640 H   0  0  0  0  0  0  0  0  0  0  0  0
    7.3516   -3.5858    9.7537 H   0  0  0  0  0  0  0  0  0  0  0  0
    6.8578   -5.9746   10.2141 H   0  0  0  0  0  0  0  0  0  0  0  0
    3.7860   -7.6428    8.8897 H   0  0  0  0  0  0  0  0  0  0  0  0
    7.3904   -7.9922    8.3193 H   0  0  0  0  0  0  0  0  0  0  0  0
    6.2622   -9.2324    7.6196 H   0  0  0  0  0  0  0  0  0  0  0  0
    7.4669   -9.7036    8.8817 H   0  0  0  0  0  0  0  0  0  0  0  0
    3.2434   -5.5844    7.8737 H   0  0  0  0  0  0  0  0  0  0  0  0
    4.4553    0.2631    5.4891 H   0  0  0  0  0  0  0  0  0  0  0  0
    2.4966    3.4458    3.0316 H   0  0  0  0  0  0  0  0  0  0  0  0
    1.5888    2.2622    1.0626 H   0  0  0  0  0  0  0  0  0  0  0  0
  2  1  1  6
  1 34  1  0
  1 35  1  0
  1 36  1  0
  2  3  1  0
  2  4  1  0
  2  5  1  0
  3 37  1  0
  3 38  1  0
  3 39  1  0
  4 40  1  0
  4 41  1  0
  4 42  1  0
  5  6  2  0
  5 33  1  0
  6  7  1  0
  6 43  1  0
  7  8  2  0
  7 44  1  0
  8  9  1  0
  8 32  1  0
  9 10  2  0
  9 11  1  0
 11 12  2  0
 11 31  1  0
 12 13  1  0
 12 45  1  0
 13 14  2  0
 13 46  1  0
 14 15  1  0
 14 47  1  0
 15 16  1  0
 15 31  2  0
 16 17  1  0
 16 48  1  0
 17 18  2  0
 17 19  1  0
 19 20  2  0
 19 29  1  0
 20 21  1  0
 20 49  1  0
 21 22  2  0
 21 50  1  0
 22 23  1  0
 22 28  1  0
 24 23  1  6
 23 51  1  0
 24 25  1  0
 24 26  2  0
 24 27  2  0
 25 52  1  0
 25 53  1  0
 25 54  1  0
 28 29  2  0
 28 55  1  0
 29 30  1  0
 31 56  1  0
 32 33  2  0
 32 57  1  0
 33 58  1  0
M  END

