
     RDKit          3D

 36 38  0  0  0  0  0  0  0  0999 V2000
    6.2835   -0.3639   -5.8290 C   0  0  0  0  0  0  0  0  0  0  0  0
    6.3533   -1.3659   -4.7240 C   0  0  0  0  0  0  0  0  0  0  0  0
    6.6878   -2.6393   -4.8568 N   0  0  0  0  0  0  0  0  0  0  0  0
    6.6037   -3.1946   -3.6126 C   0  0  0  0  0  0  0  0  0  0  0  0
    6.2129   -2.2357   -2.7001 C   0  0  0  0  0  0  0  0  0  0  0  0
    5.9275   -2.3041   -0.9707 S   0  0  1  0  0  0  0  0  0  0  0  0
    4.8780   -1.3266   -0.6627 O   0  0  0  0  0  0  0  0  0  0  0  0
    5.8130   -3.7233   -0.6296 O   0  0  0  0  0  0  0  0  0  0  0  0
    7.3161   -1.6429   -0.2905 N   0  0  0  0  0  0  0  0  0  0  0  0
    8.4664   -2.4812    0.0497 C   0  0  2  0  0  0  0  0  0  0  0  0
    8.2800   -3.2559    1.3636 C   0  0  0  0  0  0  0  0  0  0  0  0
    9.4550   -4.0556    1.6228 N   0  0  0  0  0  0  0  0  0  0  0  0
   10.7295   -3.5422    1.4432 C   0  0  0  0  0  0  0  0  0  0  0  0
   11.8552   -4.2101    1.9686 C   0  0  0  0  0  0  0  0  0  0  0  0
   13.1410   -3.7210    1.7515 C   0  0  0  0  0  0  0  0  0  0  0  0
   13.3377   -2.5547    1.0040 C   0  0  0  0  0  0  0  0  0  0  0  0
   12.2247   -1.8924    0.4809 C   0  0  0  0  0  0  0  0  0  0  0  0
   10.9215   -2.3588    0.6878 C   0  0  0  0  0  0  0  0  0  0  0  0
    9.7264   -1.6099    0.1282 C   0  0  0  0  0  0  0  0  0  0  0  0
    6.0629   -1.0705   -3.4228 N   0  0  0  0  0  0  0  0  0  0  0  0
    5.7186   -0.1957   -3.0414 H   0  0  0  0  0  0  0  0  0  0  0  0
    6.5721   -0.8582   -6.7650 H   0  0  0  0  0  0  0  0  0  0  0  0
    6.9655    0.4848   -5.6546 H   0  0  0  0  0  0  0  0  0  0  0  0
    5.2648    0.0415   -5.9470 H   0  0  0  0  0  0  0  0  0  0  0  0
    6.8126   -4.2449   -3.4173 H   0  0  0  0  0  0  0  0  0  0  0  0
    7.0401   -0.9488    0.4046 H   0  0  0  0  0  0  0  0  0  0  0  0
    8.5866   -3.2179   -0.7611 H   0  0  0  0  0  0  0  0  0  0  0  0
    7.4021   -3.9102    1.2747 H   0  0  0  0  0  0  0  0  0  0  0  0
    8.0726   -2.5211    2.1747 H   0  0  0  0  0  0  0  0  0  0  0  0
    9.3593   -4.8109    2.2891 H   0  0  0  0  0  0  0  0  0  0  0  0
   11.7069   -5.1258    2.5489 H   0  0  0  0  0  0  0  0  0  0  0  0
   13.9969   -4.2575    2.1698 H   0  0  0  0  0  0  0  0  0  0  0  0
   14.3440   -2.1686    0.8282 H   0  0  0  0  0  0  0  0  0  0  0  0
   12.3660   -0.9816   -0.1097 H   0  0  0  0  0  0  0  0  0  0  0  0
    9.9553   -1.2038   -0.8699 H   0  0  0  0  0  0  0  0  0  0  0  0
    9.5009   -0.7349    0.7682 H   0  0  0  0  0  0  0  0  0  0  0  0
  1  2  1  0
  1 22  1  0
  1 23  1  0
  1 24  1  0
  2  3  2  0
  2 20  1  0
  3  4  1  0
  4  5  2  0
  4 25  1  0
  5  6  1  0
  5 20  1  0
  6  7  2  0
  6  8  2  0
  6  9  1  1
  9 10  1  0
  9 26  1  0
 10 11  1  0
 10 19  1  0
 10 27  1  6
 11 12  1  0
 11 28  1  0
 11 29  1  0
 12 13  1  0
 12 30  1  0
 13 14  2  0
 13 18  1  0
 14 15  1  0
 14 31  1  0
 15 16  2  0
 15 32  1  0
 16 17  1  0
 16 33  1  0
 17 18  2  0
 17 34  1  0
 18 19  1  0
 19 35  1  0
 19 36  1  0
 20 21  1  0
M  END

