
     RDKit          3D

 39 38  0  0  0  0  0  0  0  0999 V2000
    1.5109   -0.2026    0.3236 C   0  0  0  0  0  0  0  0  0  0  0  0
    2.6141    0.3300   -0.2201 C   0  0  0  0  0  0  0  0  0  0  0  0
    2.9844    0.2034   -1.6900 C   0  0  0  0  0  0  0  0  0  0  0  0
    1.9216   -0.3620   -2.5096 N   0  0  0  0  0  0  0  0  0  0  0  0
    0.9467    0.6109   -2.9760 C   0  0  0  0  0  0  0  0  0  0  0  0
    2.3195   -1.3347   -3.4928 C   0  0  0  0  0  0  0  0  0  0  0  0
    3.1244   -0.7905   -4.6939 C   0  0  0  0  0  0  0  0  0  0  0  0
    3.6353    0.3178   -4.6872 O   0  0  0  0  0  0  0  0  0  0  0  0
    3.2327   -1.6542   -5.7475 N   0  0  0  0  0  0  0  0  0  0  0  0
    4.0108   -1.3462   -6.9388 C   0  0  0  0  0  0  0  0  0  0  0  0
    5.4508   -1.8763   -6.9069 C   0  0  0  0  0  0  0  0  0  0  0  0
    5.5572   -3.3990   -6.8199 C   0  0  0  0  0  0  0  0  0  0  0  0
    3.5468    1.0727    0.6900 C   0  0  0  0  0  0  0  0  0  0  0  0
    3.3646    1.2712    1.8696 O   0  0  0  0  0  0  0  0  0  0  0  0
    4.6501    1.4906    0.0313 O   0  0  0  0  0  0  0  0  0  0  0  0
    5.6415    2.2122    0.7818 C   0  0  0  0  0  0  0  0  0  0  0  0
    5.3205    3.6959    0.8596 C   0  0  0  0  0  0  0  0  0  0  0  0
    0.8130   -0.7678   -0.2974 H   0  0  0  0  0  0  0  0  0  0  0  0
    1.3107   -0.0791    1.3901 H   0  0  0  0  0  0  0  0  0  0  0  0
    3.8817   -0.4331   -1.7646 H   0  0  0  0  0  0  0  0  0  0  0  0
    3.3207    1.1855   -2.0687 H   0  0  0  0  0  0  0  0  0  0  0  0
    0.5675    1.1939   -2.1225 H   0  0  0  0  0  0  0  0  0  0  0  0
    0.0839    0.0923   -3.4268 H   0  0  0  0  0  0  0  0  0  0  0  0
    1.3579    1.3191   -3.7229 H   0  0  0  0  0  0  0  0  0  0  0  0
    1.4218   -1.8561   -3.8751 H   0  0  0  0  0  0  0  0  0  0  0  0
    2.9385   -2.1127   -3.0096 H   0  0  0  0  0  0  0  0  0  0  0  0
    2.7867   -2.5609   -5.6770 H   0  0  0  0  0  0  0  0  0  0  0  0
    4.0244   -0.2506   -7.0308 H   0  0  0  0  0  0  0  0  0  0  0  0
    3.4776   -1.7505   -7.8170 H   0  0  0  0  0  0  0  0  0  0  0  0
    5.9746   -1.4092   -6.0557 H   0  0  0  0  0  0  0  0  0  0  0  0
    5.9621   -1.5184   -7.8180 H   0  0  0  0  0  0  0  0  0  0  0  0
    5.0827   -3.7842   -5.9020 H   0  0  0  0  0  0  0  0  0  0  0  0
    6.6081   -3.7283   -6.8047 H   0  0  0  0  0  0  0  0  0  0  0  0
    5.0694   -3.8884   -7.6806 H   0  0  0  0  0  0  0  0  0  0  0  0
    6.5832    2.0364    0.2414 H   0  0  0  0  0  0  0  0  0  0  0  0
    5.7152    1.7738    1.7882 H   0  0  0  0  0  0  0  0  0  0  0  0
    5.2068    4.1275   -0.1471 H   0  0  0  0  0  0  0  0  0  0  0  0
    6.1367    4.2293    1.3730 H   0  0  0  0  0  0  0  0  0  0  0  0
    4.3926    3.8644    1.4258 H   0  0  0  0  0  0  0  0  0  0  0  0
  1  2  2  0
  1 18  1  0
  1 19  1  0
  2  3  1  0
  2 13  1  0
  3  4  1  0
  3 20  1  0
  3 21  1  0
  4  5  1  0
  4  6  1  0
  5 22  1  0
  5 23  1  0
  5 24  1  0
  6  7  1  0
  6 25  1  0
  6 26  1  0
  7  8  2  0
  7  9  1  0
  9 10  1  0
  9 27  1  0
 10 11  1  0
 10 28  1  0
 10 29  1  0
 11 12  1  0
 11 30  1  0
 11 31  1  0
 12 32  1  0
 12 33  1  0
 12 34  1  0
 13 14  2  0
 13 15  1  0
 15 16  1  0
 16 17  1  0
 16 35  1  0
 16 36  1  0
 17 37  1  0
 17 38  1  0
 17 39  1  0
M  END

