
     RDKit          3D

 58 61  0  0  0  0  0  0  0  0999 V2000
   11.0309   -0.4439   -0.1079 C   0  0  0  0  0  0  0  0  0  0  0  0
   10.0394    0.5528    0.0365 O   0  0  0  0  0  0  0  0  0  0  0  0
    8.7886    0.1890    0.4115 C   0  0  0  0  0  0  0  0  0  0  0  0
    8.4075   -1.1395    0.6386 C   0  0  0  0  0  0  0  0  0  0  0  0
    7.0836   -1.4227    1.0178 C   0  0  0  0  0  0  0  0  0  0  0  0
    6.6157   -2.7256    1.2658 N   0  0  0  0  0  0  0  0  0  0  0  0
    7.2404   -3.9440    1.2144 C   0  0  0  0  0  0  0  0  0  0  0  0
    6.4425   -5.1058    1.5530 C   0  0  0  0  0  0  0  0  0  0  0  0
    6.9303   -6.3110    1.5413 N   0  0  0  0  0  0  0  0  0  0  0  0
    8.2421   -6.4541    1.1926 C   0  0  0  0  0  0  0  0  0  0  0  0
    8.8540   -7.7268    1.1515 C   0  0  0  0  0  0  0  0  0  0  0  0
   10.1808   -7.8437    0.7960 C   0  0  0  0  0  0  0  0  0  0  0  0
   10.8839   -6.6475    0.4798 C   0  0  0  0  0  0  0  0  0  0  0  0
   12.2273   -6.5999    0.0767 N   0  0  0  0  0  0  0  0  0  0  0  0
   13.2274   -7.5373    0.0038 C   0  0  0  0  0  0  0  0  0  0  0  0
   13.1722   -9.1236    0.5349 S   0  0  0  0  0  0  0  0  0  0  0  0
   14.3828   -7.0627   -0.5621 N   0  0  0  0  0  0  0  0  0  0  0  0
   14.5672   -5.8206   -1.2893 C   0  0  0  0  0  0  0  0  0  0  0  0
   14.7388   -4.5717   -0.4299 C   0  0  0  0  0  0  0  0  0  0  0  0
   15.2778   -4.6411    0.8625 C   0  0  0  0  0  0  0  0  0  0  0  0
   15.4713   -3.4758    1.6106 C   0  0  0  0  0  0  0  0  0  0  0  0
   15.1327   -2.2262    1.0857 C   0  0  0  0  0  0  0  0  0  0  0  0
   14.5952   -2.1753   -0.1980 C   0  0  0  0  0  0  0  0  0  0  0  0
   14.2519   -0.9837   -0.7171 F   0  0  0  0  0  0  0  0  0  0  0  0
   14.3895   -3.3215   -0.9606 C   0  0  0  0  0  0  0  0  0  0  0  0
   10.3350   -5.4414    0.5046 N   0  0  0  0  0  0  0  0  0  0  0  0
    9.0391   -5.3147    0.8536 C   0  0  0  0  0  0  0  0  0  0  0  0
    8.5086   -4.0656    0.8735 N   0  0  0  0  0  0  0  0  0  0  0  0
    6.1616   -0.3766    1.1744 C   0  0  0  0  0  0  0  0  0  0  0  0
    6.5444    0.9476    0.9358 C   0  0  0  0  0  0  0  0  0  0  0  0
    5.5900    1.9185    1.0420 O   0  0  0  0  0  0  0  0  0  0  0  0
    5.7855    2.9204    2.0320 C   0  0  0  0  0  0  0  0  0  0  0  0
    7.8627    1.2486    0.5527 C   0  0  0  0  0  0  0  0  0  0  0  0
    8.2381    2.5481    0.3443 O   0  0  0  0  0  0  0  0  0  0  0  0
    8.3920    2.9392   -1.0131 C   0  0  0  0  0  0  0  0  0  0  0  0
   11.9574    0.0687   -0.3937 H   0  0  0  0  0  0  0  0  0  0  0  0
   10.7661   -1.1751   -0.8919 H   0  0  0  0  0  0  0  0  0  0  0  0
   11.1990   -0.9910    0.8361 H   0  0  0  0  0  0  0  0  0  0  0  0
    9.1060   -1.9622    0.5285 H   0  0  0  0  0  0  0  0  0  0  0  0
    5.6401   -2.7666    1.5349 H   0  0  0  0  0  0  0  0  0  0  0  0
    5.3872   -4.9778    1.8318 H   0  0  0  0  0  0  0  0  0  0  0  0
    8.2523   -8.6024    1.4056 H   0  0  0  0  0  0  0  0  0  0  0  0
   10.6968   -8.8004    0.7603 H   0  0  0  0  0  0  0  0  0  0  0  0
   12.4774   -5.6302   -0.1108 H   0  0  0  0  0  0  0  0  0  0  0  0
   15.1065   -7.7699   -0.6140 H   0  0  0  0  0  0  0  0  0  0  0  0
   13.7363   -5.6643   -2.0010 H   0  0  0  0  0  0  0  0  0  0  0  0
   15.4697   -5.9501   -1.9091 H   0  0  0  0  0  0  0  0  0  0  0  0
   15.5374   -5.6137    1.2854 H   0  0  0  0  0  0  0  0  0  0  0  0
   15.8891   -3.5408    2.6181 H   0  0  0  0  0  0  0  0  0  0  0  0
   15.2703   -1.3026    1.6507 H   0  0  0  0  0  0  0  0  0  0  0  0
   13.9572   -3.2229   -1.9595 H   0  0  0  0  0  0  0  0  0  0  0  0
    5.1266   -0.5636    1.4696 H   0  0  0  0  0  0  0  0  0  0  0  0
    4.9165    3.5913    1.9739 H   0  0  0  0  0  0  0  0  0  0  0  0
    6.7070    3.4949    1.8546 H   0  0  0  0  0  0  0  0  0  0  0  0
    5.8232    2.4743    3.0430 H   0  0  0  0  0  0  0  0  0  0  0  0
    8.6553    4.0067   -1.0090 H   0  0  0  0  0  0  0  0  0  0  0  0
    7.4520    2.8028   -1.5771 H   0  0  0  0  0  0  0  0  0  0  0  0
    9.1991    2.3720   -1.5049 H   0  0  0  0  0  0  0  0  0  0  0  0
  1  2  1  0
  1 36  1  0
  1 37  1  0
  1 38  1  0
  2  3  1  0
  3  4  2  0
  3 33  1  0
  4  5  1  0
  4 39  1  0
  5  6  1  0
  5 29  2  0
  6  7  1  0
  6 40  1  0
  7  8  2  0
  7 28  1  0
  8  9  1  0
  8 41  1  0
  9 10  2  0
 10 11  1  0
 10 27  1  0
 11 12  2  0
 11 42  1  0
 12 13  1  0
 12 43  1  0
 13 14  1  0
 13 26  2  0
 14 15  1  0
 14 44  1  0
 15 16  2  0
 15 17  1  0
 17 18  1  0
 17 45  1  0
 18 19  1  0
 18 46  1  0
 18 47  1  0
 19 20  2  0
 19 25  1  0
 20 21  1  0
 20 48  1  0
 21 22  2  0
 21 49  1  0
 22 23  1  0
 22 50  1  0
 23 24  1  0
 23 25  2  0
 25 51  1  0
 26 27  1  0
 27 28  2  0
 29 30  1  0
 29 52  1  0
 30 31  1  0
 30 33  2  0
 31 32  1  0
 32 53  1  0
 32 54  1  0
 32 55  1  0
 33 34  1  0
 34 35  1  0
 35 56  1  0
 35 57  1  0
 35 58  1  0
M  END

