
     RDKit          3D

 74 74  0  0  0  0  0  0  0  0999 V2000
    0.6337    0.1250   -0.3125 C   0  0  0  0  0  0  0  0  0  0  0  0
    2.1588    0.0310   -0.2460 C   0  0  0  0  0  0  0  0  0  0  0  0
    2.7257    0.2318    1.1629 C   0  0  0  0  0  0  0  0  0  0  0  0
    4.2524    0.1393    1.2382 C   0  0  0  0  0  0  0  0  0  0  0  0
    4.8192    0.3395    2.6468 C   0  0  0  0  0  0  0  0  0  0  0  0
    6.3462    0.2474    2.7209 C   0  0  0  0  0  0  0  0  0  0  0  0
    6.9136    0.4462    4.1295 C   0  0  0  0  0  0  0  0  0  0  0  0
    8.4408    0.3552    4.2025 C   0  0  0  0  0  0  0  0  0  0  0  0
    9.0090    0.5516    5.6111 C   0  0  0  0  0  0  0  0  0  0  0  0
   10.5363    0.4621    5.6826 C   0  0  0  0  0  0  0  0  0  0  0  0
   11.1054    0.6553    7.0913 C   0  0  0  0  0  0  0  0  0  0  0  0
   12.6329    0.5678    7.1612 C   0  0  0  0  0  0  0  0  0  0  0  0
   13.2028    0.7568    8.5701 C   0  0  0  0  0  0  0  0  0  0  0  0
   14.7305    0.6716    8.6380 C   0  0  0  0  0  0  0  0  0  0  0  0
   15.3008    0.8551   10.0474 C   0  0  0  0  0  0  0  0  0  0  0  0
   16.8288    0.7725   10.1123 C   0  0  0  0  0  0  0  0  0  0  0  0
   17.3972    0.9462   11.5232 C   0  0  0  0  0  0  0  0  0  0  0  0
   18.9274    0.8620   11.5654 C   0  0  0  0  0  0  0  0  0  0  0  0
   19.4835    1.0249   12.8974 N   0  0  0  0  0  0  0  0  0  0  0  0
   19.9265   -0.0269   13.6492 C   0  0  0  0  0  0  0  0  0  0  0  0
   19.9729   -1.1737   13.2344 O   0  0  0  0  0  0  0  0  0  0  0  0
   20.3380    0.3335   15.0808 C   0  0  0  0  0  0  0  0  0  0  0  0
   19.1480    0.3488   16.0235 C   0  0  0  0  0  0  0  0  0  0  0  0
   18.3500   -0.8007   16.1697 C   0  0  0  0  0  0  0  0  0  0  0  0
   17.2567   -0.7810   17.0352 C   0  0  0  0  0  0  0  0  0  0  0  0
   16.9382    0.3700   17.7634 C   0  0  0  0  0  0  0  0  0  0  0  0
   17.7281    1.5172   17.6197 C   0  0  0  0  0  0  0  0  0  0  0  0
   17.4792    2.6710   18.2939 O   0  0  0  0  0  0  0  0  0  0  0  0
   18.8289    1.5010   16.7491 C   0  0  0  0  0  0  0  0  0  0  0  0
    0.2619   -0.0240   -1.3389 H   0  0  0  0  0  0  0  0  0  0  0  0
    0.2774    1.1112    0.0302 H   0  0  0  0  0  0  0  0  0  0  0  0
    0.1567   -0.6363    0.3276 H   0  0  0  0  0  0  0  0  0  0  0  0
    2.6045    0.7798   -0.9261 H   0  0  0  0  0  0  0  0  0  0  0  0
    2.4848   -0.9526   -0.6311 H   0  0  0  0  0  0  0  0  0  0  0  0
    2.2804   -0.5174    1.8443 H   0  0  0  0  0  0  0  0  0  0  0  0
    2.4000    1.2159    1.5492 H   0  0  0  0  0  0  0  0  0  0  0  0
    4.6970    0.8886    0.5567 H   0  0  0  0  0  0  0  0  0  0  0  0
    4.5774   -0.8446    0.8511 H   0  0  0  0  0  0  0  0  0  0  0  0
    4.3753   -0.4102    3.3283 H   0  0  0  0  0  0  0  0  0  0  0  0
    4.4941    1.3231    3.0343 H   0  0  0  0  0  0  0  0  0  0  0  0
    6.7900    0.9977    2.0400 H   0  0  0  0  0  0  0  0  0  0  0  0
    6.6713   -0.7358    2.3325 H   0  0  0  0  0  0  0  0  0  0  0  0
    6.4707   -0.3048    4.8102 H   0  0  0  0  0  0  0  0  0  0  0  0
    6.5879    1.4290    4.5185 H   0  0  0  0  0  0  0  0  0  0  0  0
    8.8835    1.1070    3.5227 H   0  0  0  0  0  0  0  0  0  0  0  0
    8.7664   -0.6271    3.8120 H   0  0  0  0  0  0  0  0  0  0  0  0
    8.5674   -0.2012    6.2905 H   0  0  0  0  0  0  0  0  0  0  0  0
    8.6826    1.5333    6.0024 H   0  0  0  0  0  0  0  0  0  0  0  0
   10.9777    1.2163    5.0045 H   0  0  0  0  0  0  0  0  0  0  0  0
   10.8627   -0.5188    5.2893 H   0  0  0  0  0  0  0  0  0  0  0  0
   10.6655   -0.1001    7.7690 H   0  0  0  0  0  0  0  0  0  0  0  0
   10.7779    1.6355    7.4857 H   0  0  0  0  0  0  0  0  0  0  0  0
   13.0727    1.3250    6.4854 H   0  0  0  0  0  0  0  0  0  0  0  0
   12.9604   -0.4112    6.7642 H   0  0  0  0  0  0  0  0  0  0  0  0
   12.7651   -0.0020    9.2453 H   0  0  0  0  0  0  0  0  0  0  0  0
   12.8740    1.7349    8.9685 H   0  0  0  0  0  0  0  0  0  0  0  0
   15.1683    1.4327    7.9652 H   0  0  0  0  0  0  0  0  0  0  0  0
   15.0594   -0.3051    8.2366 H   0  0  0  0  0  0  0  0  0  0  0  0
   14.8665    0.0919   10.7194 H   0  0  0  0  0  0  0  0  0  0  0  0
   14.9706    1.8306   10.4509 H   0  0  0  0  0  0  0  0  0  0  0  0
   17.2635    1.5393    9.4437 H   0  0  0  0  0  0  0  0  0  0  0  0
   17.1595   -0.2008    9.7053 H   0  0  0  0  0  0  0  0  0  0  0  0
   16.9831    0.1734   12.1939 H   0  0  0  0  0  0  0  0  0  0  0  0
   17.0714    1.9194   11.9358 H   0  0  0  0  0  0  0  0  0  0  0  0
   19.3658    1.6219   10.8939 H   0  0  0  0  0  0  0  0  0  0  0  0
   19.2615   -0.1237   11.2105 H   0  0  0  0  0  0  0  0  0  0  0  0
   19.3926    1.9285   13.3473 H   0  0  0  0  0  0  0  0  0  0  0  0
   20.8510    1.3077   15.1043 H   0  0  0  0  0  0  0  0  0  0  0  0
   21.0588   -0.4374   15.3914 H   0  0  0  0  0  0  0  0  0  0  0  0
   18.5919   -1.6989   15.5974 H   0  0  0  0  0  0  0  0  0  0  0  0
   16.6379   -1.6749   17.1499 H   0  0  0  0  0  0  0  0  0  0  0  0
   16.0794    0.3780   18.4423 H   0  0  0  0  0  0  0  0  0  0  0  0
   16.7045    2.5520   18.8589 H   0  0  0  0  0  0  0  0  0  0  0  0
   19.4321    2.4082   16.6638 H   0  0  0  0  0  0  0  0  0  0  0  0
  1  2  1  0
  1 30  1  0
  1 31  1  0
  1 32  1  0
  2  3  1  0
  2 33  1  0
  2 34  1  0
  3  4  1  0
  3 35  1  0
  3 36  1  0
  4  5  1  0
  4 37  1  0
  4 38  1  0
  5  6  1  0
  5 39  1  0
  5 40  1  0
  6  7  1  0
  6 41  1  0
  6 42  1  0
  7  8  1  0
  7 43  1  0
  7 44  1  0
  8  9  1  0
  8 45  1  0
  8 46  1  0
  9 10  1  0
  9 47  1  0
  9 48  1  0
 10 11  1  0
 10 49  1  0
 10 50  1  0
 11 12  1  0
 11 51  1  0
 11 52  1  0
 12 13  1  0
 12 53  1  0
 12 54  1  0
 13 14  1  0
 13 55  1  0
 13 56  1  0
 14 15  1  0
 14 57  1  0
 14 58  1  0
 15 16  1  0
 15 59  1  0
 15 60  1  0
 16 17  1  0
 16 61  1  0
 16 62  1  0
 17 18  1  0
 17 63  1  0
 17 64  1  0
 18 19  1  0
 18 65  1  0
 18 66  1  0
 19 20  1  0
 19 67  1  0
 20 21  2  0
 20 22  1  0
 22 23  1  0
 22 68  1  0
 22 69  1  0
 23 24  2  0
 23 29  1  0
 24 25  1  0
 24 70  1  0
 25 26  2  0
 25 71  1  0
 26 27  1  0
 26 72  1  0
 27 28  1  0
 27 29  2  0
 28 73  1  0
 29 74  1  0
M  END

