
     RDKit          3D

 34 35  0  0  0  0  0  0  0  0999 V2000
    1.0855   -0.2324   -0.2987 C   0  0  0  0  0  0  0  0  0  0  0  0
    2.5534   -0.2121    0.1161 C   0  0  1  0  0  0  0  0  0  0  0  0
    2.9644    0.9730    1.0076 C   0  0  0  0  0  0  0  0  0  0  0  0
    4.2903    0.5199    1.6318 C   0  0  0  0  0  0  0  0  0  0  0  0
    4.1608   -0.9333    1.6846 N   0  0  0  0  0  0  0  0  0  0  0  0
    5.0259   -1.7593    2.3403 C   0  0  0  0  0  0  0  0  0  0  0  0
    6.1952   -1.2712    2.9968 C   0  0  0  0  0  0  0  0  0  0  0  0
    7.0174   -2.0887    3.6313 N   0  0  0  0  0  0  0  0  0  0  0  0
    6.7271   -3.3956    3.6392 C   0  0  0  0  0  0  0  0  0  0  0  0
    5.5890   -3.8958    2.9923 C   0  0  0  0  0  0  0  0  0  0  0  0
    5.2555   -5.3781    2.9895 C   0  0  1  0  0  0  0  0  0  0  0  0
    3.9096   -5.6391    3.6851 C   0  0  0  0  0  0  0  0  0  0  0  0
    5.2655   -5.9412    1.5591 C   0  0  0  0  0  0  0  0  0  0  0  0
    4.7505   -3.0729    2.3519 N   0  0  0  0  0  0  0  0  0  0  0  0
    2.9957   -1.4242    0.9529 C   0  0  0  0  0  0  0  0  0  0  0  0
    0.8266    0.6586   -0.8928 H   0  0  0  0  0  0  0  0  0  0  0  0
    0.4236   -0.2521    0.5836 H   0  0  0  0  0  0  0  0  0  0  0  0
    0.8530   -1.1186   -0.9112 H   0  0  0  0  0  0  0  0  0  0  0  0
    3.1800   -0.1852   -0.7945 H   0  0  0  0  0  0  0  0  0  0  0  0
    2.2069    1.1216    1.7968 H   0  0  0  0  0  0  0  0  0  0  0  0
    3.0586    1.9206    0.4558 H   0  0  0  0  0  0  0  0  0  0  0  0
    4.4476    0.9490    2.6365 H   0  0  0  0  0  0  0  0  0  0  0  0
    5.1563    0.8236    1.0109 H   0  0  0  0  0  0  0  0  0  0  0  0
    6.4482   -0.2065    2.9896 H   0  0  0  0  0  0  0  0  0  0  0  0
    7.4142   -4.0642    4.1685 H   0  0  0  0  0  0  0  0  0  0  0  0
    6.0470   -5.8877    3.5659 H   0  0  0  0  0  0  0  0  0  0  0  0
    3.1001   -5.1077    3.1612 H   0  0  0  0  0  0  0  0  0  0  0  0
    3.9230   -5.2889    4.7296 H   0  0  0  0  0  0  0  0  0  0  0  0
    3.6736   -6.7156    3.6897 H   0  0  0  0  0  0  0  0  0  0  0  0
    4.5116   -5.4292    0.9411 H   0  0  0  0  0  0  0  0  0  0  0  0
    5.0377   -7.0194    1.5615 H   0  0  0  0  0  0  0  0  0  0  0  0
    6.2474   -5.8016    1.0792 H   0  0  0  0  0  0  0  0  0  0  0  0
    2.1948   -1.7467    1.6476 H   0  0  0  0  0  0  0  0  0  0  0  0
    3.2571   -2.3029    0.3441 H   0  0  0  0  0  0  0  0  0  0  0  0
  1  2  1  0
  1 16  1  0
  1 17  1  0
  1 18  1  0
  2  3  1  0
  2 15  1  0
  2 19  1  6
  3  4  1  0
  3 20  1  0
  3 21  1  0
  4  5  1  0
  4 22  1  0
  4 23  1  0
  5  6  1  0
  5 15  1  0
  6  7  2  0
  6 14  1  0
  7  8  1  0
  7 24  1  0
  8  9  2  0
  9 10  1  0
  9 25  1  0
 10 11  1  0
 10 14  2  0
 11 12  1  0
 11 13  1  0
 11 26  1  1
 12 27  1  0
 12 28  1  0
 12 29  1  0
 13 30  1  0
 13 31  1  0
 13 32  1  0
 15 33  1  0
 15 34  1  0
M  END

