
     RDKit          3D

 27 27  0  0  0  0  0  0  0  0999 V2000
    1.9670   -3.1267    5.1663 C   0  0  0  0  0  0  0  0  0  0  0  0
    2.3390   -3.0705    3.6755 C   0  0  0  0  0  0  0  0  0  0  0  0
    2.6505   -1.6964    3.1598 C   0  0  0  0  0  0  0  0  0  0  0  0
    1.8977   -0.8426    2.4345 C   0  0  0  0  0  0  0  0  0  0  0  0
    0.5183   -0.9678    1.9570 C   0  0  0  0  0  0  0  0  0  0  0  0
   -0.4723   -1.7815    2.5442 C   0  0  0  0  0  0  0  0  0  0  0  0
   -1.7637   -1.8254    2.0174 C   0  0  0  0  0  0  0  0  0  0  0  0
   -2.1345   -1.0741    0.8927 C   0  0  0  0  0  0  0  0  0  0  0  0
   -3.5164   -1.1032    0.3003 C   0  0  0  0  0  0  0  0  0  0  0  0
   -1.1393   -0.2601    0.3341 C   0  0  0  0  0  0  0  0  0  0  0  0
   -1.4562    0.4860   -0.7376 F   0  0  0  0  0  0  0  0  0  0  0  0
    0.1485   -0.1848    0.8424 C   0  0  0  0  0  0  0  0  0  0  0  0
    4.0273   -1.2139    3.4818 N   0  0  0  0  0  0  0  0  0  0  0  0
    4.7323   -1.9708    4.1358 O   0  0  0  0  0  0  0  0  0  0  0  0
    4.3823   -0.1124    3.0930 O   0  0  0  0  0  0  0  0  0  0  0  0
    1.7591   -4.1643    5.4709 H   0  0  0  0  0  0  0  0  0  0  0  0
    1.0740   -2.5203    5.3878 H   0  0  0  0  0  0  0  0  0  0  0  0
    2.7954   -2.7513    5.7841 H   0  0  0  0  0  0  0  0  0  0  0  0
    1.5255   -3.4868    3.0632 H   0  0  0  0  0  0  0  0  0  0  0  0
    3.2230   -3.7031    3.5076 H   0  0  0  0  0  0  0  0  0  0  0  0
    2.4162    0.0717    2.1341 H   0  0  0  0  0  0  0  0  0  0  0  0
   -0.2505   -2.3590    3.4402 H   0  0  0  0  0  0  0  0  0  0  0  0
   -2.5156   -2.4576    2.4973 H   0  0  0  0  0  0  0  0  0  0  0  0
   -4.1743   -1.7811    0.8620 H   0  0  0  0  0  0  0  0  0  0  0  0
   -3.4917   -1.4360   -0.7504 H   0  0  0  0  0  0  0  0  0  0  0  0
   -3.9713   -0.0990    0.3004 H   0  0  0  0  0  0  0  0  0  0  0  0
    0.8669    0.4795    0.3578 H   0  0  0  0  0  0  0  0  0  0  0  0
  1  2  1  0
  1 16  1  0
  1 17  1  0
  1 18  1  0
  2  3  1  0
  2 19  1  0
  2 20  1  0
  3  4  2  0
  3 13  1  0
  4  5  1  0
  4 21  1  0
  5  6  2  0
  5 12  1  0
  6  7  1  0
  6 22  1  0
  7  8  2  0
  7 23  1  0
  8  9  1  0
  8 10  1  0
  9 24  1  0
  9 25  1  0
  9 26  1  0
 10 11  1  0
 10 12  2  0
 12 27  1  0
 13 14  2  0
 13 15  1  0
M  CHG  2  13   1  15  -1
M  END

