
     RDKit          3D

 49 51  0  0  0  0  0  0  0  0999 V2000
    5.8141   -0.0278    2.5981 C   0  0  0  0  0  0  0  0  0  0  0  0
    6.2619    0.5495    1.2531 C   0  0  1  0  0  0  0  0  0  0  0  0
    5.9407   -0.3733    0.0750 C   0  0  0  0  0  0  0  0  0  0  0  0
    5.6626    1.8760    1.0415 N   0  0  0  0  0  0  0  0  0  0  0  0
    6.3310    3.0522    0.9142 C   0  0  0  0  0  0  0  0  0  0  0  0
    5.3554    4.0416    0.7294 C   0  0  0  0  0  0  0  0  0  0  0  0
    5.3764    5.4484    0.5381 C   0  0  0  0  0  0  0  0  0  0  0  0
    4.1598    6.0950    0.3877 C   0  0  0  0  0  0  0  0  0  0  0  0
    4.0263    7.4856    0.1904 N   0  0  0  0  0  0  0  0  0  0  0  0
    5.0285    8.4370    0.0881 C   0  0  0  0  0  0  0  0  0  0  0  0
    6.2219    8.1919    0.1690 O   0  0  0  0  0  0  0  0  0  0  0  0
    4.5585    9.7178   -0.1248 N   0  0  0  0  0  0  0  0  0  0  0  0
    5.4667   10.8491   -0.1869 C   0  0  0  0  0  0  0  0  0  0  0  0
    6.1499   11.0095   -1.5622 C   0  0  1  0  0  0  0  0  0  0  0  0
    5.1683   11.3001   -2.7012 C   0  0  0  0  0  0  0  0  0  0  0  0
    4.6296   12.6499   -2.5901 N   0  0  0  0  0  0  0  0  0  0  0  0
    3.6044   12.9311   -3.5732 C   0  0  0  0  0  0  0  0  0  0  0  0
    5.7125   13.6239   -2.6051 C   0  0  0  0  0  0  0  0  0  0  0  0
    6.6900   13.3346   -1.4707 C   0  0  0  0  0  0  0  0  0  0  0  0
    7.1670   12.0032   -1.5094 O   0  0  0  0  0  0  0  0  0  0  0  0
    2.9272    5.3536    0.4275 C   0  0  0  0  0  0  0  0  0  0  0  0
    2.8889    3.9919    0.6125 C   0  0  0  0  0  0  0  0  0  0  0  0
    4.1216    3.3061    0.7683 C   0  0  0  0  0  0  0  0  0  0  0  0
    4.3347    1.9893    0.9598 N   0  0  0  0  0  0  0  0  0  0  0  0
    6.2966   -1.0020    2.7726 H   0  0  0  0  0  0  0  0  0  0  0  0
    4.7231   -0.1661    2.6084 H   0  0  0  0  0  0  0  0  0  0  0  0
    6.0845    0.6460    3.4257 H   0  0  0  0  0  0  0  0  0  0  0  0
    7.3484    0.7299    1.2830 H   0  0  0  0  0  0  0  0  0  0  0  0
    4.8542   -0.5240   -0.0050 H   0  0  0  0  0  0  0  0  0  0  0  0
    6.4248   -1.3520    0.2164 H   0  0  0  0  0  0  0  0  0  0  0  0
    6.3002    0.0573   -0.8722 H   0  0  0  0  0  0  0  0  0  0  0  0
    7.4163    3.1008    0.9619 H   0  0  0  0  0  0  0  0  0  0  0  0
    6.3028    6.0165    0.5067 H   0  0  0  0  0  0  0  0  0  0  0  0
    3.0714    7.8080    0.0976 H   0  0  0  0  0  0  0  0  0  0  0  0
    3.5642    9.9031   -0.1212 H   0  0  0  0  0  0  0  0  0  0  0  0
    6.2613   10.7248    0.5643 H   0  0  0  0  0  0  0  0  0  0  0  0
    4.8891   11.7518    0.0556 H   0  0  0  0  0  0  0  0  0  0  0  0
    6.6755   10.0665   -1.7742 H   0  0  0  0  0  0  0  0  0  0  0  0
    4.3430   10.5707   -2.6636 H   0  0  0  0  0  0  0  0  0  0  0  0
    5.6935   11.1504   -3.6730 H   0  0  0  0  0  0  0  0  0  0  0  0
    2.7817   12.2034   -3.4827 H   0  0  0  0  0  0  0  0  0  0  0  0
    3.9780   12.8874   -4.6226 H   0  0  0  0  0  0  0  0  0  0  0  0
    3.1863   13.9374   -3.4088 H   0  0  0  0  0  0  0  0  0  0  0  0
    5.2974   14.6385   -2.4809 H   0  0  0  0  0  0  0  0  0  0  0  0
    6.2605   13.6066   -3.5772 H   0  0  0  0  0  0  0  0  0  0  0  0
    6.2011   13.5578   -0.5021 H   0  0  0  0  0  0  0  0  0  0  0  0
    7.5749   13.9844   -1.5536 H   0  0  0  0  0  0  0  0  0  0  0  0
    1.9873    5.9021    0.3051 H   0  0  0  0  0  0  0  0  0  0  0  0
    1.9432    3.4471    0.6400 H   0  0  0  0  0  0  0  0  0  0  0  0
  1  2  1  0
  1 25  1  0
  1 26  1  0
  1 27  1  0
  2  3  1  0
  2  4  1  0
  2 28  1  1
  3 29  1  0
  3 30  1  0
  3 31  1  0
  4  5  1  0
  4 24  1  0
  5  6  2  0
  5 32  1  0
  6  7  1  0
  6 23  1  0
  7  8  2  0
  7 33  1  0
  8  9  1  0
  8 21  1  0
  9 10  1  0
  9 34  1  0
 10 11  2  0
 10 12  1  0
 12 13  1  0
 12 35  1  0
 13 14  1  0
 13 36  1  0
 13 37  1  0
 14 15  1  0
 14 20  1  0
 14 38  1  6
 15 16  1  0
 15 39  1  0
 15 40  1  0
 16 17  1  0
 16 18  1  0
 17 41  1  0
 17 42  1  0
 17 43  1  0
 18 19  1  0
 18 44  1  0
 18 45  1  0
 19 20  1  0
 19 46  1  0
 19 47  1  0
 21 22  2  0
 21 48  1  0
 22 23  1  0
 22 49  1  0
 23 24  2  0
M  END

