
     RDKit          3D

 65 64  0  0  0  0  0  0  0  0999 V2000
    0.6009   -0.0282    0.3009 C   0  0  0  0  0  0  0  0  0  0  0  0
    2.1293   -0.0346    0.2468 C   0  0  0  0  0  0  0  0  0  0  0  0
    2.7012   -0.9387   -0.8497 C   0  0  0  0  0  0  0  0  0  0  0  0
    4.2314   -0.9510   -0.9108 C   0  0  0  0  0  0  0  0  0  0  0  0
    4.8027   -1.8550   -2.0072 C   0  0  0  0  0  0  0  0  0  0  0  0
    6.3331   -1.8669   -2.0680 C   0  0  0  0  0  0  0  0  0  0  0  0
    6.9044   -2.7711   -3.1643 C   0  0  0  0  0  0  0  0  0  0  0  0
    8.4347   -2.7827   -3.2256 C   0  0  0  0  0  0  0  0  0  0  0  0
    9.0062   -3.6896   -4.3205 C   0  0  0  0  0  0  0  0  0  0  0  0
   10.5379   -3.6845   -4.3779 C   0  0  0  0  0  0  0  0  0  0  0  0
   11.1716   -4.6797   -5.3717 C   0  0  1  0  0  0  0  0  0  0  0  0
   10.7174   -4.4629   -6.8341 C   0  0  0  0  0  0  0  0  0  0  0  0
   11.0619   -3.1057   -7.4556 C   0  0  0  0  0  0  0  0  0  0  0  0
   12.7110   -4.7051   -5.2557 C   0  0  0  0  0  0  0  0  0  0  0  0
   13.2660   -5.3218   -3.9662 C   0  0  0  0  0  0  0  0  0  0  0  0
   14.7966   -5.3788   -3.9268 C   0  0  0  0  0  0  0  0  0  0  0  0
   15.3625   -5.9979   -2.6453 C   0  0  0  0  0  0  0  0  0  0  0  0
   16.8925   -6.0557   -2.6064 C   0  0  0  0  0  0  0  0  0  0  0  0
   17.4591   -6.6740   -1.3251 C   0  0  0  0  0  0  0  0  0  0  0  0
   18.9895   -6.7321   -1.2860 C   0  0  0  0  0  0  0  0  0  0  0  0
   19.5470   -7.3508   -0.0033 C   0  0  0  0  0  0  0  0  0  0  0  0
    0.2255    0.6313    1.0998 H   0  0  0  0  0  0  0  0  0  0  0  0
    0.2021   -1.0392    0.4898 H   0  0  0  0  0  0  0  0  0  0  0  0
    0.1674    0.3225   -0.6509 H   0  0  0  0  0  0  0  0  0  0  0  0
    2.5318   -0.3533    1.2258 H   0  0  0  0  0  0  0  0  0  0  0  0
    2.4974    0.9966    0.0948 H   0  0  0  0  0  0  0  0  0  0  0  0
    2.2993   -0.6204   -1.8300 H   0  0  0  0  0  0  0  0  0  0  0  0
    2.3336   -1.9711   -0.6984 H   0  0  0  0  0  0  0  0  0  0  0  0
    4.6327   -1.2692    0.0697 H   0  0  0  0  0  0  0  0  0  0  0  0
    4.5984    0.0815   -1.0617 H   0  0  0  0  0  0  0  0  0  0  0  0
    4.4015   -1.5370   -2.9877 H   0  0  0  0  0  0  0  0  0  0  0  0
    4.4359   -2.8875   -1.8563 H   0  0  0  0  0  0  0  0  0  0  0  0
    6.7344   -2.1848   -1.0875 H   0  0  0  0  0  0  0  0  0  0  0  0
    6.7000   -0.8345   -2.2191 H   0  0  0  0  0  0  0  0  0  0  0  0
    6.5025   -2.4536   -4.1447 H   0  0  0  0  0  0  0  0  0  0  0  0
    6.5379   -3.8037   -3.0129 H   0  0  0  0  0  0  0  0  0  0  0  0
    8.8364   -3.0971   -2.2442 H   0  0  0  0  0  0  0  0  0  0  0  0
    8.8009   -1.7504   -3.3797 H   0  0  0  0  0  0  0  0  0  0  0  0
    8.5872   -3.3790   -5.2939 H   0  0  0  0  0  0  0  0  0  0  0  0
    8.6506   -4.7245   -4.1579 H   0  0  0  0  0  0  0  0  0  0  0  0
   10.9196   -3.9062   -3.3665 H   0  0  0  0  0  0  0  0  0  0  0  0
   10.8915   -2.6619   -4.6056 H   0  0  0  0  0  0  0  0  0  0  0  0
   10.8132   -5.6890   -5.0898 H   0  0  0  0  0  0  0  0  0  0  0  0
    9.6274   -4.6206   -6.9005 H   0  0  0  0  0  0  0  0  0  0  0  0
   11.1659   -5.2624   -7.4504 H   0  0  0  0  0  0  0  0  0  0  0  0
   10.5815   -2.2707   -6.9203 H   0  0  0  0  0  0  0  0  0  0  0  0
   10.7208   -3.0591   -8.5024 H   0  0  0  0  0  0  0  0  0  0  0  0
   12.1473   -2.9156   -7.4578 H   0  0  0  0  0  0  0  0  0  0  0  0
   13.1085   -3.6792   -5.3633 H   0  0  0  0  0  0  0  0  0  0  0  0
   13.1174   -5.2736   -6.1123 H   0  0  0  0  0  0  0  0  0  0  0  0
   12.8609   -6.3445   -3.8492 H   0  0  0  0  0  0  0  0  0  0  0  0
   12.9089   -4.7558   -3.0878 H   0  0  0  0  0  0  0  0  0  0  0  0
   15.2025   -4.3570   -4.0478 H   0  0  0  0  0  0  0  0  0  0  0  0
   15.1636   -5.9496   -4.8003 H   0  0  0  0  0  0  0  0  0  0  0  0
   14.9559   -7.0192   -2.5235 H   0  0  0  0  0  0  0  0  0  0  0  0
   14.9970   -5.4260   -1.7719 H   0  0  0  0  0  0  0  0  0  0  0  0
   17.2990   -5.0342   -2.7288 H   0  0  0  0  0  0  0  0  0  0  0  0
   17.2579   -6.6279   -3.4797 H   0  0  0  0  0  0  0  0  0  0  0  0
   17.0531   -7.6958   -1.2022 H   0  0  0  0  0  0  0  0  0  0  0  0
   17.0944   -6.1019   -0.4513 H   0  0  0  0  0  0  0  0  0  0  0  0
   19.3941   -5.7108   -1.4091 H   0  0  0  0  0  0  0  0  0  0  0  0
   19.3528   -7.3039   -2.1595 H   0  0  0  0  0  0  0  0  0  0  0  0
   19.2331   -6.7797    0.8868 H   0  0  0  0  0  0  0  0  0  0  0  0
   20.6485   -7.3762   -0.0100 H   0  0  0  0  0  0  0  0  0  0  0  0
   19.1915   -8.3866    0.1298 H   0  0  0  0  0  0  0  0  0  0  0  0
  1  2  1  0
  1 22  1  0
  1 23  1  0
  1 24  1  0
  2  3  1  0
  2 25  1  0
  2 26  1  0
  3  4  1  0
  3 27  1  0
  3 28  1  0
  4  5  1  0
  4 29  1  0
  4 30  1  0
  5  6  1  0
  5 31  1  0
  5 32  1  0
  6  7  1  0
  6 33  1  0
  6 34  1  0
  7  8  1  0
  7 35  1  0
  7 36  1  0
  8  9  1  0
  8 37  1  0
  8 38  1  0
  9 10  1  0
  9 39  1  0
  9 40  1  0
 10 11  1  0
 10 41  1  0
 10 42  1  0
 11 12  1  0
 11 14  1  0
 11 43  1  1
 12 13  1  0
 12 44  1  0
 12 45  1  0
 13 46  1  0
 13 47  1  0
 13 48  1  0
 14 15  1  0
 14 49  1  0
 14 50  1  0
 15 16  1  0
 15 51  1  0
 15 52  1  0
 16 17  1  0
 16 53  1  0
 16 54  1  0
 17 18  1  0
 17 55  1  0
 17 56  1  0
 18 19  1  0
 18 57  1  0
 18 58  1  0
 19 20  1  0
 19 59  1  0
 19 60  1  0
 20 21  1  0
 20 61  1  0
 20 62  1  0
 21 63  1  0
 21 64  1  0
 21 65  1  0
M  END

