
     RDKit          3D

 38 38  0  0  0  0  0  0  0  0999 V2000
    0.9919   -0.3577   -0.2920 C   0  0  0  0  0  0  0  0  0  0  0  0
    2.4824   -0.1952    0.0160 C   0  0  0  0  0  0  0  0  0  0  0  0
    2.7170    0.5068    1.3584 C   0  0  0  0  0  0  0  0  0  0  0  0
    4.1894    0.7672    1.7435 C   0  0  1  0  0  0  0  0  0  0  0  0
    4.9928   -0.5482    1.8487 C   0  0  0  0  0  0  0  0  0  0  0  0
    4.9593    1.6291    0.7979 N   0  0  0  0  0  0  0  0  0  0  0  0
    4.2802    3.0825    0.1837 S   0  0  1  0  0  0  0  0  0  0  0  0
    3.8022    2.8423   -1.1818 O   0  0  0  0  0  0  0  0  0  0  0  0
    3.3989    3.5930    1.2350 O   0  0  0  0  0  0  0  0  0  0  0  0
    5.7186    4.1505    0.0781 C   0  0  0  0  0  0  0  0  0  0  0  0
    6.1536    4.8138    1.2316 C   0  0  0  0  0  0  0  0  0  0  0  0
    7.2665    5.6475    1.1265 C   0  0  0  0  0  0  0  0  0  0  0  0
    7.9138    5.8143   -0.1037 C   0  0  0  0  0  0  0  0  0  0  0  0
    7.4670    5.1604   -1.2618 C   0  0  0  0  0  0  0  0  0  0  0  0
    8.1513    5.3524   -2.5929 C   0  0  0  0  0  0  0  0  0  0  0  0
    6.3469    4.3186   -1.1555 C   0  0  0  0  0  0  0  0  0  0  0  0
    4.2635    1.4146    3.1555 C   0  0  0  0  0  0  0  0  0  0  0  0
    3.4589    1.2005    4.0184 O   0  0  0  0  0  0  0  0  0  0  0  0
    5.3716    2.1450    3.3689 O   0  0  0  0  0  0  0  0  0  0  0  0
    0.8345   -0.8662   -1.2563 H   0  0  0  0  0  0  0  0  0  0  0  0
    0.4890    0.6217   -0.3449 H   0  0  0  0  0  0  0  0  0  0  0  0
    0.4828   -0.9495    0.4869 H   0  0  0  0  0  0  0  0  0  0  0  0
    2.9523    0.3880   -0.7938 H   0  0  0  0  0  0  0  0  0  0  0  0
    2.9601   -1.1904    0.0117 H   0  0  0  0  0  0  0  0  0  0  0  0
    2.2775   -0.0816    2.1786 H   0  0  0  0  0  0  0  0  0  0  0  0
    2.1856    1.4699    1.3669 H   0  0  0  0  0  0  0  0  0  0  0  0
    5.0445   -1.0591    0.8751 H   0  0  0  0  0  0  0  0  0  0  0  0
    4.5009   -1.2211    2.5652 H   0  0  0  0  0  0  0  0  0  0  0  0
    6.0191   -0.3598    2.1982 H   0  0  0  0  0  0  0  0  0  0  0  0
    5.3434    1.1053    0.0105 H   0  0  0  0  0  0  0  0  0  0  0  0
    5.6252    4.6848    2.1780 H   0  0  0  0  0  0  0  0  0  0  0  0
    7.6291    6.1802    2.0088 H   0  0  0  0  0  0  0  0  0  0  0  0
    8.7824    6.4755   -0.1664 H   0  0  0  0  0  0  0  0  0  0  0  0
    9.0033    6.0428   -2.5138 H   0  0  0  0  0  0  0  0  0  0  0  0
    7.4535    5.7600   -3.3428 H   0  0  0  0  0  0  0  0  0  0  0  0
    8.5272    4.3951   -2.9904 H   0  0  0  0  0  0  0  0  0  0  0  0
    5.9484    3.8042   -2.0328 H   0  0  0  0  0  0  0  0  0  0  0  0
    5.8423    2.1983    2.5148 H   0  0  0  0  0  0  0  0  0  0  0  0
  1  2  1  0
  1 20  1  0
  1 21  1  0
  1 22  1  0
  2  3  1  0
  2 23  1  0
  2 24  1  0
  3  4  1  0
  3 25  1  0
  3 26  1  0
  4  5  1  0
  4  6  1  0
  4 17  1  1
  5 27  1  0
  5 28  1  0
  5 29  1  0
  7  6  1  1
  6 30  1  0
  7  8  2  0
  7  9  2  0
  7 10  1  0
 10 11  2  0
 10 16  1  0
 11 12  1  0
 11 31  1  0
 12 13  2  0
 12 32  1  0
 13 14  1  0
 13 33  1  0
 14 15  1  0
 14 16  2  0
 15 34  1  0
 15 35  1  0
 15 36  1  0
 16 37  1  0
 17 18  2  0
 17 19  1  0
 19 38  1  0
M  END

