
     RDKit          3D

 39 40  0  0  0  0  0  0  0  0999 V2000
    2.0270   -0.3412    0.4864 C   0  0  0  0  0  0  0  0  0  0  0  0
    3.3229   -0.4241   -0.3403 C   0  0  1  0  0  0  0  0  0  0  0  0
    3.4151   -1.8077   -0.9876 C   0  0  0  0  0  0  0  0  0  0  0  0
    3.5879   -2.7953   -0.2944 O   0  0  0  0  0  0  0  0  0  0  0  0
    3.2768   -1.8595   -2.3349 N   0  0  0  0  0  0  0  0  0  0  0  0
    2.9173   -0.7669   -3.2350 C   0  0  2  0  0  0  0  0  0  0  0  0
    1.4068   -0.7926   -3.5565 C   0  0  0  0  0  0  0  0  0  0  0  0
    3.7379   -0.9157   -4.5272 C   0  0  0  0  0  0  0  0  0  0  0  0
    3.2555    0.6075   -2.6197 C   0  0  0  0  0  0  0  0  0  0  0  0
    3.2840    1.5875   -3.3512 O   0  0  0  0  0  0  0  0  0  0  0  0
    3.5116    0.6870   -1.2791 N   0  0  0  0  0  0  0  0  0  0  0  0
    3.9442    2.0244   -0.7890 C   0  0  1  0  0  0  0  0  0  0  0  0
    2.7563    2.9524   -0.5091 C   0  0  0  0  0  0  0  0  0  0  0  0
    4.9579    1.9101    0.3414 C   0  0  0  0  0  0  0  0  0  0  0  0
    4.6537    2.2757    1.6620 C   0  0  0  0  0  0  0  0  0  0  0  0
    5.5865    2.1939    2.6972 C   0  0  0  0  0  0  0  0  0  0  0  0
    6.8734    1.7331    2.4153 C   0  0  0  0  0  0  0  0  0  0  0  0
    8.0597    1.6215    3.6900 Cl  0  0  0  0  0  0  0  0  0  0  0  0
    7.2258    1.3624    1.1160 C   0  0  0  0  0  0  0  0  0  0  0  0
    6.2713    1.4564    0.1006 C   0  0  0  0  0  0  0  0  0  0  0  0
    6.7694    0.9910   -1.5133 Cl  0  0  0  0  0  0  0  0  0  0  0  0
    1.9523   -1.2379    1.1179 H   0  0  0  0  0  0  0  0  0  0  0  0
    1.1394   -0.2896   -0.1638 H   0  0  0  0  0  0  0  0  0  0  0  0
    2.0274    0.5408    1.1417 H   0  0  0  0  0  0  0  0  0  0  0  0
    4.1667   -0.4148    0.3648 H   0  0  0  0  0  0  0  0  0  0  0  0
    3.3110   -2.7980   -2.7260 H   0  0  0  0  0  0  0  0  0  0  0  0
    1.1405   -1.7419   -4.0482 H   0  0  0  0  0  0  0  0  0  0  0  0
    1.1476    0.0381   -4.2285 H   0  0  0  0  0  0  0  0  0  0  0  0
    0.8043   -0.7034   -2.6394 H   0  0  0  0  0  0  0  0  0  0  0  0
    3.4908   -1.8683   -5.0240 H   0  0  0  0  0  0  0  0  0  0  0  0
    4.8149   -0.9059   -4.3033 H   0  0  0  0  0  0  0  0  0  0  0  0
    3.5151   -0.0874   -5.2112 H   0  0  0  0  0  0  0  0  0  0  0  0
    4.4730    2.4562   -1.6507 H   0  0  0  0  0  0  0  0  0  0  0  0
    2.1004    2.5893    0.2951 H   0  0  0  0  0  0  0  0  0  0  0  0
    2.1597    3.0424   -1.4273 H   0  0  0  0  0  0  0  0  0  0  0  0
    3.1120    3.9584   -0.2371 H   0  0  0  0  0  0  0  0  0  0  0  0
    3.6535    2.6434    1.8953 H   0  0  0  0  0  0  0  0  0  0  0  0
    5.3205    2.4853    3.7141 H   0  0  0  0  0  0  0  0  0  0  0  0
    8.2316    1.0082    0.8919 H   0  0  0  0  0  0  0  0  0  0  0  0
  1  2  1  0
  1 22  1  0
  1 23  1  0
  1 24  1  0
  2  3  1  0
  2 11  1  0
  2 25  1  1
  3  4  2  0
  3  5  1  0
  5  6  1  0
  5 26  1  0
  6  7  1  6
  6  8  1  0
  6  9  1  0
  7 27  1  0
  7 28  1  0
  7 29  1  0
  8 30  1  0
  8 31  1  0
  8 32  1  0
  9 10  2  0
  9 11  1  0
 11 12  1  0
 12 13  1  0
 12 14  1  0
 12 33  1  6
 13 34  1  0
 13 35  1  0
 13 36  1  0
 14 15  2  0
 14 20  1  0
 15 16  1  0
 15 37  1  0
 16 17  2  0
 16 38  1  0
 17 18  1  0
 17 19  1  0
 19 20  2  0
 19 39  1  0
 20 21  1  0
M  END

