
     RDKit          3D

 35 36  0  0  0  0  0  0  0  0999 V2000
    1.8318   -0.9255    2.6099 C   0  0  0  0  0  0  0  0  0  0  0  0
    2.6482   -0.3499    1.4795 C   0  0  0  0  0  0  0  0  0  0  0  0
    3.1219    0.9703    1.5560 C   0  0  0  0  0  0  0  0  0  0  0  0
    3.8908    1.5372    0.5368 C   0  0  0  0  0  0  0  0  0  0  0  0
    4.2097    0.7845   -0.5952 C   0  0  0  0  0  0  0  0  0  0  0  0
    3.7471   -0.5293   -0.6962 C   0  0  0  0  0  0  0  0  0  0  0  0
    2.9654   -1.0990    0.3208 C   0  0  0  0  0  0  0  0  0  0  0  0
    2.4712   -2.8213    0.1419 S   0  0  0  0  0  0  0  0  0  0  0  0
    0.7533   -2.5821   -0.4526 C   0  0  0  0  0  0  0  0  0  0  0  0
    0.0515   -3.9169   -0.6395 C   0  0  0  0  0  0  0  0  0  0  0  0
    0.6227   -4.9741   -0.5037 O   0  0  0  0  0  0  0  0  0  0  0  0
   -1.4413   -3.8461   -0.9710 C   0  0  0  0  0  0  0  0  0  0  0  0
   -2.2749   -3.7167    0.2927 C   0  0  0  0  0  0  0  0  0  0  0  0
   -3.0611   -2.5843    0.5407 C   0  0  0  0  0  0  0  0  0  0  0  0
   -3.8215   -2.4706    1.7086 C   0  0  0  0  0  0  0  0  0  0  0  0
   -3.8042   -3.4983    2.6603 C   0  0  0  0  0  0  0  0  0  0  0  0
   -4.5210   -3.4483    3.8121 O   0  0  0  0  0  0  0  0  0  0  0  0
   -3.0167   -4.6371    2.4275 C   0  0  0  0  0  0  0  0  0  0  0  0
   -2.2648   -4.7381    1.2606 C   0  0  0  0  0  0  0  0  0  0  0  0
    1.8913   -0.2871    3.5035 H   0  0  0  0  0  0  0  0  0  0  0  0
    2.1699   -1.9393    2.8707 H   0  0  0  0  0  0  0  0  0  0  0  0
    0.7652   -1.0125    2.3390 H   0  0  0  0  0  0  0  0  0  0  0  0
    2.8870    1.5631    2.4447 H   0  0  0  0  0  0  0  0  0  0  0  0
    4.2466    2.5664    0.6328 H   0  0  0  0  0  0  0  0  0  0  0  0
    4.8177    1.2141   -1.3953 H   0  0  0  0  0  0  0  0  0  0  0  0
    3.9907   -1.1360   -1.5715 H   0  0  0  0  0  0  0  0  0  0  0  0
    0.7546   -2.0467   -1.4183 H   0  0  0  0  0  0  0  0  0  0  0  0
    0.1668   -1.9673    0.2502 H   0  0  0  0  0  0  0  0  0  0  0  0
   -1.6895   -4.7759   -1.5062 H   0  0  0  0  0  0  0  0  0  0  0  0
   -1.6437   -2.9948   -1.6392 H   0  0  0  0  0  0  0  0  0  0  0  0
   -3.0928   -1.7735   -0.1930 H   0  0  0  0  0  0  0  0  0  0  0  0
   -4.4337   -1.5790    1.8786 H   0  0  0  0  0  0  0  0  0  0  0  0
   -5.0190   -2.6212    3.8483 H   0  0  0  0  0  0  0  0  0  0  0  0
   -3.0097   -5.4319    3.1761 H   0  0  0  0  0  0  0  0  0  0  0  0
   -1.6497   -5.6263    1.0934 H   0  0  0  0  0  0  0  0  0  0  0  0
  1  2  1  0
  1 20  1  0
  1 21  1  0
  1 22  1  0
  2  3  2  0
  2  7  1  0
  3  4  1  0
  3 23  1  0
  4  5  2  0
  4 24  1  0
  5  6  1  0
  5 25  1  0
  6  7  2  0
  6 26  1  0
  7  8  1  0
  8  9  1  0
  9 10  1  0
  9 27  1  0
  9 28  1  0
 10 11  2  0
 10 12  1  0
 12 13  1  0
 12 29  1  0
 12 30  1  0
 13 14  2  0
 13 19  1  0
 14 15  1  0
 14 31  1  0
 15 16  2  0
 15 32  1  0
 16 17  1  0
 16 18  1  0
 17 33  1  0
 18 19  2  0
 18 34  1  0
 19 35  1  0
M  END

