
     RDKit          3D

 33 35  0  0  0  0  0  0  0  0999 V2000
    1.3431    0.4582    0.6400 C   0  0  0  0  0  0  0  0  0  0  0  0
    2.2482   -0.1657   -0.3425 N   0  0  0  0  0  0  0  0  0  0  0  0
    3.0099   -1.2859    0.1161 C   0  0  0  0  0  0  0  0  0  0  0  0
    2.4016   -2.6233    0.1086 C   0  0  0  0  0  0  0  0  0  0  0  0
    2.9751   -3.5898    0.6483 O   0  0  0  0  0  0  0  0  0  0  0  0
    1.2002   -2.7191   -0.5277 N   0  0  0  0  0  0  0  0  0  0  0  0
    0.3607   -3.8282   -0.7084 C   0  0  0  0  0  0  0  0  0  0  0  0
    0.6301   -5.1077   -0.1874 C   0  0  0  0  0  0  0  0  0  0  0  0
   -0.3011   -6.1124   -0.4432 C   0  0  0  0  0  0  0  0  0  0  0  0
   -1.4460   -5.8267   -1.1930 C   0  0  0  0  0  0  0  0  0  0  0  0
   -1.6080   -4.5204   -1.6609 C   0  0  0  0  0  0  0  0  0  0  0  0
   -0.7310   -3.5447   -1.4258 N   0  0  0  0  0  0  0  0  0  0  0  0
    4.3197   -1.1574    0.5481 C   0  0  0  0  0  0  0  0  0  0  0  0
    5.0232   -2.1630    1.0418 O   0  0  0  0  0  0  0  0  0  0  0  0
    4.9976    0.1201    0.4133 C   0  0  0  0  0  0  0  0  0  0  0  0
    6.4837    0.5409    1.2042 S   0  0  0  0  0  0  0  0  0  0  0  0
    6.4635    2.1169    0.4903 C   0  0  0  0  0  0  0  0  0  0  0  0
    5.3764    2.3219   -0.3269 C   0  0  0  0  0  0  0  0  0  0  0  0
    4.5466    1.1713   -0.3665 C   0  0  0  0  0  0  0  0  0  0  0  0
    3.0971    0.9039   -1.3688 S   0  0  1  0  0  0  0  0  0  0  0  0
    3.4832    0.1542   -2.5560 O   0  0  0  0  0  0  0  0  0  0  0  0
    2.3402    2.1496   -1.4618 O   0  0  0  0  0  0  0  0  0  0  0  0
    1.8884    0.8714    1.5072 H   0  0  0  0  0  0  0  0  0  0  0  0
    0.6434   -0.3104    0.9989 H   0  0  0  0  0  0  0  0  0  0  0  0
    0.7739    1.2568    0.1496 H   0  0  0  0  0  0  0  0  0  0  0  0
    0.8827   -1.8814   -1.0118 H   0  0  0  0  0  0  0  0  0  0  0  0
    1.5379   -5.2840    0.3847 H   0  0  0  0  0  0  0  0  0  0  0  0
   -0.1277   -7.1201   -0.0566 H   0  0  0  0  0  0  0  0  0  0  0  0
   -2.1926   -6.5927   -1.4117 H   0  0  0  0  0  0  0  0  0  0  0  0
   -2.4882   -4.2472   -2.2544 H   0  0  0  0  0  0  0  0  0  0  0  0
    4.3946   -2.9528    1.0512 H   0  0  0  0  0  0  0  0  0  0  0  0
    7.2666    2.8185    0.7139 H   0  0  0  0  0  0  0  0  0  0  0  0
    5.1725    3.2435   -0.8717 H   0  0  0  0  0  0  0  0  0  0  0  0
  1  2  1  0
  1 23  1  0
  1 24  1  0
  1 25  1  0
  2  3  1  0
 20  2  1  1
  3  4  1  0
  3 13  2  0
  4  5  2  0
  4  6  1  0
  6  7  1  0
  6 26  1  0
  7  8  2  0
  7 12  1  0
  8  9  1  0
  8 27  1  0
  9 10  2  0
  9 28  1  0
 10 11  1  0
 10 29  1  0
 11 12  2  0
 11 30  1  0
 13 14  1  0
 13 15  1  0
 14 31  1  0
 15 16  1  0
 15 19  2  0
 16 17  1  0
 17 18  2  0
 17 32  1  0
 18 19  1  0
 18 33  1  0
 19 20  1  0
 20 21  2  0
 20 22  2  0
M  END

