
     RDKit          3D

 30 30  0  0  0  0  0  0  0  0999 V2000
    1.7771   -1.4318   -1.4819 C   0  0  0  0  0  0  0  0  0  0  0  0
    3.2398   -1.2198   -1.1990 C   0  0  0  0  0  0  0  0  0  0  0  0
    4.1367   -1.2990   -1.9988 O   0  0  0  0  0  0  0  0  0  0  0  0
    3.4383   -0.9164    0.1092 O   0  0  0  0  0  0  0  0  0  0  0  0
    4.7808   -0.9130    0.5478 C   0  0  0  0  0  0  0  0  0  0  0  0
    5.2610   -2.3623    0.7682 C   0  0  0  0  0  0  0  0  0  0  0  0
    4.5069   -3.2944    0.5526 O   0  0  0  0  0  0  0  0  0  0  0  0
    6.5487   -2.5255    1.2070 N   0  0  0  0  0  0  0  0  0  0  0  0
    7.0655   -3.8764    1.4308 C   0  0  0  0  0  0  0  0  0  0  0  0
    8.3460   -4.1196    0.6239 C   0  0  0  0  0  0  0  0  0  0  0  0
    9.4139   -3.0409    0.8762 C   0  0  2  0  0  0  0  0  0  0  0  0
   10.0356   -3.2393    2.1863 N   0  0  0  0  0  0  0  0  0  0  0  0
    8.7853   -1.6445    0.6531 C   0  0  0  0  0  0  0  0  0  0  0  0
    7.5027   -1.4540    1.4727 C   0  0  0  0  0  0  0  0  0  0  0  0
    1.6057   -1.4444   -2.5648 H   0  0  0  0  0  0  0  0  0  0  0  0
    1.1686   -0.6546   -0.9975 H   0  0  0  0  0  0  0  0  0  0  0  0
    1.4814   -2.4014   -1.0502 H   0  0  0  0  0  0  0  0  0  0  0  0
    4.7944   -0.3511    1.4935 H   0  0  0  0  0  0  0  0  0  0  0  0
    5.4235   -0.4054   -0.1880 H   0  0  0  0  0  0  0  0  0  0  0  0
    6.2737   -4.5802    1.1477 H   0  0  0  0  0  0  0  0  0  0  0  0
    7.2561   -4.0147    2.5130 H   0  0  0  0  0  0  0  0  0  0  0  0
    8.0877   -4.1281   -0.4479 H   0  0  0  0  0  0  0  0  0  0  0  0
    8.7620   -5.1073    0.8767 H   0  0  0  0  0  0  0  0  0  0  0  0
   10.2149   -3.1732    0.1288 H   0  0  0  0  0  0  0  0  0  0  0  0
    9.3598   -3.1451    2.9442 H   0  0  0  0  0  0  0  0  0  0  0  0
   10.7558   -2.5365    2.3541 H   0  0  0  0  0  0  0  0  0  0  0  0
    8.5439   -1.5176   -0.4166 H   0  0  0  0  0  0  0  0  0  0  0  0
    9.5119   -0.8569    0.9179 H   0  0  0  0  0  0  0  0  0  0  0  0
    7.0552   -0.4773    1.2545 H   0  0  0  0  0  0  0  0  0  0  0  0
    7.7504   -1.4497    2.5530 H   0  0  0  0  0  0  0  0  0  0  0  0
  1  2  1  0
  1 15  1  0
  1 16  1  0
  1 17  1  0
  2  3  2  0
  2  4  1  0
  4  5  1  0
  5  6  1  0
  5 18  1  0
  5 19  1  0
  6  7  2  0
  6  8  1  0
  8  9  1  0
  8 14  1  0
  9 10  1  0
  9 20  1  0
  9 21  1  0
 10 11  1  0
 10 22  1  0
 10 23  1  0
 11 12  1  0
 11 13  1  0
 11 24  1  6
 12 25  1  0
 12 26  1  0
 13 14  1  0
 13 27  1  0
 13 28  1  0
 14 29  1  0
 14 30  1  0
M  END

