
     RDKit          3D

 39 41  0  0  0  0  0  0  0  0999 V2000
    0.8330    2.1243   -2.7574 C   0  0  0  0  0  0  0  0  0  0  0  0
    1.9471    1.5306   -3.3687 O   0  0  0  0  0  0  0  0  0  0  0  0
    2.9800    1.2043   -2.4780 C   0  0  0  0  0  0  0  0  0  0  0  0
    4.1074    0.5792   -3.2815 C   0  0  0  0  0  0  0  0  0  0  0  0
    5.1477    0.2450   -2.3876 O   0  0  0  0  0  0  0  0  0  0  0  0
    6.2566   -0.3608   -2.9811 C   0  0  1  0  0  0  0  0  0  0  0  0
    7.2829    0.5986   -3.6567 C   0  0  0  0  0  0  0  0  0  0  0  0
    8.2111    0.3381   -2.5280 N   0  0  0  0  0  0  0  0  0  0  0  0
    9.8535    0.1100   -2.7825 S   0  0  1  0  0  0  0  0  0  0  0  0
   10.1882   -1.3118   -2.6275 O   0  0  0  0  0  0  0  0  0  0  0  0
   10.1747    0.8480   -4.0058 O   0  0  0  0  0  0  0  0  0  0  0  0
   10.6091    0.9652   -1.4000 C   0  0  0  0  0  0  0  0  0  0  0  0
   10.6138    2.3804   -1.3819 C   0  0  0  0  0  0  0  0  0  0  0  0
   11.1578    3.0984   -0.4043 N   0  0  0  0  0  0  0  0  0  0  0  0
   11.7103    2.3824    0.5622 C   0  0  0  0  0  0  0  0  0  0  0  0
   12.3093    2.9306    1.6319 O   0  0  0  0  0  0  0  0  0  0  0  0
   12.7910    1.9034    2.4467 N   0  0  0  0  0  0  0  0  0  0  0  0
   12.4936    0.7588    1.8870 C   0  0  0  0  0  0  0  0  0  0  0  0
   12.8840   -0.5329    2.5271 C   0  0  0  0  0  0  0  0  0  0  0  0
   11.7835    0.9798    0.6513 C   0  0  0  0  0  0  0  0  0  0  0  0
   11.2070    0.2295   -0.3797 C   0  0  0  0  0  0  0  0  0  0  0  0
    7.3393   -0.7043   -1.9373 C   0  0  0  0  0  0  0  0  0  0  0  0
    0.0921    2.3367   -3.5419 H   0  0  0  0  0  0  0  0  0  0  0  0
    1.0947    3.0762   -2.2520 H   0  0  0  0  0  0  0  0  0  0  0  0
    0.3677    1.4566   -2.0038 H   0  0  0  0  0  0  0  0  0  0  0  0
    2.6398    0.4874   -1.7016 H   0  0  0  0  0  0  0  0  0  0  0  0
    3.3598    2.1015   -1.9460 H   0  0  0  0  0  0  0  0  0  0  0  0
    4.4470    1.2970   -4.0539 H   0  0  0  0  0  0  0  0  0  0  0  0
    3.7334   -0.3204   -3.8101 H   0  0  0  0  0  0  0  0  0  0  0  0
    5.9495   -1.2068   -3.6242 H   0  0  0  0  0  0  0  0  0  0  0  0
    6.9642    1.6504   -3.7205 H   0  0  0  0  0  0  0  0  0  0  0  0
    7.6637    0.2690   -4.6353 H   0  0  0  0  0  0  0  0  0  0  0  0
   10.1585    2.9295   -2.2121 H   0  0  0  0  0  0  0  0  0  0  0  0
   13.4133   -0.3389    3.4695 H   0  0  0  0  0  0  0  0  0  0  0  0
   13.5428   -1.1155    1.8632 H   0  0  0  0  0  0  0  0  0  0  0  0
   11.9960   -1.1501    2.7389 H   0  0  0  0  0  0  0  0  0  0  0  0
   11.2160   -0.8616   -0.4159 H   0  0  0  0  0  0  0  0  0  0  0  0
    7.0349   -0.4917   -0.9011 H   0  0  0  0  0  0  0  0  0  0  0  0
    7.7573   -1.7196   -2.0155 H   0  0  0  0  0  0  0  0  0  0  0  0
  1  2  1  0
  1 23  1  0
  1 24  1  0
  1 25  1  0
  2  3  1  0
  3  4  1  0
  3 26  1  0
  3 27  1  0
  4  5  1  0
  4 28  1  0
  4 29  1  0
  5  6  1  0
  6  7  1  0
  6 22  1  0
  6 30  1  6
  7  8  1  0
  7 31  1  0
  7 32  1  0
  8  9  1  0
  8 22  1  0
  9 10  2  0
  9 11  2  0
  9 12  1  1
 12 13  2  0
 12 21  1  0
 13 14  1  0
 13 33  1  0
 14 15  2  0
 15 16  1  0
 15 20  1  0
 16 17  1  0
 17 18  2  0
 18 19  1  0
 18 20  1  0
 19 34  1  0
 19 35  1  0
 19 36  1  0
 20 21  2  0
 21 37  1  0
 22 38  1  0
 22 39  1  0
M  END

