
     RDKit          3D

 42 43  0  0  0  0  0  0  0  0999 V2000
    0.7582   -1.4933   -0.6288 C   0  0  0  0  0  0  0  0  0  0  0  0
    2.0506   -2.0220   -0.7477 O   0  0  0  0  0  0  0  0  0  0  0  0
    3.0711   -1.0780   -0.5643 C   0  0  0  0  0  0  0  0  0  0  0  0
    4.4272   -1.7710   -0.6441 C   0  0  0  0  0  0  0  0  0  0  0  0
    4.6318   -2.5278   -1.8582 N   0  0  0  0  0  0  0  0  0  0  0  0
    4.5596   -1.9609   -3.1934 C   0  0  0  0  0  0  0  0  0  0  0  0
    4.4950   -3.2006   -4.1184 C   0  0  1  0  0  0  0  0  0  0  0  0
    3.4349   -3.4894   -4.2104 H   0  0  0  0  0  0  0  0  0  0  0  0
    5.0988   -3.0000   -5.5102 C   0  0  0  0  0  0  0  0  0  0  0  0
    4.4226   -2.0083   -6.4439 C   0  0  0  0  0  0  0  0  0  0  0  0
    3.1029   -1.5788   -6.2362 C   0  0  0  0  0  0  0  0  0  0  0  0
    2.4499   -0.6879   -7.1006 C   0  0  0  0  0  0  0  0  0  0  0  0
    1.0214   -0.2634   -6.8557 C   0  0  0  0  0  0  0  0  0  0  0  0
    3.1618   -0.2157   -8.2104 C   0  0  0  0  0  0  0  0  0  0  0  0
    4.4717   -0.6366   -8.4398 C   0  0  0  0  0  0  0  0  0  0  0  0
    5.1225   -1.5312   -7.5783 C   0  0  0  0  0  0  0  0  0  0  0  0
    6.5355   -1.9724   -7.8774 C   0  0  0  0  0  0  0  0  0  0  0  0
    5.1922   -4.2890   -3.2857 C   0  0  0  0  0  0  0  0  0  0  0  0
    4.9964   -3.8535   -1.8353 C   0  0  0  0  0  0  0  0  0  0  0  0
    5.1634   -4.5280   -0.8387 O   0  0  0  0  0  0  0  0  0  0  0  0
    0.0421   -2.3107   -0.7980 H   0  0  0  0  0  0  0  0  0  0  0  0
    0.5638   -0.6940   -1.3740 H   0  0  0  0  0  0  0  0  0  0  0  0
    0.5730   -1.0667    0.3785 H   0  0  0  0  0  0  0  0  0  0  0  0
    2.9917   -0.5833    0.4274 H   0  0  0  0  0  0  0  0  0  0  0  0
    2.9934   -0.2680   -1.3226 H   0  0  0  0  0  0  0  0  0  0  0  0
    4.5282   -2.4930    0.1797 H   0  0  0  0  0  0  0  0  0  0  0  0
    5.2147   -1.0017   -0.5196 H   0  0  0  0  0  0  0  0  0  0  0  0
    5.4516   -1.3395   -3.4166 H   0  0  0  0  0  0  0  0  0  0  0  0
    3.6778   -1.3119   -3.3051 H   0  0  0  0  0  0  0  0  0  0  0  0
    6.1563   -2.7109   -5.3811 H   0  0  0  0  0  0  0  0  0  0  0  0
    5.1366   -3.9844   -6.0152 H   0  0  0  0  0  0  0  0  0  0  0  0
    2.5480   -1.9514   -5.3722 H   0  0  0  0  0  0  0  0  0  0  0  0
    0.6726   -0.5664   -5.8571 H   0  0  0  0  0  0  0  0  0  0  0  0
    0.3376   -0.7145   -7.5956 H   0  0  0  0  0  0  0  0  0  0  0  0
    0.9054    0.8296   -6.9381 H   0  0  0  0  0  0  0  0  0  0  0  0
    2.6888    0.4856   -8.9043 H   0  0  0  0  0  0  0  0  0  0  0  0
    5.0089   -0.2607   -9.3156 H   0  0  0  0  0  0  0  0  0  0  0  0
    6.8982   -1.5264   -8.8148 H   0  0  0  0  0  0  0  0  0  0  0  0
    6.6125   -3.0684   -7.9777 H   0  0  0  0  0  0  0  0  0  0  0  0
    7.2384   -1.6809   -7.0778 H   0  0  0  0  0  0  0  0  0  0  0  0
    6.2793   -4.3239   -3.4830 H   0  0  0  0  0  0  0  0  0  0  0  0
    4.8008   -5.3045   -3.4399 H   0  0  0  0  0  0  0  0  0  0  0  0
  1  2  1  0
  1 21  1  0
  1 22  1  0
  1 23  1  0
  2  3  1  0
  3  4  1  0
  3 24  1  0
  3 25  1  0
  4  5  1  0
  4 26  1  0
  4 27  1  0
  5  6  1  0
  5 19  1  0
  6  7  1  0
  6 28  1  0
  6 29  1  0
  7  8  1  6
  7  9  1  0
  7 18  1  0
  9 10  1  0
  9 30  1  0
  9 31  1  0
 10 11  2  0
 10 16  1  0
 11 12  1  0
 11 32  1  0
 12 13  1  0
 12 14  2  0
 13 33  1  0
 13 34  1  0
 13 35  1  0
 14 15  1  0
 14 36  1  0
 15 16  2  0
 15 37  1  0
 16 17  1  0
 17 38  1  0
 17 39  1  0
 17 40  1  0
 18 19  1  0
 18 41  1  0
 18 42  1  0
 19 20  2  0
M  END

