
     RDKit          3D

 53 53  0  0  0  0  0  0  0  0999 V2000
    1.5791   -0.2547    0.3421 C   0  0  0  0  0  0  0  0  0  0  0  0
    2.8913   -0.6132   -0.1213 N   0  0  0  0  0  0  0  0  0  0  0  0
    3.1618   -1.8328   -0.4356 C   0  0  0  0  0  0  0  0  0  0  0  0
    2.3035   -2.9176   -0.2451 N   0  0  0  0  0  0  0  0  0  0  0  0
    2.1371   -4.0408   -1.1504 C   0  0  0  0  0  0  0  0  0  0  0  0
    1.1562   -3.8349   -2.3486 C   0  0  1  0  0  0  0  0  0  0  0  0
   -0.2723   -3.5980   -1.8347 C   0  0  0  0  0  0  0  0  0  0  0  0
    1.6062   -2.6459   -3.2239 C   0  0  0  0  0  0  0  0  0  0  0  0
    1.3089   -5.1080   -3.2193 C   0  0  0  0  0  0  0  0  0  0  0  0
    2.4194   -5.5253   -3.5163 O   0  0  0  0  0  0  0  0  0  0  0  0
    0.1635   -5.7136   -3.6495 N   0  0  0  0  0  0  0  0  0  0  0  0
    0.1707   -6.8828   -4.5045 C   0  0  0  0  0  0  0  0  0  0  0  0
    4.3981   -2.1318   -0.9926 N   0  0  0  0  0  0  0  0  0  0  0  0
    5.2929   -1.0140   -1.3205 C   0  0  0  0  0  0  0  0  0  0  0  0
    6.6497   -1.6855   -1.5351 C   0  0  0  0  0  0  0  0  0  0  0  0
    6.6286   -2.8377   -0.5165 C   0  0  2  0  0  0  0  0  0  0  0  0
    7.6620   -3.9477   -0.7258 C   0  0  0  0  0  0  0  0  0  0  0  0
    9.1430   -3.5328   -0.6269 C   0  0  1  0  0  0  0  0  0  0  0  0
    9.5141   -2.9821    0.7566 C   0  0  0  0  0  0  0  0  0  0  0  0
   10.0524   -4.7101   -1.0033 C   0  0  0  0  0  0  0  0  0  0  0  0
    5.1724   -3.3284   -0.6279 C   0  0  0  0  0  0  0  0  0  0  0  0
    1.4483    0.8391    0.2956 H   0  0  0  0  0  0  0  0  0  0  0  0
    1.4042   -0.5398    1.4019 H   0  0  0  0  0  0  0  0  0  0  0  0
    0.7453   -0.7000   -0.2463 H   0  0  0  0  0  0  0  0  0  0  0  0
    1.4819   -2.6817    0.2972 H   0  0  0  0  0  0  0  0  0  0  0  0
    1.7860   -4.9071   -0.5619 H   0  0  0  0  0  0  0  0  0  0  0  0
    3.1034   -4.3278   -1.5739 H   0  0  0  0  0  0  0  0  0  0  0  0
   -0.2983   -2.7091   -1.1854 H   0  0  0  0  0  0  0  0  0  0  0  0
   -0.6496   -4.4514   -1.2469 H   0  0  0  0  0  0  0  0  0  0  0  0
   -0.9808   -3.3942   -2.6549 H   0  0  0  0  0  0  0  0  0  0  0  0
    1.5645   -1.7033   -2.6583 H   0  0  0  0  0  0  0  0  0  0  0  0
    0.9517   -2.5419   -4.1049 H   0  0  0  0  0  0  0  0  0  0  0  0
    2.6370   -2.7930   -3.5745 H   0  0  0  0  0  0  0  0  0  0  0  0
   -0.7273   -5.3203   -3.3795 H   0  0  0  0  0  0  0  0  0  0  0  0
    1.2178   -7.1634   -4.6763 H   0  0  0  0  0  0  0  0  0  0  0  0
   -0.3062   -6.6771   -5.4783 H   0  0  0  0  0  0  0  0  0  0  0  0
   -0.3536   -7.7312   -4.0327 H   0  0  0  0  0  0  0  0  0  0  0  0
    5.3234   -0.2912   -0.4870 H   0  0  0  0  0  0  0  0  0  0  0  0
    4.9269   -0.4640   -2.2022 H   0  0  0  0  0  0  0  0  0  0  0  0
    7.4854   -0.9844   -1.3900 H   0  0  0  0  0  0  0  0  0  0  0  0
    6.7294   -2.0945   -2.5583 H   0  0  0  0  0  0  0  0  0  0  0  0
    6.7574   -2.4010    0.4897 H   0  0  0  0  0  0  0  0  0  0  0  0
    7.4892   -4.3982   -1.7206 H   0  0  0  0  0  0  0  0  0  0  0  0
    7.4746   -4.7563    0.0065 H   0  0  0  0  0  0  0  0  0  0  0  0
    9.3180   -2.7300   -1.3674 H   0  0  0  0  0  0  0  0  0  0  0  0
    9.3322   -3.7360    1.5426 H   0  0  0  0  0  0  0  0  0  0  0  0
    8.9353   -2.0825    1.0181 H   0  0  0  0  0  0  0  0  0  0  0  0
   10.5812   -2.7097    0.8002 H   0  0  0  0  0  0  0  0  0  0  0  0
    9.9237   -5.5496   -0.2981 H   0  0  0  0  0  0  0  0  0  0  0  0
   11.1154   -4.4199   -0.9830 H   0  0  0  0  0  0  0  0  0  0  0  0
    9.8264   -5.0886   -2.0135 H   0  0  0  0  0  0  0  0  0  0  0  0
    4.8007   -3.7722    0.3095 H   0  0  0  0  0  0  0  0  0  0  0  0
    5.1065   -4.1092   -1.4100 H   0  0  0  0  0  0  0  0  0  0  0  0
  1  2  1  0
  1 22  1  0
  1 23  1  0
  1 24  1  0
  2  3  2  0
  3  4  1  0
  3 13  1  0
  4  5  1  0
  4 25  1  0
  5  6  1  0
  5 26  1  0
  5 27  1  0
  6  7  1  0
  6  8  1  0
  6  9  1  6
  7 28  1  0
  7 29  1  0
  7 30  1  0
  8 31  1  0
  8 32  1  0
  8 33  1  0
  9 10  2  0
  9 11  1  0
 11 12  1  0
 11 34  1  0
 12 35  1  0
 12 36  1  0
 12 37  1  0
 13 14  1  0
 13 21  1  0
 14 15  1  0
 14 38  1  0
 14 39  1  0
 15 16  1  0
 15 40  1  0
 15 41  1  0
 16 17  1  0
 16 21  1  0
 16 42  1  1
 17 18  1  0
 17 43  1  0
 17 44  1  0
 18 19  1  0
 18 20  1  0
 18 45  1  6
 19 46  1  0
 19 47  1  0
 19 48  1  0
 20 49  1  0
 20 50  1  0
 20 51  1  0
 21 52  1  0
 21 53  1  0
M  END

