
     RDKit          3D

 37 39  0  0  0  0  0  0  0  0999 V2000
    5.9248   -3.8327    2.1045 C   0  0  0  0  0  0  0  0  0  0  0  0
    4.7030   -3.2641    1.6933 O   0  0  0  0  0  0  0  0  0  0  0  0
    4.3339   -2.0391    2.1668 C   0  0  0  0  0  0  0  0  0  0  0  0
    5.1302   -1.2765    3.0315 C   0  0  0  0  0  0  0  0  0  0  0  0
    4.6823   -0.0266    3.4744 C   0  0  0  0  0  0  0  0  0  0  0  0
    3.4445    0.4586    3.0611 C   0  0  0  0  0  0  0  0  0  0  0  0
    2.6528   -0.3132    2.2005 C   0  0  0  0  0  0  0  0  0  0  0  0
    3.0685   -1.5652    1.7343 C   0  0  0  0  0  0  0  0  0  0  0  0
    2.2412   -2.4360    0.7957 C   0  0  2  0  0  0  0  0  0  0  0  0
    2.7565   -2.3687   -0.6662 C   0  0  0  0  0  0  0  0  0  0  0  0
    2.5406   -0.9950   -1.3152 C   0  0  0  0  0  0  0  0  0  0  0  0
    1.1416   -0.5012   -1.0750 C   0  0  0  0  0  0  0  0  0  0  0  0
    0.5922    0.5279   -1.8028 N   0  0  0  0  0  0  0  0  0  0  0  0
   -0.6152    0.8090   -1.4112 C   0  0  0  0  0  0  0  0  0  0  0  0
   -1.4891    1.8354   -2.0789 C   0  0  0  0  0  0  0  0  0  0  0  0
   -2.1250    1.2683   -3.2682 N   0  0  0  0  0  0  0  0  0  0  0  0
   -1.1891   -0.1979   -0.0908 S   0  0  0  0  0  0  0  0  0  0  0  0
    0.3394   -1.0304   -0.0913 C   0  0  0  0  0  0  0  0  0  0  0  0
    0.7194   -2.1546    0.8316 C   0  0  0  0  0  0  0  0  0  0  0  0
    5.9944   -4.8132    1.6140 H   0  0  0  0  0  0  0  0  0  0  0  0
    5.9640   -3.9769    3.1993 H   0  0  0  0  0  0  0  0  0  0  0  0
    6.7899   -3.2178    1.7974 H   0  0  0  0  0  0  0  0  0  0  0  0
    6.0994   -1.6470    3.3651 H   0  0  0  0  0  0  0  0  0  0  0  0
    5.3122    0.5614    4.1470 H   0  0  0  0  0  0  0  0  0  0  0  0
    3.0879    1.4331    3.4025 H   0  0  0  0  0  0  0  0  0  0  0  0
    1.6847    0.0782    1.8826 H   0  0  0  0  0  0  0  0  0  0  0  0
    2.3887   -3.4733    1.1320 H   0  0  0  0  0  0  0  0  0  0  0  0
    2.2175   -3.1339   -1.2526 H   0  0  0  0  0  0  0  0  0  0  0  0
    3.8209   -2.6439   -0.6902 H   0  0  0  0  0  0  0  0  0  0  0  0
    2.7311   -1.0411   -2.4000 H   0  0  0  0  0  0  0  0  0  0  0  0
    3.2605   -0.2593   -0.9117 H   0  0  0  0  0  0  0  0  0  0  0  0
   -0.8444    2.7173   -2.2748 H   0  0  0  0  0  0  0  0  0  0  0  0
   -2.2769    2.1605   -1.3799 H   0  0  0  0  0  0  0  0  0  0  0  0
   -1.3993    0.9954   -3.9330 H   0  0  0  0  0  0  0  0  0  0  0  0
   -2.6871    1.9820   -3.7337 H   0  0  0  0  0  0  0  0  0  0  0  0
    0.1868   -3.0733    0.5254 H   0  0  0  0  0  0  0  0  0  0  0  0
    0.3928   -1.9499    1.8645 H   0  0  0  0  0  0  0  0  0  0  0  0
  1  2  1  0
  1 20  1  0
  1 21  1  0
  1 22  1  0
  2  3  1  0
  3  4  2  0
  3  8  1  0
  4  5  1  0
  4 23  1  0
  5  6  2  0
  5 24  1  0
  6  7  1  0
  6 25  1  0
  7  8  2  0
  7 26  1  0
  8  9  1  0
  9 10  1  0
  9 19  1  0
  9 27  1  1
 10 11  1  0
 10 28  1  0
 10 29  1  0
 11 12  1  0
 11 30  1  0
 11 31  1  0
 12 13  1  0
 12 18  2  0
 13 14  2  0
 14 15  1  0
 14 17  1  0
 15 16  1  0
 15 32  1  0
 15 33  1  0
 16 34  1  0
 16 35  1  0
 17 18  1  0
 18 19  1  0
 19 36  1  0
 19 37  1  0
M  END

