
     RDKit          3D

 49 51  0  0  0  0  0  0  0  0999 V2000
    7.2400    9.5246   -1.4055 C   0  0  0  0  0  0  0  0  0  0  0  0
    7.1281    9.8311   -2.7772 O   0  0  0  0  0  0  0  0  0  0  0  0
    6.8589    8.8383   -3.6613 C   0  0  0  0  0  0  0  0  0  0  0  0
    6.6773    7.4897   -3.3131 C   0  0  0  0  0  0  0  0  0  0  0  0
    6.4053    6.5467   -4.3084 C   0  0  0  0  0  0  0  0  0  0  0  0
    6.3042    6.9122   -5.6577 C   0  0  0  0  0  0  0  0  0  0  0  0
    6.0162    5.8772   -6.7237 C   0  0  0  0  0  0  0  0  0  0  0  0
    4.7288    5.2147   -6.4802 N   0  0  0  0  0  0  0  0  0  0  0  0
    4.4402    3.8983   -6.6220 C   0  0  0  0  0  0  0  0  0  0  0  0
    3.2237    3.1323   -5.7679 S   0  0  0  0  0  0  0  0  0  0  0  0
    5.2161    3.1721   -7.5104 N   0  0  0  0  0  0  0  0  0  0  0  0
    5.6800    3.7106   -8.6894 N   0  0  0  0  0  0  0  0  0  0  0  0
    7.0324    3.7001   -9.0007 C   0  0  0  0  0  0  0  0  0  0  0  0
    7.8829    3.3421   -8.2085 O   0  0  0  0  0  0  0  0  0  0  0  0
    7.3747    4.1816  -10.3616 C   0  0  0  0  0  0  0  0  0  0  0  0
    8.6461    4.1392  -10.8967 C   0  0  0  0  0  0  0  0  0  0  0  0
    8.7265    4.6485  -12.2219 C   0  0  0  0  0  0  0  0  0  0  0  0
    7.5004    5.0875  -12.6925 C   0  0  0  0  0  0  0  0  0  0  0  0
    6.2545    4.8814  -11.5072 S   0  0  0  0  0  0  0  0  0  0  0  0
    7.2860    5.6999  -14.0466 C   0  0  0  0  0  0  0  0  0  0  0  0
    8.0399    7.0472  -14.2537 C   0  0  0  0  0  0  0  0  0  0  0  0
    9.2626    7.2785  -13.3505 C   0  0  0  0  0  0  0  0  0  0  0  0
   10.3849    6.2276  -13.3904 C   0  0  0  0  0  0  0  0  0  0  0  0
    9.9565    4.7635  -13.0879 C   0  0  0  0  0  0  0  0  0  0  0  0
    6.4829    8.2659   -5.9875 C   0  0  0  0  0  0  0  0  0  0  0  0
    6.7596    9.2178   -5.0105 C   0  0  0  0  0  0  0  0  0  0  0  0
    7.4554   10.4703   -0.8901 H   0  0  0  0  0  0  0  0  0  0  0  0
    8.0634    8.8147   -1.2077 H   0  0  0  0  0  0  0  0  0  0  0  0
    6.3028    9.1024   -0.9998 H   0  0  0  0  0  0  0  0  0  0  0  0
    6.7490    7.1623   -2.2758 H   0  0  0  0  0  0  0  0  0  0  0  0
    6.2677    5.5004   -4.0209 H   0  0  0  0  0  0  0  0  0  0  0  0
    6.8040    5.1071   -6.7302 H   0  0  0  0  0  0  0  0  0  0  0  0
    6.0292    6.3578   -7.7165 H   0  0  0  0  0  0  0  0  0  0  0  0
    4.0905    5.6907   -5.8511 H   0  0  0  0  0  0  0  0  0  0  0  0
    4.9795    2.1822   -7.5261 H   0  0  0  0  0  0  0  0  0  0  0  0
    4.9927    3.8598   -9.4265 H   0  0  0  0  0  0  0  0  0  0  0  0
    9.4859    3.7388  -10.3271 H   0  0  0  0  0  0  0  0  0  0  0  0
    6.2130    5.8359  -14.2500 H   0  0  0  0  0  0  0  0  0  0  0  0
    7.6414    4.9680  -14.7937 H   0  0  0  0  0  0  0  0  0  0  0  0
    7.3376    7.8784  -14.0758 H   0  0  0  0  0  0  0  0  0  0  0  0
    8.3343    7.1207  -15.3146 H   0  0  0  0  0  0  0  0  0  0  0  0
    8.9130    7.3796  -12.3095 H   0  0  0  0  0  0  0  0  0  0  0  0
    9.6990    8.2577  -13.6111 H   0  0  0  0  0  0  0  0  0  0  0  0
   11.1469    6.5372  -12.6558 H   0  0  0  0  0  0  0  0  0  0  0  0
   10.8865    6.2510  -14.3732 H   0  0  0  0  0  0  0  0  0  0  0  0
   10.7945    4.2200  -12.6255 H   0  0  0  0  0  0  0  0  0  0  0  0
    9.7530    4.2448  -14.0413 H   0  0  0  0  0  0  0  0  0  0  0  0
    6.4057    8.5803   -7.0324 H   0  0  0  0  0  0  0  0  0  0  0  0
    6.9000   10.2702   -5.2651 H   0  0  0  0  0  0  0  0  0  0  0  0
  1  2  1  0
  1 27  1  0
  1 28  1  0
  1 29  1  0
  2  3  1  0
  3  4  2  0
  3 26  1  0
  4  5  1  0
  4 30  1  0
  5  6  2  0
  5 31  1  0
  6  7  1  0
  6 25  1  0
  7  8  1  0
  7 32  1  0
  7 33  1  0
  8  9  1  0
  8 34  1  0
  9 10  2  0
  9 11  1  0
 11 12  1  0
 11 35  1  0
 12 13  1  0
 12 36  1  0
 13 14  2  0
 13 15  1  0
 15 16  2  0
 15 19  1  0
 16 17  1  0
 16 37  1  0
 17 18  2  0
 17 24  1  0
 18 19  1  0
 18 20  1  0
 20 21  1  0
 20 38  1  0
 20 39  1  0
 21 22  1  0
 21 40  1  0
 21 41  1  0
 22 23  1  0
 22 42  1  0
 22 43  1  0
 23 24  1  0
 23 44  1  0
 23 45  1  0
 24 46  1  0
 24 47  1  0
 25 26  2  0
 25 48  1  0
 26 49  1  0
M  END

