
     RDKit          3D

 64 66  0  0  0  0  0  0  0  0999 V2000
    2.6991   -0.5773    2.9797 C   0  0  0  0  0  0  0  0  0  0  0  0
    2.5405    0.6502    2.0792 C   0  0  0  0  0  0  0  0  0  0  0  0
    3.2493    1.8460    2.5406 N   0  0  0  0  0  0  0  0  0  0  0  0
    2.5306    2.8250    3.3460 C   0  0  0  0  0  0  0  0  0  0  0  0
    2.7329    2.7000    4.8608 C   0  0  0  0  0  0  0  0  0  0  0  0
    4.5803    2.0076    2.2335 C   0  0  0  0  0  0  0  0  0  0  0  0
    5.3282    3.1541    2.6300 C   0  0  0  0  0  0  0  0  0  0  0  0
    6.6573    3.2441    2.2575 C   0  0  0  0  0  0  0  0  0  0  0  0
    7.2708    2.2043    1.5335 C   0  0  0  0  0  0  0  0  0  0  0  0
    8.6812    2.3845    1.0609 C   0  0  0  0  0  0  0  0  0  0  0  0
    9.0736    3.4952    0.7243 O   0  0  0  0  0  0  0  0  0  0  0  0
    9.4982    1.2716    0.9685 N   0  0  0  0  0  0  0  0  0  0  0  0
    9.4153    0.0975    1.8378 C   0  0  0  0  0  0  0  0  0  0  0  0
    9.8766   -1.1581    1.0804 C   0  0  0  0  0  0  0  0  0  0  0  0
   11.2030   -1.0311    0.4903 N   0  0  0  0  0  0  0  0  0  0  0  0
   12.3556   -1.2073    1.3695 C   0  0  1  0  0  0  0  0  0  0  0  0
   12.2570   -2.4938    2.2090 C   0  0  0  0  0  0  0  0  0  0  0  0
   13.6438   -1.3342    0.5116 C   0  0  0  0  0  0  0  0  0  0  0  0
   13.5932   -1.7910   -0.6177 O   0  0  0  0  0  0  0  0  0  0  0  0
   14.8419   -0.9595    1.0857 N   0  0  0  0  0  0  0  0  0  0  0  0
   16.0739   -1.1492    0.3156 C   0  0  0  0  0  0  0  0  0  0  0  0
   16.8752    0.1528    0.2231 C   0  0  0  0  0  0  0  0  0  0  0  0
   17.1468    0.7367    1.6148 C   0  0  0  0  0  0  0  0  0  0  0  0
   15.8428    0.8737    2.4090 C   0  0  0  0  0  0  0  0  0  0  0  0
   15.0657   -0.4499    2.4359 C   0  0  0  0  0  0  0  0  0  0  0  0
   11.2363    0.1558   -0.3635 C   0  0  0  0  0  0  0  0  0  0  0  0
   10.8154    1.4459    0.3547 C   0  0  0  0  0  0  0  0  0  0  0  0
    6.4418    1.1332    1.1749 C   0  0  0  0  0  0  0  0  0  0  0  0
    5.1588    1.0312    1.5083 N   0  0  0  0  0  0  0  0  0  0  0  0
    2.1385   -1.4293    2.5610 H   0  0  0  0  0  0  0  0  0  0  0  0
    2.3218   -0.3935    3.9982 H   0  0  0  0  0  0  0  0  0  0  0  0
    3.7581   -0.8676    3.0458 H   0  0  0  0  0  0  0  0  0  0  0  0
    1.4753    0.9182    1.9894 H   0  0  0  0  0  0  0  0  0  0  0  0
    2.9086    0.4050    1.0735 H   0  0  0  0  0  0  0  0  0  0  0  0
    1.4602    2.7174    3.1110 H   0  0  0  0  0  0  0  0  0  0  0  0
    2.8051    3.8411    3.0158 H   0  0  0  0  0  0  0  0  0  0  0  0
    2.3834    1.7245    5.2318 H   0  0  0  0  0  0  0  0  0  0  0  0
    2.1680    3.4863    5.3878 H   0  0  0  0  0  0  0  0  0  0  0  0
    3.7939    2.8033    5.1361 H   0  0  0  0  0  0  0  0  0  0  0  0
    4.8749    3.9590    3.2064 H   0  0  0  0  0  0  0  0  0  0  0  0
    7.2477    4.1262    2.5157 H   0  0  0  0  0  0  0  0  0  0  0  0
    8.3923   -0.0317    2.2089 H   0  0  0  0  0  0  0  0  0  0  0  0
   10.0607    0.2540    2.7275 H   0  0  0  0  0  0  0  0  0  0  0  0
    9.1616   -1.3458    0.2586 H   0  0  0  0  0  0  0  0  0  0  0  0
    9.8269   -2.0309    1.7449 H   0  0  0  0  0  0  0  0  0  0  0  0
   12.4732   -0.3528    2.0663 H   0  0  0  0  0  0  0  0  0  0  0  0
   12.0505   -3.3472    1.5455 H   0  0  0  0  0  0  0  0  0  0  0  0
   11.4698   -2.4372    2.9747 H   0  0  0  0  0  0  0  0  0  0  0  0
   13.2053   -2.6874    2.7317 H   0  0  0  0  0  0  0  0  0  0  0  0
   15.7873   -1.5244   -0.6734 H   0  0  0  0  0  0  0  0  0  0  0  0
   16.6877   -1.9286    0.8096 H   0  0  0  0  0  0  0  0  0  0  0  0
   16.3059    0.8799   -0.3824 H   0  0  0  0  0  0  0  0  0  0  0  0
   17.8207   -0.0376   -0.3114 H   0  0  0  0  0  0  0  0  0  0  0  0
   17.6562    1.7114    1.5379 H   0  0  0  0  0  0  0  0  0  0  0  0
   17.8356    0.0668    2.1626 H   0  0  0  0  0  0  0  0  0  0  0  0
   15.2050    1.6488    1.9483 H   0  0  0  0  0  0  0  0  0  0  0  0
   16.0459    1.1966    3.4440 H   0  0  0  0  0  0  0  0  0  0  0  0
   14.1141   -0.3194    2.9616 H   0  0  0  0  0  0  0  0  0  0  0  0
   15.6456   -1.2004    3.0105 H   0  0  0  0  0  0  0  0  0  0  0  0
   10.5415   -0.0147   -1.2050 H   0  0  0  0  0  0  0  0  0  0  0  0
   12.2358    0.2712   -0.8028 H   0  0  0  0  0  0  0  0  0  0  0  0
   10.7579    2.2907   -0.3432 H   0  0  0  0  0  0  0  0  0  0  0  0
   11.5593    1.7270    1.1278 H   0  0  0  0  0  0  0  0  0  0  0  0
    6.8362    0.3201    0.5534 H   0  0  0  0  0  0  0  0  0  0  0  0
  1  2  1  0
  1 30  1  0
  1 31  1  0
  1 32  1  0
  2  3  1  0
  2 33  1  0
  2 34  1  0
  3  4  1  0
  3  6  1  0
  4  5  1  0
  4 35  1  0
  4 36  1  0
  5 37  1  0
  5 38  1  0
  5 39  1  0
  6  7  2  0
  6 29  1  0
  7  8  1  0
  7 40  1  0
  8  9  2  0
  8 41  1  0
  9 10  1  0
  9 28  1  0
 10 11  2  0
 10 12  1  0
 12 13  1  0
 12 27  1  0
 13 14  1  0
 13 42  1  0
 13 43  1  0
 14 15  1  0
 14 44  1  0
 14 45  1  0
 15 16  1  0
 15 26  1  0
 16 17  1  0
 16 18  1  0
 16 46  1  1
 17 47  1  0
 17 48  1  0
 17 49  1  0
 18 19  2  0
 18 20  1  0
 20 21  1  0
 20 25  1  0
 21 22  1  0
 21 50  1  0
 21 51  1  0
 22 23  1  0
 22 52  1  0
 22 53  1  0
 23 24  1  0
 23 54  1  0
 23 55  1  0
 24 25  1  0
 24 56  1  0
 24 57  1  0
 25 58  1  0
 25 59  1  0
 26 27  1  0
 26 60  1  0
 26 61  1  0
 27 62  1  0
 27 63  1  0
 28 29  2  0
 28 64  1  0
M  END

