
     RDKit          3D

 50 51  0  0  0  0  0  0  0  0999 V2000
    1.6763    0.1229   -0.7916 C   0  0  0  0  0  0  0  0  0  0  0  0
    2.6760   -0.1048    0.1748 O   0  0  0  0  0  0  0  0  0  0  0  0
    3.2784    0.9567    0.7782 C   0  0  0  0  0  0  0  0  0  0  0  0
    2.9902    2.2940    0.5180 C   0  0  0  0  0  0  0  0  0  0  0  0
    3.6685    3.3140    1.2032 C   0  0  0  0  0  0  0  0  0  0  0  0
    4.6358    2.9904    2.1597 C   0  0  0  0  0  0  0  0  0  0  0  0
    5.3970    4.0079    2.9661 C   0  0  0  0  0  0  0  0  0  0  0  0
    5.9317    3.7118    4.0239 O   0  0  0  0  0  0  0  0  0  0  0  0
    5.4524    5.2681    2.4028 N   0  0  0  0  0  0  0  0  0  0  0  0
    6.0395    6.4487    2.8981 C   0  0  0  0  0  0  0  0  0  0  0  0
    6.6583    6.5000    4.1594 C   0  0  0  0  0  0  0  0  0  0  0  0
    7.2135    7.6994    4.5988 C   0  0  0  0  0  0  0  0  0  0  0  0
    7.1627    8.8418    3.8015 C   0  0  0  0  0  0  0  0  0  0  0  0
    6.5509    8.8101    2.5391 C   0  0  0  0  0  0  0  0  0  0  0  0
    6.5185   10.0735    1.7068 C   0  0  0  0  0  0  0  0  0  0  0  0
    5.9814    7.6048    2.0753 C   0  0  0  0  0  0  0  0  0  0  0  0
    5.3067    7.5189    0.7241 C   0  0  0  0  0  0  0  0  0  0  0  0
    4.9049    1.6381    2.4396 C   0  0  0  0  0  0  0  0  0  0  0  0
    4.2596    0.6023    1.7545 C   0  0  0  0  0  0  0  0  0  0  0  0
    4.5270   -0.7330    1.9519 N   0  0  0  0  0  0  0  0  0  0  0  0
    5.2823   -1.2296    3.0745 C   0  0  0  0  0  0  0  0  0  0  0  0
    5.4463   -2.7567    2.9653 C   0  0  1  0  0  0  0  0  0  0  0  0
    5.9632   -3.0855    3.8934 H   0  0  0  0  0  0  0  0  0  0  0  0
    4.1323   -3.3669    2.7910 N   0  0  0  0  0  0  0  0  0  0  0  0
    6.3531   -3.1273    1.7837 C   0  0  0  0  0  0  0  0  0  0  0  0
    6.6174   -4.9302    1.5496 S   0  0  0  0  0  0  0  0  0  0  0  0
    1.3406   -0.8643   -1.1362 H   0  0  0  0  0  0  0  0  0  0  0  0
    2.0653    0.6916   -1.6554 H   0  0  0  0  0  0  0  0  0  0  0  0
    0.8133    0.6679   -0.3679 H   0  0  0  0  0  0  0  0  0  0  0  0
    2.2258    2.5594   -0.2126 H   0  0  0  0  0  0  0  0  0  0  0  0
    3.3859    4.3501    1.0041 H   0  0  0  0  0  0  0  0  0  0  0  0
    5.0682    5.3333    1.4707 H   0  0  0  0  0  0  0  0  0  0  0  0
    6.6958    5.5988    4.7653 H   0  0  0  0  0  0  0  0  0  0  0  0
    7.6943    7.7387    5.5798 H   0  0  0  0  0  0  0  0  0  0  0  0
    7.6032    9.7767    4.1579 H   0  0  0  0  0  0  0  0  0  0  0  0
    7.0100   10.9005    2.2391 H   0  0  0  0  0  0  0  0  0  0  0  0
    5.4883   10.3954    1.4788 H   0  0  0  0  0  0  0  0  0  0  0  0
    7.0378    9.9490    0.7416 H   0  0  0  0  0  0  0  0  0  0  0  0
    5.3330    8.4723    0.1844 H   0  0  0  0  0  0  0  0  0  0  0  0
    4.2423    7.2342    0.8137 H   0  0  0  0  0  0  0  0  0  0  0  0
    5.7892    6.7710    0.0689 H   0  0  0  0  0  0  0  0  0  0  0  0
    5.6391    1.4235    3.2155 H   0  0  0  0  0  0  0  0  0  0  0  0
    3.8191   -1.3840    1.6194 H   0  0  0  0  0  0  0  0  0  0  0  0
    4.7968   -0.9880    4.0458 H   0  0  0  0  0  0  0  0  0  0  0  0
    6.2807   -0.7603    3.1089 H   0  0  0  0  0  0  0  0  0  0  0  0
    3.5954   -3.3267    3.6574 H   0  0  0  0  0  0  0  0  0  0  0  0
    4.2429   -4.3528    2.5474 H   0  0  0  0  0  0  0  0  0  0  0  0
    7.3281   -2.6277    1.8794 H   0  0  0  0  0  0  0  0  0  0  0  0
    5.8972   -2.7852    0.8428 H   0  0  0  0  0  0  0  0  0  0  0  0
    7.3070   -5.1405    2.6965 H   0  0  0  0  0  0  0  0  0  0  0  0
  1  2  1  0
  1 27  1  0
  1 28  1  0
  1 29  1  0
  2  3  1  0
  3  4  2  0
  3 19  1  0
  4  5  1  0
  4 30  1  0
  5  6  2  0
  5 31  1  0
  6  7  1  0
  6 18  1  0
  7  8  2  0
  7  9  1  0
  9 10  1  0
  9 32  1  0
 10 11  2  0
 10 16  1  0
 11 12  1  0
 11 33  1  0
 12 13  2  0
 12 34  1  0
 13 14  1  0
 13 35  1  0
 14 15  1  0
 14 16  2  0
 15 36  1  0
 15 37  1  0
 15 38  1  0
 16 17  1  0
 17 39  1  0
 17 40  1  0
 17 41  1  0
 18 19  2  0
 18 42  1  0
 19 20  1  0
 20 21  1  0
 20 43  1  0
 21 22  1  0
 21 44  1  0
 21 45  1  0
 22 23  1  1
 22 24  1  0
 22 25  1  0
 24 46  1  0
 24 47  1  0
 25 26  1  0
 25 48  1  0
 25 49  1  0
 26 50  1  0
M  END

