
     RDKit          3D

 56 55  0  0  0  0  0  0  0  0999 V2000
    0.9202   -4.8941    0.1745 C   0  0  0  0  0  0  0  0  0  0  0  0
    2.2052   -4.4537    0.5093 O   0  0  0  0  0  0  0  0  0  0  0  0
    2.8278   -3.6882   -0.4971 C   0  0  0  0  0  0  0  0  0  0  0  0
    4.2065   -3.2694    0.0134 C   0  0  0  0  0  0  0  0  0  0  0  0
    4.9261   -2.4224   -0.9253 N   0  0  0  0  0  0  0  0  0  0  0  0
    4.4761   -1.0242   -0.9261 C   0  0  1  0  0  0  0  0  0  0  0  0
    5.3665   -0.0366   -0.1477 C   0  0  0  0  0  0  0  0  0  0  0  0
    4.1823   -0.4990   -2.3350 C   0  0  0  0  0  0  0  0  0  0  0  0
    3.1281   -1.2510   -2.8994 O   0  0  0  0  0  0  0  0  0  0  0  0
    2.5372   -0.6652   -4.0268 C   0  0  0  0  0  0  0  0  0  0  0  0
    6.3482   -2.6894   -1.1788 C   0  0  1  0  0  0  0  0  0  0  0  0
    7.1815   -2.9720    0.0888 C   0  0  0  0  0  0  0  0  0  0  0  0
    6.6138   -3.7707   -2.2744 C   0  0  1  0  0  0  0  0  0  0  0  0
    5.9624   -5.1352   -2.0204 C   0  0  0  0  0  0  0  0  0  0  0  0
    6.2700   -3.2746   -3.6894 C   0  0  0  0  0  0  0  0  0  0  0  0
    7.1350   -2.1648   -4.0912 N   0  0  0  0  0  0  0  0  0  0  0  0
    7.2707   -1.8449   -5.5275 C   0  0  1  0  0  0  0  0  0  0  0  0
    5.8920   -1.5284   -6.1257 C   0  0  0  0  0  0  0  0  0  0  0  0
    8.1611   -0.5940   -5.6125 C   0  0  0  0  0  0  0  0  0  0  0  0
    7.9324   -2.9905   -6.3290 C   0  0  0  0  0  0  0  0  0  0  0  0
    0.5259   -5.4731    1.0235 H   0  0  0  0  0  0  0  0  0  0  0  0
    0.9214   -5.5461   -0.7240 H   0  0  0  0  0  0  0  0  0  0  0  0
    0.2278   -4.0501   -0.0268 H   0  0  0  0  0  0  0  0  0  0  0  0
    2.2167   -2.8009   -0.7565 H   0  0  0  0  0  0  0  0  0  0  0  0
    2.9344   -4.2706   -1.4351 H   0  0  0  0  0  0  0  0  0  0  0  0
    4.7755   -4.1863    0.2107 H   0  0  0  0  0  0  0  0  0  0  0  0
    4.0655   -2.7865    1.0044 H   0  0  0  0  0  0  0  0  0  0  0  0
    3.4978   -1.0258   -0.4201 H   0  0  0  0  0  0  0  0  0  0  0  0
    6.3541    0.0979   -0.6163 H   0  0  0  0  0  0  0  0  0  0  0  0
    5.5244   -0.3831    0.8847 H   0  0  0  0  0  0  0  0  0  0  0  0
    4.8896    0.9553   -0.0956 H   0  0  0  0  0  0  0  0  0  0  0  0
    5.0892   -0.5499   -2.9704 H   0  0  0  0  0  0  0  0  0  0  0  0
    3.8862    0.5685   -2.2625 H   0  0  0  0  0  0  0  0  0  0  0  0
    1.7347   -1.3343   -4.3723 H   0  0  0  0  0  0  0  0  0  0  0  0
    3.2559   -0.5259   -4.8577 H   0  0  0  0  0  0  0  0  0  0  0  0
    2.0923    0.3251   -3.7954 H   0  0  0  0  0  0  0  0  0  0  0  0
    6.7499   -1.7643   -1.6165 H   0  0  0  0  0  0  0  0  0  0  0  0
    6.9265   -3.9354    0.5570 H   0  0  0  0  0  0  0  0  0  0  0  0
    7.0325   -2.1883    0.8459 H   0  0  0  0  0  0  0  0  0  0  0  0
    8.2560   -3.0035   -0.1539 H   0  0  0  0  0  0  0  0  0  0  0  0
    7.7100   -3.9342   -2.2619 H   0  0  0  0  0  0  0  0  0  0  0  0
    4.8678   -5.0826   -2.1185 H   0  0  0  0  0  0  0  0  0  0  0  0
    6.1962   -5.5290   -1.0195 H   0  0  0  0  0  0  0  0  0  0  0  0
    6.3228   -5.8755   -2.7528 H   0  0  0  0  0  0  0  0  0  0  0  0
    5.2153   -2.9510   -3.7002 H   0  0  0  0  0  0  0  0  0  0  0  0
    6.3449   -4.1431   -4.3765 H   0  0  0  0  0  0  0  0  0  0  0  0
    8.0723   -2.3302   -3.7226 H   0  0  0  0  0  0  0  0  0  0  0  0
    5.4108   -0.7083   -5.5721 H   0  0  0  0  0  0  0  0  0  0  0  0
    5.2216   -2.4010   -6.0959 H   0  0  0  0  0  0  0  0  0  0  0  0
    5.9922   -1.2215   -7.1785 H   0  0  0  0  0  0  0  0  0  0  0  0
    7.7045    0.2418   -5.0609 H   0  0  0  0  0  0  0  0  0  0  0  0
    8.3172   -0.2847   -6.6581 H   0  0  0  0  0  0  0  0  0  0  0  0
    9.1538   -0.7876   -5.1712 H   0  0  0  0  0  0  0  0  0  0  0  0
    7.3309   -3.9123   -6.2980 H   0  0  0  0  0  0  0  0  0  0  0  0
    8.9316   -3.2234   -5.9237 H   0  0  0  0  0  0  0  0  0  0  0  0
    8.0576   -2.7151   -7.3887 H   0  0  0  0  0  0  0  0  0  0  0  0
  1  2  1  0
  1 21  1  0
  1 22  1  0
  1 23  1  0
  2  3  1  0
  3  4  1  0
  3 24  1  0
  3 25  1  0
  4  5  1  0
  4 26  1  0
  4 27  1  0
  5  6  1  0
  5 11  1  0
  6  7  1  0
  6  8  1  0
  6 28  1  1
  7 29  1  0
  7 30  1  0
  7 31  1  0
  8  9  1  0
  8 32  1  0
  8 33  1  0
  9 10  1  0
 10 34  1  0
 10 35  1  0
 10 36  1  0
 11 12  1  0
 11 13  1  0
 11 37  1  6
 12 38  1  0
 12 39  1  0
 12 40  1  0
 13 14  1  0
 13 15  1  0
 13 41  1  6
 14 42  1  0
 14 43  1  0
 14 44  1  0
 15 16  1  0
 15 45  1  0
 15 46  1  0
 17 16  1  1
 16 47  1  0
 17 18  1  0
 17 19  1  0
 17 20  1  0
 18 48  1  0
 18 49  1  0
 18 50  1  0
 19 51  1  0
 19 52  1  0
 19 53  1  0
 20 54  1  0
 20 55  1  0
 20 56  1  0
M  END

