
     RDKit          3D

 24 25  0  0  0  0  0  0  0  0999 V2000
    1.3061    0.8475   -0.5418 C   0  0  0  0  0  0  0  0  0  0  0  0
    2.4150   -0.0683   -0.0037 C   0  0  0  0  0  0  0  0  0  0  0  0
    2.7973   -1.1616   -0.9423 C   0  0  0  0  0  0  0  0  0  0  0  0
    2.7179   -2.4427   -0.7727 N   0  0  0  0  0  0  0  0  0  0  0  0
    3.1935   -2.9809   -1.9540 C   0  0  0  0  0  0  0  0  0  0  0  0
    3.3681   -4.3550   -2.3862 C   0  0  0  0  0  0  0  0  0  0  0  0
    3.1409   -5.4008   -1.8178 O   0  0  0  0  0  0  0  0  0  0  0  0
    3.9047   -4.3422   -3.7124 N   0  0  0  0  0  0  0  0  0  0  0  0
    4.1021   -5.2448   -4.1527 H   0  0  0  0  0  0  0  0  0  0  0  0
    4.2146   -3.2534   -4.4615 C   0  0  0  0  0  0  0  0  0  0  0  0
    4.7288   -3.5294   -5.8627 C   0  0  0  0  0  0  0  0  0  0  0  0
    5.2267   -4.8907   -5.9981 N   0  0  0  0  0  0  0  0  0  0  0  0
    4.0601   -2.0183   -4.0538 N   0  0  0  0  0  0  0  0  0  0  0  0
    3.5488   -1.9527   -2.8126 C   0  0  0  0  0  0  0  0  0  0  0  0
    3.2978   -0.7852   -2.1726 O   0  0  0  0  0  0  0  0  0  0  0  0
    1.0745    1.6397    0.1865 H   0  0  0  0  0  0  0  0  0  0  0  0
    0.3818    0.2804   -0.7340 H   0  0  0  0  0  0  0  0  0  0  0  0
    1.6120    1.3292   -1.4831 H   0  0  0  0  0  0  0  0  0  0  0  0
    2.1061   -0.5555    0.9321 H   0  0  0  0  0  0  0  0  0  0  0  0
    3.3135    0.5330    0.2223 H   0  0  0  0  0  0  0  0  0  0  0  0
    5.4481   -2.7270   -6.1085 H   0  0  0  0  0  0  0  0  0  0  0  0
    3.8754   -3.3930   -6.5495 H   0  0  0  0  0  0  0  0  0  0  0  0
    6.2077   -4.9607   -5.7293 H   0  0  0  0  0  0  0  0  0  0  0  0
    5.1504   -5.2258   -6.9554 H   0  0  0  0  0  0  0  0  0  0  0  0
  1  2  1  0
  1 16  1  0
  1 17  1  0
  1 18  1  0
  2  3  1  0
  2 19  1  0
  2 20  1  0
  3  4  2  0
  3 15  1  0
  4  5  1  0
  5  6  1  0
  5 14  2  0
  6  7  2  0
  6  8  1  0
  8  9  1  0
  8 10  1  0
 10 11  1  0
 10 13  2  0
 11 12  1  0
 11 21  1  0
 11 22  1  0
 12 23  1  0
 12 24  1  0
 13 14  1  0
 14 15  1  0
M  END

