
     RDKit          3D

 39 41  0  0  0  0  0  0  0  0999 V2000
    1.5890    0.1325    0.5080 O   0  0  0  0  0  0  0  0  0  0  0  0
    2.8096    0.2623    0.5181 C   0  0  0  0  0  0  0  0  0  0  0  0
    3.7115   -0.8774    0.8582 C   0  0  0  0  0  0  0  0  0  0  0  0
    3.1729   -2.0626    1.2066 C   0  0  0  0  0  0  0  0  0  0  0  0
    3.8811   -3.2930    1.5661 C   0  0  0  0  0  0  0  0  0  0  0  0
    3.1544   -4.4122    2.0110 C   0  0  0  0  0  0  0  0  0  0  0  0
    3.8302   -5.5804    2.3588 C   0  0  0  0  0  0  0  0  0  0  0  0
    5.2234   -5.5993    2.2489 C   0  0  0  0  0  0  0  0  0  0  0  0
    5.9364   -4.5519    1.8196 N   0  0  0  0  0  0  0  0  0  0  0  0
    5.2844   -3.4412    1.4893 C   0  0  0  0  0  0  0  0  0  0  0  0
    3.3972    1.4800    0.2297 N   0  0  0  0  0  0  0  0  0  0  0  0
    2.4941    2.6064   -0.0424 C   0  0  0  0  0  0  0  0  0  0  0  0
    2.1491    2.8087   -1.4961 C   0  0  0  0  0  0  0  0  0  0  0  0
    1.2808    2.0707   -2.2684 C   0  0  0  0  0  0  0  0  0  0  0  0
    1.2220    2.5143   -3.6243 C   0  0  0  0  0  0  0  0  0  0  0  0
    2.0452    3.5856   -3.8698 C   0  0  0  0  0  0  0  0  0  0  0  0
    2.9008    4.0628   -2.4451 S   0  0  0  0  0  0  0  0  0  0  0  0
    4.8397    1.6982    0.1739 C   0  0  0  0  0  0  0  0  0  0  0  0
    5.5480    1.0389   -0.9885 C   0  0  0  0  0  0  0  0  0  0  0  0
    5.0790    0.7472   -2.2461 C   0  0  0  0  0  0  0  0  0  0  0  0
    6.0685    0.1494   -3.0875 C   0  0  0  0  0  0  0  0  0  0  0  0
    7.2768   -0.0084   -2.4607 C   0  0  0  0  0  0  0  0  0  0  0  0
    7.2218    0.5697   -0.8289 S   0  0  0  0  0  0  0  0  0  0  0  0
    4.7917   -0.7474    0.8094 H   0  0  0  0  0  0  0  0  0  0  0  0
    2.0783   -2.1077    1.2251 H   0  0  0  0  0  0  0  0  0  0  0  0
    2.0645   -4.3557    2.0828 H   0  0  0  0  0  0  0  0  0  0  0  0
    3.2900   -6.4628    2.7092 H   0  0  0  0  0  0  0  0  0  0  0  0
    5.7886   -6.4999    2.5165 H   0  0  0  0  0  0  0  0  0  0  0  0
    5.9032   -2.6110    1.1296 H   0  0  0  0  0  0  0  0  0  0  0  0
    2.9493    3.5189    0.3717 H   0  0  0  0  0  0  0  0  0  0  0  0
    1.5673    2.4063    0.5109 H   0  0  0  0  0  0  0  0  0  0  0  0
    0.7134    1.2335   -1.8590 H   0  0  0  0  0  0  0  0  0  0  0  0
    0.5868    2.0612   -4.3876 H   0  0  0  0  0  0  0  0  0  0  0  0
    2.1875    4.1284   -4.8032 H   0  0  0  0  0  0  0  0  0  0  0  0
    5.3129    1.3846    1.1206 H   0  0  0  0  0  0  0  0  0  0  0  0
    4.9928    2.7883    0.1206 H   0  0  0  0  0  0  0  0  0  0  0  0
    4.0536    0.9505   -2.5571 H   0  0  0  0  0  0  0  0  0  0  0  0
    5.8842   -0.1543   -4.1193 H   0  0  0  0  0  0  0  0  0  0  0  0
    8.1972   -0.4333   -2.8586 H   0  0  0  0  0  0  0  0  0  0  0  0
  1  2  2  0
  2  3  1  0
  2 11  1  0
  3  4  2  0
  3 24  1  0
  4  5  1  0
  4 25  1  0
  5  6  2  0
  5 10  1  0
  6  7  1  0
  6 26  1  0
  7  8  2  0
  7 27  1  0
  8  9  1  0
  8 28  1  0
  9 10  2  0
 10 29  1  0
 11 12  1  0
 11 18  1  0
 12 13  1  0
 12 30  1  0
 12 31  1  0
 13 14  2  0
 13 17  1  0
 14 15  1  0
 14 32  1  0
 15 16  2  0
 15 33  1  0
 16 17  1  0
 16 34  1  0
 18 19  1  0
 18 35  1  0
 18 36  1  0
 19 20  2  0
 19 23  1  0
 20 21  1  0
 20 37  1  0
 21 22  2  0
 21 38  1  0
 22 23  1  0
 22 39  1  0
M  END

