
     RDKit          3D

 36 37  0  0  0  0  0  0  0  0999 V2000
    2.9379   -1.3898    0.0949 C   0  0  0  0  0  0  0  0  0  0  0  0
    2.9941    0.1138    0.2644 C   0  0  0  0  0  0  0  0  0  0  0  0
    2.7106    0.6112    1.3397 O   0  0  0  0  0  0  0  0  0  0  0  0
    3.3969    1.0124   -0.8792 C   0  0  0  0  0  0  0  0  0  0  0  0
    3.4096    2.3886   -0.5896 C   0  0  0  0  0  0  0  0  0  0  0  0
    3.7605    3.3174   -1.5500 C   0  0  0  0  0  0  0  0  0  0  0  0
    3.7622    4.6291   -1.2388 F   0  0  0  0  0  0  0  0  0  0  0  0
    4.1191    2.9420   -2.8508 C   0  0  0  0  0  0  0  0  0  0  0  0
    4.4948    3.9871   -3.8654 C   0  0  0  0  0  0  0  0  0  0  0  0
    4.1091    1.5745   -3.1479 C   0  0  0  0  0  0  0  0  0  0  0  0
    3.7559    0.6053   -2.1905 C   0  0  0  0  0  0  0  0  0  0  0  0
    3.7455   -0.7205   -2.4775 O   0  0  0  0  0  0  0  0  0  0  0  0
    4.0964   -1.1744   -3.7794 C   0  0  0  0  0  0  0  0  0  0  0  0
    3.9843   -2.6908   -3.7759 C   0  0  0  0  0  0  0  0  0  0  0  0
    4.3288   -3.3251   -5.1073 C   0  0  0  0  0  0  0  0  0  0  0  0
    4.2675   -4.7208   -5.2714 C   0  0  0  0  0  0  0  0  0  0  0  0
    4.5911   -5.2715   -6.5089 C   0  0  0  0  0  0  0  0  0  0  0  0
    4.9673   -4.4171   -7.5503 C   0  0  0  0  0  0  0  0  0  0  0  0
    4.9990   -3.0461   -7.2935 C   0  0  0  0  0  0  0  0  0  0  0  0
    4.6893   -2.5127   -6.1074 N   0  0  0  0  0  0  0  0  0  0  0  0
    2.6244   -1.8282    1.0513 H   0  0  0  0  0  0  0  0  0  0  0  0
    3.9181   -1.7878   -0.2067 H   0  0  0  0  0  0  0  0  0  0  0  0
    2.2346   -1.6687   -0.7037 H   0  0  0  0  0  0  0  0  0  0  0  0
    3.1340    2.7054    0.4172 H   0  0  0  0  0  0  0  0  0  0  0  0
    3.6693    4.7007   -4.0218 H   0  0  0  0  0  0  0  0  0  0  0  0
    4.7490    3.5329   -4.8334 H   0  0  0  0  0  0  0  0  0  0  0  0
    5.3585    4.5795   -3.5214 H   0  0  0  0  0  0  0  0  0  0  0  0
    4.3860    1.2684   -4.1561 H   0  0  0  0  0  0  0  0  0  0  0  0
    5.1221   -0.8626   -4.0376 H   0  0  0  0  0  0  0  0  0  0  0  0
    3.4252   -0.7385   -4.5381 H   0  0  0  0  0  0  0  0  0  0  0  0
    2.9586   -2.9770   -3.4849 H   0  0  0  0  0  0  0  0  0  0  0  0
    4.6431   -3.1003   -2.9904 H   0  0  0  0  0  0  0  0  0  0  0  0
    3.9691   -5.3581   -4.4350 H   0  0  0  0  0  0  0  0  0  0  0  0
    4.5511   -6.3533   -6.6617 H   0  0  0  0  0  0  0  0  0  0  0  0
    5.2296   -4.8033   -8.5377 H   0  0  0  0  0  0  0  0  0  0  0  0
    5.2884   -2.3419   -8.0826 H   0  0  0  0  0  0  0  0  0  0  0  0
  1  2  1  0
  1 21  1  0
  1 22  1  0
  1 23  1  0
  2  3  2  0
  2  4  1  0
  4  5  2  0
  4 11  1  0
  5  6  1  0
  5 24  1  0
  6  7  1  0
  6  8  2  0
  8  9  1  0
  8 10  1  0
  9 25  1  0
  9 26  1  0
  9 27  1  0
 10 11  2  0
 10 28  1  0
 11 12  1  0
 12 13  1  0
 13 14  1  0
 13 29  1  0
 13 30  1  0
 14 15  1  0
 14 31  1  0
 14 32  1  0
 15 16  2  0
 15 20  1  0
 16 17  1  0
 16 33  1  0
 17 18  2  0
 17 34  1  0
 18 19  1  0
 18 35  1  0
 19 20  2  0
 19 36  1  0
M  END

