
     RDKit          3D

 45 47  0  0  0  0  0  0  0  0999 V2000
    9.6401    0.8086    4.4732 C   0  0  0  0  0  0  0  0  0  0  0  0
    8.9083    0.6613    3.1610 C   0  0  0  0  0  0  0  0  0  0  0  0
    9.5323    0.1082    2.0320 C   0  0  0  0  0  0  0  0  0  0  0  0
    8.8582   -0.0114    0.8147 C   0  0  0  0  0  0  0  0  0  0  0  0
    7.5305    0.4198    0.6860 C   0  0  0  0  0  0  0  0  0  0  0  0
    6.8110    0.3087   -0.6434 C   0  0  2  0  0  0  0  0  0  0  0  0
    5.7163    0.3634   -0.4571 H   0  0  0  0  0  0  0  0  0  0  0  0
    7.1263   -0.9605   -1.1978 O   0  0  0  0  0  0  0  0  0  0  0  0
    6.4354   -1.2605   -2.3952 C   0  0  0  0  0  0  0  0  0  0  0  0
    6.7658   -0.2547   -3.4935 C   0  0  0  0  0  0  0  0  0  0  0  0
    6.4846    1.1673   -3.0008 C   0  0  0  0  0  0  0  0  0  0  0  0
    7.1670    1.4392   -1.6486 C   0  0  1  0  0  0  0  0  0  0  0  0
    8.2633    1.3902   -1.7924 H   0  0  0  0  0  0  0  0  0  0  0  0
    6.8119    2.8289   -1.0908 C   0  0  0  0  0  0  0  0  0  0  0  0
    7.1561    3.9204   -1.9828 N   0  0  0  0  0  0  0  0  0  0  0  0
    6.2322    4.6774   -2.6256 C   0  0  0  0  0  0  0  0  0  0  0  0
    5.0208    4.5327   -2.5316 O   0  0  0  0  0  0  0  0  0  0  0  0
    6.8006    5.7652   -3.5056 C   0  0  0  0  0  0  0  0  0  0  0  0
    5.9023    6.6298   -4.2205 C   0  0  0  0  0  0  0  0  0  0  0  0
    6.4086    7.6111   -5.0142 C   0  0  0  0  0  0  0  0  0  0  0  0
    7.8526    7.7894   -5.1438 C   0  0  0  0  0  0  0  0  0  0  0  0
    8.4411    8.6175   -5.8126 O   0  0  0  0  0  0  0  0  0  0  0  0
    8.5739    6.8520   -4.3717 N   0  0  0  0  0  0  0  0  0  0  0  0
    9.5891    6.9262   -4.4204 H   0  0  0  0  0  0  0  0  0  0  0  0
    8.0995    5.8906   -3.5930 N   0  0  0  0  0  0  0  0  0  0  0  0
    6.8970    0.9591    1.8145 C   0  0  0  0  0  0  0  0  0  0  0  0
    7.5753    1.0816    3.0289 C   0  0  0  0  0  0  0  0  0  0  0  0
   10.5852    0.2456    4.4752 H   0  0  0  0  0  0  0  0  0  0  0  0
    9.0297    0.4503    5.3179 H   0  0  0  0  0  0  0  0  0  0  0  0
    9.8834    1.8656    4.6788 H   0  0  0  0  0  0  0  0  0  0  0  0
   10.5656   -0.2431    2.1092 H   0  0  0  0  0  0  0  0  0  0  0  0
    9.3556   -0.4670   -0.0440 H   0  0  0  0  0  0  0  0  0  0  0  0
    5.3402   -1.2701   -2.2085 H   0  0  0  0  0  0  0  0  0  0  0  0
    6.7341   -2.2822   -2.6761 H   0  0  0  0  0  0  0  0  0  0  0  0
    6.1811   -0.4797   -4.4014 H   0  0  0  0  0  0  0  0  0  0  0  0
    7.8324   -0.3572   -3.7597 H   0  0  0  0  0  0  0  0  0  0  0  0
    5.3949    1.3147   -2.8867 H   0  0  0  0  0  0  0  0  0  0  0  0
    6.8183    1.9089   -3.7438 H   0  0  0  0  0  0  0  0  0  0  0  0
    5.7278    2.9004   -0.9152 H   0  0  0  0  0  0  0  0  0  0  0  0
    7.3170    2.9830   -0.1241 H   0  0  0  0  0  0  0  0  0  0  0  0
    8.1309    4.1487   -2.1507 H   0  0  0  0  0  0  0  0  0  0  0  0
    4.8312    6.4617   -4.0953 H   0  0  0  0  0  0  0  0  0  0  0  0
    5.7777    8.2984   -5.5809 H   0  0  0  0  0  0  0  0  0  0  0  0
    5.8536    1.2813    1.7471 H   0  0  0  0  0  0  0  0  0  0  0  0
    7.0544    1.5026    3.8942 H   0  0  0  0  0  0  0  0  0  0  0  0
  1  2  1  0
  1 28  1  0
  1 29  1  0
  1 30  1  0
  2  3  2  0
  2 27  1  0
  3  4  1  0
  3 31  1  0
  4  5  2  0
  4 32  1  0
  5  6  1  0
  5 26  1  0
  6  7  1  1
  6  8  1  0
  6 12  1  0
  8  9  1  0
  9 10  1  0
  9 33  1  0
  9 34  1  0
 10 11  1  0
 10 35  1  0
 10 36  1  0
 11 12  1  0
 11 37  1  0
 11 38  1  0
 12 13  1  6
 12 14  1  0
 14 15  1  0
 14 39  1  0
 14 40  1  0
 15 16  1  0
 15 41  1  0
 16 17  2  0
 16 18  1  0
 18 19  1  0
 18 25  2  0
 19 20  2  0
 19 42  1  0
 20 21  1  0
 20 43  1  0
 21 22  2  0
 21 23  1  0
 23 24  1  0
 23 25  1  0
 26 27  2  0
 26 44  1  0
 27 45  1  0
M  END

