
     RDKit          3D

 45 46  0  0  0  0  0  0  0  0999 V2000
    1.6475    0.0701    0.7663 C   0  0  0  0  0  0  0  0  0  0  0  0
    2.5231   -0.2948   -0.2796 O   0  0  0  0  0  0  0  0  0  0  0  0
    2.9916    0.6635   -1.1233 C   0  0  0  0  0  0  0  0  0  0  0  0
    2.6479    2.0146   -0.9953 C   0  0  0  0  0  0  0  0  0  0  0  0
    3.1272    2.9545   -1.9233 C   0  0  0  0  0  0  0  0  0  0  0  0
    2.8101    4.3217   -1.8569 N   0  0  0  0  0  0  0  0  0  0  0  0
    2.0319    4.9869   -0.9201 C   0  0  0  0  0  0  0  0  0  0  0  0
    1.4620    4.4413    0.0155 O   0  0  0  0  0  0  0  0  0  0  0  0
    1.9442    6.3407   -1.1495 N   0  0  0  0  0  0  0  0  0  0  0  0
    1.2405    7.2089   -0.2281 C   0  0  0  0  0  0  0  0  0  0  0  0
    2.0704    7.6514    0.9919 C   0  0  0  0  0  0  0  0  0  0  0  0
    3.5000    8.1316    0.6534 C   0  0  0  0  0  0  0  0  0  0  0  0
    3.5321    9.1617   -0.4658 C   0  0  0  0  0  0  0  0  0  0  0  0
    3.4552    8.8712   -1.6344 O   0  0  0  0  0  0  0  0  0  0  0  0
    3.6009   10.4583   -0.1016 O   0  0  0  0  0  0  0  0  0  0  0  0
    3.9581    2.5231   -2.9699 C   0  0  0  0  0  0  0  0  0  0  0  0
    4.3143    1.1808   -3.0740 C   0  0  0  0  0  0  0  0  0  0  0  0
    3.8524    0.2282   -2.1593 C   0  0  0  0  0  0  0  0  0  0  0  0
    4.2204   -1.1350   -2.2884 N   0  0  0  0  0  0  0  0  0  0  0  0
    4.7181   -1.9528   -1.1767 C   0  0  0  0  0  0  0  0  0  0  0  0
    5.3968   -3.1384   -1.8845 C   0  0  0  0  0  0  0  0  0  0  0  0
    4.6156   -3.2618   -3.1954 C   0  0  0  0  0  0  0  0  0  0  0  0
    4.1484   -1.8342   -3.4827 C   0  0  0  0  0  0  0  0  0  0  0  0
    3.7747   -1.3940   -4.5495 O   0  0  0  0  0  0  0  0  0  0  0  0
    1.3981   -0.8574    1.2995 H   0  0  0  0  0  0  0  0  0  0  0  0
    0.7188    0.5261    0.3818 H   0  0  0  0  0  0  0  0  0  0  0  0
    2.1204    0.7758    1.4717 H   0  0  0  0  0  0  0  0  0  0  0  0
    1.9938    2.3622   -0.2024 H   0  0  0  0  0  0  0  0  0  0  0  0
    3.1706    4.8757   -2.6246 H   0  0  0  0  0  0  0  0  0  0  0  0
    2.5801    6.8091   -1.7896 H   0  0  0  0  0  0  0  0  0  0  0  0
    0.3465    6.6785    0.1297 H   0  0  0  0  0  0  0  0  0  0  0  0
    0.9001    8.0888   -0.7959 H   0  0  0  0  0  0  0  0  0  0  0  0
    2.1599    6.8058    1.6917 H   0  0  0  0  0  0  0  0  0  0  0  0
    1.5175    8.4477    1.5203 H   0  0  0  0  0  0  0  0  0  0  0  0
    4.0937    7.2742    0.3043 H   0  0  0  0  0  0  0  0  0  0  0  0
    3.9899    8.5152    1.5640 H   0  0  0  0  0  0  0  0  0  0  0  0
    3.6694   10.5370    0.8603 H   0  0  0  0  0  0  0  0  0  0  0  0
    4.3338    3.2407   -3.7047 H   0  0  0  0  0  0  0  0  0  0  0  0
    4.9546    0.8532   -3.8927 H   0  0  0  0  0  0  0  0  0  0  0  0
    3.8889   -2.2814   -0.5297 H   0  0  0  0  0  0  0  0  0  0  0  0
    5.4126   -1.3687   -0.5523 H   0  0  0  0  0  0  0  0  0  0  0  0
    5.3833   -4.0505   -1.2700 H   0  0  0  0  0  0  0  0  0  0  0  0
    6.4505   -2.8948   -2.0975 H   0  0  0  0  0  0  0  0  0  0  0  0
    3.7173   -3.8952   -3.0861 H   0  0  0  0  0  0  0  0  0  0  0  0
    5.1897   -3.6524   -4.0471 H   0  0  0  0  0  0  0  0  0  0  0  0
  1  2  1  0
  1 25  1  0
  1 26  1  0
  1 27  1  0
  2  3  1  0
  3  4  2  0
  3 18  1  0
  4  5  1  0
  4 28  1  0
  5  6  1  0
  5 16  2  0
  6  7  1  0
  6 29  1  0
  7  8  2  0
  7  9  1  0
  9 10  1  0
  9 30  1  0
 10 11  1  0
 10 31  1  0
 10 32  1  0
 11 12  1  0
 11 33  1  0
 11 34  1  0
 12 13  1  0
 12 35  1  0
 12 36  1  0
 13 14  2  0
 13 15  1  0
 15 37  1  0
 16 17  1  0
 16 38  1  0
 17 18  2  0
 17 39  1  0
 18 19  1  0
 19 20  1  0
 19 23  1  0
 20 21  1  0
 20 40  1  0
 20 41  1  0
 21 22  1  0
 21 42  1  0
 21 43  1  0
 22 23  1  0
 22 44  1  0
 22 45  1  0
 23 24  2  0
M  END

