
     RDKit          3D

 71 73  0  0  0  0  0  0  0  0999 V2000
    7.0403    1.3608    8.6332 C   0  0  0  0  0  0  0  0  0  0  0  0
    7.5192    0.6952    7.3586 C   0  0  0  0  0  0  0  0  0  0  0  0
    7.6937    1.3503    6.3335 O   0  0  0  0  0  0  0  0  0  0  0  0
    7.6936   -0.6547    7.4189 N   0  0  0  0  0  0  0  0  0  0  0  0
    8.2857   -1.4408    6.3323 C   0  0  1  0  0  0  0  0  0  0  0  0
    9.2670   -1.0281    6.0593 H   0  0  0  0  0  0  0  0  0  0  0  0
    8.4868   -2.8734    6.8305 C   0  0  1  0  0  0  0  0  0  0  0  0
    9.1273   -2.8113    8.0667 O   0  0  0  0  0  0  0  0  0  0  0  0
    7.2486   -3.5403    7.0408 O   0  0  0  0  0  0  0  0  0  0  0  0
    6.3757   -3.6509    5.8968 C   0  0  2  0  0  0  0  0  0  0  0  0
    5.4270   -4.0101    6.3240 H   0  0  0  0  0  0  0  0  0  0  0  0
    6.8833   -4.7347    4.9426 C   0  0  0  0  0  0  0  0  0  0  0  0
    7.0137   -5.9636    5.6240 O   0  0  0  0  0  0  0  0  0  0  0  0
    6.0961   -2.2631    5.2986 C   0  0  1  0  0  0  0  0  0  0  0  0
    5.6109   -2.3910    4.3185 H   0  0  0  0  0  0  0  0  0  0  0  0
    5.1863   -1.5427    6.1062 O   0  0  0  0  0  0  0  0  0  0  0  0
    7.3838   -1.4446    5.0692 C   0  0  2  0  0  0  0  0  0  0  0  0
    7.0719   -0.4139    4.8485 H   0  0  0  0  0  0  0  0  0  0  0  0
    8.0235   -2.0318    3.9478 O   0  0  0  0  0  0  0  0  0  0  0  0
    9.1660   -1.4947    3.3508 C   0  0  2  0  0  0  0  0  0  0  0  0
    9.1316   -1.8724    2.3159 H   0  0  0  0  0  0  0  0  0  0  0  0
   10.3046   -2.0223    4.0193 O   0  0  0  0  0  0  0  0  0  0  0  0
   11.5463   -1.8585    3.3279 C   0  0  1  0  0  0  0  0  0  0  0  0
   12.3022   -2.1341    4.0810 H   0  0  0  0  0  0  0  0  0  0  0  0
   11.6948   -2.8249    2.1499 C   0  0  0  0  0  0  0  0  0  0  0  0
   11.7527   -0.3582    2.9827 C   0  0  1  0  0  0  0  0  0  0  0  0
   11.9686    0.1831    3.9147 H   0  0  0  0  0  0  0  0  0  0  0  0
   12.8267   -0.1821    2.0519 O   0  0  0  0  0  0  0  0  0  0  0  0
   14.0669    0.1374    2.5882 C   0  0  2  0  0  0  0  0  0  0  0  0
   14.3064   -0.5321    3.4449 H   0  0  0  0  0  0  0  0  0  0  0  0
   14.0431    1.4753    3.0400 O   0  0  0  0  0  0  0  0  0  0  0  0
   15.2635    1.8837    3.6471 C   0  0  2  0  0  0  0  0  0  0  0  0
   15.4863    1.2183    4.5080 H   0  0  0  0  0  0  0  0  0  0  0  0
   15.0133    3.2872    4.1885 C   0  0  0  0  0  0  0  0  0  0  0  0
   13.9636    3.3075    5.1188 O   0  0  0  0  0  0  0  0  0  0  0  0
   16.4318    1.7755    2.6573 C   0  0  2  0  0  0  0  0  0  0  0  0
   17.3792    1.9507    3.2014 H   0  0  0  0  0  0  0  0  0  0  0  0
   16.3136    2.6813    1.5628 O   0  0  0  0  0  0  0  0  0  0  0  0
   16.5056    0.3736    2.0218 C   0  0  2  0  0  0  0  0  0  0  0  0
   16.7989   -0.3553    2.7975 H   0  0  0  0  0  0  0  0  0  0  0  0
   17.4972    0.3404    1.0320 O   0  0  0  0  0  0  0  0  0  0  0  0
   15.1255   -0.0514    1.4959 C   0  0  1  0  0  0  0  0  0  0  0  0
   14.8472    0.6216    0.6617 H   0  0  0  0  0  0  0  0  0  0  0  0
   15.1922   -1.3982    1.0930 O   0  0  0  0  0  0  0  0  0  0  0  0
   10.5167    0.3156    2.3656 C   0  0  1  0  0  0  0  0  0  0  0  0
   10.6947    1.4068    2.3728 H   0  0  0  0  0  0  0  0  0  0  0  0
   10.2596   -0.1439    1.0541 O   0  0  0  0  0  0  0  0  0  0  0  0
    9.2934    0.0426    3.2556 C   0  0  2  0  0  0  0  0  0  0  0  0
    8.3943    0.4461    2.7529 H   0  0  0  0  0  0  0  0  0  0  0  0
    9.5742    0.6862    4.4725 O   0  0  0  0  0  0  0  0  0  0  0  0
    6.0366    1.7761    8.4531 H   0  0  0  0  0  0  0  0  0  0  0  0
    7.7053    2.2070    8.8599 H   0  0  0  0  0  0  0  0  0  0  0  0
    6.9980    0.6826    9.4971 H   0  0  0  0  0  0  0  0  0  0  0  0
    7.7809   -1.0856    8.3361 H   0  0  0  0  0  0  0  0  0  0  0  0
    9.0941   -3.4138    6.0819 H   0  0  0  0  0  0  0  0  0  0  0  0
    9.1776   -3.7089    8.4235 H   0  0  0  0  0  0  0  0  0  0  0  0
    7.8252   -4.4236    4.4567 H   0  0  0  0  0  0  0  0  0  0  0  0
    6.1415   -4.8745    4.1392 H   0  0  0  0  0  0  0  0  0  0  0  0
    7.4239   -5.7584    6.4763 H   0  0  0  0  0  0  0  0  0  0  0  0
    5.6160   -1.4059    6.9627 H   0  0  0  0  0  0  0  0  0  0  0  0
   11.0471   -2.5609    1.3031 H   0  0  0  0  0  0  0  0  0  0  0  0
   11.4511   -3.8442    2.4856 H   0  0  0  0  0  0  0  0  0  0  0  0
   12.7371   -2.8212    1.7997 H   0  0  0  0  0  0  0  0  0  0  0  0
   14.8187    3.9598    3.3287 H   0  0  0  0  0  0  0  0  0  0  0  0
   15.9198    3.6465    4.7040 H   0  0  0  0  0  0  0  0  0  0  0  0
   13.1994    2.9016    4.6836 H   0  0  0  0  0  0  0  0  0  0  0  0
   16.6201    3.5561    1.8289 H   0  0  0  0  0  0  0  0  0  0  0  0
   17.3814    1.1580    0.5223 H   0  0  0  0  0  0  0  0  0  0  0  0
   14.3630   -1.6058    0.6426 H   0  0  0  0  0  0  0  0  0  0  0  0
   11.0850   -0.0378    0.5597 H   0  0  0  0  0  0  0  0  0  0  0  0
    8.7758    0.9400    4.9818 H   0  0  0  0  0  0  0  0  0  0  0  0
  1  2  1  0
  1 51  1  0
  1 52  1  0
  1 53  1  0
  2  3  2  0
  2  4  1  0
  4  5  1  0
  4 54  1  0
  5  6  1  6
  5  7  1  0
  5 17  1  0
  7  8  1  0
  7  9  1  0
  7 55  1  6
  8 56  1  0
  9 10  1  0
 10 11  1  1
 10 12  1  0
 10 14  1  0
 12 13  1  0
 12 57  1  0
 12 58  1  0
 13 59  1  0
 14 15  1  6
 14 16  1  0
 14 17  1  0
 16 60  1  0
 17 18  1  6
 17 19  1  0
 19 20  1  0
 20 21  1  6
 20 22  1  0
 20 48  1  0
 22 23  1  0
 23 24  1  1
 23 25  1  0
 23 26  1  0
 25 61  1  0
 25 62  1  0
 25 63  1  0
 26 27  1  1
 26 28  1  0
 26 45  1  0
 28 29  1  0
 29 30  1  1
 29 31  1  0
 29 42  1  0
 31 32  1  0
 32 33  1  1
 32 34  1  0
 32 36  1  0
 34 35  1  0
 34 64  1  0
 34 65  1  0
 35 66  1  0
 36 37  1  1
 36 38  1  0
 36 39  1  0
 38 67  1  0
 39 40  1  1
 39 41  1  0
 39 42  1  0
 41 68  1  0
 42 43  1  6
 42 44  1  0
 44 69  1  0
 45 46  1  6
 45 47  1  0
 45 48  1  0
 47 70  1  0
 48 49  1  6
 48 50  1  0
 50 71  1  0
M  END

