
     RDKit          3D

 32 33  0  0  0  0  0  0  0  0999 V2000
    1.0612   -0.6198    0.0918 N   0  0  0  0  0  0  0  0  0  0  0  0
    2.3456   -0.1828    0.2358 C   0  0  0  0  0  0  0  0  0  0  0  0
    2.9122    0.1233    1.3522 N   0  0  0  0  0  0  0  0  0  0  0  0
    1.9885   -0.0099    2.4121 O   0  0  0  0  0  0  0  0  0  0  0  0
    3.1641   -0.0559   -1.0443 C   0  0  1  0  0  0  0  0  0  0  0  0
    2.7760    1.1495   -1.7944 N   0  0  0  0  0  0  0  0  0  0  0  0
    1.6869    1.1926   -2.6041 C   0  0  0  0  0  0  0  0  0  0  0  0
    0.9202    0.2386   -2.7261 O   0  0  0  0  0  0  0  0  0  0  0  0
    1.4606    2.4682   -3.3757 C   0  0  0  0  0  0  0  0  0  0  0  0
    0.6610    2.3946   -4.5260 C   0  0  0  0  0  0  0  0  0  0  0  0
    0.4114    3.5402   -5.2812 C   0  0  0  0  0  0  0  0  0  0  0  0
    0.9376    4.7767   -4.8936 C   0  0  0  0  0  0  0  0  0  0  0  0
    1.7153    4.8481   -3.7349 C   0  0  0  0  0  0  0  0  0  0  0  0
    2.4180    6.5307   -3.1742 Br  0  0  0  0  0  0  0  0  0  0  0  0
    1.9808    3.7082   -2.9731 C   0  0  0  0  0  0  0  0  0  0  0  0
    4.6577   -0.0586   -0.8039 C   0  0  1  0  0  0  0  0  0  0  0  0
    5.4223   -1.3525   -0.8519 C   0  0  0  0  0  0  0  0  0  0  0  0
    5.5939   -0.3391   -1.9547 C   0  0  0  0  0  0  0  0  0  0  0  0
    0.4574   -0.5185    0.8987 H   0  0  0  0  0  0  0  0  0  0  0  0
    0.6528   -0.5741   -0.8386 H   0  0  0  0  0  0  0  0  0  0  0  0
    2.5155    0.2351    3.1813 H   0  0  0  0  0  0  0  0  0  0  0  0
    2.8910   -0.9129   -1.6831 H   0  0  0  0  0  0  0  0  0  0  0  0
    3.4218    1.9289   -1.7789 H   0  0  0  0  0  0  0  0  0  0  0  0
    0.2441    1.4260   -4.8058 H   0  0  0  0  0  0  0  0  0  0  0  0
   -0.2035    3.4779   -6.1824 H   0  0  0  0  0  0  0  0  0  0  0  0
    0.7410    5.6765   -5.4788 H   0  0  0  0  0  0  0  0  0  0  0  0
    2.5646    3.8077   -2.0565 H   0  0  0  0  0  0  0  0  0  0  0  0
    4.9801    0.6627   -0.0473 H   0  0  0  0  0  0  0  0  0  0  0  0
    4.8677   -2.2682   -1.0771 H   0  0  0  0  0  0  0  0  0  0  0  0
    6.2350   -1.4888   -0.1338 H   0  0  0  0  0  0  0  0  0  0  0  0
    5.1521   -0.5652   -2.9302 H   0  0  0  0  0  0  0  0  0  0  0  0
    6.5310    0.2220   -2.0087 H   0  0  0  0  0  0  0  0  0  0  0  0
  1  2  1  0
  1 19  1  0
  1 20  1  0
  2  3  2  0
  2  5  1  0
  3  4  1  0
  4 21  1  0
  5  6  1  0
  5 16  1  0
  5 22  1  6
  6  7  1  0
  6 23  1  0
  7  8  2  0
  7  9  1  0
  9 10  2  0
  9 15  1  0
 10 11  1  0
 10 24  1  0
 11 12  2  0
 11 25  1  0
 12 13  1  0
 12 26  1  0
 13 14  1  0
 13 15  2  0
 15 27  1  0
 16 17  1  0
 16 18  1  0
 16 28  1  1
 17 18  1  0
 17 29  1  0
 17 30  1  0
 18 31  1  0
 18 32  1  0
M  END

