
     RDKit          3D

 40 40  0  0  0  0  0  0  0  0999 V2000
    3.2686    1.6611    3.0471 C   0  0  0  0  0  0  0  0  0  0  0  0
    2.6739    2.5140    1.9403 C   0  0  0  0  0  0  0  0  0  0  0  0
    3.3672    2.3154    0.6880 O   0  0  0  0  0  0  0  0  0  0  0  0
    4.4557    3.0583    0.4560 C   0  0  0  0  0  0  0  0  0  0  0  0
    4.8990    3.8808    1.2222 O   0  0  0  0  0  0  0  0  0  0  0  0
    5.0412    2.7561   -0.9163 C   0  0  0  0  0  0  0  0  0  0  0  0
    6.5732    2.7511   -0.9152 C   0  0  0  0  0  0  0  0  0  0  0  0
    7.1654    1.6949   -0.8094 O   0  0  0  0  0  0  0  0  0  0  0  0
    7.2356    3.9637   -1.0300 N   0  0  0  0  0  0  0  0  0  0  0  0
    6.5608    5.2582   -1.1502 C   0  0  0  0  0  0  0  0  0  0  0  0
    6.4972    5.7571   -2.5975 C   0  0  0  0  0  0  0  0  0  0  0  0
    5.7748    7.0934   -2.7112 C   0  0  0  0  0  0  0  0  0  0  0  0
    5.2180    7.6337   -1.7954 O   0  0  0  0  0  0  0  0  0  0  0  0
    5.7783    7.6548   -3.9408 O   0  0  0  0  0  0  0  0  0  0  0  0
    8.6676    3.9603   -1.0441 C   0  0  0  0  0  0  0  0  0  0  0  0
    9.3779    3.1782   -1.9703 C   0  0  0  0  0  0  0  0  0  0  0  0
   10.7685    3.2057   -1.9922 C   0  0  0  0  0  0  0  0  0  0  0  0
   11.4865    3.9976   -1.0821 C   0  0  0  0  0  0  0  0  0  0  0  0
   12.9863    3.9952   -1.1765 C   0  0  0  0  0  0  0  0  0  0  0  0
   13.5834    3.6367   -2.1570 O   0  0  0  0  0  0  0  0  0  0  0  0
   13.6607    4.4227   -0.0838 O   0  0  0  0  0  0  0  0  0  0  0  0
   10.7743    4.7806   -0.1615 C   0  0  0  0  0  0  0  0  0  0  0  0
    9.3793    4.7593   -0.1381 C   0  0  0  0  0  0  0  0  0  0  0  0
    2.6704    1.7740    3.9654 H   0  0  0  0  0  0  0  0  0  0  0  0
    4.2997    1.9719    3.2710 H   0  0  0  0  0  0  0  0  0  0  0  0
    3.2715    0.5966    2.7664 H   0  0  0  0  0  0  0  0  0  0  0  0
    2.7093    3.5824    2.1989 H   0  0  0  0  0  0  0  0  0  0  0  0
    1.6343    2.2280    1.7263 H   0  0  0  0  0  0  0  0  0  0  0  0
    4.6118    3.4802   -1.6269 H   0  0  0  0  0  0  0  0  0  0  0  0
    4.7265    1.7534   -1.2280 H   0  0  0  0  0  0  0  0  0  0  0  0
    7.0887    6.0009   -0.5373 H   0  0  0  0  0  0  0  0  0  0  0  0
    5.5615    5.2051   -0.7103 H   0  0  0  0  0  0  0  0  0  0  0  0
    5.9728    5.0243   -3.2382 H   0  0  0  0  0  0  0  0  0  0  0  0
    7.5143    5.8546   -3.0174 H   0  0  0  0  0  0  0  0  0  0  0  0
    6.2770    7.1114   -4.5679 H   0  0  0  0  0  0  0  0  0  0  0  0
    8.8330    2.5432   -2.6688 H   0  0  0  0  0  0  0  0  0  0  0  0
   11.3279    2.6146   -2.7196 H   0  0  0  0  0  0  0  0  0  0  0  0
   13.0586    4.5305    0.6655 H   0  0  0  0  0  0  0  0  0  0  0  0
   11.2956    5.4382    0.5405 H   0  0  0  0  0  0  0  0  0  0  0  0
    8.8418    5.3610    0.5971 H   0  0  0  0  0  0  0  0  0  0  0  0
  1  2  1  0
  1 24  1  0
  1 25  1  0
  1 26  1  0
  2  3  1  0
  2 27  1  0
  2 28  1  0
  3  4  1  0
  4  5  2  0
  4  6  1  0
  6  7  1  0
  6 29  1  0
  6 30  1  0
  7  8  2  0
  7  9  1  0
  9 10  1  0
  9 15  1  0
 10 11  1  0
 10 31  1  0
 10 32  1  0
 11 12  1  0
 11 33  1  0
 11 34  1  0
 12 13  2  0
 12 14  1  0
 14 35  1  0
 15 16  2  0
 15 23  1  0
 16 17  1  0
 16 36  1  0
 17 18  2  0
 17 37  1  0
 18 19  1  0
 18 22  1  0
 19 20  2  0
 19 21  1  0
 21 38  1  0
 22 23  2  0
 22 39  1  0
 23 40  1  0
M  END

