
     RDKit          3D

 61 64  0  0  0  0  0  0  0  0999 V2000
    4.0706   -3.4207    5.5129 C   0  0  0  0  0  0  0  0  0  0  0  0
    5.2075   -4.1175    6.2750 C   0  0  1  0  0  0  0  0  0  0  0  0
    5.2759   -5.5946    5.8608 C   0  0  0  0  0  0  0  0  0  0  0  0
    6.5920   -3.3810    6.1479 C   0  0  2  0  0  0  0  0  0  0  0  0
    7.6360   -4.0724    7.0459 C   0  0  0  0  0  0  0  0  0  0  0  0
    6.4734   -1.9080    6.6033 C   0  0  0  0  0  0  0  0  0  0  0  0
    6.0118   -0.9315    5.5468 C   0  0  0  0  0  0  0  0  0  0  0  0
    5.3980    0.0862    5.8018 O   0  0  0  0  0  0  0  0  0  0  0  0
    6.4232   -1.2274    4.2462 N   0  0  0  0  0  0  0  0  0  0  0  0
    6.2308   -0.1651    3.2441 C   0  0  0  0  0  0  0  0  0  0  0  0
    7.3447    0.8699    3.2156 C   0  0  0  0  0  0  0  0  0  0  0  0
    7.1630    2.1195    3.8319 C   0  0  0  0  0  0  0  0  0  0  0  0
    8.2122    3.0372    3.7692 C   0  0  0  0  0  0  0  0  0  0  0  0
    9.3800    2.8022    3.1729 N   0  0  0  0  0  0  0  0  0  0  0  0
    9.5692    1.6041    2.5895 C   0  0  0  0  0  0  0  0  0  0  0  0
   10.7848    1.3988    1.9938 N   0  0  0  0  0  0  0  0  0  0  0  0
   11.8172    2.4332    1.9332 C   0  0  0  0  0  0  0  0  0  0  0  0
   12.8221    1.8644    0.9277 C   0  0  0  0  0  0  0  0  0  0  0  0
   12.7092    0.3376    1.1297 C   0  0  2  0  0  0  0  0  0  0  0  0
   13.3029   -0.5304    0.0390 C   0  0  0  0  0  0  0  0  0  0  0  0
   14.3125   -1.4579    0.3395 C   0  0  0  0  0  0  0  0  0  0  0  0
   14.8737   -2.2653   -0.6549 C   0  0  0  0  0  0  0  0  0  0  0  0
   14.4314   -2.1595   -1.9756 C   0  0  0  0  0  0  0  0  0  0  0  0
   13.4254   -1.2406   -2.2919 C   0  0  0  0  0  0  0  0  0  0  0  0
   12.8686   -0.4360   -1.2951 C   0  0  0  0  0  0  0  0  0  0  0  0
   11.1940    0.1511    1.3700 C   0  0  0  0  0  0  0  0  0  0  0  0
    8.5593    0.6064    2.5841 C   0  0  0  0  0  0  0  0  0  0  0  0
    6.9937   -2.4930    3.9615 C   0  0  0  0  0  0  0  0  0  0  0  0
    7.5380   -2.6322    2.6880 N   0  0  0  0  0  0  0  0  0  0  0  0
    7.0710   -3.4731    4.7747 N   0  0  0  0  0  0  0  0  0  0  0  0
    3.1269   -3.9710    5.6565 H   0  0  0  0  0  0  0  0  0  0  0  0
    4.2708   -3.3989    4.4294 H   0  0  0  0  0  0  0  0  0  0  0  0
    3.8936   -2.3889    5.8513 H   0  0  0  0  0  0  0  0  0  0  0  0
    4.9557   -4.0767    7.3515 H   0  0  0  0  0  0  0  0  0  0  0  0
    5.6099   -5.6889    4.8162 H   0  0  0  0  0  0  0  0  0  0  0  0
    4.2817   -6.0616    5.9479 H   0  0  0  0  0  0  0  0  0  0  0  0
    5.9662   -6.1774    6.4875 H   0  0  0  0  0  0  0  0  0  0  0  0
    7.3121   -4.0825    8.0996 H   0  0  0  0  0  0  0  0  0  0  0  0
    8.5961   -3.5375    6.9831 H   0  0  0  0  0  0  0  0  0  0  0  0
    7.8150   -5.1052    6.7195 H   0  0  0  0  0  0  0  0  0  0  0  0
    7.4743   -1.5443    6.8994 H   0  0  0  0  0  0  0  0  0  0  0  0
    5.8234   -1.7839    7.4809 H   0  0  0  0  0  0  0  0  0  0  0  0
    5.2853    0.3295    3.4977 H   0  0  0  0  0  0  0  0  0  0  0  0
    6.1008   -0.6187    2.2528 H   0  0  0  0  0  0  0  0  0  0  0  0
    6.2362    2.3571    4.3557 H   0  0  0  0  0  0  0  0  0  0  0  0
    8.1008    4.0247    4.2343 H   0  0  0  0  0  0  0  0  0  0  0  0
   12.2745    2.5942    2.9280 H   0  0  0  0  0  0  0  0  0  0  0  0
   11.3867    3.3985    1.6283 H   0  0  0  0  0  0  0  0  0  0  0  0
   13.8454    2.2363    1.0843 H   0  0  0  0  0  0  0  0  0  0  0  0
   12.5256    2.1314   -0.1002 H   0  0  0  0  0  0  0  0  0  0  0  0
   13.2227    0.0907    2.0744 H   0  0  0  0  0  0  0  0  0  0  0  0
   14.6653   -1.5482    1.3710 H   0  0  0  0  0  0  0  0  0  0  0  0
   15.6596   -2.9793   -0.3947 H   0  0  0  0  0  0  0  0  0  0  0  0
   14.8677   -2.7887   -2.7556 H   0  0  0  0  0  0  0  0  0  0  0  0
   13.0724   -1.1487   -3.3225 H   0  0  0  0  0  0  0  0  0  0  0  0
   12.0847    0.2774   -1.5643 H   0  0  0  0  0  0  0  0  0  0  0  0
   10.9911   -0.7192    2.0180 H   0  0  0  0  0  0  0  0  0  0  0  0
   10.6574   -0.0266    0.4164 H   0  0  0  0  0  0  0  0  0  0  0  0
    8.7306   -0.3594    2.1103 H   0  0  0  0  0  0  0  0  0  0  0  0
    7.0261   -2.2263    1.9130 H   0  0  0  0  0  0  0  0  0  0  0  0
    7.8010   -3.5989    2.5207 H   0  0  0  0  0  0  0  0  0  0  0  0
  1  2  1  0
  1 31  1  0
  1 32  1  0
  1 33  1  0
  2  3  1  0
  2  4  1  0
  2 34  1  1
  3 35  1  0
  3 36  1  0
  3 37  1  0
  4  5  1  1
  4  6  1  0
  4 30  1  0
  5 38  1  0
  5 39  1  0
  5 40  1  0
  6  7  1  0
  6 41  1  0
  6 42  1  0
  7  8  2  0
  7  9  1  0
  9 10  1  0
  9 28  1  0
 10 11  1  0
 10 43  1  0
 10 44  1  0
 11 12  2  0
 11 27  1  0
 12 13  1  0
 12 45  1  0
 13 14  2  0
 13 46  1  0
 14 15  1  0
 15 16  1  0
 15 27  2  0
 16 17  1  0
 16 26  1  0
 17 18  1  0
 17 47  1  0
 17 48  1  0
 18 19  1  0
 18 49  1  0
 18 50  1  0
 19 20  1  0
 19 26  1  0
 19 51  1  1
 20 21  2  0
 20 25  1  0
 21 22  1  0
 21 52  1  0
 22 23  2  0
 22 53  1  0
 23 24  1  0
 23 54  1  0
 24 25  2  0
 24 55  1  0
 25 56  1  0
 26 57  1  0
 26 58  1  0
 27 59  1  0
 28 29  1  0
 28 30  2  0
 29 60  1  0
 29 61  1  0
M  END

