
     RDKit          3D

 52 55  0  0  0  0  0  0  0  0999 V2000
    3.8778    0.9408   -0.3414 C   0  0  0  0  0  0  0  0  0  0  0  0
    4.1147   -0.3075    0.5032 C   0  0  1  0  0  0  0  0  0  0  0  0
    4.4413   -0.0482    1.9902 C   0  0  0  0  0  0  0  0  0  0  0  0
    4.1467   -1.2899    2.7048 N   0  0  0  0  0  0  0  0  0  0  0  0
    5.1845   -2.3410    2.7470 C   0  0  1  0  0  0  0  0  0  0  0  0
    6.5809   -1.7707    3.0100 C   0  0  0  0  0  0  0  0  0  0  0  0
    4.8313   -3.3505    3.8482 C   0  0  0  0  0  0  0  0  0  0  0  0
    2.8817   -1.7128    2.0959 C   0  0  0  0  0  0  0  0  0  0  0  0
    2.9014   -1.2740    0.5902 C   0  0  2  0  0  0  0  0  0  0  0  0
    2.9963   -2.3680   -0.3624 N   0  0  0  0  0  0  0  0  0  0  0  0
    1.9482   -2.7871   -1.1235 C   0  0  0  0  0  0  0  0  0  0  0  0
    0.8433   -2.2733   -1.1243 O   0  0  0  0  0  0  0  0  0  0  0  0
    2.2717   -3.9808   -2.0495 C   0  0  0  0  0  0  0  0  0  0  0  0
    2.5491   -5.2291   -1.3461 N   0  0  0  0  0  0  0  0  0  0  0  0
    3.7525   -5.5134   -0.7234 C   0  0  0  0  0  0  0  0  0  0  0  0
    4.6867   -4.7393   -0.6386 O   0  0  0  0  0  0  0  0  0  0  0  0
    3.7022   -6.9336   -0.1824 C   0  0  2  0  0  0  0  0  0  0  0  0
    4.6394   -7.8990   -0.9603 C   0  0  1  0  0  0  0  0  0  0  0  0
    4.6349   -9.2789   -0.2674 C   0  0  0  0  0  0  0  0  0  0  0  0
    3.2335   -9.8171   -0.6829 C   0  0  0  0  0  0  0  0  0  0  0  0
    2.7047   -8.6426   -1.5338 C   0  0  2  0  0  0  0  0  0  0  0  0
    3.8915   -8.1376   -2.1557 O   0  0  0  0  0  0  0  0  0  0  0  0
    2.3100   -7.4666   -0.5998 C   0  0  2  0  0  0  0  0  0  0  0  0
    1.6634   -6.3204   -1.3684 C   0  0  0  0  0  0  0  0  0  0  0  0
    0.5984   -6.3276   -1.9293 O   0  0  0  0  0  0  0  0  0  0  0  0
    4.7748    1.5812   -0.3745 H   0  0  0  0  0  0  0  0  0  0  0  0
    3.0501    1.5443    0.0681 H   0  0  0  0  0  0  0  0  0  0  0  0
    3.6171    0.6790   -1.3794 H   0  0  0  0  0  0  0  0  0  0  0  0
    4.9597   -0.8715    0.0672 H   0  0  0  0  0  0  0  0  0  0  0  0
    3.7671    0.7410    2.3762 H   0  0  0  0  0  0  0  0  0  0  0  0
    5.4663    0.3038    2.1591 H   0  0  0  0  0  0  0  0  0  0  0  0
    5.2342   -2.9012    1.7853 H   0  0  0  0  0  0  0  0  0  0  0  0
    6.5772   -1.1335    3.9099 H   0  0  0  0  0  0  0  0  0  0  0  0
    6.9676   -1.1787    2.1674 H   0  0  0  0  0  0  0  0  0  0  0  0
    7.2916   -2.5941    3.1786 H   0  0  0  0  0  0  0  0  0  0  0  0
    4.8361   -2.8524    4.8310 H   0  0  0  0  0  0  0  0  0  0  0  0
    5.5588   -4.1780    3.8666 H   0  0  0  0  0  0  0  0  0  0  0  0
    3.8325   -3.7893    3.7036 H   0  0  0  0  0  0  0  0  0  0  0  0
    2.0452   -1.2012    2.6034 H   0  0  0  0  0  0  0  0  0  0  0  0
    2.7122   -2.7924    2.2013 H   0  0  0  0  0  0  0  0  0  0  0  0
    1.9637   -0.7554    0.3455 H   0  0  0  0  0  0  0  0  0  0  0  0
    3.8669   -2.8947   -0.4283 H   0  0  0  0  0  0  0  0  0  0  0  0
    3.1419   -3.7398   -2.6810 H   0  0  0  0  0  0  0  0  0  0  0  0
    1.3885   -4.1539   -2.6748 H   0  0  0  0  0  0  0  0  0  0  0  0
    3.9095   -6.9172    0.8970 H   0  0  0  0  0  0  0  0  0  0  0  0
    5.6240   -7.4798   -1.2022 H   0  0  0  0  0  0  0  0  0  0  0  0
    4.7723   -9.2056    0.8214 H   0  0  0  0  0  0  0  0  0  0  0  0
    5.4436   -9.9055   -0.6692 H   0  0  0  0  0  0  0  0  0  0  0  0
    2.5805  -10.0469    0.1717 H   0  0  0  0  0  0  0  0  0  0  0  0
    3.3157  -10.7234   -1.2993 H   0  0  0  0  0  0  0  0  0  0  0  0
    1.9519   -8.8906   -2.2922 H   0  0  0  0  0  0  0  0  0  0  0  0
    1.6473   -7.7751    0.2211 H   0  0  0  0  0  0  0  0  0  0  0  0
  1  2  1  0
  1 26  1  0
  1 27  1  0
  1 28  1  0
  2  3  1  0
  2  9  1  0
  2 29  1  6
  3  4  1  0
  3 30  1  0
  3 31  1  0
  4  5  1  0
  4  8  1  0
  5  6  1  0
  5  7  1  0
  5 32  1  6
  6 33  1  0
  6 34  1  0
  6 35  1  0
  7 36  1  0
  7 37  1  0
  7 38  1  0
  8  9  1  0
  8 39  1  0
  8 40  1  0
  9 10  1  0
  9 41  1  6
 10 11  1  0
 10 42  1  0
 11 12  2  0
 11 13  1  0
 13 14  1  0
 13 43  1  0
 13 44  1  0
 14 15  1  0
 14 24  1  0
 15 16  2  0
 15 17  1  0
 17 18  1  0
 17 23  1  0
 17 45  1  1
 18 19  1  0
 18 22  1  0
 18 46  1  6
 19 20  1  0
 19 47  1  0
 19 48  1  0
 20 21  1  0
 20 49  1  0
 20 50  1  0
 21 22  1  0
 21 23  1  0
 21 51  1  6
 23 24  1  0
 23 52  1  1
 24 25  2  0
M  END

