
     RDKit          3D

 21 22  0  0  0  0  0  0  0  0999 V2000
    1.3990   -0.3870    0.9907 O   0  0  0  0  0  0  0  0  0  0  0  0
    2.4431   -0.1926    0.4066 C   0  0  0  0  0  0  0  0  0  0  0  0
    3.1235    1.0158    0.3020 N   0  0  0  0  0  0  0  0  0  0  0  0
    4.2136    0.9245   -0.6493 C   0  0  0  0  0  0  0  0  0  0  0  0
    4.5122   -0.5924   -0.6516 C   0  0  1  0  0  0  0  0  0  0  0  0
    5.0494   -1.1716   -1.9844 C   0  0  0  0  0  0  0  0  0  0  0  0
    5.9812   -2.3409   -1.5723 C   0  0  0  0  0  0  0  0  0  0  0  0
    5.8067   -2.4267   -0.1194 N   0  0  0  0  0  0  0  0  0  0  0  0
    5.5950   -1.0648    0.3450 C   0  0  0  0  0  0  0  0  0  0  0  0
    3.1995   -1.1239   -0.2936 N   0  0  0  0  0  0  0  0  0  0  0  0
    2.5911    1.8676    0.4321 H   0  0  0  0  0  0  0  0  0  0  0  0
    5.0941    1.5121   -0.3426 H   0  0  0  0  0  0  0  0  0  0  0  0
    3.9184    1.2565   -1.6644 H   0  0  0  0  0  0  0  0  0  0  0  0
    5.6106   -0.4006   -2.5350 H   0  0  0  0  0  0  0  0  0  0  0  0
    4.2099   -1.4891   -2.6182 H   0  0  0  0  0  0  0  0  0  0  0  0
    7.0263   -2.1117   -1.8688 H   0  0  0  0  0  0  0  0  0  0  0  0
    5.7097   -3.2940   -2.0547 H   0  0  0  0  0  0  0  0  0  0  0  0
    6.5649   -2.9126    0.3533 H   0  0  0  0  0  0  0  0  0  0  0  0
    6.4933   -0.4097    0.2569 H   0  0  0  0  0  0  0  0  0  0  0  0
    5.2490   -1.0325    1.3895 H   0  0  0  0  0  0  0  0  0  0  0  0
    3.1227   -2.0997   -0.0253 H   0  0  0  0  0  0  0  0  0  0  0  0
  1  2  2  0
  2  3  1  0
  2 10  1  0
  3  4  1  0
  3 11  1  0
  4  5  1  0
  4 12  1  0
  4 13  1  0
  5  6  1  0
  5  9  1  0
  5 10  1  1
  6  7  1  0
  6 14  1  0
  6 15  1  0
  7  8  1  0
  7 16  1  0
  7 17  1  0
  8  9  1  0
  8 18  1  0
  9 19  1  0
  9 20  1  0
 10 21  1  0
M  END

