
     RDKit          3D

 40 42  0  0  0  0  0  0  0  0999 V2000
    3.2410    0.3038   -1.5963 C   0  0  0  0  0  0  0  0  0  0  0  0
    2.4993    0.3338   -0.2568 C   0  0  0  0  0  0  0  0  0  0  0  0
    3.1573    1.2414    0.7962 C   0  0  1  0  0  0  0  0  0  0  0  0
    3.1570    2.7099    0.3330 C   0  0  0  0  0  0  0  0  0  0  0  0
    3.0974    3.5060    1.5563 N   0  0  0  0  0  0  0  0  0  0  0  0
    3.2697    4.8506    1.4502 C   0  0  0  0  0  0  0  0  0  0  0  0
    3.4400    5.3933    0.3616 O   0  0  0  0  0  0  0  0  0  0  0  0
    3.2635    5.7105    2.6817 C   0  0  0  0  0  0  0  0  0  0  0  0
    3.4028    7.0833    2.5890 C   0  0  0  0  0  0  0  0  0  0  0  0
    3.3743    7.7544    4.1427 S   0  0  0  0  0  0  0  0  0  0  0  0
    3.1772    6.1672    4.8720 N   0  0  0  0  0  0  0  0  0  0  0  0
    3.1451    5.2752    3.9766 N   0  0  0  0  0  0  0  0  0  0  0  0
    2.8502    2.6854    2.7411 C   0  0  0  0  0  0  0  0  0  0  0  0
    2.4742    1.2892    2.1878 C   0  0  2  0  0  0  0  0  0  0  0  0
    2.9053    0.2656    3.1450 N   0  0  0  0  0  0  0  0  0  0  0  0
    2.2047    0.3026    4.4339 C   0  0  0  0  0  0  0  0  0  0  0  0
    0.8837   -0.4734    4.4084 C   0  0  0  0  0  0  0  0  0  0  0  0
    1.0893   -1.8121    3.9956 O   0  0  0  0  0  0  0  0  0  0  0  0
    1.7105   -1.8908    2.7256 C   0  0  0  0  0  0  0  0  0  0  0  0
    3.0393   -1.1273    2.7221 C   0  0  0  0  0  0  0  0  0  0  0  0
    2.7454   -0.3760   -2.3071 H   0  0  0  0  0  0  0  0  0  0  0  0
    4.2792   -0.0467   -1.4704 H   0  0  0  0  0  0  0  0  0  0  0  0
    3.2829    1.2981   -2.0688 H   0  0  0  0  0  0  0  0  0  0  0  0
    2.4140   -0.6951    0.1219 H   0  0  0  0  0  0  0  0  0  0  0  0
    1.4619    0.6807   -0.4152 H   0  0  0  0  0  0  0  0  0  0  0  0
    4.2036    0.9240    0.9583 H   0  0  0  0  0  0  0  0  0  0  0  0
    2.2819    2.9332   -0.3055 H   0  0  0  0  0  0  0  0  0  0  0  0
    4.0441    2.9843   -0.2568 H   0  0  0  0  0  0  0  0  0  0  0  0
    3.5162    7.6391    1.6600 H   0  0  0  0  0  0  0  0  0  0  0  0
    2.0646    3.1265    3.3668 H   0  0  0  0  0  0  0  0  0  0  0  0
    3.7549    2.5921    3.3644 H   0  0  0  0  0  0  0  0  0  0  0  0
    1.3748    1.2769    2.0107 H   0  0  0  0  0  0  0  0  0  0  0  0
    2.0318    1.3419    4.7499 H   0  0  0  0  0  0  0  0  0  0  0  0
    2.8604   -0.1599    5.1937 H   0  0  0  0  0  0  0  0  0  0  0  0
    0.1541    0.0263    3.7358 H   0  0  0  0  0  0  0  0  0  0  0  0
    0.4354   -0.5143    5.4137 H   0  0  0  0  0  0  0  0  0  0  0  0
    1.0304   -1.4932    1.9425 H   0  0  0  0  0  0  0  0  0  0  0  0
    1.8732   -2.9603    2.5166 H   0  0  0  0  0  0  0  0  0  0  0  0
    3.5329   -1.1927    1.7435 H   0  0  0  0  0  0  0  0  0  0  0  0
    3.7119   -1.6250    3.4446 H   0  0  0  0  0  0  0  0  0  0  0  0
  1  2  1  0
  1 21  1  0
  1 22  1  0
  1 23  1  0
  2  3  1  0
  2 24  1  0
  2 25  1  0
  3  4  1  0
  3 14  1  0
  3 26  1  1
  4  5  1  0
  4 27  1  0
  4 28  1  0
  5  6  1  0
  5 13  1  0
  6  7  2  0
  6  8  1  0
  8  9  2  0
  8 12  1  0
  9 10  1  0
  9 29  1  0
 10 11  1  0
 11 12  2  0
 13 14  1  0
 13 30  1  0
 13 31  1  0
 14 15  1  0
 14 32  1  6
 15 16  1  0
 15 20  1  0
 16 17  1  0
 16 33  1  0
 16 34  1  0
 17 18  1  0
 17 35  1  0
 17 36  1  0
 18 19  1  0
 19 20  1  0
 19 37  1  0
 19 38  1  0
 20 39  1  0
 20 40  1  0
M  END

