
     RDKit          3D

 44 46  0  0  0  0  0  0  0  0999 V2000
    1.9750    1.2687    0.2214 C   0  0  0  0  0  0  0  0  0  0  0  0
    2.1178   -0.1048   -0.0763 O   0  0  0  0  0  0  0  0  0  0  0  0
    2.7294   -0.4760   -1.2380 C   0  0  0  0  0  0  0  0  0  0  0  0
    3.2347    0.4213   -2.1747 C   0  0  0  0  0  0  0  0  0  0  0  0
    3.8502   -0.0576   -3.3462 C   0  0  0  0  0  0  0  0  0  0  0  0
    4.3817    0.8183   -4.3157 N   0  0  0  0  0  0  0  0  0  0  0  0
    4.3904    2.1933   -4.3384 C   0  0  0  0  0  0  0  0  0  0  0  0
    3.8685    2.8962   -3.4847 O   0  0  0  0  0  0  0  0  0  0  0  0
    5.0870    2.8069   -5.5280 C   0  0  0  0  0  0  0  0  0  0  0  0
    4.7411    4.1265   -5.8609 C   0  0  0  0  0  0  0  0  0  0  0  0
    5.3463    4.7662   -6.9425 C   0  0  0  0  0  0  0  0  0  0  0  0
    6.3193    4.1015   -7.6971 C   0  0  0  0  0  0  0  0  0  0  0  0
    6.6870    2.7956   -7.3605 C   0  0  0  0  0  0  0  0  0  0  0  0
    6.0751    2.1518   -6.2818 C   0  0  0  0  0  0  0  0  0  0  0  0
    3.9549   -1.4467   -3.5770 C   0  0  0  0  0  0  0  0  0  0  0  0
    4.6129   -1.9902   -4.8236 C   0  0  0  0  0  0  0  0  0  0  0  0
    3.4380   -2.3304   -2.6202 C   0  0  0  0  0  0  0  0  0  0  0  0
    2.8244   -1.8727   -1.4492 C   0  0  0  0  0  0  0  0  0  0  0  0
    2.2863   -2.6969   -0.4512 N   0  0  0  0  0  0  0  0  0  0  0  0
    2.2465   -4.0658   -0.4058 C   0  0  0  0  0  0  0  0  0  0  0  0
    2.6918   -4.8178   -1.2618 O   0  0  0  0  0  0  0  0  0  0  0  0
    1.5959   -4.6077    0.8098 C   0  0  0  0  0  0  0  0  0  0  0  0
    1.3764   -5.9043    1.1960 C   0  0  0  0  0  0  0  0  0  0  0  0
    0.7078   -5.8378    2.4584 C   0  0  0  0  0  0  0  0  0  0  0  0
    0.5706   -4.5071    2.7456 C   0  0  0  0  0  0  0  0  0  0  0  0
    1.1043   -3.7526    1.7550 O   0  0  0  0  0  0  0  0  0  0  0  0
    1.4621    1.3266    1.1908 H   0  0  0  0  0  0  0  0  0  0  0  0
    1.3695    1.7892   -0.5407 H   0  0  0  0  0  0  0  0  0  0  0  0
    2.9545    1.7719    0.2991 H   0  0  0  0  0  0  0  0  0  0  0  0
    3.1634    1.4946   -2.0312 H   0  0  0  0  0  0  0  0  0  0  0  0
    4.7575    0.3652   -5.1376 H   0  0  0  0  0  0  0  0  0  0  0  0
    3.9912    4.6322   -5.2500 H   0  0  0  0  0  0  0  0  0  0  0  0
    5.0613    5.7900   -7.1977 H   0  0  0  0  0  0  0  0  0  0  0  0
    6.7970    4.6039   -8.5421 H   0  0  0  0  0  0  0  0  0  0  0  0
    7.4607    2.2780   -7.9331 H   0  0  0  0  0  0  0  0  0  0  0  0
    6.4050    1.1441   -6.0152 H   0  0  0  0  0  0  0  0  0  0  0  0
    4.1032   -1.6585   -5.7467 H   0  0  0  0  0  0  0  0  0  0  0  0
    4.5944   -3.0887   -4.8250 H   0  0  0  0  0  0  0  0  0  0  0  0
    5.6724   -1.6851   -4.9044 H   0  0  0  0  0  0  0  0  0  0  0  0
    3.5073   -3.4051   -2.7755 H   0  0  0  0  0  0  0  0  0  0  0  0
    1.8777   -2.1930    0.3306 H   0  0  0  0  0  0  0  0  0  0  0  0
    1.6671   -6.7848    0.6290 H   0  0  0  0  0  0  0  0  0  0  0  0
    0.3716   -6.6689    3.0747 H   0  0  0  0  0  0  0  0  0  0  0  0
    0.1342   -3.9645    3.5804 H   0  0  0  0  0  0  0  0  0  0  0  0
  1  2  1  0
  1 27  1  0
  1 28  1  0
  1 29  1  0
  2  3  1  0
  3  4  2  0
  3 18  1  0
  4  5  1  0
  4 30  1  0
  5  6  1  0
  5 15  2  0
  6  7  1  0
  6 31  1  0
  7  8  2  0
  7  9  1  0
  9 10  2  0
  9 14  1  0
 10 11  1  0
 10 32  1  0
 11 12  2  0
 11 33  1  0
 12 13  1  0
 12 34  1  0
 13 14  2  0
 13 35  1  0
 14 36  1  0
 15 16  1  0
 15 17  1  0
 16 37  1  0
 16 38  1  0
 16 39  1  0
 17 18  2  0
 17 40  1  0
 18 19  1  0
 19 20  1  0
 19 41  1  0
 20 21  2  0
 20 22  1  0
 22 23  2  0
 22 26  1  0
 23 24  1  0
 23 42  1  0
 24 25  2  0
 24 43  1  0
 25 26  1  0
 25 44  1  0
M  END

