
     RDKit          3D

 37 37  0  0  0  0  0  0  0  0999 V2000
    2.6716    0.0651    0.5485 C   0  0  0  0  0  0  0  0  0  0  0  0
    2.5505   -1.0452   -0.4955 C   0  0  0  0  0  0  0  0  0  0  0  0
    3.1848   -0.7270   -1.8569 C   0  0  0  0  0  0  0  0  0  0  0  0
    4.6290   -0.4743   -1.8179 N   0  0  0  0  0  0  0  0  0  0  0  0
    5.1019    0.8979   -1.8049 C   0  0  0  0  0  0  0  0  0  0  0  0
    5.4527   -1.5846   -1.8253 C   0  0  0  0  0  0  0  0  0  0  0  0
    4.9234   -2.7137   -1.8151 O   0  0  0  0  0  0  0  0  0  0  0  0
    6.9090   -1.4869   -1.8446 C   0  0  0  0  0  0  0  0  0  0  0  0
    7.9805   -0.0611   -1.9231 S   0  0  0  0  0  0  0  0  0  0  0  0
    9.3712   -1.1391   -1.9073 C   0  0  0  0  0  0  0  0  0  0  0  0
   10.6393   -0.6470   -1.9208 N   0  0  0  0  0  0  0  0  0  0  0  0
   10.8692    0.7754   -2.0763 C   0  0  0  0  0  0  0  0  0  0  0  0
   11.7607   -1.5799   -2.0392 C   0  0  0  0  0  0  0  0  0  0  0  0
   12.1387   -1.9161   -3.4828 C   0  0  0  0  0  0  0  0  0  0  0  0
    9.0858   -2.4173   -1.8740 N   0  0  0  0  0  0  0  0  0  0  0  0
    7.7360   -2.6309   -1.8335 C   0  0  0  0  0  0  0  0  0  0  0  0
    7.2857   -3.9001   -1.7886 N   0  0  0  0  0  0  0  0  0  0  0  0
    2.1809   -0.2213    1.4926 H   0  0  0  0  0  0  0  0  0  0  0  0
    2.2015    1.0033    0.2050 H   0  0  0  0  0  0  0  0  0  0  0  0
    3.7256    0.2854    0.7836 H   0  0  0  0  0  0  0  0  0  0  0  0
    1.4837   -1.2739   -0.6722 H   0  0  0  0  0  0  0  0  0  0  0  0
    3.0078   -1.9741   -0.1196 H   0  0  0  0  0  0  0  0  0  0  0  0
    2.7052    0.1620   -2.2997 H   0  0  0  0  0  0  0  0  0  0  0  0
    3.0065   -1.5756   -2.5321 H   0  0  0  0  0  0  0  0  0  0  0  0
    4.2377    1.5712   -1.7367 H   0  0  0  0  0  0  0  0  0  0  0  0
    5.6554    1.1657   -2.7226 H   0  0  0  0  0  0  0  0  0  0  0  0
    5.7466    1.1130   -0.9367 H   0  0  0  0  0  0  0  0  0  0  0  0
   10.6545    1.1390   -3.0992 H   0  0  0  0  0  0  0  0  0  0  0  0
   11.9194    0.9991   -1.8426 H   0  0  0  0  0  0  0  0  0  0  0  0
   10.2385    1.3469   -1.3746 H   0  0  0  0  0  0  0  0  0  0  0  0
   11.4786   -2.4973   -1.5051 H   0  0  0  0  0  0  0  0  0  0  0  0
   12.6184   -1.1333   -1.5089 H   0  0  0  0  0  0  0  0  0  0  0  0
   11.2958   -2.4003   -3.9989 H   0  0  0  0  0  0  0  0  0  0  0  0
   12.9942   -2.6105   -3.5011 H   0  0  0  0  0  0  0  0  0  0  0  0
   12.4247   -1.0160   -4.0512 H   0  0  0  0  0  0  0  0  0  0  0  0
    7.9539   -4.6566   -1.7994 H   0  0  0  0  0  0  0  0  0  0  0  0
    6.2727   -4.0172   -1.7899 H   0  0  0  0  0  0  0  0  0  0  0  0
  1  2  1  0
  1 18  1  0
  1 19  1  0
  1 20  1  0
  2  3  1  0
  2 21  1  0
  2 22  1  0
  3  4  1  0
  3 23  1  0
  3 24  1  0
  4  5  1  0
  4  6  1  0
  5 25  1  0
  5 26  1  0
  5 27  1  0
  6  7  2  0
  6  8  1  0
  8  9  1  0
  8 16  2  0
  9 10  1  0
 10 11  1  0
 10 15  2  0
 11 12  1  0
 11 13  1  0
 12 28  1  0
 12 29  1  0
 12 30  1  0
 13 14  1  0
 13 31  1  0
 13 32  1  0
 14 33  1  0
 14 34  1  0
 14 35  1  0
 15 16  1  0
 16 17  1  0
 17 36  1  0
 17 37  1  0
M  END

