
     RDKit          3D

 51 55  0  0  0  0  0  0  0  0999 V2000
    3.7855   -1.5348   -0.3152 C   0  0  0  0  0  0  0  0  0  0  0  0
    3.6233   -0.1291   -0.3027 O   0  0  0  0  0  0  0  0  0  0  0  0
    3.9328    0.5561    0.8281 C   0  0  0  0  0  0  0  0  0  0  0  0
    4.4056    0.0348    2.0225 C   0  0  0  0  0  0  0  0  0  0  0  0
    4.6816    0.8098    3.0853 N   0  0  0  0  0  0  0  0  0  0  0  0
    4.4831    2.1205    2.9504 C   0  0  0  0  0  0  0  0  0  0  0  0
    4.7868    2.9763    4.1093 C   0  0  0  0  0  0  0  0  0  0  0  0
    4.6304    4.2939    4.0532 N   0  0  0  0  0  0  0  0  0  0  0  0
    4.9702    4.7916    5.2543 N   0  0  0  0  0  0  0  0  0  0  0  0
    4.9586    6.2249    5.4769 C   0  0  0  0  0  0  0  0  0  0  0  0
    6.3061    6.8898    5.2437 C   0  0  0  0  0  0  0  0  0  0  0  0
    6.9328    6.7356    3.9967 C   0  0  0  0  0  0  0  0  0  0  0  0
    8.1615    7.3363    3.7512 C   0  0  0  0  0  0  0  0  0  0  0  0
    8.7399    7.1760    2.5547 F   0  0  0  0  0  0  0  0  0  0  0  0
    8.8065    8.1056    4.7187 C   0  0  0  0  0  0  0  0  0  0  0  0
    8.1959    8.2664    5.9607 C   0  0  0  0  0  0  0  0  0  0  0  0
    6.9600    7.6618    6.2188 C   0  0  0  0  0  0  0  0  0  0  0  0
    6.2530    7.9007    7.8122 Cl  0  0  0  0  0  0  0  0  0  0  0  0
    5.3765    3.8049    6.1228 C   0  0  0  0  0  0  0  0  0  0  0  0
    5.8249    3.8656    7.4546 C   0  0  0  0  0  0  0  0  0  0  0  0
    6.1493    2.6586    8.0605 C   0  0  0  0  0  0  0  0  0  0  0  0
    6.0364    1.4269    7.3704 C   0  0  0  0  0  0  0  0  0  0  0  0
    5.5986    1.3731    6.0536 C   0  0  0  0  0  0  0  0  0  0  0  0
    5.2635    2.5827    5.4116 C   0  0  0  0  0  0  0  0  0  0  0  0
    4.0271    2.7221    1.8365 N   0  0  0  0  0  0  0  0  0  0  0  0
    3.7494    1.9744    0.7829 C   0  0  0  0  0  0  0  0  0  0  0  0
    3.2778    2.5127   -0.3899 N   0  0  0  0  0  0  0  0  0  0  0  0
    2.9870    3.8306   -0.7394 C   0  0  0  0  0  0  0  0  0  0  0  0
    3.1221    4.9407    0.1151 C   0  0  0  0  0  0  0  0  0  0  0  0
    2.7854    6.1999   -0.3884 C   0  0  0  0  0  0  0  0  0  0  0  0
    2.3419    6.4385   -1.6257 N   0  0  0  0  0  0  0  0  0  0  0  0
    2.2169    5.3778   -2.4292 C   0  0  0  0  0  0  0  0  0  0  0  0
    2.5194    4.0735   -2.0465 C   0  0  0  0  0  0  0  0  0  0  0  0
    3.4824   -1.8774   -1.3130 H   0  0  0  0  0  0  0  0  0  0  0  0
    3.1478   -2.0208    0.4440 H   0  0  0  0  0  0  0  0  0  0  0  0
    4.8372   -1.8206   -0.1378 H   0  0  0  0  0  0  0  0  0  0  0  0
    4.5724   -1.0397    2.1437 H   0  0  0  0  0  0  0  0  0  0  0  0
    4.6091    6.4210    6.4981 H   0  0  0  0  0  0  0  0  0  0  0  0
    4.2137    6.6373    4.7811 H   0  0  0  0  0  0  0  0  0  0  0  0
    6.4598    6.1356    3.2161 H   0  0  0  0  0  0  0  0  0  0  0  0
    9.7705    8.5649    4.4930 H   0  0  0  0  0  0  0  0  0  0  0  0
    8.6759    8.8587    6.7410 H   0  0  0  0  0  0  0  0  0  0  0  0
    5.9246    4.8143    7.9852 H   0  0  0  0  0  0  0  0  0  0  0  0
    6.5036    2.6594    9.0946 H   0  0  0  0  0  0  0  0  0  0  0  0
    6.3036    0.5027    7.8889 H   0  0  0  0  0  0  0  0  0  0  0  0
    5.5100    0.4335    5.5091 H   0  0  0  0  0  0  0  0  0  0  0  0
    3.1163    1.8198   -1.1129 H   0  0  0  0  0  0  0  0  0  0  0  0
    3.4783    4.8151    1.1351 H   0  0  0  0  0  0  0  0  0  0  0  0
    2.8861    7.0733    0.2677 H   0  0  0  0  0  0  0  0  0  0  0  0
    1.8528    5.5704   -3.4459 H   0  0  0  0  0  0  0  0  0  0  0  0
    2.3942    3.2499   -2.7556 H   0  0  0  0  0  0  0  0  0  0  0  0
  1  2  1  0
  1 34  1  0
  1 35  1  0
  1 36  1  0
  2  3  1  0
  3  4  2  0
  3 26  1  0
  4  5  1  0
  4 37  1  0
  5  6  2  0
  6  7  1  0
  6 25  1  0
  7  8  2  0
  7 24  1  0
  8  9  1  0
  9 10  1  0
  9 19  1  0
 10 11  1  0
 10 38  1  0
 10 39  1  0
 11 12  2  0
 11 17  1  0
 12 13  1  0
 12 40  1  0
 13 14  1  0
 13 15  2  0
 15 16  1  0
 15 41  1  0
 16 17  2  0
 16 42  1  0
 17 18  1  0
 19 20  1  0
 19 24  2  0
 20 21  2  0
 20 43  1  0
 21 22  1  0
 21 44  1  0
 22 23  2  0
 22 45  1  0
 23 24  1  0
 23 46  1  0
 25 26  2  0
 26 27  1  0
 27 28  1  0
 27 47  1  0
 28 29  2  0
 28 33  1  0
 29 30  1  0
 29 48  1  0
 30 31  2  0
 30 49  1  0
 31 32  1  0
 32 33  2  0
 32 50  1  0
 33 51  1  0
M  END

