
     RDKit          3D

 97101  0  0  0  0  0  0  0  0999 V2000
    1.1637   -1.9268    0.5990 C   0  0  0  0  0  0  0  0  0  0  0  0
    2.6802   -1.7550    0.5126 C   0  0  0  0  0  0  0  0  0  0  0  0
    3.0996   -0.4236   -0.1431 C   0  0  0  0  0  0  0  0  0  0  0  0
    4.5849   -0.2243   -0.2305 C   0  0  0  0  0  0  0  0  0  0  0  0
    5.3719    0.5519    0.5811 C   0  0  0  0  0  0  0  0  0  0  0  0
    6.7363    0.4023    0.1107 C   0  0  0  0  0  0  0  0  0  0  0  0
    6.7861   -0.4617   -0.9259 N   0  0  0  0  0  0  0  0  0  0  0  0
    5.5058   -0.8426   -1.2011 C   0  0  0  0  0  0  0  0  0  0  0  0
    5.0828   -1.5803   -2.3331 C   0  0  0  0  0  0  0  0  0  0  0  0
    5.7799   -2.0659   -3.4513 C   0  0  0  0  0  0  0  0  0  0  0  0
    7.1651   -2.1655   -3.6739 C   0  0  0  0  0  0  0  0  0  0  0  0
    8.0904   -2.0049   -2.6757 N   0  0  0  0  0  0  0  0  0  0  0  0
    7.8023   -1.5282   -1.7875 H   0  0  0  0  0  0  0  0  0  0  0  0
    9.3430   -1.8766   -3.1947 C   0  0  0  0  0  0  0  0  0  0  0  0
    9.2373   -2.0379   -4.6066 C   0  0  0  0  0  0  0  0  0  0  0  0
    7.9005   -2.2760   -4.9157 C   0  0  0  0  0  0  0  0  0  0  0  0
    7.3388   -2.5923   -6.2735 C   0  0  0  0  0  0  0  0  0  0  0  0
    7.5192   -4.0612   -6.7162 C   0  0  0  0  0  0  0  0  0  0  0  0
    6.7502   -5.0779   -5.8727 C   0  0  0  0  0  0  0  0  0  0  0  0
   10.3816   -1.5262   -2.2718 C   0  0  0  0  0  0  0  0  0  0  0  0
   11.1732   -0.4400   -2.4444 N   0  0  0  0  0  0  0  0  0  0  0  0
   11.5829   -0.1229   -1.1874 C   0  0  0  0  0  0  0  0  0  0  0  0
   12.0093    1.2148   -0.8756 C   0  0  0  0  0  0  0  0  0  0  0  0
   13.0602    1.6840   -1.6450 O   0  0  0  0  0  0  0  0  0  0  0  0
   13.0986    2.9345   -2.1863 C   0  0  0  0  0  0  0  0  0  0  0  0
   12.3220    3.8198   -1.9585 O   0  0  0  0  0  0  0  0  0  0  0  0
   14.2686    3.0138   -3.1555 C   0  0  0  0  0  0  0  0  0  0  0  0
   14.4259    4.3177   -3.7331 N   0  0  0  0  0  0  0  0  0  0  0  0
   15.4325    5.1567   -3.3248 C   0  0  0  0  0  0  0  0  0  0  0  0
   16.3616    4.8175   -2.6199 O   0  0  0  0  0  0  0  0  0  0  0  0
   15.2334    6.3825   -3.8474 O   0  0  0  0  0  0  0  0  0  0  0  0
   16.1687    7.4858   -3.6139 C   0  0  1  0  0  0  0  0  0  0  0  0
   17.5458    7.1360   -4.1876 C   0  0  0  0  0  0  0  0  0  0  0  0
   15.5337    8.6396   -4.3926 C   0  0  0  0  0  0  0  0  0  0  0  0
   16.2328    7.8111   -2.1178 C   0  0  0  0  0  0  0  0  0  0  0  0
   11.3738    2.0121    0.0605 C   0  0  0  0  0  0  0  0  0  0  0  0
   10.0383    1.8179    0.5246 C   0  0  0  0  0  0  0  0  0  0  0  0
    9.0973    1.0059   -0.0614 N   0  0  0  0  0  0  0  0  0  0  0  0
    9.2537    0.4299   -0.8801 H   0  0  0  0  0  0  0  0  0  0  0  0
    7.8819    1.1105    0.5600 C   0  0  0  0  0  0  0  0  0  0  0  0
    8.0527    2.0538    1.6138 C   0  0  0  0  0  0  0  0  0  0  0  0
    9.3697    2.5023    1.6005 C   0  0  0  0  0  0  0  0  0  0  0  0
    9.9924    3.5373    2.4958 C   0  0  0  0  0  0  0  0  0  0  0  0
   10.0605    4.9569    1.8868 C   0  0  0  0  0  0  0  0  0  0  0  0
    8.6969    5.6082    1.6573 C   0  0  0  0  0  0  0  0  0  0  0  0
   11.1928   -1.1250   -0.2007 C   0  0  0  0  0  0  0  0  0  0  0  0
   11.6510   -1.2131    1.2289 C   0  0  0  0  0  0  0  0  0  0  0  0
   10.7024   -1.9655    2.1708 C   0  0  0  0  0  0  0  0  0  0  0  0
   11.2034   -2.0032    3.6151 C   0  0  0  0  0  0  0  0  0  0  0  0
   10.4037   -2.0027   -0.9044 C   0  0  0  0  0  0  0  0  0  0  0  0
    0.8938   -2.8832    1.0742 H   0  0  0  0  0  0  0  0  0  0  0  0
    0.6988   -1.9095   -0.4013 H   0  0  0  0  0  0  0  0  0  0  0  0
    0.7005   -1.1189    1.1901 H   0  0  0  0  0  0  0  0  0  0  0  0
    3.1212   -2.5937   -0.0534 H   0  0  0  0  0  0  0  0  0  0  0  0
    3.1238   -1.8080    1.5218 H   0  0  0  0  0  0  0  0  0  0  0  0
    2.6606    0.4103    0.4304 H   0  0  0  0  0  0  0  0  0  0  0  0
    2.6502   -0.3655   -1.1509 H   0  0  0  0  0  0  0  0  0  0  0  0
    5.0408    1.1865    1.4025 H   0  0  0  0  0  0  0  0  0  0  0  0
    3.9970   -1.6872   -2.4055 H   0  0  0  0  0  0  0  0  0  0  0  0
    5.1533   -2.3639   -4.2965 H   0  0  0  0  0  0  0  0  0  0  0  0
   10.0765   -2.0169   -5.2997 H   0  0  0  0  0  0  0  0  0  0  0  0
    7.8315   -1.9421   -7.0155 H   0  0  0  0  0  0  0  0  0  0  0  0
    6.2668   -2.3348   -6.3061 H   0  0  0  0  0  0  0  0  0  0  0  0
    8.5955   -4.3060   -6.7028 H   0  0  0  0  0  0  0  0  0  0  0  0
    7.2003   -4.1414   -7.7703 H   0  0  0  0  0  0  0  0  0  0  0  0
    7.0643   -5.0518   -4.8170 H   0  0  0  0  0  0  0  0  0  0  0  0
    6.9123   -6.1029   -6.2425 H   0  0  0  0  0  0  0  0  0  0  0  0
    5.6644   -4.8841   -5.9009 H   0  0  0  0  0  0  0  0  0  0  0  0
   14.1148    2.2330   -3.9214 H   0  0  0  0  0  0  0  0  0  0  0  0
   15.1945    2.7558   -2.6201 H   0  0  0  0  0  0  0  0  0  0  0  0
   13.6194    4.7550   -4.1643 H   0  0  0  0  0  0  0  0  0  0  0  0
   17.4602    6.8691   -5.2528 H   0  0  0  0  0  0  0  0  0  0  0  0
   17.9958    6.2940   -3.6467 H   0  0  0  0  0  0  0  0  0  0  0  0
   18.2143    8.0074   -4.1069 H   0  0  0  0  0  0  0  0  0  0  0  0
   15.4470    8.3850   -5.4598 H   0  0  0  0  0  0  0  0  0  0  0  0
   16.1486    9.5475   -4.2986 H   0  0  0  0  0  0  0  0  0  0  0  0
   14.5262    8.8583   -4.0075 H   0  0  0  0  0  0  0  0  0  0  0  0
   16.6705    6.9792   -1.5517 H   0  0  0  0  0  0  0  0  0  0  0  0
   15.2234    8.0146   -1.7270 H   0  0  0  0  0  0  0  0  0  0  0  0
   16.8482    8.7106   -1.9591 H   0  0  0  0  0  0  0  0  0  0  0  0
   11.8624    2.9300    0.3873 H   0  0  0  0  0  0  0  0  0  0  0  0
    7.2740    2.3619    2.3092 H   0  0  0  0  0  0  0  0  0  0  0  0
   11.0123    3.2200    2.7694 H   0  0  0  0  0  0  0  0  0  0  0  0
    9.4226    3.5809    3.4395 H   0  0  0  0  0  0  0  0  0  0  0  0
   10.6164    4.9207    0.9339 H   0  0  0  0  0  0  0  0  0  0  0  0
   10.6595    5.5885    2.5659 H   0  0  0  0  0  0  0  0  0  0  0  0
    8.0797    5.0228    0.9571 H   0  0  0  0  0  0  0  0  0  0  0  0
    8.8079    6.6196    1.2352 H   0  0  0  0  0  0  0  0  0  0  0  0
    8.1331    5.7019    2.6013 H   0  0  0  0  0  0  0  0  0  0  0  0
   11.8341   -0.1992    1.6211 H   0  0  0  0  0  0  0  0  0  0  0  0
   12.6406   -1.7102    1.2509 H   0  0  0  0  0  0  0  0  0  0  0  0
   10.5649   -2.9984    1.8063 H   0  0  0  0  0  0  0  0  0  0  0  0
    9.7046   -1.4953    2.1321 H   0  0  0  0  0  0  0  0  0  0  0  0
   12.1881   -2.4952    3.6866 H   0  0  0  0  0  0  0  0  0  0  0  0
   10.5086   -2.5536    4.2693 H   0  0  0  0  0  0  0  0  0  0  0  0
   11.3140   -0.9864    4.0281 H   0  0  0  0  0  0  0  0  0  0  0  0
    9.9096   -2.9021   -0.5405 H   0  0  0  0  0  0  0  0  0  0  0  0
  1  2  1  0
  1 51  1  0
  1 52  1  0
  1 53  1  0
  2  3  1  0
  2 54  1  0
  2 55  1  0
  3  4  1  0
  3 56  1  0
  3 57  1  0
  4  5  2  0
  4  8  1  0
  5  6  1  0
  5 58  1  0
  6  7  2  0
  6 40  1  0
  7  8  1  0
  8  9  2  0
  9 10  1  0
  9 59  1  0
 10 11  2  0
 10 60  1  0
 11 12  1  0
 11 16  1  0
 12 13  1  0
 12 14  1  0
 14 15  1  0
 14 20  2  0
 15 16  2  0
 15 61  1  0
 16 17  1  0
 17 18  1  0
 17 62  1  0
 17 63  1  0
 18 19  1  0
 18 64  1  0
 18 65  1  0
 19 66  1  0
 19 67  1  0
 19 68  1  0
 20 21  1  0
 20 50  1  0
 21 22  2  0
 22 23  1  0
 22 46  1  0
 23 24  1  0
 23 36  2  0
 24 25  1  0
 25 26  2  0
 25 27  1  0
 27 28  1  0
 27 69  1  0
 27 70  1  0
 28 29  1  0
 28 71  1  0
 29 30  2  0
 29 31  1  0
 32 31  1  1
 32 33  1  0
 32 34  1  0
 32 35  1  0
 33 72  1  0
 33 73  1  0
 33 74  1  0
 34 75  1  0
 34 76  1  0
 34 77  1  0
 35 78  1  0
 35 79  1  0
 35 80  1  0
 36 37  1  0
 36 81  1  0
 37 38  1  0
 37 42  2  0
 38 39  1  0
 38 40  1  0
 40 41  2  0
 41 42  1  0
 41 82  1  0
 42 43  1  0
 43 44  1  0
 43 83  1  0
 43 84  1  0
 44 45  1  0
 44 85  1  0
 44 86  1  0
 45 87  1  0
 45 88  1  0
 45 89  1  0
 46 47  1  0
 46 50  2  0
 47 48  1  0
 47 90  1  0
 47 91  1  0
 48 49  1  0
 48 92  1  0
 48 93  1  0
 49 94  1  0
 49 95  1  0
 49 96  1  0
 50 97  1  0
M  END

