
     RDKit          3D

 47 50  0  0  0  0  0  0  0  0999 V2000
    0.9270    0.7324    0.4281 C   0  0  0  0  0  0  0  0  0  0  0  0
    2.3934    0.5556    0.1243 C   0  0  0  0  0  0  0  0  0  0  0  0
    3.1916   -0.3390    0.8512 C   0  0  0  0  0  0  0  0  0  0  0  0
    4.5494   -0.4919    0.5708 C   0  0  0  0  0  0  0  0  0  0  0  0
    5.1683    0.2476   -0.4576 C   0  0  0  0  0  0  0  0  0  0  0  0
    6.5855    0.0730   -0.7804 C   0  0  0  0  0  0  0  0  0  0  0  0
    7.4070   -1.0125   -0.6242 C   0  0  0  0  0  0  0  0  0  0  0  0
    7.0130   -2.5650    0.0718 S   0  0  0  0  0  0  0  0  0  0  0  0
    8.2123   -3.7563   -0.7275 C   0  0  0  0  0  0  0  0  0  0  0  0
    7.8383   -5.1394   -0.3523 C   0  0  0  0  0  0  0  0  0  0  0  0
    8.3165   -6.0114    0.5915 C   0  0  0  0  0  0  0  0  0  0  0  0
    7.5297   -7.2036    0.4786 C   0  0  0  0  0  0  0  0  0  0  0  0
    6.6296   -6.9635   -0.5208 C   0  0  0  0  0  0  0  0  0  0  0  0
    6.8059   -5.7200   -1.0281 O   0  0  0  0  0  0  0  0  0  0  0  0
    8.7986   -0.6307   -1.0717 C   0  0  0  0  0  0  0  0  0  0  0  0
    9.8109   -1.2993   -1.0429 O   0  0  0  0  0  0  0  0  0  0  0  0
    8.7195    0.6727   -1.5362 N   0  0  0  0  0  0  0  0  0  0  0  0
    9.8431    1.4277   -2.0813 C   0  0  0  0  0  0  0  0  0  0  0  0
   10.1045    1.1755   -3.5542 C   0  0  0  0  0  0  0  0  0  0  0  0
   10.7266   -0.0016   -4.0024 C   0  0  0  0  0  0  0  0  0  0  0  0
   10.9541   -0.2271   -5.3617 C   0  0  0  0  0  0  0  0  0  0  0  0
   10.5636    0.7312   -6.3034 C   0  0  0  0  0  0  0  0  0  0  0  0
    9.9497    1.9129   -5.8844 C   0  0  0  0  0  0  0  0  0  0  0  0
    9.7302    2.1149   -4.5228 C   0  0  0  0  0  0  0  0  0  0  0  0
    9.1504    3.2612   -4.1330 F   0  0  0  0  0  0  0  0  0  0  0  0
    7.4211    1.1782   -1.3809 C   0  0  0  0  0  0  0  0  0  0  0  0
    7.0917    2.3017   -1.6808 O   0  0  0  0  0  0  0  0  0  0  0  0
    4.3669    1.1632   -1.1785 C   0  0  0  0  0  0  0  0  0  0  0  0
    3.0127    1.3028   -0.8935 C   0  0  0  0  0  0  0  0  0  0  0  0
    0.5728   -0.0036    1.1647 H   0  0  0  0  0  0  0  0  0  0  0  0
    0.3139    0.6261   -0.4820 H   0  0  0  0  0  0  0  0  0  0  0  0
    0.7237    1.7382    0.8344 H   0  0  0  0  0  0  0  0  0  0  0  0
    2.7452   -0.9255    1.6591 H   0  0  0  0  0  0  0  0  0  0  0  0
    5.1381   -1.1752    1.1840 H   0  0  0  0  0  0  0  0  0  0  0  0
    9.2252   -3.5151   -0.3916 H   0  0  0  0  0  0  0  0  0  0  0  0
    8.1517   -3.6126   -1.8152 H   0  0  0  0  0  0  0  0  0  0  0  0
    9.1364   -5.8216    1.2812 H   0  0  0  0  0  0  0  0  0  0  0  0
    7.6239   -8.1171    1.0618 H   0  0  0  0  0  0  0  0  0  0  0  0
    5.8371   -7.5566   -0.9700 H   0  0  0  0  0  0  0  0  0  0  0  0
   10.7321    1.1524   -1.4954 H   0  0  0  0  0  0  0  0  0  0  0  0
    9.6184    2.4883   -1.9143 H   0  0  0  0  0  0  0  0  0  0  0  0
   11.0261   -0.7463   -3.2610 H   0  0  0  0  0  0  0  0  0  0  0  0
   11.4397   -1.1501   -5.6867 H   0  0  0  0  0  0  0  0  0  0  0  0
   10.7402    0.5624   -7.3686 H   0  0  0  0  0  0  0  0  0  0  0  0
    9.6371    2.6851   -6.5900 H   0  0  0  0  0  0  0  0  0  0  0  0
    4.8177    1.7652   -1.9663 H   0  0  0  0  0  0  0  0  0  0  0  0
    2.4178    2.0118   -1.4769 H   0  0  0  0  0  0  0  0  0  0  0  0
  1  2  1  0
  1 30  1  0
  1 31  1  0
  1 32  1  0
  2  3  2  0
  2 29  1  0
  3  4  1  0
  3 33  1  0
  4  5  2  0
  4 34  1  0
  5  6  1  0
  5 28  1  0
  6  7  1  0
  6 26  2  0
  7  8  2  0
  7 15  1  0
  8  9  1  0
  9 10  1  0
  9 35  1  0
  9 36  1  0
 10 11  2  0
 10 14  1  0
 11 12  1  0
 11 37  1  0
 12 13  2  0
 12 38  1  0
 13 14  1  0
 13 39  1  0
 15 16  2  0
 15 17  1  0
 17 18  1  0
 17 26  1  0
 18 19  1  0
 18 40  1  0
 18 41  1  0
 19 20  2  0
 19 24  1  0
 20 21  1  0
 20 42  1  0
 21 22  2  0
 21 43  1  0
 22 23  1  0
 22 44  1  0
 23 24  2  0
 23 45  1  0
 24 25  1  0
 26 27  1  0
 28 29  2  0
 28 46  1  0
 29 47  1  0
M  CHG  2   8   1  27  -1
M  END

