
     RDKit          3D

 34 34  0  0  0  0  0  0  0  0999 V2000
    3.4311    1.5782    0.6393 C   0  0  0  0  0  0  0  0  0  0  0  0
    2.7792    0.5678    1.9826 S   0  0  1  0  0  0  0  0  0  0  0  0
    3.2893    1.1276    3.2521 O   0  0  0  0  0  0  0  0  0  0  0  0
    1.3372    0.4076    1.7784 O   0  0  0  0  0  0  0  0  0  0  0  0
    3.5508   -1.0659    1.7622 C   0  0  0  0  0  0  0  0  0  0  0  0
    5.0819   -1.1636    1.8409 C   0  0  0  0  0  0  0  0  0  0  0  0
    5.6743   -1.9228    1.0915 O   0  0  0  0  0  0  0  0  0  0  0  0
    5.6722   -0.3955    2.7889 N   0  0  0  0  0  0  0  0  0  0  0  0
    7.1071   -0.4484    3.0492 C   0  0  0  0  0  0  0  0  0  0  0  0
    7.4852   -1.3731    4.1912 C   0  0  0  0  0  0  0  0  0  0  0  0
    7.4192   -2.7693    4.0273 C   0  0  0  0  0  0  0  0  0  0  0  0
    7.7506   -3.6262    5.0723 C   0  0  0  0  0  0  0  0  0  0  0  0
    8.1602   -3.1143    6.3182 C   0  0  0  0  0  0  0  0  0  0  0  0
    8.5112   -4.0325    7.4306 C   0  0  0  0  0  0  0  0  0  0  0  0
    9.2949   -3.5521    8.4585 N   0  0  0  0  0  0  0  0  0  0  0  0
    8.0166   -5.2274    7.4063 N   0  0  0  0  0  0  0  0  0  0  0  0
    8.4752   -5.9698    8.5069 O   0  0  0  0  0  0  0  0  0  0  0  0
    8.2223   -1.7221    6.4843 C   0  0  0  0  0  0  0  0  0  0  0  0
    7.8903   -0.8653    5.4308 C   0  0  0  0  0  0  0  0  0  0  0  0
    2.9781    2.5683    0.7867 H   0  0  0  0  0  0  0  0  0  0  0  0
    3.1155    1.1488   -0.3204 H   0  0  0  0  0  0  0  0  0  0  0  0
    4.5239    1.6361    0.7249 H   0  0  0  0  0  0  0  0  0  0  0  0
    3.2155   -1.4691    0.7979 H   0  0  0  0  0  0  0  0  0  0  0  0
    3.0839   -1.6539    2.5697 H   0  0  0  0  0  0  0  0  0  0  0  0
    5.0716    0.1793    3.3808 H   0  0  0  0  0  0  0  0  0  0  0  0
    7.4570    0.5735    3.2623 H   0  0  0  0  0  0  0  0  0  0  0  0
    7.5851   -0.7860    2.1183 H   0  0  0  0  0  0  0  0  0  0  0  0
    7.1104   -3.1782    3.0616 H   0  0  0  0  0  0  0  0  0  0  0  0
    7.7063   -4.7083    4.9415 H   0  0  0  0  0  0  0  0  0  0  0  0
    9.9978   -2.8654    8.2120 H   0  0  0  0  0  0  0  0  0  0  0  0
    9.6051   -4.2669    9.1089 H   0  0  0  0  0  0  0  0  0  0  0  0
    8.0380   -6.8210    8.3866 H   0  0  0  0  0  0  0  0  0  0  0  0
    8.5056   -1.3017    7.4516 H   0  0  0  0  0  0  0  0  0  0  0  0
    7.9422    0.2170    5.5832 H   0  0  0  0  0  0  0  0  0  0  0  0
  2  1  1  6
  1 20  1  0
  1 21  1  0
  1 22  1  0
  2  3  2  0
  2  4  2  0
  2  5  1  0
  5  6  1  0
  5 23  1  0
  5 24  1  0
  6  7  2  0
  6  8  1  0
  8  9  1  0
  8 25  1  0
  9 10  1  0
  9 26  1  0
  9 27  1  0
 10 11  2  0
 10 19  1  0
 11 12  1  0
 11 28  1  0
 12 13  2  0
 12 29  1  0
 13 14  1  0
 13 18  1  0
 14 15  1  0
 14 16  2  0
 15 30  1  0
 15 31  1  0
 16 17  1  0
 17 32  1  0
 18 19  2  0
 18 33  1  0
 19 34  1  0
M  END

