
     RDKit          3D

 39 40  0  0  0  0  0  0  0  0999 V2000
    1.2873   -0.4434    0.6885 C   0  0  0  0  0  0  0  0  0  0  0  0
    2.2435   -0.0078   -0.2506 O   0  0  0  0  0  0  0  0  0  0  0  0
    2.8699   -0.9147   -1.0406 C   0  0  0  0  0  0  0  0  0  0  0  0
    3.8034   -0.3888   -1.9431 C   0  0  0  0  0  0  0  0  0  0  0  0
    4.5057   -1.2380   -2.8033 C   0  0  0  0  0  0  0  0  0  0  0  0
    5.4124   -0.7758   -3.6867 O   0  0  0  0  0  0  0  0  0  0  0  0
    5.6711    0.6076   -3.7754 C   0  0  0  0  0  0  0  0  0  0  0  0
    4.2913   -2.6485   -2.7842 C   0  0  0  0  0  0  0  0  0  0  0  0
    4.9743   -3.6095   -3.6440 C   0  0  0  0  0  0  0  0  0  0  0  0
    5.8660   -3.3206   -4.5275 N   0  0  0  0  0  0  0  0  0  0  0  0
    6.3969   -4.3267   -5.2374 N   0  0  0  0  0  0  0  0  0  0  0  0
    7.3595   -4.0989   -6.2057 C   0  0  0  0  0  0  0  0  0  0  0  0
    7.8958   -5.1792   -6.9337 C   0  0  0  0  0  0  0  0  0  0  0  0
    8.8637   -4.9555   -7.9081 C   0  0  0  0  0  0  0  0  0  0  0  0
    9.3229   -3.6630   -8.1853 C   0  0  0  0  0  0  0  0  0  0  0  0
   10.5377   -3.4248   -9.4143 Cl  0  0  0  0  0  0  0  0  0  0  0  0
    8.7862   -2.5863   -7.4581 C   0  0  0  0  0  0  0  0  0  0  0  0
    9.3203   -0.9531   -7.7609 Cl  0  0  0  0  0  0  0  0  0  0  0  0
    7.8162   -2.7965   -6.4792 C   0  0  0  0  0  0  0  0  0  0  0  0
    3.3372   -3.1387   -1.8546 C   0  0  0  0  0  0  0  0  0  0  0  0
    3.1509   -4.4866   -1.8540 O   0  0  0  0  0  0  0  0  0  0  0  0
    2.2161   -5.0753   -0.9802 C   0  0  0  0  0  0  0  0  0  0  0  0
    2.6282   -2.2931   -0.9881 C   0  0  0  0  0  0  0  0  0  0  0  0
    0.9232    0.4556    1.2039 H   0  0  0  0  0  0  0  0  0  0  0  0
    1.7262   -1.1289    1.4359 H   0  0  0  0  0  0  0  0  0  0  0  0
    0.4321   -0.9468    0.2024 H   0  0  0  0  0  0  0  0  0  0  0  0
    3.9544    0.6882   -1.9431 H   0  0  0  0  0  0  0  0  0  0  0  0
    6.4272    0.7300   -4.5624 H   0  0  0  0  0  0  0  0  0  0  0  0
    6.0700    1.0125   -2.8282 H   0  0  0  0  0  0  0  0  0  0  0  0
    4.7670    1.1776   -4.0539 H   0  0  0  0  0  0  0  0  0  0  0  0
    4.6718   -4.6592   -3.4937 H   0  0  0  0  0  0  0  0  0  0  0  0
    6.0926   -5.2875   -5.0685 H   0  0  0  0  0  0  0  0  0  0  0  0
    7.5530   -6.1984   -6.7359 H   0  0  0  0  0  0  0  0  0  0  0  0
    9.2792   -5.7925   -8.4721 H   0  0  0  0  0  0  0  0  0  0  0  0
    7.4026   -1.9610   -5.9180 H   0  0  0  0  0  0  0  0  0  0  0  0
    2.2449   -6.1558   -1.1759 H   0  0  0  0  0  0  0  0  0  0  0  0
    1.1910   -4.7072   -1.1641 H   0  0  0  0  0  0  0  0  0  0  0  0
    2.4742   -4.8989    0.0794 H   0  0  0  0  0  0  0  0  0  0  0  0
    1.9063   -2.7039   -0.2891 H   0  0  0  0  0  0  0  0  0  0  0  0
  1  2  1  0
  1 24  1  0
  1 25  1  0
  1 26  1  0
  2  3  1  0
  3  4  2  0
  3 23  1  0
  4  5  1  0
  4 27  1  0
  5  6  1  0
  5  8  2  0
  6  7  1  0
  7 28  1  0
  7 29  1  0
  7 30  1  0
  8  9  1  0
  8 20  1  0
  9 10  2  0
  9 31  1  0
 10 11  1  0
 11 12  1  0
 11 32  1  0
 12 13  2  0
 12 19  1  0
 13 14  1  0
 13 33  1  0
 14 15  2  0
 14 34  1  0
 15 16  1  0
 15 17  1  0
 17 18  1  0
 17 19  2  0
 19 35  1  0
 20 21  1  0
 20 23  2  0
 21 22  1  0
 22 36  1  0
 22 37  1  0
 22 38  1  0
 23 39  1  0
M  END

