
     RDKit          3D

 34 35  0  0  0  0  0  0  0  0999 V2000
    0.7611   -0.4836    0.2657 N   0  0  0  0  0  0  0  0  0  0  0  0
    1.8927    0.1170    0.3440 C   0  0  0  0  0  0  0  0  0  0  0  0
    2.2863    1.1965   -0.4205 N   0  0  0  0  0  0  0  0  0  0  0  0
    2.9274   -0.4774    1.2591 C   0  0  0  0  0  0  0  0  0  0  0  0
    2.9704   -1.8850    1.3329 C   0  0  0  0  0  0  0  0  0  0  0  0
    3.8751   -2.5753    2.1227 C   0  0  0  0  0  0  0  0  0  0  0  0
    4.8139   -1.8848    2.9249 C   0  0  0  0  0  0  0  0  0  0  0  0
    5.7637   -2.5684    3.6907 N   0  0  0  0  0  0  0  0  0  0  0  0
    5.3890   -3.8140    4.3589 C   0  0  0  0  0  0  0  0  0  0  0  0
    6.6277   -4.6336    4.6995 C   0  0  0  0  0  0  0  0  0  0  0  0
    7.5397   -3.8750    5.4668 O   0  0  0  0  0  0  0  0  0  0  0  0
    7.9661   -2.7054    4.7779 C   0  0  2  0  0  0  0  0  0  0  0  0
    8.9837   -2.0295    5.6901 C   0  0  0  0  0  0  0  0  0  0  0  0
   10.0365   -2.9020    6.0076 O   0  0  0  0  0  0  0  0  0  0  0  0
    6.7758   -1.8144    4.4196 C   0  0  0  0  0  0  0  0  0  0  0  0
    4.7568   -0.4762    2.8996 C   0  0  0  0  0  0  0  0  0  0  0  0
    3.8428    0.1955    2.0822 C   0  0  0  0  0  0  0  0  0  0  0  0
    3.8686    2.1168    2.2573 Br  0  0  0  0  0  0  0  0  0  0  0  0
    0.1527   -0.0347   -0.4279 H   0  0  0  0  0  0  0  0  0  0  0  0
    1.5525    1.7448   -0.8555 H   0  0  0  0  0  0  0  0  0  0  0  0
    3.0963    1.7306   -0.1305 H   0  0  0  0  0  0  0  0  0  0  0  0
    2.2475   -2.4300    0.7238 H   0  0  0  0  0  0  0  0  0  0  0  0
    3.8651   -3.6648    2.0938 H   0  0  0  0  0  0  0  0  0  0  0  0
    4.7348   -4.4133    3.7142 H   0  0  0  0  0  0  0  0  0  0  0  0
    4.8281   -3.5993    5.2932 H   0  0  0  0  0  0  0  0  0  0  0  0
    7.1118   -4.9837    3.7656 H   0  0  0  0  0  0  0  0  0  0  0  0
    6.3486   -5.5125    5.3001 H   0  0  0  0  0  0  0  0  0  0  0  0
    8.4738   -3.0116    3.8402 H   0  0  0  0  0  0  0  0  0  0  0  0
    8.4584   -1.6646    6.5978 H   0  0  0  0  0  0  0  0  0  0  0  0
    9.4141   -1.1517    5.1807 H   0  0  0  0  0  0  0  0  0  0  0  0
    9.6186   -3.7299    6.2887 H   0  0  0  0  0  0  0  0  0  0  0  0
    7.1432   -0.9950    3.7855 H   0  0  0  0  0  0  0  0  0  0  0  0
    6.3591   -1.3642    5.3466 H   0  0  0  0  0  0  0  0  0  0  0  0
    5.4048    0.1193    3.5380 H   0  0  0  0  0  0  0  0  0  0  0  0
  1  2  2  0
  1 19  1  0
  2  3  1  0
  2  4  1  0
  3 20  1  0
  3 21  1  0
  4  5  2  0
  4 17  1  0
  5  6  1  0
  5 22  1  0
  6  7  2  0
  6 23  1  0
  7  8  1  0
  7 16  1  0
  8  9  1  0
  8 15  1  0
  9 10  1  0
  9 24  1  0
  9 25  1  0
 10 11  1  0
 10 26  1  0
 10 27  1  0
 11 12  1  0
 12 13  1  0
 12 15  1  0
 12 28  1  6
 13 14  1  0
 13 29  1  0
 13 30  1  0
 14 31  1  0
 15 32  1  0
 15 33  1  0
 16 17  2  0
 16 34  1  0
 17 18  1  0
M  END

