
     RDKit          3D

 39 40  0  0  0  0  0  0  0  0999 V2000
    3.8095    1.8105    0.2148 C   0  0  0  0  0  0  0  0  0  0  0  0
    4.2232    0.6075   -0.3943 O   0  0  0  0  0  0  0  0  0  0  0  0
    3.5454    0.1389   -1.4693 C   0  0  0  0  0  0  0  0  0  0  0  0
    2.4210    0.7588   -2.0356 C   0  0  0  0  0  0  0  0  0  0  0  0
    1.8042    0.1853   -3.1516 C   0  0  0  0  0  0  0  0  0  0  0  0
    2.2885   -1.0023   -3.6984 C   0  0  0  0  0  0  0  0  0  0  0  0
    1.4157   -1.7154   -5.2455 Br  0  0  0  0  0  0  0  0  0  0  0  0
    3.4083   -1.6416   -3.1359 C   0  0  0  0  0  0  0  0  0  0  0  0
    4.0651   -2.8711   -3.7354 C   0  0  0  0  0  0  0  0  0  0  0  0
    5.1517   -2.7551   -4.2851 O   0  0  0  0  0  0  0  0  0  0  0  0
    3.4144   -4.0683   -3.6144 N   0  0  0  0  0  0  0  0  0  0  0  0
    2.2153   -4.2881   -2.8281 C   0  0  0  0  0  0  0  0  0  0  0  0
    3.9787   -5.2403   -4.2918 C   0  0  0  0  0  0  0  0  0  0  0  0
    4.7078   -6.1949   -3.3580 C   0  0  0  0  0  0  0  0  0  0  0  0
    5.9054   -5.7532   -2.7695 C   0  0  0  0  0  0  0  0  0  0  0  0
    6.6259   -6.5672   -1.8953 C   0  0  0  0  0  0  0  0  0  0  0  0
    6.1528   -7.8485   -1.6007 C   0  0  0  0  0  0  0  0  0  0  0  0
    4.9691   -8.2987   -2.1868 C   0  0  0  0  0  0  0  0  0  0  0  0
    4.2284   -7.4924   -3.0687 C   0  0  0  0  0  0  0  0  0  0  0  0
    2.9618   -8.0432   -3.6880 C   0  0  0  0  0  0  0  0  0  0  0  0
    4.0323   -1.0500   -2.0355 C   0  0  0  0  0  0  0  0  0  0  0  0
    4.5015    1.9928    1.0476 H   0  0  0  0  0  0  0  0  0  0  0  0
    2.7816    1.7374    0.6140 H   0  0  0  0  0  0  0  0  0  0  0  0
    3.8601    2.6639   -0.4853 H   0  0  0  0  0  0  0  0  0  0  0  0
    2.0190    1.6863   -1.6281 H   0  0  0  0  0  0  0  0  0  0  0  0
    0.9388    0.6744   -3.6022 H   0  0  0  0  0  0  0  0  0  0  0  0
    1.9621   -3.3930   -2.2483 H   0  0  0  0  0  0  0  0  0  0  0  0
    2.3771   -5.1175   -2.1189 H   0  0  0  0  0  0  0  0  0  0  0  0
    1.3544   -4.5397   -3.4720 H   0  0  0  0  0  0  0  0  0  0  0  0
    4.6806   -4.8559   -5.0434 H   0  0  0  0  0  0  0  0  0  0  0  0
    3.1598   -5.7493   -4.8212 H   0  0  0  0  0  0  0  0  0  0  0  0
    6.2715   -4.7539   -3.0198 H   0  0  0  0  0  0  0  0  0  0  0  0
    7.5567   -6.2047   -1.4513 H   0  0  0  0  0  0  0  0  0  0  0  0
    6.7059   -8.4997   -0.9187 H   0  0  0  0  0  0  0  0  0  0  0  0
    4.6041   -9.3041   -1.9576 H   0  0  0  0  0  0  0  0  0  0  0  0
    2.7390   -9.0449   -3.2926 H   0  0  0  0  0  0  0  0  0  0  0  0
    3.0449   -8.1348   -4.7842 H   0  0  0  0  0  0  0  0  0  0  0  0
    2.0849   -7.4069   -3.4856 H   0  0  0  0  0  0  0  0  0  0  0  0
    4.9219   -1.5072   -1.5985 H   0  0  0  0  0  0  0  0  0  0  0  0
  1  2  1  0
  1 22  1  0
  1 23  1  0
  1 24  1  0
  2  3  1  0
  3  4  2  0
  3 21  1  0
  4  5  1  0
  4 25  1  0
  5  6  2  0
  5 26  1  0
  6  7  1  0
  6  8  1  0
  8  9  1  0
  8 21  2  0
  9 10  2  0
  9 11  1  0
 11 12  1  0
 11 13  1  0
 12 27  1  0
 12 28  1  0
 12 29  1  0
 13 14  1  0
 13 30  1  0
 13 31  1  0
 14 15  2  0
 14 19  1  0
 15 16  1  0
 15 32  1  0
 16 17  2  0
 16 33  1  0
 17 18  1  0
 17 34  1  0
 18 19  2  0
 18 35  1  0
 19 20  1  0
 20 36  1  0
 20 37  1  0
 20 38  1  0
 21 39  1  0
M  END

