
     RDKit          3D

174178  0  0  0  0  0  0  0  0999 V2000
   -0.9053   12.6632    4.6328 C   0  0  0  0  0  0  0  0  0  0  0  0
    0.6062   12.8916    4.6783 C   0  0  0  0  0  0  0  0  0  0  0  0
    1.4169   11.6031    4.8491 C   0  0  0  0  0  0  0  0  0  0  0  0
    2.9318   11.8224    4.8955 C   0  0  0  0  0  0  0  0  0  0  0  0
    3.7408   10.5335    5.0677 C   0  0  0  0  0  0  0  0  0  0  0  0
    5.2560   10.7521    5.1134 C   0  0  0  0  0  0  0  0  0  0  0  0
    6.0630    9.4622    5.2889 C   0  0  0  0  0  0  0  0  0  0  0  0
    7.5785    9.6787    5.3335 C   0  0  0  0  0  0  0  0  0  0  0  0
    8.3815    8.3874    5.5143 C   0  0  0  0  0  0  0  0  0  0  0  0
    9.8977    8.6020    5.5571 C   0  0  0  0  0  0  0  0  0  0  0  0
   10.6893    7.3049    5.7453 C   0  0  0  0  0  0  0  0  0  0  0  0
   12.1929    7.5280    5.7831 C   0  0  0  0  0  0  0  0  0  0  0  0
   12.8264    6.2706    5.9685 O   0  0  0  0  0  0  0  0  0  0  0  0
   14.1789    6.1828    6.0304 C   0  0  0  0  0  0  0  0  0  0  0  0
   15.0320    7.2818    5.9309 C   0  0  0  0  0  0  0  0  0  0  0  0
   16.4386    7.1708    5.9946 C   0  0  0  0  0  0  0  0  0  0  0  0
   17.2023    8.4045    5.8628 C   0  0  0  0  0  0  0  0  0  0  0  0
   18.5462    8.5981    5.8216 C   0  0  0  0  0  0  0  0  0  0  0  0
   19.2185    9.8866    5.6788 C   0  0  0  0  0  0  0  0  0  0  0  0
   18.5492   11.1270    5.5649 C   0  0  0  0  0  0  0  0  0  0  0  0
   19.2522   12.3128    5.4216 C   0  0  0  0  0  0  0  0  0  0  0  0
   20.6693   12.3364    5.4117 C   0  0  0  0  0  0  0  0  0  0  0  0
   21.3722   13.6166    5.2716 C   0  0  0  0  0  0  0  0  0  0  0  0
   22.6381   13.8910    5.7462 C   0  0  0  0  0  0  0  0  0  0  0  0
   23.2717   15.1546    5.4871 C   0  0  0  0  0  0  0  0  0  0  0  0
   23.8095   16.1652    5.2911 N   0  0  0  0  0  0  0  0  0  0  0  0
   23.4188   12.9979    6.5538 C   0  0  0  0  0  0  0  0  0  0  0  0
   24.0816   12.3229    7.2282 N   0  0  0  0  0  0  0  0  0  0  0  0
   20.6509   14.7353    4.5599 C   0  0  0  0  0  0  0  0  0  0  0  0
   20.5247   14.5973    3.1873 C   0  0  0  0  0  0  0  0  0  0  0  0
   19.7664   15.4712    2.3421 C   0  0  0  0  0  0  0  0  0  0  0  0
   19.1478   16.1414    1.6216 N   0  0  0  0  0  0  0  0  0  0  0  0
   21.1503   13.5051    2.4973 C   0  0  0  0  0  0  0  0  0  0  0  0
   21.6543   12.6298    1.9225 N   0  0  0  0  0  0  0  0  0  0  0  0
   20.1530   15.8387    5.3715 C   0  0  0  0  0  0  0  0  0  0  0  0
   19.8713   17.1269    4.8518 C   0  0  0  0  0  0  0  0  0  0  0  0
   19.4118   18.1550    5.6537 C   0  0  0  0  0  0  0  0  0  0  0  0
   19.1882   17.9673    7.0470 C   0  0  0  0  0  0  0  0  0  0  0  0
   18.7263   18.9818    7.8409 N   0  0  0  0  0  0  0  0  0  0  0  0
   18.5473   18.7712    9.2675 C   0  0  0  0  0  0  0  0  0  0  0  0
   18.4491   20.2905    7.2713 C   0  0  0  0  0  0  0  0  0  0  0  0
   19.4794   16.6795    7.5768 C   0  0  0  0  0  0  0  0  0  0  0  0
   19.9542   15.6650    6.7649 C   0  0  0  0  0  0  0  0  0  0  0  0
   21.3413   11.0977    5.5101 C   0  0  0  0  0  0  0  0  0  0  0  0
   20.6311    9.9124    5.6373 C   0  0  0  0  0  0  0  0  0  0  0  0
   16.9856    5.8656    6.1803 C   0  0  0  0  0  0  0  0  0  0  0  0
   18.3365    5.7572    6.2583 O   0  0  0  0  0  0  0  0  0  0  0  0
   18.9452    4.4830    6.4346 C   0  0  0  0  0  0  0  0  0  0  0  0
   20.4541    4.6656    6.5273 C   0  0  0  0  0  0  0  0  0  0  0  0
   20.9521    5.4900    7.7232 C   0  0  0  0  0  0  0  0  0  0  0  0
   20.6998    4.8592    9.0973 C   0  0  0  0  0  0  0  0  0  0  0  0
   21.2801    5.6749   10.2571 C   0  0  0  0  0  0  0  0  0  0  0  0
   21.0274    5.0586   11.6361 C   0  0  0  0  0  0  0  0  0  0  0  0
   21.6091    5.8733   12.7952 C   0  0  0  0  0  0  0  0  0  0  0  0
   21.3548    5.2589   14.1749 C   0  0  0  0  0  0  0  0  0  0  0  0
   21.9365    6.0735   15.3341 C   0  0  0  0  0  0  0  0  0  0  0  0
   21.6817    5.4603   16.7141 C   0  0  0  0  0  0  0  0  0  0  0  0
   22.2633    6.2749   17.8738 C   0  0  0  0  0  0  0  0  0  0  0  0
   22.0042    5.6560   19.2481 C   0  0  0  0  0  0  0  0  0  0  0  0
   16.1314    4.7675    6.2758 C   0  0  0  0  0  0  0  0  0  0  0  0
   14.7281    4.8829    6.2063 C   0  0  0  0  0  0  0  0  0  0  0  0
   13.8301    3.7404    6.3071 C   0  0  0  0  0  0  0  0  0  0  0  0
   14.1763    2.4404    6.4830 C   0  0  0  0  0  0  0  0  0  0  0  0
   13.2594    1.3105    6.5833 C   0  0  0  0  0  0  0  0  0  0  0  0
   11.8527    1.4307    6.4890 C   0  0  0  0  0  0  0  0  0  0  0  0
   11.0223    0.3276    6.6002 C   0  0  0  0  0  0  0  0  0  0  0  0
   11.5500   -0.9700    6.8069 C   0  0  0  0  0  0  0  0  0  0  0  0
   10.7056   -2.1633    6.9286 C   0  0  0  0  0  0  0  0  0  0  0  0
    9.4095   -2.1825    7.4014 C   0  0  0  0  0  0  0  0  0  0  0  0
    8.6378   -3.3947    7.4060 C   0  0  0  0  0  0  0  0  0  0  0  0
    7.9893   -4.3583    7.4188 N   0  0  0  0  0  0  0  0  0  0  0  0
    8.7256   -1.0500    7.9572 C   0  0  0  0  0  0  0  0  0  0  0  0
    8.1355   -0.1718    8.4371 N   0  0  0  0  0  0  0  0  0  0  0  0
   11.3021   -3.4866    6.5150 C   0  0  0  0  0  0  0  0  0  0  0  0
   11.4622   -3.6789    5.1525 C   0  0  0  0  0  0  0  0  0  0  0  0
   12.1248   -4.8003    4.5555 C   0  0  0  0  0  0  0  0  0  0  0  0
   12.6699   -5.6815    4.0288 N   0  0  0  0  0  0  0  0  0  0  0  0
   10.9777   -2.7094    4.2113 C   0  0  0  0  0  0  0  0  0  0  0  0
   10.5867   -1.9368    3.4361 N   0  0  0  0  0  0  0  0  0  0  0  0
   11.6569   -4.4251    7.5719 C   0  0  0  0  0  0  0  0  0  0  0  0
   11.8595   -3.9625    8.8971 C   0  0  0  0  0  0  0  0  0  0  0  0
   12.2029   -4.8125    9.9331 C   0  0  0  0  0  0  0  0  0  0  0  0
   12.3464   -6.2114    9.7170 C   0  0  0  0  0  0  0  0  0  0  0  0
   12.6781   -7.0641   10.7348 N   0  0  0  0  0  0  0  0  0  0  0  0
   12.8018   -8.4910   10.4851 C   0  0  0  0  0  0  0  0  0  0  0  0
   12.8655   -6.5562   12.0834 C   0  0  0  0  0  0  0  0  0  0  0  0
   12.1164   -6.6848    8.3944 C   0  0  0  0  0  0  0  0  0  0  0  0
   11.7899   -5.8211    7.3656 C   0  0  0  0  0  0  0  0  0  0  0  0
   12.9571   -1.0990    6.8668 C   0  0  0  0  0  0  0  0  0  0  0  0
   13.7835    0.0121    6.7718 C   0  0  0  0  0  0  0  0  0  0  0  0
   -1.4555   13.6098    4.5093 H   0  0  0  0  0  0  0  0  0  0  0  0
   -1.2671   12.1868    5.5596 H   0  0  0  0  0  0  0  0  0  0  0  0
   -1.1861   12.0037    3.7942 H   0  0  0  0  0  0  0  0  0  0  0  0
    0.8498   13.5852    5.5040 H   0  0  0  0  0  0  0  0  0  0  0  0
    0.9300   13.4037    3.7537 H   0  0  0  0  0  0  0  0  0  0  0  0
    1.1738   10.9082    4.0233 H   0  0  0  0  0  0  0  0  0  0  0  0
    1.0939   11.0899    5.7744 H   0  0  0  0  0  0  0  0  0  0  0  0
    3.1743   12.5181    5.7206 H   0  0  0  0  0  0  0  0  0  0  0  0
    3.2545   12.3346    3.9697 H   0  0  0  0  0  0  0  0  0  0  0  0
    3.4980    9.8375    4.2431 H   0  0  0  0  0  0  0  0  0  0  0  0
    3.4185   10.0216    5.9936 H   0  0  0  0  0  0  0  0  0  0  0  0
    5.4993   11.4493    5.9369 H   0  0  0  0  0  0  0  0  0  0  0  0
    5.5793   11.2615    4.1864 H   0  0  0  0  0  0  0  0  0  0  0  0
    5.8189    8.7644    4.4663 H   0  0  0  0  0  0  0  0  0  0  0  0
    5.7402    8.9535    6.2163 H   0  0  0  0  0  0  0  0  0  0  0  0
    7.8232   10.3786    6.1544 H   0  0  0  0  0  0  0  0  0  0  0  0
    7.9027   10.1835    4.4044 H   0  0  0  0  0  0  0  0  0  0  0  0
    8.1370    7.6866    4.6950 H   0  0  0  0  0  0  0  0  0  0  0  0
    8.0595    7.8835    6.4443 H   0  0  0  0  0  0  0  0  0  0  0  0
   10.1423    9.3058    6.3744 H   0  0  0  0  0  0  0  0  0  0  0  0
   10.2208    9.1003    4.6242 H   0  0  0  0  0  0  0  0  0  0  0  0
   10.4598    6.5987    4.9289 H   0  0  0  0  0  0  0  0  0  0  0  0
   10.3849    6.8078    6.6825 H   0  0  0  0  0  0  0  0  0  0  0  0
   12.4641    8.2126    6.6095 H   0  0  0  0  0  0  0  0  0  0  0  0
   12.5417    7.9910    4.8403 H   0  0  0  0  0  0  0  0  0  0  0  0
   14.6150    8.2787    5.7920 H   0  0  0  0  0  0  0  0  0  0  0  0
   16.5619    9.2885    5.7753 H   0  0  0  0  0  0  0  0  0  0  0  0
   19.2014    7.7318    5.8919 H   0  0  0  0  0  0  0  0  0  0  0  0
   17.4587   11.1658    5.5816 H   0  0  0  0  0  0  0  0  0  0  0  0
   18.6953   13.2471    5.3307 H   0  0  0  0  0  0  0  0  0  0  0  0
   20.0475   17.3457    3.8001 H   0  0  0  0  0  0  0  0  0  0  0  0
   19.2390   19.1265    5.1938 H   0  0  0  0  0  0  0  0  0  0  0  0
   17.8139   17.9725    9.4767 H   0  0  0  0  0  0  0  0  0  0  0  0
   18.1766   19.6953    9.7272 H   0  0  0  0  0  0  0  0  0  0  0  0
   19.4942   18.5003    9.7673 H   0  0  0  0  0  0  0  0  0  0  0  0
   19.3552   20.7581    6.8464 H   0  0  0  0  0  0  0  0  0  0  0  0
   18.0643   20.9531    8.0559 H   0  0  0  0  0  0  0  0  0  0  0  0
   17.6896   20.2366    6.4722 H   0  0  0  0  0  0  0  0  0  0  0  0
   19.3388   16.4724    8.6363 H   0  0  0  0  0  0  0  0  0  0  0  0
   20.1641   14.6980    7.2256 H   0  0  0  0  0  0  0  0  0  0  0  0
   22.4276   11.0527    5.4495 H   0  0  0  0  0  0  0  0  0  0  0  0
   21.1790    8.9687    5.6948 H   0  0  0  0  0  0  0  0  0  0  0  0
   18.6932    3.8302    5.5785 H   0  0  0  0  0  0  0  0  0  0  0  0
   18.5475    4.0032    7.3473 H   0  0  0  0  0  0  0  0  0  0  0  0
   20.8028    5.1267    5.5876 H   0  0  0  0  0  0  0  0  0  0  0  0
   20.9017    3.6562    6.5590 H   0  0  0  0  0  0  0  0  0  0  0  0
   20.4921    6.4927    7.6924 H   0  0  0  0  0  0  0  0  0  0  0  0
   22.0374    5.6512    7.5996 H   0  0  0  0  0  0  0  0  0  0  0  0
   21.1298    3.8400    9.1167 H   0  0  0  0  0  0  0  0  0  0  0  0
   19.6143    4.7319    9.2619 H   0  0  0  0  0  0  0  0  0  0  0  0
   20.8570    6.6961   10.2302 H   0  0  0  0  0  0  0  0  0  0  0  0
   22.3684    5.7993   10.1062 H   0  0  0  0  0  0  0  0  0  0  0  0
   21.4487    4.0362   11.6617 H   0  0  0  0  0  0  0  0  0  0  0  0
   19.9385    4.9362   11.7871 H   0  0  0  0  0  0  0  0  0  0  0  0
   21.1893    6.8961   12.7683 H   0  0  0  0  0  0  0  0  0  0  0  0
   22.6980    5.9948   12.6449 H   0  0  0  0  0  0  0  0  0  0  0  0
   21.7747    4.2359   14.2014 H   0  0  0  0  0  0  0  0  0  0  0  0
   20.2656    5.1376   14.3248 H   0  0  0  0  0  0  0  0  0  0  0  0
   21.5172    7.0967   15.3067 H   0  0  0  0  0  0  0  0  0  0  0  0
   23.0256    6.1942   15.1842 H   0  0  0  0  0  0  0  0  0  0  0  0
   22.1011    4.4370   16.7420 H   0  0  0  0  0  0  0  0  0  0  0  0
   20.5923    5.3396   16.8646 H   0  0  0  0  0  0  0  0  0  0  0  0
   21.8440    7.2973   17.8446 H   0  0  0  0  0  0  0  0  0  0  0  0
   23.3517    6.3948   17.7224 H   0  0  0  0  0  0  0  0  0  0  0  0
   20.9236    5.5576   19.4466 H   0  0  0  0  0  0  0  0  0  0  0  0
   22.4359    6.2674   20.0567 H   0  0  0  0  0  0  0  0  0  0  0  0
   22.4445    4.6473   19.3232 H   0  0  0  0  0  0  0  0  0  0  0  0
   16.5565    3.7755    6.4095 H   0  0  0  0  0  0  0  0  0  0  0  0
   12.7729    3.9984    6.2294 H   0  0  0  0  0  0  0  0  0  0  0  0
   15.2347    2.1728    6.5631 H   0  0  0  0  0  0  0  0  0  0  0  0
   11.3994    2.4070    6.3110 H   0  0  0  0  0  0  0  0  0  0  0  0
    9.9490    0.4716    6.4866 H   0  0  0  0  0  0  0  0  0  0  0  0
   11.7596   -2.8988    9.1206 H   0  0  0  0  0  0  0  0  0  0  0  0
   12.3553   -4.3873   10.9236 H   0  0  0  0  0  0  0  0  0  0  0  0
   11.8499   -8.9368   10.1455 H   0  0  0  0  0  0  0  0  0  0  0  0
   13.0991   -8.9967   11.4118 H   0  0  0  0  0  0  0  0  0  0  0  0
   13.5686   -8.7078    9.7213 H   0  0  0  0  0  0  0  0  0  0  0  0
   13.6822   -5.8147   12.1335 H   0  0  0  0  0  0  0  0  0  0  0  0
   13.1253   -7.3864   12.7512 H   0  0  0  0  0  0  0  0  0  0  0  0
   11.9503   -6.0786   12.4765 H   0  0  0  0  0  0  0  0  0  0  0  0
   12.1780   -7.7486    8.1714 H   0  0  0  0  0  0  0  0  0  0  0  0
   11.6000   -6.2518    6.3841 H   0  0  0  0  0  0  0  0  0  0  0  0
   13.4077   -2.0832    7.0064 H   0  0  0  0  0  0  0  0  0  0  0  0
   14.8664   -0.1205    6.8380 H   0  0  0  0  0  0  0  0  0  0  0  0
  1  2  1  0
  1 91  1  0
  1 92  1  0
  1 93  1  0
  2  3  1  0
  2 94  1  0
  2 95  1  0
  3  4  1  0
  3 96  1  0
  3 97  1  0
  4  5  1  0
  4 98  1  0
  4 99  1  0
  5  6  1  0
  5100  1  0
  5101  1  0
  6  7  1  0
  6102  1  0
  6103  1  0
  7  8  1  0
  7104  1  0
  7105  1  0
  8  9  1  0
  8106  1  0
  8107  1  0
  9 10  1  0
  9108  1  0
  9109  1  0
 10 11  1  0
 10110  1  0
 10111  1  0
 11 12  1  0
 11112  1  0
 11113  1  0
 12 13  1  0
 12114  1  0
 12115  1  0
 13 14  1  0
 14 15  2  0
 14 61  1  0
 15 16  1  0
 15116  1  0
 16 17  1  0
 16 46  2  0
 17 18  2  0
 17117  1  0
 18 19  1  0
 18118  1  0
 19 20  2  0
 19 45  1  0
 20 21  1  0
 20119  1  0
 21 22  2  0
 21120  1  0
 22 23  1  0
 22 44  1  0
 23 24  2  0
 23 29  1  0
 24 25  1  0
 24 27  1  0
 25 26  3  0
 27 28  3  0
 29 30  2  0
 29 35  1  0
 30 31  1  0
 30 33  1  0
 31 32  3  0
 33 34  3  0
 35 36  2  0
 35 43  1  0
 36 37  1  0
 36121  1  0
 37 38  2  0
 37122  1  0
 38 39  1  0
 38 42  1  0
 39 40  1  0
 39 41  1  0
 40123  1  0
 40124  1  0
 40125  1  0
 41126  1  0
 41127  1  0
 41128  1  0
 42 43  2  0
 42129  1  0
 43130  1  0
 44 45  2  0
 44131  1  0
 45132  1  0
 46 47  1  0
 46 60  1  0
 47 48  1  0
 48 49  1  0
 48133  1  0
 48134  1  0
 49 50  1  0
 49135  1  0
 49136  1  0
 50 51  1  0
 50137  1  0
 50138  1  0
 51 52  1  0
 51139  1  0
 51140  1  0
 52 53  1  0
 52141  1  0
 52142  1  0
 53 54  1  0
 53143  1  0
 53144  1  0
 54 55  1  0
 54145  1  0
 54146  1  0
 55 56  1  0
 55147  1  0
 55148  1  0
 56 57  1  0
 56149  1  0
 56150  1  0
 57 58  1  0
 57151  1  0
 57152  1  0
 58 59  1  0
 58153  1  0
 58154  1  0
 59155  1  0
 59156  1  0
 59157  1  0
 60 61  2  0
 60158  1  0
 61 62  1  0
 62 63  2  0
 62159  1  0
 63 64  1  0
 63160  1  0
 64 65  2  0
 64 90  1  0
 65 66  1  0
 65161  1  0
 66 67  2  0
 66162  1  0
 67 68  1  0
 67 89  1  0
 68 69  2  0
 68 74  1  0
 69 70  1  0
 69 72  1  0
 70 71  3  0
 72 73  3  0
 74 75  2  0
 74 80  1  0
 75 76  1  0
 75 78  1  0
 76 77  3  0
 78 79  3  0
 80 81  2  0
 80 88  1  0
 81 82  1  0
 81163  1  0
 82 83  2  0
 82164  1  0
 83 84  1  0
 83 87  1  0
 84 85  1  0
 84 86  1  0
 85165  1  0
 85166  1  0
 85167  1  0
 86168  1  0
 86169  1  0
 86170  1  0
 87 88  2  0
 87171  1  0
 88172  1  0
 89 90  2  0
 89173  1  0
 90174  1  0
M  END

