
     RDKit          3D

 60 63  0  0  0  0  0  0  0  0999 V2000
    2.9949    2.8080    2.3795 C   0  0  0  0  0  0  0  0  0  0  0  0
    2.7244    1.5717    1.7544 O   0  0  0  0  0  0  0  0  0  0  0  0
    3.4026    0.4672    2.1389 C   0  0  0  0  0  0  0  0  0  0  0  0
    3.0736   -0.7277    1.4650 C   0  0  0  0  0  0  0  0  0  0  0  0
    3.7122   -1.9130    1.7853 C   0  0  0  0  0  0  0  0  0  0  0  0
    4.7058   -1.9576    2.7910 C   0  0  0  0  0  0  0  0  0  0  0  0
    5.3743   -3.2137    3.1334 C   0  0  0  0  0  0  0  0  0  0  0  0
    5.0797   -4.3353    2.5643 N   0  0  0  0  0  0  0  0  0  0  0  0
    5.8716   -5.3291    3.0808 N   0  0  0  0  0  0  0  0  0  0  0  0
    5.6306   -6.6577    2.8412 C   0  0  0  0  0  0  0  0  0  0  0  0
    6.2824   -7.5366    3.3689 O   0  0  0  0  0  0  0  0  0  0  0  0
    4.4748   -6.9388    1.8735 C   0  0  0  0  0  0  0  0  0  0  0  0
    4.3892   -8.3342    1.6335 O   0  0  0  0  0  0  0  0  0  0  0  0
    3.8175   -9.0780    2.5935 C   0  0  0  0  0  0  0  0  0  0  0  0
    3.2402   -8.6287    3.5533 O   0  0  0  0  0  0  0  0  0  0  0  0
    3.9891  -10.5531    2.3075 C   0  0  0  0  0  0  0  0  0  0  0  0
    3.2454  -11.3240    3.2706 N   0  0  0  0  0  0  0  0  0  0  0  0
    2.9622  -12.6400    3.0750 C   0  0  0  0  0  0  0  0  0  0  0  0
    3.3549  -13.2557    2.0953 O   0  0  0  0  0  0  0  0  0  0  0  0
    2.0987  -13.2945    4.1570 C   0  0  0  0  0  0  0  0  0  0  0  0
    0.6702  -13.5333    3.6998 C   0  0  0  0  0  0  0  0  0  0  0  0
    0.4056  -14.3073    2.5568 C   0  0  0  0  0  0  0  0  0  0  0  0
   -0.9082  -14.5294    2.1393 C   0  0  0  0  0  0  0  0  0  0  0  0
   -1.9801  -13.9848    2.8554 C   0  0  0  0  0  0  0  0  0  0  0  0
   -1.7272  -13.2124    3.9914 C   0  0  0  0  0  0  0  0  0  0  0  0
   -0.4107  -12.9881    4.4076 C   0  0  0  0  0  0  0  0  0  0  0  0
    6.9018   -4.8343    4.0132 C   0  0  1  0  0  0  0  0  0  0  0  0
    8.2806   -4.9808    3.4403 C   0  0  0  0  0  0  0  0  0  0  0  0
    8.7827   -5.0283    2.1690 C   0  0  0  0  0  0  0  0  0  0  0  0
   10.2086   -5.1217    2.3068 C   0  0  0  0  0  0  0  0  0  0  0  0
   10.4597   -5.1183    3.6479 C   0  0  0  0  0  0  0  0  0  0  0  0
    9.2950   -5.0315    4.3434 O   0  0  0  0  0  0  0  0  0  0  0  0
    6.4413   -3.3633    4.2061 C   0  0  0  0  0  0  0  0  0  0  0  0
    5.0246   -0.7614    3.4527 C   0  0  0  0  0  0  0  0  0  0  0  0
    4.3860    0.4422    3.1390 C   0  0  0  0  0  0  0  0  0  0  0  0
    2.3333    3.5470    1.9088 H   0  0  0  0  0  0  0  0  0  0  0  0
    4.0440    3.1208    2.2319 H   0  0  0  0  0  0  0  0  0  0  0  0
    2.7814    2.7746    3.4629 H   0  0  0  0  0  0  0  0  0  0  0  0
    2.3062   -0.6875    0.6894 H   0  0  0  0  0  0  0  0  0  0  0  0
    3.4534   -2.8339    1.2602 H   0  0  0  0  0  0  0  0  0  0  0  0
    4.6559   -6.4576    0.9036 H   0  0  0  0  0  0  0  0  0  0  0  0
    3.5356   -6.5469    2.2899 H   0  0  0  0  0  0  0  0  0  0  0  0
    5.0735  -10.7694    2.3352 H   0  0  0  0  0  0  0  0  0  0  0  0
    3.6634  -10.7816    1.2792 H   0  0  0  0  0  0  0  0  0  0  0  0
    2.8710  -10.8100    4.0621 H   0  0  0  0  0  0  0  0  0  0  0  0
    2.1027  -12.6962    5.0808 H   0  0  0  0  0  0  0  0  0  0  0  0
    2.5826  -14.2581    4.3852 H   0  0  0  0  0  0  0  0  0  0  0  0
    1.2448  -14.7178    1.9911 H   0  0  0  0  0  0  0  0  0  0  0  0
   -1.0971  -15.1331    1.2475 H   0  0  0  0  0  0  0  0  0  0  0  0
   -3.0079  -14.1622    2.5280 H   0  0  0  0  0  0  0  0  0  0  0  0
   -2.5564  -12.7805    4.5582 H   0  0  0  0  0  0  0  0  0  0  0  0
   -0.2220  -12.3826    5.2992 H   0  0  0  0  0  0  0  0  0  0  0  0
    6.8609   -5.4108    4.9493 H   0  0  0  0  0  0  0  0  0  0  0  0
    8.2068   -5.0121    1.2466 H   0  0  0  0  0  0  0  0  0  0  0  0
   10.9453   -5.1903    1.5091 H   0  0  0  0  0  0  0  0  0  0  0  0
   11.3682   -5.1778    4.2411 H   0  0  0  0  0  0  0  0  0  0  0  0
    7.2717   -2.6540    4.0816 H   0  0  0  0  0  0  0  0  0  0  0  0
    6.0050   -3.1905    5.2042 H   0  0  0  0  0  0  0  0  0  0  0  0
    5.7869   -0.7544    4.2350 H   0  0  0  0  0  0  0  0  0  0  0  0
    4.6638    1.3477    3.6781 H   0  0  0  0  0  0  0  0  0  0  0  0
  1  2  1  0
  1 36  1  0
  1 37  1  0
  1 38  1  0
  2  3  1  0
  3  4  2  0
  3 35  1  0
  4  5  1  0
  4 39  1  0
  5  6  2  0
  5 40  1  0
  6  7  1  0
  6 34  1  0
  7  8  2  0
  7 33  1  0
  8  9  1  0
  9 10  1  0
  9 27  1  0
 10 11  2  0
 10 12  1  0
 12 13  1  0
 12 41  1  0
 12 42  1  0
 13 14  1  0
 14 15  2  0
 14 16  1  0
 16 17  1  0
 16 43  1  0
 16 44  1  0
 17 18  1  0
 17 45  1  0
 18 19  2  0
 18 20  1  0
 20 21  1  0
 20 46  1  0
 20 47  1  0
 21 22  2  0
 21 26  1  0
 22 23  1  0
 22 48  1  0
 23 24  2  0
 23 49  1  0
 24 25  1  0
 24 50  1  0
 25 26  2  0
 25 51  1  0
 26 52  1  0
 27 28  1  0
 27 33  1  0
 27 53  1  1
 28 29  2  0
 28 32  1  0
 29 30  1  0
 29 54  1  0
 30 31  2  0
 30 55  1  0
 31 32  1  0
 31 56  1  0
 33 57  1  0
 33 58  1  0
 34 35  2  0
 34 59  1  0
 35 60  1  0
M  END

