
     RDKit          3D

 42 44  0  0  0  0  0  0  0  0999 V2000
    1.0439    0.6190   -0.7646 C   0  0  0  0  0  0  0  0  0  0  0  0
    2.4039    0.1523   -0.2645 C   0  0  1  0  0  0  0  0  0  0  0  0
    2.6846    0.7033    1.0379 O   0  0  0  0  0  0  0  0  0  0  0  0
    3.3802    1.8725    1.1025 C   0  0  0  0  0  0  0  0  0  0  0  0
    3.8064    2.4370    0.1227 O   0  0  0  0  0  0  0  0  0  0  0  0
    3.5528    2.3497    2.4982 C   0  0  0  0  0  0  0  0  0  0  0  0
    4.3568    3.4809    2.7141 C   0  0  0  0  0  0  0  0  0  0  0  0
    4.5558    3.9761    3.9987 C   0  0  0  0  0  0  0  0  0  0  0  0
    3.9442    3.3469    5.0965 C   0  0  0  0  0  0  0  0  0  0  0  0
    4.1003    3.7832    6.3658 O   0  0  0  0  0  0  0  0  0  0  0  0
    3.1314    2.2192    4.8896 C   0  0  0  0  0  0  0  0  0  0  0  0
    2.9402    1.7291    3.6030 C   0  0  0  0  0  0  0  0  0  0  0  0
    2.4948   -1.3836   -0.2119 C   0  0  0  0  0  0  0  0  0  0  0  0
    2.1194   -2.0364   -1.1707 O   0  0  0  0  0  0  0  0  0  0  0  0
    3.0349   -1.8889    0.9349 N   0  0  0  0  0  0  0  0  0  0  0  0
    3.2893   -3.2324    1.2801 C   0  0  0  0  0  0  0  0  0  0  0  0
    3.0067   -4.3160    0.4283 C   0  0  0  0  0  0  0  0  0  0  0  0
    3.3027   -5.6128    0.8486 C   0  0  0  0  0  0  0  0  0  0  0  0
    3.8669   -5.8631    2.1010 C   0  0  0  0  0  0  0  0  0  0  0  0
    4.1309   -4.7784    2.9606 C   0  0  0  0  0  0  0  0  0  0  0  0
    3.8468   -3.4771    2.5450 C   0  0  0  0  0  0  0  0  0  0  0  0
    4.6668   -4.9633    4.2050 O   0  0  0  0  0  0  0  0  0  0  0  0
    4.6172   -6.3028    4.6733 C   0  0  0  0  0  0  0  0  0  0  0  0
    5.0301   -7.2638    3.5705 C   0  0  0  0  0  0  0  0  0  0  0  0
    4.1478   -7.1530    2.4667 O   0  0  0  0  0  0  0  0  0  0  0  0
    1.0506    1.7068   -0.9244 H   0  0  0  0  0  0  0  0  0  0  0  0
    0.2553    0.3652   -0.0394 H   0  0  0  0  0  0  0  0  0  0  0  0
    0.8213    0.1157   -1.7153 H   0  0  0  0  0  0  0  0  0  0  0  0
    3.1892    0.4981   -0.9555 H   0  0  0  0  0  0  0  0  0  0  0  0
    4.8233    3.9626    1.8527 H   0  0  0  0  0  0  0  0  0  0  0  0
    5.1869    4.8560    4.1583 H   0  0  0  0  0  0  0  0  0  0  0  0
    4.6744    4.5610    6.3782 H   0  0  0  0  0  0  0  0  0  0  0  0
    2.6587    1.7487    5.7538 H   0  0  0  0  0  0  0  0  0  0  0  0
    2.2992    0.8608    3.4442 H   0  0  0  0  0  0  0  0  0  0  0  0
    3.2716   -1.1931    1.6338 H   0  0  0  0  0  0  0  0  0  0  0  0
    2.5686   -4.1294   -0.5488 H   0  0  0  0  0  0  0  0  0  0  0  0
    3.1022   -6.4666    0.1977 H   0  0  0  0  0  0  0  0  0  0  0  0
    4.0679   -2.6610    3.2373 H   0  0  0  0  0  0  0  0  0  0  0  0
    3.5937   -6.5458    5.0164 H   0  0  0  0  0  0  0  0  0  0  0  0
    5.3002   -6.3668    5.5331 H   0  0  0  0  0  0  0  0  0  0  0  0
    4.9839   -8.3068    3.9172 H   0  0  0  0  0  0  0  0  0  0  0  0
    6.0674   -7.0435    3.2530 H   0  0  0  0  0  0  0  0  0  0  0  0
  1  2  1  0
  1 26  1  0
  1 27  1  0
  1 28  1  0
  2  3  1  0
  2 13  1  0
  2 29  1  6
  3  4  1  0
  4  5  2  0
  4  6  1  0
  6  7  2  0
  6 12  1  0
  7  8  1  0
  7 30  1  0
  8  9  2  0
  8 31  1  0
  9 10  1  0
  9 11  1  0
 10 32  1  0
 11 12  2  0
 11 33  1  0
 12 34  1  0
 13 14  2  0
 13 15  1  0
 15 16  1  0
 15 35  1  0
 16 17  2  0
 16 21  1  0
 17 18  1  0
 17 36  1  0
 18 19  2  0
 18 37  1  0
 19 20  1  0
 19 25  1  0
 20 21  2  0
 20 22  1  0
 21 38  1  0
 22 23  1  0
 23 24  1  0
 23 39  1  0
 23 40  1  0
 24 25  1  0
 24 41  1  0
 24 42  1  0
M  END

