
     RDKit          3D

 53 57  0  0  0  0  0  0  0  0999 V2000
    1.7389   -0.9708   -1.4196 C   0  0  0  0  0  0  0  0  0  0  0  0
    3.0031   -0.5477   -0.7210 C   0  0  0  0  0  0  0  0  0  0  0  0
    2.9910    0.6087    0.1244 C   0  0  0  0  0  0  0  0  0  0  0  0
    4.1349    1.0160    0.7740 C   0  0  0  0  0  0  0  0  0  0  0  0
    4.2829    2.1908    1.6818 C   0  0  0  0  0  0  0  0  0  0  0  0
    5.2395    0.2422    0.5447 N   0  0  0  0  0  0  0  0  0  0  0  0
    6.4710    0.4194    1.0527 N   0  0  0  0  0  0  0  0  0  0  0  0
    7.1414   -0.5998    0.5123 C   0  0  0  0  0  0  0  0  0  0  0  0
    8.6029   -0.8204    0.8020 C   0  0  0  0  0  0  0  0  0  0  0  0
    9.2520   -0.0799    1.5216 O   0  0  0  0  0  0  0  0  0  0  0  0
    9.0970   -1.9210    0.1761 N   0  0  0  0  0  0  0  0  0  0  0  0
   10.4883   -2.3474    0.3301 C   0  0  2  0  0  0  0  0  0  0  0  0
   11.4452   -1.5838   -0.6181 C   0  0  0  0  0  0  0  0  0  0  0  0
   11.3603   -2.0880   -2.0649 C   0  0  0  0  0  0  0  0  0  0  0  0
   11.7951   -3.5616   -2.1895 C   0  0  0  0  0  0  0  0  0  0  0  0
   11.1874   -4.3505   -1.0714 C   0  0  0  0  0  0  0  0  0  0  0  0
   10.6122   -3.8246    0.0788 C   0  0  0  0  0  0  0  0  0  0  0  0
   10.2150   -4.9614    0.8272 C   0  0  0  0  0  0  0  0  0  0  0  0
   10.5246   -6.0893    0.1968 N   0  0  0  0  0  0  0  0  0  0  0  0
   11.1119   -5.7071   -0.9576 N   0  0  0  0  0  0  0  0  0  0  0  0
   11.6408   -6.7168   -1.8606 C   0  0  0  0  0  0  0  0  0  0  0  0
   13.1177   -7.0158   -1.6641 C   0  0  0  0  0  0  0  0  0  0  0  0
   13.6162   -7.3254   -0.3881 C   0  0  0  0  0  0  0  0  0  0  0  0
   14.9683   -7.6250   -0.2118 C   0  0  0  0  0  0  0  0  0  0  0  0
   15.8406   -7.6235   -1.3066 C   0  0  0  0  0  0  0  0  0  0  0  0
   15.3525   -7.3176   -2.5790 C   0  0  0  0  0  0  0  0  0  0  0  0
   13.9982   -7.0128   -2.7541 C   0  0  0  0  0  0  0  0  0  0  0  0
    6.4291   -1.4137   -0.3036 N   0  0  0  0  0  0  0  0  0  0  0  0
    5.2109   -0.8849   -0.2905 C   0  0  0  0  0  0  0  0  0  0  0  0
    4.0913   -1.2705   -0.9180 N   0  0  0  0  0  0  0  0  0  0  0  0
    1.3612   -0.1657   -2.0716 H   0  0  0  0  0  0  0  0  0  0  0  0
    0.9435   -1.1967   -0.6900 H   0  0  0  0  0  0  0  0  0  0  0  0
    1.9322   -1.8639   -2.0270 H   0  0  0  0  0  0  0  0  0  0  0  0
    2.0701    1.1776    0.2600 H   0  0  0  0  0  0  0  0  0  0  0  0
    3.3305    2.7267    1.7835 H   0  0  0  0  0  0  0  0  0  0  0  0
    5.0542    2.8765    1.2964 H   0  0  0  0  0  0  0  0  0  0  0  0
    4.6320    1.8646    2.6745 H   0  0  0  0  0  0  0  0  0  0  0  0
    8.4539   -2.4706   -0.3865 H   0  0  0  0  0  0  0  0  0  0  0  0
   10.7691   -2.0974    1.3657 H   0  0  0  0  0  0  0  0  0  0  0  0
   12.4761   -1.7088   -0.2417 H   0  0  0  0  0  0  0  0  0  0  0  0
   11.2148   -0.5098   -0.5595 H   0  0  0  0  0  0  0  0  0  0  0  0
   11.9806   -1.4619   -2.7255 H   0  0  0  0  0  0  0  0  0  0  0  0
   10.3202   -1.9826   -2.4202 H   0  0  0  0  0  0  0  0  0  0  0  0
   12.8976   -3.6372   -2.1437 H   0  0  0  0  0  0  0  0  0  0  0  0
   11.5031   -3.9688   -3.1729 H   0  0  0  0  0  0  0  0  0  0  0  0
    9.7149   -4.9988    1.7954 H   0  0  0  0  0  0  0  0  0  0  0  0
   11.4563   -6.3963   -2.8971 H   0  0  0  0  0  0  0  0  0  0  0  0
   11.0384   -7.6197   -1.6801 H   0  0  0  0  0  0  0  0  0  0  0  0
   12.9332   -7.3261    0.4652 H   0  0  0  0  0  0  0  0  0  0  0  0
   15.3446   -7.8637    0.7864 H   0  0  0  0  0  0  0  0  0  0  0  0
   16.8986   -7.8591   -1.1662 H   0  0  0  0  0  0  0  0  0  0  0  0
   16.0269   -7.3110   -3.4393 H   0  0  0  0  0  0  0  0  0  0  0  0
   13.6225   -6.7705   -3.7530 H   0  0  0  0  0  0  0  0  0  0  0  0
  1  2  1  0
  1 31  1  0
  1 32  1  0
  1 33  1  0
  2  3  1  0
  2 30  2  0
  3  4  2  0
  3 34  1  0
  4  5  1  0
  4  6  1  0
  5 35  1  0
  5 36  1  0
  5 37  1  0
  6  7  1  0
  6 29  1  0
  7  8  2  0
  8  9  1  0
  8 28  1  0
  9 10  2  0
  9 11  1  0
 11 12  1  0
 11 38  1  0
 12 13  1  0
 12 17  1  0
 12 39  1  1
 13 14  1  0
 13 40  1  0
 13 41  1  0
 14 15  1  0
 14 42  1  0
 14 43  1  0
 15 16  1  0
 15 44  1  0
 15 45  1  0
 16 17  2  0
 16 20  1  0
 17 18  1  0
 18 19  2  0
 18 46  1  0
 19 20  1  0
 20 21  1  0
 21 22  1  0
 21 47  1  0
 21 48  1  0
 22 23  2  0
 22 27  1  0
 23 24  1  0
 23 49  1  0
 24 25  2  0
 24 50  1  0
 25 26  1  0
 25 51  1  0
 26 27  2  0
 26 52  1  0
 27 53  1  0
 28 29  2  0
 29 30  1  0
M  END

