
     RDKit          3D

 84 93  0  0  0  0  0  0  0  0999 V2000
    1.1429   -0.5951    1.1076 N   0  0  0  0  0  0  0  0  0  0  0  0
    2.2976   -0.6318    1.2181 C   0  0  0  0  0  0  0  0  0  0  0  0
    3.7288   -0.6653    1.3268 C   0  0  0  0  0  0  0  0  0  0  0  0
    4.5081   -0.2139    0.2692 C   0  0  0  0  0  0  0  0  0  0  0  0
    5.9190   -0.2346    0.3475 C   0  0  0  0  0  0  0  0  0  0  0  0
    6.6568    0.2202   -0.7156 N   0  0  0  0  0  0  0  0  0  0  0  0
    7.9503    0.1706   -0.5737 C   0  0  0  0  0  0  0  0  0  0  0  0
    8.5882   -0.3317    0.6269 C   0  0  0  0  0  0  0  0  0  0  0  0
    7.9142   -0.7681    1.6524 N   0  0  0  0  0  0  0  0  0  0  0  0
    6.5485   -0.7280    1.5331 C   0  0  0  0  0  0  0  0  0  0  0  0
    5.7473   -1.1851    2.6040 C   0  0  0  0  0  0  0  0  0  0  0  0
    4.3610   -1.1609    2.5179 C   0  0  0  0  0  0  0  0  0  0  0  0
    3.5739   -1.6324    3.6221 C   0  0  0  0  0  0  0  0  0  0  0  0
    2.9588   -2.0190    4.5272 N   0  0  0  0  0  0  0  0  0  0  0  0
   10.1066   -0.2842    0.5460 C   0  0  2  0  0  0  0  0  0  0  0  0
   10.4397    1.1774    0.2449 C   0  0  0  0  0  0  0  0  0  0  0  0
   11.2494    2.0260    0.9972 C   0  0  0  0  0  0  0  0  0  0  0  0
   11.4614    3.3426    0.5774 C   0  0  0  0  0  0  0  0  0  0  0  0
   10.8460    3.8384   -0.5882 C   0  0  0  0  0  0  0  0  0  0  0  0
   11.0537    5.1743   -1.0036 N   0  0  0  0  0  0  0  0  0  0  0  0
   11.1772    5.4842   -2.3861 C   0  0  0  0  0  0  0  0  0  0  0  0
   10.5158    6.6010   -2.9280 C   0  0  0  0  0  0  0  0  0  0  0  0
   10.6481    6.9107   -4.2826 C   0  0  0  0  0  0  0  0  0  0  0  0
   11.4259    6.1079   -5.1231 C   0  0  0  0  0  0  0  0  0  0  0  0
   12.0803    4.9928   -4.5897 C   0  0  0  0  0  0  0  0  0  0  0  0
   11.9672    4.6854   -3.2327 C   0  0  0  0  0  0  0  0  0  0  0  0
   11.1460    6.2189   -0.0419 C   0  0  0  0  0  0  0  0  0  0  0  0
   10.2377    6.2896    1.0297 C   0  0  0  0  0  0  0  0  0  0  0  0
   10.3361    7.3153    1.9713 C   0  0  0  0  0  0  0  0  0  0  0  0
   11.3263    8.2961    1.8532 C   0  0  0  0  0  0  0  0  0  0  0  0
   12.2251    8.2350    0.7835 C   0  0  0  0  0  0  0  0  0  0  0  0
   12.1444    7.2030   -0.1531 C   0  0  0  0  0  0  0  0  0  0  0  0
   10.0114    2.9790   -1.3365 C   0  0  0  0  0  0  0  0  0  0  0  0
    9.8258    1.6646   -0.9253 C   0  0  0  0  0  0  0  0  0  0  0  0
    8.9538    0.6194   -1.6251 C   0  0  1  0  0  0  0  0  0  0  0  0
    9.8423   -0.6006   -1.8719 C   0  0  0  0  0  0  0  0  0  0  0  0
   10.0736   -1.2382   -3.0892 C   0  0  0  0  0  0  0  0  0  0  0  0
   10.9136   -2.3545   -3.1442 C   0  0  0  0  0  0  0  0  0  0  0  0
   11.5430   -2.8445   -1.9838 C   0  0  0  0  0  0  0  0  0  0  0  0
   12.3991   -3.9685   -2.0456 N   0  0  0  0  0  0  0  0  0  0  0  0
   12.3963   -4.9292   -0.9963 C   0  0  0  0  0  0  0  0  0  0  0  0
   11.1849   -5.3945   -0.4536 C   0  0  0  0  0  0  0  0  0  0  0  0
   11.1890   -6.3328    0.5800 C   0  0  0  0  0  0  0  0  0  0  0  0
   12.3950   -6.8368    1.0774 C   0  0  0  0  0  0  0  0  0  0  0  0
   13.6015   -6.3848    0.5332 C   0  0  0  0  0  0  0  0  0  0  0  0
   13.6069   -5.4338   -0.4887 C   0  0  0  0  0  0  0  0  0  0  0  0
   13.2686   -4.1488   -3.1567 C   0  0  0  0  0  0  0  0  0  0  0  0
   14.0092   -3.0690   -3.6709 C   0  0  0  0  0  0  0  0  0  0  0  0
   14.8581   -3.2525   -4.7636 C   0  0  0  0  0  0  0  0  0  0  0  0
   14.9984   -4.5140   -5.3512 C   0  0  0  0  0  0  0  0  0  0  0  0
   14.2715   -5.5922   -4.8366 C   0  0  0  0  0  0  0  0  0  0  0  0
   13.4075   -5.4141   -3.7547 C   0  0  0  0  0  0  0  0  0  0  0  0
   11.3050   -2.1938   -0.7527 C   0  0  0  0  0  0  0  0  0  0  0  0
   10.4615   -1.0905   -0.7057 C   0  0  0  0  0  0  0  0  0  0  0  0
    4.0482    0.1664   -0.6439 H   0  0  0  0  0  0  0  0  0  0  0  0
    6.2471   -1.5573    3.4992 H   0  0  0  0  0  0  0  0  0  0  0  0
   10.5696   -0.6644    1.4638 H   0  0  0  0  0  0  0  0  0  0  0  0
   11.7359    1.6637    1.9068 H   0  0  0  0  0  0  0  0  0  0  0  0
   12.1125    3.9976    1.1582 H   0  0  0  0  0  0  0  0  0  0  0  0
    9.8975    7.2247   -2.2796 H   0  0  0  0  0  0  0  0  0  0  0  0
   10.1266    7.7824   -4.6865 H   0  0  0  0  0  0  0  0  0  0  0  0
   11.5222    6.3497   -6.1841 H   0  0  0  0  0  0  0  0  0  0  0  0
   12.6989    4.3613   -5.2328 H   0  0  0  0  0  0  0  0  0  0  0  0
   12.4935    3.8226   -2.8198 H   0  0  0  0  0  0  0  0  0  0  0  0
    9.4529    5.5360    1.1196 H   0  0  0  0  0  0  0  0  0  0  0  0
    9.6214    7.3552    2.7975 H   0  0  0  0  0  0  0  0  0  0  0  0
   11.3960    9.1016    2.5879 H   0  0  0  0  0  0  0  0  0  0  0  0
   13.0074    8.9917    0.6815 H   0  0  0  0  0  0  0  0  0  0  0  0
   12.8562    7.1538   -0.9794 H   0  0  0  0  0  0  0  0  0  0  0  0
    9.5153    3.3519   -2.2343 H   0  0  0  0  0  0  0  0  0  0  0  0
    8.4527    0.9920   -2.5259 H   0  0  0  0  0  0  0  0  0  0  0  0
    9.5919   -0.8786   -4.0023 H   0  0  0  0  0  0  0  0  0  0  0  0
   11.0833   -2.8576   -4.0973 H   0  0  0  0  0  0  0  0  0  0  0  0
   10.2395   -5.0172   -0.8482 H   0  0  0  0  0  0  0  0  0  0  0  0
   10.2381   -6.6832    0.9899 H   0  0  0  0  0  0  0  0  0  0  0  0
   12.3945   -7.5764    1.8815 H   0  0  0  0  0  0  0  0  0  0  0  0
   14.5518   -6.7663    0.9156 H   0  0  0  0  0  0  0  0  0  0  0  0
   14.5522   -5.0760   -0.9013 H   0  0  0  0  0  0  0  0  0  0  0  0
   13.9161   -2.0849   -3.2076 H   0  0  0  0  0  0  0  0  0  0  0  0
   15.4265   -2.4022   -5.1498 H   0  0  0  0  0  0  0  0  0  0  0  0
   15.6689   -4.6556   -6.2020 H   0  0  0  0  0  0  0  0  0  0  0  0
   14.3668   -6.5828   -5.2889 H   0  0  0  0  0  0  0  0  0  0  0  0
   12.8339   -6.2573   -3.3653 H   0  0  0  0  0  0  0  0  0  0  0  0
   11.7883   -2.5586    0.1553 H   0  0  0  0  0  0  0  0  0  0  0  0
  1  2  3  0
  2  3  1  0
  3  4  2  0
  3 12  1  0
  4  5  1  0
  4 55  1  0
  5  6  2  0
  5 10  1  0
  6  7  1  0
  7  8  2  0
  7 35  1  0
  8  9  1  0
  8 15  1  0
  9 10  2  0
 10 11  1  0
 11 12  2  0
 11 56  1  0
 12 13  1  0
 13 14  3  0
 15 16  1  0
 15 54  1  0
 15 57  1  1
 16 17  1  0
 16 34  2  0
 17 18  2  0
 17 58  1  0
 18 19  1  0
 18 59  1  0
 19 20  1  0
 19 33  2  0
 20 21  1  0
 20 27  1  0
 21 22  2  0
 21 26  1  0
 22 23  1  0
 22 60  1  0
 23 24  2  0
 23 61  1  0
 24 25  1  0
 24 62  1  0
 25 26  2  0
 25 63  1  0
 26 64  1  0
 27 28  2  0
 27 32  1  0
 28 29  1  0
 28 65  1  0
 29 30  2  0
 29 66  1  0
 30 31  1  0
 30 67  1  0
 31 32  2  0
 31 68  1  0
 32 69  1  0
 33 34  1  0
 33 70  1  0
 34 35  1  0
 35 36  1  0
 35 71  1  6
 36 37  2  0
 36 54  1  0
 37 38  1  0
 37 72  1  0
 38 39  2  0
 38 73  1  0
 39 40  1  0
 39 53  1  0
 40 41  1  0
 40 47  1  0
 41 42  2  0
 41 46  1  0
 42 43  1  0
 42 74  1  0
 43 44  2  0
 43 75  1  0
 44 45  1  0
 44 76  1  0
 45 46  2  0
 45 77  1  0
 46 78  1  0
 47 48  2  0
 47 52  1  0
 48 49  1  0
 48 79  1  0
 49 50  2  0
 49 80  1  0
 50 51  1  0
 50 81  1  0
 51 52  2  0
 51 82  1  0
 52 83  1  0
 53 54  2  0
 53 84  1  0
M  END

