
     RDKit          3D

 65 67  0  0  0  0  0  0  0  0999 V2000
    3.4084   -3.5733    2.9852 C   0  0  0  0  0  0  0  0  0  0  0  0
    3.9858   -2.5972    1.9591 C   0  0  0  0  0  0  0  0  0  0  0  0
    4.7582   -1.4325    2.5866 C   0  0  0  0  0  0  0  0  0  0  0  0
    5.3386   -0.4499    1.5655 C   0  0  0  0  0  0  0  0  0  0  0  0
    6.1093    0.7163    2.1930 C   0  0  0  0  0  0  0  0  0  0  0  0
    6.6826    1.6945    1.1616 C   0  0  0  0  0  0  0  0  0  0  0  0
    7.3825    2.9363    1.7534 C   0  0  1  0  0  0  0  0  0  0  0  0
    8.6717    2.6125    2.5416 C   0  0  0  0  0  0  0  0  0  0  0  0
    9.8470    2.2186    1.6334 C   0  0  0  0  0  0  0  0  0  0  0  0
   10.1652    3.2855    0.5624 C   0  0  2  0  0  0  0  0  0  0  0  0
   10.8168    4.5652    1.1258 C   0  0  0  0  0  0  0  0  0  0  0  0
   12.2024    4.3465    1.7662 C   0  0  0  0  0  0  0  0  0  0  0  0
   12.8156    5.6333    2.2765 C   0  0  0  0  0  0  0  0  0  0  0  0
   13.7532    6.4116    1.5592 C   0  0  0  0  0  0  0  0  0  0  0  0
   14.3093    5.9741    0.2421 C   0  0  0  0  0  0  0  0  0  0  0  0
   14.0612    6.7391   -0.9092 C   0  0  0  0  0  0  0  0  0  0  0  0
   14.6116    6.3591   -2.1304 C   0  0  0  0  0  0  0  0  0  0  0  0
   14.3728    7.0759   -3.2284 F   0  0  0  0  0  0  0  0  0  0  0  0
   15.4199    5.2247   -2.2371 C   0  0  0  0  0  0  0  0  0  0  0  0
   15.9428    4.8693   -3.4064 F   0  0  0  0  0  0  0  0  0  0  0  0
   15.6696    4.4732   -1.0850 C   0  0  0  0  0  0  0  0  0  0  0  0
   16.4510    3.3978   -1.1850 F   0  0  0  0  0  0  0  0  0  0  0  0
   15.1261    4.8350    0.1436 C   0  0  0  0  0  0  0  0  0  0  0  0
   14.1853    7.6433    2.0879 C   0  0  0  0  0  0  0  0  0  0  0  0
   13.7202    8.1075    3.3116 C   0  0  0  0  0  0  0  0  0  0  0  0
   12.7972    7.3604    4.0597 C   0  0  0  0  0  0  0  0  0  0  0  0
   12.3502    7.9380    5.3850 C   0  0  0  0  0  0  0  0  0  0  0  0
   12.7685    8.9954    5.7792 O   0  0  0  0  0  0  0  0  0  0  0  0
   11.4702    7.2329    6.1123 O   0  0  0  0  0  0  0  0  0  0  0  0
   12.3772    6.1493    3.5017 C   0  0  0  0  0  0  0  0  0  0  0  0
   11.4622    5.3971    4.1840 F   0  0  0  0  0  0  0  0  0  0  0  0
    8.8789    3.6066   -0.2298 C   0  0  0  0  0  0  0  0  0  0  0  0
    7.6975    3.9952    0.6739 C   0  0  0  0  0  0  0  0  0  0  0  0
    2.8606   -4.3963    2.4989 H   0  0  0  0  0  0  0  0  0  0  0  0
    2.7079   -3.0670    3.6705 H   0  0  0  0  0  0  0  0  0  0  0  0
    4.2040   -4.0229    3.6030 H   0  0  0  0  0  0  0  0  0  0  0  0
    3.1689   -2.1944    1.3327 H   0  0  0  0  0  0  0  0  0  0  0  0
    4.6521   -3.1422    1.2656 H   0  0  0  0  0  0  0  0  0  0  0  0
    5.5766   -1.8344    3.2133 H   0  0  0  0  0  0  0  0  0  0  0  0
    4.0924   -0.8865    3.2810 H   0  0  0  0  0  0  0  0  0  0  0  0
    4.5199   -0.0505    0.9381 H   0  0  0  0  0  0  0  0  0  0  0  0
    6.0051   -0.9962    0.8720 H   0  0  0  0  0  0  0  0  0  0  0  0
    6.9201    0.3091    2.8229 H   0  0  0  0  0  0  0  0  0  0  0  0
    5.4411    1.2652    2.8827 H   0  0  0  0  0  0  0  0  0  0  0  0
    5.8563    2.0450    0.5165 H   0  0  0  0  0  0  0  0  0  0  0  0
    7.3661    1.1465    0.4889 H   0  0  0  0  0  0  0  0  0  0  0  0
    6.6651    3.3903    2.4613 H   0  0  0  0  0  0  0  0  0  0  0  0
    8.4852    1.8121    3.2759 H   0  0  0  0  0  0  0  0  0  0  0  0
    8.9520    3.4987    3.1377 H   0  0  0  0  0  0  0  0  0  0  0  0
    9.6112    1.2722    1.1168 H   0  0  0  0  0  0  0  0  0  0  0  0
   10.7369    2.0009    2.2470 H   0  0  0  0  0  0  0  0  0  0  0  0
   10.8929    2.8460   -0.1446 H   0  0  0  0  0  0  0  0  0  0  0  0
   10.1548    5.0453    1.8643 H   0  0  0  0  0  0  0  0  0  0  0  0
   10.9258    5.2916    0.3018 H   0  0  0  0  0  0  0  0  0  0  0  0
   12.8688    3.8793    1.0288 H   0  0  0  0  0  0  0  0  0  0  0  0
   12.1145    3.6414    2.6061 H   0  0  0  0  0  0  0  0  0  0  0  0
   13.4332    7.6308   -0.8755 H   0  0  0  0  0  0  0  0  0  0  0  0
   15.3675    4.2273    1.0171 H   0  0  0  0  0  0  0  0  0  0  0  0
   14.9134    8.2330    1.5272 H   0  0  0  0  0  0  0  0  0  0  0  0
   14.0587    9.0560    3.7318 H   0  0  0  0  0  0  0  0  0  0  0  0
   11.2261    6.4089    5.6626 H   0  0  0  0  0  0  0  0  0  0  0  0
    8.6056    2.7212   -0.8291 H   0  0  0  0  0  0  0  0  0  0  0  0
    9.0760    4.4140   -0.9561 H   0  0  0  0  0  0  0  0  0  0  0  0
    6.8019    4.1786    0.0560 H   0  0  0  0  0  0  0  0  0  0  0  0
    7.9196    4.9545    1.1733 H   0  0  0  0  0  0  0  0  0  0  0  0
  1  2  1  0
  1 34  1  0
  1 35  1  0
  1 36  1  0
  2  3  1  0
  2 37  1  0
  2 38  1  0
  3  4  1  0
  3 39  1  0
  3 40  1  0
  4  5  1  0
  4 41  1  0
  4 42  1  0
  5  6  1  0
  5 43  1  0
  5 44  1  0
  6  7  1  0
  6 45  1  0
  6 46  1  0
  7  8  1  0
  7 33  1  0
  7 47  1  1
  8  9  1  0
  8 48  1  0
  8 49  1  0
  9 10  1  0
  9 50  1  0
  9 51  1  0
 10 11  1  0
 10 32  1  0
 10 52  1  6
 11 12  1  0
 11 53  1  0
 11 54  1  0
 12 13  1  0
 12 55  1  0
 12 56  1  0
 13 14  1  0
 13 30  2  0
 14 15  1  0
 14 24  2  0
 15 16  2  0
 15 23  1  0
 16 17  1  0
 16 57  1  0
 17 18  1  0
 17 19  2  0
 19 20  1  0
 19 21  1  0
 21 22  1  0
 21 23  2  0
 23 58  1  0
 24 25  1  0
 24 59  1  0
 25 26  2  0
 25 60  1  0
 26 27  1  0
 26 30  1  0
 27 28  2  0
 27 29  1  0
 29 61  1  0
 30 31  1  0
 32 33  1  0
 32 62  1  0
 32 63  1  0
 33 64  1  0
 33 65  1  0
M  END

