
     RDKit          3D

 50 53  0  0  0  0  0  0  0  0999 V2000
    6.3841    2.1147   -1.6324 C   0  0  0  0  0  0  0  0  0  0  0  0
    5.3489    1.0879   -1.2366 C   0  0  0  0  0  0  0  0  0  0  0  0
    3.9928    1.4493   -1.2697 C   0  0  0  0  0  0  0  0  0  0  0  0
    2.9860    0.5460   -0.9329 C   0  0  0  0  0  0  0  0  0  0  0  0
    3.3224   -0.7542   -0.5583 C   0  0  0  0  0  0  0  0  0  0  0  0
    4.6651   -1.1496   -0.5149 C   0  0  0  0  0  0  0  0  0  0  0  0
    4.9752   -2.5057    0.0903 C   0  0  0  0  0  0  0  0  0  0  0  0
    5.5539   -2.5715    1.1638 O   0  0  0  0  0  0  0  0  0  0  0  0
    4.4487   -3.6066   -0.5456 N   0  0  0  0  0  0  0  0  0  0  0  0
    4.1450   -3.6616   -1.9725 C   0  0  0  0  0  0  0  0  0  0  0  0
    5.1434   -4.5725   -2.6991 C   0  0  0  0  0  0  0  0  0  0  0  0
    5.1961   -5.9627   -2.0547 C   0  0  0  0  0  0  0  0  0  0  0  0
    5.4375   -5.8977   -0.5457 C   0  0  1  0  0  0  0  0  0  0  0  0
    5.2792   -6.8840   -0.0846 H   0  0  0  0  0  0  0  0  0  0  0  0
    6.8143   -5.5237   -0.3449 O   0  0  0  0  0  0  0  0  0  0  0  0
    7.4050   -5.8214    0.8277 C   0  0  0  0  0  0  0  0  0  0  0  0
    8.7567   -5.4484    0.9856 C   0  0  0  0  0  0  0  0  0  0  0  0
    9.3901   -5.7623    2.1782 C   0  0  0  0  0  0  0  0  0  0  0  0
    8.6629   -6.4346    3.1722 C   0  0  0  0  0  0  0  0  0  0  0  0
    9.4735   -6.8920    4.8323 Br  0  0  0  0  0  0  0  0  0  0  0  0
    7.3320   -6.7610    2.9229 C   0  0  0  0  0  0  0  0  0  0  0  0
    6.7237   -6.4572    1.7717 N   0  0  0  0  0  0  0  0  0  0  0  0
    4.4878   -4.8982    0.1266 C   0  0  0  0  0  0  0  0  0  0  0  0
    5.6858   -0.2331   -0.8525 C   0  0  0  0  0  0  0  0  0  0  0  0
    7.1024   -0.7022   -0.8356 C   0  0  0  0  0  0  0  0  0  0  0  0
    7.3462   -1.9039   -1.3833 N   0  0  0  0  0  0  0  0  0  0  0  0
    8.6016   -2.3455   -1.3609 C   0  0  0  0  0  0  0  0  0  0  0  0
    9.6416   -1.6006   -0.8023 C   0  0  0  0  0  0  0  0  0  0  0  0
    9.2874   -0.3596   -0.2708 C   0  0  0  0  0  0  0  0  0  0  0  0
    8.0340    0.0909   -0.2884 N   0  0  0  0  0  0  0  0  0  0  0  0
    5.9001    2.9971   -2.0762 H   0  0  0  0  0  0  0  0  0  0  0  0
    7.1022    1.7145   -2.3649 H   0  0  0  0  0  0  0  0  0  0  0  0
    6.9771    2.4352   -0.7636 H   0  0  0  0  0  0  0  0  0  0  0  0
    3.7270    2.4653   -1.5739 H   0  0  0  0  0  0  0  0  0  0  0  0
    1.9383    0.8563   -0.9608 H   0  0  0  0  0  0  0  0  0  0  0  0
    2.5439   -1.4683   -0.2793 H   0  0  0  0  0  0  0  0  0  0  0  0
    4.1785   -2.6482   -2.3893 H   0  0  0  0  0  0  0  0  0  0  0  0
    3.1138   -4.0428   -2.1087 H   0  0  0  0  0  0  0  0  0  0  0  0
    6.1339   -4.0944   -2.6528 H   0  0  0  0  0  0  0  0  0  0  0  0
    4.8627   -4.6552   -3.7624 H   0  0  0  0  0  0  0  0  0  0  0  0
    5.9731   -6.5892   -2.5209 H   0  0  0  0  0  0  0  0  0  0  0  0
    4.2328   -6.4804   -2.2108 H   0  0  0  0  0  0  0  0  0  0  0  0
    9.2748   -4.9268    0.1809 H   0  0  0  0  0  0  0  0  0  0  0  0
   10.4347   -5.4919    2.3436 H   0  0  0  0  0  0  0  0  0  0  0  0
    6.7369   -7.2837    3.6787 H   0  0  0  0  0  0  0  0  0  0  0  0
    4.7777   -4.7387    1.1707 H   0  0  0  0  0  0  0  0  0  0  0  0
    3.4734   -5.3405    0.1109 H   0  0  0  0  0  0  0  0  0  0  0  0
    8.7831   -3.3296   -1.8089 H   0  0  0  0  0  0  0  0  0  0  0  0
   10.6709   -1.9635   -0.7867 H   0  0  0  0  0  0  0  0  0  0  0  0
   10.0405    0.2950    0.1846 H   0  0  0  0  0  0  0  0  0  0  0  0
  1  2  1  0
  1 31  1  0
  1 32  1  0
  1 33  1  0
  2  3  2  0
  2 24  1  0
  3  4  1  0
  3 34  1  0
  4  5  2  0
  4 35  1  0
  5  6  1  0
  5 36  1  0
  6  7  1  0
  6 24  2  0
  7  8  2  0
  7  9  1  0
  9 10  1  0
  9 23  1  0
 10 11  1  0
 10 37  1  0
 10 38  1  0
 11 12  1  0
 11 39  1  0
 11 40  1  0
 12 13  1  0
 12 41  1  0
 12 42  1  0
 13 14  1  1
 13 15  1  0
 13 23  1  0
 15 16  1  0
 16 17  2  0
 16 22  1  0
 17 18  1  0
 17 43  1  0
 18 19  2  0
 18 44  1  0
 19 20  1  0
 19 21  1  0
 21 22  2  0
 21 45  1  0
 23 46  1  0
 23 47  1  0
 24 25  1  0
 25 26  2  0
 25 30  1  0
 26 27  1  0
 27 28  2  0
 27 48  1  0
 28 29  1  0
 28 49  1  0
 29 30  2  0
 29 50  1  0
M  END

