
     RDKit          3D

 45 47  0  0  0  0  0  0  0  0999 V2000
    1.9455    1.4560   -0.9055 C   0  0  0  0  0  0  0  0  0  0  0  0
    2.4322    0.2779   -0.1178 C   0  0  0  0  0  0  0  0  0  0  0  0
    1.8760   -0.2939    1.0050 C   0  0  0  0  0  0  0  0  0  0  0  0
    2.6075   -1.4088    1.5011 C   0  0  0  0  0  0  0  0  0  0  0  0
    3.7291   -1.6973    0.7581 C   0  0  0  0  0  0  0  0  0  0  0  0
    4.6708   -2.8101    1.0617 C   0  0  0  0  0  0  0  0  0  0  0  0
    4.5082   -3.5197    2.0470 O   0  0  0  0  0  0  0  0  0  0  0  0
    5.7100   -3.0001    0.1942 N   0  0  0  0  0  0  0  0  0  0  0  0
    6.7166   -4.0230    0.4216 C   0  0  0  0  0  0  0  0  0  0  0  0
    6.1934   -5.4452    0.1656 C   0  0  0  0  0  0  0  0  0  0  0  0
    7.2842   -6.4632    0.2704 C   0  0  0  0  0  0  0  0  0  0  0  0
    8.5680   -6.2109    0.2019 N   0  0  0  0  0  0  0  0  0  0  0  0
    9.2481   -7.3988    0.3105 N   0  0  0  0  0  0  0  0  0  0  0  0
    8.3520   -8.3462    0.4446 C   0  0  0  0  0  0  0  0  0  0  0  0
    8.6564  -10.0718    0.6200 S   0  0  0  0  0  0  0  0  0  0  0  0
   10.5006  -10.0059    0.7616 C   0  0  0  0  0  0  0  0  0  0  0  0
   11.0409  -11.4087    0.8468 C   0  0  0  0  0  0  0  0  0  0  0  0
   11.3877  -12.1154   -0.3154 C   0  0  0  0  0  0  0  0  0  0  0  0
   11.8779  -13.4203   -0.2302 C   0  0  0  0  0  0  0  0  0  0  0  0
   12.0268  -14.0445    1.0109 C   0  0  0  0  0  0  0  0  0  0  0  0
   11.6762  -13.3405    2.1662 C   0  0  0  0  0  0  0  0  0  0  0  0
   11.8579  -14.1040    3.7303 Cl  0  0  0  0  0  0  0  0  0  0  0  0
   11.1849  -12.0350    2.0942 C   0  0  0  0  0  0  0  0  0  0  0  0
    7.0813   -7.8207    0.4335 N   0  0  0  0  0  0  0  0  0  0  0  0
    5.8332   -8.5494    0.5514 C   0  0  0  0  0  0  0  0  0  0  0  0
    3.8853   -0.5708   -0.5709 S   0  0  0  0  0  0  0  0  0  0  0  0
    1.0215    1.8486   -0.4564 H   0  0  0  0  0  0  0  0  0  0  0  0
    1.7258    1.1889   -1.9526 H   0  0  0  0  0  0  0  0  0  0  0  0
    2.6861    2.2728   -0.9237 H   0  0  0  0  0  0  0  0  0  0  0  0
    0.9594    0.0849    1.4611 H   0  0  0  0  0  0  0  0  0  0  0  0
    2.3417   -2.0000    2.3777 H   0  0  0  0  0  0  0  0  0  0  0  0
    5.7990   -2.4090   -0.6228 H   0  0  0  0  0  0  0  0  0  0  0  0
    7.0721   -3.9576    1.4613 H   0  0  0  0  0  0  0  0  0  0  0  0
    7.5790   -3.8198   -0.2270 H   0  0  0  0  0  0  0  0  0  0  0  0
    5.7314   -5.4900   -0.8383 H   0  0  0  0  0  0  0  0  0  0  0  0
    5.3923   -5.6535    0.8923 H   0  0  0  0  0  0  0  0  0  0  0  0
   10.7453   -9.4098    1.6509 H   0  0  0  0  0  0  0  0  0  0  0  0
   10.8749   -9.4660   -0.1177 H   0  0  0  0  0  0  0  0  0  0  0  0
   11.2747  -11.6361   -1.2911 H   0  0  0  0  0  0  0  0  0  0  0  0
   12.1511  -13.9610   -1.1398 H   0  0  0  0  0  0  0  0  0  0  0  0
   12.4113  -15.0626    1.0895 H   0  0  0  0  0  0  0  0  0  0  0  0
   10.9183  -11.5077    3.0122 H   0  0  0  0  0  0  0  0  0  0  0  0
    5.9335   -9.3373    1.3127 H   0  0  0  0  0  0  0  0  0  0  0  0
    5.5463   -9.0170   -0.4047 H   0  0  0  0  0  0  0  0  0  0  0  0
    5.0354   -7.8630    0.8632 H   0  0  0  0  0  0  0  0  0  0  0  0
  1  2  1  0
  1 27  1  0
  1 28  1  0
  1 29  1  0
  2  3  2  0
  2 26  1  0
  3  4  1  0
  3 30  1  0
  4  5  2  0
  4 31  1  0
  5  6  1  0
  5 26  1  0
  6  7  2  0
  6  8  1  0
  8  9  1  0
  8 32  1  0
  9 10  1  0
  9 33  1  0
  9 34  1  0
 10 11  1  0
 10 35  1  0
 10 36  1  0
 11 12  2  0
 11 24  1  0
 12 13  1  0
 13 14  2  0
 14 15  1  0
 14 24  1  0
 15 16  1  0
 16 17  1  0
 16 37  1  0
 16 38  1  0
 17 18  2  0
 17 23  1  0
 18 19  1  0
 18 39  1  0
 19 20  2  0
 19 40  1  0
 20 21  1  0
 20 41  1  0
 21 22  1  0
 21 23  2  0
 23 42  1  0
 24 25  1  0
 25 43  1  0
 25 44  1  0
 25 45  1  0
M  END

