
     RDKit          3D

 44 44  0  0  0  0  0  0  0  0999 V2000
    3.9029    1.0629   -2.7967 C   0  0  0  0  0  0  0  0  0  0  0  0
    3.4650   -0.2489   -3.0769 O   0  0  0  0  0  0  0  0  0  0  0  0
    3.0144   -1.0536   -1.9838 C   0  0  1  0  0  0  0  0  0  0  0  0
    2.0585   -0.3190   -1.0390 C   0  0  0  0  0  0  0  0  0  0  0  0
    2.3102   -2.2485   -2.6414 C   0  0  0  0  0  0  0  0  0  0  0  0
    4.2214   -1.6053   -1.1729 C   0  0  0  0  0  0  0  0  0  0  0  0
    4.0867   -2.0152   -0.0266 O   0  0  0  0  0  0  0  0  0  0  0  0
    5.3924   -1.6394   -1.8589 N   0  0  0  0  0  0  0  0  0  0  0  0
    6.6285   -2.1249   -1.2890 C   0  0  0  0  0  0  0  0  0  0  0  0
    7.1501   -3.4550   -1.8928 C   0  0  1  0  0  0  0  0  0  0  0  0
    7.4659   -3.1929   -3.3798 C   0  0  0  0  0  0  0  0  0  0  0  0
    7.2777   -2.1391   -3.9338 O   0  0  0  0  0  0  0  0  0  0  0  0
    7.9821   -4.2243   -4.0816 O   0  0  0  0  0  0  0  0  0  0  0  0
    8.4511   -3.8740   -1.1483 C   0  0  0  0  0  0  0  0  0  0  0  0
    8.2022   -4.3358    0.2963 C   0  0  0  0  0  0  0  0  0  0  0  0
    7.1545   -5.4632    0.4059 C   0  0  2  0  0  0  0  0  0  0  0  0
    7.6982   -6.8212   -0.0638 C   0  0  0  0  0  0  0  0  0  0  0  0
    5.8617   -5.0498   -0.3272 C   0  0  0  0  0  0  0  0  0  0  0  0
    6.1056   -4.6005   -1.7753 C   0  0  0  0  0  0  0  0  0  0  0  0
    4.3466    1.4529   -3.7245 H   0  0  0  0  0  0  0  0  0  0  0  0
    4.6742    1.0939   -2.0037 H   0  0  0  0  0  0  0  0  0  0  0  0
    3.0738    1.7308   -2.5026 H   0  0  0  0  0  0  0  0  0  0  0  0
    1.1923    0.0633   -1.6007 H   0  0  0  0  0  0  0  0  0  0  0  0
    2.5467    0.5196   -0.5217 H   0  0  0  0  0  0  0  0  0  0  0  0
    1.7103   -1.0145   -0.2648 H   0  0  0  0  0  0  0  0  0  0  0  0
    1.4145   -1.9014   -3.1785 H   0  0  0  0  0  0  0  0  0  0  0  0
    2.0143   -2.9869   -1.8825 H   0  0  0  0  0  0  0  0  0  0  0  0
    2.9802   -2.7301   -3.3692 H   0  0  0  0  0  0  0  0  0  0  0  0
    5.4033   -1.2964   -2.8146 H   0  0  0  0  0  0  0  0  0  0  0  0
    6.4511   -2.2431   -0.2134 H   0  0  0  0  0  0  0  0  0  0  0  0
    7.4135   -1.3636   -1.4230 H   0  0  0  0  0  0  0  0  0  0  0  0
    8.0803   -5.0051   -3.5185 H   0  0  0  0  0  0  0  0  0  0  0  0
    9.1674   -3.0351   -1.1597 H   0  0  0  0  0  0  0  0  0  0  0  0
    8.9461   -4.6902   -1.7033 H   0  0  0  0  0  0  0  0  0  0  0  0
    7.8692   -3.4781    0.9034 H   0  0  0  0  0  0  0  0  0  0  0  0
    9.1588   -4.6632    0.7377 H   0  0  0  0  0  0  0  0  0  0  0  0
    6.9052   -5.5745    1.4756 H   0  0  0  0  0  0  0  0  0  0  0  0
    7.9827   -6.8256   -1.1290 H   0  0  0  0  0  0  0  0  0  0  0  0
    6.9451   -7.6142    0.0718 H   0  0  0  0  0  0  0  0  0  0  0  0
    8.5932   -7.1098    0.5111 H   0  0  0  0  0  0  0  0  0  0  0  0
    5.3649   -4.2331    0.2205 H   0  0  0  0  0  0  0  0  0  0  0  0
    5.1482   -5.8914   -0.3300 H   0  0  0  0  0  0  0  0  0  0  0  0
    5.1586   -4.2771   -2.2349 H   0  0  0  0  0  0  0  0  0  0  0  0
    6.4459   -5.4646   -2.3733 H   0  0  0  0  0  0  0  0  0  0  0  0
  1  2  1  0
  1 20  1  0
  1 21  1  0
  1 22  1  0
  3  2  1  6
  3  4  1  0
  3  5  1  0
  3  6  1  0
  4 23  1  0
  4 24  1  0
  4 25  1  0
  5 26  1  0
  5 27  1  0
  5 28  1  0
  6  7  2  0
  6  8  1  0
  8  9  1  0
  8 29  1  0
  9 10  1  0
  9 30  1  0
  9 31  1  0
 10 11  1  6
 10 14  1  0
 10 19  1  0
 11 12  2  0
 11 13  1  0
 13 32  1  0
 14 15  1  0
 14 33  1  0
 14 34  1  0
 15 16  1  0
 15 35  1  0
 15 36  1  0
 16 17  1  0
 16 18  1  0
 16 37  1  1
 17 38  1  0
 17 39  1  0
 17 40  1  0
 18 19  1  0
 18 41  1  0
 18 42  1  0
 19 43  1  0
 19 44  1  0
M  END

