
     RDKit          3D

 26 26  0  0  0  0  0  0  0  0999 V2000
    1.1334    2.0366   -2.1585 C   0  0  0  0  0  0  0  0  0  0  0  0
    2.5029    1.7218   -2.1263 O   0  0  0  0  0  0  0  0  0  0  0  0
    2.8500    0.8185   -1.0971 C   0  0  0  0  0  0  0  0  0  0  0  0
    4.3606    0.8620   -0.9464 C   0  0  0  0  0  0  0  0  0  0  0  0
    5.0120    2.1034   -0.9721 C   0  0  0  0  0  0  0  0  0  0  0  0
    4.2684    3.3814   -0.9010 N   0  0  0  0  0  0  0  0  0  0  0  0
    3.3355    3.4524   -0.1213 O   0  0  0  0  0  0  0  0  0  0  0  0
    4.6929    4.3060   -1.5741 O   0  0  0  0  0  0  0  0  0  0  0  0
    6.4021    2.2423   -1.0230 C   0  0  0  0  0  0  0  0  0  0  0  0
    7.1873    1.1043   -1.0032 C   0  0  0  0  0  0  0  0  0  0  0  0
    8.5507    1.0770   -1.0467 O   0  0  0  0  0  0  0  0  0  0  0  0
    6.5769   -0.1608   -0.9244 C   0  0  0  0  0  0  0  0  0  0  0  0
    7.3912   -1.2512   -0.9054 O   0  0  0  0  0  0  0  0  0  0  0  0
    5.1766   -0.3021   -0.8842 C   0  0  0  0  0  0  0  0  0  0  0  0
    4.5443   -1.6724   -0.7113 C   0  0  0  0  0  0  0  0  0  0  0  0
    3.4306   -1.8143   -0.2715 O   0  0  0  0  0  0  0  0  0  0  0  0
    5.2688   -2.7393   -1.0700 O   0  0  0  0  0  0  0  0  0  0  0  0
    0.9685    2.7076   -3.0138 H   0  0  0  0  0  0  0  0  0  0  0  0
    0.8141    2.5539   -1.2327 H   0  0  0  0  0  0  0  0  0  0  0  0
    0.5040    1.1341   -2.2903 H   0  0  0  0  0  0  0  0  0  0  0  0
    2.5096   -0.1981   -1.3338 H   0  0  0  0  0  0  0  0  0  0  0  0
    2.3776    1.1050   -0.1383 H   0  0  0  0  0  0  0  0  0  0  0  0
    6.8379    3.2409   -1.0830 H   0  0  0  0  0  0  0  0  0  0  0  0
    8.9185    1.9689   -1.0981 H   0  0  0  0  0  0  0  0  0  0  0  0
    8.3137   -0.9510   -0.9706 H   0  0  0  0  0  0  0  0  0  0  0  0
    6.1919   -2.4942   -1.2622 H   0  0  0  0  0  0  0  0  0  0  0  0
  1  2  1  0
  1 18  1  0
  1 19  1  0
  1 20  1  0
  2  3  1  0
  3  4  1  0
  3 21  1  0
  3 22  1  0
  4  5  1  0
  4 14  2  0
  5  6  1  0
  5  9  2  0
  6  7  1  0
  6  8  1  0
  9 10  1  0
  9 23  1  0
 10 11  2  0
 10 12  1  0
 11 24  1  0
 12 13  2  0
 12 14  1  0
 13 25  1  0
 14 15  1  0
 15 16  2  0
 15 17  1  0
 17 26  1  0
M  CHG  4   7  -1   8  -1  11   1  13   1
M  END

