
     RDKit          3D

 94106  0  0  0  0  0  0  0  0999 V2000
    1.2421   -0.2587   -0.5833 N   0  0  0  0  0  0  0  0  0  0  0  0
    2.3951   -0.1340   -0.5628 C   0  0  0  0  0  0  0  0  0  0  0  0
    3.8218    0.0202   -0.5371 C   0  0  0  0  0  0  0  0  0  0  0  0
    4.3702    1.3080   -0.3171 C   0  0  0  0  0  0  0  0  0  0  0  0
    3.5057    2.3967   -0.0847 N   0  0  0  0  0  0  0  0  0  0  0  0
    2.6851    2.5542    1.0492 C   0  0  0  0  0  0  0  0  0  0  0  0
    2.5443    1.7276    2.1679 C   0  0  0  0  0  0  0  0  0  0  0  0
    1.6663    2.1375    3.1729 C   0  0  0  0  0  0  0  0  0  0  0  0
    0.9470    3.3417    3.0697 C   0  0  0  0  0  0  0  0  0  0  0  0
    1.0933    4.1617    1.9521 C   0  0  0  0  0  0  0  0  0  0  0  0
    1.9678    3.7702    0.9288 C   0  0  0  0  0  0  0  0  0  0  0  0
    2.3513    4.3640   -0.3384 C   0  0  0  0  0  0  0  0  0  0  0  0
    1.9540    5.5298   -1.0065 C   0  0  0  0  0  0  0  0  0  0  0  0
    2.5027    5.7934   -2.2602 C   0  0  0  0  0  0  0  0  0  0  0  0
    1.9845    7.3749   -3.1959 Br  0  0  0  0  0  0  0  0  0  0  0  0
    3.4242    4.9180   -2.8604 C   0  0  0  0  0  0  0  0  0  0  0  0
    3.8252    3.7536   -2.2039 C   0  0  0  0  0  0  0  0  0  0  0  0
    3.2948    3.4923   -0.9387 C   0  0  0  0  0  0  0  0  0  0  0  0
    5.7748    1.4645   -0.3255 C   0  0  0  0  0  0  0  0  0  0  0  0
    6.3785    2.7307   -0.1872 N   0  0  0  0  0  0  0  0  0  0  0  0
    6.3791    3.5347    0.9674 C   0  0  0  0  0  0  0  0  0  0  0  0
    5.8491    3.2728    2.2331 C   0  0  0  0  0  0  0  0  0  0  0  0
    6.0158    4.2452    3.2208 C   0  0  0  0  0  0  0  0  0  0  0  0
    6.7010    5.4451    2.9590 C   0  0  0  0  0  0  0  0  0  0  0  0
    7.2437    5.6921    1.6988 C   0  0  0  0  0  0  0  0  0  0  0  0
    7.0884    4.7310    0.6904 C   0  0  0  0  0  0  0  0  0  0  0  0
    7.5431    4.6454   -0.6849 C   0  0  0  0  0  0  0  0  0  0  0  0
    8.2723    5.5148   -1.5071 C   0  0  0  0  0  0  0  0  0  0  0  0
    8.5466    5.1167   -2.8141 C   0  0  0  0  0  0  0  0  0  0  0  0
    9.5388    6.2774   -3.9595 Br  0  0  0  0  0  0  0  0  0  0  0  0
    8.1108    3.8769   -3.3133 C   0  0  0  0  0  0  0  0  0  0  0  0
    7.3819    3.0049   -2.5034 C   0  0  0  0  0  0  0  0  0  0  0  0
    7.1030    3.3976   -1.1915 C   0  0  0  0  0  0  0  0  0  0  0  0
    6.5923    0.3187   -0.4871 C   0  0  0  0  0  0  0  0  0  0  0  0
    8.0190    0.4734   -0.4625 C   0  0  0  0  0  0  0  0  0  0  0  0
    9.1719    0.5997   -0.4434 N   0  0  0  0  0  0  0  0  0  0  0  0
    6.0440   -0.9743   -0.6735 C   0  0  0  0  0  0  0  0  0  0  0  0
    6.9079   -2.0823   -0.7839 N   0  0  0  0  0  0  0  0  0  0  0  0
    7.7239   -2.5818    0.2499 C   0  0  0  0  0  0  0  0  0  0  0  0
    7.8615   -2.1380    1.5686 C   0  0  0  0  0  0  0  0  0  0  0  0
    8.7339   -2.8395    2.4029 C   0  0  0  0  0  0  0  0  0  0  0  0
    9.4507   -3.9568    1.9383 C   0  0  0  0  0  0  0  0  0  0  0  0
    9.3075   -4.3946    0.6227 C   0  0  0  0  0  0  0  0  0  0  0  0
    8.4388   -3.7051   -0.2346 C   0  0  0  0  0  0  0  0  0  0  0  0
    8.0588   -3.8816   -1.6239 C   0  0  0  0  0  0  0  0  0  0  0  0
    8.4555   -4.7887   -2.6154 C   0  0  0  0  0  0  0  0  0  0  0  0
    7.9102   -4.6545   -3.8909 C   0  0  0  0  0  0  0  0  0  0  0  0
    8.4273   -5.8760   -5.2643 Br  0  0  0  0  0  0  0  0  0  0  0  0
    6.9924   -3.6348   -4.1969 C   0  0  0  0  0  0  0  0  0  0  0  0
    6.5916   -2.7257   -3.2169 C   0  0  0  0  0  0  0  0  0  0  0  0
    7.1193   -2.8651   -1.9315 C   0  0  0  0  0  0  0  0  0  0  0  0
    4.6395   -1.1203   -0.7322 C   0  0  0  0  0  0  0  0  0  0  0  0
    4.0359   -2.3673   -0.9915 N   0  0  0  0  0  0  0  0  0  0  0  0
    3.3119   -2.6925   -2.1551 C   0  0  0  0  0  0  0  0  0  0  0  0
    3.0393   -1.9106   -3.2816 C   0  0  0  0  0  0  0  0  0  0  0  0
    2.3100   -2.4958   -4.3183 C   0  0  0  0  0  0  0  0  0  0  0  0
    1.8641   -3.8272   -4.2383 C   0  0  0  0  0  0  0  0  0  0  0  0
    2.1405   -4.6015   -3.1125 C   0  0  0  0  0  0  0  0  0  0  0  0
    2.8696   -4.0351   -2.0577 C   0  0  0  0  0  0  0  0  0  0  0  0
    3.3237   -4.5382   -0.7746 C   0  0  0  0  0  0  0  0  0  0  0  0
    3.1623   -5.7653   -0.1178 C   0  0  0  0  0  0  0  0  0  0  0  0
    3.7075   -5.9101    1.1565 C   0  0  0  0  0  0  0  0  0  0  0  0
    3.5077   -7.5706    2.0779 Br  0  0  0  0  0  0  0  0  0  0  0  0
    4.3960   -4.8597    1.7877 C   0  0  0  0  0  0  0  0  0  0  0  0
    4.5614   -3.6333    1.1426 C   0  0  0  0  0  0  0  0  0  0  0  0
    4.0339   -3.4865   -0.1421 C   0  0  0  0  0  0  0  0  0  0  0  0
    3.0895    0.7862    2.2593 H   0  0  0  0  0  0  0  0  0  0  0  0
    1.5336    1.5045    4.0535 H   0  0  0  0  0  0  0  0  0  0  0  0
    0.2661    3.6330    3.8725 H   0  0  0  0  0  0  0  0  0  0  0  0
    0.5345    5.0973    1.8732 H   0  0  0  0  0  0  0  0  0  0  0  0
    1.2279    6.2124   -0.5627 H   0  0  0  0  0  0  0  0  0  0  0  0
    3.8285    5.1510   -3.8464 H   0  0  0  0  0  0  0  0  0  0  0  0
    4.5353    3.0789   -2.6817 H   0  0  0  0  0  0  0  0  0  0  0  0
    5.3204    2.3454    2.4533 H   0  0  0  0  0  0  0  0  0  0  0  0
    5.6038    4.0656    4.2167 H   0  0  0  0  0  0  0  0  0  0  0  0
    6.8140    6.1856    3.7539 H   0  0  0  0  0  0  0  0  0  0  0  0
    7.7885    6.6182    1.5005 H   0  0  0  0  0  0  0  0  0  0  0  0
    8.6173    6.4813   -1.1368 H   0  0  0  0  0  0  0  0  0  0  0  0
    8.3496    3.5936   -4.3393 H   0  0  0  0  0  0  0  0  0  0  0  0
    7.0556    2.0413   -2.8992 H   0  0  0  0  0  0  0  0  0  0  0  0
    7.3186   -1.2675    1.9418 H   0  0  0  0  0  0  0  0  0  0  0  0
    8.8640   -2.5073    3.4356 H   0  0  0  0  0  0  0  0  0  0  0  0
   10.1266   -4.4831    2.6159 H   0  0  0  0  0  0  0  0  0  0  0  0
    9.8637   -5.2636    0.2634 H   0  0  0  0  0  0  0  0  0  0  0  0
    9.1782   -5.5769   -2.3996 H   0  0  0  0  0  0  0  0  0  0  0  0
    6.5905   -3.5540   -5.2077 H   0  0  0  0  0  0  0  0  0  0  0  0
    5.8830   -1.9362   -3.4669 H   0  0  0  0  0  0  0  0  0  0  0  0
    3.3713   -0.8732   -3.3553 H   0  0  0  0  0  0  0  0  0  0  0  0
    2.0782   -1.9025   -5.2061 H   0  0  0  0  0  0  0  0  0  0  0  0
    1.2945   -4.2553   -5.0660 H   0  0  0  0  0  0  0  0  0  0  0  0
    1.7947   -5.6361   -3.0522 H   0  0  0  0  0  0  0  0  0  0  0  0
    2.6179   -6.5864   -0.5865 H   0  0  0  0  0  0  0  0  0  0  0  0
    4.8043   -5.0047    2.7887 H   0  0  0  0  0  0  0  0  0  0  0  0
    5.0928   -2.8243    1.6435 H   0  0  0  0  0  0  0  0  0  0  0  0
  1  2  3  0
  2  3  1  0
  3  4  2  0
  3 52  1  0
  4  5  1  0
  4 19  1  0
  5  6  1  0
  5 18  1  0
  6  7  2  0
  6 11  1  0
  7  8  1  0
  7 67  1  0
  8  9  2  0
  8 68  1  0
  9 10  1  0
  9 69  1  0
 10 11  2  0
 10 70  1  0
 11 12  1  0
 12 13  1  0
 12 18  2  0
 13 14  2  0
 13 71  1  0
 14 15  1  0
 14 16  1  0
 16 17  2  0
 16 72  1  0
 17 18  1  0
 17 73  1  0
 19 20  1  0
 19 34  2  0
 20 21  1  0
 20 33  1  0
 21 22  2  0
 21 26  1  0
 22 23  1  0
 22 74  1  0
 23 24  2  0
 23 75  1  0
 24 25  1  0
 24 76  1  0
 25 26  2  0
 25 77  1  0
 26 27  1  0
 27 28  1  0
 27 33  2  0
 28 29  2  0
 28 78  1  0
 29 30  1  0
 29 31  1  0
 31 32  2  0
 31 79  1  0
 32 33  1  0
 32 80  1  0
 34 35  1  0
 34 37  1  0
 35 36  3  0
 37 38  1  0
 37 52  2  0
 38 39  1  0
 38 51  1  0
 39 40  2  0
 39 44  1  0
 40 41  1  0
 40 81  1  0
 41 42  2  0
 41 82  1  0
 42 43  1  0
 42 83  1  0
 43 44  2  0
 43 84  1  0
 44 45  1  0
 45 46  1  0
 45 51  2  0
 46 47  2  0
 46 85  1  0
 47 48  1  0
 47 49  1  0
 49 50  2  0
 49 86  1  0
 50 51  1  0
 50 87  1  0
 52 53  1  0
 53 54  1  0
 53 66  1  0
 54 55  2  0
 54 59  1  0
 55 56  1  0
 55 88  1  0
 56 57  2  0
 56 89  1  0
 57 58  1  0
 57 90  1  0
 58 59  2  0
 58 91  1  0
 59 60  1  0
 60 61  1  0
 60 66  2  0
 61 62  2  0
 61 92  1  0
 62 63  1  0
 62 64  1  0
 64 65  2  0
 64 93  1  0
 65 66  1  0
 65 94  1  0
M  END

