
     RDKit          3D

 41 45  0  0  0  0  0  0  0  0999 V2000
    1.5008   -0.4509    0.3705 C   0  0  0  0  0  0  0  0  0  0  0  0
    2.8529   -0.1877   -0.0702 N   0  0  0  0  0  0  0  0  0  0  0  0
    3.1807    1.2392   -0.2814 C   0  0  0  0  0  0  0  0  0  0  0  0
    3.9475    1.2029   -1.6243 C   0  0  2  0  0  0  0  0  0  0  0  0
    4.1166    2.1787   -2.0961 H   0  0  0  0  0  0  0  0  0  0  0  0
    3.0965    0.1859   -2.4058 C   0  0  0  0  0  0  0  0  0  0  0  0
    3.2888   -0.8789   -1.3053 C   0  0  1  0  0  0  0  0  0  0  0  0
    2.7811   -1.8437   -1.4334 H   0  0  0  0  0  0  0  0  0  0  0  0
    4.8238   -0.9808   -1.2512 C   0  0  0  0  0  0  0  0  0  0  0  0
    5.1842    0.4370   -1.4355 N   0  0  0  0  0  0  0  0  0  0  0  0
    6.4126    0.9369   -1.1186 C   0  0  0  0  0  0  0  0  0  0  0  0
    6.7099    2.3242   -1.0809 C   0  0  0  0  0  0  0  0  0  0  0  0
    8.0049    2.6881   -0.7850 C   0  0  0  0  0  0  0  0  0  0  0  0
    8.9636    1.6786   -0.5330 C   0  0  0  0  0  0  0  0  0  0  0  0
   10.3890    1.9600   -0.2080 C   0  0  0  0  0  0  0  0  0  0  0  0
   10.9330    3.2640   -0.3422 C   0  0  0  0  0  0  0  0  0  0  0  0
   12.2638    3.5500   -0.0412 C   0  0  0  0  0  0  0  0  0  0  0  0
   13.0495    2.4896    0.4011 C   0  0  0  0  0  0  0  0  0  0  0  0
   14.3651    2.5394    0.7496 O   0  0  0  0  0  0  0  0  0  0  0  0
   14.7168    1.2689    1.1145 C   0  0  0  0  0  0  0  0  0  0  0  0
   13.6770    0.3983    1.0153 C   0  0  0  0  0  0  0  0  0  0  0  0
   12.5527    1.1769    0.5434 C   0  0  0  0  0  0  0  0  0  0  0  0
   11.2118    0.9123    0.2344 C   0  0  0  0  0  0  0  0  0  0  0  0
    8.5943    0.3913   -0.5645 N   0  0  0  0  0  0  0  0  0  0  0  0
    7.3657    0.0211   -0.8427 N   0  0  0  0  0  0  0  0  0  0  0  0
    1.3137    0.0646    1.3264 H   0  0  0  0  0  0  0  0  0  0  0  0
    1.3627   -1.5287    0.5512 H   0  0  0  0  0  0  0  0  0  0  0  0
    0.7106   -0.1196   -0.3439 H   0  0  0  0  0  0  0  0  0  0  0  0
    3.7943    1.6509    0.5379 H   0  0  0  0  0  0  0  0  0  0  0  0
    2.2716    1.8671   -0.3744 H   0  0  0  0  0  0  0  0  0  0  0  0
    3.5286   -0.0783   -3.3819 H   0  0  0  0  0  0  0  0  0  0  0  0
    2.0508    0.5023   -2.5329 H   0  0  0  0  0  0  0  0  0  0  0  0
    5.2460   -1.6136   -2.0512 H   0  0  0  0  0  0  0  0  0  0  0  0
    5.1793   -1.3625   -0.2839 H   0  0  0  0  0  0  0  0  0  0  0  0
    5.9458    3.0801   -1.2661 H   0  0  0  0  0  0  0  0  0  0  0  0
    8.2698    3.7447   -0.7300 H   0  0  0  0  0  0  0  0  0  0  0  0
   10.3063    4.0797   -0.7060 H   0  0  0  0  0  0  0  0  0  0  0  0
   12.6750    4.5549   -0.1513 H   0  0  0  0  0  0  0  0  0  0  0  0
   15.7519    1.1425    1.4233 H   0  0  0  0  0  0  0  0  0  0  0  0
   13.6997   -0.6644    1.2462 H   0  0  0  0  0  0  0  0  0  0  0  0
   10.7856   -0.0868    0.3261 H   0  0  0  0  0  0  0  0  0  0  0  0
  1  2  1  0
  1 26  1  0
  1 27  1  0
  1 28  1  0
  2  3  1  0
  2  7  1  0
  3  4  1  0
  3 29  1  0
  3 30  1  0
  4  5  1  6
  4  6  1  0
  4 10  1  0
  6  7  1  0
  6 31  1  0
  6 32  1  0
  7  8  1  6
  7  9  1  0
  9 10  1  0
  9 33  1  0
  9 34  1  0
 10 11  1  0
 11 12  2  0
 11 25  1  0
 12 13  1  0
 12 35  1  0
 13 14  2  0
 13 36  1  0
 14 15  1  0
 14 24  1  0
 15 16  2  0
 15 23  1  0
 16 17  1  0
 16 37  1  0
 17 18  2  0
 17 38  1  0
 18 19  1  0
 18 22  1  0
 19 20  1  0
 20 21  2  0
 20 39  1  0
 21 22  1  0
 21 40  1  0
 22 23  2  0
 23 41  1  0
 24 25  2  0
M  END

