
     RDKit          3D

103115  0  0  0  0  0  0  0  0999 V2000
    1.9092    1.4899    0.9683 C   0  0  0  0  0  0  0  0  0  0  0  0
    2.7924    0.3771    0.3571 C   0  0  1  0  0  0  0  0  0  0  0  0
    4.1774    0.3853    1.0453 C   0  0  0  0  0  0  0  0  0  0  0  0
    2.1221   -0.9791    0.6420 C   0  0  0  0  0  0  0  0  0  0  0  0
    2.9687    0.6341   -1.1516 C   0  0  0  0  0  0  0  0  0  0  0  0
    3.5618    1.8284   -1.6009 C   0  0  0  0  0  0  0  0  0  0  0  0
    3.7378    2.1043   -2.9558 C   0  0  0  0  0  0  0  0  0  0  0  0
    3.3191    1.1858   -3.9370 C   0  0  0  0  0  0  0  0  0  0  0  0
    3.5066    1.3772   -5.3847 C   0  0  0  0  0  0  0  0  0  0  0  0
    3.6375    0.3775   -6.2328 N   0  0  0  0  0  0  0  0  0  0  0  0
    3.8166    0.9270   -7.4716 C   0  0  0  0  0  0  0  0  0  0  0  0
    3.7822    0.3234   -8.7787 C   0  0  0  0  0  0  0  0  0  0  0  0
    3.3608   -1.0297   -9.1714 C   0  0  0  0  0  0  0  0  0  0  0  0
    3.1643   -1.3785  -10.4769 C   0  0  0  0  0  0  0  0  0  0  0  0
    3.1519   -0.3466  -11.5554 C   0  0  1  0  0  0  0  0  0  0  0  0
    4.6751    1.7874  -14.3825 C   0  0  0  0  0  0  0  0  0  0  0  0
    3.9795    1.2572  -15.4594 C   0  0  0  0  0  0  0  0  0  0  0  0
    4.2091    1.6772  -16.7905 C   0  0  0  0  0  0  0  0  0  0  0  0
    5.1572    2.6357  -17.0604 C   0  0  0  0  0  0  0  0  0  0  0  0
    5.9235    3.2008  -16.0051 C   0  0  0  0  0  0  0  0  0  0  0  0
    6.9252    4.1755  -16.2763 C   0  0  0  0  0  0  0  0  0  0  0  0
    7.6882    4.7174  -15.2655 C   0  0  0  0  0  0  0  0  0  0  0  0
    7.4772    4.2975  -13.9306 C   0  0  0  0  0  0  0  0  0  0  0  0
    6.5088    3.3600  -13.6339 C   0  0  0  0  0  0  0  0  0  0  0  0
    5.6915    2.7776  -14.6471 C   0  0  0  0  0  0  0  0  0  0  0  0
    3.0586    1.0295  -10.9886 C   0  0  1  0  0  0  0  0  0  0  0  0
    4.0125    1.1990   -9.8305 C   0  0  0  0  0  0  0  0  0  0  0  0
    4.6224    2.4680   -9.6555 C   0  0  0  0  0  0  0  0  0  0  0  0
    4.8138    3.3834  -10.6946 C   0  0  0  0  0  0  0  0  0  0  0  0
    3.5663    3.3654  -11.4019 C   0  0  0  0  0  0  0  0  0  0  0  0
    3.2226    2.0573  -12.1430 C   0  0  1  0  0  0  0  0  0  0  0  0
    4.3748    1.3089  -12.9686 C   0  0  1  0  0  0  0  0  0  0  0  0
    3.9376   -0.1689  -12.8498 C   0  0  2  0  0  0  0  0  0  0  0  0
    2.4355   -0.4387  -12.9020 C   0  0  2  0  0  0  0  0  0  0  0  0
    1.5307    0.6780  -13.2894 C   0  0  0  0  0  0  0  0  0  0  0  0
    0.3455    0.4923  -14.0105 C   0  0  0  0  0  0  0  0  0  0  0  0
   -0.4215    1.5934  -14.4040 C   0  0  0  0  0  0  0  0  0  0  0  0
    0.0005    2.8879  -14.0887 C   0  0  0  0  0  0  0  0  0  0  0  0
    1.1814    3.0836  -13.3632 C   0  0  0  0  0  0  0  0  0  0  0  0
    1.9416    1.9888  -12.9451 C   0  0  0  0  0  0  0  0  0  0  0  0
    2.7317    4.1263  -10.5366 C   0  0  0  0  0  0  0  0  0  0  0  0
    3.0802    4.1410   -9.1215 C   0  0  0  0  0  0  0  0  0  0  0  0
    3.9945    3.1868   -8.5447 C   0  0  0  0  0  0  0  0  0  0  0  0
    3.7976    2.3445   -7.3763 C   0  0  0  0  0  0  0  0  0  0  0  0
    3.5866    2.6168   -6.0403 N   0  0  0  0  0  0  0  0  0  0  0  0
    3.3707    3.9294   -5.5163 C   0  0  0  0  0  0  0  0  0  0  0  0
    2.1291    4.2869   -4.9859 C   0  0  0  0  0  0  0  0  0  0  0  0
    1.9242    5.5765   -4.4857 C   0  0  0  0  0  0  0  0  0  0  0  0
    2.9379    6.5478   -4.5130 C   0  0  0  0  0  0  0  0  0  0  0  0
    2.7426    7.9789   -3.9763 C   0  0  1  0  0  0  0  0  0  0  0  0
    1.3266    8.2018   -3.4151 C   0  0  0  0  0  0  0  0  0  0  0  0
    3.7598    8.2439   -2.8419 C   0  0  0  0  0  0  0  0  0  0  0  0
    2.9742    8.9917   -5.1220 C   0  0  0  0  0  0  0  0  0  0  0  0
    4.1763    6.1654   -5.0650 C   0  0  0  0  0  0  0  0  0  0  0  0
    4.3980    4.8805   -5.5573 C   0  0  0  0  0  0  0  0  0  0  0  0
    2.7400   -0.0176   -3.4972 C   0  0  0  0  0  0  0  0  0  0  0  0
    2.5680   -0.2823   -2.1387 C   0  0  0  0  0  0  0  0  0  0  0  0
    1.7756    1.3251    2.0504 H   0  0  0  0  0  0  0  0  0  0  0  0
    0.9119    1.5040    0.5004 H   0  0  0  0  0  0  0  0  0  0  0  0
    2.3552    2.4875    0.8360 H   0  0  0  0  0  0  0  0  0  0  0  0
    4.0707    0.2050    2.1278 H   0  0  0  0  0  0  0  0  0  0  0  0
    4.6943    1.3486    0.9175 H   0  0  0  0  0  0  0  0  0  0  0  0
    4.8283   -0.4012    0.6314 H   0  0  0  0  0  0  0  0  0  0  0  0
    2.0131   -1.1202    1.7290 H   0  0  0  0  0  0  0  0  0  0  0  0
    2.7186   -1.8214    0.2580 H   0  0  0  0  0  0  0  0  0  0  0  0
    1.1162   -1.0420    0.1982 H   0  0  0  0  0  0  0  0  0  0  0  0
    3.9086    2.5695   -0.8768 H   0  0  0  0  0  0  0  0  0  0  0  0
    4.2259    3.0358   -3.2426 H   0  0  0  0  0  0  0  0  0  0  0  0
    3.2729   -1.7854   -8.3866 H   0  0  0  0  0  0  0  0  0  0  0  0
    2.9540   -2.4204  -10.7358 H   0  0  0  0  0  0  0  0  0  0  0  0
    3.2264    0.4898  -15.2861 H   0  0  0  0  0  0  0  0  0  0  0  0
    3.6253    1.2317  -17.6001 H   0  0  0  0  0  0  0  0  0  0  0  0
    5.3415    2.9700  -18.0851 H   0  0  0  0  0  0  0  0  0  0  0  0
    7.0809    4.4847  -17.3137 H   0  0  0  0  0  0  0  0  0  0  0  0
    8.4552    5.4631  -15.4901 H   0  0  0  0  0  0  0  0  0  0  0  0
    8.0861    4.7182  -13.1261 H   0  0  0  0  0  0  0  0  0  0  0  0
    6.3675    3.0680  -12.5936 H   0  0  0  0  0  0  0  0  0  0  0  0
    2.0591    1.1952  -10.5388 H   0  0  0  0  0  0  0  0  0  0  0  0
    5.2229    4.3591  -10.4099 H   0  0  0  0  0  0  0  0  0  0  0  0
    5.2875    1.4076  -12.3624 H   0  0  0  0  0  0  0  0  0  0  0  0
    4.6101   -0.9385  -13.2380 H   0  0  0  0  0  0  0  0  0  0  0  0
    2.1400   -1.4424  -13.2220 H   0  0  0  0  0  0  0  0  0  0  0  0
    0.0262   -0.5204  -14.2730 H   0  0  0  0  0  0  0  0  0  0  0  0
   -1.3460    1.4398  -14.9667 H   0  0  0  0  0  0  0  0  0  0  0  0
   -0.5888    3.7504  -14.4101 H   0  0  0  0  0  0  0  0  0  0  0  0
    1.5197    4.0962  -13.1330 H   0  0  0  0  0  0  0  0  0  0  0  0
    1.7175    4.4539  -10.7922 H   0  0  0  0  0  0  0  0  0  0  0  0
    2.3925    4.6674   -8.4480 H   0  0  0  0  0  0  0  0  0  0  0  0
    1.3225    3.5516   -4.9588 H   0  0  0  0  0  0  0  0  0  0  0  0
    0.9437    5.8148   -4.0741 H   0  0  0  0  0  0  0  0  0  0  0  0
    1.1059    7.5267   -2.5735 H   0  0  0  0  0  0  0  0  0  0  0  0
    0.5514    8.0569   -4.1838 H   0  0  0  0  0  0  0  0  0  0  0  0
    1.2324    9.2339   -3.0431 H   0  0  0  0  0  0  0  0  0  0  0  0
    3.6154    7.5381   -2.0085 H   0  0  0  0  0  0  0  0  0  0  0  0
    3.6369    9.2658   -2.4474 H   0  0  0  0  0  0  0  0  0  0  0  0
    4.7996    8.1448   -3.1889 H   0  0  0  0  0  0  0  0  0  0  0  0
    2.2598    8.8286   -5.9446 H   0  0  0  0  0  0  0  0  0  0  0  0
    3.9894    8.9161   -5.5402 H   0  0  0  0  0  0  0  0  0  0  0  0
    2.8412   10.0227   -4.7553 H   0  0  0  0  0  0  0  0  0  0  0  0
    4.9974    6.8841   -5.1111 H   0  0  0  0  0  0  0  0  0  0  0  0
    5.3691    4.6074   -5.9749 H   0  0  0  0  0  0  0  0  0  0  0  0
    2.4299   -0.7491   -4.2451 H   0  0  0  0  0  0  0  0  0  0  0  0
    2.1085   -1.2298   -1.8562 H   0  0  0  0  0  0  0  0  0  0  0  0
  2  1  1  1
  1 58  1  0
  1 59  1  0
  1 60  1  0
  2  3  1  0
  2  4  1  0
  2  5  1  0
  3 61  1  0
  3 62  1  0
  3 63  1  0
  4 64  1  0
  4 65  1  0
  4 66  1  0
  5  6  2  0
  5 57  1  0
  6  7  1  0
  6 67  1  0
  7  8  2  0
  7 68  1  0
  8  9  1  0
  8 56  1  0
  9 10  2  0
  9 45  1  0
 10 11  1  0
 11 12  1  0
 11 44  2  0
 12 13  1  0
 12 27  2  0
 13 14  2  0
 13 69  1  0
 15 14  1  1
 14 70  1  0
 15 26  1  0
 15 33  1  0
 15 34  1  0
 16 17  2  0
 16 25  1  0
 16 32  1  0
 17 18  1  0
 17 71  1  0
 18 19  2  0
 18 72  1  0
 19 20  1  0
 19 73  1  0
 20 21  1  0
 20 25  2  0
 21 22  2  0
 21 74  1  0
 22 23  1  0
 22 75  1  0
 23 24  2  0
 23 76  1  0
 24 25  1  0
 24 77  1  0
 26 27  1  0
 26 31  1  0
 26 78  1  1
 27 28  1  0
 28 29  2  0
 28 43  1  0
 29 30  1  0
 29 79  1  0
 31 30  1  1
 30 41  2  0
 31 32  1  0
 31 40  1  0
 32 33  1  0
 32 80  1  1
 33 34  1  0
 33 81  1  6
 34 35  1  0
 34 82  1  6
 35 36  2  0
 35 40  1  0
 36 37  1  0
 36 83  1  0
 37 38  2  0
 37 84  1  0
 38 39  1  0
 38 85  1  0
 39 40  2  0
 39 86  1  0
 41 42  1  0
 41 87  1  0
 42 43  2  0
 42 88  1  0
 43 44  1  0
 44 45  1  0
 45 46  1  0
 46 47  2  0
 46 55  1  0
 47 48  1  0
 47 89  1  0
 48 49  2  0
 48 90  1  0
 49 50  1  0
 49 54  1  0
 50 51  1  1
 50 52  1  0
 50 53  1  0
 51 91  1  0
 51 92  1  0
 51 93  1  0
 52 94  1  0
 52 95  1  0
 52 96  1  0
 53 97  1  0
 53 98  1  0
 53 99  1  0
 54 55  2  0
 54100  1  0
 55101  1  0
 56 57  2  0
 56102  1  0
 57103  1  0
M  END

