
     RDKit          3D

 30 31  0  0  0  0  0  0  0  0999 V2000
    2.1937    1.4679   -1.1081 C   0  0  0  0  0  0  0  0  0  0  0  0
    2.3197    0.1452   -0.6147 O   0  0  0  0  0  0  0  0  0  0  0  0
    2.8214   -0.8466   -1.4029 C   0  0  0  0  0  0  0  0  0  0  0  0
    3.2916   -0.6066   -2.7021 C   0  0  0  0  0  0  0  0  0  0  0  0
    3.7614   -1.6581   -3.4922 C   0  0  0  0  0  0  0  0  0  0  0  0
    3.7561   -2.9628   -2.9971 C   0  0  0  0  0  0  0  0  0  0  0  0
    3.2843   -3.1965   -1.7071 C   0  0  0  0  0  0  0  0  0  0  0  0
    2.8300   -2.1615   -0.8646 C   0  0  0  0  0  0  0  0  0  0  0  0
    2.3611   -2.5962    0.4751 C   0  0  0  0  0  0  0  0  0  0  0  0
    2.3539   -2.0642    1.6484 N   0  0  0  0  0  0  0  0  0  0  0  0
    2.7938   -0.8224    1.8852 N   0  0  0  0  0  0  0  0  0  0  0  0
    2.8056   -0.2257    3.1379 C   0  0  0  0  0  0  0  0  0  0  0  0
    3.1054    0.9523    3.2281 O   0  0  0  0  0  0  0  0  0  0  0  0
    2.4779   -1.0458    4.3245 C   0  0  0  0  0  0  0  0  0  0  0  0
    2.1184   -2.3490    4.5879 C   0  0  0  0  0  0  0  0  0  0  0  0
    1.9562   -2.4560    6.0006 C   0  0  0  0  0  0  0  0  0  0  0  0
    2.2310   -1.2031    6.4873 C   0  0  0  0  0  0  0  0  0  0  0  0
    2.2335   -0.5403    8.2326 Br  0  0  0  0  0  0  0  0  0  0  0  0
    2.5437   -0.3505    5.5059 O   0  0  0  0  0  0  0  0  0  0  0  0
    1.7595    2.0569   -0.2901 H   0  0  0  0  0  0  0  0  0  0  0  0
    1.5234    1.5036   -1.9833 H   0  0  0  0  0  0  0  0  0  0  0  0
    3.1731    1.8975   -1.3796 H   0  0  0  0  0  0  0  0  0  0  0  0
    3.2837    0.4042   -3.1086 H   0  0  0  0  0  0  0  0  0  0  0  0
    4.1225   -1.4496   -4.5023 H   0  0  0  0  0  0  0  0  0  0  0  0
    4.1112   -3.7931   -3.6112 H   0  0  0  0  0  0  0  0  0  0  0  0
    3.2701   -4.2179   -1.3169 H   0  0  0  0  0  0  0  0  0  0  0  0
    2.0114   -3.6366    0.4844 H   0  0  0  0  0  0  0  0  0  0  0  0
    2.9502   -0.1716    1.1101 H   0  0  0  0  0  0  0  0  0  0  0  0
    1.9865   -3.1233    3.8404 H   0  0  0  0  0  0  0  0  0  0  0  0
    1.6755   -3.3309    6.5811 H   0  0  0  0  0  0  0  0  0  0  0  0
  1  2  1  0
  1 20  1  0
  1 21  1  0
  1 22  1  0
  2  3  1  0
  3  4  2  0
  3  8  1  0
  4  5  1  0
  4 23  1  0
  5  6  2  0
  5 24  1  0
  6  7  1  0
  6 25  1  0
  7  8  2  0
  7 26  1  0
  8  9  1  0
  9 10  2  0
  9 27  1  0
 10 11  1  0
 11 12  1  0
 11 28  1  0
 12 13  2  0
 12 14  1  0
 14 15  2  0
 14 19  1  0
 15 16  1  0
 15 29  1  0
 16 17  2  0
 16 30  1  0
 17 18  1  0
 17 19  1  0
M  END

