
     RDKit          3D

 54 55  0  0  0  0  0  0  0  0999 V2000
    7.0452   -2.5537    1.5174 C   0  0  0  0  0  0  0  0  0  0  0  0
    6.4356   -1.6593    1.0471 N   0  0  0  0  0  0  0  0  0  0  0  0
    5.6904   -0.6380    0.4967 C   0  0  0  0  0  0  0  0  0  0  0  0
    6.2350    0.6493    0.3139 C   0  0  0  0  0  0  0  0  0  0  0  0
    7.6561    0.9348    0.7148 C   0  0  0  0  0  0  0  0  0  0  0  0
    5.4166    1.6263   -0.2393 C   0  0  0  0  0  0  0  0  0  0  0  0
    4.0855    1.2939   -0.5964 C   0  0  0  0  0  0  0  0  0  0  0  0
    3.2969    2.2746   -1.1451 N   0  0  0  0  0  0  0  0  0  0  0  0
    1.9829    2.2295   -1.6007 C   0  0  0  0  0  0  0  0  0  0  0  0
    1.0571    1.1535   -1.6884 C   0  0  0  0  0  0  0  0  0  0  0  0
   -0.0860    1.7231   -2.2328 C   0  0  0  0  0  0  0  0  0  0  0  0
   -1.4143    1.1292   -2.5769 C   0  0  0  0  0  0  0  0  0  0  0  0
    0.2101    3.0357   -2.4286 N   0  0  0  0  0  0  0  0  0  0  0  0
   -0.3948    3.7523   -2.8094 H   0  0  0  0  0  0  0  0  0  0  0  0
    1.4602    3.3688   -2.0525 N   0  0  0  0  0  0  0  0  0  0  0  0
    3.5751    0.0707   -0.4265 N   0  0  0  0  0  0  0  0  0  0  0  0
    4.3393   -0.8875    0.1111 C   0  0  0  0  0  0  0  0  0  0  0  0
    3.7982   -2.1231    0.3094 N   0  0  0  0  0  0  0  0  0  0  0  0
    2.4588   -2.5301   -0.0988 C   0  0  1  0  0  0  0  0  0  0  0  0
    2.4240   -2.9956   -1.5612 C   0  0  0  0  0  0  0  0  0  0  0  0
    1.9347   -3.6138    0.8588 C   0  0  0  0  0  0  0  0  0  0  0  0
    1.8320   -3.2091    2.3368 C   0  0  0  0  0  0  0  0  0  0  0  0
    0.7968   -2.1137    2.6161 C   0  0  0  0  0  0  0  0  0  0  0  0
    0.5762   -1.7077    4.0926 C   0  0  1  0  0  0  0  0  0  0  0  0
    0.0166   -2.8659    4.9329 C   0  0  0  0  0  0  0  0  0  0  0  0
    1.8502   -1.1441    4.7256 C   0  0  0  0  0  0  0  0  0  0  0  0
   -0.3552   -0.6206    4.1160 O   0  0  0  0  0  0  0  0  0  0  0  0
    7.8083    0.7418    1.7893 H   0  0  0  0  0  0  0  0  0  0  0  0
    7.9280    1.9786    0.5064 H   0  0  0  0  0  0  0  0  0  0  0  0
    8.3574    0.2761    0.1770 H   0  0  0  0  0  0  0  0  0  0  0  0
    5.7959    2.6372   -0.4016 H   0  0  0  0  0  0  0  0  0  0  0  0
    3.7152    3.1929   -1.2374 H   0  0  0  0  0  0  0  0  0  0  0  0
    1.2163    0.1242   -1.3954 H   0  0  0  0  0  0  0  0  0  0  0  0
   -1.4268    0.0602   -2.3251 H   0  0  0  0  0  0  0  0  0  0  0  0
   -1.6390    1.2229   -3.6530 H   0  0  0  0  0  0  0  0  0  0  0  0
   -2.2358    1.6142   -2.0227 H   0  0  0  0  0  0  0  0  0  0  0  0
    4.4352   -2.8509    0.6130 H   0  0  0  0  0  0  0  0  0  0  0  0
    1.8276   -1.6339   -0.0107 H   0  0  0  0  0  0  0  0  0  0  0  0
    3.0555   -3.8882   -1.7063 H   0  0  0  0  0  0  0  0  0  0  0  0
    2.7911   -2.2009   -2.2274 H   0  0  0  0  0  0  0  0  0  0  0  0
    1.3972   -3.2538   -1.8677 H   0  0  0  0  0  0  0  0  0  0  0  0
    2.5886   -4.5020    0.7712 H   0  0  0  0  0  0  0  0  0  0  0  0
    0.9445   -3.9382    0.4941 H   0  0  0  0  0  0  0  0  0  0  0  0
    2.8242   -2.8805    2.6875 H   0  0  0  0  0  0  0  0  0  0  0  0
    1.5834   -4.1124    2.9189 H   0  0  0  0  0  0  0  0  0  0  0  0
   -0.1819   -2.4375    2.2098 H   0  0  0  0  0  0  0  0  0  0  0  0
    1.0615   -1.1897    2.0760 H   0  0  0  0  0  0  0  0  0  0  0  0
    0.7267   -3.7031    5.0182 H   0  0  0  0  0  0  0  0  0  0  0  0
   -0.9135   -3.2593    4.4870 H   0  0  0  0  0  0  0  0  0  0  0  0
   -0.2181   -2.5093    5.9474 H   0  0  0  0  0  0  0  0  0  0  0  0
    2.6310   -1.9126    4.8228 H   0  0  0  0  0  0  0  0  0  0  0  0
    1.6215   -0.7518    5.7281 H   0  0  0  0  0  0  0  0  0  0  0  0
    2.2448   -0.3148    4.1187 H   0  0  0  0  0  0  0  0  0  0  0  0
   -1.1766   -0.9262    3.7080 H   0  0  0  0  0  0  0  0  0  0  0  0
  1  2  2  0
  2  3  2  0
  3  4  1  0
  3 17  1  0
  4  5  1  0
  4  6  2  0
  5 28  1  0
  5 29  1  0
  5 30  1  0
  6  7  1  0
  6 31  1  0
  7  8  1  0
  7 16  2  0
  8  9  1  0
  8 32  1  0
  9 10  1  0
  9 15  2  0
 10 11  2  0
 10 33  1  0
 11 12  1  0
 11 13  1  0
 12 34  1  0
 12 35  1  0
 12 36  1  0
 13 14  1  0
 13 15  1  0
 16 17  1  0
 17 18  2  0
 18 19  1  0
 18 37  1  0
 19 20  1  0
 19 21  1  0
 19 38  1  6
 20 39  1  0
 20 40  1  0
 20 41  1  0
 21 22  1  0
 21 42  1  0
 21 43  1  0
 22 23  1  0
 22 44  1  0
 22 45  1  0
 23 24  1  0
 23 46  1  0
 23 47  1  0
 24 25  1  0
 24 26  1  0
 24 27  1  6
 25 48  1  0
 25 49  1  0
 25 50  1  0
 26 51  1  0
 26 52  1  0
 26 53  1  0
 27 54  1  0
M  CHG  3   1  -2   2   1  18   1
M  END

