
     RDKit          3D

 35 36  0  0  0  0  0  0  0  0999 V2000
    4.6560    7.6085   -2.5982 C   0  0  0  0  0  0  0  0  0  0  0  0
    5.6859    7.4080   -1.6507 O   0  0  0  0  0  0  0  0  0  0  0  0
    5.4845    6.5813   -0.6107 C   0  0  0  0  0  0  0  0  0  0  0  0
    4.2915    5.8744   -0.3715 C   0  0  0  0  0  0  0  0  0  0  0  0
    4.1728    5.0431    0.7385 C   0  0  0  0  0  0  0  0  0  0  0  0
    5.2331    4.8858    1.6453 C   0  0  0  0  0  0  0  0  0  0  0  0
    5.0361    3.9619    2.8026 C   0  0  0  0  0  0  0  0  0  0  0  0
    4.0206    3.2997    2.9155 O   0  0  0  0  0  0  0  0  0  0  0  0
    6.1495    3.7806    3.8521 C   0  0  0  0  0  0  0  0  0  0  0  0
    6.8098    4.9443    4.2842 O   0  0  0  0  0  0  0  0  0  0  0  0
    6.0160    5.7949    5.0987 C   0  0  0  0  0  0  0  0  0  0  0  0
    6.8352    6.9732    5.5651 C   0  0  0  0  0  0  0  0  0  0  0  0
    7.4489    7.8303    4.6367 C   0  0  0  0  0  0  0  0  0  0  0  0
    8.1992    8.9250    5.0698 C   0  0  0  0  0  0  0  0  0  0  0  0
    8.3429    9.1844    6.4376 C   0  0  0  0  0  0  0  0  0  0  0  0
    7.7355    8.3390    7.3687 C   0  0  0  0  0  0  0  0  0  0  0  0
    6.9912    7.2380    6.9324 C   0  0  0  0  0  0  0  0  0  0  0  0
    6.4320    5.5860    1.4071 C   0  0  0  0  0  0  0  0  0  0  0  0
    6.5531    6.4192    0.3024 C   0  0  0  0  0  0  0  0  0  0  0  0
    8.0363    7.3026    0.0421 Cl  0  0  0  0  0  0  0  0  0  0  0  0
    5.0540    8.3125   -3.3403 H   0  0  0  0  0  0  0  0  0  0  0  0
    3.7547    8.0456   -2.1340 H   0  0  0  0  0  0  0  0  0  0  0  0
    4.3803    6.6676   -3.1058 H   0  0  0  0  0  0  0  0  0  0  0  0
    3.4496    5.9757   -1.0567 H   0  0  0  0  0  0  0  0  0  0  0  0
    3.2491    4.4919    0.9243 H   0  0  0  0  0  0  0  0  0  0  0  0
    6.9230    3.1298    3.4078 H   0  0  0  0  0  0  0  0  0  0  0  0
    5.6871    3.2299    4.6924 H   0  0  0  0  0  0  0  0  0  0  0  0
    5.6305    5.2313    5.9704 H   0  0  0  0  0  0  0  0  0  0  0  0
    5.1324    6.1490    4.5283 H   0  0  0  0  0  0  0  0  0  0  0  0
    7.3433    7.6386    3.5663 H   0  0  0  0  0  0  0  0  0  0  0  0
    8.6731    9.5815    4.3354 H   0  0  0  0  0  0  0  0  0  0  0  0
    8.9288   10.0434    6.7751 H   0  0  0  0  0  0  0  0  0  0  0  0
    7.8454    8.5312    8.4392 H   0  0  0  0  0  0  0  0  0  0  0  0
    6.5259    6.5737    7.6665 H   0  0  0  0  0  0  0  0  0  0  0  0
    7.2724    5.4975    2.0940 H   0  0  0  0  0  0  0  0  0  0  0  0
  1  2  1  0
  1 21  1  0
  1 22  1  0
  1 23  1  0
  2  3  1  0
  3  4  2  0
  3 19  1  0
  4  5  1  0
  4 24  1  0
  5  6  2  0
  5 25  1  0
  6  7  1  0
  6 18  1  0
  7  8  2  0
  7  9  1  0
  9 10  1  0
  9 26  1  0
  9 27  1  0
 10 11  1  0
 11 12  1  0
 11 28  1  0
 11 29  1  0
 12 13  2  0
 12 17  1  0
 13 14  1  0
 13 30  1  0
 14 15  2  0
 14 31  1  0
 15 16  1  0
 15 32  1  0
 16 17  2  0
 16 33  1  0
 17 34  1  0
 18 19  2  0
 18 35  1  0
 19 20  1  0
M  END

