
     RDKit          3D

 36 36  0  0  0  0  0  0  0  0999 V2000
    4.1698   -3.2412   -1.6600 C   0  0  0  0  0  0  0  0  0  0  0  0
    4.3679   -2.5607   -0.4195 O   0  0  0  0  0  0  0  0  0  0  0  0
    4.8564   -1.3045   -0.4949 C   0  0  0  0  0  0  0  0  0  0  0  0
    5.1348   -0.7704   -1.5395 O   0  0  0  0  0  0  0  0  0  0  0  0
    4.9642   -0.6608    0.9089 C   0  0  1  0  0  0  0  0  0  0  0  0
    5.8764    0.5696    0.8233 C   0  0  0  0  0  0  0  0  0  0  0  0
    3.5403   -0.2283    1.3137 C   0  0  0  0  0  0  0  0  0  0  0  0
    5.4359   -1.6037    1.9273 N   0  0  0  0  0  0  0  0  0  0  0  0
    6.7331   -2.2303    1.7278 C   0  0  0  0  0  0  0  0  0  0  0  0
    7.1289   -3.0944    2.9114 C   0  0  0  0  0  0  0  0  0  0  0  0
    7.8780   -4.2616    2.7182 C   0  0  0  0  0  0  0  0  0  0  0  0
    8.2815   -5.0311    3.8106 C   0  0  0  0  0  0  0  0  0  0  0  0
    9.2767   -6.6276    3.5067 Br  0  0  0  0  0  0  0  0  0  0  0  0
    7.9449   -4.6769    5.1307 C   0  0  0  0  0  0  0  0  0  0  0  0
    8.2836   -5.4618    6.1829 O   0  0  0  0  0  0  0  0  0  0  0  0
    9.5284   -5.1811    6.8171 C   0  0  0  0  0  0  0  0  0  0  0  0
    7.1818   -3.5049    5.3000 C   0  0  0  0  0  0  0  0  0  0  0  0
    6.6622   -2.9907    7.0606 Br  0  0  0  0  0  0  0  0  0  0  0  0
    6.7777   -2.7252    4.2169 C   0  0  0  0  0  0  0  0  0  0  0  0
    3.7804   -4.2350   -1.4069 H   0  0  0  0  0  0  0  0  0  0  0  0
    5.1176   -3.3307   -2.2117 H   0  0  0  0  0  0  0  0  0  0  0  0
    3.4508   -2.6984   -2.2922 H   0  0  0  0  0  0  0  0  0  0  0  0
    5.4599    1.3038    0.1208 H   0  0  0  0  0  0  0  0  0  0  0  0
    6.8826    0.3167    0.4594 H   0  0  0  0  0  0  0  0  0  0  0  0
    5.9644    1.0284    1.8191 H   0  0  0  0  0  0  0  0  0  0  0  0
    3.1220    0.4804    0.5835 H   0  0  0  0  0  0  0  0  0  0  0  0
    3.5739    0.2546    2.3017 H   0  0  0  0  0  0  0  0  0  0  0  0
    2.8676   -1.0983    1.3728 H   0  0  0  0  0  0  0  0  0  0  0  0
    4.7325   -2.3297    2.0582 H   0  0  0  0  0  0  0  0  0  0  0  0
    7.4904   -1.4361    1.6110 H   0  0  0  0  0  0  0  0  0  0  0  0
    6.7924   -2.8486    0.8067 H   0  0  0  0  0  0  0  0  0  0  0  0
    8.1495   -4.5818    1.7103 H   0  0  0  0  0  0  0  0  0  0  0  0
    9.6327   -5.9065    7.6351 H   0  0  0  0  0  0  0  0  0  0  0  0
    9.5422   -4.1606    7.2354 H   0  0  0  0  0  0  0  0  0  0  0  0
   10.3706   -5.3044    6.1155 H   0  0  0  0  0  0  0  0  0  0  0  0
    6.1758   -1.8301    4.3746 H   0  0  0  0  0  0  0  0  0  0  0  0
  1  2  1  0
  1 20  1  0
  1 21  1  0
  1 22  1  0
  2  3  1  0
  3  4  2  0
  5  3  1  6
  5  6  1  0
  5  7  1  0
  5  8  1  0
  6 23  1  0
  6 24  1  0
  6 25  1  0
  7 26  1  0
  7 27  1  0
  7 28  1  0
  8  9  1  0
  8 29  1  0
  9 10  1  0
  9 30  1  0
  9 31  1  0
 10 11  2  0
 10 19  1  0
 11 12  1  0
 11 32  1  0
 12 13  1  0
 12 14  2  0
 14 15  1  0
 14 17  1  0
 15 16  1  0
 16 33  1  0
 16 34  1  0
 16 35  1  0
 17 18  1  0
 17 19  2  0
 19 36  1  0
M  END

