
     RDKit          3D

 37 40  0  0  0  0  0  0  0  0999 V2000
    1.7114   -2.5588    1.4921 C   0  0  0  0  0  0  0  0  0  0  0  0
    3.0821   -2.1769    1.3853 O   0  0  0  0  0  0  0  0  0  0  0  0
    3.3996   -0.9689    1.8900 C   0  0  0  0  0  0  0  0  0  0  0  0
    2.5858   -0.2374    2.4007 O   0  0  0  0  0  0  0  0  0  0  0  0
    4.8500   -0.6489    1.6886 C   0  0  0  0  0  0  0  0  0  0  0  0
    5.5572   -1.2606    0.6407 C   0  0  0  0  0  0  0  0  0  0  0  0
    6.8755   -0.9068    0.3547 C   0  0  0  0  0  0  0  0  0  0  0  0
    7.5172    0.0589    1.1338 C   0  0  0  0  0  0  0  0  0  0  0  0
    6.8417    0.6510    2.2017 C   0  0  0  0  0  0  0  0  0  0  0  0
    5.5124    0.3108    2.4863 C   0  0  0  0  0  0  0  0  0  0  0  0
    4.8858    0.9216    3.6049 N   0  0  0  0  0  0  0  0  0  0  0  0
    4.6516    2.2860    3.7761 C   0  0  0  0  0  0  0  0  0  0  0  0
    4.9342    3.3532    2.9164 C   0  0  0  0  0  0  0  0  0  0  0  0
    4.5886    4.6415    3.3248 C   0  0  0  0  0  0  0  0  0  0  0  0
    3.9691    4.8556    4.5693 C   0  0  0  0  0  0  0  0  0  0  0  0
    3.5201    6.6410    5.0849 Br  0  0  0  0  0  0  0  0  0  0  0  0
    3.6724    3.8007    5.4294 C   0  0  0  0  0  0  0  0  0  0  0  0
    4.0138    2.5013    5.0299 C   0  0  0  0  0  0  0  0  0  0  0  0
    3.8496    1.1973    5.6359 C   0  0  0  0  0  0  0  0  0  0  0  0
    3.3213    0.6985    6.8292 C   0  0  0  0  0  0  0  0  0  0  0  0
    3.3641   -0.6837    7.0305 C   0  0  0  0  0  0  0  0  0  0  0  0
    3.9282   -1.5102    6.0431 C   0  0  0  0  0  0  0  0  0  0  0  0
    4.4415   -1.0602    4.8944 N   0  0  0  0  0  0  0  0  0  0  0  0
    4.3913    0.2516    4.7209 C   0  0  0  0  0  0  0  0  0  0  0  0
    1.6361   -3.5560    1.0413 H   0  0  0  0  0  0  0  0  0  0  0  0
    1.0624   -1.8471    0.9593 H   0  0  0  0  0  0  0  0  0  0  0  0
    1.3988   -2.5905    2.5466 H   0  0  0  0  0  0  0  0  0  0  0  0
    5.0461   -2.0124    0.0390 H   0  0  0  0  0  0  0  0  0  0  0  0
    7.4015   -1.3868   -0.4737 H   0  0  0  0  0  0  0  0  0  0  0  0
    8.5526    0.3393    0.9252 H   0  0  0  0  0  0  0  0  0  0  0  0
    7.3469    1.3756    2.8433 H   0  0  0  0  0  0  0  0  0  0  0  0
    5.4067    3.1913    1.9465 H   0  0  0  0  0  0  0  0  0  0  0  0
    4.7963    5.4918    2.6733 H   0  0  0  0  0  0  0  0  0  0  0  0
    3.1825    3.9850    6.3868 H   0  0  0  0  0  0  0  0  0  0  0  0
    2.8877    1.3633    7.5807 H   0  0  0  0  0  0  0  0  0  0  0  0
    2.9645   -1.1291    7.9437 H   0  0  0  0  0  0  0  0  0  0  0  0
    3.9635   -2.5947    6.1972 H   0  0  0  0  0  0  0  0  0  0  0  0
  1  2  1  0
  1 25  1  0
  1 26  1  0
  1 27  1  0
  2  3  1  0
  3  4  2  0
  3  5  1  0
  5  6  2  0
  5 10  1  0
  6  7  1  0
  6 28  1  0
  7  8  2  0
  7 29  1  0
  8  9  1  0
  8 30  1  0
  9 10  2  0
  9 31  1  0
 10 11  1  0
 11 12  1  0
 11 24  1  0
 12 13  2  0
 12 18  1  0
 13 14  1  0
 13 32  1  0
 14 15  2  0
 14 33  1  0
 15 16  1  0
 15 17  1  0
 17 18  2  0
 17 34  1  0
 18 19  1  0
 19 20  1  0
 19 24  2  0
 20 21  2  0
 20 35  1  0
 21 22  1  0
 21 36  1  0
 22 23  2  0
 22 37  1  0
 23 24  1  0
M  END

