
     RDKit          3D

 44 45  0  0  0  0  0  0  0  0999 V2000
    2.1030   -0.9160    3.8989 C   0  0  0  0  0  0  0  0  0  0  0  0
    2.0584   -1.1089    2.3802 C   0  0  0  0  0  0  0  0  0  0  0  0
    3.1745   -0.5072    1.6628 N   0  0  0  0  0  0  0  0  0  0  0  0
    3.0739    0.8942    1.2881 C   0  0  0  0  0  0  0  0  0  0  0  0
    4.3402   -1.1784    1.4607 C   0  0  0  0  0  0  0  0  0  0  0  0
    5.3942   -0.6616    0.8806 N   0  0  0  0  0  0  0  0  0  0  0  0
    6.4123   -1.5705    0.7765 C   0  0  0  0  0  0  0  0  0  0  0  0
    7.5699   -1.2087    0.1849 N   0  0  0  0  0  0  0  0  0  0  0  0
    6.1646   -2.8451    1.3018 C   0  0  0  0  0  0  0  0  0  0  0  0
    7.1285   -3.9317    1.3108 C   0  0  0  0  0  0  0  0  0  0  0  0
    8.2651   -3.7802    0.8329 O   0  0  0  0  0  0  0  0  0  0  0  0
    6.7436   -5.1281    1.8671 N   0  0  0  0  0  0  0  0  0  0  0  0
    7.6068   -6.3012    1.9220 C   0  0  1  0  0  0  0  0  0  0  0  0
    7.6731   -6.8379    3.3564 C   0  0  0  0  0  0  0  0  0  0  0  0
    7.1791   -7.3774    0.9046 C   0  0  1  0  0  0  0  0  0  0  0  0
    7.0378   -6.8776   -0.5458 C   0  0  0  0  0  0  0  0  0  0  0  0
    7.0451   -8.1708   -1.3685 C   0  0  0  0  0  0  0  0  0  0  0  0
    8.1306   -9.0342   -0.6922 C   0  0  0  0  0  0  0  0  0  0  0  0
    8.1660   -8.5731    0.7932 C   0  0  0  0  0  0  0  0  0  0  0  0
    4.5205   -2.8660    1.9673 S   0  0  0  0  0  0  0  0  0  0  0  0
    1.2224   -1.3825    4.3689 H   0  0  0  0  0  0  0  0  0  0  0  0
    2.1027    0.1519    4.1690 H   0  0  0  0  0  0  0  0  0  0  0  0
    3.0047   -1.3796    4.3273 H   0  0  0  0  0  0  0  0  0  0  0  0
    1.1322   -0.6725    1.9703 H   0  0  0  0  0  0  0  0  0  0  0  0
    2.0236   -2.1834    2.1328 H   0  0  0  0  0  0  0  0  0  0  0  0
    2.1640    1.0618    0.6871 H   0  0  0  0  0  0  0  0  0  0  0  0
    3.9556    1.1662    0.6973 H   0  0  0  0  0  0  0  0  0  0  0  0
    3.0284    1.5511    2.1756 H   0  0  0  0  0  0  0  0  0  0  0  0
    7.6989   -0.2509   -0.1060 H   0  0  0  0  0  0  0  0  0  0  0  0
    8.3114   -1.9071    0.1780 H   0  0  0  0  0  0  0  0  0  0  0  0
    5.7958   -5.2256    2.2123 H   0  0  0  0  0  0  0  0  0  0  0  0
    8.6011   -5.9322    1.6263 H   0  0  0  0  0  0  0  0  0  0  0  0
    6.6813   -7.1852    3.6966 H   0  0  0  0  0  0  0  0  0  0  0  0
    8.0146   -6.0534    4.0489 H   0  0  0  0  0  0  0  0  0  0  0  0
    8.3654   -7.6899    3.4343 H   0  0  0  0  0  0  0  0  0  0  0  0
    6.1923   -7.7701    1.2214 H   0  0  0  0  0  0  0  0  0  0  0  0
    7.9048   -6.2452   -0.8055 H   0  0  0  0  0  0  0  0  0  0  0  0
    6.1366   -6.2650   -0.7009 H   0  0  0  0  0  0  0  0  0  0  0  0
    7.2326   -8.0062   -2.4414 H   0  0  0  0  0  0  0  0  0  0  0  0
    6.0611   -8.6653   -1.2859 H   0  0  0  0  0  0  0  0  0  0  0  0
    9.1073   -8.8500   -1.1683 H   0  0  0  0  0  0  0  0  0  0  0  0
    7.9315  -10.1124   -0.7952 H   0  0  0  0  0  0  0  0  0  0  0  0
    9.1833   -8.2482    1.0694 H   0  0  0  0  0  0  0  0  0  0  0  0
    7.9000   -9.3858    1.4866 H   0  0  0  0  0  0  0  0  0  0  0  0
  1  2  1  0
  1 21  1  0
  1 22  1  0
  1 23  1  0
  2  3  1  0
  2 24  1  0
  2 25  1  0
  3  4  1  0
  3  5  1  0
  4 26  1  0
  4 27  1  0
  4 28  1  0
  5  6  2  0
  5 20  1  0
  6  7  1  0
  7  8  1  0
  7  9  2  0
  8 29  1  0
  8 30  1  0
  9 10  1  0
  9 20  1  0
 10 11  2  0
 10 12  1  0
 12 13  1  0
 12 31  1  0
 13 14  1  0
 13 15  1  0
 13 32  1  6
 14 33  1  0
 14 34  1  0
 14 35  1  0
 15 16  1  0
 15 19  1  0
 15 36  1  1
 16 17  1  0
 16 37  1  0
 16 38  1  0
 17 18  1  0
 17 39  1  0
 17 40  1  0
 18 19  1  0
 18 41  1  0
 18 42  1  0
 19 43  1  0
 19 44  1  0
M  END

