
     RDKit          3D

 41 41  0  0  0  0  0  0  0  0999 V2000
    5.5133   -3.2304   -2.0741 C   0  0  0  0  0  0  0  0  0  0  0  0
    4.8191   -2.3772   -1.1594 O   0  0  0  0  0  0  0  0  0  0  0  0
    5.5201   -1.3594   -0.6426 C   0  0  0  0  0  0  0  0  0  0  0  0
    6.6725   -1.1288   -0.9268 O   0  0  0  0  0  0  0  0  0  0  0  0
    4.7004   -0.5283    0.3428 C   0  0  2  0  0  0  0  0  0  0  0  0
    3.6467   -0.5619    0.0323 H   0  0  0  0  0  0  0  0  0  0  0  0
    5.1451    0.8465    0.2215 N   0  0  0  0  0  0  0  0  0  0  0  0
    4.2827    1.8700   -0.0375 C   0  0  0  0  0  0  0  0  0  0  0  0
    3.0705    1.7836   -0.0409 O   0  0  0  0  0  0  0  0  0  0  0  0
    4.9756    3.0075   -0.2837 O   0  0  0  0  0  0  0  0  0  0  0  0
    4.2087    4.2070   -0.5069 C   0  0  0  0  0  0  0  0  0  0  0  0
    3.9652    4.9754    0.7710 C   0  0  0  0  0  0  0  0  0  0  0  0
    4.8206    6.0220    1.1459 C   0  0  0  0  0  0  0  0  0  0  0  0
    4.6099    6.7257    2.3351 C   0  0  0  0  0  0  0  0  0  0  0  0
    3.5381    6.3871    3.1661 C   0  0  0  0  0  0  0  0  0  0  0  0
    2.6796    5.3442    2.8020 C   0  0  0  0  0  0  0  0  0  0  0  0
    2.8900    4.6427    1.6123 C   0  0  0  0  0  0  0  0  0  0  0  0
    4.7790   -1.0773    1.8175 C   0  0  1  0  0  0  0  0  0  0  0  0
    3.8606   -0.2065    2.6948 C   0  0  0  0  0  0  0  0  0  0  0  0
    4.2799   -2.5330    1.8657 C   0  0  0  0  0  0  0  0  0  0  0  0
    6.2207   -1.0026    2.3505 C   0  0  0  0  0  0  0  0  0  0  0  0
    4.7874   -3.9870   -2.3953 H   0  0  0  0  0  0  0  0  0  0  0  0
    6.3746   -3.7092   -1.5842 H   0  0  0  0  0  0  0  0  0  0  0  0
    5.8780   -2.6565   -2.9388 H   0  0  0  0  0  0  0  0  0  0  0  0
    6.1332    1.0043    0.0502 H   0  0  0  0  0  0  0  0  0  0  0  0
    3.2597    3.9328   -0.9878 H   0  0  0  0  0  0  0  0  0  0  0  0
    4.8143    4.8008   -1.2053 H   0  0  0  0  0  0  0  0  0  0  0  0
    5.6599    6.2905    0.4975 H   0  0  0  0  0  0  0  0  0  0  0  0
    5.2831    7.5411    2.6127 H   0  0  0  0  0  0  0  0  0  0  0  0
    3.3701    6.9370    4.0959 H   0  0  0  0  0  0  0  0  0  0  0  0
    1.8387    5.0776    3.4477 H   0  0  0  0  0  0  0  0  0  0  0  0
    2.2282    3.8216    1.3275 H   0  0  0  0  0  0  0  0  0  0  0  0
    2.8202   -0.2298    2.3354 H   0  0  0  0  0  0  0  0  0  0  0  0
    4.1880    0.8433    2.7042 H   0  0  0  0  0  0  0  0  0  0  0  0
    3.8741   -0.5727    3.7341 H   0  0  0  0  0  0  0  0  0  0  0  0
    3.2709   -2.6287    1.4336 H   0  0  0  0  0  0  0  0  0  0  0  0
    4.2323   -2.8767    2.9114 H   0  0  0  0  0  0  0  0  0  0  0  0
    4.9428   -3.2217    1.3208 H   0  0  0  0  0  0  0  0  0  0  0  0
    6.5928    0.0338    2.3510 H   0  0  0  0  0  0  0  0  0  0  0  0
    6.9158   -1.6116    1.7521 H   0  0  0  0  0  0  0  0  0  0  0  0
    6.2598   -1.3680    3.3892 H   0  0  0  0  0  0  0  0  0  0  0  0
  1  2  1  0
  1 22  1  0
  1 23  1  0
  1 24  1  0
  2  3  1  0
  3  4  2  0
  3  5  1  0
  5  6  1  6
  5  7  1  0
  5 18  1  0
  7  8  1  0
  7 25  1  0
  8  9  2  0
  8 10  1  0
 10 11  1  0
 11 12  1  0
 11 26  1  0
 11 27  1  0
 12 13  2  0
 12 17  1  0
 13 14  1  0
 13 28  1  0
 14 15  2  0
 14 29  1  0
 15 16  1  0
 15 30  1  0
 16 17  2  0
 16 31  1  0
 17 32  1  0
 18 19  1  1
 18 20  1  0
 18 21  1  0
 19 33  1  0
 19 34  1  0
 19 35  1  0
 20 36  1  0
 20 37  1  0
 20 38  1  0
 21 39  1  0
 21 40  1  0
 21 41  1  0
M  END

