
     RDKit          3D

 80 85  0  0  0  0  0  0  0  0999 V2000
    4.7683   -0.2721   -3.3496 C   0  0  0  0  0  0  0  0  0  0  0  0
    5.1702    1.0879   -3.2825 O   0  0  0  0  0  0  0  0  0  0  0  0
    4.2792    1.9844   -2.8149 C   0  0  0  0  0  0  0  0  0  0  0  0
    4.6954    3.3297   -2.7574 C   0  0  0  0  0  0  0  0  0  0  0  0
    3.8204    4.2980   -2.2660 C   0  0  0  0  0  0  0  0  0  0  0  0
    4.1914    5.7426   -2.2438 C   0  0  0  0  0  0  0  0  0  0  0  0
    4.5331    6.3497   -3.4629 C   0  0  0  0  0  0  0  0  0  0  0  0
    4.8794    7.6995   -3.5404 C   0  0  0  0  0  0  0  0  0  0  0  0
    4.8991    8.4797   -2.3810 C   0  0  0  0  0  0  0  0  0  0  0  0
    5.2130    9.9602   -2.4225 C   0  0  2  0  0  0  0  0  0  0  0  0
    3.9570   10.8387   -2.5051 C   0  0  0  0  0  0  0  0  0  0  0  0
    4.3534   12.3169   -2.5017 C   0  0  0  0  0  0  0  0  0  0  0  0
    5.4985   12.5727   -3.4565 C   0  0  0  0  0  0  0  0  0  0  0  0
    5.8117   13.8544   -3.9286 C   0  0  0  0  0  0  0  0  0  0  0  0
    6.8616   14.0740   -4.8182 C   0  0  0  0  0  0  0  0  0  0  0  0
    7.6454   12.9994   -5.2775 C   0  0  0  0  0  0  0  0  0  0  0  0
    8.8037   13.2588   -6.2368 C   0  0  2  0  0  0  0  0  0  0  0  0
    9.0338   12.1409   -7.2448 C   0  0  1  0  0  0  0  0  0  0  0  0
    8.1424   12.0159   -8.4513 C   0  0  0  0  0  0  0  0  0  0  0  0
    9.5747   12.4617   -8.6167 C   0  0  0  0  0  0  0  0  0  0  0  0
   10.1365   13.6343   -5.4961 C   0  0  2  0  0  0  0  0  0  0  0  0
   10.8763   13.8237   -6.2978 H   0  0  0  0  0  0  0  0  0  0  0  0
   10.6822   12.5434   -4.5755 C   0  0  0  0  0  0  0  0  0  0  0  0
   10.0028   14.9535   -4.7261 C   0  0  0  0  0  0  0  0  0  0  0  0
   10.1628   15.0743   -3.5439 O   0  0  0  0  0  0  0  0  0  0  0  0
    9.6872   16.0421   -5.4782 O   0  0  0  0  0  0  0  0  0  0  0  0
    7.3402   11.7158   -4.8156 C   0  0  0  0  0  0  0  0  0  0  0  0
    6.2871   11.5023   -3.9144 C   0  0  0  0  0  0  0  0  0  0  0  0
    6.0677   10.2077   -3.5395 O   0  0  0  0  0  0  0  0  0  0  0  0
    4.5847    7.8688   -1.1596 C   0  0  0  0  0  0  0  0  0  0  0  0
    4.2280    6.5186   -1.0601 C   0  0  0  0  0  0  0  0  0  0  0  0
    3.9359    5.9302    0.3095 C   0  0  0  0  0  0  0  0  0  0  0  0
    4.8484    4.8636    0.6816 N   0  0  0  0  0  0  0  0  0  0  0  0
    6.2358    5.2811    0.8470 C   0  0  0  0  0  0  0  0  0  0  0  0
    6.9226    4.0521    1.4586 C   0  0  0  0  0  0  0  0  0  0  0  0
    5.7819    3.3157    2.2040 C   0  0  0  0  0  0  0  0  0  0  0  0
    4.5047    4.1364    1.9109 C   0  0  2  0  0  0  0  0  0  0  0  0
    4.3577    4.8674    2.7431 H   0  0  0  0  0  0  0  0  0  0  0  0
    3.2463    3.2824    1.7966 C   0  0  0  0  0  0  0  0  0  0  0  0
    2.5468    3.8382   -1.8817 C   0  0  0  0  0  0  0  0  0  0  0  0
    1.6244    4.7059   -1.4213 F   0  0  0  0  0  0  0  0  0  0  0  0
    2.2168    2.4960   -1.9788 C   0  0  0  0  0  0  0  0  0  0  0  0
    3.0765    1.5771   -2.4357 N   0  0  0  0  0  0  0  0  0  0  0  0
    5.6292   -0.8219   -3.7526 H   0  0  0  0  0  0  0  0  0  0  0  0
    3.8949   -0.4015   -4.0086 H   0  0  0  0  0  0  0  0  0  0  0  0
    4.5027   -0.6624   -2.3542 H   0  0  0  0  0  0  0  0  0  0  0  0
    5.7034    3.5938   -3.0797 H   0  0  0  0  0  0  0  0  0  0  0  0
    4.5084    5.7487   -4.3753 H   0  0  0  0  0  0  0  0  0  0  0  0
    5.1430    8.1483   -4.4990 H   0  0  0  0  0  0  0  0  0  0  0  0
    5.7650   10.2299   -1.5001 H   0  0  0  0  0  0  0  0  0  0  0  0
    3.2891   10.6032   -1.6627 H   0  0  0  0  0  0  0  0  0  0  0  0
    3.4160   10.5793   -3.4309 H   0  0  0  0  0  0  0  0  0  0  0  0
    4.6473   12.6182   -1.4792 H   0  0  0  0  0  0  0  0  0  0  0  0
    3.4909   12.9491   -2.7684 H   0  0  0  0  0  0  0  0  0  0  0  0
    5.2069   14.7017   -3.5916 H   0  0  0  0  0  0  0  0  0  0  0  0
    7.0745   15.0895   -5.1604 H   0  0  0  0  0  0  0  0  0  0  0  0
    8.5128   14.1427   -6.8332 H   0  0  0  0  0  0  0  0  0  0  0  0
    9.3814   11.1962   -6.8161 H   0  0  0  0  0  0  0  0  0  0  0  0
    7.3544   12.7644   -8.5799 H   0  0  0  0  0  0  0  0  0  0  0  0
    7.8633   11.0149   -8.7914 H   0  0  0  0  0  0  0  0  0  0  0  0
    9.7558   13.5126   -8.8669 H   0  0  0  0  0  0  0  0  0  0  0  0
   10.2903   11.7711   -9.0718 H   0  0  0  0  0  0  0  0  0  0  0  0
   11.6380   12.8599   -4.1341 H   0  0  0  0  0  0  0  0  0  0  0  0
   10.8543   11.6069   -5.1260 H   0  0  0  0  0  0  0  0  0  0  0  0
    9.9894   12.3440   -3.7461 H   0  0  0  0  0  0  0  0  0  0  0  0
    9.6247   15.8010   -6.4131 H   0  0  0  0  0  0  0  0  0  0  0  0
    7.9049   10.8403   -5.1380 H   0  0  0  0  0  0  0  0  0  0  0  0
    4.6320    8.4605   -0.2398 H   0  0  0  0  0  0  0  0  0  0  0  0
    2.9112    5.5328    0.3154 H   0  0  0  0  0  0  0  0  0  0  0  0
    3.9562    6.7580    1.0567 H   0  0  0  0  0  0  0  0  0  0  0  0
    6.3119    6.1520    1.5417 H   0  0  0  0  0  0  0  0  0  0  0  0
    6.6748    5.5954   -0.1124 H   0  0  0  0  0  0  0  0  0  0  0  0
    7.7534    4.3390    2.1204 H   0  0  0  0  0  0  0  0  0  0  0  0
    7.3410    3.4140    0.6661 H   0  0  0  0  0  0  0  0  0  0  0  0
    5.9591    3.2379    3.2875 H   0  0  0  0  0  0  0  0  0  0  0  0
    5.6643    2.2901    1.8208 H   0  0  0  0  0  0  0  0  0  0  0  0
    3.0817    2.7243    2.7323 H   0  0  0  0  0  0  0  0  0  0  0  0
    3.3482    2.5586    0.9726 H   0  0  0  0  0  0  0  0  0  0  0  0
    2.3432    3.8852    1.6138 H   0  0  0  0  0  0  0  0  0  0  0  0
    1.2172    2.1639   -1.6774 H   0  0  0  0  0  0  0  0  0  0  0  0
  1  2  1  0
  1 44  1  0
  1 45  1  0
  1 46  1  0
  2  3  1  0
  3  4  2  0
  3 43  1  0
  4  5  1  0
  4 47  1  0
  5  6  1  0
  5 40  2  0
  6  7  2  0
  6 31  1  0
  7  8  1  0
  7 48  1  0
  8  9  2  0
  8 49  1  0
  9 10  1  0
  9 30  1  0
 10 11  1  0
 10 29  1  0
 10 50  1  1
 11 12  1  0
 11 51  1  0
 11 52  1  0
 12 13  1  0
 12 53  1  0
 12 54  1  0
 13 14  2  0
 13 28  1  0
 14 15  1  0
 14 55  1  0
 15 16  2  0
 15 56  1  0
 16 17  1  0
 16 27  1  0
 17 18  1  0
 17 21  1  0
 17 57  1  6
 18 19  1  0
 18 20  1  0
 18 58  1  1
 19 20  1  0
 19 59  1  0
 19 60  1  0
 20 61  1  0
 20 62  1  0
 21 22  1  6
 21 23  1  0
 21 24  1  0
 23 63  1  0
 23 64  1  0
 23 65  1  0
 24 25  2  0
 24 26  1  0
 26 66  1  0
 27 28  2  0
 27 67  1  0
 28 29  1  0
 30 31  2  0
 30 68  1  0
 31 32  1  0
 32 33  1  0
 32 69  1  0
 32 70  1  0
 33 34  1  0
 33 37  1  0
 34 35  1  0
 34 71  1  0
 34 72  1  0
 35 36  1  0
 35 73  1  0
 35 74  1  0
 36 37  1  0
 36 75  1  0
 36 76  1  0
 37 38  1  1
 37 39  1  0
 39 77  1  0
 39 78  1  0
 39 79  1  0
 40 41  1  0
 40 42  1  0
 42 43  2  0
 42 80  1  0
M  END

