
     RDKit          3D

 29 31  0  0  0  0  0  0  0  0999 V2000
    3.6650    1.7955   -1.2782 O   0  0  0  0  0  0  0  0  0  0  0  0
    3.6487    0.8229   -0.5472 C   0  0  0  0  0  0  0  0  0  0  0  0
    3.6355    0.9200    0.9153 C   0  0  0  0  0  0  0  0  0  0  0  0
    3.6400   -0.1068    1.8208 C   0  0  0  0  0  0  0  0  0  0  0  0
    3.8252   -1.5261    1.5785 C   0  0  0  0  0  0  0  0  0  0  0  0
    4.5559   -2.1844    0.6000 C   0  0  0  0  0  0  0  0  0  0  0  0
    4.5218   -3.5944    0.7131 C   0  0  0  0  0  0  0  0  0  0  0  0
    3.7701   -4.0476    1.7859 C   0  0  0  0  0  0  0  0  0  0  0  0
    3.5137   -5.4116    2.2079 C   0  0  0  0  0  0  0  0  0  0  0  0
    3.0154   -5.8710    3.4149 C   0  0  0  0  0  0  0  0  0  0  0  0
    2.8999   -7.2879    3.4752 C   0  0  0  0  0  0  0  0  0  0  0  0
    3.3102   -7.9030    2.3181 C   0  0  0  0  0  0  0  0  0  0  0  0
    3.8325   -6.7576    1.1338 S   0  0  0  0  0  0  0  0  0  0  0  0
    3.0964   -2.6976    2.6639 S   0  0  0  0  0  0  0  0  0  0  0  0
    3.3878    0.4358    3.2199 C   0  0  0  0  0  0  0  0  0  0  0  0
    3.6816    1.9446    3.0856 C   0  0  0  0  0  0  0  0  0  0  0  0
    3.4579    2.2609    1.5926 C   0  0  0  0  0  0  0  0  0  0  0  0
    3.6029   -0.2077   -0.9755 H   0  0  0  0  0  0  0  0  0  0  0  0
    5.1454   -1.6582   -0.1503 H   0  0  0  0  0  0  0  0  0  0  0  0
    5.0584   -4.2669    0.0420 H   0  0  0  0  0  0  0  0  0  0  0  0
    2.7548   -5.2048    4.2391 H   0  0  0  0  0  0  0  0  0  0  0  0
    2.5319   -7.8317    4.3464 H   0  0  0  0  0  0  0  0  0  0  0  0
    3.3338   -8.9680    2.0916 H   0  0  0  0  0  0  0  0  0  0  0  0
    4.0033   -0.0644    3.9847 H   0  0  0  0  0  0  0  0  0  0  0  0
    2.3322    0.2470    3.4972 H   0  0  0  0  0  0  0  0  0  0  0  0
    4.7358    2.1309    3.3481 H   0  0  0  0  0  0  0  0  0  0  0  0
    3.0662    2.5613    3.7573 H   0  0  0  0  0  0  0  0  0  0  0  0
    4.1479    3.0192    1.1903 H   0  0  0  0  0  0  0  0  0  0  0  0
    2.4401    2.6467    1.3952 H   0  0  0  0  0  0  0  0  0  0  0  0
  1  2  2  0
  2  3  1  0
  2 18  1  0
  3  4  2  0
  3 17  1  0
  4  5  1  0
  4 15  1  0
  5  6  2  0
  5 14  1  0
  6  7  1  0
  6 19  1  0
  7  8  2  0
  7 20  1  0
  8  9  1  0
  8 14  1  0
  9 10  2  0
  9 13  1  0
 10 11  1  0
 10 21  1  0
 11 12  2  0
 11 22  1  0
 12 13  1  0
 12 23  1  0
 15 16  1  0
 15 24  1  0
 15 25  1  0
 16 17  1  0
 16 26  1  0
 16 27  1  0
 17 28  1  0
 17 29  1  0
M  END

