
     RDKit          3D

 42 45  0  0  0  0  0  0  0  0999 V2000
    1.3460   -0.6157    1.3414 C   0  0  0  0  0  0  0  0  0  0  0  0
    2.4682   -0.0604    0.5185 C   0  0  0  0  0  0  0  0  0  0  0  0
    3.6596    0.5442    0.9676 C   0  0  0  0  0  0  0  0  0  0  0  0
    4.3511    0.8826   -0.2011 C   0  0  0  0  0  0  0  0  0  0  0  0
    5.5999    1.5110   -0.5556 C   0  0  0  0  0  0  0  0  0  0  0  0
    6.4376    1.9220    0.4419 N   0  0  0  0  0  0  0  0  0  0  0  0
    7.6828    2.6210    0.1898 C   0  0  0  0  0  0  0  0  0  0  0  0
    7.5108    4.1331   -0.0732 C   0  0  0  0  0  0  0  0  0  0  0  0
    8.8188    4.8202   -0.3282 C   0  0  0  0  0  0  0  0  0  0  0  0
    9.5419    4.9151   -1.5512 C   0  0  0  0  0  0  0  0  0  0  0  0
   10.6927    5.6015   -1.2274 C   0  0  0  0  0  0  0  0  0  0  0  0
   10.6273    5.8802    0.1114 N   0  0  0  0  0  0  0  0  0  0  0  0
   11.5675    6.5758    0.9160 C   0  0  0  0  0  0  0  0  0  0  0  0
   12.7252    7.1371    0.3565 C   0  0  0  0  0  0  0  0  0  0  0  0
   13.6403    7.8139    1.1646 C   0  0  0  0  0  0  0  0  0  0  0  0
   13.3913    7.9288    2.5296 C   0  0  0  0  0  0  0  0  0  0  0  0
   14.2699    8.5798    3.3060 F   0  0  0  0  0  0  0  0  0  0  0  0
   12.2454    7.3805    3.1017 C   0  0  0  0  0  0  0  0  0  0  0  0
   11.3330    6.7029    2.2943 C   0  0  0  0  0  0  0  0  0  0  0  0
    9.4894    5.4030    0.6600 N   0  0  0  0  0  0  0  0  0  0  0  0
    5.9546    1.6752   -1.8160 N   0  0  0  0  0  0  0  0  0  0  0  0
    5.1201    1.2290   -2.7962 C   0  0  0  0  0  0  0  0  0  0  0  0
    3.9157    0.6268   -2.5623 C   0  0  0  0  0  0  0  0  0  0  0  0
    3.5446    0.4642   -1.2442 N   0  0  0  0  0  0  0  0  0  0  0  0
    2.4114   -0.1036   -0.8241 N   0  0  0  0  0  0  0  0  0  0  0  0
    1.5640   -0.5312    2.4154 H   0  0  0  0  0  0  0  0  0  0  0  0
    1.1726   -1.6776    1.1050 H   0  0  0  0  0  0  0  0  0  0  0  0
    0.4046   -0.0805    1.1369 H   0  0  0  0  0  0  0  0  0  0  0  0
    3.9672    0.7033    1.9984 H   0  0  0  0  0  0  0  0  0  0  0  0
    6.0780    1.9093    1.3866 H   0  0  0  0  0  0  0  0  0  0  0  0
    8.1625    2.1532   -0.6818 H   0  0  0  0  0  0  0  0  0  0  0  0
    8.3439    2.4720    1.0580 H   0  0  0  0  0  0  0  0  0  0  0  0
    7.0268    4.6027    0.7977 H   0  0  0  0  0  0  0  0  0  0  0  0
    6.8459    4.2582   -0.9412 H   0  0  0  0  0  0  0  0  0  0  0  0
    9.2526    4.5355   -2.5285 H   0  0  0  0  0  0  0  0  0  0  0  0
   11.5332    5.9047   -1.8445 H   0  0  0  0  0  0  0  0  0  0  0  0
   12.9273    7.0581   -0.7119 H   0  0  0  0  0  0  0  0  0  0  0  0
   14.5453    8.2561    0.7441 H   0  0  0  0  0  0  0  0  0  0  0  0
   12.0777    7.4884    4.1751 H   0  0  0  0  0  0  0  0  0  0  0  0
   10.4280    6.2644    2.7121 H   0  0  0  0  0  0  0  0  0  0  0  0
    5.4534    1.3785   -3.8271 H   0  0  0  0  0  0  0  0  0  0  0  0
    3.2190    0.2633   -3.3150 H   0  0  0  0  0  0  0  0  0  0  0  0
  1  2  1  0
  1 26  1  0
  1 27  1  0
  1 28  1  0
  2  3  1  0
  2 25  2  0
  3  4  2  0
  3 29  1  0
  4  5  1  0
  4 24  1  0
  5  6  1  0
  5 21  2  0
  6  7  1  0
  6 30  1  0
  7  8  1  0
  7 31  1  0
  7 32  1  0
  8  9  1  0
  8 33  1  0
  8 34  1  0
  9 10  1  0
  9 20  2  0
 10 11  2  0
 10 35  1  0
 11 12  1  0
 11 36  1  0
 12 13  1  0
 12 20  1  0
 13 14  2  0
 13 19  1  0
 14 15  1  0
 14 37  1  0
 15 16  2  0
 15 38  1  0
 16 17  1  0
 16 18  1  0
 18 19  2  0
 18 39  1  0
 19 40  1  0
 21 22  1  0
 22 23  2  0
 22 41  1  0
 23 24  1  0
 23 42  1  0
 24 25  1  0
M  END

