
     RDKit          3D

 28 27  0  0  0  0  0  0  0  0999 V2000
    1.6407   -0.5294    1.0349 C   0  0  0  0  0  0  0  0  0  0  0  0
    2.4673   -0.1174    0.0647 C   0  0  0  0  0  0  0  0  0  0  0  0
    2.8595    1.3256   -0.1147 C   0  0  0  0  0  0  0  0  0  0  0  0
    3.0518   -1.1128   -0.9254 C   0  0  1  0  0  0  0  0  0  0  0  0
    2.4111   -0.9988   -2.3168 C   0  0  0  0  0  0  0  0  0  0  0  0
    4.4566   -0.8925   -0.9711 O   0  0  0  0  0  0  0  0  0  0  0  0
    5.2400   -1.9415   -1.4983 C   0  0  0  0  0  0  0  0  0  0  0  0
    6.7113   -1.6424   -1.2421 C   0  0  0  0  0  0  0  0  0  0  0  0
    7.0896   -1.5960    0.2411 C   0  0  0  0  0  0  0  0  0  0  0  0
    8.5575   -1.2433    0.4820 C   0  0  0  0  0  0  0  0  0  0  0  0
    1.1882    0.1759    1.7384 H   0  0  0  0  0  0  0  0  0  0  0  0
    1.3842   -1.5858    1.1602 H   0  0  0  0  0  0  0  0  0  0  0  0
    2.4084    1.9638    0.6589 H   0  0  0  0  0  0  0  0  0  0  0  0
    2.5477    1.7099   -1.1010 H   0  0  0  0  0  0  0  0  0  0  0  0
    3.9551    1.4285   -0.0705 H   0  0  0  0  0  0  0  0  0  0  0  0
    2.8602   -2.1338   -0.5383 H   0  0  0  0  0  0  0  0  0  0  0  0
    2.6069   -0.0099   -2.7592 H   0  0  0  0  0  0  0  0  0  0  0  0
    1.3219   -1.1428   -2.2491 H   0  0  0  0  0  0  0  0  0  0  0  0
    2.8092   -1.7619   -3.0035 H   0  0  0  0  0  0  0  0  0  0  0  0
    5.0677   -2.0610   -2.5866 H   0  0  0  0  0  0  0  0  0  0  0  0
    4.9572   -2.9041   -1.0202 H   0  0  0  0  0  0  0  0  0  0  0  0
    6.9573   -0.6776   -1.7210 H   0  0  0  0  0  0  0  0  0  0  0  0
    7.3129   -2.4099   -1.7621 H   0  0  0  0  0  0  0  0  0  0  0  0
    6.8631   -2.5756    0.7014 H   0  0  0  0  0  0  0  0  0  0  0  0
    6.4376   -0.8656    0.7476 H   0  0  0  0  0  0  0  0  0  0  0  0
    9.2328   -1.9755    0.0073 H   0  0  0  0  0  0  0  0  0  0  0  0
    8.7965   -1.2204    1.5573 H   0  0  0  0  0  0  0  0  0  0  0  0
    8.8045   -0.2519    0.0662 H   0  0  0  0  0  0  0  0  0  0  0  0
  1  2  2  0
  1 11  1  0
  1 12  1  0
  2  3  1  0
  2  4  1  0
  3 13  1  0
  3 14  1  0
  3 15  1  0
  4  5  1  0
  4  6  1  0
  4 16  1  1
  5 17  1  0
  5 18  1  0
  5 19  1  0
  6  7  1  0
  7  8  1  0
  7 20  1  0
  7 21  1  0
  8  9  1  0
  8 22  1  0
  8 23  1  0
  9 10  1  0
  9 24  1  0
  9 25  1  0
 10 26  1  0
 10 27  1  0
 10 28  1  0
M  END

