
     RDKit          3D

 37 39  0  0  0  0  0  0  0  0999 V2000
    1.0110   -0.0480    0.5447 C   0  0  0  0  0  0  0  0  0  0  0  0
    2.5451   -0.0819    0.5048 C   0  0  1  0  0  0  0  0  0  0  0  0
    3.1942    1.1341    1.1254 C   0  0  0  0  0  0  0  0  0  0  0  0
    3.1079    2.4700    0.7276 C   0  0  0  0  0  0  0  0  0  0  0  0
    3.7795    3.4447    1.4737 C   0  0  0  0  0  0  0  0  0  0  0  0
    4.5238    3.0873    2.6058 C   0  0  0  0  0  0  0  0  0  0  0  0
    4.6089    1.7487    3.0043 C   0  0  0  0  0  0  0  0  0  0  0  0
    3.9401    0.7800    2.2540 C   0  0  0  0  0  0  0  0  0  0  0  0
    3.8869   -0.7113    2.4703 C   0  0  0  0  0  0  0  0  0  0  0  0
    3.1211   -1.1836    1.3104 N   0  0  0  0  0  0  0  0  0  0  0  0
    3.0180   -2.4741    0.8671 C   0  0  0  0  0  0  0  0  0  0  0  0
    2.4197   -2.7336   -0.1728 O   0  0  0  0  0  0  0  0  0  0  0  0
    3.6981   -3.5618    1.7056 C   0  0  1  0  0  0  0  0  0  0  0  0
    2.9261   -4.9000    1.6626 C   0  0  0  0  0  0  0  0  0  0  0  0
    3.1492   -5.6791    0.3627 C   0  0  0  0  0  0  0  0  0  0  0  0
    4.5303   -5.8487    0.0868 O   0  0  0  0  0  0  0  0  0  0  0  0
    5.1993   -4.6148   -0.0664 C   0  0  0  0  0  0  0  0  0  0  0  0
    5.1555   -3.7967    1.2263 C   0  0  0  0  0  0  0  0  0  0  0  0
    0.6341    0.7989   -0.0506 H   0  0  0  0  0  0  0  0  0  0  0  0
    0.6477    0.0699    1.5779 H   0  0  0  0  0  0  0  0  0  0  0  0
    0.6075   -0.9775    0.1208 H   0  0  0  0  0  0  0  0  0  0  0  0
    2.8571   -0.2225   -0.5450 H   0  0  0  0  0  0  0  0  0  0  0  0
    2.5276    2.7544   -0.1543 H   0  0  0  0  0  0  0  0  0  0  0  0
    3.7242    4.4934    1.1708 H   0  0  0  0  0  0  0  0  0  0  0  0
    5.0430    3.8587    3.1799 H   0  0  0  0  0  0  0  0  0  0  0  0
    5.1921    1.4716    3.8869 H   0  0  0  0  0  0  0  0  0  0  0  0
    3.3942   -0.9675    3.4283 H   0  0  0  0  0  0  0  0  0  0  0  0
    4.8980   -1.1523    2.5004 H   0  0  0  0  0  0  0  0  0  0  0  0
    3.7305   -3.2244    2.7527 H   0  0  0  0  0  0  0  0  0  0  0  0
    1.8476   -4.7288    1.8110 H   0  0  0  0  0  0  0  0  0  0  0  0
    3.2787   -5.5183    2.5060 H   0  0  0  0  0  0  0  0  0  0  0  0
    2.6513   -5.1579   -0.4732 H   0  0  0  0  0  0  0  0  0  0  0  0
    2.7244   -6.6916    0.4479 H   0  0  0  0  0  0  0  0  0  0  0  0
    4.7573   -4.0344   -0.9008 H   0  0  0  0  0  0  0  0  0  0  0  0
    6.2417   -4.8502   -0.3337 H   0  0  0  0  0  0  0  0  0  0  0  0
    5.6877   -2.8408    1.0830 H   0  0  0  0  0  0  0  0  0  0  0  0
    5.6951   -4.3551    2.0101 H   0  0  0  0  0  0  0  0  0  0  0  0
  1  2  1  0
  1 19  1  0
  1 20  1  0
  1 21  1  0
  2  3  1  0
  2 10  1  0
  2 22  1  6
  3  4  2  0
  3  8  1  0
  4  5  1  0
  4 23  1  0
  5  6  2  0
  5 24  1  0
  6  7  1  0
  6 25  1  0
  7  8  2  0
  7 26  1  0
  8  9  1  0
  9 10  1  0
  9 27  1  0
  9 28  1  0
 10 11  1  0
 11 12  2  0
 11 13  1  0
 13 14  1  0
 13 18  1  0
 13 29  1  1
 14 15  1  0
 14 30  1  0
 14 31  1  0
 15 16  1  0
 15 32  1  0
 15 33  1  0
 16 17  1  0
 17 18  1  0
 17 34  1  0
 17 35  1  0
 18 36  1  0
 18 37  1  0
M  END

