
     RDKit          3D

 49 50  0  0  0  0  0  0  0  0999 V2000
    5.5412    4.1243   -6.1859 C   0  0  0  0  0  0  0  0  0  0  0  0
    6.0230    3.2407   -5.0613 C   0  0  0  0  0  0  0  0  0  0  0  0
    5.4983    3.3783   -3.7660 C   0  0  0  0  0  0  0  0  0  0  0  0
    5.9213    2.5785   -2.7084 C   0  0  0  0  0  0  0  0  0  0  0  0
    6.9018    1.5998   -2.9269 C   0  0  0  0  0  0  0  0  0  0  0  0
    7.2651    0.8550   -1.8487 O   0  0  0  0  0  0  0  0  0  0  0  0
    8.2429   -0.1599   -1.9906 C   0  0  0  0  0  0  0  0  0  0  0  0
    8.4523   -0.8027   -0.6278 C   0  0  0  0  0  0  0  0  0  0  0  0
    9.4965   -1.9249   -0.6458 C   0  0  0  0  0  0  0  0  0  0  0  0
   10.8216   -1.4762   -1.0663 N   0  0  0  0  0  0  0  0  0  0  0  0
   11.5872   -0.7381   -0.0691 C   0  0  0  0  0  0  0  0  0  0  0  0
   12.2939   -1.6303    0.9754 C   0  0  2  0  0  0  0  0  0  0  0  0
   13.1170   -0.7990    1.9606 C   0  0  0  0  0  0  0  0  0  0  0  0
   13.1530   -2.6856    0.2580 C   0  0  0  0  0  0  0  0  0  0  0  0
   12.3434   -3.4556   -0.8078 C   0  0  2  0  0  0  0  0  0  0  0  0
   13.2003   -4.4457   -1.5940 C   0  0  0  0  0  0  0  0  0  0  0  0
   13.2993   -4.4536   -2.7909 O   0  0  0  0  0  0  0  0  0  0  0  0
   13.8702   -5.3607   -0.8521 O   0  0  0  0  0  0  0  0  0  0  0  0
   11.6448   -2.4579   -1.7553 C   0  0  0  0  0  0  0  0  0  0  0  0
    7.4385    1.4470   -4.2136 C   0  0  0  0  0  0  0  0  0  0  0  0
    7.0099    2.2557   -5.2792 C   0  0  0  0  0  0  0  0  0  0  0  0
    7.6099    2.0636   -6.6511 C   0  0  0  0  0  0  0  0  0  0  0  0
    4.7734    4.8304   -5.8364 H   0  0  0  0  0  0  0  0  0  0  0  0
    5.1024    3.5383   -7.0122 H   0  0  0  0  0  0  0  0  0  0  0  0
    6.3620    4.7169   -6.6261 H   0  0  0  0  0  0  0  0  0  0  0  0
    4.7325    4.1378   -3.5819 H   0  0  0  0  0  0  0  0  0  0  0  0
    5.5073    2.6920   -1.7045 H   0  0  0  0  0  0  0  0  0  0  0  0
    9.1947    0.2576   -2.3628 H   0  0  0  0  0  0  0  0  0  0  0  0
    7.9058   -0.9174   -2.7257 H   0  0  0  0  0  0  0  0  0  0  0  0
    7.4930   -1.2133   -0.2707 H   0  0  0  0  0  0  0  0  0  0  0  0
    8.7339   -0.0157    0.0918 H   0  0  0  0  0  0  0  0  0  0  0  0
    9.1690   -2.6982   -1.3610 H   0  0  0  0  0  0  0  0  0  0  0  0
    9.4967   -2.4179    0.3510 H   0  0  0  0  0  0  0  0  0  0  0  0
   10.9281   -0.0169    0.4392 H   0  0  0  0  0  0  0  0  0  0  0  0
   12.3558   -0.1386   -0.5937 H   0  0  0  0  0  0  0  0  0  0  0  0
   11.5126   -2.1668    1.5461 H   0  0  0  0  0  0  0  0  0  0  0  0
   13.9046   -0.2295    1.4382 H   0  0  0  0  0  0  0  0  0  0  0  0
   13.6107   -1.4357    2.7127 H   0  0  0  0  0  0  0  0  0  0  0  0
   12.4850   -0.0745    2.4994 H   0  0  0  0  0  0  0  0  0  0  0  0
   13.5923   -3.3703    1.0069 H   0  0  0  0  0  0  0  0  0  0  0  0
   14.0063   -2.1844   -0.2363 H   0  0  0  0  0  0  0  0  0  0  0  0
   11.5700   -4.0542   -0.2871 H   0  0  0  0  0  0  0  0  0  0  0  0
   13.6939   -5.2269    0.0900 H   0  0  0  0  0  0  0  0  0  0  0  0
   11.0381   -3.0009   -2.4939 H   0  0  0  0  0  0  0  0  0  0  0  0
   12.4268   -1.9301   -2.3290 H   0  0  0  0  0  0  0  0  0  0  0  0
    8.2033    0.6939   -4.4070 H   0  0  0  0  0  0  0  0  0  0  0  0
    8.3614    1.2607   -6.6550 H   0  0  0  0  0  0  0  0  0  0  0  0
    8.0998    2.9840   -7.0127 H   0  0  0  0  0  0  0  0  0  0  0  0
    6.8400    1.8070   -7.3989 H   0  0  0  0  0  0  0  0  0  0  0  0
  1  2  1  0
  1 23  1  0
  1 24  1  0
  1 25  1  0
  2  3  2  0
  2 21  1  0
  3  4  1  0
  3 26  1  0
  4  5  2  0
  4 27  1  0
  5  6  1  0
  5 20  1  0
  6  7  1  0
  7  8  1  0
  7 28  1  0
  7 29  1  0
  8  9  1  0
  8 30  1  0
  8 31  1  0
  9 10  1  0
  9 32  1  0
  9 33  1  0
 10 11  1  0
 10 19  1  0
 11 12  1  0
 11 34  1  0
 11 35  1  0
 12 13  1  0
 12 14  1  0
 12 36  1  1
 13 37  1  0
 13 38  1  0
 13 39  1  0
 14 15  1  0
 14 40  1  0
 14 41  1  0
 15 16  1  0
 15 19  1  0
 15 42  1  1
 16 17  2  0
 16 18  1  0
 18 43  1  0
 19 44  1  0
 19 45  1  0
 20 21  2  0
 20 46  1  0
 21 22  1  0
 22 47  1  0
 22 48  1  0
 22 49  1  0
M  END

