
     RDKit          3D

 55 58  0  0  0  0  0  0  0  0999 V2000
    9.7108   -3.2830   -1.3482 C   0  0  0  0  0  0  0  0  0  0  0  0
    8.3433   -2.7691   -1.7012 C   0  0  0  0  0  0  0  0  0  0  0  0
    7.4252   -2.7617   -0.7688 N   0  0  0  0  0  0  0  0  0  0  0  0
    6.1928   -2.3053   -1.0314 N   0  0  0  0  0  0  0  0  0  0  0  0
    5.2468   -2.3411    0.0942 C   0  0  0  0  0  0  0  0  0  0  0  0
    4.3472   -3.5795    0.1169 C   0  0  0  0  0  0  0  0  0  0  0  0
    5.1011   -4.8964    0.2966 C   0  0  0  0  0  0  0  0  0  0  0  0
    4.1495   -6.0896    0.4201 C   0  0  0  0  0  0  0  0  0  0  0  0
    2.9380   -5.9248    0.4278 O   0  0  0  0  0  0  0  0  0  0  0  0
    4.7113   -7.3425    0.5294 N   0  0  0  0  0  0  0  0  0  0  0  0
    3.8422   -8.5085    0.6499 C   0  0  0  0  0  0  0  0  0  0  0  0
    4.1174   -9.5369   -0.4584 C   0  0  2  0  0  0  0  0  0  0  0  0
    3.2356  -10.7763   -0.2950 C   0  0  0  0  0  0  0  0  0  0  0  0
    5.6138   -9.8870   -0.4869 C   0  0  0  0  0  0  0  0  0  0  0  0
    6.5111   -8.6425   -0.5742 C   0  0  2  0  0  0  0  0  0  0  0  0
    7.9991   -8.9948   -0.5216 C   0  0  0  0  0  0  0  0  0  0  0  0
    6.1344   -7.6471    0.5387 C   0  0  0  0  0  0  0  0  0  0  0  0
    5.7294   -1.8060   -2.2668 C   0  0  0  0  0  0  0  0  0  0  0  0
    4.5751   -1.4179   -2.3978 O   0  0  0  0  0  0  0  0  0  0  0  0
    6.7520   -1.8140   -3.3033 C   0  0  0  0  0  0  0  0  0  0  0  0
    8.0216   -2.2879   -3.0111 C   0  0  0  0  0  0  0  0  0  0  0  0
    9.1038   -2.2127   -4.3872 S   0  0  0  0  0  0  0  0  0  0  0  0
    7.8261   -1.5269   -5.3889 C   0  0  0  0  0  0  0  0  0  0  0  0
    7.9310   -1.1619   -6.7362 C   0  0  0  0  0  0  0  0  0  0  0  0
    6.8044   -0.6332   -7.3643 C   0  0  0  0  0  0  0  0  0  0  0  0
    5.5933   -0.4704   -6.6642 C   0  0  0  0  0  0  0  0  0  0  0  0
    5.4868   -0.8325   -5.3255 C   0  0  0  0  0  0  0  0  0  0  0  0
    6.6126   -1.3688   -4.6692 C   0  0  0  0  0  0  0  0  0  0  0  0
    9.7285   -3.5938   -0.2956 H   0  0  0  0  0  0  0  0  0  0  0  0
   10.4787   -2.5060   -1.5015 H   0  0  0  0  0  0  0  0  0  0  0  0
    9.9888   -4.1438   -1.9798 H   0  0  0  0  0  0  0  0  0  0  0  0
    4.6209   -1.4426    0.0124 H   0  0  0  0  0  0  0  0  0  0  0  0
    5.8590   -2.2752    1.0044 H   0  0  0  0  0  0  0  0  0  0  0  0
    3.7426   -3.6098   -0.8019 H   0  0  0  0  0  0  0  0  0  0  0  0
    3.6244   -3.4608    0.9393 H   0  0  0  0  0  0  0  0  0  0  0  0
    5.7405   -4.8506    1.1964 H   0  0  0  0  0  0  0  0  0  0  0  0
    5.7928   -5.0600   -0.5460 H   0  0  0  0  0  0  0  0  0  0  0  0
    2.8059   -8.1503    0.6179 H   0  0  0  0  0  0  0  0  0  0  0  0
    4.0081   -8.9848    1.6376 H   0  0  0  0  0  0  0  0  0  0  0  0
    3.8632   -9.0511   -1.4188 H   0  0  0  0  0  0  0  0  0  0  0  0
    3.4420  -11.2889    0.6604 H   0  0  0  0  0  0  0  0  0  0  0  0
    3.4134  -11.5015   -1.1053 H   0  0  0  0  0  0  0  0  0  0  0  0
    2.1658  -10.5127   -0.3081 H   0  0  0  0  0  0  0  0  0  0  0  0
    5.8297  -10.5664   -1.3299 H   0  0  0  0  0  0  0  0  0  0  0  0
    5.8689  -10.4472    0.4342 H   0  0  0  0  0  0  0  0  0  0  0  0
    6.3020   -8.1403   -1.5374 H   0  0  0  0  0  0  0  0  0  0  0  0
    8.2593   -9.4835    0.4330 H   0  0  0  0  0  0  0  0  0  0  0  0
    8.6327   -8.0980   -0.6210 H   0  0  0  0  0  0  0  0  0  0  0  0
    8.2715   -9.6882   -1.3331 H   0  0  0  0  0  0  0  0  0  0  0  0
    6.7217   -6.7272    0.4357 H   0  0  0  0  0  0  0  0  0  0  0  0
    6.4056   -8.0902    1.5192 H   0  0  0  0  0  0  0  0  0  0  0  0
    8.8686   -1.2870   -7.2822 H   0  0  0  0  0  0  0  0  0  0  0  0
    6.8649   -0.3418   -8.4158 H   0  0  0  0  0  0  0  0  0  0  0  0
    4.7258   -0.0538   -7.1816 H   0  0  0  0  0  0  0  0  0  0  0  0
    4.5590   -0.7157   -4.7643 H   0  0  0  0  0  0  0  0  0  0  0  0
  1  2  1  0
  1 29  1  0
  1 30  1  0
  1 31  1  0
  2  3  2  0
  2 21  1  0
  3  4  1  0
  4  5  1  0
  4 18  1  0
  5  6  1  0
  5 32  1  0
  5 33  1  0
  6  7  1  0
  6 34  1  0
  6 35  1  0
  7  8  1  0
  7 36  1  0
  7 37  1  0
  8  9  2  0
  8 10  1  0
 10 11  1  0
 10 17  1  0
 11 12  1  0
 11 38  1  0
 11 39  1  0
 12 13  1  0
 12 14  1  0
 12 40  1  6
 13 41  1  0
 13 42  1  0
 13 43  1  0
 14 15  1  0
 14 44  1  0
 14 45  1  0
 15 16  1  0
 15 17  1  0
 15 46  1  6
 16 47  1  0
 16 48  1  0
 16 49  1  0
 17 50  1  0
 17 51  1  0
 18 19  2  0
 18 20  1  0
 20 21  2  0
 20 28  1  0
 21 22  1  0
 22 23  1  0
 23 24  1  0
 23 28  2  0
 24 25  2  0
 24 52  1  0
 25 26  1  0
 25 53  1  0
 26 27  2  0
 26 54  1  0
 27 28  1  0
 27 55  1  0
M  END

