
     RDKit          3D

 54 56  0  0  0  0  0  0  0  0999 V2000
    3.1954    1.3953   -0.1848 C   0  0  0  0  0  0  0  0  0  0  0  0
    2.4947    0.0905   -0.5762 C   0  0  0  0  0  0  0  0  0  0  0  0
    3.0035   -1.2263    0.0776 C   0  0  1  0  0  0  0  0  0  0  0  0
    2.8263   -1.1225    1.6098 C   0  0  0  0  0  0  0  0  0  0  0  0
    2.0898   -2.3673   -0.4176 C   0  0  0  0  0  0  0  0  0  0  0  0
    4.5287   -1.4596   -0.2366 C   0  0  2  0  0  0  0  0  0  0  0  0
    5.0033   -1.2303   -1.6915 C   0  0  0  0  0  0  0  0  0  0  0  0
    4.5995   -2.3035   -2.7144 C   0  0  0  0  0  0  0  0  0  0  0  0
    4.7552   -3.6943   -2.1557 C   0  0  0  0  0  0  0  0  0  0  0  0
    4.9634   -3.8942   -0.8189 C   0  0  0  0  0  0  0  0  0  0  0  0
    5.1019   -5.5915   -0.4090 S   0  0  0  0  0  0  0  0  0  0  0  0
    4.8631   -6.0504   -2.0699 C   0  0  0  0  0  0  0  0  0  0  0  0
    4.8505   -7.3730   -2.4703 N   0  0  0  0  0  0  0  0  0  0  0  0
    5.0180   -8.4626   -1.6452 C   0  0  0  0  0  0  0  0  0  0  0  0
    5.2424   -8.3382   -0.4511 O   0  0  0  0  0  0  0  0  0  0  0  0
    4.9185   -9.8058   -2.3058 C   0  0  0  0  0  0  0  0  0  0  0  0
    5.4350  -10.9070   -1.6045 C   0  0  0  0  0  0  0  0  0  0  0  0
    5.3746  -12.1910   -2.1431 C   0  0  0  0  0  0  0  0  0  0  0  0
    4.7763  -12.3806   -3.3936 C   0  0  0  0  0  0  0  0  0  0  0  0
    4.6845  -14.1305   -4.1377 Br  0  0  0  0  0  0  0  0  0  0  0  0
    4.2372  -11.3023   -4.1016 C   0  0  0  0  0  0  0  0  0  0  0  0
    4.3111  -10.0206   -3.5537 C   0  0  0  0  0  0  0  0  0  0  0  0
    4.6870   -4.9378   -2.8990 C   0  0  0  0  0  0  0  0  0  0  0  0
    4.4436   -4.9723   -4.3474 C   0  0  0  0  0  0  0  0  0  0  0  0
    4.2407   -4.0125   -5.0560 O   0  0  0  0  0  0  0  0  0  0  0  0
    4.4671   -6.2403   -4.8778 O   0  0  0  0  0  0  0  0  0  0  0  0
    4.2533   -6.3281   -6.2884 C   0  0  0  0  0  0  0  0  0  0  0  0
    5.0832   -2.8289    0.2368 C   0  0  0  0  0  0  0  0  0  0  0  0
    2.7303    2.2490   -0.7038 H   0  0  0  0  0  0  0  0  0  0  0  0
    4.2642    1.3994   -0.4513 H   0  0  0  0  0  0  0  0  0  0  0  0
    3.1237    1.5965    0.8956 H   0  0  0  0  0  0  0  0  0  0  0  0
    2.5251   -0.0212   -1.6733 H   0  0  0  0  0  0  0  0  0  0  0  0
    1.4227    0.1836   -0.3269 H   0  0  0  0  0  0  0  0  0  0  0  0
    1.7852   -0.8620    1.8615 H   0  0  0  0  0  0  0  0  0  0  0  0
    3.4805   -0.3557    2.0534 H   0  0  0  0  0  0  0  0  0  0  0  0
    3.0493   -2.0760    2.1131 H   0  0  0  0  0  0  0  0  0  0  0  0
    1.0481   -2.1680   -0.1158 H   0  0  0  0  0  0  0  0  0  0  0  0
    2.3733   -3.3409    0.0088 H   0  0  0  0  0  0  0  0  0  0  0  0
    2.0987   -2.4656   -1.5122 H   0  0  0  0  0  0  0  0  0  0  0  0
    5.0531   -0.6996    0.3659 H   0  0  0  0  0  0  0  0  0  0  0  0
    6.1070   -1.1958   -1.6572 H   0  0  0  0  0  0  0  0  0  0  0  0
    4.6895   -0.2422   -2.0571 H   0  0  0  0  0  0  0  0  0  0  0  0
    5.2054   -2.1959   -3.6266 H   0  0  0  0  0  0  0  0  0  0  0  0
    3.5615   -2.1617   -3.0616 H   0  0  0  0  0  0  0  0  0  0  0  0
    4.7594   -7.4903   -3.4771 H   0  0  0  0  0  0  0  0  0  0  0  0
    5.8852  -10.7334   -0.6254 H   0  0  0  0  0  0  0  0  0  0  0  0
    5.7856  -13.0416   -1.5970 H   0  0  0  0  0  0  0  0  0  0  0  0
    3.7564  -11.4648   -5.0674 H   0  0  0  0  0  0  0  0  0  0  0  0
    3.8581   -9.1933   -4.1056 H   0  0  0  0  0  0  0  0  0  0  0  0
    4.3213   -7.3935   -6.5430 H   0  0  0  0  0  0  0  0  0  0  0  0
    5.0176   -5.7568   -6.8351 H   0  0  0  0  0  0  0  0  0  0  0  0
    3.2633   -5.9326   -6.5596 H   0  0  0  0  0  0  0  0  0  0  0  0
    6.1490   -2.7026    0.5036 H   0  0  0  0  0  0  0  0  0  0  0  0
    4.5907   -3.1564    1.1661 H   0  0  0  0  0  0  0  0  0  0  0  0
  1  2  1  0
  1 29  1  0
  1 30  1  0
  1 31  1  0
  3  2  1  6
  2 32  1  0
  2 33  1  0
  3  4  1  0
  3  5  1  0
  3  6  1  0
  4 34  1  0
  4 35  1  0
  4 36  1  0
  5 37  1  0
  5 38  1  0
  5 39  1  0
  6  7  1  0
  6 28  1  0
  6 40  1  1
  7  8  1  0
  7 41  1  0
  7 42  1  0
  8  9  1  0
  8 43  1  0
  8 44  1  0
  9 10  2  0
  9 23  1  0
 10 11  1  0
 10 28  1  0
 11 12  2  0
 12 13  1  0
 12 23  1  0
 13 14  1  0
 13 45  1  0
 14 15  2  0
 14 16  1  0
 16 17  2  0
 16 22  1  0
 17 18  1  0
 17 46  1  0
 18 19  2  0
 18 47  1  0
 19 20  1  0
 19 21  1  0
 21 22  2  0
 21 48  1  0
 22 49  1  0
 23 24  2  0
 24 25  1  0
 24 26  1  0
 26 27  1  0
 27 50  1  0
 27 51  1  0
 27 52  1  0
 28 53  1  0
 28 54  1  0
M  CHG  2  11   1  25  -1
M  END

