
     RDKit          3D

 49 52  0  0  0  0  0  0  0  0999 V2000
    5.3149   -0.7976   -2.7727 C   0  0  0  0  0  0  0  0  0  0  0  0
    4.0698   -1.3874   -2.0970 C   0  0  1  0  0  0  0  0  0  0  0  0
    4.0098   -1.1108   -0.5839 C   0  0  0  0  0  0  0  0  0  0  0  0
    3.6853    0.3565   -0.2657 C   0  0  2  0  0  0  0  0  0  0  0  0
    3.5132    0.6024    1.2347 C   0  0  0  0  0  0  0  0  0  0  0  0
    2.4272    0.7895   -1.0320 C   0  0  0  0  0  0  0  0  0  0  0  0
    2.5044    0.5043   -2.4706 N   0  0  0  0  0  0  0  0  0  0  0  0
    2.1182    1.4176   -3.3966 C   0  0  0  0  0  0  0  0  0  0  0  0
    2.0728    2.7993   -3.3431 C   0  0  0  0  0  0  0  0  0  0  0  0
    2.6143    3.7671   -2.3939 C   0  0  0  0  0  0  0  0  0  0  0  0
    2.0243    4.9311   -1.9417 C   0  0  0  0  0  0  0  0  0  0  0  0
    2.8768    5.7192   -1.1151 C   0  0  0  0  0  0  0  0  0  0  0  0
    4.1211    5.1645   -0.9523 C   0  0  0  0  0  0  0  0  0  0  0  0
    4.2738    3.6776   -1.8207 S   0  0  0  0  0  0  0  0  0  0  0  0
    1.4316    3.2942   -4.5784 C   0  0  0  0  0  0  0  0  0  0  0  0
    1.1877    4.4334   -4.8969 O   0  0  0  0  0  0  0  0  0  0  0  0
    1.1238    2.1542   -5.3916 N   0  0  0  0  0  0  0  0  0  0  0  0
    0.4959    2.2092   -6.6626 C   0  0  0  0  0  0  0  0  0  0  0  0
    0.7683    3.2787   -7.5343 C   0  0  0  0  0  0  0  0  0  0  0  0
    0.1491    3.3418   -8.7787 C   0  0  0  0  0  0  0  0  0  0  0  0
   -0.7442    2.3335   -9.1842 C   0  0  0  0  0  0  0  0  0  0  0  0
   -1.3766    2.3959  -10.4716 C   0  0  0  0  0  0  0  0  0  0  0  0
   -1.8882    2.4456  -11.5132 N   0  0  0  0  0  0  0  0  0  0  0  0
   -1.0091    1.2623   -8.3117 C   0  0  0  0  0  0  0  0  0  0  0  0
   -0.4008    1.2021   -7.0616 C   0  0  0  0  0  0  0  0  0  0  0  0
    1.4979    0.9899   -4.7256 C   0  0  0  0  0  0  0  0  0  0  0  0
    1.3226   -0.1388   -5.1271 O   0  0  0  0  0  0  0  0  0  0  0  0
    2.7682   -0.9110   -2.7682 C   0  0  0  0  0  0  0  0  0  0  0  0
    6.2352   -1.1616   -2.2886 H   0  0  0  0  0  0  0  0  0  0  0  0
    5.3294    0.3027   -2.7309 H   0  0  0  0  0  0  0  0  0  0  0  0
    5.3597   -1.0868   -3.8351 H   0  0  0  0  0  0  0  0  0  0  0  0
    4.0984   -2.4821   -2.2400 H   0  0  0  0  0  0  0  0  0  0  0  0
    4.9606   -1.3996   -0.1045 H   0  0  0  0  0  0  0  0  0  0  0  0
    3.2279   -1.7507   -0.1337 H   0  0  0  0  0  0  0  0  0  0  0  0
    4.5170    0.9875   -0.6209 H   0  0  0  0  0  0  0  0  0  0  0  0
    2.6672    0.0226    1.6421 H   0  0  0  0  0  0  0  0  0  0  0  0
    3.3266    1.6671    1.4488 H   0  0  0  0  0  0  0  0  0  0  0  0
    4.4171    0.3028    1.7882 H   0  0  0  0  0  0  0  0  0  0  0  0
    2.2257    1.8553   -0.8792 H   0  0  0  0  0  0  0  0  0  0  0  0
    1.5548    0.2329   -0.6313 H   0  0  0  0  0  0  0  0  0  0  0  0
    1.0053    5.2094   -2.2095 H   0  0  0  0  0  0  0  0  0  0  0  0
    2.5766    6.6630   -0.6575 H   0  0  0  0  0  0  0  0  0  0  0  0
    4.9604    5.5465   -0.3725 H   0  0  0  0  0  0  0  0  0  0  0  0
    1.4537    4.0667   -7.2296 H   0  0  0  0  0  0  0  0  0  0  0  0
    0.3631    4.1762   -9.4491 H   0  0  0  0  0  0  0  0  0  0  0  0
   -1.7020    0.4758   -8.6163 H   0  0  0  0  0  0  0  0  0  0  0  0
   -0.6108    0.3656   -6.3986 H   0  0  0  0  0  0  0  0  0  0  0  0
    2.8119   -1.0549   -3.8502 H   0  0  0  0  0  0  0  0  0  0  0  0
    1.9195   -1.5169   -2.3969 H   0  0  0  0  0  0  0  0  0  0  0  0
  1  2  1  0
  1 29  1  0
  1 30  1  0
  1 31  1  0
  2  3  1  0
  2 28  1  0
  2 32  1  1
  3  4  1  0
  3 33  1  0
  3 34  1  0
  4  5  1  0
  4  6  1  0
  4 35  1  6
  5 36  1  0
  5 37  1  0
  5 38  1  0
  6  7  1  0
  6 39  1  0
  6 40  1  0
  7  8  1  0
  7 28  1  0
  8  9  1  0
  8 26  2  0
  9 10  2  0
  9 15  1  0
 10 11  1  0
 10 14  1  0
 11 12  2  0
 11 41  1  0
 12 13  1  0
 12 42  1  0
 13 14  2  0
 13 43  1  0
 15 16  2  0
 15 17  1  0
 17 18  1  0
 17 26  1  0
 18 19  2  0
 18 25  1  0
 19 20  1  0
 19 44  1  0
 20 21  2  0
 20 45  1  0
 21 22  1  0
 21 24  1  0
 22 23  3  0
 24 25  2  0
 24 46  1  0
 25 47  1  0
 26 27  1  0
 28 48  1  0
 28 49  1  0
M  CHG  2  14   1  27  -1
M  END

