
     RDKit          3D

 79 83  0  0  0  0  0  0  0  0999 V2000
    0.4497   -0.5452    0.0242 C   0  0  0  0  0  0  0  0  0  0  0  0
    1.9321   -0.2879   -0.0810 C   0  0  0  0  0  0  0  0  0  0  0  0
    2.4555    0.9922    0.1348 C   0  0  0  0  0  0  0  0  0  0  0  0
    3.8212    1.2571    0.0449 C   0  0  0  0  0  0  0  0  0  0  0  0
    4.7073    0.2231   -0.2814 C   0  0  0  0  0  0  0  0  0  0  0  0
    6.1729    0.5681   -0.3649 C   0  0  0  0  0  0  0  0  0  0  0  0
    6.6089    1.5981    0.1278 O   0  0  0  0  0  0  0  0  0  0  0  0
    6.9488   -0.3458   -1.0423 N   0  0  0  0  0  0  0  0  0  0  0  0
    8.3369   -0.3443   -1.2693 C   0  0  0  0  0  0  0  0  0  0  0  0
    9.1806    0.6636   -0.7856 C   0  0  0  0  0  0  0  0  0  0  0  0
   10.5763    0.6193   -1.0218 C   0  0  0  0  0  0  0  0  0  0  0  0
   11.3956    1.6124   -0.5154 N   0  0  0  0  0  0  0  0  0  0  0  0
   10.8112    2.7444    0.1798 C   0  0  0  0  0  0  0  0  0  0  0  0
   12.8386    1.5867   -0.6907 C   0  0  0  0  0  0  0  0  0  0  0  0
   13.3179    2.2748   -1.9818 C   0  0  0  0  0  0  0  0  0  0  0  0
   14.7684    2.3158   -2.0921 N   0  0  0  0  0  0  0  0  0  0  0  0
   15.3597    1.0379   -2.4461 C   0  0  0  0  0  0  0  0  0  0  0  0
   15.2412    3.3821   -2.9545 C   0  0  0  0  0  0  0  0  0  0  0  0
   11.0926   -0.4625   -1.7761 C   0  0  0  0  0  0  0  0  0  0  0  0
   10.2358   -1.4547   -2.2509 C   0  0  0  0  0  0  0  0  0  0  0  0
   10.7986   -2.5584   -3.1116 C   0  0  1  0  0  0  0  0  0  0  0  0
   12.0820   -2.8344   -2.8118 F   0  0  0  0  0  0  0  0  0  0  0  0
   10.1031   -3.7040   -2.9838 F   0  0  0  0  0  0  0  0  0  0  0  0
   10.7696   -2.2330   -4.4206 F   0  0  0  0  0  0  0  0  0  0  0  0
    8.8635   -1.4193   -2.0067 C   0  0  0  0  0  0  0  0  0  0  0  0
    4.2125   -1.0719   -0.4878 C   0  0  0  0  0  0  0  0  0  0  0  0
    2.8362   -1.3363   -0.3946 C   0  0  0  0  0  0  0  0  0  0  0  0
    2.3039   -2.6170   -0.5928 N   0  0  0  0  0  0  0  0  0  0  0  0
    2.8858   -3.8000   -0.9341 C   0  0  0  0  0  0  0  0  0  0  0  0
    4.1801   -3.9569   -1.1551 N   0  0  0  0  0  0  0  0  0  0  0  0
    4.6266   -5.1970   -1.4887 C   0  0  0  0  0  0  0  0  0  0  0  0
    3.9215   -6.2934   -1.6255 N   0  0  0  0  0  0  0  0  0  0  0  0
    2.5829   -6.1592   -1.4040 C   0  0  0  0  0  0  0  0  0  0  0  0
    1.6758   -7.2513   -1.5111 C   0  0  0  0  0  0  0  0  0  0  0  0
    0.3875   -7.1249   -1.2986 N   0  0  0  0  0  0  0  0  0  0  0  0
   -0.0849   -5.8848   -0.9613 C   0  0  0  0  0  0  0  0  0  0  0  0
   -1.4140   -5.7822   -0.7477 N   0  0  0  0  0  0  0  0  0  0  0  0
   -2.3472   -6.8726   -0.8485 C   0  0  0  0  0  0  0  0  0  0  0  0
   -3.7535   -6.3919   -0.5370 C   0  0  0  0  0  0  0  0  0  0  0  0
   -4.8342   -7.2881   -0.5730 C   0  0  0  0  0  0  0  0  0  0  0  0
   -6.1103   -6.8125   -0.2814 C   0  0  0  0  0  0  0  0  0  0  0  0
   -6.2722   -5.4598    0.0371 C   0  0  0  0  0  0  0  0  0  0  0  0
   -5.1390   -4.6471    0.0472 C   0  0  0  0  0  0  0  0  0  0  0  0
   -3.9125   -5.1018   -0.2325 N   0  0  0  0  0  0  0  0  0  0  0  0
    0.6659   -4.7860   -0.8303 N   0  0  0  0  0  0  0  0  0  0  0  0
    1.9822   -4.9329   -1.0509 C   0  0  0  0  0  0  0  0  0  0  0  0
   -0.0930    0.3792    0.2653 H   0  0  0  0  0  0  0  0  0  0  0  0
    0.2132   -1.2809    0.8135 H   0  0  0  0  0  0  0  0  0  0  0  0
    0.0309   -0.9383   -0.9191 H   0  0  0  0  0  0  0  0  0  0  0  0
    1.7655    1.8040    0.3811 H   0  0  0  0  0  0  0  0  0  0  0  0
    4.2213    2.2561    0.2229 H   0  0  0  0  0  0  0  0  0  0  0  0
    6.4518   -1.1154   -1.4736 H   0  0  0  0  0  0  0  0  0  0  0  0
    8.7273    1.4713   -0.2230 H   0  0  0  0  0  0  0  0  0  0  0  0
   10.2839    2.4397    1.1021 H   0  0  0  0  0  0  0  0  0  0  0  0
   10.0870    3.2939   -0.4474 H   0  0  0  0  0  0  0  0  0  0  0  0
   11.6092    3.4431    0.4634 H   0  0  0  0  0  0  0  0  0  0  0  0
   13.1925    0.5462   -0.6478 H   0  0  0  0  0  0  0  0  0  0  0  0
   13.3102    2.0977    0.1631 H   0  0  0  0  0  0  0  0  0  0  0  0
   12.9460    3.3124   -1.9642 H   0  0  0  0  0  0  0  0  0  0  0  0
   12.8381    1.7907   -2.8635 H   0  0  0  0  0  0  0  0  0  0  0  0
   15.0631    0.2535   -1.7338 H   0  0  0  0  0  0  0  0  0  0  0  0
   16.4585    1.1092   -2.4120 H   0  0  0  0  0  0  0  0  0  0  0  0
   15.0746    0.6921   -3.4673 H   0  0  0  0  0  0  0  0  0  0  0  0
   14.8548    4.3539   -2.6086 H   0  0  0  0  0  0  0  0  0  0  0  0
   14.9402    3.2575   -4.0211 H   0  0  0  0  0  0  0  0  0  0  0  0
   16.3419    3.4293   -2.9258 H   0  0  0  0  0  0  0  0  0  0  0  0
   12.1532   -0.5385   -2.0024 H   0  0  0  0  0  0  0  0  0  0  0  0
    8.2144   -2.2139   -2.3785 H   0  0  0  0  0  0  0  0  0  0  0  0
    4.8629   -1.9180   -0.6989 H   0  0  0  0  0  0  0  0  0  0  0  0
    1.2984   -2.7262   -0.4749 H   0  0  0  0  0  0  0  0  0  0  0  0
    5.7073   -5.2715   -1.6591 H   0  0  0  0  0  0  0  0  0  0  0  0
    2.0675   -8.2396   -1.7822 H   0  0  0  0  0  0  0  0  0  0  0  0
   -1.8137   -4.8815   -0.4932 H   0  0  0  0  0  0  0  0  0  0  0  0
   -2.0775   -7.6944   -0.1590 H   0  0  0  0  0  0  0  0  0  0  0  0
   -2.3274   -7.3239   -1.8581 H   0  0  0  0  0  0  0  0  0  0  0  0
   -4.6690   -8.3385   -0.8261 H   0  0  0  0  0  0  0  0  0  0  0  0
   -6.9702   -7.4869   -0.3017 H   0  0  0  0  0  0  0  0  0  0  0  0
   -7.2542   -5.0441    0.2724 H   0  0  0  0  0  0  0  0  0  0  0  0
   -5.2200   -3.5819    0.2912 H   0  0  0  0  0  0  0  0  0  0  0  0
  1  2  1  0
  1 47  1  0
  1 48  1  0
  1 49  1  0
  2  3  2  0
  2 27  1  0
  3  4  1  0
  3 50  1  0
  4  5  2  0
  4 51  1  0
  5  6  1  0
  5 26  1  0
  6  7  2  0
  6  8  1  0
  8  9  1  0
  8 52  1  0
  9 10  2  0
  9 25  1  0
 10 11  1  0
 10 53  1  0
 11 12  1  0
 11 19  2  0
 12 13  1  0
 12 14  1  0
 13 54  1  0
 13 55  1  0
 13 56  1  0
 14 15  1  0
 14 57  1  0
 14 58  1  0
 15 16  1  0
 15 59  1  0
 15 60  1  0
 16 17  1  0
 16 18  1  0
 17 61  1  0
 17 62  1  0
 17 63  1  0
 18 64  1  0
 18 65  1  0
 18 66  1  0
 19 20  1  0
 19 67  1  0
 20 21  1  0
 20 25  2  0
 21 22  1  1
 21 23  1  0
 21 24  1  0
 25 68  1  0
 26 27  2  0
 26 69  1  0
 27 28  1  0
 28 29  1  0
 28 70  1  0
 29 30  2  0
 29 46  1  0
 30 31  1  0
 31 32  2  0
 31 71  1  0
 32 33  1  0
 33 34  1  0
 33 46  2  0
 34 35  2  0
 34 72  1  0
 35 36  1  0
 36 37  1  0
 36 45  2  0
 37 38  1  0
 37 73  1  0
 38 39  1  0
 38 74  1  0
 38 75  1  0
 39 40  2  0
 39 44  1  0
 40 41  1  0
 40 76  1  0
 41 42  2  0
 41 77  1  0
 42 43  1  0
 42 78  1  0
 43 44  2  0
 43 79  1  0
 45 46  1  0
M  END

