
     RDKit          3D

 45 46  0  0  0  0  0  0  0  0999 V2000
    0.5340   -0.0159    0.1362 C   0  0  0  0  0  0  0  0  0  0  0  0
    2.0388    0.1074    0.1047 C   0  0  0  0  0  0  0  0  0  0  0  0
    2.6372    1.3695    0.0657 C   0  0  0  0  0  0  0  0  0  0  0  0
    4.0254    1.5043    0.0383 C   0  0  0  0  0  0  0  0  0  0  0  0
    4.6269    2.7533    0.0888 O   0  0  0  0  0  0  0  0  0  0  0  0
    4.5427    3.6211   -0.9402 C   0  0  0  0  0  0  0  0  0  0  0  0
    5.1315    4.7953   -0.7052 N   0  0  0  0  0  0  0  0  0  0  0  0
    5.0893    5.6775   -1.6996 C   0  0  0  0  0  0  0  0  0  0  0  0
    4.4671    5.4066   -2.9234 C   0  0  0  0  0  0  0  0  0  0  0  0
    3.8846    4.1452   -3.0418 C   0  0  0  0  0  0  0  0  0  0  0  0
    3.9180    3.2483   -2.0546 N   0  0  0  0  0  0  0  0  0  0  0  0
    4.8378    0.3752    0.0580 C   0  0  0  0  0  0  0  0  0  0  0  0
    4.2649   -0.8969    0.0977 C   0  0  0  0  0  0  0  0  0  0  0  0
    2.8693   -1.0431    0.1192 C   0  0  0  0  0  0  0  0  0  0  0  0
    2.2230   -2.3005    0.1582 N   0  0  0  0  0  0  0  0  0  0  0  0
    2.7756   -3.5601    0.2057 C   0  0  0  0  0  0  0  0  0  0  0  0
    3.9952   -3.7626    0.1987 O   0  0  0  0  0  0  0  0  0  0  0  0
    1.8802   -4.6034    0.2624 N   0  0  0  0  0  0  0  0  0  0  0  0
    0.4467   -4.4075    0.3925 C   0  0  0  0  0  0  0  0  0  0  0  0
    2.4554   -5.9501    0.2587 C   0  0  0  0  0  0  0  0  0  0  0  0
    3.1022   -6.3869    1.6099 C   0  0  1  0  0  0  0  0  0  0  0  0
    2.2635   -7.4161    2.3659 C   0  0  0  0  0  0  0  0  0  0  0  0
    4.5441   -6.8878    1.4003 C   0  0  0  0  0  0  0  0  0  0  0  0
    4.9206   -7.9741    1.7623 O   0  0  0  0  0  0  0  0  0  0  0  0
    5.3596   -6.0259    0.7881 O   0  0  0  0  0  0  0  0  0  0  0  0
    0.0574    0.9737    0.1296 H   0  0  0  0  0  0  0  0  0  0  0  0
    0.1790   -0.5405    1.0418 H   0  0  0  0  0  0  0  0  0  0  0  0
    0.1435   -0.5661   -0.7397 H   0  0  0  0  0  0  0  0  0  0  0  0
    2.0118    2.2639    0.0573 H   0  0  0  0  0  0  0  0  0  0  0  0
    5.5716    6.6454   -1.5157 H   0  0  0  0  0  0  0  0  0  0  0  0
    4.4388    6.1369   -3.7331 H   0  0  0  0  0  0  0  0  0  0  0  0
    3.3728    3.8407   -3.9627 H   0  0  0  0  0  0  0  0  0  0  0  0
    5.9227    0.4947    0.0466 H   0  0  0  0  0  0  0  0  0  0  0  0
    4.8927   -1.7835    0.1104 H   0  0  0  0  0  0  0  0  0  0  0  0
    1.2151   -2.2528    0.1212 H   0  0  0  0  0  0  0  0  0  0  0  0
    0.1829   -3.8254    1.2940 H   0  0  0  0  0  0  0  0  0  0  0  0
   -0.0442   -5.3844    0.4793 H   0  0  0  0  0  0  0  0  0  0  0  0
    0.0102   -3.9023   -0.4899 H   0  0  0  0  0  0  0  0  0  0  0  0
    3.1949   -5.9997   -0.5535 H   0  0  0  0  0  0  0  0  0  0  0  0
    1.6511   -6.6505   -0.0070 H   0  0  0  0  0  0  0  0  0  0  0  0
    3.1968   -5.4759    2.2264 H   0  0  0  0  0  0  0  0  0  0  0  0
    2.1765   -8.3489    1.7874 H   0  0  0  0  0  0  0  0  0  0  0  0
    1.2504   -7.0296    2.5644 H   0  0  0  0  0  0  0  0  0  0  0  0
    2.7306   -7.6760    3.3260 H   0  0  0  0  0  0  0  0  0  0  0  0
    4.9005   -5.1752    0.5758 H   0  0  0  0  0  0  0  0  0  0  0  0
  1  2  1  0
  1 26  1  0
  1 27  1  0
  1 28  1  0
  2  3  2  0
  2 14  1  0
  3  4  1  0
  3 29  1  0
  4  5  1  0
  4 12  2  0
  5  6  1  0
  6  7  2  0
  6 11  1  0
  7  8  1  0
  8  9  2  0
  8 30  1  0
  9 10  1  0
  9 31  1  0
 10 11  2  0
 10 32  1  0
 12 13  1  0
 12 33  1  0
 13 14  2  0
 13 34  1  0
 14 15  1  0
 15 16  1  0
 15 35  1  0
 16 17  2  0
 16 18  1  0
 18 19  1  0
 18 20  1  0
 19 36  1  0
 19 37  1  0
 19 38  1  0
 20 21  1  0
 20 39  1  0
 20 40  1  0
 21 22  1  0
 21 23  1  0
 21 41  1  1
 22 42  1  0
 22 43  1  0
 22 44  1  0
 23 24  2  0
 23 25  1  0
 25 45  1  0
M  END

