
     RDKit          3D

 92100  0  0  0  0  0  0  0  0999 V2000
    6.6096   -2.7928   -1.7699 O   0  0  0  0  0  0  0  0  0  0  0  0
    6.0209   -1.8727   -1.2653 C   0  0  0  0  0  0  0  0  0  0  0  0
    5.5338   -1.9836   -0.0072 O   0  0  0  0  0  0  0  0  0  0  0  0
    5.7752   -0.5679   -1.9676 C   0  0  0  0  0  0  0  0  0  0  0  0
    5.9466   -0.5285   -3.3600 C   0  0  0  0  0  0  0  0  0  0  0  0
    5.7391    0.6515   -4.0653 C   0  0  0  0  0  0  0  0  0  0  0  0
    5.3650    1.8446   -3.4092 C   0  0  0  0  0  0  0  0  0  0  0  0
    5.1144    3.0790   -4.1896 C   0  0  0  0  0  0  0  0  0  0  0  0
    4.6102    3.0348   -5.4792 C   0  0  0  0  0  0  0  0  0  0  0  0
    4.3602    4.1879   -6.2705 C   0  0  0  0  0  0  0  0  0  0  0  0
    4.6014    5.4841   -5.8406 C   0  0  0  0  0  0  0  0  0  0  0  0
    4.3466    6.6546   -6.7055 C   0  0  0  0  0  0  0  0  0  0  0  0
    3.9518    7.9074   -6.1914 C   0  0  0  0  0  0  0  0  0  0  0  0
    3.6722    8.9819   -7.0295 C   0  0  0  0  0  0  0  0  0  0  0  0
    3.7978    8.8647   -8.4277 C   0  0  0  0  0  0  0  0  0  0  0  0
    3.5285    9.9578   -9.2784 N   0  0  0  0  0  0  0  0  0  0  0  0
    3.8512   11.2827   -8.8700 C   0  0  0  0  0  0  0  0  0  0  0  0
    5.0967   11.5685   -8.2828 C   0  0  0  0  0  0  0  0  0  0  0  0
    5.4052   12.8699   -7.8836 C   0  0  0  0  0  0  0  0  0  0  0  0
    4.4889   13.9088   -8.0773 C   0  0  0  0  0  0  0  0  0  0  0  0
    3.2530   13.6299   -8.6696 C   0  0  0  0  0  0  0  0  0  0  0  0
    2.9299   12.3283   -9.0570 C   0  0  0  0  0  0  0  0  0  0  0  0
    2.9305    9.7523  -10.5509 C   0  0  0  0  0  0  0  0  0  0  0  0
    1.8475    8.8691  -10.7080 C   0  0  0  0  0  0  0  0  0  0  0  0
    1.2617    8.6799  -11.9574 C   0  0  0  0  0  0  0  0  0  0  0  0
    1.7204    9.3670  -13.0974 C   0  0  0  0  0  0  0  0  0  0  0  0
    1.1111    9.1522  -14.4440 C   0  0  0  0  0  0  0  0  0  0  0  0
   -0.2426    9.1707  -14.6546 C   0  0  0  0  0  0  0  0  0  0  0  0
   -0.8679    8.7074  -15.9319 C   0  0  0  0  0  0  0  0  0  0  0  0
   -0.5320    7.4659  -16.5041 C   0  0  0  0  0  0  0  0  0  0  0  0
   -1.1441    7.0278  -17.6802 C   0  0  0  0  0  0  0  0  0  0  0  0
   -2.1043    7.8226  -18.3138 C   0  0  0  0  0  0  0  0  0  0  0  0
   -2.4565    9.0543  -17.7527 C   0  0  0  0  0  0  0  0  0  0  0  0
   -1.8535    9.4859  -16.5697 C   0  0  0  0  0  0  0  0  0  0  0  0
   -1.2105    9.6583  -13.6232 C   0  0  0  0  0  0  0  0  0  0  0  0
   -1.0382   10.9040  -12.9908 C   0  0  0  0  0  0  0  0  0  0  0  0
   -1.9631   11.3674  -12.0529 C   0  0  0  0  0  0  0  0  0  0  0  0
   -3.0800   10.5937  -11.7222 C   0  0  0  0  0  0  0  0  0  0  0  0
   -3.2708    9.3582  -12.3491 C   0  0  0  0  0  0  0  0  0  0  0  0
   -2.3527    8.9017  -13.2970 C   0  0  0  0  0  0  0  0  0  0  0  0
    2.0936    8.9181  -15.5483 C   0  0  0  0  0  0  0  0  0  0  0  0
    2.0333    9.6514  -16.7481 C   0  0  0  0  0  0  0  0  0  0  0  0
    2.9731    9.4497  -17.7610 C   0  0  0  0  0  0  0  0  0  0  0  0
    3.9933    8.5074  -17.5990 C   0  0  0  0  0  0  0  0  0  0  0  0
    4.0726    7.7772  -16.4088 C   0  0  0  0  0  0  0  0  0  0  0  0
    3.1400    7.9887  -15.3914 C   0  0  0  0  0  0  0  0  0  0  0  0
    2.8162   10.2363  -12.9307 C   0  0  0  0  0  0  0  0  0  0  0  0
    3.4085   10.4324  -11.6854 C   0  0  0  0  0  0  0  0  0  0  0  0
    4.2109    7.6226   -8.9507 C   0  0  0  0  0  0  0  0  0  0  0  0
    4.4702    6.5486   -8.1073 C   0  0  0  0  0  0  0  0  0  0  0  0
    5.1251    5.5910   -4.4989 C   0  0  0  0  0  0  0  0  0  0  0  0
    5.4528    6.7256   -3.8747 N   0  0  0  0  0  0  0  0  0  0  0  0
    6.0180    6.3275   -2.3916 S   0  0  0  0  0  0  0  0  0  0  0  0
    5.8757    4.6981   -2.4779 N   0  0  0  0  0  0  0  0  0  0  0  0
    5.3752    4.4027   -3.6811 C   0  0  0  0  0  0  0  0  0  0  0  0
    5.2293    1.8052   -2.0069 C   0  0  0  0  0  0  0  0  0  0  0  0
    5.4273    0.6185   -1.3030 C   0  0  0  0  0  0  0  0  0  0  0  0
    4.9797   -1.2212    0.2092 H   0  0  0  0  0  0  0  0  0  0  0  0
    6.2539   -1.4429   -3.8708 H   0  0  0  0  0  0  0  0  0  0  0  0
    5.8986    0.6572   -5.1454 H   0  0  0  0  0  0  0  0  0  0  0  0
    4.3548    2.0655   -5.9122 H   0  0  0  0  0  0  0  0  0  0  0  0
    3.9251    4.0331   -7.2596 H   0  0  0  0  0  0  0  0  0  0  0  0
    3.8438    8.0369   -5.1155 H   0  0  0  0  0  0  0  0  0  0  0  0
    3.3456    9.9288   -6.5967 H   0  0  0  0  0  0  0  0  0  0  0  0
    5.8211   10.7641   -8.1417 H   0  0  0  0  0  0  0  0  0  0  0  0
    6.3780   13.0750   -7.4289 H   0  0  0  0  0  0  0  0  0  0  0  0
    4.7363   14.9275   -7.7697 H   0  0  0  0  0  0  0  0  0  0  0  0
    2.5253   14.4314   -8.8216 H   0  0  0  0  0  0  0  0  0  0  0  0
    1.9594   12.1126   -9.5079 H   0  0  0  0  0  0  0  0  0  0  0  0
    1.4635    8.3280   -9.8411 H   0  0  0  0  0  0  0  0  0  0  0  0
    0.4223    7.9884  -12.0505 H   0  0  0  0  0  0  0  0  0  0  0  0
    0.2140    6.8366  -16.0151 H   0  0  0  0  0  0  0  0  0  0  0  0
   -0.8708    6.0573  -18.1026 H   0  0  0  0  0  0  0  0  0  0  0  0
   -2.5813    7.4807  -19.2359 H   0  0  0  0  0  0  0  0  0  0  0  0
   -3.2094    9.6819  -18.2371 H   0  0  0  0  0  0  0  0  0  0  0  0
   -2.1430   10.4448  -16.1334 H   0  0  0  0  0  0  0  0  0  0  0  0
   -0.1710   11.5163  -13.2463 H   0  0  0  0  0  0  0  0  0  0  0  0
   -1.8130   12.3421  -11.5809 H   0  0  0  0  0  0  0  0  0  0  0  0
   -3.8025   10.9553  -10.9860 H   0  0  0  0  0  0  0  0  0  0  0  0
   -4.1432    8.7475  -12.1020 H   0  0  0  0  0  0  0  0  0  0  0  0
   -2.5162    7.9405  -13.7902 H   0  0  0  0  0  0  0  0  0  0  0  0
    1.2417   10.3910  -16.8825 H   0  0  0  0  0  0  0  0  0  0  0  0
    2.9091   10.0351  -18.6820 H   0  0  0  0  0  0  0  0  0  0  0  0
    4.7272    8.3477  -18.3931 H   0  0  0  0  0  0  0  0  0  0  0  0
    4.8685    7.0406  -16.2699 H   0  0  0  0  0  0  0  0  0  0  0  0
    3.2154    7.4207  -14.4610 H   0  0  0  0  0  0  0  0  0  0  0  0
    3.2151   10.7679  -13.7978 H   0  0  0  0  0  0  0  0  0  0  0  0
    4.2541   11.1157  -11.5858 H   0  0  0  0  0  0  0  0  0  0  0  0
    4.3441    7.5089  -10.0276 H   0  0  0  0  0  0  0  0  0  0  0  0
    4.8201    5.6131   -8.5495 H   0  0  0  0  0  0  0  0  0  0  0  0
    4.9753    2.7145   -1.4649 H   0  0  0  0  0  0  0  0  0  0  0  0
    5.3333    0.6453   -0.2127 H   0  0  0  0  0  0  0  0  0  0  0  0
  1  2  2  0
  2  3  1  0
  2  4  1  0
  3 58  1  0
  4  5  2  0
  4 57  1  0
  5  6  1  0
  5 59  1  0
  6  7  2  0
  6 60  1  0
  7  8  1  0
  7 56  1  0
  8  9  2  0
  8 55  1  0
  9 10  1  0
  9 61  1  0
 10 11  2  0
 10 62  1  0
 11 12  1  0
 11 51  1  0
 12 13  2  0
 12 50  1  0
 13 14  1  0
 13 63  1  0
 14 15  2  0
 14 64  1  0
 15 16  1  0
 15 49  1  0
 16 17  1  0
 16 23  1  0
 17 18  2  0
 17 22  1  0
 18 19  1  0
 18 65  1  0
 19 20  2  0
 19 66  1  0
 20 21  1  0
 20 67  1  0
 21 22  2  0
 21 68  1  0
 22 69  1  0
 23 24  2  0
 23 48  1  0
 24 25  1  0
 24 70  1  0
 25 26  2  0
 25 71  1  0
 26 27  1  0
 26 47  1  0
 27 28  2  0
 27 41  1  0
 28 29  1  0
 28 35  1  0
 29 30  2  0
 29 34  1  0
 30 31  1  0
 30 72  1  0
 31 32  2  0
 31 73  1  0
 32 33  1  0
 32 74  1  0
 33 34  2  0
 33 75  1  0
 34 76  1  0
 35 36  2  0
 35 40  1  0
 36 37  1  0
 36 77  1  0
 37 38  2  0
 37 78  1  0
 38 39  1  0
 38 79  1  0
 39 40  2  0
 39 80  1  0
 40 81  1  0
 41 42  2  0
 41 46  1  0
 42 43  1  0
 42 82  1  0
 43 44  2  0
 43 83  1  0
 44 45  1  0
 44 84  1  0
 45 46  2  0
 45 85  1  0
 46 86  1  0
 47 48  2  0
 47 87  1  0
 48 88  1  0
 49 50  2  0
 49 89  1  0
 50 90  1  0
 51 52  2  0
 51 55  1  0
 52 53  1  0
 53 54  1  0
 54 55  2  0
 56 57  2  0
 56 91  1  0
 57 92  1  0
M  END

