
     RDKit          3D

 44 46  0  0  0  0  0  0  0  0999 V2000
    1.0598   -0.9155    0.8000 O   0  0  0  0  0  0  0  0  0  0  0  0
    2.0813   -0.4963    0.2889 C   0  0  0  0  0  0  0  0  0  0  0  0
    2.8051   -1.2710   -0.8190 C   0  0  0  0  0  0  0  0  0  0  0  0
    1.8213   -2.0909   -1.6478 C   0  0  0  0  0  0  0  0  0  0  0  0
    2.7690   -3.1802   -2.7852 S   0  0  0  0  0  0  0  0  0  0  0  0
    1.4390   -3.7809   -3.7450 C   0  0  0  0  0  0  0  0  0  0  0  0
    0.1794   -3.4827   -3.6966 N   0  0  0  0  0  0  0  0  0  0  0  0
   -0.4294   -4.2435   -4.6896 N   0  0  0  0  0  0  0  0  0  0  0  0
    0.4947   -4.9419   -5.2617 C   0  0  0  0  0  0  0  0  0  0  0  0
    0.4022   -5.9538   -6.3623 C   0  0  1  0  0  0  0  0  0  0  0  0
   -1.0446   -6.1156   -6.8728 C   0  0  0  0  0  0  0  0  0  0  0  0
   -1.5098   -4.9386   -7.7425 C   0  0  0  0  0  0  0  0  0  0  0  0
   -0.5312   -4.6525   -8.8891 C   0  0  0  0  0  0  0  0  0  0  0  0
    0.8968   -4.4409   -8.3691 C   0  0  0  0  0  0  0  0  0  0  0  0
    1.3708   -5.6321   -7.5272 C   0  0  0  0  0  0  0  0  0  0  0  0
    1.7249   -4.6951   -4.7055 O   0  0  0  0  0  0  0  0  0  0  0  0
    2.7130    0.6689    0.6523 N   0  0  0  0  0  0  0  0  0  0  0  0
    2.3759    1.5873    1.6691 C   0  0  0  0  0  0  0  0  0  0  0  0
    1.2512    1.4398    2.5002 C   0  0  0  0  0  0  0  0  0  0  0  0
    0.9940    2.3994    3.4829 C   0  0  0  0  0  0  0  0  0  0  0  0
    1.8319    3.5041    3.6563 C   0  0  0  0  0  0  0  0  0  0  0  0
    2.9489    3.6485    2.8277 C   0  0  0  0  0  0  0  0  0  0  0  0
    3.2199    2.6997    1.8427 C   0  0  0  0  0  0  0  0  0  0  0  0
    3.5308   -1.9405   -0.3211 H   0  0  0  0  0  0  0  0  0  0  0  0
    3.3903   -0.5926   -1.4616 H   0  0  0  0  0  0  0  0  0  0  0  0
    1.1596   -1.4534   -2.2499 H   0  0  0  0  0  0  0  0  0  0  0  0
    1.1884   -2.7063   -0.9954 H   0  0  0  0  0  0  0  0  0  0  0  0
    0.7261   -6.9111   -5.9140 H   0  0  0  0  0  0  0  0  0  0  0  0
   -1.7274   -6.2533   -6.0207 H   0  0  0  0  0  0  0  0  0  0  0  0
   -1.0796   -7.0452   -7.4676 H   0  0  0  0  0  0  0  0  0  0  0  0
   -1.6125   -4.0429   -7.1081 H   0  0  0  0  0  0  0  0  0  0  0  0
   -2.5144   -5.1549   -8.1429 H   0  0  0  0  0  0  0  0  0  0  0  0
   -0.8630   -3.7710   -9.4629 H   0  0  0  0  0  0  0  0  0  0  0  0
   -0.5344   -5.5025   -9.5974 H   0  0  0  0  0  0  0  0  0  0  0  0
    0.9314   -3.5194   -7.7594 H   0  0  0  0  0  0  0  0  0  0  0  0
    1.5941   -4.2800   -9.2084 H   0  0  0  0  0  0  0  0  0  0  0  0
    2.3852   -5.4574   -7.1346 H   0  0  0  0  0  0  0  0  0  0  0  0
    1.4322   -6.5300   -8.1666 H   0  0  0  0  0  0  0  0  0  0  0  0
    3.5498    0.9022    0.1305 H   0  0  0  0  0  0  0  0  0  0  0  0
    0.5971    0.5818    2.3654 H   0  0  0  0  0  0  0  0  0  0  0  0
    0.1169    2.2750    4.1234 H   0  0  0  0  0  0  0  0  0  0  0  0
    1.6175    4.2464    4.4287 H   0  0  0  0  0  0  0  0  0  0  0  0
    3.6168    4.5054    2.9463 H   0  0  0  0  0  0  0  0  0  0  0  0
    4.0966    2.8201    1.1984 H   0  0  0  0  0  0  0  0  0  0  0  0
  1  2  2  0
  2  3  1  0
  2 17  1  0
  3  4  1  0
  3 24  1  0
  3 25  1  0
  4  5  1  0
  4 26  1  0
  4 27  1  0
  5  6  1  0
  6  7  2  0
  6 16  1  0
  7  8  1  0
  8  9  2  0
  9 10  1  0
  9 16  1  0
 10 11  1  0
 10 15  1  0
 10 28  1  1
 11 12  1  0
 11 29  1  0
 11 30  1  0
 12 13  1  0
 12 31  1  0
 12 32  1  0
 13 14  1  0
 13 33  1  0
 13 34  1  0
 14 15  1  0
 14 35  1  0
 14 36  1  0
 15 37  1  0
 15 38  1  0
 17 18  1  0
 17 39  1  0
 18 19  2  0
 18 23  1  0
 19 20  1  0
 19 40  1  0
 20 21  2  0
 20 41  1  0
 21 22  1  0
 21 42  1  0
 22 23  2  0
 22 43  1  0
 23 44  1  0
M  END

