
     RDKit          3D

 34 35  0  0  0  0  0  0  0  0999 V2000
    2.9004   -2.7209    0.0781 C   0  0  0  0  0  0  0  0  0  0  0  0
    3.4655   -1.3391    0.0765 C   0  0  0  0  0  0  0  0  0  0  0  0
    4.6864   -1.0048    0.4427 N   0  0  0  0  0  0  0  0  0  0  0  0
    4.7622    0.3480    0.2723 C   0  0  0  0  0  0  0  0  0  0  0  0
    6.1962    1.3155    0.6841 S   0  0  1  0  0  0  0  0  0  0  0  0
    5.9134    2.6507    0.1496 O   0  0  0  0  0  0  0  0  0  0  0  0
    6.5167    1.1014    2.0946 O   0  0  0  0  0  0  0  0  0  0  0  0
    7.4657    0.6805   -0.1927 N   0  0  0  0  0  0  0  0  0  0  0  0
    8.3351   -0.3434    0.3695 C   0  0  0  0  0  0  0  0  0  0  0  0
    8.0461   -1.6912   -0.2776 C   0  0  0  0  0  0  0  0  0  0  0  0
    8.0431   -1.5383   -1.7278 N   0  0  0  0  0  0  0  0  0  0  0  0
    7.7689   -0.4048   -2.4348 C   0  0  0  0  0  0  0  0  0  0  0  0
    7.7414   -0.3873   -3.6545 O   0  0  0  0  0  0  0  0  0  0  0  0
    7.5125    0.8924   -1.6446 C   0  0  2  0  0  0  0  0  0  0  0  0
    8.5138    1.9839   -2.0445 C   0  0  0  0  0  0  0  0  0  0  0  0
    3.5754    0.8566   -0.2043 C   0  0  0  0  0  0  0  0  0  0  0  0
    2.7457   -0.2327   -0.3243 N   0  0  0  0  0  0  0  0  0  0  0  0
    1.3734   -0.2235   -0.8003 C   0  0  0  0  0  0  0  0  0  0  0  0
    3.6670   -3.4121    0.4498 H   0  0  0  0  0  0  0  0  0  0  0  0
    2.5986   -3.0450   -0.9324 H   0  0  0  0  0  0  0  0  0  0  0  0
    2.0151   -2.8026    0.7311 H   0  0  0  0  0  0  0  0  0  0  0  0
    8.1781   -0.3814    1.4544 H   0  0  0  0  0  0  0  0  0  0  0  0
    9.3860   -0.0514    0.1917 H   0  0  0  0  0  0  0  0  0  0  0  0
    7.0713   -2.0642    0.0829 H   0  0  0  0  0  0  0  0  0  0  0  0
    8.8245   -2.4194    0.0056 H   0  0  0  0  0  0  0  0  0  0  0  0
    8.1451   -2.3653   -2.3090 H   0  0  0  0  0  0  0  0  0  0  0  0
    6.5130    1.2185   -1.9727 H   0  0  0  0  0  0  0  0  0  0  0  0
    9.5350    1.7243   -1.7225 H   0  0  0  0  0  0  0  0  0  0  0  0
    8.2232    2.9301   -1.5672 H   0  0  0  0  0  0  0  0  0  0  0  0
    8.5143    2.1042   -3.1368 H   0  0  0  0  0  0  0  0  0  0  0  0
    3.2761    1.8713   -0.4503 H   0  0  0  0  0  0  0  0  0  0  0  0
    1.0698    0.8112   -1.0040 H   0  0  0  0  0  0  0  0  0  0  0  0
    0.6933   -0.6441   -0.0438 H   0  0  0  0  0  0  0  0  0  0  0  0
    1.2730   -0.8070   -1.7288 H   0  0  0  0  0  0  0  0  0  0  0  0
  1  2  1  0
  1 19  1  0
  1 20  1  0
  1 21  1  0
  2  3  2  0
  2 17  1  0
  3  4  1  0
  5  4  1  6
  4 16  2  0
  5  6  2  0
  5  7  2  0
  5  8  1  0
  8  9  1  0
  8 14  1  0
  9 10  1  0
  9 22  1  0
  9 23  1  0
 10 11  1  0
 10 24  1  0
 10 25  1  0
 11 12  1  0
 11 26  1  0
 12 13  2  0
 12 14  1  0
 14 15  1  0
 14 27  1  6
 15 28  1  0
 15 29  1  0
 15 30  1  0
 16 17  1  0
 16 31  1  0
 17 18  1  0
 18 32  1  0
 18 33  1  0
 18 34  1  0
M  END

