
     RDKit          3D

 39 39  0  0  0  0  0  0  0  0999 V2000
    3.1152   -1.3583    0.4161 C   0  0  0  0  0  0  0  0  0  0  0  0
    4.6435   -1.5179    0.4452 C   0  0  1  0  0  0  0  0  0  0  0  0
    4.9937   -2.9915    0.7404 C   0  0  0  0  0  0  0  0  0  0  0  0
    5.1645   -1.0772   -0.8617 N   0  0  0  0  0  0  0  0  0  0  0  0
    5.2875   -0.6339    1.5389 C   0  0  0  0  0  0  0  0  0  0  0  0
    5.0455    0.8690    1.3962 C   0  0  0  0  0  0  0  0  0  0  0  0
    5.7363    1.6722    2.4916 C   0  0  0  0  0  0  0  0  0  0  0  0
    5.8725    1.2565    3.6327 O   0  0  0  0  0  0  0  0  0  0  0  0
    6.1653    2.9185    2.1212 N   0  0  0  0  0  0  0  0  0  0  0  0
    6.8061    3.8148    3.0641 C   0  0  0  0  0  0  0  0  0  0  0  0
    8.3135    3.5325    3.2489 C   0  0  0  0  0  0  0  0  0  0  0  0
    8.9471    4.4322    4.2842 C   0  0  0  0  0  0  0  0  0  0  0  0
    8.8136    4.1326    5.6501 C   0  0  0  0  0  0  0  0  0  0  0  0
    9.3664    4.9916    6.5961 C   0  0  0  0  0  0  0  0  0  0  0  0
    9.2397    4.6960    7.8962 F   0  0  0  0  0  0  0  0  0  0  0  0
   10.0544    6.1508    6.2417 C   0  0  0  0  0  0  0  0  0  0  0  0
   10.1719    6.4273    4.8823 C   0  0  0  0  0  0  0  0  0  0  0  0
   10.8299    7.5323    4.5053 F   0  0  0  0  0  0  0  0  0  0  0  0
    9.6329    5.5956    3.9027 C   0  0  0  0  0  0  0  0  0  0  0  0
    2.6688   -2.0464   -0.3217 H   0  0  0  0  0  0  0  0  0  0  0  0
    2.8248   -0.3365    0.1315 H   0  0  0  0  0  0  0  0  0  0  0  0
    2.6727   -1.5904    1.3975 H   0  0  0  0  0  0  0  0  0  0  0  0
    4.5773   -3.6540   -0.0367 H   0  0  0  0  0  0  0  0  0  0  0  0
    4.5962   -3.3215    1.7144 H   0  0  0  0  0  0  0  0  0  0  0  0
    6.0867   -3.1378    0.7597 H   0  0  0  0  0  0  0  0  0  0  0  0
    4.7268   -1.6161   -1.6109 H   0  0  0  0  0  0  0  0  0  0  0  0
    6.1644   -1.2808   -0.9207 H   0  0  0  0  0  0  0  0  0  0  0  0
    6.3770   -0.8199    1.5309 H   0  0  0  0  0  0  0  0  0  0  0  0
    4.9418   -0.9587    2.5324 H   0  0  0  0  0  0  0  0  0  0  0  0
    3.9670    1.0910    1.4818 H   0  0  0  0  0  0  0  0  0  0  0  0
    5.3504    1.2064    0.3933 H   0  0  0  0  0  0  0  0  0  0  0  0
    6.0894    3.1927    1.1497 H   0  0  0  0  0  0  0  0  0  0  0  0
    6.3012    3.7005    4.0349 H   0  0  0  0  0  0  0  0  0  0  0  0
    6.6525    4.8524    2.7274 H   0  0  0  0  0  0  0  0  0  0  0  0
    8.8261    3.6510    2.2803 H   0  0  0  0  0  0  0  0  0  0  0  0
    8.4188    2.4798    3.5526 H   0  0  0  0  0  0  0  0  0  0  0  0
    8.2892    3.2352    5.9850 H   0  0  0  0  0  0  0  0  0  0  0  0
   10.4853    6.8094    6.9959 H   0  0  0  0  0  0  0  0  0  0  0  0
    9.7633    5.8621    2.8519 H   0  0  0  0  0  0  0  0  0  0  0  0
  1  2  1  0
  1 20  1  0
  1 21  1  0
  1 22  1  0
  2  3  1  0
  2  4  1  6
  2  5  1  0
  3 23  1  0
  3 24  1  0
  3 25  1  0
  4 26  1  0
  4 27  1  0
  5  6  1  0
  5 28  1  0
  5 29  1  0
  6  7  1  0
  6 30  1  0
  6 31  1  0
  7  8  2  0
  7  9  1  0
  9 10  1  0
  9 32  1  0
 10 11  1  0
 10 33  1  0
 10 34  1  0
 11 12  1  0
 11 35  1  0
 11 36  1  0
 12 13  2  0
 12 19  1  0
 13 14  1  0
 13 37  1  0
 14 15  1  0
 14 16  2  0
 16 17  1  0
 16 38  1  0
 17 18  1  0
 17 19  2  0
 19 39  1  0
M  END

