
     RDKit          3D

 33 34  0  0  0  0  0  0  0  0999 V2000
    1.0331    0.6595   -0.1906 N   0  0  0  0  0  0  0  0  0  0  0  0
    2.2940    0.1473   -0.2820 C   0  0  0  0  0  0  0  0  0  0  0  0
    2.8194   -0.3678   -1.3406 N   0  0  0  0  0  0  0  0  0  0  0  0
    1.8743   -0.3751   -2.3914 O   0  0  0  0  0  0  0  0  0  0  0  0
    3.1385    0.2017    0.9865 C   0  0  1  0  0  0  0  0  0  0  0  0
    2.7168   -0.8372    1.9390 N   0  0  0  0  0  0  0  0  0  0  0  0
    1.6476   -0.6881    2.7654 C   0  0  0  0  0  0  0  0  0  0  0  0
    0.9303    0.3117    2.7284 O   0  0  0  0  0  0  0  0  0  0  0  0
    1.3829   -1.7965    3.7448 C   0  0  0  0  0  0  0  0  0  0  0  0
    1.8856   -3.0995    3.6172 C   0  0  0  0  0  0  0  0  0  0  0  0
    1.5777   -4.0740    4.5657 C   0  0  0  0  0  0  0  0  0  0  0  0
    0.7615   -3.7766    5.6669 C   0  0  0  0  0  0  0  0  0  0  0  0
    0.4422   -4.6851    6.6101 O   0  0  0  0  0  0  0  0  0  0  0  0
    0.2464   -2.4678    5.7864 C   0  0  0  0  0  0  0  0  0  0  0  0
   -0.7785   -2.0806    7.1410 Cl  0  0  0  0  0  0  0  0  0  0  0  0
    0.5477   -1.5010    4.8341 C   0  0  0  0  0  0  0  0  0  0  0  0
    4.6243    0.0919    0.7221 C   0  0  1  0  0  0  0  0  0  0  0  0
    5.4451    1.3369    0.5287 C   0  0  0  0  0  0  0  0  0  0  0  0
    5.6015    0.5241    1.7888 C   0  0  0  0  0  0  0  0  0  0  0  0
    0.4041    0.4505   -0.9565 H   0  0  0  0  0  0  0  0  0  0  0  0
    0.6493    0.7910    0.7426 H   0  0  0  0  0  0  0  0  0  0  0  0
    2.3740   -0.7618   -3.1195 H   0  0  0  0  0  0  0  0  0  0  0  0
    2.9204    1.1677    1.4724 H   0  0  0  0  0  0  0  0  0  0  0  0
    3.3300   -1.6344    2.0498 H   0  0  0  0  0  0  0  0  0  0  0  0
    2.4995   -3.3856    2.7600 H   0  0  0  0  0  0  0  0  0  0  0  0
    1.9663   -5.0908    4.4521 H   0  0  0  0  0  0  0  0  0  0  0  0
    0.8559   -5.5328    6.3985 H   0  0  0  0  0  0  0  0  0  0  0  0
    0.1340   -0.4959    4.9222 H   0  0  0  0  0  0  0  0  0  0  0  0
    4.8962   -0.7640    0.0974 H   0  0  0  0  0  0  0  0  0  0  0  0
    4.9365    2.3029    0.5998 H   0  0  0  0  0  0  0  0  0  0  0  0
    6.2440    1.3078   -0.2168 H   0  0  0  0  0  0  0  0  0  0  0  0
    5.1944    0.9367    2.7172 H   0  0  0  0  0  0  0  0  0  0  0  0
    6.5152   -0.0616    1.9237 H   0  0  0  0  0  0  0  0  0  0  0  0
  1  2  1  0
  1 20  1  0
  1 21  1  0
  2  3  2  0
  2  5  1  0
  3  4  1  0
  4 22  1  0
  5  6  1  0
  5 17  1  0
  5 23  1  1
  6  7  1  0
  6 24  1  0
  7  8  2  0
  7  9  1  0
  9 10  2  0
  9 16  1  0
 10 11  1  0
 10 25  1  0
 11 12  2  0
 11 26  1  0
 12 13  1  0
 12 14  1  0
 13 27  1  0
 14 15  1  0
 14 16  2  0
 16 28  1  0
 17 18  1  0
 17 19  1  0
 17 29  1  6
 18 19  1  0
 18 30  1  0
 18 31  1  0
 19 32  1  0
 19 33  1  0
M  END

