
     RDKit          3D

 34 35  0  0  0  0  0  0  0  0999 V2000
    1.3570   -0.3857    0.2994 C   0  0  0  0  0  0  0  0  0  0  0  0
    2.8047   -0.0577   -0.0867 C   0  0  1  0  0  0  0  0  0  0  0  0
    3.4856   -1.2411   -0.8008 C   0  0  0  0  0  0  0  0  0  0  0  0
    2.9416   -1.4682   -2.0833 O   0  0  0  0  0  0  0  0  0  0  0  0
    3.1113   -0.3413   -2.9253 C   0  0  0  0  0  0  0  0  0  0  0  0
    2.4453    0.8994   -2.3351 C   0  0  0  0  0  0  0  0  0  0  0  0
    2.9017    1.1230   -0.9621 N   0  0  0  0  0  0  0  0  0  0  0  0
    3.6746    2.2430   -0.7109 C   0  0  0  0  0  0  0  0  0  0  0  0
    4.0035    3.0112   -1.6043 O   0  0  0  0  0  0  0  0  0  0  0  0
    4.0957    2.5239    0.7122 C   0  0  0  0  0  0  0  0  0  0  0  0
    5.4298    2.8832    0.9243 C   0  0  0  0  0  0  0  0  0  0  0  0
    5.8700    3.2290    2.2168 C   0  0  0  0  0  0  0  0  0  0  0  0
    7.1833    3.6163    2.4304 N   0  0  0  0  0  0  0  0  0  0  0  0
    4.9459    3.2245    3.2767 C   0  0  0  0  0  0  0  0  0  0  0  0
    3.5963    2.8965    3.0634 C   0  0  0  0  0  0  0  0  0  0  0  0
    2.6800    2.9768    4.1029 N   0  0  0  0  0  0  0  0  0  0  0  0
    3.1758    2.5315    1.7685 C   0  0  0  0  0  0  0  0  0  0  0  0
    1.3390   -1.1940    1.0477 H   0  0  0  0  0  0  0  0  0  0  0  0
    0.7772   -0.7295   -0.5697 H   0  0  0  0  0  0  0  0  0  0  0  0
    0.8520    0.4923    0.7290 H   0  0  0  0  0  0  0  0  0  0  0  0
    3.3792    0.1555    0.8240 H   0  0  0  0  0  0  0  0  0  0  0  0
    3.3477   -2.1691   -0.2242 H   0  0  0  0  0  0  0  0  0  0  0  0
    4.5739   -1.0372   -0.8756 H   0  0  0  0  0  0  0  0  0  0  0  0
    2.6649   -0.5971   -3.8985 H   0  0  0  0  0  0  0  0  0  0  0  0
    4.1918   -0.1420   -3.0801 H   0  0  0  0  0  0  0  0  0  0  0  0
    1.3490    0.7704   -2.3423 H   0  0  0  0  0  0  0  0  0  0  0  0
    2.6988    1.7927   -2.9194 H   0  0  0  0  0  0  0  0  0  0  0  0
    6.1179    2.9157    0.0774 H   0  0  0  0  0  0  0  0  0  0  0  0
    7.8609    3.3381    1.7313 H   0  0  0  0  0  0  0  0  0  0  0  0
    7.5330    3.5648    3.3793 H   0  0  0  0  0  0  0  0  0  0  0  0
    5.2776    3.5081    4.2805 H   0  0  0  0  0  0  0  0  0  0  0  0
    3.0528    2.9455    5.0442 H   0  0  0  0  0  0  0  0  0  0  0  0
    1.8224    2.4490    3.9941 H   0  0  0  0  0  0  0  0  0  0  0  0
    2.1250    2.2955    1.5889 H   0  0  0  0  0  0  0  0  0  0  0  0
  1  2  1  0
  1 18  1  0
  1 19  1  0
  1 20  1  0
  2  3  1  0
  2  7  1  0
  2 21  1  1
  3  4  1  0
  3 22  1  0
  3 23  1  0
  4  5  1  0
  5  6  1  0
  5 24  1  0
  5 25  1  0
  6  7  1  0
  6 26  1  0
  6 27  1  0
  7  8  1  0
  8  9  2  0
  8 10  1  0
 10 11  2  0
 10 17  1  0
 11 12  1  0
 11 28  1  0
 12 13  1  0
 12 14  2  0
 13 29  1  0
 13 30  1  0
 14 15  1  0
 14 31  1  0
 15 16  1  0
 15 17  2  0
 16 32  1  0
 16 33  1  0
 17 34  1  0
M  END

