
     RDKit          3D

 35 37  0  0  0  0  0  0  0  0999 V2000
    1.2422   -0.2297   -0.2177 C   0  0  0  0  0  0  0  0  0  0  0  0
    2.6958   -0.1333   -0.1464 N   0  0  0  0  0  0  0  0  0  0  0  0
    3.3410   -1.0301    0.8010 C   0  0  0  0  0  0  0  0  0  0  0  0
    3.5328   -2.4638    0.3224 C   0  0  0  0  0  0  0  0  0  0  0  0
    3.4934   -2.8036   -1.0334 C   0  0  0  0  0  0  0  0  0  0  0  0
    3.7056   -4.1266   -1.4775 C   0  0  0  0  0  0  0  0  0  0  0  0
    3.9599   -5.0809   -0.5119 C   0  0  0  0  0  0  0  0  0  0  0  0
    4.0012   -4.7511    0.8474 C   0  0  0  0  0  0  0  0  0  0  0  0
    3.7897   -3.4616    1.2943 C   0  0  0  0  0  0  0  0  0  0  0  0
    4.2699   -5.8727    1.5770 O   0  0  0  0  0  0  0  0  0  0  0  0
    4.3543   -6.9539    0.6498 C   0  0  0  0  0  0  0  0  0  0  0  0
    4.2023   -6.4165   -0.6615 O   0  0  0  0  0  0  0  0  0  0  0  0
    3.2779    0.9755   -0.7181 C   0  0  0  0  0  0  0  0  0  0  0  0
    2.6101    1.8796   -1.2043 O   0  0  0  0  0  0  0  0  0  0  0  0
    4.7705    1.0751   -0.7781 C   0  0  0  0  0  0  0  0  0  0  0  0
    5.7959    0.1455   -0.8198 C   0  0  0  0  0  0  0  0  0  0  0  0
    7.0732    0.7342   -0.9920 C   0  0  0  0  0  0  0  0  0  0  0  0
    7.0221    2.1110   -1.0857 C   0  0  0  0  0  0  0  0  0  0  0  0
    8.2217    2.9767   -1.2604 C   0  0  0  0  0  0  0  0  0  0  0  0
    9.3378    2.5284   -1.2723 O   0  0  0  0  0  0  0  0  0  0  0  0
    8.0153    4.3044   -1.4086 O   0  0  0  0  0  0  0  0  0  0  0  0
    5.3858    2.6878   -0.9832 S   0  0  0  0  0  0  0  0  0  0  0  0
    0.9498   -1.2885   -0.2761 H   0  0  0  0  0  0  0  0  0  0  0  0
    0.8829    0.3054   -1.1039 H   0  0  0  0  0  0  0  0  0  0  0  0
    0.7654    0.2212    0.6717 H   0  0  0  0  0  0  0  0  0  0  0  0
    2.7337   -1.0448    1.7247 H   0  0  0  0  0  0  0  0  0  0  0  0
    4.3097   -0.6011    1.0956 H   0  0  0  0  0  0  0  0  0  0  0  0
    3.2850   -2.0251   -1.7699 H   0  0  0  0  0  0  0  0  0  0  0  0
    3.6698   -4.3870   -2.5363 H   0  0  0  0  0  0  0  0  0  0  0  0
    3.8199   -3.2283    2.3609 H   0  0  0  0  0  0  0  0  0  0  0  0
    3.5458   -7.6812    0.8517 H   0  0  0  0  0  0  0  0  0  0  0  0
    5.3392   -7.4450    0.7402 H   0  0  0  0  0  0  0  0  0  0  0  0
    5.6351   -0.9309   -0.7601 H   0  0  0  0  0  0  0  0  0  0  0  0
    8.0148    0.1880   -1.0533 H   0  0  0  0  0  0  0  0  0  0  0  0
    7.0738    4.5304   -1.4158 H   0  0  0  0  0  0  0  0  0  0  0  0
  1  2  1  0
  1 23  1  0
  1 24  1  0
  1 25  1  0
  2  3  1  0
  2 13  1  0
  3  4  1  0
  3 26  1  0
  3 27  1  0
  4  5  2  0
  4  9  1  0
  5  6  1  0
  5 28  1  0
  6  7  2  0
  6 29  1  0
  7  8  1  0
  7 12  1  0
  8  9  2  0
  8 10  1  0
  9 30  1  0
 10 11  1  0
 11 12  1  0
 11 31  1  0
 11 32  1  0
 13 14  2  0
 13 15  1  0
 15 16  2  0
 15 22  1  0
 16 17  1  0
 16 33  1  0
 17 18  2  0
 17 34  1  0
 18 19  1  0
 18 22  1  0
 19 20  2  0
 19 21  1  0
 21 35  1  0
M  END

