
     RDKit          3D

 37 38  0  0  0  0  0  0  0  0999 V2000
    4.9154    2.8161   -0.3645 C   0  0  0  0  0  0  0  0  0  0  0  0
    4.4296    1.4631    0.0918 C   0  0  0  0  0  0  0  0  0  0  0  0
    3.3685    1.3251    1.0006 C   0  0  0  0  0  0  0  0  0  0  0  0
    2.9671    0.0416    1.3756 C   0  0  0  0  0  0  0  0  0  0  0  0
    3.6312   -1.0612    0.8404 C   0  0  0  0  0  0  0  0  0  0  0  0
    4.6806   -0.8336   -0.0623 C   0  0  0  0  0  0  0  0  0  0  0  0
    5.4946   -1.9746   -0.6573 C   0  0  0  0  0  0  0  0  0  0  0  0
    4.7887   -3.2464   -0.6950 N   0  0  0  0  0  0  0  0  0  0  0  0
    3.8079   -3.3555   -1.7635 C   0  0  0  0  0  0  0  0  0  0  0  0
    5.5693   -4.4316   -0.4520 C   0  0  0  0  0  0  0  0  0  0  0  0
    6.5606   -4.8323   -1.5676 C   0  0  0  0  0  0  0  0  0  0  0  0
    6.7685   -4.0826   -2.4962 O   0  0  0  0  0  0  0  0  0  0  0  0
    7.2406   -6.1763   -1.4556 C   0  0  0  0  0  0  0  0  0  0  0  0
    7.4756   -6.7221   -0.1768 C   0  0  0  0  0  0  0  0  0  0  0  0
    8.1356   -7.9368   -0.0002 C   0  0  0  0  0  0  0  0  0  0  0  0
    8.5630   -8.6545   -1.1192 C   0  0  0  0  0  0  0  0  0  0  0  0
    8.3296   -8.1512   -2.3997 C   0  0  0  0  0  0  0  0  0  0  0  0
    7.6822   -6.9222   -2.5714 C   0  0  0  0  0  0  0  0  0  0  0  0
    7.3962   -6.3737   -4.3753 Br  0  0  0  0  0  0  0  0  0  0  0  0
    5.0589    0.3974   -0.4220 N   0  0  0  0  0  0  0  0  0  0  0  0
    4.3752    3.6379    0.1272 H   0  0  0  0  0  0  0  0  0  0  0  0
    4.7929    2.9164   -1.4553 H   0  0  0  0  0  0  0  0  0  0  0  0
    5.9920    2.9234   -0.1570 H   0  0  0  0  0  0  0  0  0  0  0  0
    2.8674    2.2095    1.4011 H   0  0  0  0  0  0  0  0  0  0  0  0
    2.1428   -0.0956    2.0812 H   0  0  0  0  0  0  0  0  0  0  0  0
    3.3587   -2.0858    1.0976 H   0  0  0  0  0  0  0  0  0  0  0  0
    6.3978   -2.0937   -0.0330 H   0  0  0  0  0  0  0  0  0  0  0  0
    5.8625   -1.6471   -1.6470 H   0  0  0  0  0  0  0  0  0  0  0  0
    3.1196   -2.4967   -1.7210 H   0  0  0  0  0  0  0  0  0  0  0  0
    3.2034   -4.2674   -1.6261 H   0  0  0  0  0  0  0  0  0  0  0  0
    4.2575   -3.3842   -2.7754 H   0  0  0  0  0  0  0  0  0  0  0  0
    4.8952   -5.2889   -0.2693 H   0  0  0  0  0  0  0  0  0  0  0  0
    6.1406   -4.3006    0.4847 H   0  0  0  0  0  0  0  0  0  0  0  0
    7.1513   -6.1701    0.7064 H   0  0  0  0  0  0  0  0  0  0  0  0
    8.3135   -8.3205    1.0068 H   0  0  0  0  0  0  0  0  0  0  0  0
    9.0772   -9.6116   -1.0016 H   0  0  0  0  0  0  0  0  0  0  0  0
    8.6499   -8.7112   -3.2797 H   0  0  0  0  0  0  0  0  0  0  0  0
  1  2  1  0
  1 21  1  0
  1 22  1  0
  1 23  1  0
  2  3  2  0
  2 20  1  0
  3  4  1  0
  3 24  1  0
  4  5  2  0
  4 25  1  0
  5  6  1  0
  5 26  1  0
  6  7  1  0
  6 20  2  0
  7  8  1  0
  7 27  1  0
  7 28  1  0
  8  9  1  0
  8 10  1  0
  9 29  1  0
  9 30  1  0
  9 31  1  0
 10 11  1  0
 10 32  1  0
 10 33  1  0
 11 12  2  0
 11 13  1  0
 13 14  2  0
 13 18  1  0
 14 15  1  0
 14 34  1  0
 15 16  2  0
 15 35  1  0
 16 17  1  0
 16 36  1  0
 17 18  2  0
 17 37  1  0
 18 19  1  0
M  END

