
     RDKit          3D

 57 61  0  0  0  0  0  0  0  0999 V2000
   -0.9837    1.2612   -1.0402 O   0  0  0  0  0  0  0  0  0  0  0  0
    0.0362    0.6046   -0.9545 C   0  0  0  0  0  0  0  0  0  0  0  0
    0.8852    0.3196   -2.2012 C   0  0  0  0  0  0  0  0  0  0  0  0
    1.5873   -0.9518   -2.1446 N   0  0  0  0  0  0  0  0  0  0  0  0
    2.5743   -1.2860   -3.0905 C   0  0  0  0  0  0  0  0  0  0  0  0
    3.2136   -0.2850   -3.8504 C   0  0  0  0  0  0  0  0  0  0  0  0
    4.2026   -0.5995   -4.7809 C   0  0  0  0  0  0  0  0  0  0  0  0
    4.5687   -1.9280   -5.0080 C   0  0  0  0  0  0  0  0  0  0  0  0
    3.9313   -2.9292   -4.2811 C   0  0  0  0  0  0  0  0  0  0  0  0
    2.9584   -2.6408   -3.3100 C   0  0  0  0  0  0  0  0  0  0  0  0
    2.3777   -3.8493   -2.6195 C   0  0  0  0  0  0  0  0  0  0  0  0
    2.3293   -4.9365   -3.1746 O   0  0  0  0  0  0  0  0  0  0  0  0
    1.9159   -3.6713   -1.3313 N   0  0  0  0  0  0  0  0  0  0  0  0
    1.5177   -4.8204   -0.5141 C   0  0  0  0  0  0  0  0  0  0  0  0
    2.6636   -5.4338    0.2695 C   0  0  0  0  0  0  0  0  0  0  0  0
    3.5236   -6.3613   -0.3374 C   0  0  0  0  0  0  0  0  0  0  0  0
    4.6259   -6.9082    0.3470 C   0  0  0  0  0  0  0  0  0  0  0  0
    4.8293   -6.4899    1.6507 C   0  0  0  0  0  0  0  0  0  0  0  0
    3.9786   -5.5674    2.2632 C   0  0  0  0  0  0  0  0  0  0  0  0
    2.8902   -5.0250    1.6047 C   0  0  0  0  0  0  0  0  0  0  0  0
    4.4301   -5.3080    3.5307 O   0  0  0  0  0  0  0  0  0  0  0  0
    5.4809   -6.2412    3.7702 C   0  0  0  0  0  0  0  0  0  0  0  0
    5.8262   -6.8343    2.5226 O   0  0  0  0  0  0  0  0  0  0  0  0
    0.5756    0.1058    0.2051 N   0  0  0  0  0  0  0  0  0  0  0  0
    0.1019    0.2128    1.5265 C   0  0  0  0  0  0  0  0  0  0  0  0
   -1.0890    0.8593    1.8301 C   0  0  0  0  0  0  0  0  0  0  0  0
   -1.5460    0.9305    3.1657 C   0  0  0  0  0  0  0  0  0  0  0  0
   -0.8304    0.3619    4.1948 C   0  0  0  0  0  0  0  0  0  0  0  0
    0.3965   -0.3050    3.9275 C   0  0  0  0  0  0  0  0  0  0  0  0
    1.1529   -0.9027    4.9749 C   0  0  0  0  0  0  0  0  0  0  0  0
    2.3432   -1.5493    4.7230 C   0  0  0  0  0  0  0  0  0  0  0  0
    2.8386   -1.6177    3.3991 C   0  0  0  0  0  0  0  0  0  0  0  0
    2.1302   -1.0466    2.3597 C   0  0  0  0  0  0  0  0  0  0  0  0
    0.8887   -0.3823    2.5786 C   0  0  0  0  0  0  0  0  0  0  0  0
    1.6135    1.1436   -2.2659 H   0  0  0  0  0  0  0  0  0  0  0  0
    0.2101    0.4195   -3.0701 H   0  0  0  0  0  0  0  0  0  0  0  0
    0.9608   -1.7321   -1.9567 H   0  0  0  0  0  0  0  0  0  0  0  0
    2.9300    0.7594   -3.7246 H   0  0  0  0  0  0  0  0  0  0  0  0
    4.6777    0.2082   -5.3440 H   0  0  0  0  0  0  0  0  0  0  0  0
    5.3317   -2.1798   -5.7474 H   0  0  0  0  0  0  0  0  0  0  0  0
    4.1704   -3.9811   -4.4470 H   0  0  0  0  0  0  0  0  0  0  0  0
    2.2784   -2.8667   -0.8293 H   0  0  0  0  0  0  0  0  0  0  0  0
    1.0858   -5.5561   -1.2043 H   0  0  0  0  0  0  0  0  0  0  0  0
    0.7248   -4.4898    0.1746 H   0  0  0  0  0  0  0  0  0  0  0  0
    3.3335   -6.6544   -1.3720 H   0  0  0  0  0  0  0  0  0  0  0  0
    5.2947   -7.6287   -0.1263 H   0  0  0  0  0  0  0  0  0  0  0  0
    2.2362   -4.3077    2.1044 H   0  0  0  0  0  0  0  0  0  0  0  0
    5.1308   -7.0247    4.4720 H   0  0  0  0  0  0  0  0  0  0  0  0
    6.3555   -5.7170    4.1884 H   0  0  0  0  0  0  0  0  0  0  0  0
    1.4368   -0.4091    0.0615 H   0  0  0  0  0  0  0  0  0  0  0  0
   -1.6641    1.3077    1.0238 H   0  0  0  0  0  0  0  0  0  0  0  0
   -2.4878    1.4459    3.3701 H   0  0  0  0  0  0  0  0  0  0  0  0
   -1.1904    0.4141    5.2253 H   0  0  0  0  0  0  0  0  0  0  0  0
    0.7644   -0.8390    5.9950 H   0  0  0  0  0  0  0  0  0  0  0  0
    2.9079   -2.0082    5.5380 H   0  0  0  0  0  0  0  0  0  0  0  0
    3.7836   -2.1284    3.2008 H   0  0  0  0  0  0  0  0  0  0  0  0
    2.5630   -1.1093    1.3579 H   0  0  0  0  0  0  0  0  0  0  0  0
  1  2  2  0
  2  3  1  0
  2 24  1  0
  3  4  1  0
  3 35  1  0
  3 36  1  0
  4  5  1  0
  4 37  1  0
  5  6  2  0
  5 10  1  0
  6  7  1  0
  6 38  1  0
  7  8  2  0
  7 39  1  0
  8  9  1  0
  8 40  1  0
  9 10  2  0
  9 41  1  0
 10 11  1  0
 11 12  2  0
 11 13  1  0
 13 14  1  0
 13 42  1  0
 14 15  1  0
 14 43  1  0
 14 44  1  0
 15 16  2  0
 15 20  1  0
 16 17  1  0
 16 45  1  0
 17 18  2  0
 17 46  1  0
 18 19  1  0
 18 23  1  0
 19 20  2  0
 19 21  1  0
 20 47  1  0
 21 22  1  0
 22 23  1  0
 22 48  1  0
 22 49  1  0
 24 25  1  0
 24 50  1  0
 25 26  2  0
 25 34  1  0
 26 27  1  0
 26 51  1  0
 27 28  2  0
 27 52  1  0
 28 29  1  0
 28 53  1  0
 29 30  1  0
 29 34  2  0
 30 31  2  0
 30 54  1  0
 31 32  1  0
 31 55  1  0
 32 33  2  0
 32 56  1  0
 33 34  1  0
 33 57  1  0
M  END

