
     RDKit          3D

 50 54  0  0  0  0  0  0  0  0999 V2000
    1.8831   -2.4513   -0.9617 O   0  0  0  0  0  0  0  0  0  0  0  0
    2.4997   -1.6387   -0.3003 C   0  0  0  0  0  0  0  0  0  0  0  0
    3.0329   -2.0035    1.1031 C   0  0  0  0  0  0  0  0  0  0  0  0
    2.8164   -0.9661    2.1575 C   0  0  0  0  0  0  0  0  0  0  0  0
    3.7468   -0.2610    2.8614 C   0  0  0  0  0  0  0  0  0  0  0  0
    3.0518    0.8577    4.0288 S   0  0  0  0  0  0  0  0  0  0  0  0
    1.4467    0.3521    3.5320 C   0  0  0  0  0  0  0  0  0  0  0  0
    0.2218    0.6581    3.8535 N   0  0  0  0  0  0  0  0  0  0  0  0
   -0.5692   -0.1355    3.0375 C   0  0  0  0  0  0  0  0  0  0  0  0
   -2.0380   -0.0723    3.1103 C   0  0  0  0  0  0  0  0  0  0  0  0
   -2.6551    0.7935    4.0315 C   0  0  0  0  0  0  0  0  0  0  0  0
   -4.0462    0.8673    4.1159 C   0  0  0  0  0  0  0  0  0  0  0  0
   -4.8481    0.0800    3.2835 C   0  0  0  0  0  0  0  0  0  0  0  0
   -4.2446   -0.7841    2.3633 C   0  0  0  0  0  0  0  0  0  0  0  0
   -2.8543   -0.8600    2.2769 C   0  0  0  0  0  0  0  0  0  0  0  0
    0.2194   -0.9305    2.2122 C   0  0  0  0  0  0  0  0  0  0  0  0
    1.5248   -0.6092    2.5409 N   0  0  0  0  0  0  0  0  0  0  0  0
    2.8153   -0.3665   -0.7007 N   0  0  0  0  0  0  0  0  0  0  0  0
    2.5137    0.2860   -1.9161 C   0  0  0  0  0  0  0  0  0  0  0  0
    1.8743   -0.3494   -2.9933 C   0  0  0  0  0  0  0  0  0  0  0  0
    1.6319    0.3885   -4.1535 C   0  0  0  0  0  0  0  0  0  0  0  0
    1.9982    1.7288   -4.2825 C   0  0  0  0  0  0  0  0  0  0  0  0
    2.6350    2.3633   -3.2008 C   0  0  0  0  0  0  0  0  0  0  0  0
    3.0388    3.7112   -3.2223 N   0  0  0  0  0  0  0  0  0  0  0  0
    2.9311    4.6370   -4.2393 C   0  0  0  0  0  0  0  0  0  0  0  0
    2.4448    4.3984   -5.3320 O   0  0  0  0  0  0  0  0  0  0  0  0
    3.4725    5.9933   -3.8884 C   0  0  1  0  0  0  0  0  0  0  0  0
    4.1148    6.7917   -5.0085 C   0  0  0  0  0  0  0  0  0  0  0  0
    2.7724    7.1946   -4.4977 C   0  0  0  0  0  0  0  0  0  0  0  0
    2.8871    1.6337   -2.0278 C   0  0  0  0  0  0  0  0  0  0  0  0
    4.1110   -2.2146    1.0215 H   0  0  0  0  0  0  0  0  0  0  0  0
    2.5338   -2.9476    1.3694 H   0  0  0  0  0  0  0  0  0  0  0  0
    4.8272   -0.3637    2.7798 H   0  0  0  0  0  0  0  0  0  0  0  0
   -2.0208    1.4036    4.6765 H   0  0  0  0  0  0  0  0  0  0  0  0
   -4.5085    1.5457    4.8380 H   0  0  0  0  0  0  0  0  0  0  0  0
   -5.9375    0.1388    3.3502 H   0  0  0  0  0  0  0  0  0  0  0  0
   -4.8616   -1.4033    1.7069 H   0  0  0  0  0  0  0  0  0  0  0  0
   -2.4017   -1.5397    1.5509 H   0  0  0  0  0  0  0  0  0  0  0  0
   -0.0223   -1.6584    1.4435 H   0  0  0  0  0  0  0  0  0  0  0  0
    3.3020    0.2005   -0.0137 H   0  0  0  0  0  0  0  0  0  0  0  0
    1.5783   -1.3915   -2.9082 H   0  0  0  0  0  0  0  0  0  0  0  0
    1.1349   -0.1028   -4.9940 H   0  0  0  0  0  0  0  0  0  0  0  0
    1.8032    2.2893   -5.1927 H   0  0  0  0  0  0  0  0  0  0  0  0
    3.4639    4.0464   -2.3664 H   0  0  0  0  0  0  0  0  0  0  0  0
    3.8906    6.1155   -2.8844 H   0  0  0  0  0  0  0  0  0  0  0  0
    4.1542    6.2964   -5.9821 H   0  0  0  0  0  0  0  0  0  0  0  0
    4.9858    7.4010   -4.7527 H   0  0  0  0  0  0  0  0  0  0  0  0
    1.9070    6.9708   -5.1269 H   0  0  0  0  0  0  0  0  0  0  0  0
    2.6864    8.0908   -3.8775 H   0  0  0  0  0  0  0  0  0  0  0  0
    3.3808    2.1263   -1.1833 H   0  0  0  0  0  0  0  0  0  0  0  0
  1  2  2  0
  2  3  1  0
  2 18  1  0
  3  4  1  0
  3 31  1  0
  3 32  1  0
  4  5  2  0
  4 17  1  0
  5  6  1  0
  5 33  1  0
  6  7  1  0
  7  8  2  0
  7 17  1  0
  8  9  1  0
  9 10  1  0
  9 16  2  0
 10 11  2  0
 10 15  1  0
 11 12  1  0
 11 34  1  0
 12 13  2  0
 12 35  1  0
 13 14  1  0
 13 36  1  0
 14 15  2  0
 14 37  1  0
 15 38  1  0
 16 17  1  0
 16 39  1  0
 18 19  1  0
 18 40  1  0
 19 20  2  0
 19 30  1  0
 20 21  1  0
 20 41  1  0
 21 22  2  0
 21 42  1  0
 22 23  1  0
 22 43  1  0
 23 24  1  0
 23 30  2  0
 24 25  1  0
 24 44  1  0
 25 26  2  0
 25 27  1  0
 27 28  1  0
 27 29  1  0
 27 45  1  1
 28 29  1  0
 28 46  1  0
 28 47  1  0
 29 48  1  0
 29 49  1  0
 30 50  1  0
M  END

