
     RDKit          3D

 33 33  0  0  0  0  0  0  0  0999 V2000
    3.0494   -0.3691    2.1668 C   0  0  0  0  0  0  0  0  0  0  0  0
    2.6883   -0.2407    0.6873 C   0  0  0  0  0  0  0  0  0  0  0  0
    3.1266   -1.4324   -0.1833 C   0  0  1  0  0  0  0  0  0  0  0  0
    2.6493   -1.2912   -1.6327 C   0  0  0  0  0  0  0  0  0  0  0  0
    4.5747   -1.6237   -0.1405 N   0  0  0  0  0  0  0  0  0  0  0  0
    5.1792   -2.7139    0.4165 C   0  0  0  0  0  0  0  0  0  0  0  0
    4.5180   -3.5973    0.9705 O   0  0  0  0  0  0  0  0  0  0  0  0
    6.6759   -2.7672    0.3278 C   0  0  0  0  0  0  0  0  0  0  0  0
    7.3704   -2.0560   -0.6623 C   0  0  0  0  0  0  0  0  0  0  0  0
    8.7596   -2.0697   -0.7553 C   0  0  0  0  0  0  0  0  0  0  0  0
    9.4841   -2.8137    0.1778 C   0  0  0  0  0  0  0  0  0  0  0  0
    8.8374   -3.5552    1.1646 C   0  0  0  0  0  0  0  0  0  0  0  0
    9.6548   -4.3268    2.1639 C   0  0  1  0  0  0  0  0  0  0  0  0
   10.9706   -4.2594    1.9181 F   0  0  0  0  0  0  0  0  0  0  0  0
    9.4635   -3.8851    3.4264 F   0  0  0  0  0  0  0  0  0  0  0  0
    9.3262   -5.6450    2.1834 F   0  0  0  0  0  0  0  0  0  0  0  0
    7.4112   -3.5813    1.2531 C   0  0  0  0  0  0  0  0  0  0  0  0
    6.7640   -4.3218    2.1855 N   0  0  0  0  0  0  0  0  0  0  0  0
    2.6855    0.4984    2.7395 H   0  0  0  0  0  0  0  0  0  0  0  0
    4.1394   -0.4303    2.3119 H   0  0  0  0  0  0  0  0  0  0  0  0
    2.6080   -1.2766    2.6087 H   0  0  0  0  0  0  0  0  0  0  0  0
    3.1248    0.6874    0.2706 H   0  0  0  0  0  0  0  0  0  0  0  0
    1.5955   -0.1301    0.5788 H   0  0  0  0  0  0  0  0  0  0  0  0
    2.7076   -2.3541    0.2472 H   0  0  0  0  0  0  0  0  0  0  0  0
    3.0811   -0.3941   -2.1098 H   0  0  0  0  0  0  0  0  0  0  0  0
    1.5531   -1.1938   -1.6760 H   0  0  0  0  0  0  0  0  0  0  0  0
    2.9402   -2.1689   -2.2296 H   0  0  0  0  0  0  0  0  0  0  0  0
    5.1567   -0.8643   -0.4718 H   0  0  0  0  0  0  0  0  0  0  0  0
    6.8037   -1.4935   -1.4084 H   0  0  0  0  0  0  0  0  0  0  0  0
    9.2718   -1.5141   -1.5425 H   0  0  0  0  0  0  0  0  0  0  0  0
   10.5742   -2.8307    0.1385 H   0  0  0  0  0  0  0  0  0  0  0  0
    7.2669   -5.0003    2.7384 H   0  0  0  0  0  0  0  0  0  0  0  0
    5.7548   -4.4085    2.0611 H   0  0  0  0  0  0  0  0  0  0  0  0
  1  2  1  0
  1 19  1  0
  1 20  1  0
  1 21  1  0
  2  3  1  0
  2 22  1  0
  2 23  1  0
  3  4  1  0
  3  5  1  0
  3 24  1  1
  4 25  1  0
  4 26  1  0
  4 27  1  0
  5  6  1  0
  5 28  1  0
  6  7  2  0
  6  8  1  0
  8  9  2  0
  8 17  1  0
  9 10  1  0
  9 29  1  0
 10 11  2  0
 10 30  1  0
 11 12  1  0
 11 31  1  0
 12 13  1  0
 12 17  2  0
 13 14  1  6
 13 15  1  0
 13 16  1  0
 17 18  1  0
 18 32  1  0
 18 33  1  0
M  END

