
     RDKit          3D

 86 96  0  0  0  0  0  0  0  0999 V2000
   -0.0514    2.3981    0.3416 C   0  0  0  0  0  0  0  0  0  0  0  0
    1.2616    2.5897    0.8391 O   0  0  0  0  0  0  0  0  0  0  0  0
    2.2113    3.2029    0.0341 C   0  0  2  0  0  0  0  0  0  0  0  0
    1.6861    4.2389   -0.7253 O   0  0  0  0  0  0  0  0  0  0  0  0
    1.3021    4.0896   -2.0861 C   0  0  0  0  0  0  0  0  0  0  0  0
    3.2073    2.1777   -0.7087 C   0  0  1  0  0  0  0  0  0  0  0  0
    2.5304    1.0838   -1.9617 Cl  0  0  0  0  0  0  0  0  0  0  0  0
    4.2546    3.1586   -1.1778 C   0  0  0  0  0  0  0  0  0  0  0  0
    4.9806    3.1609   -2.2569 N   0  0  0  0  0  0  0  0  0  0  0  0
    5.8445    4.2186   -2.3741 C   0  0  0  0  0  0  0  0  0  0  0  0
    6.6856    4.3186   -3.5102 C   0  0  0  0  0  0  0  0  0  0  0  0
    7.5556    5.3782   -3.6485 C   0  0  0  0  0  0  0  0  0  0  0  0
    7.6461    6.4054   -2.6602 C   0  0  0  0  0  0  0  0  0  0  0  0
    8.5706    7.5350   -2.8245 C   0  0  0  0  0  0  0  0  0  0  0  0
    8.5495    8.7655   -2.1943 C   0  0  0  0  0  0  0  0  0  0  0  0
    9.6111    9.6266   -2.5910 C   0  0  0  0  0  0  0  0  0  0  0  0
   10.4400    9.0502   -3.5218 C   0  0  0  0  0  0  0  0  0  0  0  0
    9.9333    7.4487   -3.9206 S   0  0  0  0  0  0  0  0  0  0  0  0
    6.8280    6.3134   -1.5360 C   0  0  0  0  0  0  0  0  0  0  0  0
    5.9222    5.2427   -1.3695 C   0  0  0  0  0  0  0  0  0  0  0  0
    5.1370    5.1993   -0.2419 N   0  0  0  0  0  0  0  0  0  0  0  0
    4.3317    4.1857   -0.1694 C   0  0  0  0  0  0  0  0  0  0  0  0
    3.3731    3.7744    0.9333 C   0  0  1  0  0  0  0  0  0  0  0  0
    2.9058    5.0527    2.0707 Cl  0  0  0  0  0  0  0  0  0  0  0  0
    4.0549    2.5099    1.5486 C   0  0  1  0  0  0  0  0  0  0  0  0
    3.7450    1.9685    2.9343 C   0  0  0  0  0  0  0  0  0  0  0  0
    4.6955    0.7586    3.1813 C   0  0  2  0  0  0  0  0  0  0  0  0
    5.5972    1.1690    3.6586 H   0  0  0  0  0  0  0  0  0  0  0  0
    5.1856   -0.1097    1.9227 C   0  0  2  0  0  0  0  0  0  0  0  0
    6.2828   -0.1186    1.9465 H   0  0  0  0  0  0  0  0  0  0  0  0
    4.8031    0.3686    0.4852 C   0  0  0  0  0  0  0  0  0  0  0  0
    3.6949    1.3995    0.5361 C   0  0  2  0  0  0  0  0  0  0  0  0
    4.7621   -1.5681    2.3461 C   0  0  1  0  0  0  0  0  0  0  0  0
    4.7082   -2.7882    1.0446 Cl  0  0  0  0  0  0  0  0  0  0  0  0
    5.6896   -1.9410    3.4846 C   0  0  0  0  0  0  0  0  0  0  0  0
    6.7583   -2.7298    3.4772 N   0  0  0  0  0  0  0  0  0  0  0  0
    7.4028   -2.7907    4.6346 C   0  0  0  0  0  0  0  0  0  0  0  0
    8.6900   -3.4210    5.0346 C   0  0  0  0  0  0  0  0  0  0  0  0
    8.5356   -4.2784    6.1288 C   0  0  0  0  0  0  0  0  0  0  0  0
    7.9406   -5.5810    6.0116 C   0  0  0  0  0  0  0  0  0  0  0  0
    7.9580   -6.4004    4.8859 C   0  0  0  0  0  0  0  0  0  0  0  0
    7.2712   -7.6262    5.0752 C   0  0  0  0  0  0  0  0  0  0  0  0
    6.7535   -7.7546    6.3450 C   0  0  0  0  0  0  0  0  0  0  0  0
    7.0770   -6.3681    7.3221 S   0  0  0  0  0  0  0  0  0  0  0  0
    8.3923   -3.4600    7.3503 C   0  0  0  0  0  0  0  0  0  0  0  0
    7.5969   -2.3652    7.1272 C   0  0  0  0  0  0  0  0  0  0  0  0
    6.9553   -2.0766    5.8147 C   0  0  0  0  0  0  0  0  0  0  0  0
    5.9145   -1.2327    5.7659 N   0  0  0  0  0  0  0  0  0  0  0  0
    5.2949   -1.1863    4.5977 C   0  0  0  0  0  0  0  0  0  0  0  0
    4.1254   -0.3366    4.1506 C   0  0  1  0  0  0  0  0  0  0  0  0
    3.1392    0.3256    5.4867 Cl  0  0  0  0  0  0  0  0  0  0  0  0
    3.4298   -1.3653    3.1669 C   0  0  2  0  0  0  0  0  0  0  0  0
    3.0801   -2.5985    3.6992 O   0  0  0  0  0  0  0  0  0  0  0  0
    2.0484   -2.6614    4.6776 C   0  0  0  0  0  0  0  0  0  0  0  0
    2.3704   -0.7476    2.5211 O   0  0  0  0  0  0  0  0  0  0  0  0
    1.6345   -1.4932    1.5509 C   0  0  0  0  0  0  0  0  0  0  0  0
   -0.6257    1.9504    1.1642 H   0  0  0  0  0  0  0  0  0  0  0  0
   -0.0718    1.7115   -0.5218 H   0  0  0  0  0  0  0  0  0  0  0  0
   -0.5186    3.3562    0.0646 H   0  0  0  0  0  0  0  0  0  0  0  0
    2.1591    3.8508   -2.7351 H   0  0  0  0  0  0  0  0  0  0  0  0
    0.8920    5.0650   -2.3835 H   0  0  0  0  0  0  0  0  0  0  0  0
    0.5294    3.3185   -2.2296 H   0  0  0  0  0  0  0  0  0  0  0  0
    6.6142    3.5360   -4.2680 H   0  0  0  0  0  0  0  0  0  0  0  0
    8.1804    5.4422   -4.5426 H   0  0  0  0  0  0  0  0  0  0  0  0
    7.7773    9.0525   -1.4797 H   0  0  0  0  0  0  0  0  0  0  0  0
    9.7515   10.6374   -2.2051 H   0  0  0  0  0  0  0  0  0  0  0  0
   11.3234    9.4762   -3.9955 H   0  0  0  0  0  0  0  0  0  0  0  0
    6.8684    7.0539   -0.7362 H   0  0  0  0  0  0  0  0  0  0  0  0
    5.1410    2.7060    1.5133 H   0  0  0  0  0  0  0  0  0  0  0  0
    2.6915    1.6736    2.9970 H   0  0  0  0  0  0  0  0  0  0  0  0
    3.9259    2.7220    3.7138 H   0  0  0  0  0  0  0  0  0  0  0  0
    4.5254   -0.4979   -0.1306 H   0  0  0  0  0  0  0  0  0  0  0  0
    5.7006    0.8048    0.0172 H   0  0  0  0  0  0  0  0  0  0  0  0
    2.7915    0.9123    0.9159 H   0  0  0  0  0  0  0  0  0  0  0  0
    9.3722   -2.5949    5.2912 H   0  0  0  0  0  0  0  0  0  0  0  0
    8.4869   -6.1116    3.9772 H   0  0  0  0  0  0  0  0  0  0  0  0
    7.1771   -8.3988    4.3106 H   0  0  0  0  0  0  0  0  0  0  0  0
    6.2051   -8.5988    6.7617 H   0  0  0  0  0  0  0  0  0  0  0  0
    8.6446   -3.7786    8.3689 H   0  0  0  0  0  0  0  0  0  0  0  0
    7.2585   -1.7381    7.9579 H   0  0  0  0  0  0  0  0  0  0  0  0
    1.6612   -3.6903    4.6552 H   0  0  0  0  0  0  0  0  0  0  0  0
    1.2311   -1.9575    4.4555 H   0  0  0  0  0  0  0  0  0  0  0  0
    2.4388   -2.4421    5.6836 H   0  0  0  0  0  0  0  0  0  0  0  0
    1.6682   -2.5708    1.7626 H   0  0  0  0  0  0  0  0  0  0  0  0
    2.0253   -1.3143    0.5367 H   0  0  0  0  0  0  0  0  0  0  0  0
    0.5943   -1.1394    1.5998 H   0  0  0  0  0  0  0  0  0  0  0  0
  1  2  1  0
  1 57  1  0
  1 58  1  0
  1 59  1  0
  3  2  1  1
  3  4  1  0
  3  6  1  0
  3 23  1  0
  4  5  1  0
  5 60  1  0
  5 61  1  0
  5 62  1  0
  6  7  1  6
  6  8  1  0
  6 32  1  0
  8  9  2  0
  8 22  1  0
  9 10  1  0
 10 11  2  0
 10 20  1  0
 11 12  1  0
 11 63  1  0
 12 13  2  0
 12 64  1  0
 13 14  1  0
 13 19  1  0
 14 15  2  0
 14 18  1  0
 15 16  1  0
 15 65  1  0
 16 17  2  0
 16 66  1  0
 17 18  1  0
 17 67  1  0
 19 20  2  0
 19 68  1  0
 20 21  1  0
 21 22  2  0
 22 23  1  0
 23 24  1  1
 23 25  1  0
 25 26  1  0
 25 32  1  0
 25 69  1  1
 26 27  1  0
 26 70  1  0
 26 71  1  0
 27 28  1  1
 27 29  1  0
 27 50  1  0
 29 30  1  6
 29 31  1  0
 29 33  1  0
 31 32  1  0
 31 72  1  0
 31 73  1  0
 32 74  1  1
 33 34  1  6
 33 35  1  0
 33 52  1  0
 35 36  2  0
 35 49  1  0
 36 37  1  0
 37 38  2  0
 37 47  1  0
 38 39  1  0
 38 75  1  0
 39 40  1  0
 39 45  2  0
 40 41  2  0
 40 44  1  0
 41 42  1  0
 41 76  1  0
 42 43  2  0
 42 77  1  0
 43 44  1  0
 43 78  1  0
 45 46  1  0
 45 79  1  0
 46 47  2  0
 46 80  1  0
 47 48  1  0
 48 49  2  0
 49 50  1  0
 50 51  1  1
 50 52  1  0
 52 53  1  1
 52 55  1  0
 53 54  1  0
 54 81  1  0
 54 82  1  0
 54 83  1  0
 55 56  1  0
 56 84  1  0
 56 85  1  0
 56 86  1  0
M  END

