
     RDKit          3D

 37 38  0  0  0  0  0  0  0  0999 V2000
    3.9161   -1.1457    2.2406 C   0  0  0  0  0  0  0  0  0  0  0  0
    3.6907   -0.3230    0.9954 C   0  0  0  0  0  0  0  0  0  0  0  0
    4.1646    1.0000    0.9614 C   0  0  0  0  0  0  0  0  0  0  0  0
    4.0332    1.8159   -0.1616 C   0  0  0  0  0  0  0  0  0  0  0  0
    3.4179    1.3314   -1.3273 C   0  0  0  0  0  0  0  0  0  0  0  0
    3.2334    2.1843   -2.5379 C   0  0  0  0  0  0  0  0  0  0  0  0
    4.1849    3.1264   -2.7337 N   0  0  0  0  0  0  0  0  0  0  0  0
    1.9228    2.0326   -3.5476 S   0  0  0  0  0  0  0  0  0  0  0  0
    2.9437    0.0124   -1.3186 C   0  0  0  0  0  0  0  0  0  0  0  0
    3.0610   -0.7923   -0.1832 C   0  0  0  0  0  0  0  0  0  0  0  0
    2.3048   -2.4401   -0.3421 S   0  0  1  0  0  0  0  0  0  0  0  0
    2.3735   -2.7879   -1.7626 O   0  0  0  0  0  0  0  0  0  0  0  0
    2.8746   -3.3117    0.6869 O   0  0  0  0  0  0  0  0  0  0  0  0
    0.6964   -2.2494    0.0280 N   0  0  0  0  0  0  0  0  0  0  0  0
    0.2523   -2.1233    1.4237 C   0  0  0  0  0  0  0  0  0  0  0  0
   -1.2563   -1.9135    1.2711 C   0  0  0  0  0  0  0  0  0  0  0  0
   -1.3564   -1.0872   -0.0190 C   0  0  0  0  0  0  0  0  0  0  0  0
   -0.2849   -1.6983   -0.9495 C   0  0  2  0  0  0  0  0  0  0  0  0
   -0.8215   -2.7796   -1.8883 C   0  0  0  0  0  0  0  0  0  0  0  0
    4.4321   -0.5436    3.0021 H   0  0  0  0  0  0  0  0  0  0  0  0
    4.5163   -2.0392    2.0180 H   0  0  0  0  0  0  0  0  0  0  0  0
    2.9764   -1.5194    2.6714 H   0  0  0  0  0  0  0  0  0  0  0  0
    4.6501    1.4017    1.8546 H   0  0  0  0  0  0  0  0  0  0  0  0
    4.3890    2.8480   -0.1134 H   0  0  0  0  0  0  0  0  0  0  0  0
    5.0753    3.0871   -2.2513 H   0  0  0  0  0  0  0  0  0  0  0  0
    4.1039    3.7201   -3.5518 H   0  0  0  0  0  0  0  0  0  0  0  0
    2.4896   -0.3888   -2.2244 H   0  0  0  0  0  0  0  0  0  0  0  0
    0.7111   -1.2459    1.9210 H   0  0  0  0  0  0  0  0  0  0  0  0
    0.5201   -3.0207    1.9989 H   0  0  0  0  0  0  0  0  0  0  0  0
   -1.6987   -1.4126    2.1451 H   0  0  0  0  0  0  0  0  0  0  0  0
   -1.7612   -2.8854    1.1503 H   0  0  0  0  0  0  0  0  0  0  0  0
   -1.1120   -0.0332    0.1926 H   0  0  0  0  0  0  0  0  0  0  0  0
   -2.3571   -1.1097   -0.4755 H   0  0  0  0  0  0  0  0  0  0  0  0
    0.1856   -0.9041   -1.5525 H   0  0  0  0  0  0  0  0  0  0  0  0
   -1.3613   -3.5596   -1.3272 H   0  0  0  0  0  0  0  0  0  0  0  0
    0.0076   -3.2540   -2.4301 H   0  0  0  0  0  0  0  0  0  0  0  0
   -1.5137   -2.3359   -2.6222 H   0  0  0  0  0  0  0  0  0  0  0  0
  1  2  1  0
  1 20  1  0
  1 21  1  0
  1 22  1  0
  2  3  2  0
  2 10  1  0
  3  4  1  0
  3 23  1  0
  4  5  2  0
  4 24  1  0
  5  6  1  0
  5  9  1  0
  6  7  1  0
  6  8  2  0
  7 25  1  0
  7 26  1  0
  9 10  2  0
  9 27  1  0
 11 10  1  6
 11 12  2  0
 11 13  2  0
 11 14  1  0
 14 15  1  0
 14 18  1  0
 15 16  1  0
 15 28  1  0
 15 29  1  0
 16 17  1  0
 16 30  1  0
 16 31  1  0
 17 18  1  0
 17 32  1  0
 17 33  1  0
 18 19  1  0
 18 34  1  6
 19 35  1  0
 19 36  1  0
 19 37  1  0
M  END

