
     RDKit          3D

 43 44  0  0  0  0  0  0  0  0999 V2000
    1.1624   -0.1059   -0.0459 C   0  0  0  0  0  0  0  0  0  0  0  0
    2.6460    0.2486    0.1407 C   0  0  1  0  0  0  0  0  0  0  0  0
    2.8198    1.1977    1.3370 C   0  0  0  0  0  0  0  0  0  0  0  0
    3.4835   -1.0446    0.3546 C   0  0  0  0  0  0  0  0  0  0  0  0
    3.1456   -1.7934    1.5655 C   0  0  0  0  0  0  0  0  0  0  0  0
    2.8696   -2.3791    2.5273 N   0  0  0  0  0  0  0  0  0  0  0  0
    3.1669    0.9269   -1.1508 C   0  0  0  0  0  0  0  0  0  0  0  0
    4.5703    1.2467   -1.0837 N   0  0  0  0  0  0  0  0  0  0  0  0
    5.1012    1.9684   -2.0043 C   0  0  0  0  0  0  0  0  0  0  0  0
    4.4602    2.4271   -3.1492 N   0  0  0  0  0  0  0  0  0  0  0  0
    6.4338    2.3466   -1.9387 N   0  0  0  0  0  0  0  0  0  0  0  0
    7.3181    1.8147   -0.8938 C   0  0  2  0  0  0  0  0  0  0  0  0
    7.2277    2.6484    0.3932 C   0  0  0  0  0  0  0  0  0  0  0  0
    7.9587    3.9654    0.2020 C   0  0  0  0  0  0  0  0  0  0  0  0
    9.3429    3.7670   -0.0840 O   0  0  0  0  0  0  0  0  0  0  0  0
    9.6684    2.7814   -0.9584 C   0  0  0  0  0  0  0  0  0  0  0  0
   10.9999    2.7508   -1.4082 C   0  0  0  0  0  0  0  0  0  0  0  0
   11.4161    1.7652   -2.2982 C   0  0  0  0  0  0  0  0  0  0  0  0
   10.5140    0.7924   -2.7510 C   0  0  0  0  0  0  0  0  0  0  0  0
    9.1976    0.8203   -2.2931 C   0  0  0  0  0  0  0  0  0  0  0  0
    8.7506    1.8036   -1.3952 C   0  0  0  0  0  0  0  0  0  0  0  0
    0.7579   -0.6087    0.8462 H   0  0  0  0  0  0  0  0  0  0  0  0
    1.0135   -0.7774   -0.9081 H   0  0  0  0  0  0  0  0  0  0  0  0
    0.5623    0.8022   -0.2193 H   0  0  0  0  0  0  0  0  0  0  0  0
    2.4850    0.7264    2.2742 H   0  0  0  0  0  0  0  0  0  0  0  0
    2.2259    2.1147    1.1894 H   0  0  0  0  0  0  0  0  0  0  0  0
    3.8738    1.4911    1.4496 H   0  0  0  0  0  0  0  0  0  0  0  0
    4.5499   -0.7712    0.3862 H   0  0  0  0  0  0  0  0  0  0  0  0
    3.3553   -1.7194   -0.5095 H   0  0  0  0  0  0  0  0  0  0  0  0
    2.5366    1.8301   -1.3165 H   0  0  0  0  0  0  0  0  0  0  0  0
    2.9512    0.2471   -2.0036 H   0  0  0  0  0  0  0  0  0  0  0  0
    3.4496    2.3613   -3.1513 H   0  0  0  0  0  0  0  0  0  0  0  0
    4.8049    3.2966   -3.5424 H   0  0  0  0  0  0  0  0  0  0  0  0
    6.8815    2.4949   -2.8366 H   0  0  0  0  0  0  0  0  0  0  0  0
    7.0000    0.7833   -0.6698 H   0  0  0  0  0  0  0  0  0  0  0  0
    7.6840    2.0878    1.2265 H   0  0  0  0  0  0  0  0  0  0  0  0
    6.1732    2.8250    0.6485 H   0  0  0  0  0  0  0  0  0  0  0  0
    7.9293    4.5927    1.1040 H   0  0  0  0  0  0  0  0  0  0  0  0
    7.4958    4.5305   -0.6291 H   0  0  0  0  0  0  0  0  0  0  0  0
   11.6846    3.5184   -1.0419 H   0  0  0  0  0  0  0  0  0  0  0  0
   12.4537    1.7537   -2.6423 H   0  0  0  0  0  0  0  0  0  0  0  0
   10.8398    0.0151   -3.4458 H   0  0  0  0  0  0  0  0  0  0  0  0
    8.4890    0.0546   -2.6243 H   0  0  0  0  0  0  0  0  0  0  0  0
  2  1  1  6
  1 22  1  0
  1 23  1  0
  1 24  1  0
  2  3  1  0
  2  4  1  0
  2  7  1  0
  3 25  1  0
  3 26  1  0
  3 27  1  0
  4  5  1  0
  4 28  1  0
  4 29  1  0
  5  6  3  0
  7  8  1  0
  7 30  1  0
  7 31  1  0
  8  9  2  0
  9 10  1  0
  9 11  1  0
 10 32  1  0
 10 33  1  0
 11 12  1  0
 11 34  1  0
 12 13  1  0
 12 21  1  0
 12 35  1  1
 13 14  1  0
 13 36  1  0
 13 37  1  0
 14 15  1  0
 14 38  1  0
 14 39  1  0
 15 16  1  0
 16 17  1  0
 16 21  2  0
 17 18  2  0
 17 40  1  0
 18 19  1  0
 18 41  1  0
 19 20  2  0
 19 42  1  0
 20 21  1  0
 20 43  1  0
M  END

