
     RDKit          3D

 34 35  0  0  0  0  0  0  0  0999 V2000
    1.0420    0.2042   -0.0261 C   0  0  0  0  0  0  0  0  0  0  0  0
    2.5447    0.0665    0.0008 C   0  0  0  0  0  0  0  0  0  0  0  0
    3.2429    1.2061   -0.0245 N   0  0  0  0  0  0  0  0  0  0  0  0
    4.5789    1.1285   -0.0248 C   0  0  0  0  0  0  0  0  0  0  0  0
    5.3220    2.4246   -0.0195 C   0  0  0  0  0  0  0  0  0  0  0  0
    4.7122    3.5154    0.6333 C   0  0  0  0  0  0  0  0  0  0  0  0
    5.3214    4.7613    0.7427 C   0  0  0  0  0  0  0  0  0  0  0  0
    6.5776    4.9317    0.1669 C   0  0  0  0  0  0  0  0  0  0  0  0
    7.1901    6.1189    0.2572 F   0  0  0  0  0  0  0  0  0  0  0  0
    7.2120    3.8991   -0.5151 C   0  0  0  0  0  0  0  0  0  0  0  0
    6.5847    2.6517   -0.6092 C   0  0  0  0  0  0  0  0  0  0  0  0
    7.5104    1.3532   -1.6590 Br  0  0  0  0  0  0  0  0  0  0  0  0
    5.2724   -0.0088    0.0188 N   0  0  0  0  0  0  0  0  0  0  0  0
    4.5969   -1.1627    0.0432 C   0  0  0  0  0  0  0  0  0  0  0  0
    5.4290   -2.4206    0.0717 C   0  0  0  0  0  0  0  0  0  0  0  0
    3.1854   -1.1913    0.0300 C   0  0  0  0  0  0  0  0  0  0  0  0
    2.4131   -2.4888    0.0775 C   0  0  0  0  0  0  0  0  0  0  0  0
    2.0906   -2.9739    1.5028 C   0  0  0  0  0  0  0  0  0  0  0  0
    1.4167   -4.2649    1.4589 N   0  0  0  0  0  0  0  0  0  0  0  0
    0.7776    1.2683    0.0167 H   0  0  0  0  0  0  0  0  0  0  0  0
    0.5652   -0.3177    0.8182 H   0  0  0  0  0  0  0  0  0  0  0  0
    0.6203   -0.2227   -0.9517 H   0  0  0  0  0  0  0  0  0  0  0  0
    3.7235    3.3518    1.0635 H   0  0  0  0  0  0  0  0  0  0  0  0
    4.8431    5.5934    1.2621 H   0  0  0  0  0  0  0  0  0  0  0  0
    8.1825    4.0766   -0.9785 H   0  0  0  0  0  0  0  0  0  0  0  0
    6.4886   -2.1473    0.1493 H   0  0  0  0  0  0  0  0  0  0  0  0
    5.2848   -3.0109   -0.8489 H   0  0  0  0  0  0  0  0  0  0  0  0
    5.1627   -3.0747    0.9166 H   0  0  0  0  0  0  0  0  0  0  0  0
    2.9689   -3.2931   -0.4267 H   0  0  0  0  0  0  0  0  0  0  0  0
    1.4661   -2.3817   -0.4775 H   0  0  0  0  0  0  0  0  0  0  0  0
    1.5284   -2.1767    2.0363 H   0  0  0  0  0  0  0  0  0  0  0  0
    3.0341   -3.0977    2.0607 H   0  0  0  0  0  0  0  0  0  0  0  0
    0.4788   -4.1655    1.0677 H   0  0  0  0  0  0  0  0  0  0  0  0
    1.2939   -4.6394    2.3994 H   0  0  0  0  0  0  0  0  0  0  0  0
  1  2  1  0
  1 20  1  0
  1 21  1  0
  1 22  1  0
  2  3  2  0
  2 16  1  0
  3  4  1  0
  4  5  1  0
  4 13  2  0
  5  6  2  0
  5 11  1  0
  6  7  1  0
  6 23  1  0
  7  8  2  0
  7 24  1  0
  8  9  1  0
  8 10  1  0
 10 11  2  0
 10 25  1  0
 11 12  1  0
 13 14  1  0
 14 15  1  0
 14 16  2  0
 15 26  1  0
 15 27  1  0
 15 28  1  0
 16 17  1  0
 17 18  1  0
 17 29  1  0
 17 30  1  0
 18 19  1  0
 18 31  1  0
 18 32  1  0
 19 33  1  0
 19 34  1  0
M  END

