
     RDKit          3D

 45 48  0  0  0  0  0  0  0  0999 V2000
   13.3683    2.9328    4.0692 C   0  0  0  0  0  0  0  0  0  0  0  0
   12.0289    2.9094    3.4020 C   0  0  0  0  0  0  0  0  0  0  0  0
   11.5376    3.7683    2.3732 C   0  0  0  0  0  0  0  0  0  0  0  0
   10.2678    3.2932    2.1516 C   0  0  0  0  0  0  0  0  0  0  0  0
    9.3135    3.7259    1.2528 N   0  0  0  0  0  0  0  0  0  0  0  0
    8.0124    3.2867    1.1188 C   0  0  0  0  0  0  0  0  0  0  0  0
    7.5046    2.3999    1.7670 O   0  0  0  0  0  0  0  0  0  0  0  0
    7.2029    3.9628   -0.0169 C   0  0  2  0  0  0  0  0  0  0  0  0
    6.1809    3.6119    0.1683 H   0  0  0  0  0  0  0  0  0  0  0  0
    7.6417    3.5252   -1.4123 C   0  0  0  0  0  0  0  0  0  0  0  0
    7.0627    5.4032    0.1085 O   0  0  0  0  0  0  0  0  0  0  0  0
    8.0415    6.2736   -0.1764 C   0  0  0  0  0  0  0  0  0  0  0  0
    9.1994    5.9458   -0.3869 O   0  0  0  0  0  0  0  0  0  0  0  0
    7.5718    7.6826   -0.1944 C   0  0  0  0  0  0  0  0  0  0  0  0
    8.5209    8.6897   -0.4577 C   0  0  0  0  0  0  0  0  0  0  0  0
    8.1469   10.0312   -0.4909 C   0  0  0  0  0  0  0  0  0  0  0  0
    6.8074   10.3684   -0.2555 C   0  0  0  0  0  0  0  0  0  0  0  0
    5.8509    9.3595    0.0108 C   0  0  0  0  0  0  0  0  0  0  0  0
    6.2244    8.0226    0.0413 C   0  0  0  0  0  0  0  0  0  0  0  0
    4.4891    9.9832    0.2307 C   0  0  0  0  0  0  0  0  0  0  0  0
    4.7640   11.4619    0.0605 C   0  0  0  0  0  0  0  0  0  0  0  0
    3.8902   12.5438    0.1478 C   0  0  0  0  0  0  0  0  0  0  0  0
    4.3891   13.8376   -0.0516 C   0  0  0  0  0  0  0  0  0  0  0  0
    5.7467   14.0461   -0.3349 C   0  0  0  0  0  0  0  0  0  0  0  0
    6.6287   12.9660   -0.4238 C   0  0  0  0  0  0  0  0  0  0  0  0
    6.1327   11.6717   -0.2251 C   0  0  0  0  0  0  0  0  0  0  0  0
   10.0126    2.2590    2.9557 O   0  0  0  0  0  0  0  0  0  0  0  0
   11.1327    2.0148    3.7534 N   0  0  0  0  0  0  0  0  0  0  0  0
   13.5448    3.9003    4.5661 H   0  0  0  0  0  0  0  0  0  0  0  0
   14.1771    2.7844    3.3357 H   0  0  0  0  0  0  0  0  0  0  0  0
   13.4245    2.1348    4.8220 H   0  0  0  0  0  0  0  0  0  0  0  0
   12.0372    4.5989    1.8821 H   0  0  0  0  0  0  0  0  0  0  0  0
    9.5900    4.5017    0.6397 H   0  0  0  0  0  0  0  0  0  0  0  0
    6.9703    3.9591   -2.1692 H   0  0  0  0  0  0  0  0  0  0  0  0
    7.5678    2.4290   -1.4772 H   0  0  0  0  0  0  0  0  0  0  0  0
    8.6724    3.8243   -1.6417 H   0  0  0  0  0  0  0  0  0  0  0  0
    9.5556    8.3920   -0.6355 H   0  0  0  0  0  0  0  0  0  0  0  0
    8.8917   10.8034   -0.6969 H   0  0  0  0  0  0  0  0  0  0  0  0
    5.4978    7.2350    0.2458 H   0  0  0  0  0  0  0  0  0  0  0  0
    4.0869    9.7500    1.2328 H   0  0  0  0  0  0  0  0  0  0  0  0
    3.7441    9.6143   -0.4969 H   0  0  0  0  0  0  0  0  0  0  0  0
    2.8302   12.3908    0.3685 H   0  0  0  0  0  0  0  0  0  0  0  0
    3.7135   14.6942    0.0145 H   0  0  0  0  0  0  0  0  0  0  0  0
    6.1171   15.0630   -0.4871 H   0  0  0  0  0  0  0  0  0  0  0  0
    7.6859   13.1333   -0.6447 H   0  0  0  0  0  0  0  0  0  0  0  0
  1  2  1  0
  1 29  1  0
  1 30  1  0
  1 31  1  0
  2  3  1  0
  2 28  2  0
  3  4  2  0
  3 32  1  0
  4  5  1  0
  4 27  1  0
  5  6  1  0
  5 33  1  0
  6  7  2  0
  6  8  1  0
  8  9  1  1
  8 10  1  0
  8 11  1  0
 10 34  1  0
 10 35  1  0
 10 36  1  0
 11 12  1  0
 12 13  2  0
 12 14  1  0
 14 15  2  0
 14 19  1  0
 15 16  1  0
 15 37  1  0
 16 17  2  0
 16 38  1  0
 17 18  1  0
 17 26  1  0
 18 19  2  0
 18 20  1  0
 19 39  1  0
 20 21  1  0
 20 40  1  0
 20 41  1  0
 21 22  1  0
 21 26  2  0
 22 23  2  0
 22 42  1  0
 23 24  1  0
 23 43  1  0
 24 25  2  0
 24 44  1  0
 25 26  1  0
 25 45  1  0
 27 28  1  0
M  END

