
     RDKit          3D

 44 47  0  0  0  0  0  0  0  0999 V2000
    3.6705   -0.2549   -1.2957 C   0  0  0  0  0  0  0  0  0  0  0  0
    2.9773    0.2390   -0.0142 C   0  0  0  0  0  0  0  0  0  0  0  0
    3.0261   -0.7723    1.1015 C   0  0  0  0  0  0  0  0  0  0  0  0
    3.9261   -0.6782    2.0184 N   0  0  0  0  0  0  0  0  0  0  0  0
    4.0399   -1.6234    3.0453 C   0  0  0  0  0  0  0  0  0  0  0  0
    5.1010   -1.4634    3.9554 C   0  0  0  0  0  0  0  0  0  0  0  0
    5.2844   -2.3670    4.9957 C   0  0  0  0  0  0  0  0  0  0  0  0
    4.4098   -3.4551    5.1573 C   0  0  0  0  0  0  0  0  0  0  0  0
    4.6658   -4.4544    6.2870 C   0  0  1  0  0  0  0  0  0  0  0  0
    3.4088   -5.1730    6.7802 C   0  0  0  0  0  0  0  0  0  0  0  0
    3.1904   -6.5410    6.5731 C   0  0  0  0  0  0  0  0  0  0  0  0
    2.0205   -7.1483    7.0467 C   0  0  0  0  0  0  0  0  0  0  0  0
    1.0577   -6.4079    7.7332 C   0  0  0  0  0  0  0  0  0  0  0  0
    1.2925   -5.0484    7.9361 C   0  0  0  0  0  0  0  0  0  0  0  0
    0.3827   -4.3207    8.5994 F   0  0  0  0  0  0  0  0  0  0  0  0
    2.4458   -4.4234    7.4745 C   0  0  0  0  0  0  0  0  0  0  0  0
    5.7486   -5.3754    5.9298 N   0  0  0  0  0  0  0  0  0  0  0  0
    5.9921   -5.9751    4.7082 C   0  0  0  0  0  0  0  0  0  0  0  0
    7.0645   -6.8144    4.9173 C   0  0  0  0  0  0  0  0  0  0  0  0
    7.4800   -6.7491    6.2234 N   0  0  0  0  0  0  0  0  0  0  0  0
    6.6761   -5.8881    6.8010 C   0  0  0  0  0  0  0  0  0  0  0  0
    3.3498   -3.6096    4.2543 C   0  0  0  0  0  0  0  0  0  0  0  0
    3.1535   -2.7097    3.2015 C   0  0  0  0  0  0  0  0  0  0  0  0
    2.0013   -2.8493    2.2431 C   0  0  0  0  0  0  0  0  0  0  0  0
    2.0255   -1.9023    1.0566 C   0  0  0  0  0  0  0  0  0  0  0  0
    1.2594   -2.0273    0.1224 O   0  0  0  0  0  0  0  0  0  0  0  0
    3.6316    0.5213   -2.0760 H   0  0  0  0  0  0  0  0  0  0  0  0
    3.1775   -1.1559   -1.6903 H   0  0  0  0  0  0  0  0  0  0  0  0
    4.7292   -0.4905   -1.1039 H   0  0  0  0  0  0  0  0  0  0  0  0
    1.9244    0.4703   -0.2412 H   0  0  0  0  0  0  0  0  0  0  0  0
    3.4681    1.1536    0.3501 H   0  0  0  0  0  0  0  0  0  0  0  0
    5.7688   -0.6115    3.8143 H   0  0  0  0  0  0  0  0  0  0  0  0
    6.1181   -2.2335    5.6904 H   0  0  0  0  0  0  0  0  0  0  0  0
    5.0540   -3.8735    7.1391 H   0  0  0  0  0  0  0  0  0  0  0  0
    3.9359   -7.1395    6.0475 H   0  0  0  0  0  0  0  0  0  0  0  0
    1.8616   -8.2165    6.8807 H   0  0  0  0  0  0  0  0  0  0  0  0
    0.1403   -6.8594    8.1152 H   0  0  0  0  0  0  0  0  0  0  0  0
    2.5776   -3.3550    7.6610 H   0  0  0  0  0  0  0  0  0  0  0  0
    5.4092   -5.7404    3.8223 H   0  0  0  0  0  0  0  0  0  0  0  0
    7.5617   -7.4525    4.1872 H   0  0  0  0  0  0  0  0  0  0  0  0
    6.7041   -5.5849    7.8489 H   0  0  0  0  0  0  0  0  0  0  0  0
    2.6557   -4.4454    4.3743 H   0  0  0  0  0  0  0  0  0  0  0  0
    1.0477   -2.6488    2.7698 H   0  0  0  0  0  0  0  0  0  0  0  0
    1.9006   -3.8780    1.8585 H   0  0  0  0  0  0  0  0  0  0  0  0
  1  2  1  0
  1 27  1  0
  1 28  1  0
  1 29  1  0
  2  3  1  0
  2 30  1  0
  2 31  1  0
  3  4  2  0
  3 25  1  0
  4  5  1  0
  5  6  1  0
  5 23  2  0
  6  7  2  0
  6 32  1  0
  7  8  1  0
  7 33  1  0
  8  9  1  0
  8 22  2  0
  9 10  1  0
  9 17  1  0
  9 34  1  1
 10 11  2  0
 10 16  1  0
 11 12  1  0
 11 35  1  0
 12 13  2  0
 12 36  1  0
 13 14  1  0
 13 37  1  0
 14 15  1  0
 14 16  2  0
 16 38  1  0
 17 18  1  0
 17 21  1  0
 18 19  2  0
 18 39  1  0
 19 20  1  0
 19 40  1  0
 20 21  2  0
 21 41  1  0
 22 23  1  0
 22 42  1  0
 23 24  1  0
 24 25  1  0
 24 43  1  0
 24 44  1  0
 25 26  2  0
M  END

