
     RDKit          3D

 38 38  0  0  0  0  0  0  0  0999 V2000
    1.0731   -0.4598   -0.3515 C   0  0  0  0  0  0  0  0  0  0  0  0
    2.5641   -0.3947   -0.0124 C   0  0  0  0  0  0  0  0  0  0  0  0
    2.9655    0.7167    0.9842 C   0  0  1  0  0  0  0  0  0  0  0  0
    2.4438    0.3971    2.4020 C   0  0  0  0  0  0  0  0  0  0  0  0
    2.5358    1.5237    3.3978 C   0  0  0  0  0  0  0  0  0  0  0  0
    3.7834    1.9968    3.7115 N   0  0  0  0  0  0  0  0  0  0  0  0
    1.4315    1.9334    3.9264 N   0  0  0  0  0  0  0  0  0  0  0  0
    1.6953    2.9901    4.8319 O   0  0  0  0  0  0  0  0  0  0  0  0
    4.4203    0.9556    1.0279 N   0  0  0  0  0  0  0  0  0  0  0  0
    5.0396    1.5914   -0.1468 C   0  0  1  0  0  0  0  0  0  0  0  0
    4.7361    3.1028   -0.2174 C   0  0  0  0  0  0  0  0  0  0  0  0
    5.4436    3.9185    0.8728 C   0  0  0  0  0  0  0  0  0  0  0  0
    6.9563    3.6611    0.8831 C   0  0  0  0  0  0  0  0  0  0  0  0
    7.2730    2.1635    0.9886 C   0  0  0  0  0  0  0  0  0  0  0  0
    6.5632    1.3665   -0.1147 C   0  0  0  0  0  0  0  0  0  0  0  0
    0.8716   -1.2485   -1.0937 H   0  0  0  0  0  0  0  0  0  0  0  0
    0.7193    0.4940   -0.7776 H   0  0  0  0  0  0  0  0  0  0  0  0
    0.4520   -0.6763    0.5317 H   0  0  0  0  0  0  0  0  0  0  0  0
    3.1296   -0.2487   -0.9477 H   0  0  0  0  0  0  0  0  0  0  0  0
    2.8987   -1.3668    0.3965 H   0  0  0  0  0  0  0  0  0  0  0  0
    2.4919    1.6587    0.6587 H   0  0  0  0  0  0  0  0  0  0  0  0
    3.0055   -0.4742    2.7897 H   0  0  0  0  0  0  0  0  0  0  0  0
    1.3863    0.1072    2.3543 H   0  0  0  0  0  0  0  0  0  0  0  0
    4.4721    1.8645    2.9721 H   0  0  0  0  0  0  0  0  0  0  0  0
    3.8018    2.8641    4.2367 H   0  0  0  0  0  0  0  0  0  0  0  0
    0.8129    3.2157    5.1471 H   0  0  0  0  0  0  0  0  0  0  0  0
    4.8876    0.0651    1.2073 H   0  0  0  0  0  0  0  0  0  0  0  0
    4.6612    1.1361   -1.0854 H   0  0  0  0  0  0  0  0  0  0  0  0
    3.6484    3.2770   -0.1800 H   0  0  0  0  0  0  0  0  0  0  0  0
    5.0637    3.4590   -1.2107 H   0  0  0  0  0  0  0  0  0  0  0  0
    5.0167    3.6588    1.8554 H   0  0  0  0  0  0  0  0  0  0  0  0
    5.2400    4.9922    0.7238 H   0  0  0  0  0  0  0  0  0  0  0  0
    7.4347    4.2136    1.7092 H   0  0  0  0  0  0  0  0  0  0  0  0
    7.3980    4.0576   -0.0505 H   0  0  0  0  0  0  0  0  0  0  0  0
    6.9598    1.7895    1.9789 H   0  0  0  0  0  0  0  0  0  0  0  0
    8.3615    1.9963    0.9263 H   0  0  0  0  0  0  0  0  0  0  0  0
    6.7767    0.2868   -0.0155 H   0  0  0  0  0  0  0  0  0  0  0  0
    6.9705    1.6673   -1.0959 H   0  0  0  0  0  0  0  0  0  0  0  0
  1  2  1  0
  1 16  1  0
  1 17  1  0
  1 18  1  0
  2  3  1  0
  2 19  1  0
  2 20  1  0
  3  4  1  0
  3  9  1  0
  3 21  1  6
  4  5  1  0
  4 22  1  0
  4 23  1  0
  5  6  1  0
  5  7  2  0
  6 24  1  0
  6 25  1  0
  7  8  1  0
  8 26  1  0
  9 10  1  0
  9 27  1  0
 10 11  1  0
 10 15  1  0
 10 28  1  6
 11 12  1  0
 11 29  1  0
 11 30  1  0
 12 13  1  0
 12 31  1  0
 12 32  1  0
 13 14  1  0
 13 33  1  0
 13 34  1  0
 14 15  1  0
 14 35  1  0
 14 36  1  0
 15 37  1  0
 15 38  1  0
M  END

