
     RDKit          3D

 31 32  0  0  0  0  0  0  0  0999 V2000
    2.3068    3.8250   -1.7949 C   0  0  0  0  0  0  0  0  0  0  0  0
    3.0701    2.8574   -1.2801 C   0  0  0  0  0  0  0  0  0  0  0  0
    3.6018    2.8309    0.1256 C   0  0  0  0  0  0  0  0  0  0  0  0
    5.0436    2.6367    0.1367 N   0  0  0  0  0  0  0  0  0  0  0  0
    5.6245    2.5127    1.4681 C   0  0  0  0  0  0  0  0  0  0  0  0
    7.1006    2.3086    1.4296 C   0  0  0  0  0  0  0  0  0  0  0  0
    8.1632    3.0861    1.7998 C   0  0  0  0  0  0  0  0  0  0  0  0
    9.3484    2.3356    1.4961 C   0  0  0  0  0  0  0  0  0  0  0  0
    8.9245    1.1489    0.9574 C   0  0  0  0  0  0  0  0  0  0  0  0
    9.6410   -0.0278    0.4398 C   0  0  1  0  0  0  0  0  0  0  0  0
    9.0680   -1.4273    0.5876 C   0  0  0  0  0  0  0  0  0  0  0  0
    9.1317   -0.7917   -0.7718 C   0  0  2  0  0  0  0  0  0  0  0  0
   10.0961   -1.2861   -1.8260 C   0  0  0  0  0  0  0  0  0  0  0  0
    7.5634    1.1283    0.9168 O   0  0  0  0  0  0  0  0  0  0  0  0
    1.9422    3.7806   -2.8250 H   0  0  0  0  0  0  0  0  0  0  0  0
    2.0106    4.6977   -1.2025 H   0  0  0  0  0  0  0  0  0  0  0  0
    3.3627    2.0009   -1.9000 H   0  0  0  0  0  0  0  0  0  0  0  0
    3.1498    1.9740    0.6626 H   0  0  0  0  0  0  0  0  0  0  0  0
    3.2664    3.7430    0.6714 H   0  0  0  0  0  0  0  0  0  0  0  0
    5.5032    3.3912   -0.3726 H   0  0  0  0  0  0  0  0  0  0  0  0
    5.1467    1.6476    1.9644 H   0  0  0  0  0  0  0  0  0  0  0  0
    5.4279    3.3910    2.1233 H   0  0  0  0  0  0  0  0  0  0  0  0
    8.1058    4.0793    2.2414 H   0  0  0  0  0  0  0  0  0  0  0  0
   10.3819    2.6352    1.6556 H   0  0  0  0  0  0  0  0  0  0  0  0
   10.7273    0.0666    0.5301 H   0  0  0  0  0  0  0  0  0  0  0  0
    8.0918   -1.5164    1.0713 H   0  0  0  0  0  0  0  0  0  0  0  0
    9.7700   -2.2352    0.8170 H   0  0  0  0  0  0  0  0  0  0  0  0
    8.1721   -0.4285   -1.1563 H   0  0  0  0  0  0  0  0  0  0  0  0
   11.0441   -1.6228   -1.3749 H   0  0  0  0  0  0  0  0  0  0  0  0
   10.3350   -0.4949   -2.5560 H   0  0  0  0  0  0  0  0  0  0  0  0
    9.6733   -2.1390   -2.3834 H   0  0  0  0  0  0  0  0  0  0  0  0
  1  2  2  0
  1 15  1  0
  1 16  1  0
  2  3  1  0
  2 17  1  0
  3  4  1  0
  3 18  1  0
  3 19  1  0
  4  5  1  0
  4 20  1  0
  5  6  1  0
  5 21  1  0
  5 22  1  0
  6  7  2  0
  6 14  1  0
  7  8  1  0
  7 23  1  0
  8  9  2  0
  8 24  1  0
  9 10  1  0
  9 14  1  0
 10 11  1  0
 10 12  1  0
 10 25  1  6
 11 12  1  0
 11 26  1  0
 11 27  1  0
 12 13  1  0
 12 28  1  6
 13 29  1  0
 13 30  1  0
 13 31  1  0
M  END

