
     RDKit          3D

 71 73  0  0  0  0  0  0  0  0999 V2000
    1.0454    0.6595    1.5278 C   0  0  0  0  0  0  0  0  0  0  0  0
    2.4702    0.6400    1.4776 O   0  0  0  0  0  0  0  0  0  0  0  0
    3.0368    1.3153    0.4585 C   0  0  0  0  0  0  0  0  0  0  0  0
    2.3957    1.8903   -0.3951 O   0  0  0  0  0  0  0  0  0  0  0  0
    4.5046    1.2822    0.5448 C   0  0  0  0  0  0  0  0  0  0  0  0
    5.2812    0.9135    1.6234 C   0  0  0  0  0  0  0  0  0  0  0  0
    6.6441    1.1929    1.2959 C   0  0  0  0  0  0  0  0  0  0  0  0
    7.8493    1.0030    2.0191 C   0  0  0  0  0  0  0  0  0  0  0  0
    7.8464    0.4323    3.4154 C   0  0  0  0  0  0  0  0  0  0  0  0
    9.0355    1.3622    1.3690 C   0  0  0  0  0  0  0  0  0  0  0  0
   10.2471    1.1856    2.0702 N   0  0  0  0  0  0  0  0  0  0  0  0
   11.5357    1.4360    1.6668 C   0  0  0  0  0  0  0  0  0  0  0  0
   11.8812    1.8710    0.5869 O   0  0  0  0  0  0  0  0  0  0  0  0
   12.3639    1.1119    2.6856 O   0  0  0  0  0  0  0  0  0  0  0  0
   13.8188    1.2621    2.5848 C   0  0  1  0  0  0  0  0  0  0  0  0
   14.1807    2.7348    2.3659 C   0  0  0  0  0  0  0  0  0  0  0  0
   14.3040    0.7835    3.9547 C   0  0  0  0  0  0  0  0  0  0  0  0
   14.3634    0.3609    1.4716 C   0  0  0  0  0  0  0  0  0  0  0  0
    9.0324    1.8768    0.0452 C   0  0  0  0  0  0  0  0  0  0  0  0
    7.8504    2.0645   -0.6639 C   0  0  0  0  0  0  0  0  0  0  0  0
    7.7913    2.5198   -1.9391 O   0  0  0  0  0  0  0  0  0  0  0  0
    8.9912    2.9496   -2.5682 C   0  0  0  0  0  0  0  0  0  0  0  0
    8.6814    3.5874   -3.9005 C   0  0  0  0  0  0  0  0  0  0  0  0
    9.5478    3.3939   -4.9853 C   0  0  0  0  0  0  0  0  0  0  0  0
    9.3176    4.0371   -6.2055 C   0  0  0  0  0  0  0  0  0  0  0  0
    8.2095    4.8748   -6.3554 C   0  0  0  0  0  0  0  0  0  0  0  0
    7.3351    5.0639   -5.2795 C   0  0  0  0  0  0  0  0  0  0  0  0
    7.5682    4.4283   -4.0571 C   0  0  0  0  0  0  0  0  0  0  0  0
    6.6354    1.7424   -0.0157 C   0  0  0  0  0  0  0  0  0  0  0  0
    5.3203    1.7989   -0.4610 N   0  0  0  0  0  0  0  0  0  0  0  0
    4.8750    2.2451   -1.7609 C   0  0  0  0  0  0  0  0  0  0  0  0
    5.0198    3.3737   -2.1405 O   0  0  0  0  0  0  0  0  0  0  0  0
    4.3424    1.2222   -2.4073 O   0  0  0  0  0  0  0  0  0  0  0  0
    3.6918    1.3656   -3.7284 C   0  0  1  0  0  0  0  0  0  0  0  0
    4.7666    1.6697   -4.7731 C   0  0  0  0  0  0  0  0  0  0  0  0
    3.0840   -0.0204   -3.9451 C   0  0  0  0  0  0  0  0  0  0  0  0
    2.6002    2.4377   -3.6801 C   0  0  0  0  0  0  0  0  0  0  0  0
    0.7638    0.0844    2.4185 H   0  0  0  0  0  0  0  0  0  0  0  0
    0.6143    0.1985    0.6259 H   0  0  0  0  0  0  0  0  0  0  0  0
    0.6680    1.6907    1.6040 H   0  0  0  0  0  0  0  0  0  0  0  0
    4.8836    0.5158    2.5528 H   0  0  0  0  0  0  0  0  0  0  0  0
    6.8276    0.2072    3.7565 H   0  0  0  0  0  0  0  0  0  0  0  0
    8.2803    1.1330    4.1520 H   0  0  0  0  0  0  0  0  0  0  0  0
    8.4205   -0.5098    3.4819 H   0  0  0  0  0  0  0  0  0  0  0  0
   10.1761    0.8207    3.0113 H   0  0  0  0  0  0  0  0  0  0  0  0
   13.7385    3.3598    3.1576 H   0  0  0  0  0  0  0  0  0  0  0  0
   13.8217    3.0910    1.3921 H   0  0  0  0  0  0  0  0  0  0  0  0
   15.2744    2.8575    2.4061 H   0  0  0  0  0  0  0  0  0  0  0  0
   13.8764    1.4048    4.7563 H   0  0  0  0  0  0  0  0  0  0  0  0
   15.4012    0.8452    4.0132 H   0  0  0  0  0  0  0  0  0  0  0  0
   14.0034   -0.2607    4.1294 H   0  0  0  0  0  0  0  0  0  0  0  0
   14.0046    0.6868    0.4872 H   0  0  0  0  0  0  0  0  0  0  0  0
   14.0511   -0.6824    1.6361 H   0  0  0  0  0  0  0  0  0  0  0  0
   15.4642    0.3917    1.4748 H   0  0  0  0  0  0  0  0  0  0  0  0
    9.9926    2.1114   -0.4022 H   0  0  0  0  0  0  0  0  0  0  0  0
    9.6807    2.0962   -2.6995 H   0  0  0  0  0  0  0  0  0  0  0  0
    9.5020    3.6802   -1.9120 H   0  0  0  0  0  0  0  0  0  0  0  0
   10.4124    2.7323   -4.8765 H   0  0  0  0  0  0  0  0  0  0  0  0
   10.0027    3.8763   -7.0421 H   0  0  0  0  0  0  0  0  0  0  0  0
    8.0245    5.3759   -7.3092 H   0  0  0  0  0  0  0  0  0  0  0  0
    6.4625    5.7129   -5.3919 H   0  0  0  0  0  0  0  0  0  0  0  0
    6.8734    4.5603   -3.2257 H   0  0  0  0  0  0  0  0  0  0  0  0
    5.5503    0.8967   -4.7597 H   0  0  0  0  0  0  0  0  0  0  0  0
    5.2363    2.6452   -4.5926 H   0  0  0  0  0  0  0  0  0  0  0  0
    4.3127    1.6820   -5.7764 H   0  0  0  0  0  0  0  0  0  0  0  0
    3.8640   -0.7958   -3.9110 H   0  0  0  0  0  0  0  0  0  0  0  0
    2.5872   -0.0665   -4.9259 H   0  0  0  0  0  0  0  0  0  0  0  0
    2.3406   -0.2401   -3.1643 H   0  0  0  0  0  0  0  0  0  0  0  0
    3.0274    3.4415   -3.5638 H   0  0  0  0  0  0  0  0  0  0  0  0
    1.9174    2.2507   -2.8399 H   0  0  0  0  0  0  0  0  0  0  0  0
    2.0280    2.4063   -4.6206 H   0  0  0  0  0  0  0  0  0  0  0  0
  1  2  1  0
  1 38  1  0
  1 39  1  0
  1 40  1  0
  2  3  1  0
  3  4  2  0
  3  5  1  0
  5  6  2  0
  5 30  1  0
  6  7  1  0
  6 41  1  0
  7  8  2  0
  7 29  1  0
  8  9  1  0
  8 10  1  0
  9 42  1  0
  9 43  1  0
  9 44  1  0
 10 11  1  0
 10 19  2  0
 11 12  1  0
 11 45  1  0
 12 13  2  0
 12 14  1  0
 15 14  1  1
 15 16  1  0
 15 17  1  0
 15 18  1  0
 16 46  1  0
 16 47  1  0
 16 48  1  0
 17 49  1  0
 17 50  1  0
 17 51  1  0
 18 52  1  0
 18 53  1  0
 18 54  1  0
 19 20  1  0
 19 55  1  0
 20 21  1  0
 20 29  2  0
 21 22  1  0
 22 23  1  0
 22 56  1  0
 22 57  1  0
 23 24  2  0
 23 28  1  0
 24 25  1  0
 24 58  1  0
 25 26  2  0
 25 59  1  0
 26 27  1  0
 26 60  1  0
 27 28  2  0
 27 61  1  0
 28 62  1  0
 29 30  1  0
 30 31  1  0
 31 32  2  0
 31 33  1  0
 34 33  1  1
 34 35  1  0
 34 36  1  0
 34 37  1  0
 35 63  1  0
 35 64  1  0
 35 65  1  0
 36 66  1  0
 36 67  1  0
 36 68  1  0
 37 69  1  0
 37 70  1  0
 37 71  1  0
M  END

