
     RDKit          3D

 55 59  0  0  0  0  0  0  0  0999 V2000
    5.5621    2.3517    4.4490 C   0  0  0  0  0  0  0  0  0  0  0  0
    5.7971    1.7140    3.1013 C   0  0  0  0  0  0  0  0  0  0  0  0
    6.6329    2.3063    2.1455 C   0  0  0  0  0  0  0  0  0  0  0  0
    6.8554    1.6990    0.9046 C   0  0  0  0  0  0  0  0  0  0  0  0
    6.2475    0.4817    0.5806 C   0  0  0  0  0  0  0  0  0  0  0  0
    6.4697   -0.1804   -0.7686 C   0  0  0  0  0  0  0  0  0  0  0  0
    7.1356   -1.4779   -0.7282 N   0  0  0  0  0  0  0  0  0  0  0  0
    6.4111   -2.6613   -0.7471 C   0  0  0  0  0  0  0  0  0  0  0  0
    5.1996   -2.7676   -0.7005 O   0  0  0  0  0  0  0  0  0  0  0  0
    7.4569   -3.6986   -0.8463 C   0  0  0  0  0  0  0  0  0  0  0  0
    7.5797   -5.0397   -0.9251 N   0  0  0  0  0  0  0  0  0  0  0  0
    6.8501   -5.7431   -0.9142 H   0  0  0  0  0  0  0  0  0  0  0  0
    8.8628   -5.4053   -1.0395 N   0  0  0  0  0  0  0  0  0  0  0  0
    9.5954   -4.2767   -1.0363 C   0  0  0  0  0  0  0  0  0  0  0  0
   11.0618   -4.3473   -1.1637 C   0  0  0  0  0  0  0  0  0  0  0  0
   11.8496   -3.1907   -1.2622 C   0  0  0  0  0  0  0  0  0  0  0  0
   13.2384   -3.2757   -1.3898 C   0  0  0  0  0  0  0  0  0  0  0  0
   13.8913   -4.5150   -1.4243 C   0  0  0  0  0  0  0  0  0  0  0  0
   15.3910   -4.6165   -1.5529 C   0  0  0  0  0  0  0  0  0  0  0  0
   13.0971   -5.6724   -1.3277 C   0  0  0  0  0  0  0  0  0  0  0  0
   11.7138   -5.5955   -1.2003 C   0  0  0  0  0  0  0  0  0  0  0  0
    8.7186   -3.1571   -0.9113 C   0  0  0  0  0  0  0  0  0  0  0  0
    8.6014   -1.6493   -0.8362 C   0  0  2  0  0  0  0  0  0  0  0  0
    9.3604   -0.9883    0.3112 C   0  0  0  0  0  0  0  0  0  0  0  0
   10.2361    0.0760    0.0573 C   0  0  0  0  0  0  0  0  0  0  0  0
   10.9285    0.6999    1.0968 C   0  0  0  0  0  0  0  0  0  0  0  0
   10.7270    0.2436    2.3973 C   0  0  0  0  0  0  0  0  0  0  0  0
   11.4499    0.9004    3.5070 N   0  0  0  0  0  0  0  0  0  0  0  0
   12.1958    1.8246    3.2254 O   0  0  0  0  0  0  0  0  0  0  0  0
   11.2547    0.4781    4.6350 O   0  0  0  0  0  0  0  0  0  0  0  0
    9.8606   -0.8146    2.6829 C   0  0  0  0  0  0  0  0  0  0  0  0
    9.1817   -1.4261    1.6332 C   0  0  0  0  0  0  0  0  0  0  0  0
    5.3973   -0.1118    1.5300 C   0  0  0  0  0  0  0  0  0  0  0  0
    5.1817    0.4939    2.7666 C   0  0  0  0  0  0  0  0  0  0  0  0
    6.0099    3.3547    4.5069 H   0  0  0  0  0  0  0  0  0  0  0  0
    5.9994    1.7441    5.2597 H   0  0  0  0  0  0  0  0  0  0  0  0
    4.4855    2.4475    4.6658 H   0  0  0  0  0  0  0  0  0  0  0  0
    7.1209    3.2584    2.3729 H   0  0  0  0  0  0  0  0  0  0  0  0
    7.5148    2.1862    0.1802 H   0  0  0  0  0  0  0  0  0  0  0  0
    7.0496    0.4886   -1.4245 H   0  0  0  0  0  0  0  0  0  0  0  0
    5.4954   -0.3570   -1.2510 H   0  0  0  0  0  0  0  0  0  0  0  0
   11.3819   -2.2056   -1.2372 H   0  0  0  0  0  0  0  0  0  0  0  0
   13.8253   -2.3558   -1.4633 H   0  0  0  0  0  0  0  0  0  0  0  0
   15.8548   -3.6281   -1.6869 H   0  0  0  0  0  0  0  0  0  0  0  0
   15.6785   -5.2448   -2.4123 H   0  0  0  0  0  0  0  0  0  0  0  0
   15.8384   -5.0777   -0.6559 H   0  0  0  0  0  0  0  0  0  0  0  0
   13.5769   -6.6556   -1.3529 H   0  0  0  0  0  0  0  0  0  0  0  0
   11.1137   -6.5038   -1.1274 H   0  0  0  0  0  0  0  0  0  0  0  0
    8.9433   -1.1843   -1.7800 H   0  0  0  0  0  0  0  0  0  0  0  0
   10.3802    0.4271   -0.9682 H   0  0  0  0  0  0  0  0  0  0  0  0
   11.6134    1.5285    0.9199 H   0  0  0  0  0  0  0  0  0  0  0  0
    9.7342   -1.1368    3.7159 H   0  0  0  0  0  0  0  0  0  0  0  0
    8.4988   -2.2522    1.8417 H   0  0  0  0  0  0  0  0  0  0  0  0
    4.8961   -1.0518    1.2841 H   0  0  0  0  0  0  0  0  0  0  0  0
    4.5132    0.0147    3.4884 H   0  0  0  0  0  0  0  0  0  0  0  0
  1  2  1  0
  1 35  1  0
  1 36  1  0
  1 37  1  0
  2  3  2  0
  2 34  1  0
  3  4  1  0
  3 38  1  0
  4  5  2  0
  4 39  1  0
  5  6  1  0
  5 33  1  0
  6  7  1  0
  6 40  1  0
  6 41  1  0
  7  8  1  0
  7 23  1  0
  8  9  2  0
  8 10  1  0
 10 11  1  0
 10 22  2  0
 11 12  1  0
 11 13  1  0
 13 14  2  0
 14 15  1  0
 14 22  1  0
 15 16  2  0
 15 21  1  0
 16 17  1  0
 16 42  1  0
 17 18  2  0
 17 43  1  0
 18 19  1  0
 18 20  1  0
 19 44  1  0
 19 45  1  0
 19 46  1  0
 20 21  2  0
 20 47  1  0
 21 48  1  0
 22 23  1  0
 23 24  1  0
 23 49  1  6
 24 25  2  0
 24 32  1  0
 25 26  1  0
 25 50  1  0
 26 27  2  0
 26 51  1  0
 27 28  1  0
 27 31  1  0
 28 29  2  0
 28 30  1  0
 31 32  2  0
 31 52  1  0
 32 53  1  0
 33 34  2  0
 33 54  1  0
 34 55  1  0
M  CHG  2  28   1  30  -1
M  END

