
     RDKit          3D

 45 46  0  0  0  0  0  0  0  0999 V2000
    2.6486    0.5903    2.2799 C   0  0  0  0  0  0  0  0  0  0  0  0
    3.3072    1.2981    1.1110 C   0  0  0  0  0  0  0  0  0  0  0  0
    3.7780    0.3168    0.1997 O   0  0  0  0  0  0  0  0  0  0  0  0
    4.4024    0.6989   -0.9561 C   0  0  0  0  0  0  0  0  0  0  0  0
    4.6451    2.0395   -1.2850 C   0  0  0  0  0  0  0  0  0  0  0  0
    5.3010    2.3638   -2.4790 C   0  0  0  0  0  0  0  0  0  0  0  0
    5.7189    1.3562   -3.3441 C   0  0  0  0  0  0  0  0  0  0  0  0
    5.4706    0.0205   -3.0045 C   0  0  0  0  0  0  0  0  0  0  0  0
    4.8121   -0.3426   -1.8257 C   0  0  0  0  0  0  0  0  0  0  0  0
    4.5832   -1.8178   -1.4978 C   0  0  1  0  0  0  0  0  0  0  0  0
    5.1813   -2.2759   -0.2408 N   0  0  0  0  0  0  0  0  0  0  0  0
    3.0933   -2.2212   -1.4951 C   0  0  0  0  0  0  0  0  0  0  0  0
    2.3856   -1.8893   -2.7126 N   0  0  0  0  0  0  0  0  0  0  0  0
    2.7289   -2.6660   -3.8975 C   0  0  0  0  0  0  0  0  0  0  0  0
    1.6037   -2.3540   -4.9085 C   0  0  0  0  0  0  0  0  0  0  0  0
    0.4673   -1.6694   -4.0789 C   0  0  2  0  0  0  0  0  0  0  0  0
   -0.9132   -2.2729   -4.3612 C   0  0  0  0  0  0  0  0  0  0  0  0
    0.4505   -0.1543   -4.3464 C   0  0  0  0  0  0  0  0  0  0  0  0
    0.9358   -1.9365   -2.6299 C   0  0  0  0  0  0  0  0  0  0  0  0
    2.2726    1.3286    3.0050 H   0  0  0  0  0  0  0  0  0  0  0  0
    3.3652   -0.0663    2.7972 H   0  0  0  0  0  0  0  0  0  0  0  0
    1.8006   -0.0241    1.9405 H   0  0  0  0  0  0  0  0  0  0  0  0
    4.1496    1.9248    1.4597 H   0  0  0  0  0  0  0  0  0  0  0  0
    2.5873    1.9670    0.6035 H   0  0  0  0  0  0  0  0  0  0  0  0
    4.3280    2.8411   -0.6184 H   0  0  0  0  0  0  0  0  0  0  0  0
    5.4828    3.4140   -2.7216 H   0  0  0  0  0  0  0  0  0  0  0  0
    6.2347    1.6007   -4.2755 H   0  0  0  0  0  0  0  0  0  0  0  0
    5.7996   -0.7746   -3.6806 H   0  0  0  0  0  0  0  0  0  0  0  0
    5.0750   -2.3913   -2.3017 H   0  0  0  0  0  0  0  0  0  0  0  0
    4.8266   -1.6996    0.5231 H   0  0  0  0  0  0  0  0  0  0  0  0
    6.1896   -2.1238   -0.2646 H   0  0  0  0  0  0  0  0  0  0  0  0
    2.5982   -1.7037   -0.6595 H   0  0  0  0  0  0  0  0  0  0  0  0
    3.0559   -3.3116   -1.2686 H   0  0  0  0  0  0  0  0  0  0  0  0
    2.7514   -3.7575   -3.6681 H   0  0  0  0  0  0  0  0  0  0  0  0
    3.7277   -2.3985   -4.2776 H   0  0  0  0  0  0  0  0  0  0  0  0
    1.2467   -3.2767   -5.3914 H   0  0  0  0  0  0  0  0  0  0  0  0
    1.9543   -1.6882   -5.7118 H   0  0  0  0  0  0  0  0  0  0  0  0
   -1.2152   -2.0993   -5.4075 H   0  0  0  0  0  0  0  0  0  0  0  0
   -1.6855   -1.8215   -3.7155 H   0  0  0  0  0  0  0  0  0  0  0  0
   -0.9223   -3.3610   -4.1843 H   0  0  0  0  0  0  0  0  0  0  0  0
    0.2460    0.0580   -5.4091 H   0  0  0  0  0  0  0  0  0  0  0  0
    1.4220    0.2917   -4.0850 H   0  0  0  0  0  0  0  0  0  0  0  0
   -0.3297    0.3461   -3.7483 H   0  0  0  0  0  0  0  0  0  0  0  0
    0.5699   -2.9360   -2.2899 H   0  0  0  0  0  0  0  0  0  0  0  0
    0.5567   -1.1889   -1.9128 H   0  0  0  0  0  0  0  0  0  0  0  0
  1  2  1  0
  1 20  1  0
  1 21  1  0
  1 22  1  0
  2  3  1  0
  2 23  1  0
  2 24  1  0
  3  4  1  0
  4  5  2  0
  4  9  1  0
  5  6  1  0
  5 25  1  0
  6  7  2  0
  6 26  1  0
  7  8  1  0
  7 27  1  0
  8  9  2  0
  8 28  1  0
  9 10  1  0
 10 11  1  0
 10 12  1  0
 10 29  1  6
 11 30  1  0
 11 31  1  0
 12 13  1  0
 12 32  1  0
 12 33  1  0
 13 14  1  0
 13 19  1  0
 14 15  1  0
 14 34  1  0
 14 35  1  0
 15 16  1  0
 15 36  1  0
 15 37  1  0
 16 17  1  1
 16 18  1  0
 16 19  1  0
 17 38  1  0
 17 39  1  0
 17 40  1  0
 18 41  1  0
 18 42  1  0
 18 43  1  0
 19 44  1  0
 19 45  1  0
M  END

