
     RDKit          3D

 81 83  0  0  0  0  0  0  0  0999 V2000
    3.7333   -0.4245    5.8257 C   0  0  0  0  0  0  0  0  0  0  0  0
    3.0002   -1.7037    5.4213 C   0  0  0  0  0  0  0  0  0  0  0  0
    3.1104   -2.0374    3.9416 C   0  0  0  0  0  0  0  0  0  0  0  0
    4.4822   -2.2464    3.6185 O   0  0  0  0  0  0  0  0  0  0  0  0
    4.7529   -2.4843    2.2925 C   0  0  2  0  0  0  0  0  0  0  0  0
    4.2790   -1.7047    1.6472 H   0  0  0  0  0  0  0  0  0  0  0  0
    4.2482   -3.7460    1.9127 O   0  0  0  0  0  0  0  0  0  0  0  0
    4.3996   -4.0427    0.5338 C   0  0  2  0  0  0  0  0  0  0  0  0
    3.7556   -5.3972    0.2678 C   0  0  0  0  0  0  0  0  0  0  0  0
    2.3618   -5.3251    0.4195 O   0  0  0  0  0  0  0  0  0  0  0  0
    1.3624   -6.3480    1.3180 Si  0  0  1  0  0  4  0  0  0  0  0  0
    1.1835   -7.9963    0.4137 C   0  0  0  0  0  0  0  0  0  0  0  0
    2.1264   -6.6434    3.0189 C   0  0  0  0  0  0  0  0  0  0  0  0
   -0.2996   -5.4009    1.4124 C   0  0  1  0  0  0  0  0  0  0  0  0
   -0.7752   -5.0595   -0.0149 C   0  0  0  0  0  0  0  0  0  0  0  0
   -1.3659   -6.2645    2.1165 C   0  0  0  0  0  0  0  0  0  0  0  0
   -0.0945   -4.0925    2.2026 C   0  0  0  0  0  0  0  0  0  0  0  0
    5.8883   -4.0217    0.1240 C   0  0  1  0  0  0  0  0  0  0  0  0
    6.4100   -4.8578    0.6239 H   0  0  0  0  0  0  0  0  0  0  0  0
    5.9492   -4.1529   -1.2812 O   0  0  0  0  0  0  0  0  0  0  0  0
    7.0116   -4.9348   -1.7935 C   0  0  0  0  0  0  0  0  0  0  0  0
    6.9723   -4.9610   -3.3046 C   0  0  0  0  0  0  0  0  0  0  0  0
    7.9607   -5.6744   -4.0021 C   0  0  0  0  0  0  0  0  0  0  0  0
    7.9552   -5.7213   -5.3969 C   0  0  0  0  0  0  0  0  0  0  0  0
    6.9593   -5.0524   -6.1181 C   0  0  0  0  0  0  0  0  0  0  0  0
    5.9747   -4.3394   -5.4310 C   0  0  0  0  0  0  0  0  0  0  0  0
    5.9798   -4.2926   -4.0321 C   0  0  0  0  0  0  0  0  0  0  0  0
    6.5493   -2.7099    0.5691 C   0  0  2  0  0  0  0  0  0  0  0  0
    6.0870   -1.8985   -0.0269 H   0  0  0  0  0  0  0  0  0  0  0  0
    7.9326   -2.7788    0.2979 O   0  0  0  0  0  0  0  0  0  0  0  0
    8.5511   -1.5546   -0.0801 C   0  0  0  0  0  0  0  0  0  0  0  0
    9.9996   -1.7991   -0.4252 C   0  0  0  0  0  0  0  0  0  0  0  0
   10.8753   -2.3454    0.5276 C   0  0  0  0  0  0  0  0  0  0  0  0
   12.2166   -2.5663    0.2099 C   0  0  0  0  0  0  0  0  0  0  0  0
   12.7032   -2.2408   -1.0615 C   0  0  0  0  0  0  0  0  0  0  0  0
   11.8392   -1.6981   -2.0153 C   0  0  0  0  0  0  0  0  0  0  0  0
   10.4936   -1.4841   -1.6983 C   0  0  0  0  0  0  0  0  0  0  0  0
    6.2686   -2.4287    2.0618 C   0  0  2  0  0  0  0  0  0  0  0  0
    6.9182   -3.4354    2.9087 N   0  0  0  0  0  0  0  0  0  0  0  0
    8.0574   -3.2130    3.2929 N   0  0  0  0  0  0  0  0  0  0  0  0
    9.1045   -3.1162    3.7318 N   0  0  0  0  0  0  0  0  0  0  0  0
    3.6329   -0.2308    6.9053 H   0  0  0  0  0  0  0  0  0  0  0  0
    3.3329    0.4532    5.2902 H   0  0  0  0  0  0  0  0  0  0  0  0
    4.8061   -0.4994    5.5924 H   0  0  0  0  0  0  0  0  0  0  0  0
    1.9266   -1.6243    5.6659 H   0  0  0  0  0  0  0  0  0  0  0  0
    3.3892   -2.5603    5.9982 H   0  0  0  0  0  0  0  0  0  0  0  0
    2.7104   -1.2069    3.3228 H   0  0  0  0  0  0  0  0  0  0  0  0
    2.5263   -2.9405    3.6994 H   0  0  0  0  0  0  0  0  0  0  0  0
    3.8669   -3.2851   -0.0774 H   0  0  0  0  0  0  0  0  0  0  0  0
    4.2147   -6.1311    0.9578 H   0  0  0  0  0  0  0  0  0  0  0  0
    4.0105   -5.6936   -0.7641 H   0  0  0  0  0  0  0  0  0  0  0  0
    2.1691   -8.4759    0.2901 H   0  0  0  0  0  0  0  0  0  0  0  0
    0.7491   -7.8655   -0.5903 H   0  0  0  0  0  0  0  0  0  0  0  0
    0.5448   -8.7004    0.9724 H   0  0  0  0  0  0  0  0  0  0  0  0
    2.9879   -7.3285    2.9553 H   0  0  0  0  0  0  0  0  0  0  0  0
    1.4004   -7.0979    3.7130 H   0  0  0  0  0  0  0  0  0  0  0  0
    2.4881   -5.7007    3.4581 H   0  0  0  0  0  0  0  0  0  0  0  0
   -0.9722   -5.9649   -0.6125 H   0  0  0  0  0  0  0  0  0  0  0  0
   -0.0279   -4.4582   -0.5554 H   0  0  0  0  0  0  0  0  0  0  0  0
   -1.7166   -4.4809    0.0203 H   0  0  0  0  0  0  0  0  0  0  0  0
   -1.5657   -7.2026    1.5728 H   0  0  0  0  0  0  0  0  0  0  0  0
   -2.3238   -5.7169    2.1825 H   0  0  0  0  0  0  0  0  0  0  0  0
   -1.0740   -6.5305    3.1463 H   0  0  0  0  0  0  0  0  0  0  0  0
    0.6834   -3.4628    1.7430 H   0  0  0  0  0  0  0  0  0  0  0  0
    0.2018   -4.2845    3.2472 H   0  0  0  0  0  0  0  0  0  0  0  0
   -1.0314   -3.5063    2.2305 H   0  0  0  0  0  0  0  0  0  0  0  0
    6.9364   -5.9727   -1.4065 H   0  0  0  0  0  0  0  0  0  0  0  0
    7.9815   -4.5353   -1.4495 H   0  0  0  0  0  0  0  0  0  0  0  0
    8.7447   -6.1979   -3.4457 H   0  0  0  0  0  0  0  0  0  0  0  0
    8.7318   -6.2813   -5.9245 H   0  0  0  0  0  0  0  0  0  0  0  0
    6.9536   -5.0882   -7.2106 H   0  0  0  0  0  0  0  0  0  0  0  0
    5.1930   -3.8133   -5.9859 H   0  0  0  0  0  0  0  0  0  0  0  0
    5.2134   -3.7357   -3.4924 H   0  0  0  0  0  0  0  0  0  0  0  0
    8.4799   -0.8212    0.7489 H   0  0  0  0  0  0  0  0  0  0  0  0
    8.0235   -1.1173   -0.9483 H   0  0  0  0  0  0  0  0  0  0  0  0
   10.5036   -2.6040    1.5220 H   0  0  0  0  0  0  0  0  0  0  0  0
   12.8875   -2.9927    0.9602 H   0  0  0  0  0  0  0  0  0  0  0  0
   13.7546   -2.4118   -1.3071 H   0  0  0  0  0  0  0  0  0  0  0  0
   12.2094   -1.4456   -3.0122 H   0  0  0  0  0  0  0  0  0  0  0  0
    9.8188   -1.0688   -2.4524 H   0  0  0  0  0  0  0  0  0  0  0  0
    6.6201   -1.4161    2.3273 H   0  0  0  0  0  0  0  0  0  0  0  0
  1  2  1  0
  1 42  1  0
  1 43  1  0
  1 44  1  0
  2  3  1  0
  2 45  1  0
  2 46  1  0
  3  4  1  0
  3 47  1  0
  3 48  1  0
  4  5  1  0
  5  6  1  6
  5  7  1  0
  5 38  1  0
  7  8  1  0
  8  9  1  0
  8 18  1  0
  8 49  1  6
  9 10  1  0
  9 50  1  0
  9 51  1  0
 11 10  1  6
 11 12  1  0
 11 13  1  0
 11 14  1  0
 12 52  1  0
 12 53  1  0
 12 54  1  0
 13 55  1  0
 13 56  1  0
 13 57  1  0
 14 15  1  6
 14 16  1  0
 14 17  1  0
 15 58  1  0
 15 59  1  0
 15 60  1  0
 16 61  1  0
 16 62  1  0
 16 63  1  0
 17 64  1  0
 17 65  1  0
 17 66  1  0
 18 19  1  1
 18 20  1  0
 18 28  1  0
 20 21  1  0
 21 22  1  0
 21 67  1  0
 21 68  1  0
 22 23  2  0
 22 27  1  0
 23 24  1  0
 23 69  1  0
 24 25  2  0
 24 70  1  0
 25 26  1  0
 25 71  1  0
 26 27  2  0
 26 72  1  0
 27 73  1  0
 28 29  1  6
 28 30  1  0
 28 38  1  0
 30 31  1  0
 31 32  1  0
 31 74  1  0
 31 75  1  0
 32 33  2  0
 32 37  1  0
 33 34  1  0
 33 76  1  0
 34 35  2  0
 34 77  1  0
 35 36  1  0
 35 78  1  0
 36 37  2  0
 36 79  1  0
 37 80  1  0
 38 39  1  0
 38 81  1  1
 39 40  1  0
 40 41  3  0
M  CHG  2  39  -1  40   1
M  END

