
     RDKit          3D

 52 53  0  0  0  0  0  0  0  0999 V2000
   11.1503    0.5905   -2.9759 C   0  0  0  0  0  0  0  0  0  0  0  0
   11.7309    1.8538   -2.3396 C   0  0  0  0  0  0  0  0  0  0  0  0
   10.6815    2.8988   -1.9390 C   0  0  0  0  0  0  0  0  0  0  0  0
    9.7412    2.4429   -0.9224 N   0  0  0  0  0  0  0  0  0  0  0  0
    9.8844    2.7354    0.3962 C   0  0  0  0  0  0  0  0  0  0  0  0
   10.7933    3.4244    0.8392 O   0  0  0  0  0  0  0  0  0  0  0  0
    8.8238    2.1211    1.3290 C   0  0  1  0  0  0  0  0  0  0  0  0
    9.0022    0.5986    1.4695 C   0  0  0  0  0  0  0  0  0  0  0  0
    8.9378    2.8081    2.5984 N   0  0  0  0  0  0  0  0  0  0  0  0
    7.9294    2.8397    3.5050 C   0  0  0  0  0  0  0  0  0  0  0  0
    6.8741    2.2395    3.3461 O   0  0  0  0  0  0  0  0  0  0  0  0
    8.1830    3.6979    4.7445 C   0  0  1  0  0  0  0  0  0  0  0  0
    7.2702    4.9307    4.8155 C   0  0  0  0  0  0  0  0  0  0  0  0
    7.0732    5.1760    6.3078 C   0  0  0  0  0  0  0  0  0  0  0  0
    6.6697    6.2061    6.8054 O   0  0  0  0  0  0  0  0  0  0  0  0
    7.4097    4.0024    6.9711 N   0  0  0  0  0  0  0  0  0  0  0  0
    7.2466    3.7458    8.3527 C   0  0  0  0  0  0  0  0  0  0  0  0
    7.0291    4.7818    9.2836 C   0  0  0  0  0  0  0  0  0  0  0  0
    6.8889    4.4850   10.6383 C   0  0  0  0  0  0  0  0  0  0  0  0
    6.9578    3.1715   11.1289 C   0  0  0  0  0  0  0  0  0  0  0  0
    6.7630    2.8678   12.5986 C   0  0  0  0  0  0  0  0  0  0  0  0
    5.2912    2.6604   12.9894 C   0  0  0  0  0  0  0  0  0  0  0  0
    7.1726    2.1512   10.1933 C   0  0  0  0  0  0  0  0  0  0  0  0
    7.3137    2.4235    8.8312 C   0  0  0  0  0  0  0  0  0  0  0  0
    7.8357    2.9504    6.0464 C   0  0  0  0  0  0  0  0  0  0  0  0
   11.9454   -0.1175   -3.2570 H   0  0  0  0  0  0  0  0  0  0  0  0
   10.5777    0.8250   -3.8896 H   0  0  0  0  0  0  0  0  0  0  0  0
   10.4753    0.0605   -2.2833 H   0  0  0  0  0  0  0  0  0  0  0  0
   12.4306    2.3368   -3.0438 H   0  0  0  0  0  0  0  0  0  0  0  0
   12.3242    1.5924   -1.4468 H   0  0  0  0  0  0  0  0  0  0  0  0
   10.1045    3.2156   -2.8250 H   0  0  0  0  0  0  0  0  0  0  0  0
   11.1799    3.7883   -1.5291 H   0  0  0  0  0  0  0  0  0  0  0  0
    8.9512    1.8766   -1.2069 H   0  0  0  0  0  0  0  0  0  0  0  0
    7.8169    2.3134    0.9177 H   0  0  0  0  0  0  0  0  0  0  0  0
   10.0026    0.3625    1.8642 H   0  0  0  0  0  0  0  0  0  0  0  0
    8.8797    0.0869    0.5021 H   0  0  0  0  0  0  0  0  0  0  0  0
    8.2417    0.2109    2.1617 H   0  0  0  0  0  0  0  0  0  0  0  0
    9.7861    3.3605    2.7084 H   0  0  0  0  0  0  0  0  0  0  0  0
    9.2360    4.0202    4.7797 H   0  0  0  0  0  0  0  0  0  0  0  0
    6.2822    4.7071    4.3772 H   0  0  0  0  0  0  0  0  0  0  0  0
    7.6666    5.8300    4.3246 H   0  0  0  0  0  0  0  0  0  0  0  0
    6.9645    5.8085    8.9327 H   0  0  0  0  0  0  0  0  0  0  0  0
    6.7263    5.3106   11.3382 H   0  0  0  0  0  0  0  0  0  0  0  0
    7.1843    3.6914   13.1999 H   0  0  0  0  0  0  0  0  0  0  0  0
    7.3395    1.9655   12.8648 H   0  0  0  0  0  0  0  0  0  0  0  0
    4.6910    3.5571   12.7660 H   0  0  0  0  0  0  0  0  0  0  0  0
    5.1921    2.4449   14.0659 H   0  0  0  0  0  0  0  0  0  0  0  0
    4.8472    1.8197   12.4322 H   0  0  0  0  0  0  0  0  0  0  0  0
    7.2331    1.1122   10.5314 H   0  0  0  0  0  0  0  0  0  0  0  0
    7.4685    1.5907    8.1452 H   0  0  0  0  0  0  0  0  0  0  0  0
    7.0228    2.2277    5.8588 H   0  0  0  0  0  0  0  0  0  0  0  0
    8.7008    2.4044    6.4524 H   0  0  0  0  0  0  0  0  0  0  0  0
  1  2  1  0
  1 26  1  0
  1 27  1  0
  1 28  1  0
  2  3  1  0
  2 29  1  0
  2 30  1  0
  3  4  1  0
  3 31  1  0
  3 32  1  0
  4  5  1  0
  4 33  1  0
  5  6  2  0
  5  7  1  0
  7  8  1  0
  7  9  1  0
  7 34  1  6
  8 35  1  0
  8 36  1  0
  8 37  1  0
  9 10  1  0
  9 38  1  0
 10 11  2  0
 10 12  1  0
 12 13  1  0
 12 25  1  0
 12 39  1  1
 13 14  1  0
 13 40  1  0
 13 41  1  0
 14 15  2  0
 14 16  1  0
 16 17  1  0
 16 25  1  0
 17 18  2  0
 17 24  1  0
 18 19  1  0
 18 42  1  0
 19 20  2  0
 19 43  1  0
 20 21  1  0
 20 23  1  0
 21 22  1  0
 21 44  1  0
 21 45  1  0
 22 46  1  0
 22 47  1  0
 22 48  1  0
 23 24  2  0
 23 49  1  0
 24 50  1  0
 25 51  1  0
 25 52  1  0
M  END

