
     RDKit          3D

 51 52  0  0  0  0  0  0  0  0999 V2000
    1.0159    0.8243    1.0549 C   0  0  0  0  0  0  0  0  0  0  0  0
    2.2877    1.2875    0.3413 C   0  0  0  0  0  0  0  0  0  0  0  0
    3.5709    0.6197    0.8798 C   0  0  1  0  0  0  0  0  0  0  0  0
    3.6483   -0.8177    0.6036 N   0  0  0  0  0  0  0  0  0  0  0  0
    4.9066    1.2790    0.3845 C   0  0  1  0  0  0  0  0  0  0  0  0
    4.9901    1.1481   -1.1385 C   0  0  0  0  0  0  0  0  0  0  0  0
    4.4951    2.1454   -1.9895 C   0  0  0  0  0  0  0  0  0  0  0  0
    4.5287    1.9908   -3.3787 C   0  0  0  0  0  0  0  0  0  0  0  0
    5.0577    0.8353   -3.9718 C   0  0  0  0  0  0  0  0  0  0  0  0
    5.1066    0.6655   -5.4711 C   0  0  0  0  0  0  0  0  0  0  0  0
    5.5540   -0.1630   -3.1172 C   0  0  0  0  0  0  0  0  0  0  0  0
    5.5228   -0.0098   -1.7302 C   0  0  0  0  0  0  0  0  0  0  0  0
    5.1140    2.6802    0.8178 N   0  0  0  0  0  0  0  0  0  0  0  0
    4.5351    3.0248    2.1176 C   0  0  0  0  0  0  0  0  0  0  0  0
    4.4281    4.5206    2.4680 C   0  0  0  0  0  0  0  0  0  0  0  0
    5.7346    5.2279    2.8479 C   0  0  0  0  0  0  0  0  0  0  0  0
    6.6243    5.6308    1.6588 C   0  0  0  0  0  0  0  0  0  0  0  0
    6.5298    4.7061    0.4368 C   0  0  0  0  0  0  0  0  0  0  0  0
    6.5115    3.1844    0.7269 C   0  0  2  0  0  0  0  0  0  0  0  0
    7.4575    2.4808   -0.2726 C   0  0  0  0  0  0  0  0  0  0  0  0
    8.7767    2.9732   -0.1207 O   0  0  0  0  0  0  0  0  0  0  0  0
    0.1183    1.2939    0.6228 H   0  0  0  0  0  0  0  0  0  0  0  0
    1.0381    1.0774    2.1288 H   0  0  0  0  0  0  0  0  0  0  0  0
    0.8838   -0.2674    0.9756 H   0  0  0  0  0  0  0  0  0  0  0  0
    2.3724    2.3842    0.4142 H   0  0  0  0  0  0  0  0  0  0  0  0
    2.2080    1.0701   -0.7371 H   0  0  0  0  0  0  0  0  0  0  0  0
    3.5688    0.6959    1.9785 H   0  0  0  0  0  0  0  0  0  0  0  0
    3.4349   -1.0099   -0.3761 H   0  0  0  0  0  0  0  0  0  0  0  0
    2.9616   -1.3246    1.1586 H   0  0  0  0  0  0  0  0  0  0  0  0
    5.6772    0.6132    0.8225 H   0  0  0  0  0  0  0  0  0  0  0  0
    4.0967    3.0612   -1.5494 H   0  0  0  0  0  0  0  0  0  0  0  0
    4.1382    2.7898   -4.0162 H   0  0  0  0  0  0  0  0  0  0  0  0
    4.6575    1.5251   -5.9905 H   0  0  0  0  0  0  0  0  0  0  0  0
    4.5662   -0.2412   -5.7915 H   0  0  0  0  0  0  0  0  0  0  0  0
    6.1447    0.5624   -5.8299 H   0  0  0  0  0  0  0  0  0  0  0  0
    5.9823   -1.0744   -3.5461 H   0  0  0  0  0  0  0  0  0  0  0  0
    5.9212   -0.8009   -1.0898 H   0  0  0  0  0  0  0  0  0  0  0  0
    5.0843    2.5214    2.9508 H   0  0  0  0  0  0  0  0  0  0  0  0
    3.5108    2.6426    2.1530 H   0  0  0  0  0  0  0  0  0  0  0  0
    3.7483    4.5712    3.3363 H   0  0  0  0  0  0  0  0  0  0  0  0
    3.9149    5.0546    1.6494 H   0  0  0  0  0  0  0  0  0  0  0  0
    6.2938    4.5626    3.5298 H   0  0  0  0  0  0  0  0  0  0  0  0
    5.5021    6.1264    3.4440 H   0  0  0  0  0  0  0  0  0  0  0  0
    7.6735    5.6848    1.9984 H   0  0  0  0  0  0  0  0  0  0  0  0
    6.3672    6.6535    1.3323 H   0  0  0  0  0  0  0  0  0  0  0  0
    7.3872    4.9256   -0.2166 H   0  0  0  0  0  0  0  0  0  0  0  0
    5.6199    4.9297   -0.1409 H   0  0  0  0  0  0  0  0  0  0  0  0
    7.0027    3.0043    1.7145 H   0  0  0  0  0  0  0  0  0  0  0  0
    7.1710    2.6972   -1.3106 H   0  0  0  0  0  0  0  0  0  0  0  0
    7.4361    1.3864   -0.1453 H   0  0  0  0  0  0  0  0  0  0  0  0
    9.0746    2.7642    0.7751 H   0  0  0  0  0  0  0  0  0  0  0  0
  1  2  1  0
  1 22  1  0
  1 23  1  0
  1 24  1  0
  2  3  1  0
  2 25  1  0
  2 26  1  0
  3  4  1  0
  3  5  1  0
  3 27  1  1
  4 28  1  0
  4 29  1  0
  5  6  1  0
  5 13  1  0
  5 30  1  1
  6  7  2  0
  6 12  1  0
  7  8  1  0
  7 31  1  0
  8  9  2  0
  8 32  1  0
  9 10  1  0
  9 11  1  0
 10 33  1  0
 10 34  1  0
 10 35  1  0
 11 12  2  0
 11 36  1  0
 12 37  1  0
 13 14  1  0
 13 19  1  0
 14 15  1  0
 14 38  1  0
 14 39  1  0
 15 16  1  0
 15 40  1  0
 15 41  1  0
 16 17  1  0
 16 42  1  0
 16 43  1  0
 17 18  1  0
 17 44  1  0
 17 45  1  0
 18 19  1  0
 18 46  1  0
 18 47  1  0
 19 20  1  0
 19 48  1  1
 20 21  1  0
 20 49  1  0
 20 50  1  0
 21 51  1  0
M  END

