
     RDKit          3D

 57 59  0  0  0  0  0  0  0  0999 V2000
    3.4632   -0.9973   -4.0129 C   0  0  0  0  0  0  0  0  0  0  0  0
    4.7343   -1.8103   -4.1351 C   0  0  0  0  0  0  0  0  0  0  0  0
    5.0854   -2.4720   -3.0828 N   0  0  0  0  0  0  0  0  0  0  0  0
    6.1953   -3.2402   -3.0858 N   0  0  0  0  0  0  0  0  0  0  0  0
    6.3041   -4.5191   -1.9301 S   0  0  1  0  0  0  0  0  0  0  0  0
    5.0053   -4.7370   -1.3049 O   0  0  0  0  0  0  0  0  0  0  0  0
    6.9498   -5.5874   -2.6956 O   0  0  0  0  0  0  0  0  0  0  0  0
    7.5592   -3.8868   -0.7751 C   0  0  0  0  0  0  0  0  0  0  0  0
    8.7049   -4.6871   -0.7659 C   0  0  0  0  0  0  0  0  0  0  0  0
    9.8694   -4.2410   -0.1541 C   0  0  0  0  0  0  0  0  0  0  0  0
   11.0557   -5.0993   -0.1416 N   0  0  0  0  0  0  0  0  0  0  0  0
   10.9551   -6.2181   -0.6221 O   0  0  0  0  0  0  0  0  0  0  0  0
   12.0763   -4.6407    0.3540 O   0  0  0  0  0  0  0  0  0  0  0  0
    9.9290   -2.9606    0.4044 C   0  0  0  0  0  0  0  0  0  0  0  0
    8.7934   -2.1733    0.4141 C   0  0  0  0  0  0  0  0  0  0  0  0
    7.5394   -2.6130   -0.1074 C   0  0  0  0  0  0  0  0  0  0  0  0
    6.4346   -1.8113    0.0394 N   0  0  0  0  0  0  0  0  0  0  0  0
    5.0810   -2.3223    0.2509 C   0  0  0  0  0  0  0  0  0  0  0  0
    6.5656   -0.3605    0.1584 C   0  0  0  0  0  0  0  0  0  0  0  0
    6.5562    0.1920    1.5973 C   0  0  0  0  0  0  0  0  0  0  0  0
    6.6237    1.6455    1.6153 N   0  0  0  0  0  0  0  0  0  0  0  0
    5.3560    2.2899    1.3234 C   0  0  0  0  0  0  0  0  0  0  0  0
    7.2318    2.1765    2.8216 C   0  0  0  0  0  0  0  0  0  0  0  0
    5.5318   -1.7621   -5.3718 C   0  0  0  0  0  0  0  0  0  0  0  0
    6.9195   -1.6571   -5.5487 C   0  0  0  0  0  0  0  0  0  0  0  0
    7.2700   -1.5083   -6.8411 N   0  0  0  0  0  0  0  0  0  0  0  0
    6.1297   -1.5260   -7.5242 C   0  0  0  0  0  0  0  0  0  0  0  0
    5.9022   -1.4298   -8.9172 C   0  0  0  0  0  0  0  0  0  0  0  0
    4.6209   -1.4917   -9.4120 C   0  0  0  0  0  0  0  0  0  0  0  0
    3.5337   -1.6658   -8.5079 C   0  0  0  0  0  0  0  0  0  0  0  0
    1.7607   -1.7805   -9.1804 Br  0  0  0  0  0  0  0  0  0  0  0  0
    3.7394   -1.7642   -7.1558 C   0  0  0  0  0  0  0  0  0  0  0  0
    5.0216   -1.6766   -6.6661 N   0  0  0  0  0  0  0  0  0  0  0  0
    3.2564   -0.8153   -2.9500 H   0  0  0  0  0  0  0  0  0  0  0  0
    2.5874   -1.5301   -4.4203 H   0  0  0  0  0  0  0  0  0  0  0  0
    3.5433   -0.0312   -4.5353 H   0  0  0  0  0  0  0  0  0  0  0  0
    6.5668   -3.5808   -3.9829 H   0  0  0  0  0  0  0  0  0  0  0  0
    8.7081   -5.6441   -1.2855 H   0  0  0  0  0  0  0  0  0  0  0  0
   10.8630   -2.6132    0.8459 H   0  0  0  0  0  0  0  0  0  0  0  0
    8.8494   -1.1981    0.8938 H   0  0  0  0  0  0  0  0  0  0  0  0
    5.1076   -3.3747    0.5478 H   0  0  0  0  0  0  0  0  0  0  0  0
    4.4619   -2.2383   -0.6544 H   0  0  0  0  0  0  0  0  0  0  0  0
    4.6126   -1.7483    1.0657 H   0  0  0  0  0  0  0  0  0  0  0  0
    5.7303    0.0813   -0.4102 H   0  0  0  0  0  0  0  0  0  0  0  0
    7.4839   -0.0266   -0.3438 H   0  0  0  0  0  0  0  0  0  0  0  0
    7.4337   -0.2008    2.1334 H   0  0  0  0  0  0  0  0  0  0  0  0
    5.6689   -0.1927    2.1495 H   0  0  0  0  0  0  0  0  0  0  0  0
    4.9416    1.9329    0.3686 H   0  0  0  0  0  0  0  0  0  0  0  0
    5.4990    3.3779    1.2300 H   0  0  0  0  0  0  0  0  0  0  0  0
    4.5865    2.1154    2.1115 H   0  0  0  0  0  0  0  0  0  0  0  0
    8.2348    1.7457    2.9673 H   0  0  0  0  0  0  0  0  0  0  0  0
    6.6378    1.9763    3.7434 H   0  0  0  0  0  0  0  0  0  0  0  0
    7.3468    3.2686    2.7336 H   0  0  0  0  0  0  0  0  0  0  0  0
    7.6649   -1.6533   -4.7533 H   0  0  0  0  0  0  0  0  0  0  0  0
    6.7702   -1.3114   -9.5666 H   0  0  0  0  0  0  0  0  0  0  0  0
    4.4265   -1.4191  -10.4827 H   0  0  0  0  0  0  0  0  0  0  0  0
    2.9334   -1.9214   -6.4446 H   0  0  0  0  0  0  0  0  0  0  0  0
  1  2  1  0
  1 34  1  0
  1 35  1  0
  1 36  1  0
  2  3  2  0
  2 24  1  0
  3  4  1  0
  5  4  1  6
  4 37  1  0
  5  6  2  0
  5  7  2  0
  5  8  1  0
  8  9  2  0
  8 16  1  0
  9 10  1  0
  9 38  1  0
 10 11  1  0
 10 14  2  0
 11 12  2  0
 11 13  1  0
 14 15  1  0
 14 39  1  0
 15 16  2  0
 15 40  1  0
 16 17  1  0
 17 18  1  0
 17 19  1  0
 18 41  1  0
 18 42  1  0
 18 43  1  0
 19 20  1  0
 19 44  1  0
 19 45  1  0
 20 21  1  0
 20 46  1  0
 20 47  1  0
 21 22  1  0
 21 23  1  0
 22 48  1  0
 22 49  1  0
 22 50  1  0
 23 51  1  0
 23 52  1  0
 23 53  1  0
 24 25  2  0
 24 33  1  0
 25 26  1  0
 25 54  1  0
 26 27  2  0
 27 28  1  0
 27 33  1  0
 28 29  2  0
 28 55  1  0
 29 30  1  0
 29 56  1  0
 30 31  1  0
 30 32  2  0
 32 33  1  0
 32 57  1  0
M  CHG  2  11   1  13  -1
M  END

