
     RDKit          3D

 43 46  0  0  0  0  0  0  0  0999 V2000
    3.6073   -2.1402   -3.6444 C   0  0  0  0  0  0  0  0  0  0  0  0
    4.0750   -0.7704   -3.2979 C   0  0  0  0  0  0  0  0  0  0  0  0
    5.2868   -0.2535   -2.9373 C   0  0  0  0  0  0  0  0  0  0  0  0
    5.0108    1.1409   -2.7514 C   0  0  0  0  0  0  0  0  0  0  0  0
    5.9693    2.0782   -2.3728 N   0  0  0  0  0  0  0  0  0  0  0  0
    5.7982    3.4411   -2.1697 C   0  0  0  0  0  0  0  0  0  0  0  0
    4.7441    4.0155   -2.2982 O   0  0  0  0  0  0  0  0  0  0  0  0
    7.0957    4.1496   -1.7642 C   0  0  0  0  0  0  0  0  0  0  0  0
    6.8602    5.6360   -1.5217 C   0  0  0  0  0  0  0  0  0  0  0  0
    8.4522    6.4143   -1.0545 S   0  0  0  0  0  0  0  0  0  0  0  0
    7.9681    8.0903   -0.8208 C   0  0  0  0  0  0  0  0  0  0  0  0
    6.7035    8.4565   -0.9970 N   0  0  0  0  0  0  0  0  0  0  0  0
    6.3732    9.7478   -0.8083 C   0  0  0  0  0  0  0  0  0  0  0  0
    7.1729   10.7450   -0.4554 N   0  0  0  0  0  0  0  0  0  0  0  0
    8.4479   10.3747   -0.2782 C   0  0  0  0  0  0  0  0  0  0  0  0
    8.9321    9.0538   -0.4429 C   0  0  0  0  0  0  0  0  0  0  0  0
   10.3249    9.1453   -0.1519 C   0  0  0  0  0  0  0  0  0  0  0  0
   10.6532   10.3802    0.1553 N   0  0  0  0  0  0  0  0  0  0  0  0
    9.5291   11.1456    0.0855 N   0  0  0  0  0  0  0  0  0  0  0  0
    9.6128   12.5399    0.3766 C   0  0  0  0  0  0  0  0  0  0  0  0
   10.8581   13.0838    0.7296 C   0  0  0  0  0  0  0  0  0  0  0  0
   10.9599   14.4448    1.0178 C   0  0  0  0  0  0  0  0  0  0  0  0
    9.8345   15.2727    0.9587 C   0  0  0  0  0  0  0  0  0  0  0  0
    8.5999   14.7224    0.6065 C   0  0  0  0  0  0  0  0  0  0  0  0
    8.4768   13.3616    0.3142 C   0  0  0  0  0  0  0  0  0  0  0  0
    3.7485    1.4304   -2.9801 N   0  0  0  0  0  0  0  0  0  0  0  0
    3.1651    0.2154   -3.3250 O   0  0  0  0  0  0  0  0  0  0  0  0
    4.4377   -2.8564   -3.5887 H   0  0  0  0  0  0  0  0  0  0  0  0
    3.1887   -2.1630   -4.6634 H   0  0  0  0  0  0  0  0  0  0  0  0
    2.8122   -2.4667   -2.9549 H   0  0  0  0  0  0  0  0  0  0  0  0
    6.2321   -0.7775   -2.8204 H   0  0  0  0  0  0  0  0  0  0  0  0
    6.9001    1.7044   -2.2343 H   0  0  0  0  0  0  0  0  0  0  0  0
    7.8467    3.9973   -2.5602 H   0  0  0  0  0  0  0  0  0  0  0  0
    7.5014    3.6641   -0.8586 H   0  0  0  0  0  0  0  0  0  0  0  0
    6.1305    5.8023   -0.7190 H   0  0  0  0  0  0  0  0  0  0  0  0
    6.4672    6.1317   -2.4184 H   0  0  0  0  0  0  0  0  0  0  0  0
    5.3177    9.9970   -0.9666 H   0  0  0  0  0  0  0  0  0  0  0  0
   11.0834    8.3631   -0.1573 H   0  0  0  0  0  0  0  0  0  0  0  0
   11.7285   12.4311    0.7729 H   0  0  0  0  0  0  0  0  0  0  0  0
   11.9332   14.8601    1.2917 H   0  0  0  0  0  0  0  0  0  0  0  0
    9.9202   16.3381    1.1854 H   0  0  0  0  0  0  0  0  0  0  0  0
    7.7113   15.3568    0.5560 H   0  0  0  0  0  0  0  0  0  0  0  0
    7.5149   12.9330    0.0399 H   0  0  0  0  0  0  0  0  0  0  0  0
  1  2  1  0
  1 28  1  0
  1 29  1  0
  1 30  1  0
  2  3  2  0
  2 27  1  0
  3  4  1  0
  3 31  1  0
  4  5  1  0
  4 26  2  0
  5  6  1  0
  5 32  1  0
  6  7  2  0
  6  8  1  0
  8  9  1  0
  8 33  1  0
  8 34  1  0
  9 10  1  0
  9 35  1  0
  9 36  1  0
 10 11  1  0
 11 12  2  0
 11 16  1  0
 12 13  1  0
 13 14  2  0
 13 37  1  0
 14 15  1  0
 15 16  2  0
 15 19  1  0
 16 17  1  0
 17 18  2  0
 17 38  1  0
 18 19  1  0
 19 20  1  0
 20 21  2  0
 20 25  1  0
 21 22  1  0
 21 39  1  0
 22 23  2  0
 22 40  1  0
 23 24  1  0
 23 41  1  0
 24 25  2  0
 24 42  1  0
 25 43  1  0
 26 27  1  0
M  END

