
     RDKit          3D

 43 48  0  0  0  0  0  0  0  0999 V2000
    1.8533   -1.3830    0.8970 F   0  0  0  0  0  0  0  0  0  0  0  0
    2.0764   -0.2194    0.1864 B   0  0  1  0  0  0  0  0  0  0  0  0
    1.3741    0.8429    0.7218 F   0  0  0  0  0  0  0  0  0  0  0  0
    3.6121    0.1080    0.1609 N   0  0  0  0  0  0  0  0  0  0  0  0
    4.3798    0.3598    1.2290 C   0  0  0  0  0  0  0  0  0  0  0  0
    5.7150    0.6014    0.8300 C   0  0  0  0  0  0  0  0  0  0  0  0
    5.7420    0.4901   -0.5555 C   0  0  0  0  0  0  0  0  0  0  0  0
    4.4183    0.1756   -0.9734 C   0  0  0  0  0  0  0  0  0  0  0  0
    3.8936   -0.0455   -2.2571 C   0  0  0  0  0  0  0  0  0  0  0  0
    4.7861    0.0369   -3.4558 C   0  0  0  0  0  0  0  0  0  0  0  0
    4.9562    1.2779   -4.1158 C   0  0  0  0  0  0  0  0  0  0  0  0
    4.3052    2.4815   -3.6849 C   0  0  0  0  0  0  0  0  0  0  0  0
    4.4940    3.6671   -4.3507 C   0  0  0  0  0  0  0  0  0  0  0  0
    5.3453    3.7345   -5.4932 C   0  0  0  0  0  0  0  0  0  0  0  0
    5.9870    2.6078   -5.9391 C   0  0  0  0  0  0  0  0  0  0  0  0
    5.8195    1.3495   -5.2748 C   0  0  0  0  0  0  0  0  0  0  0  0
    6.4703    0.1919   -5.7202 C   0  0  0  0  0  0  0  0  0  0  0  0
    6.3096   -1.0404   -5.0740 C   0  0  0  0  0  0  0  0  0  0  0  0
    6.9779   -2.2216   -5.5327 C   0  0  0  0  0  0  0  0  0  0  0  0
    6.8125   -3.4225   -4.8918 C   0  0  0  0  0  0  0  0  0  0  0  0
    5.9641   -3.5114   -3.7485 C   0  0  0  0  0  0  0  0  0  0  0  0
    5.3050   -2.4040   -3.2757 C   0  0  0  0  0  0  0  0  0  0  0  0
    5.4485   -1.1273   -3.9143 C   0  0  0  0  0  0  0  0  0  0  0  0
    2.5296   -0.3399   -2.4159 C   0  0  0  0  0  0  0  0  0  0  0  0
    1.7669   -0.5886   -3.5917 C   0  0  0  0  0  0  0  0  0  0  0  0
    0.4585   -0.8239   -3.1840 C   0  0  0  0  0  0  0  0  0  0  0  0
    0.4474   -0.7104   -1.7743 C   0  0  0  0  0  0  0  0  0  0  0  0
    1.6743   -0.4240   -1.3197 N   0  0  0  0  0  0  0  0  0  0  0  0
    3.9534    0.3579    2.2318 H   0  0  0  0  0  0  0  0  0  0  0  0
    6.5460    0.8316    1.4934 H   0  0  0  0  0  0  0  0  0  0  0  0
    6.5952    0.6122   -1.2193 H   0  0  0  0  0  0  0  0  0  0  0  0
    3.6503    2.4487   -2.8128 H   0  0  0  0  0  0  0  0  0  0  0  0
    3.9875    4.5710   -4.0036 H   0  0  0  0  0  0  0  0  0  0  0  0
    5.4818    4.6881   -6.0090 H   0  0  0  0  0  0  0  0  0  0  0  0
    6.6416    2.6487   -6.8138 H   0  0  0  0  0  0  0  0  0  0  0  0
    7.1219    0.2519   -6.5967 H   0  0  0  0  0  0  0  0  0  0  0  0
    7.6259   -2.1428   -6.4097 H   0  0  0  0  0  0  0  0  0  0  0  0
    7.3283   -4.3159   -5.2520 H   0  0  0  0  0  0  0  0  0  0  0  0
    5.8392   -4.4733   -3.2453 H   0  0  0  0  0  0  0  0  0  0  0  0
    4.6600   -2.4908   -2.4000 H   0  0  0  0  0  0  0  0  0  0  0  0
    2.1623   -0.5900   -4.6051 H   0  0  0  0  0  0  0  0  0  0  0  0
   -0.4016   -1.0509   -3.8104 H   0  0  0  0  0  0  0  0  0  0  0  0
   -0.3878   -0.8242   -1.0839 H   0  0  0  0  0  0  0  0  0  0  0  0
  2  1  1  1
  2  3  1  0
  2  4  1  0
  2 28  1  0
  4  5  1  0
  4  8  1  0
  5  6  2  0
  5 29  1  0
  6  7  1  0
  6 30  1  0
  7  8  2  0
  7 31  1  0
  8  9  1  0
  9 10  1  0
  9 24  2  0
 10 11  1  0
 10 23  2  0
 11 12  2  0
 11 16  1  0
 12 13  1  0
 12 32  1  0
 13 14  2  0
 13 33  1  0
 14 15  1  0
 14 34  1  0
 15 16  2  0
 15 35  1  0
 16 17  1  0
 17 18  2  0
 17 36  1  0
 18 19  1  0
 18 23  1  0
 19 20  2  0
 19 37  1  0
 20 21  1  0
 20 38  1  0
 21 22  2  0
 21 39  1  0
 22 23  1  0
 22 40  1  0
 24 25  1  0
 24 28  1  0
 25 26  2  0
 25 41  1  0
 26 27  1  0
 26 42  1  0
 27 28  2  0
 27 43  1  0
M  CHG  2   2  -1  28   1
M  END

