
     RDKit          3D

 38 39  0  0  0  0  0  0  0  0999 V2000
    1.3483    2.5471    5.1629 C   0  0  0  0  0  0  0  0  0  0  0  0
    2.2489    1.8993    4.2248 N   0  0  0  0  0  0  0  0  0  0  0  0
    1.5893    1.0886    3.2235 C   0  0  1  0  0  0  0  0  0  0  0  0
    0.7994    1.8870    2.1768 C   0  0  0  0  0  0  0  0  0  0  0  0
    0.7584    1.0759    1.0066 O   0  0  0  0  0  0  0  0  0  0  0  0
    1.7276    0.0455    1.0786 C   0  0  0  0  0  0  0  0  0  0  0  0
    2.5871    0.3498    2.3171 C   0  0  2  0  0  0  0  0  0  0  0  0
    3.2856   -0.8202    2.9992 C   0  0  0  0  0  0  0  0  0  0  0  0
    3.4403   -0.8601    4.2144 O   0  0  0  0  0  0  0  0  0  0  0  0
    3.7722   -1.7973    2.1817 N   0  0  0  0  0  0  0  0  0  0  0  0
    4.4961   -2.9447    2.7038 C   0  0  0  0  0  0  0  0  0  0  0  0
    3.5658   -4.0592    3.2282 C   0  0  0  0  0  0  0  0  0  0  0  0
    4.3266   -5.2371    3.7867 C   0  0  0  0  0  0  0  0  0  0  0  0
    4.5709   -5.3408    5.1664 C   0  0  0  0  0  0  0  0  0  0  0  0
    5.2901   -6.3996    5.7211 C   0  0  0  0  0  0  0  0  0  0  0  0
    5.7885   -7.3954    4.8775 C   0  0  0  0  0  0  0  0  0  0  0  0
    6.6885   -8.7350    5.5462 Cl  0  0  0  0  0  0  0  0  0  0  0  0
    5.5747   -7.3343    3.4993 C   0  0  0  0  0  0  0  0  0  0  0  0
    4.8542   -6.2581    2.9752 C   0  0  0  0  0  0  0  0  0  0  0  0
    4.6124   -6.2142    1.2350 Cl  0  0  0  0  0  0  0  0  0  0  0  0
    1.9332    3.0589    5.9428 H   0  0  0  0  0  0  0  0  0  0  0  0
    0.6391    1.8543    5.6698 H   0  0  0  0  0  0  0  0  0  0  0  0
    0.7442    3.3185    4.6562 H   0  0  0  0  0  0  0  0  0  0  0  0
    2.8861    1.2832    4.7304 H   0  0  0  0  0  0  0  0  0  0  0  0
    0.9074    0.3303    3.6749 H   0  0  0  0  0  0  0  0  0  0  0  0
    1.3227    2.8429    1.9783 H   0  0  0  0  0  0  0  0  0  0  0  0
   -0.2352    2.1119    2.4815 H   0  0  0  0  0  0  0  0  0  0  0  0
    2.3153    0.0297    0.1423 H   0  0  0  0  0  0  0  0  0  0  0  0
    1.2260   -0.9381    1.1768 H   0  0  0  0  0  0  0  0  0  0  0  0
    3.3751    1.0790    2.0523 H   0  0  0  0  0  0  0  0  0  0  0  0
    3.6043   -1.7411    1.1850 H   0  0  0  0  0  0  0  0  0  0  0  0
    5.1391   -2.5964    3.5256 H   0  0  0  0  0  0  0  0  0  0  0  0
    5.1433   -3.3379    1.9060 H   0  0  0  0  0  0  0  0  0  0  0  0
    2.9076   -4.3890    2.4092 H   0  0  0  0  0  0  0  0  0  0  0  0
    2.9313   -3.6278    4.0161 H   0  0  0  0  0  0  0  0  0  0  0  0
    4.1775   -4.5623    5.8258 H   0  0  0  0  0  0  0  0  0  0  0  0
    5.4628   -6.4578    6.7965 H   0  0  0  0  0  0  0  0  0  0  0  0
    5.9628   -8.1108    2.8407 H   0  0  0  0  0  0  0  0  0  0  0  0
  1  2  1  0
  1 21  1  0
  1 22  1  0
  1 23  1  0
  2  3  1  0
  2 24  1  0
  3  4  1  0
  3  7  1  0
  3 25  1  1
  4  5  1  0
  4 26  1  0
  4 27  1  0
  5  6  1  0
  6  7  1  0
  6 28  1  0
  6 29  1  0
  7  8  1  0
  7 30  1  6
  8  9  2  0
  8 10  1  0
 10 11  1  0
 10 31  1  0
 11 12  1  0
 11 32  1  0
 11 33  1  0
 12 13  1  0
 12 34  1  0
 12 35  1  0
 13 14  2  0
 13 19  1  0
 14 15  1  0
 14 36  1  0
 15 16  2  0
 15 37  1  0
 16 17  1  0
 16 18  1  0
 18 19  2  0
 18 38  1  0
 19 20  1  0
M  END

