
     RDKit          3D

 49 50  0  0  0  0  0  0  0  0999 V2000
    3.2670    5.0295    4.2364 C   0  0  0  0  0  0  0  0  0  0  0  0
    3.9923    3.9388    3.4927 C   0  0  0  0  0  0  0  0  0  0  0  0
    3.8252    3.7252    2.1147 C   0  0  0  0  0  0  0  0  0  0  0  0
    4.5054    2.7065    1.4293 C   0  0  0  0  0  0  0  0  0  0  0  0
    4.3507    2.4600    0.0884 O   0  0  0  0  0  0  0  0  0  0  0  0
    3.4011    3.2075   -0.6907 C   0  0  1  0  0  0  0  0  0  0  0  0
    4.0105    4.5236   -1.1904 C   0  0  0  0  0  0  0  0  0  0  0  0
    5.0396    4.3208   -2.3128 C   0  0  2  0  0  0  0  0  0  0  0  0
    5.6285    5.6552   -2.7791 C   0  0  0  0  0  0  0  0  0  0  0  0
    4.3964    3.5477   -3.4750 C   0  0  0  0  0  0  0  0  0  0  0  0
    3.8058    2.1703   -3.0851 C   0  0  2  0  0  0  0  0  0  0  0  0
    4.9284    1.1471   -2.8285 C   0  0  0  0  0  0  0  0  0  0  0  0
    2.9489    1.6439   -4.2522 C   0  0  0  0  0  0  0  0  0  0  0  0
    2.8845    2.3435   -1.8490 C   0  0  0  0  0  0  0  0  0  0  0  0
    5.4104    1.8678    2.1281 C   0  0  0  0  0  0  0  0  0  0  0  0
    6.2150    0.7643    1.4390 C   0  0  1  0  0  0  0  0  0  0  0  0
    6.8895    0.3514    2.2084 H   0  0  0  0  0  0  0  0  0  0  0  0
    5.3336   -0.3945    0.9534 C   0  0  0  0  0  0  0  0  0  0  0  0
    7.0773    1.2408    0.3509 N   0  0  0  0  0  0  0  0  0  0  0  0
    5.5750    2.0875    3.4997 C   0  0  0  0  0  0  0  0  0  0  0  0
    4.8780    3.0945    4.1589 C   0  0  0  0  0  0  0  0  0  0  0  0
    5.0711    3.2671    5.4835 F   0  0  0  0  0  0  0  0  0  0  0  0
    2.5891    5.5830    3.5707 H   0  0  0  0  0  0  0  0  0  0  0  0
    3.9739    5.7494    4.6814 H   0  0  0  0  0  0  0  0  0  0  0  0
    2.6724    4.6186    5.0686 H   0  0  0  0  0  0  0  0  0  0  0  0
    3.1428    4.3884    1.5843 H   0  0  0  0  0  0  0  0  0  0  0  0
    2.5332    3.4238   -0.0468 H   0  0  0  0  0  0  0  0  0  0  0  0
    4.4623    5.0689   -0.3461 H   0  0  0  0  0  0  0  0  0  0  0  0
    3.1882    5.1591   -1.5687 H   0  0  0  0  0  0  0  0  0  0  0  0
    5.8669    3.7136   -1.9044 H   0  0  0  0  0  0  0  0  0  0  0  0
    4.8451    6.3102   -3.1981 H   0  0  0  0  0  0  0  0  0  0  0  0
    6.3892    5.5051   -3.5622 H   0  0  0  0  0  0  0  0  0  0  0  0
    6.1059    6.1978   -1.9469 H   0  0  0  0  0  0  0  0  0  0  0  0
    5.1306    3.4102   -4.2881 H   0  0  0  0  0  0  0  0  0  0  0  0
    3.5878    4.1749   -3.8968 H   0  0  0  0  0  0  0  0  0  0  0  0
    5.5260    0.9974   -3.7428 H   0  0  0  0  0  0  0  0  0  0  0  0
    4.5082    0.1694   -2.5421 H   0  0  0  0  0  0  0  0  0  0  0  0
    5.6164    1.4445   -2.0286 H   0  0  0  0  0  0  0  0  0  0  0  0
    3.5595    1.5111   -5.1603 H   0  0  0  0  0  0  0  0  0  0  0  0
    2.1292    2.3393   -4.4976 H   0  0  0  0  0  0  0  0  0  0  0  0
    2.4998    0.6673   -4.0066 H   0  0  0  0  0  0  0  0  0  0  0  0
    2.5843    1.3587   -1.4544 H   0  0  0  0  0  0  0  0  0  0  0  0
    1.9556    2.8341   -2.1897 H   0  0  0  0  0  0  0  0  0  0  0  0
    4.7598   -0.8275    1.7878 H   0  0  0  0  0  0  0  0  0  0  0  0
    5.9693   -1.1780    0.5135 H   0  0  0  0  0  0  0  0  0  0  0  0
    4.6218   -0.0565    0.1873 H   0  0  0  0  0  0  0  0  0  0  0  0
    7.7762    1.8831    0.7257 H   0  0  0  0  0  0  0  0  0  0  0  0
    6.5111    1.7935   -0.2925 H   0  0  0  0  0  0  0  0  0  0  0  0
    6.2606    1.4634    4.0786 H   0  0  0  0  0  0  0  0  0  0  0  0
  1  2  1  0
  1 23  1  0
  1 24  1  0
  1 25  1  0
  2  3  2  0
  2 21  1  0
  3  4  1  0
  3 26  1  0
  4  5  1  0
  4 15  2  0
  5  6  1  0
  6  7  1  0
  6 14  1  0
  6 27  1  1
  7  8  1  0
  7 28  1  0
  7 29  1  0
  8  9  1  0
  8 10  1  0
  8 30  1  1
  9 31  1  0
  9 32  1  0
  9 33  1  0
 10 11  1  0
 10 34  1  0
 10 35  1  0
 11 12  1  1
 11 13  1  0
 11 14  1  0
 12 36  1  0
 12 37  1  0
 12 38  1  0
 13 39  1  0
 13 40  1  0
 13 41  1  0
 14 42  1  0
 14 43  1  0
 15 16  1  0
 15 20  1  0
 16 17  1  1
 16 18  1  0
 16 19  1  0
 18 44  1  0
 18 45  1  0
 18 46  1  0
 19 47  1  0
 19 48  1  0
 20 21  2  0
 20 49  1  0
 21 22  1  0
M  END

