
     RDKit          3D

 42 44  0  0  0  0  0  0  0  0999 V2000
    0.5894    1.8408   -0.0233 C   0  0  0  0  0  0  0  0  0  0  0  0
    1.9789    2.4667    0.0325 C   0  0  0  0  0  0  0  0  0  0  0  0
    3.2272    1.1521    0.1289 S   0  0  1  0  0  0  0  0  0  0  0  0
    3.1160    0.5362    1.4621 O   0  0  0  0  0  0  0  0  0  0  0  0
    3.1663    0.3155   -1.0771 O   0  0  0  0  0  0  0  0  0  0  0  0
    4.8586    1.9871    0.1235 C   0  0  0  0  0  0  0  0  0  0  0  0
    5.5032    2.0564    1.3570 C   0  0  0  0  0  0  0  0  0  0  0  0
    6.8239    2.5054    1.4078 C   0  0  0  0  0  0  0  0  0  0  0  0
    7.5391    2.6599    2.7290 C   0  0  1  0  0  0  0  0  0  0  0  0
    7.1363    1.7379    3.6146 F   0  0  0  0  0  0  0  0  0  0  0  0
    8.8685    2.5431    2.5833 F   0  0  0  0  0  0  0  0  0  0  0  0
    7.3002    3.8668    3.2700 F   0  0  0  0  0  0  0  0  0  0  0  0
    7.4628    2.8091    0.2007 C   0  0  0  0  0  0  0  0  0  0  0  0
    6.8503    2.7423   -0.9785 N   0  0  0  0  0  0  0  0  0  0  0  0
    5.5624    2.3728   -1.0395 C   0  0  0  0  0  0  0  0  0  0  0  0
    4.9336    2.4326   -2.3789 C   0  0  0  0  0  0  0  0  0  0  0  0
    3.7659    2.9951   -2.5981 N   0  0  0  0  0  0  0  0  0  0  0  0
    3.5625    2.9023   -3.9501 C   0  0  0  0  0  0  0  0  0  0  0  0
    2.5058    3.3240   -4.7662 C   0  0  0  0  0  0  0  0  0  0  0  0
    2.5770    3.0776   -6.1251 C   0  0  0  0  0  0  0  0  0  0  0  0
    1.4754    3.4989   -7.0764 C   0  0  1  0  0  0  0  0  0  0  0  0
    0.4978    4.1136   -6.3757 F   0  0  0  0  0  0  0  0  0  0  0  0
    1.9025    4.3671   -7.9979 F   0  0  0  0  0  0  0  0  0  0  0  0
    0.9159    2.4599   -7.7020 F   0  0  0  0  0  0  0  0  0  0  0  0
    3.6685    2.4221   -6.7102 N   0  0  0  0  0  0  0  0  0  0  0  0
    3.6877    2.2179   -7.9533 O   0  0  0  0  0  0  0  0  0  0  0  0
    4.7118    2.0064   -5.9251 C   0  0  0  0  0  0  0  0  0  0  0  0
    4.6633    2.2515   -4.5583 C   0  0  0  0  0  0  0  0  0  0  0  0
    5.5426    1.9711   -3.5396 N   0  0  0  0  0  0  0  0  0  0  0  0
    6.7796    1.2207   -3.6921 C   0  0  0  0  0  0  0  0  0  0  0  0
   -0.1687    2.6373   -0.0729 H   0  0  0  0  0  0  0  0  0  0  0  0
    0.3933    1.2288    0.8693 H   0  0  0  0  0  0  0  0  0  0  0  0
    0.4844    1.2053   -0.9146 H   0  0  0  0  0  0  0  0  0  0  0  0
    2.1333    3.0755    0.9361 H   0  0  0  0  0  0  0  0  0  0  0  0
    2.2349    3.0460   -0.8654 H   0  0  0  0  0  0  0  0  0  0  0  0
    4.9765    1.7209    2.2529 H   0  0  0  0  0  0  0  0  0  0  0  0
    8.5153    3.1095    0.1927 H   0  0  0  0  0  0  0  0  0  0  0  0
    1.6346    3.8351   -4.3584 H   0  0  0  0  0  0  0  0  0  0  0  0
    5.5061    1.5041   -6.4737 H   0  0  0  0  0  0  0  0  0  0  0  0
    7.2958    1.5553   -4.6037 H   0  0  0  0  0  0  0  0  0  0  0  0
    6.5763    0.1405   -3.7696 H   0  0  0  0  0  0  0  0  0  0  0  0
    7.4303    1.4217   -2.8356 H   0  0  0  0  0  0  0  0  0  0  0  0
  1  2  1  0
  1 31  1  0
  1 32  1  0
  1 33  1  0
  3  2  1  6
  2 34  1  0
  2 35  1  0
  3  4  2  0
  3  5  2  0
  3  6  1  0
  6  7  2  0
  6 15  1  0
  7  8  1  0
  7 36  1  0
  8  9  1  0
  8 13  2  0
  9 10  1  1
  9 11  1  0
  9 12  1  0
 13 14  1  0
 13 37  1  0
 14 15  2  0
 15 16  1  0
 16 17  1  0
 16 29  2  0
 17 18  2  0
 18 19  1  0
 18 28  1  0
 19 20  2  0
 19 38  1  0
 20 21  1  0
 20 25  1  0
 21 22  1  1
 21 23  1  0
 21 24  1  0
 25 26  1  0
 25 27  1  0
 27 28  2  0
 27 39  1  0
 28 29  1  0
 29 30  1  0
 30 40  1  0
 30 41  1  0
 30 42  1  0
M  CHG  2  26  -1  29   1
M  END

