
     RDKit          3D

 56 57  0  0  0  0  0  0  0  0999 V2000
    3.2991    2.6906   -1.6858 C   0  0  0  0  0  0  0  0  0  0  0  0
    2.9948    1.4813   -2.3391 O   0  0  0  0  0  0  0  0  0  0  0  0
    3.7529    0.3822   -2.0798 C   0  0  0  0  0  0  0  0  0  0  0  0
    4.8411    0.3480   -1.2041 C   0  0  0  0  0  0  0  0  0  0  0  0
    5.5484   -0.8497   -1.0146 C   0  0  0  0  0  0  0  0  0  0  0  0
    5.1807   -2.0108   -1.6953 C   0  0  0  0  0  0  0  0  0  0  0  0
    5.8212   -3.2133   -1.5619 O   0  0  0  0  0  0  0  0  0  0  0  0
    6.8414   -3.3685   -0.5975 C   0  0  0  0  0  0  0  0  0  0  0  0
    4.0767   -1.9900   -2.5842 C   0  0  0  0  0  0  0  0  0  0  0  0
    3.6648   -3.2282   -3.3718 C   0  0  1  0  0  0  0  0  0  0  0  0
    4.6375   -3.5339   -4.5249 C   0  0  0  0  0  0  0  0  0  0  0  0
    3.4902   -4.3849   -2.4939 N   0  0  0  0  0  0  0  0  0  0  0  0
    2.4015   -5.1888   -2.5434 C   0  0  0  0  0  0  0  0  0  0  0  0
    1.4760   -5.0444   -3.3341 O   0  0  0  0  0  0  0  0  0  0  0  0
    2.3983   -6.3369   -1.5170 C   0  0  0  0  0  0  0  0  0  0  0  0
    3.0999   -7.5576   -1.9732 N   0  0  0  0  0  0  0  0  0  0  0  0
    2.3595   -8.7830   -2.1042 C   0  0  0  0  0  0  0  0  0  0  0  0
    2.2931   -9.6678   -1.0211 C   0  0  0  0  0  0  0  0  0  0  0  0
    1.5470  -10.8365   -1.1403 C   0  0  0  0  0  0  0  0  0  0  0  0
    1.4793  -11.7633    0.0077 N   0  0  0  0  0  0  0  0  0  0  0  0
    2.0500  -11.4344    1.0345 O   0  0  0  0  0  0  0  0  0  0  0  0
    0.8515  -12.7995   -0.1432 O   0  0  0  0  0  0  0  0  0  0  0  0
    0.8546  -11.1474   -2.3097 C   0  0  0  0  0  0  0  0  0  0  0  0
    0.9219  -10.2552   -3.3763 C   0  0  0  0  0  0  0  0  0  0  0  0
    1.6697   -9.0657   -3.3081 C   0  0  0  0  0  0  0  0  0  0  0  0
    1.7085   -8.1257   -4.4820 C   0  0  0  0  0  0  0  0  0  0  0  0
    4.7819   -7.6376   -1.7377 S   0  0  1  0  0  0  0  0  0  0  0  0
    5.4745   -7.4890   -3.3885 C   0  0  0  0  0  0  0  0  0  0  0  0
    5.1548   -6.4248   -0.9923 O   0  0  0  0  0  0  0  0  0  0  0  0
    5.1451   -8.9613   -1.2369 O   0  0  0  0  0  0  0  0  0  0  0  0
    3.3849   -0.7950   -2.7575 C   0  0  0  0  0  0  0  0  0  0  0  0
    2.5677    3.4311   -2.0366 H   0  0  0  0  0  0  0  0  0  0  0  0
    4.3156    3.0492   -1.9325 H   0  0  0  0  0  0  0  0  0  0  0  0
    3.2148    2.5991   -0.5871 H   0  0  0  0  0  0  0  0  0  0  0  0
    5.1566    1.2365   -0.6572 H   0  0  0  0  0  0  0  0  0  0  0  0
    6.3944   -0.8548   -0.3270 H   0  0  0  0  0  0  0  0  0  0  0  0
    7.1059   -4.4337   -0.6021 H   0  0  0  0  0  0  0  0  0  0  0  0
    6.4902   -3.0928    0.4126 H   0  0  0  0  0  0  0  0  0  0  0  0
    7.7309   -2.7618   -0.8450 H   0  0  0  0  0  0  0  0  0  0  0  0
    2.6723   -3.0424   -3.8050 H   0  0  0  0  0  0  0  0  0  0  0  0
    5.6425   -3.7635   -4.1403 H   0  0  0  0  0  0  0  0  0  0  0  0
    4.7170   -2.6692   -5.2016 H   0  0  0  0  0  0  0  0  0  0  0  0
    4.2704   -4.3921   -5.1103 H   0  0  0  0  0  0  0  0  0  0  0  0
    4.2433   -4.5951   -1.8409 H   0  0  0  0  0  0  0  0  0  0  0  0
    1.3480   -6.6125   -1.3636 H   0  0  0  0  0  0  0  0  0  0  0  0
    2.8164   -6.0006   -0.5563 H   0  0  0  0  0  0  0  0  0  0  0  0
    2.8255   -9.4635   -0.0947 H   0  0  0  0  0  0  0  0  0  0  0  0
    0.2806  -12.0719   -2.3644 H   0  0  0  0  0  0  0  0  0  0  0  0
    0.3819  -10.4847   -4.2980 H   0  0  0  0  0  0  0  0  0  0  0  0
    1.1911   -8.5598   -5.3489 H   0  0  0  0  0  0  0  0  0  0  0  0
    2.7446   -7.8985   -4.7788 H   0  0  0  0  0  0  0  0  0  0  0  0
    1.2421   -7.1567   -4.2397 H   0  0  0  0  0  0  0  0  0  0  0  0
    5.1597   -6.5299   -3.8169 H   0  0  0  0  0  0  0  0  0  0  0  0
    5.1286   -8.3390   -3.9902 H   0  0  0  0  0  0  0  0  0  0  0  0
    6.5658   -7.5263   -3.2657 H   0  0  0  0  0  0  0  0  0  0  0  0
    2.5255   -0.7486   -3.4305 H   0  0  0  0  0  0  0  0  0  0  0  0
  1  2  1  0
  1 32  1  0
  1 33  1  0
  1 34  1  0
  2  3  1  0
  3  4  2  0
  3 31  1  0
  4  5  1  0
  4 35  1  0
  5  6  2  0
  5 36  1  0
  6  7  1  0
  6  9  1  0
  7  8  1  0
  8 37  1  0
  8 38  1  0
  8 39  1  0
  9 10  1  0
  9 31  2  0
 10 11  1  0
 10 12  1  0
 10 40  1  6
 11 41  1  0
 11 42  1  0
 11 43  1  0
 12 13  1  0
 12 44  1  0
 13 14  2  0
 13 15  1  0
 15 16  1  0
 15 45  1  0
 15 46  1  0
 16 17  1  0
 27 16  1  6
 17 18  2  0
 17 25  1  0
 18 19  1  0
 18 47  1  0
 19 20  1  0
 19 23  2  0
 20 21  2  0
 20 22  1  0
 23 24  1  0
 23 48  1  0
 24 25  2  0
 24 49  1  0
 25 26  1  0
 26 50  1  0
 26 51  1  0
 26 52  1  0
 27 28  1  0
 27 29  2  0
 27 30  2  0
 28 53  1  0
 28 54  1  0
 28 55  1  0
 31 56  1  0
M  CHG  2  20   1  22  -1
M  END

