
     RDKit          3D

 40 42  0  0  0  0  0  0  0  0999 V2000
   -0.6163    0.5663   -5.2473 O   0  0  0  0  0  0  0  0  0  0  0  0
    0.0946   -0.6300   -4.7633 S   0  0  1  0  0  0  0  0  0  0  0  0
   -0.5626   -1.5992   -3.8798 O   0  0  0  0  0  0  0  0  0  0  0  0
    0.7454   -1.4913   -6.2254 C   0  0  0  0  0  0  0  0  0  0  0  0
    1.6552   -0.5632   -7.0313 C   0  0  0  0  0  0  0  0  0  0  0  0
    2.8620   -0.0409   -6.2354 C   0  0  0  0  0  0  0  0  0  0  0  0
    2.4899    0.7596   -4.9737 C   0  0  2  0  0  0  0  0  0  0  0  0
    3.7152    1.2678   -4.3577 N   0  0  0  0  0  0  0  0  0  0  0  0
    3.6876    2.5876   -3.3053 S   0  0  1  0  0  0  0  0  0  0  0  0
    2.3566    2.7099   -2.7041 O   0  0  0  0  0  0  0  0  0  0  0  0
    4.9020    2.4335   -2.5042 O   0  0  0  0  0  0  0  0  0  0  0  0
    3.8835    3.9870   -4.3526 C   0  0  0  0  0  0  0  0  0  0  0  0
    2.8788    4.8362   -4.8840 C   0  0  0  0  0  0  0  0  0  0  0  0
    3.4198    5.7996   -5.6101 N   0  0  0  0  0  0  0  0  0  0  0  0
    4.7570    5.5992   -5.5550 N   0  0  0  0  0  0  0  0  0  0  0  0
    5.6412    6.4841   -6.2396 C   0  0  0  0  0  0  0  0  0  0  0  0
    5.1473    7.2629   -7.2942 C   0  0  0  0  0  0  0  0  0  0  0  0
    6.0107    8.1233   -7.9736 C   0  0  0  0  0  0  0  0  0  0  0  0
    7.3595    8.2089   -7.6141 C   0  0  0  0  0  0  0  0  0  0  0  0
    7.8418    7.4320   -6.5571 C   0  0  0  0  0  0  0  0  0  0  0  0
    6.9872    6.5738   -5.8617 C   0  0  0  0  0  0  0  0  0  0  0  0
    5.0816    4.5123   -4.8063 C   0  0  0  0  0  0  0  0  0  0  0  0
    1.6363   -0.0628   -3.9897 C   0  0  0  0  0  0  0  0  0  0  0  0
   -0.1529   -1.7993   -6.7816 H   0  0  0  0  0  0  0  0  0  0  0  0
    1.2576   -2.3929   -5.8544 H   0  0  0  0  0  0  0  0  0  0  0  0
    1.0522    0.2838   -7.3963 H   0  0  0  0  0  0  0  0  0  0  0  0
    2.0145   -1.1062   -7.9206 H   0  0  0  0  0  0  0  0  0  0  0  0
    3.4796    0.6038   -6.8790 H   0  0  0  0  0  0  0  0  0  0  0  0
    3.5027   -0.8920   -5.9361 H   0  0  0  0  0  0  0  0  0  0  0  0
    1.8885    1.6327   -5.2738 H   0  0  0  0  0  0  0  0  0  0  0  0
    4.3677    0.5738   -3.9930 H   0  0  0  0  0  0  0  0  0  0  0  0
    1.8009    4.7745   -4.7411 H   0  0  0  0  0  0  0  0  0  0  0  0
    4.0936    7.1850   -7.5603 H   0  0  0  0  0  0  0  0  0  0  0  0
    5.6231    8.7302   -8.7955 H   0  0  0  0  0  0  0  0  0  0  0  0
    8.0308    8.8827   -8.1513 H   0  0  0  0  0  0  0  0  0  0  0  0
    8.8905    7.5006   -6.2583 H   0  0  0  0  0  0  0  0  0  0  0  0
    7.3693    5.9967   -5.0181 H   0  0  0  0  0  0  0  0  0  0  0  0
    6.1022    4.1776   -4.6467 H   0  0  0  0  0  0  0  0  0  0  0  0
    1.3226    0.5480   -3.1310 H   0  0  0  0  0  0  0  0  0  0  0  0
    2.1597   -0.9630   -3.6296 H   0  0  0  0  0  0  0  0  0  0  0  0
  1  2  2  0
  2  3  2  0
  2  4  1  6
  2 23  1  0
  4  5  1  0
  4 24  1  0
  4 25  1  0
  5  6  1  0
  5 26  1  0
  5 27  1  0
  6  7  1  0
  6 28  1  0
  6 29  1  0
  7  8  1  0
  7 23  1  0
  7 30  1  6
  9  8  1  6
  8 31  1  0
  9 10  2  0
  9 11  2  0
  9 12  1  0
 12 13  1  0
 12 22  2  0
 13 14  2  0
 13 32  1  0
 14 15  1  0
 15 16  1  0
 15 22  1  0
 16 17  2  0
 16 21  1  0
 17 18  1  0
 17 33  1  0
 18 19  2  0
 18 34  1  0
 19 20  1  0
 19 35  1  0
 20 21  2  0
 20 36  1  0
 21 37  1  0
 22 38  1  0
 23 39  1  0
 23 40  1  0
M  END

