
     RDKit          3D

 44 45  0  0  0  0  0  0  0  0999 V2000
    8.8156   -2.5026    6.0014 C   0  0  0  0  0  0  0  0  0  0  0  0
    8.4839   -1.4104    4.9834 C   0  0  0  0  0  0  0  0  0  0  0  0
    7.1064   -1.5428    4.3546 C   0  0  0  0  0  0  0  0  0  0  0  0
    7.0760   -2.7558    3.5894 O   0  0  0  0  0  0  0  0  0  0  0  0
    5.9292   -3.0976    2.9691 C   0  0  0  0  0  0  0  0  0  0  0  0
    4.8489   -2.3219    3.0911 N   0  0  0  0  0  0  0  0  0  0  0  0
    3.7604   -2.7263    2.4497 C   0  0  0  0  0  0  0  0  0  0  0  0
    3.6300   -3.8402    1.7311 N   0  0  0  0  0  0  0  0  0  0  0  0
    4.7096   -4.6411    1.6136 C   0  0  0  0  0  0  0  0  0  0  0  0
    4.6505   -5.8148    0.9252 N   0  0  0  0  0  0  0  0  0  0  0  0
    3.5705   -6.3722    0.0805 C   0  0  1  0  0  0  0  0  0  0  0  0
    2.2173   -6.4812    0.8440 C   0  0  0  0  0  0  0  0  0  0  0  0
    1.4635   -5.3083    0.8893 O   0  0  0  0  0  0  0  0  0  0  0  0
    3.3965   -5.5260   -1.2039 C   0  0  0  0  0  0  0  0  0  0  0  0
    4.6343   -5.5430   -2.1075 C   0  0  0  0  0  0  0  0  0  0  0  0
    5.0590   -6.9715   -2.4705 C   0  0  0  0  0  0  0  0  0  0  0  0
    5.2678   -7.8279   -1.2155 C   0  0  0  0  0  0  0  0  0  0  0  0
    4.0292   -7.7983   -0.3087 C   0  0  0  0  0  0  0  0  0  0  0  0
    5.9450   -4.2735    2.2112 C   0  0  0  0  0  0  0  0  0  0  0  0
    7.0733   -5.1088    2.0881 N   0  0  0  0  0  0  0  0  0  0  0  0
    9.8230   -2.3617    6.4237 H   0  0  0  0  0  0  0  0  0  0  0  0
    8.7798   -3.5011    5.5393 H   0  0  0  0  0  0  0  0  0  0  0  0
    8.0979   -2.4982    6.8387 H   0  0  0  0  0  0  0  0  0  0  0  0
    9.2400   -1.3963    4.1790 H   0  0  0  0  0  0  0  0  0  0  0  0
    8.5284   -0.4184    5.4655 H   0  0  0  0  0  0  0  0  0  0  0  0
    6.8803   -0.6917    3.6917 H   0  0  0  0  0  0  0  0  0  0  0  0
    6.3120   -1.5751    5.1187 H   0  0  0  0  0  0  0  0  0  0  0  0
    2.8718   -2.0887    2.5256 H   0  0  0  0  0  0  0  0  0  0  0  0
    5.4449   -6.4186    1.1086 H   0  0  0  0  0  0  0  0  0  0  0  0
    2.4385   -6.8916    1.8538 H   0  0  0  0  0  0  0  0  0  0  0  0
    1.6020   -7.2357    0.3241 H   0  0  0  0  0  0  0  0  0  0  0  0
    2.0617   -4.6125    1.2438 H   0  0  0  0  0  0  0  0  0  0  0  0
    3.1217   -4.4987   -0.9269 H   0  0  0  0  0  0  0  0  0  0  0  0
    2.5286   -5.9307   -1.7533 H   0  0  0  0  0  0  0  0  0  0  0  0
    5.4693   -5.0320   -1.5955 H   0  0  0  0  0  0  0  0  0  0  0  0
    4.4335   -4.9602   -3.0220 H   0  0  0  0  0  0  0  0  0  0  0  0
    5.9753   -6.9609   -3.0848 H   0  0  0  0  0  0  0  0  0  0  0  0
    4.2727   -7.4355   -3.0943 H   0  0  0  0  0  0  0  0  0  0  0  0
    6.1575   -7.4656   -0.6682 H   0  0  0  0  0  0  0  0  0  0  0  0
    5.4944   -8.8713   -1.4918 H   0  0  0  0  0  0  0  0  0  0  0  0
    4.1964   -8.3933    0.6068 H   0  0  0  0  0  0  0  0  0  0  0  0
    3.1938   -8.2799   -0.8423 H   0  0  0  0  0  0  0  0  0  0  0  0
    7.3908   -5.1906    1.1202 H   0  0  0  0  0  0  0  0  0  0  0  0
    7.8465   -4.7675    2.6544 H   0  0  0  0  0  0  0  0  0  0  0  0
  1  2  1  0
  1 21  1  0
  1 22  1  0
  1 23  1  0
  2  3  1  0
  2 24  1  0
  2 25  1  0
  3  4  1  0
  3 26  1  0
  3 27  1  0
  4  5  1  0
  5  6  2  0
  5 19  1  0
  6  7  1  0
  7  8  2  0
  7 28  1  0
  8  9  1  0
  9 10  1  0
  9 19  2  0
 11 10  1  1
 10 29  1  0
 11 12  1  0
 11 14  1  0
 11 18  1  0
 12 13  1  0
 12 30  1  0
 12 31  1  0
 13 32  1  0
 14 15  1  0
 14 33  1  0
 14 34  1  0
 15 16  1  0
 15 35  1  0
 15 36  1  0
 16 17  1  0
 16 37  1  0
 16 38  1  0
 17 18  1  0
 17 39  1  0
 17 40  1  0
 18 41  1  0
 18 42  1  0
 19 20  1  0
 20 43  1  0
 20 44  1  0
M  END

