
     RDKit          3D

 78 85  0  0  0  0  0  0  0  0999 V2000
    3.6399    0.7120    1.8031 O   0  0  0  0  0  0  0  0  0  0  0  0
    2.5615    0.0785    1.0288 S   0  0  1  0  0  0  0  0  0  0  0  0
    1.1914   -0.0356    1.5520 O   0  0  0  0  0  0  0  0  0  0  0  0
    2.4571    0.9511   -0.5504 C   0  0  0  0  0  0  0  0  0  0  0  0
    3.5699    1.6595   -1.0126 C   0  0  0  0  0  0  0  0  0  0  0  0
    3.4776    2.3471   -2.2253 C   0  0  0  0  0  0  0  0  0  0  0  0
    2.2831    2.3288   -2.9537 C   0  0  0  0  0  0  0  0  0  0  0  0
    1.1715    1.6309   -2.4689 C   0  0  0  0  0  0  0  0  0  0  0  0
    1.2514    0.9396   -1.2574 C   0  0  0  0  0  0  0  0  0  0  0  0
    3.1124   -1.5866    0.6103 C   0  0  0  0  0  0  0  0  0  0  0  0
    2.1650   -2.5843    0.3666 C   0  0  0  0  0  0  0  0  0  0  0  0
    2.5969   -3.8744    0.0624 C   0  0  0  0  0  0  0  0  0  0  0  0
    3.9686   -4.1934    0.0066 C   0  0  0  0  0  0  0  0  0  0  0  0
    4.4231   -5.5716   -0.3152 C   0  0  0  0  0  0  0  0  0  0  0  0
    5.5981   -5.7774   -1.0822 C   0  0  0  0  0  0  0  0  0  0  0  0
    6.0518   -7.0557   -1.3914 C   0  0  0  0  0  0  0  0  0  0  0  0
    5.3325   -8.1703   -0.9366 C   0  0  0  0  0  0  0  0  0  0  0  0
    5.5147   -9.6014   -1.0436 C   0  0  0  0  0  0  0  0  0  0  0  0
    6.4631  -10.4228   -1.6698 C   0  0  0  0  0  0  0  0  0  0  0  0
    6.3247  -11.8050   -1.5958 C   0  0  0  0  0  0  0  0  0  0  0  0
    5.2446  -12.4072   -0.9015 C   0  0  0  0  0  0  0  0  0  0  0  0
    5.1188  -13.8873   -0.8477 C   0  0  0  0  0  0  0  0  0  0  0  0
    4.6271  -14.5339    0.3042 C   0  0  0  0  0  0  0  0  0  0  0  0
    4.5040  -15.9214    0.3591 C   0  0  0  0  0  0  0  0  0  0  0  0
    4.8857  -16.6852   -0.7468 C   0  0  0  0  0  0  0  0  0  0  0  0
    4.7053  -18.4785   -0.6926 S   0  0  1  0  0  0  0  0  0  0  0  0
    3.6958  -18.7827    0.3333 O   0  0  0  0  0  0  0  0  0  0  0  0
    4.5688  -18.9444   -2.0811 O   0  0  0  0  0  0  0  0  0  0  0  0
    6.2900  -19.0933   -0.0786 C   0  0  0  0  0  0  0  0  0  0  0  0
    6.4699  -19.2602    1.2975 C   0  0  0  0  0  0  0  0  0  0  0  0
    7.6908  -19.7533    1.7647 C   0  0  0  0  0  0  0  0  0  0  0  0
    8.7076  -20.0814    0.8612 C   0  0  0  0  0  0  0  0  0  0  0  0
    8.5059  -19.9271   -0.5147 C   0  0  0  0  0  0  0  0  0  0  0  0
    7.2894  -19.4346   -0.9941 C   0  0  0  0  0  0  0  0  0  0  0  0
    5.3595  -16.0742   -1.9109 C   0  0  0  0  0  0  0  0  0  0  0  0
    5.4774  -14.6858   -1.9528 C   0  0  0  0  0  0  0  0  0  0  0  0
    4.2922  -11.5929   -0.2664 C   0  0  0  0  0  0  0  0  0  0  0  0
    4.4378  -10.2049   -0.3381 C   0  0  0  0  0  0  0  0  0  0  0  0
    3.6152   -9.2036    0.1818 N   0  0  0  0  0  0  0  0  0  0  0  0
    2.4324   -9.4114    0.9468 C   0  0  0  0  0  0  0  0  0  0  0  0
    2.5026  -10.0589    2.1890 C   0  0  0  0  0  0  0  0  0  0  0  0
    1.3388  -10.2689    2.9327 C   0  0  0  0  0  0  0  0  0  0  0  0
    0.1047   -9.8207    2.4518 C   0  0  0  0  0  0  0  0  0  0  0  0
    0.0361   -9.1675    1.2174 C   0  0  0  0  0  0  0  0  0  0  0  0
    1.1934   -8.9694    0.4604 C   0  0  0  0  0  0  0  0  0  0  0  0
    4.1484   -7.9641   -0.1770 C   0  0  0  0  0  0  0  0  0  0  0  0
    3.6927   -6.6817    0.1406 C   0  0  0  0  0  0  0  0  0  0  0  0
    4.8981   -3.1683    0.2764 C   0  0  0  0  0  0  0  0  0  0  0  0
    4.4796   -1.8740    0.5813 C   0  0  0  0  0  0  0  0  0  0  0  0
    4.4832    1.6822   -0.4153 H   0  0  0  0  0  0  0  0  0  0  0  0
    4.3387    2.9071   -2.5983 H   0  0  0  0  0  0  0  0  0  0  0  0
    2.2150    2.8700   -3.9008 H   0  0  0  0  0  0  0  0  0  0  0  0
    0.2348    1.6325   -3.0318 H   0  0  0  0  0  0  0  0  0  0  0  0
    0.3887    0.4110   -0.8480 H   0  0  0  0  0  0  0  0  0  0  0  0
    1.1011   -2.3477    0.4254 H   0  0  0  0  0  0  0  0  0  0  0  0
    1.8548   -4.6461   -0.1522 H   0  0  0  0  0  0  0  0  0  0  0  0
    6.1454   -4.9117   -1.4598 H   0  0  0  0  0  0  0  0  0  0  0  0
    6.9585   -7.1863   -1.9871 H   0  0  0  0  0  0  0  0  0  0  0  0
    7.3069   -9.9845   -2.2085 H   0  0  0  0  0  0  0  0  0  0  0  0
    7.0787  -12.4420   -2.0620 H   0  0  0  0  0  0  0  0  0  0  0  0
    4.3515  -13.9412    1.1789 H   0  0  0  0  0  0  0  0  0  0  0  0
    4.1062  -16.4152    1.2475 H   0  0  0  0  0  0  0  0  0  0  0  0
    5.6543  -19.0235    1.9830 H   0  0  0  0  0  0  0  0  0  0  0  0
    7.8453  -19.8909    2.8377 H   0  0  0  0  0  0  0  0  0  0  0  0
    9.6601  -20.4690    1.2314 H   0  0  0  0  0  0  0  0  0  0  0  0
    9.2958  -20.2002   -1.2187 H   0  0  0  0  0  0  0  0  0  0  0  0
    7.1011  -19.3313   -2.0642 H   0  0  0  0  0  0  0  0  0  0  0  0
    5.6053  -16.6843   -2.7820 H   0  0  0  0  0  0  0  0  0  0  0  0
    5.8213  -14.2090   -2.8728 H   0  0  0  0  0  0  0  0  0  0  0  0
    3.4360  -12.0345    0.2446 H   0  0  0  0  0  0  0  0  0  0  0  0
    3.4726  -10.3869    2.5686 H   0  0  0  0  0  0  0  0  0  0  0  0
    1.3994  -10.7751    3.8993 H   0  0  0  0  0  0  0  0  0  0  0  0
   -0.8029   -9.9803    3.0387 H   0  0  0  0  0  0  0  0  0  0  0  0
   -0.9263   -8.8198    0.8339 H   0  0  0  0  0  0  0  0  0  0  0  0
    1.1439   -8.4795   -0.5144 H   0  0  0  0  0  0  0  0  0  0  0  0
    2.8050   -6.5467    0.7595 H   0  0  0  0  0  0  0  0  0  0  0  0
    5.9658   -3.3970    0.2816 H   0  0  0  0  0  0  0  0  0  0  0  0
    5.2029   -1.0934    0.8238 H   0  0  0  0  0  0  0  0  0  0  0  0
  1  2  2  0
  2  3  2  0
  2  4  1  6
  2 10  1  0
  4  5  2  0
  4  9  1  0
  5  6  1  0
  5 50  1  0
  6  7  2  0
  6 51  1  0
  7  8  1  0
  7 52  1  0
  8  9  2  0
  8 53  1  0
  9 54  1  0
 10 11  2  0
 10 49  1  0
 11 12  1  0
 11 55  1  0
 12 13  2  0
 12 56  1  0
 13 14  1  0
 13 48  1  0
 14 15  2  0
 14 47  1  0
 15 16  1  0
 15 57  1  0
 16 17  2  0
 16 58  1  0
 17 18  1  0
 17 46  1  0
 18 19  2  0
 18 38  1  0
 19 20  1  0
 19 59  1  0
 20 21  2  0
 20 60  1  0
 21 22  1  0
 21 37  1  0
 22 23  2  0
 22 36  1  0
 23 24  1  0
 23 61  1  0
 24 25  2  0
 24 62  1  0
 26 25  1  6
 25 35  1  0
 26 27  2  0
 26 28  2  0
 26 29  1  0
 29 30  2  0
 29 34  1  0
 30 31  1  0
 30 63  1  0
 31 32  2  0
 31 64  1  0
 32 33  1  0
 32 65  1  0
 33 34  2  0
 33 66  1  0
 34 67  1  0
 35 36  2  0
 35 68  1  0
 36 69  1  0
 37 38  2  0
 37 70  1  0
 38 39  1  0
 39 40  1  0
 39 46  1  0
 40 41  2  0
 40 45  1  0
 41 42  1  0
 41 71  1  0
 42 43  2  0
 42 72  1  0
 43 44  1  0
 43 73  1  0
 44 45  2  0
 44 74  1  0
 45 75  1  0
 46 47  2  0
 47 76  1  0
 48 49  2  0
 48 77  1  0
 49 78  1  0
M  END

