
     RDKit          3D

 26 27  0  0  0  0  0  0  0  0999 V2000
    1.0818    0.0842    0.3013 C   0  0  0  0  0  0  0  0  0  0  0  0
    2.5665    0.0119    0.0207 C   0  0  0  0  0  0  0  0  0  0  0  0
    3.3060    1.2004    0.0344 C   0  0  0  0  0  0  0  0  0  0  0  0
    4.6943    1.2334   -0.1941 C   0  0  0  0  0  0  0  0  0  0  0  0
    5.3993    2.4261   -0.1299 N   0  0  0  0  0  0  0  0  0  0  0  0
    5.3506    0.0111   -0.4308 C   0  0  0  0  0  0  0  0  0  0  0  0
    4.6266   -1.1761   -0.4403 C   0  0  0  0  0  0  0  0  0  0  0  0
    3.2355   -1.2137   -0.2292 C   0  0  0  0  0  0  0  0  0  0  0  0
    2.5418   -2.5305   -0.2603 C   0  0  0  0  0  0  0  0  0  0  0  0
    3.0045   -3.6195    0.4988 C   0  0  0  0  0  0  0  0  0  0  0  0
    2.3477   -4.8476    0.4189 C   0  0  0  0  0  0  0  0  0  0  0  0
    1.2364   -4.9569   -0.4217 C   0  0  0  0  0  0  0  0  0  0  0  0
    0.7829   -3.9412   -1.1605 N   0  0  0  0  0  0  0  0  0  0  0  0
    1.4207   -2.7732   -1.0800 C   0  0  0  0  0  0  0  0  0  0  0  0
    0.8363    0.9953    0.8673 H   0  0  0  0  0  0  0  0  0  0  0  0
    0.7292   -0.7826    0.8790 H   0  0  0  0  0  0  0  0  0  0  0  0
    0.4894    0.1115   -0.6287 H   0  0  0  0  0  0  0  0  0  0  0  0
    2.7868    2.1405    0.2460 H   0  0  0  0  0  0  0  0  0  0  0  0
    4.8663    3.2762   -0.2725 H   0  0  0  0  0  0  0  0  0  0  0  0
    6.3027    2.4427   -0.5888 H   0  0  0  0  0  0  0  0  0  0  0  0
    6.4296   -0.0035   -0.6084 H   0  0  0  0  0  0  0  0  0  0  0  0
    5.1539   -2.1125   -0.6411 H   0  0  0  0  0  0  0  0  0  0  0  0
    3.8675   -3.4932    1.1581 H   0  0  0  0  0  0  0  0  0  0  0  0
    2.6856   -5.7063    1.0043 H   0  0  0  0  0  0  0  0  0  0  0  0
    0.6933   -5.9061   -0.5034 H   0  0  0  0  0  0  0  0  0  0  0  0
    1.0372   -1.9693   -1.7184 H   0  0  0  0  0  0  0  0  0  0  0  0
  1  2  1  0
  1 15  1  0
  1 16  1  0
  1 17  1  0
  2  3  2  0
  2  8  1  0
  3  4  1  0
  3 18  1  0
  4  5  1  0
  4  6  2  0
  5 19  1  0
  5 20  1  0
  6  7  1  0
  6 21  1  0
  7  8  2  0
  7 22  1  0
  8  9  1  0
  9 10  2  0
  9 14  1  0
 10 11  1  0
 10 23  1  0
 11 12  2  0
 11 24  1  0
 12 13  1  0
 12 25  1  0
 13 14  2  0
 14 26  1  0
M  END

