
     RDKit          3D

 45 47  0  0  0  0  0  0  0  0999 V2000
    1.2855    4.3740    0.6957 C   0  0  0  0  0  0  0  0  0  0  0  0
    2.7595    4.5062    0.3118 C   0  0  0  0  0  0  0  0  0  0  0  0
    2.9944    4.4966   -1.2031 C   0  0  0  0  0  0  0  0  0  0  0  0
    4.4609    4.6128   -1.6220 C   0  0  0  0  0  0  0  0  0  0  0  0
    5.2298    3.4618   -1.1928 N   0  0  0  0  0  0  0  0  0  0  0  0
    6.5903    3.3296   -1.3636 C   0  0  0  0  0  0  0  0  0  0  0  0
    7.4087    4.3983   -1.7983 C   0  0  0  0  0  0  0  0  0  0  0  0
    8.7857    4.2393   -1.9208 C   0  0  0  0  0  0  0  0  0  0  0  0
    9.4253    3.0174   -1.6310 C   0  0  0  0  0  0  0  0  0  0  0  0
   10.8667    2.7787   -1.7724 C   0  0  0  0  0  0  0  0  0  0  0  0
   11.9260    3.6227   -1.7832 C   0  0  0  0  0  0  0  0  0  0  0  0
   11.9916    5.0682   -1.4895 C   0  0  0  0  0  0  0  0  0  0  0  0
   11.3774    5.6180   -0.3725 C   0  0  0  0  0  0  0  0  0  0  0  0
   11.5415    6.9915   -0.0760 C   0  0  0  0  0  0  0  0  0  0  0  0
   12.2637    7.8238   -0.7944 N   0  0  0  0  0  0  0  0  0  0  0  0
   12.8875    7.3281   -1.8988 C   0  0  0  0  0  0  0  0  0  0  0  0
   13.6705    8.2214   -2.6839 C   0  0  0  0  0  0  0  0  0  0  0  0
   14.3171    7.7830   -3.8192 C   0  0  0  0  0  0  0  0  0  0  0  0
   14.2045    6.4294   -4.2252 C   0  0  0  0  0  0  0  0  0  0  0  0
   13.4546    5.5377   -3.4854 C   0  0  0  0  0  0  0  0  0  0  0  0
   12.7840    5.9527   -2.3008 C   0  0  0  0  0  0  0  0  0  0  0  0
    8.5932    1.9454   -1.2379 C   0  0  0  0  0  0  0  0  0  0  0  0
    7.2207    2.0917   -1.0965 C   0  0  0  0  0  0  0  0  0  0  0  0
    1.1507    4.3911    1.7887 H   0  0  0  0  0  0  0  0  0  0  0  0
    0.8557    3.4289    0.3229 H   0  0  0  0  0  0  0  0  0  0  0  0
    0.6842    5.1968    0.2736 H   0  0  0  0  0  0  0  0  0  0  0  0
    3.3416    3.6936    0.7793 H   0  0  0  0  0  0  0  0  0  0  0  0
    3.1704    5.4428    0.7301 H   0  0  0  0  0  0  0  0  0  0  0  0
    2.4407    5.3306   -1.6677 H   0  0  0  0  0  0  0  0  0  0  0  0
    2.5647    3.5756   -1.6428 H   0  0  0  0  0  0  0  0  0  0  0  0
    4.8932    5.5237   -1.1706 H   0  0  0  0  0  0  0  0  0  0  0  0
    4.5217    4.7524   -2.7215 H   0  0  0  0  0  0  0  0  0  0  0  0
    4.7138    2.5941   -1.1046 H   0  0  0  0  0  0  0  0  0  0  0  0
    6.9647    5.3611   -2.0532 H   0  0  0  0  0  0  0  0  0  0  0  0
    9.3755    5.0857   -2.2749 H   0  0  0  0  0  0  0  0  0  0  0  0
   11.1189    1.7204   -1.9131 H   0  0  0  0  0  0  0  0  0  0  0  0
   12.8965    3.1651   -2.0061 H   0  0  0  0  0  0  0  0  0  0  0  0
   10.7794    4.9908    0.2912 H   0  0  0  0  0  0  0  0  0  0  0  0
   11.0505    7.4062    0.8143 H   0  0  0  0  0  0  0  0  0  0  0  0
   13.7302    9.2582   -2.3471 H   0  0  0  0  0  0  0  0  0  0  0  0
   14.9151    8.4784   -4.4139 H   0  0  0  0  0  0  0  0  0  0  0  0
   14.7114    6.0927   -5.1331 H   0  0  0  0  0  0  0  0  0  0  0  0
   13.3596    4.5018   -3.8165 H   0  0  0  0  0  0  0  0  0  0  0  0
    9.0448    0.9707   -1.0306 H   0  0  0  0  0  0  0  0  0  0  0  0
    6.6131    1.2403   -0.7752 H   0  0  0  0  0  0  0  0  0  0  0  0
  1  2  1  0
  1 24  1  0
  1 25  1  0
  1 26  1  0
  2  3  1  0
  2 27  1  0
  2 28  1  0
  3  4  1  0
  3 29  1  0
  3 30  1  0
  4  5  1  0
  4 31  1  0
  4 32  1  0
  5  6  1  0
  5 33  1  0
  6  7  2  0
  6 23  1  0
  7  8  1  0
  7 34  1  0
  8  9  2  0
  8 35  1  0
  9 10  1  0
  9 22  1  0
 10 11  2  0
 10 36  1  0
 11 12  1  0
 11 37  1  0
 12 13  2  0
 12 21  1  0
 13 14  1  0
 13 38  1  0
 14 15  2  0
 14 39  1  0
 15 16  1  0
 16 17  1  0
 16 21  2  0
 17 18  2  0
 17 40  1  0
 18 19  1  0
 18 41  1  0
 19 20  2  0
 19 42  1  0
 20 21  1  0
 20 43  1  0
 22 23  2  0
 22 44  1  0
 23 45  1  0
M  END

