
     RDKit          3D

120129  0  0  0  0  0  0  0  0999 V2000
    0.2604   -1.8502   -4.3779 C   0  0  0  0  0  0  0  0  0  0  0  0
    1.6216   -2.3802   -3.9255 C   0  0  0  0  0  0  0  0  0  0  0  0
    2.5964   -1.2775   -3.4981 C   0  0  0  0  0  0  0  0  0  0  0  0
    3.9571   -1.8135   -3.0400 C   0  0  0  0  0  0  0  0  0  0  0  0
    5.0102   -0.7354   -2.7250 C   0  0  1  0  0  0  0  0  0  0  0  0
    4.6054    0.2419   -1.5979 C   0  0  0  0  0  0  0  0  0  0  0  0
    4.3085   -0.3811   -0.2298 C   0  0  0  0  0  0  0  0  0  0  0  0
    6.3946   -1.3542   -2.4252 C   0  0  0  0  0  0  0  0  0  0  0  0
    6.9921   -2.0958   -3.5252 N   0  0  0  0  0  0  0  0  0  0  0  0
    7.6382   -1.5232   -4.6113 C   0  0  0  0  0  0  0  0  0  0  0  0
    7.8474   -0.1731   -4.9038 C   0  0  0  0  0  0  0  0  0  0  0  0
    8.5536    0.1442   -6.0773 C   0  0  0  0  0  0  0  0  0  0  0  0
    8.7842    1.5227   -6.4070 C   0  0  0  0  0  0  0  0  0  0  0  0
    8.9702    2.6381   -6.6734 N   0  0  0  0  0  0  0  0  0  0  0  0
    9.0384   -0.8714   -6.9392 C   0  0  0  0  0  0  0  0  0  0  0  0
    8.8280   -2.2116   -6.6354 C   0  0  0  0  0  0  0  0  0  0  0  0
    8.1286   -2.5531   -5.4681 C   0  0  0  0  0  0  0  0  0  0  0  0
    7.7573   -3.8054   -4.8537 C   0  0  0  0  0  0  0  0  0  0  0  0
    7.9544   -5.1531   -5.1958 C   0  0  0  0  0  0  0  0  0  0  0  0
    7.4690   -6.1478   -4.3590 C   0  0  0  0  0  0  0  0  0  0  0  0
    6.7737   -5.8228   -3.1597 C   0  0  0  0  0  0  0  0  0  0  0  0
    6.2842   -6.8615   -2.3148 C   0  0  0  0  0  0  0  0  0  0  0  0
    5.8647   -7.7512   -1.5898 C   0  0  0  0  0  0  0  0  0  0  0  0
    5.3635   -8.7639   -0.7247 C   0  0  0  0  0  0  0  0  0  0  0  0
    4.6679   -8.3922    0.4470 C   0  0  0  0  0  0  0  0  0  0  0  0
    4.1620   -9.3457    1.3185 C   0  0  0  0  0  0  0  0  0  0  0  0
    4.3249  -10.7221    1.0648 C   0  0  0  0  0  0  0  0  0  0  0  0
    3.8103  -11.7254    1.9521 C   0  0  0  0  0  0  0  0  0  0  0  0
    3.9783  -13.0554    1.6895 C   0  0  0  0  0  0  0  0  0  0  0  0
    4.6756  -13.4988    0.5166 C   0  0  0  0  0  0  0  0  0  0  0  0
    4.8591  -14.8658    0.2285 C   0  0  0  0  0  0  0  0  0  0  0  0
    5.5365  -15.2727   -0.9118 C   0  0  0  0  0  0  0  0  0  0  0  0
    6.0668  -14.3345   -1.8248 C   0  0  0  0  0  0  0  0  0  0  0  0
    6.7540  -14.7977   -2.9816 C   0  0  0  0  0  0  0  0  0  0  0  0
    7.3390  -15.2222   -3.9669 C   0  0  0  0  0  0  0  0  0  0  0  0
    8.0211  -15.7178   -5.1164 C   0  0  0  0  0  0  0  0  0  0  0  0
    8.5949  -14.8098   -6.0510 C   0  0  0  0  0  0  0  0  0  0  0  0
    9.2674  -15.2685   -7.1751 C   0  0  0  0  0  0  0  0  0  0  0  0
    9.3807  -16.6506   -7.3953 C   0  0  0  0  0  0  0  0  0  0  0  0
   10.0084  -17.4548   -8.4161 C   0  0  0  0  0  0  0  0  0  0  0  0
   10.7400  -17.1524   -9.5744 C   0  0  0  0  0  0  0  0  0  0  0  0
   11.2374  -18.1859  -10.3593 C   0  0  0  0  0  0  0  0  0  0  0  0
   11.0091  -19.5356   -9.9923 C   0  0  0  0  0  0  0  0  0  0  0  0
   11.5326  -20.5912  -10.8134 C   0  0  0  0  0  0  0  0  0  0  0  0
   11.9556  -21.4451  -11.4779 N   0  0  0  0  0  0  0  0  0  0  0  0
   10.2770  -19.8631   -8.8379 C   0  0  0  0  0  0  0  0  0  0  0  0
    9.7781  -18.8174   -8.0571 C   0  0  0  0  0  0  0  0  0  0  0  0
    9.0422  -18.8634   -6.8803 N   0  0  0  0  0  0  0  0  0  0  0  0
    8.6059  -20.0543   -6.1647 C   0  0  0  0  0  0  0  0  0  0  0  0
    7.1097  -20.4037   -6.3405 C   0  0  1  0  0  0  0  0  0  0  0  0
    6.7646  -20.8506   -7.7784 C   0  0  0  0  0  0  0  0  0  0  0  0
    7.2549  -22.2421   -8.1919 C   0  0  0  0  0  0  0  0  0  0  0  0
    6.6551  -21.4256   -5.2782 C   0  0  0  0  0  0  0  0  0  0  0  0
    6.4943  -20.8675   -3.8587 C   0  0  0  0  0  0  0  0  0  0  0  0
    6.0150  -21.9101   -2.8427 C   0  0  0  0  0  0  0  0  0  0  0  0
    5.8374  -21.3509   -1.4306 C   0  0  0  0  0  0  0  0  0  0  0  0
    8.8004  -17.5590   -6.4644 C   0  0  0  0  0  0  0  0  0  0  0  0
    8.1256  -17.1074   -5.3271 C   0  0  0  0  0  0  0  0  0  0  0  0
    5.9009  -12.9405   -1.5659 C   0  0  0  0  0  0  0  0  0  0  0  0
    6.4119  -11.9313   -2.4471 C   0  0  0  0  0  0  0  0  0  0  0  0
    6.2439  -10.6012   -2.1844 C   0  0  0  0  0  0  0  0  0  0  0  0
    5.5483  -10.1493   -1.0148 C   0  0  0  0  0  0  0  0  0  0  0  0
    5.0260  -11.1294   -0.1149 C   0  0  0  0  0  0  0  0  0  0  0  0
    5.2022  -12.5244   -0.3903 C   0  0  0  0  0  0  0  0  0  0  0  0
    6.5662   -4.4745   -2.8071 C   0  0  0  0  0  0  0  0  0  0  0  0
    7.0595   -3.4794   -3.6546 C   0  0  0  0  0  0  0  0  0  0  0  0
   -0.4128   -2.6688   -4.6782 H   0  0  0  0  0  0  0  0  0  0  0  0
    0.3614   -1.1696   -5.2400 H   0  0  0  0  0  0  0  0  0  0  0  0
   -0.2398   -1.2873   -3.5719 H   0  0  0  0  0  0  0  0  0  0  0  0
    2.0777   -2.9715   -4.7401 H   0  0  0  0  0  0  0  0  0  0  0  0
    1.4828   -3.0864   -3.0866 H   0  0  0  0  0  0  0  0  0  0  0  0
    2.1300   -0.6824   -2.6928 H   0  0  0  0  0  0  0  0  0  0  0  0
    2.7458   -0.5772   -4.3412 H   0  0  0  0  0  0  0  0  0  0  0  0
    4.3572   -2.4693   -3.8319 H   0  0  0  0  0  0  0  0  0  0  0  0
    3.8154   -2.4661   -2.1590 H   0  0  0  0  0  0  0  0  0  0  0  0
    5.1288   -0.1227   -3.6373 H   0  0  0  0  0  0  0  0  0  0  0  0
    3.7229    0.8125   -1.9304 H   0  0  0  0  0  0  0  0  0  0  0  0
    5.4092    0.9915   -1.4855 H   0  0  0  0  0  0  0  0  0  0  0  0
    3.4617   -1.0846   -0.2703 H   0  0  0  0  0  0  0  0  0  0  0  0
    4.0463    0.4006    0.5006 H   0  0  0  0  0  0  0  0  0  0  0  0
    5.1736   -0.9269    0.1810 H   0  0  0  0  0  0  0  0  0  0  0  0
    6.3332   -2.0341   -1.5631 H   0  0  0  0  0  0  0  0  0  0  0  0
    7.0964   -0.5535   -2.1363 H   0  0  0  0  0  0  0  0  0  0  0  0
    7.4817    0.6241   -4.2563 H   0  0  0  0  0  0  0  0  0  0  0  0
    9.5798   -0.5868   -7.8426 H   0  0  0  0  0  0  0  0  0  0  0  0
    9.2086   -2.9896   -7.3011 H   0  0  0  0  0  0  0  0  0  0  0  0
    8.4871   -5.4190   -6.1120 H   0  0  0  0  0  0  0  0  0  0  0  0
    7.6154   -7.1990   -4.6121 H   0  0  0  0  0  0  0  0  0  0  0  0
    4.5322   -7.3301    0.6598 H   0  0  0  0  0  0  0  0  0  0  0  0
    3.6274   -9.0306    2.2184 H   0  0  0  0  0  0  0  0  0  0  0  0
    3.2768  -11.4017    2.8498 H   0  0  0  0  0  0  0  0  0  0  0  0
    3.5810  -13.8091    2.3744 H   0  0  0  0  0  0  0  0  0  0  0  0
    4.4588  -15.6129    0.9188 H   0  0  0  0  0  0  0  0  0  0  0  0
    5.6693  -16.3363   -1.1188 H   0  0  0  0  0  0  0  0  0  0  0  0
    8.4993  -13.7385   -5.8673 H   0  0  0  0  0  0  0  0  0  0  0  0
    9.7065  -14.5575   -7.8791 H   0  0  0  0  0  0  0  0  0  0  0  0
   10.9213  -16.1133   -9.8586 H   0  0  0  0  0  0  0  0  0  0  0  0
   11.8088  -17.9702  -11.2633 H   0  0  0  0  0  0  0  0  0  0  0  0
   10.1128  -20.9088   -8.5803 H   0  0  0  0  0  0  0  0  0  0  0  0
    8.8295  -19.8997   -5.0974 H   0  0  0  0  0  0  0  0  0  0  0  0
    9.2372  -20.8955   -6.4871 H   0  0  0  0  0  0  0  0  0  0  0  0
    6.5461  -19.4711   -6.1606 H   0  0  0  0  0  0  0  0  0  0  0  0
    7.1513  -20.0979   -8.4864 H   0  0  0  0  0  0  0  0  0  0  0  0
    5.6665  -20.8180   -7.8870 H   0  0  0  0  0  0  0  0  0  0  0  0
    8.3464  -22.3567   -8.0877 H   0  0  0  0  0  0  0  0  0  0  0  0
    7.0126  -22.4392   -9.2478 H   0  0  0  0  0  0  0  0  0  0  0  0
    6.7856  -23.0393   -7.5944 H   0  0  0  0  0  0  0  0  0  0  0  0
    7.3560  -22.2804   -5.2568 H   0  0  0  0  0  0  0  0  0  0  0  0
    5.6853  -21.8476   -5.5961 H   0  0  0  0  0  0  0  0  0  0  0  0
    5.7776  -20.0254   -3.8802 H   0  0  0  0  0  0  0  0  0  0  0  0
    7.4492  -20.4403   -3.5016 H   0  0  0  0  0  0  0  0  0  0  0  0
    6.7326  -22.7503   -2.8200 H   0  0  0  0  0  0  0  0  0  0  0  0
    5.0598  -22.3426   -3.1919 H   0  0  0  0  0  0  0  0  0  0  0  0
    6.7845  -20.9442   -1.0375 H   0  0  0  0  0  0  0  0  0  0  0  0
    5.4931  -22.1270   -0.7288 H   0  0  0  0  0  0  0  0  0  0  0  0
    5.0959  -20.5345   -1.4130 H   0  0  0  0  0  0  0  0  0  0  0  0
    7.6820  -17.7957   -4.6079 H   0  0  0  0  0  0  0  0  0  0  0  0
    6.9452  -12.2498   -3.3443 H   0  0  0  0  0  0  0  0  0  0  0  0
    6.6426   -9.8522   -2.8708 H   0  0  0  0  0  0  0  0  0  0  0  0
    6.0254   -4.2365   -1.8913 H   0  0  0  0  0  0  0  0  0  0  0  0
  1  2  1  0
  1 67  1  0
  1 68  1  0
  1 69  1  0
  2  3  1  0
  2 70  1  0
  2 71  1  0
  3  4  1  0
  3 72  1  0
  3 73  1  0
  4  5  1  0
  4 74  1  0
  4 75  1  0
  5  6  1  0
  5  8  1  0
  5 76  1  6
  6  7  1  0
  6 77  1  0
  6 78  1  0
  7 79  1  0
  7 80  1  0
  7 81  1  0
  8  9  1  0
  8 82  1  0
  8 83  1  0
  9 10  1  0
  9 66  1  0
 10 11  2  0
 10 17  1  0
 11 12  1  0
 11 84  1  0
 12 13  1  0
 12 15  2  0
 13 14  3  0
 15 16  1  0
 15 85  1  0
 16 17  2  0
 16 86  1  0
 17 18  1  0
 18 19  1  0
 18 66  2  0
 19 20  2  0
 19 87  1  0
 20 21  1  0
 20 88  1  0
 21 22  1  0
 21 65  2  0
 22 23  3  0
 23 24  1  0
 24 25  2  0
 24 62  1  0
 25 26  1  0
 25 89  1  0
 26 27  2  0
 26 90  1  0
 27 28  1  0
 27 63  1  0
 28 29  2  0
 28 91  1  0
 29 30  1  0
 29 92  1  0
 30 31  2  0
 30 64  1  0
 31 32  1  0
 31 93  1  0
 32 33  2  0
 32 94  1  0
 33 34  1  0
 33 59  1  0
 34 35  3  0
 35 36  1  0
 36 37  2  0
 36 58  1  0
 37 38  1  0
 37 95  1  0
 38 39  2  0
 38 96  1  0
 39 40  1  0
 39 57  1  0
 40 41  2  0
 40 47  1  0
 41 42  1  0
 41 97  1  0
 42 43  2  0
 42 98  1  0
 43 44  1  0
 43 46  1  0
 44 45  3  0
 46 47  2  0
 46 99  1  0
 47 48  1  0
 48 49  1  0
 48 57  1  0
 49 50  1  0
 49100  1  0
 49101  1  0
 50 51  1  0
 50 53  1  0
 50102  1  1
 51 52  1  0
 51103  1  0
 51104  1  0
 52105  1  0
 52106  1  0
 52107  1  0
 53 54  1  0
 53108  1  0
 53109  1  0
 54 55  1  0
 54110  1  0
 54111  1  0
 55 56  1  0
 55112  1  0
 55113  1  0
 56114  1  0
 56115  1  0
 56116  1  0
 57 58  2  0
 58117  1  0
 59 60  2  0
 59 64  1  0
 60 61  1  0
 60118  1  0
 61 62  2  0
 61119  1  0
 62 63  1  0
 63 64  2  0
 65 66  1  0
 65120  1  0
M  END

