
     RDKit          3D

 62 65  0  0  0  0  0  0  0  0999 V2000
    1.3088    1.3123   -2.3365 C   0  0  0  0  0  0  0  0  0  0  0  0
    2.4185    1.8127   -1.4703 C   0  0  0  0  0  0  0  0  0  0  0  0
    3.6347    2.3571   -1.8012 C   0  0  0  0  0  0  0  0  0  0  0  0
    4.3355    2.6666   -0.5826 C   0  0  0  0  0  0  0  0  0  0  0  0
    5.6666    3.2673   -0.4613 C   0  0  0  0  0  0  0  0  0  0  0  0
    6.2441    3.4833    0.5924 O   0  0  0  0  0  0  0  0  0  0  0  0
    6.3477    3.6421   -1.7901 C   0  0  0  0  0  0  0  0  0  0  0  0
    7.6457    4.1645   -1.5740 O   0  0  0  0  0  0  0  0  0  0  0  0
    7.7302    5.4618   -1.2185 C   0  0  0  0  0  0  0  0  0  0  0  0
    6.7901    6.2202   -1.2181 O   0  0  0  0  0  0  0  0  0  0  0  0
    9.1243    5.8519   -0.8432 C   0  0  0  0  0  0  0  0  0  0  0  0
    9.3664    7.1876   -0.4847 C   0  0  0  0  0  0  0  0  0  0  0  0
   10.6418    7.5914   -0.0887 C   0  0  0  0  0  0  0  0  0  0  0  0
   11.6848    6.6617   -0.0250 C   0  0  0  0  0  0  0  0  0  0  0  0
   11.4330    5.3332   -0.3829 C   0  0  0  0  0  0  0  0  0  0  0  0
   12.7470    4.1135   -0.2246 S   0  0  1  0  0  0  0  0  0  0  0  0
   12.6202    3.1686   -1.3308 O   0  0  0  0  0  0  0  0  0  0  0  0
   13.9916    4.8343    0.0445 O   0  0  0  0  0  0  0  0  0  0  0  0
   12.3764    3.2583    1.2064 N   0  0  0  0  0  0  0  0  0  0  0  0
   12.6377    3.9634    2.4613 C   0  0  0  0  0  0  0  0  0  0  0  0
   11.3048    2.3121    1.1526 C   0  0  0  0  0  0  0  0  0  0  0  0
   10.0664    2.5771    1.7586 C   0  0  0  0  0  0  0  0  0  0  0  0
    9.0345    1.6393    1.6779 C   0  0  0  0  0  0  0  0  0  0  0  0
    9.2236    0.4313    1.0039 C   0  0  0  0  0  0  0  0  0  0  0  0
   10.4638    0.1743    0.4100 C   0  0  0  0  0  0  0  0  0  0  0  0
   10.7164   -1.3412   -0.4289 Cl  0  0  0  0  0  0  0  0  0  0  0  0
   11.5072    1.0973    0.4788 C   0  0  0  0  0  0  0  0  0  0  0  0
   10.1687    4.9187   -0.8111 C   0  0  0  0  0  0  0  0  0  0  0  0
    3.5001    2.2921    0.4769 C   0  0  0  0  0  0  0  0  0  0  0  0
    3.6987    2.3927    1.9536 C   0  0  0  0  0  0  0  0  0  0  0  0
    2.3481    1.7790   -0.0739 N   0  0  0  0  0  0  0  0  0  0  0  0
    1.2308    1.2835    0.6737 C   0  0  0  0  0  0  0  0  0  0  0  0
    0.1651    2.1368    0.9868 C   0  0  0  0  0  0  0  0  0  0  0  0
   -0.9252    1.6500    1.7128 C   0  0  0  0  0  0  0  0  0  0  0  0
   -0.9532    0.3148    2.1272 C   0  0  0  0  0  0  0  0  0  0  0  0
    0.1116   -0.5357    1.8142 C   0  0  0  0  0  0  0  0  0  0  0  0
    1.2038   -0.0543    1.0873 C   0  0  0  0  0  0  0  0  0  0  0  0
    1.5856    1.4292   -3.3935 H   0  0  0  0  0  0  0  0  0  0  0  0
    0.3680    1.8635   -2.1702 H   0  0  0  0  0  0  0  0  0  0  0  0
    1.0911    0.2455   -2.1592 H   0  0  0  0  0  0  0  0  0  0  0  0
    3.9829    2.5154   -2.8197 H   0  0  0  0  0  0  0  0  0  0  0  0
    5.7204    4.3684   -2.3301 H   0  0  0  0  0  0  0  0  0  0  0  0
    6.4748    2.7440   -2.4121 H   0  0  0  0  0  0  0  0  0  0  0  0
    8.5340    7.8928   -0.5216 H   0  0  0  0  0  0  0  0  0  0  0  0
   10.8278    8.6343    0.1784 H   0  0  0  0  0  0  0  0  0  0  0  0
   12.6900    6.9516    0.2859 H   0  0  0  0  0  0  0  0  0  0  0  0
   13.6369    4.4134    2.4124 H   0  0  0  0  0  0  0  0  0  0  0  0
   12.6211    3.2274    3.2775 H   0  0  0  0  0  0  0  0  0  0  0  0
   11.9004    4.7566    2.6877 H   0  0  0  0  0  0  0  0  0  0  0  0
    9.8962    3.5244    2.2718 H   0  0  0  0  0  0  0  0  0  0  0  0
    8.0620    1.8690    2.1176 H   0  0  0  0  0  0  0  0  0  0  0  0
    8.4224   -0.3055    0.9303 H   0  0  0  0  0  0  0  0  0  0  0  0
   12.4663    0.8942    0.0062 H   0  0  0  0  0  0  0  0  0  0  0  0
    9.9896    3.8868   -1.1091 H   0  0  0  0  0  0  0  0  0  0  0  0
    4.6422    2.9124    2.1525 H   0  0  0  0  0  0  0  0  0  0  0  0
    3.7388    1.3962    2.4261 H   0  0  0  0  0  0  0  0  0  0  0  0
    2.8726    2.9417    2.4349 H   0  0  0  0  0  0  0  0  0  0  0  0
    0.2000    3.1784    0.6600 H   0  0  0  0  0  0  0  0  0  0  0  0
   -1.7551    2.3178    1.9564 H   0  0  0  0  0  0  0  0  0  0  0  0
   -1.8064   -0.0636    2.6954 H   0  0  0  0  0  0  0  0  0  0  0  0
    0.0932   -1.5796    2.1363 H   0  0  0  0  0  0  0  0  0  0  0  0
    2.0407   -0.7094    0.8352 H   0  0  0  0  0  0  0  0  0  0  0  0
  1  2  1  0
  1 38  1  0
  1 39  1  0
  1 40  1  0
  2  3  2  0
  2 31  1  0
  3  4  1  0
  3 41  1  0
  4  5  1  0
  4 29  2  0
  5  6  2  0
  5  7  1  0
  7  8  1  0
  7 42  1  0
  7 43  1  0
  8  9  1  0
  9 10  2  0
  9 11  1  0
 11 12  2  0
 11 28  1  0
 12 13  1  0
 12 44  1  0
 13 14  2  0
 13 45  1  0
 14 15  1  0
 14 46  1  0
 15 16  1  0
 15 28  2  0
 16 17  2  0
 16 18  2  0
 16 19  1  1
 19 20  1  0
 19 21  1  0
 20 47  1  0
 20 48  1  0
 20 49  1  0
 21 22  2  0
 21 27  1  0
 22 23  1  0
 22 50  1  0
 23 24  2  0
 23 51  1  0
 24 25  1  0
 24 52  1  0
 25 26  1  0
 25 27  2  0
 27 53  1  0
 28 54  1  0
 29 30  1  0
 29 31  1  0
 30 55  1  0
 30 56  1  0
 30 57  1  0
 31 32  1  0
 32 33  2  0
 32 37  1  0
 33 34  1  0
 33 58  1  0
 34 35  2  0
 34 59  1  0
 35 36  1  0
 35 60  1  0
 36 37  2  0
 36 61  1  0
 37 62  1  0
M  END

