
     RDKit          3D

 31 31  0  0  0  0  0  0  0  0999 V2000
    0.8194   -0.4561   -2.5792 C   0  0  0  0  0  0  0  0  0  0  0  0
    2.2399   -0.7025   -2.0733 C   0  0  0  0  0  0  0  0  0  0  0  0
    2.8219    0.4285   -1.3561 N   0  0  0  0  0  0  0  0  0  0  0  0
    2.2216    0.6336   -0.0506 C   0  0  0  0  0  0  0  0  0  0  0  0
    4.2806    0.3771   -1.2985 C   0  0  0  0  0  0  0  0  0  0  0  0
    4.9836    0.8252   -2.5943 C   0  0  1  0  0  0  0  0  0  0  0  0
    4.6512    2.2826   -2.9324 C   0  0  0  0  0  0  0  0  0  0  0  0
    6.4909    0.6038   -2.4843 C   0  0  1  0  0  0  0  0  0  0  0  0
    7.0647   -0.8379   -2.4353 C   0  0  0  0  0  0  0  0  0  0  0  0
    8.1527   -0.4029   -3.3281 N   0  0  0  0  0  0  0  0  0  0  0  0
    7.3799    0.7810   -3.7431 C   0  0  0  0  0  0  0  0  0  0  0  0
    0.4698   -1.3187   -3.1690 H   0  0  0  0  0  0  0  0  0  0  0  0
    0.7863    0.4393   -3.2195 H   0  0  0  0  0  0  0  0  0  0  0  0
    0.0999   -0.3113   -1.7583 H   0  0  0  0  0  0  0  0  0  0  0  0
    2.8807   -0.9191   -2.9419 H   0  0  0  0  0  0  0  0  0  0  0  0
    2.2586   -1.6250   -1.4442 H   0  0  0  0  0  0  0  0  0  0  0  0
    1.1328    0.7638   -0.1389 H   0  0  0  0  0  0  0  0  0  0  0  0
    2.6234    1.5483    0.4122 H   0  0  0  0  0  0  0  0  0  0  0  0
    2.4008   -0.2122    0.6545 H   0  0  0  0  0  0  0  0  0  0  0  0
    4.6373   -0.6394   -1.0126 H   0  0  0  0  0  0  0  0  0  0  0  0
    4.6108    1.0495   -0.4885 H   0  0  0  0  0  0  0  0  0  0  0  0
    4.6200    0.1897   -3.4236 H   0  0  0  0  0  0  0  0  0  0  0  0
    5.0618    2.9654   -2.1682 H   0  0  0  0  0  0  0  0  0  0  0  0
    3.5621    2.4301   -2.9631 H   0  0  0  0  0  0  0  0  0  0  0  0
    5.0727    2.5797   -3.9062 H   0  0  0  0  0  0  0  0  0  0  0  0
    6.8953    1.2017   -1.6494 H   0  0  0  0  0  0  0  0  0  0  0  0
    6.3604   -1.5694   -2.8842 H   0  0  0  0  0  0  0  0  0  0  0  0
    7.3915   -1.2322   -1.4571 H   0  0  0  0  0  0  0  0  0  0  0  0
    8.4207   -1.0516   -4.0666 H   0  0  0  0  0  0  0  0  0  0  0  0
    6.7917    0.6473   -4.6750 H   0  0  0  0  0  0  0  0  0  0  0  0
    7.9639    1.7134   -3.8361 H   0  0  0  0  0  0  0  0  0  0  0  0
  1  2  1  0
  1 12  1  0
  1 13  1  0
  1 14  1  0
  2  3  1  0
  2 15  1  0
  2 16  1  0
  3  4  1  0
  3  5  1  0
  4 17  1  0
  4 18  1  0
  4 19  1  0
  5  6  1  0
  5 20  1  0
  5 21  1  0
  6  7  1  0
  6  8  1  0
  6 22  1  6
  7 23  1  0
  7 24  1  0
  7 25  1  0
  8  9  1  0
  8 11  1  0
  8 26  1  1
  9 10  1  0
  9 27  1  0
  9 28  1  0
 10 11  1  0
 10 29  1  0
 11 30  1  0
 11 31  1  0
M  END

