
     RDKit          3D

 34 35  0  0  0  0  0  0  0  0999 V2000
    0.3538    0.7965    1.1728 C   0  0  0  0  0  0  0  0  0  0  0  0
    1.5213    0.3374    1.8930 N   0  0  0  0  0  0  0  0  0  0  0  0
    2.6762    1.0234    2.0432 C   0  0  0  0  0  0  0  0  0  0  0  0
    2.7730    2.2511    1.4914 N   0  0  0  0  0  0  0  0  0  0  0  0
    3.9274    2.8741    1.6671 C   0  0  0  0  0  0  0  0  0  0  0  0
    5.0053    2.3221    2.3668 C   0  0  0  0  0  0  0  0  0  0  0  0
    6.2377    3.0859    2.4731 N   0  0  0  0  0  0  0  0  0  0  0  0
    6.1925    4.2623    2.1272 O   0  0  0  0  0  0  0  0  0  0  0  0
    7.2430    2.5256    2.8807 O   0  0  0  0  0  0  0  0  0  0  0  0
    4.7990    1.0238    2.9232 C   0  0  0  0  0  0  0  0  0  0  0  0
    5.7499    0.4437    3.6313 O   0  0  0  0  0  0  0  0  0  0  0  0
    5.5321   -0.8710    4.1737 C   0  0  0  0  0  0  0  0  0  0  0  0
    6.8077   -1.2890    4.8788 C   0  0  1  0  0  0  0  0  0  0  0  0
    6.7295   -2.6886    5.5161 C   0  0  0  0  0  0  0  0  0  0  0  0
    8.2043   -3.0925    5.7640 C   0  0  0  0  0  0  0  0  0  0  0  0
    9.0596   -2.1813    4.8346 C   0  0  0  0  0  0  0  0  0  0  0  0
    8.0487   -1.3956    3.9775 C   0  0  0  0  0  0  0  0  0  0  0  0
    3.6439    0.4037    2.7505 N   0  0  0  0  0  0  0  0  0  0  0  0
    0.1400    0.1533    0.3017 H   0  0  0  0  0  0  0  0  0  0  0  0
    0.5448    1.8165    0.8194 H   0  0  0  0  0  0  0  0  0  0  0  0
   -0.5360    0.8044    1.8247 H   0  0  0  0  0  0  0  0  0  0  0  0
    1.5130   -0.5785    2.3270 H   0  0  0  0  0  0  0  0  0  0  0  0
    4.0466    3.8727    1.2374 H   0  0  0  0  0  0  0  0  0  0  0  0
    5.2760   -1.5615    3.3525 H   0  0  0  0  0  0  0  0  0  0  0  0
    4.6690   -0.8402    4.8585 H   0  0  0  0  0  0  0  0  0  0  0  0
    7.0147   -0.5456    5.6709 H   0  0  0  0  0  0  0  0  0  0  0  0
    6.2593   -3.3854    4.7992 H   0  0  0  0  0  0  0  0  0  0  0  0
    6.1178   -2.7118    6.4320 H   0  0  0  0  0  0  0  0  0  0  0  0
    8.3643   -4.1625    5.5597 H   0  0  0  0  0  0  0  0  0  0  0  0
    8.4777   -2.9347    6.8191 H   0  0  0  0  0  0  0  0  0  0  0  0
    9.7706   -2.7532    4.2187 H   0  0  0  0  0  0  0  0  0  0  0  0
    9.6610   -1.4823    5.4379 H   0  0  0  0  0  0  0  0  0  0  0  0
    7.7838   -1.9715    3.0713 H   0  0  0  0  0  0  0  0  0  0  0  0
    8.4165   -0.4147    3.6433 H   0  0  0  0  0  0  0  0  0  0  0  0
  1  2  1  0
  1 19  1  0
  1 20  1  0
  1 21  1  0
  2  3  1  0
  2 22  1  0
  3  4  2  0
  3 18  1  0
  4  5  1  0
  5  6  2  0
  5 23  1  0
  6  7  1  0
  6 10  1  0
  7  8  2  0
  7  9  1  0
 10 11  1  0
 10 18  2  0
 11 12  1  0
 12 13  1  0
 12 24  1  0
 12 25  1  0
 13 14  1  0
 13 17  1  0
 13 26  1  1
 14 15  1  0
 14 27  1  0
 14 28  1  0
 15 16  1  0
 15 29  1  0
 15 30  1  0
 16 17  1  0
 16 31  1  0
 16 32  1  0
 17 33  1  0
 17 34  1  0
M  CHG  2   7   1   9  -1
M  END

