
     RDKit          3D

 55 56  0  0  0  0  0  0  0  0999 V2000
    5.2901   -0.3543    6.5388 C   0  0  0  0  0  0  0  0  0  0  0  0
    4.6411   -0.7852    5.2208 C   0  0  0  0  0  0  0  0  0  0  0  0
    4.8823   -2.2529    4.8169 C   0  0  1  0  0  0  0  0  0  0  0  0
    4.3064   -3.2372    5.8452 C   0  0  0  0  0  0  0  0  0  0  0  0
    4.3134   -2.5718    3.4181 C   0  0  0  0  0  0  0  0  0  0  0  0
    4.8813   -1.7827    2.2264 C   0  0  0  0  0  0  0  0  0  0  0  0
    6.3889   -1.9292    1.9810 C   0  0  1  0  0  0  0  0  0  0  0  0
    6.8662   -3.3675    1.7227 C   0  0  0  0  0  0  0  0  0  0  0  0
    8.2725   -3.2083    1.1208 C   0  0  0  0  0  0  0  0  0  0  0  0
    8.3049   -1.8336    0.3716 C   0  0  2  0  0  0  0  0  0  0  0  0
    8.3914   -1.9922   -1.1944 C   0  0  1  0  0  0  0  0  0  0  0  0
    9.7860   -2.3291   -1.7481 C   0  0  0  0  0  0  0  0  0  0  0  0
    7.3928   -3.0076   -1.7820 C   0  0  0  0  0  0  0  0  0  0  0  0
    9.4752   -0.9481    0.8913 C   0  0  1  0  0  0  0  0  0  0  0  0
    9.5842   -0.5588    2.4010 C   0  0  0  0  0  0  0  0  0  0  0  0
   11.1217   -0.6768    2.3031 C   0  0  0  0  0  0  0  0  0  0  0  0
   10.9413   -1.4837    0.9974 C   0  0  0  0  0  0  0  0  0  0  0  0
    6.9004   -1.1877    0.7240 C   0  0  2  0  0  0  0  0  0  0  0  0
    6.8255    0.3402    0.7787 C   0  0  0  0  0  0  0  0  0  0  0  0
    5.1366    0.7214    6.7214 H   0  0  0  0  0  0  0  0  0  0  0  0
    6.3786   -0.5347    6.5263 H   0  0  0  0  0  0  0  0  0  0  0  0
    4.8762   -0.8934    7.4055 H   0  0  0  0  0  0  0  0  0  0  0  0
    5.0156   -0.1266    4.4194 H   0  0  0  0  0  0  0  0  0  0  0  0
    3.5501   -0.6062    5.2695 H   0  0  0  0  0  0  0  0  0  0  0  0
    5.9774   -2.4117    4.7864 H   0  0  0  0  0  0  0  0  0  0  0  0
    3.2137   -3.1117    5.9415 H   0  0  0  0  0  0  0  0  0  0  0  0
    4.7469   -3.1017    6.8447 H   0  0  0  0  0  0  0  0  0  0  0  0
    4.4931   -4.2805    5.5427 H   0  0  0  0  0  0  0  0  0  0  0  0
    3.2186   -2.4168    3.4477 H   0  0  0  0  0  0  0  0  0  0  0  0
    4.4509   -3.6509    3.2290 H   0  0  0  0  0  0  0  0  0  0  0  0
    4.6334   -0.7138    2.3392 H   0  0  0  0  0  0  0  0  0  0  0  0
    4.3482   -2.1128    1.3151 H   0  0  0  0  0  0  0  0  0  0  0  0
    6.9292   -1.5334    2.8601 H   0  0  0  0  0  0  0  0  0  0  0  0
    6.1836   -3.8468    0.9984 H   0  0  0  0  0  0  0  0  0  0  0  0
    6.8669   -3.9989    2.6254 H   0  0  0  0  0  0  0  0  0  0  0  0
    8.5443   -4.0525    0.4698 H   0  0  0  0  0  0  0  0  0  0  0  0
    9.0114   -3.2150    1.9360 H   0  0  0  0  0  0  0  0  0  0  0  0
    8.1196   -1.0000   -1.6027 H   0  0  0  0  0  0  0  0  0  0  0  0
   10.1976   -3.2439   -1.2904 H   0  0  0  0  0  0  0  0  0  0  0  0
   10.5111   -1.5199   -1.5954 H   0  0  0  0  0  0  0  0  0  0  0  0
    9.7262   -2.5083   -2.8340 H   0  0  0  0  0  0  0  0  0  0  0  0
    7.6716   -4.0434   -1.5280 H   0  0  0  0  0  0  0  0  0  0  0  0
    7.3912   -2.9376   -2.8815 H   0  0  0  0  0  0  0  0  0  0  0  0
    6.3571   -2.8513   -1.4484 H   0  0  0  0  0  0  0  0  0  0  0  0
    9.4935   -0.0197    0.2953 H   0  0  0  0  0  0  0  0  0  0  0  0
    9.1676   -1.3320    3.0638 H   0  0  0  0  0  0  0  0  0  0  0  0
    9.1676    0.4119    2.7095 H   0  0  0  0  0  0  0  0  0  0  0  0
   11.6445   -1.1707    3.1369 H   0  0  0  0  0  0  0  0  0  0  0  0
   11.6031    0.2977    2.1239 H   0  0  0  0  0  0  0  0  0  0  0  0
   10.9781   -2.5688    1.1785 H   0  0  0  0  0  0  0  0  0  0  0  0
   11.6288   -1.2558    0.1705 H   0  0  0  0  0  0  0  0  0  0  0  0
    6.2127   -1.4893   -0.0832 H   0  0  0  0  0  0  0  0  0  0  0  0
    7.3595    0.7630    1.6418 H   0  0  0  0  0  0  0  0  0  0  0  0
    5.7775    0.6731    0.8470 H   0  0  0  0  0  0  0  0  0  0  0  0
    7.2437    0.7988   -0.1320 H   0  0  0  0  0  0  0  0  0  0  0  0
  1  2  1  0
  1 20  1  0
  1 21  1  0
  1 22  1  0
  2  3  1  0
  2 23  1  0
  2 24  1  0
  3  4  1  0
  3  5  1  0
  3 25  1  6
  4 26  1  0
  4 27  1  0
  4 28  1  0
  5  6  1  0
  5 29  1  0
  5 30  1  0
  6  7  1  0
  6 31  1  0
  6 32  1  0
  7  8  1  0
  7 18  1  0
  7 33  1  1
  8  9  1  0
  8 34  1  0
  8 35  1  0
 10  9  1  1
  9 36  1  0
  9 37  1  0
 10 11  1  0
 10 14  1  0
 10 18  1  0
 11 12  1  0
 11 13  1  0
 11 38  1  6
 12 39  1  0
 12 40  1  0
 12 41  1  0
 13 42  1  0
 13 43  1  0
 13 44  1  0
 14 15  1  0
 14 17  1  0
 14 45  1  6
 15 16  1  0
 15 46  1  0
 15 47  1  0
 16 17  1  0
 16 48  1  0
 16 49  1  0
 17 50  1  0
 17 51  1  0
 18 19  1  0
 18 52  1  6
 19 53  1  0
 19 54  1  0
 19 55  1  0
M  END

