
     RDKit          3D

 36 36  0  0  0  0  0  0  0  0999 V2000
    0.5366   -1.0431    0.2537 C   0  0  0  0  0  0  0  0  0  0  0  0
    1.9682   -0.5763    0.0705 C   0  0  0  0  0  0  0  0  0  0  0  0
    2.8405   -1.5254    0.6608 O   0  0  0  0  0  0  0  0  0  0  0  0
    4.2185   -1.2404    0.5195 C   0  0  1  0  0  0  0  0  0  0  0  0
    4.6876   -0.0402    1.3731 C   0  0  0  0  0  0  0  0  0  0  0  0
    5.4199    0.7825    0.8520 O   0  0  0  0  0  0  0  0  0  0  0  0
    4.2999    0.0887    2.8171 C   0  0  0  0  0  0  0  0  0  0  0  0
    3.4381   -0.7997    3.4862 C   0  0  0  0  0  0  0  0  0  0  0  0
    3.1543   -0.6099    4.8394 C   0  0  0  0  0  0  0  0  0  0  0  0
    3.7294    0.4650    5.5095 C   0  0  0  0  0  0  0  0  0  0  0  0
    3.4511    0.6396    6.8109 F   0  0  0  0  0  0  0  0  0  0  0  0
    4.5905    1.3816    4.8863 C   0  0  0  0  0  0  0  0  0  0  0  0
    5.1792    2.5259    5.6688 C   0  0  0  0  0  0  0  0  0  0  0  0
    4.8571    1.1666    3.5334 C   0  0  0  0  0  0  0  0  0  0  0  0
    5.0207   -2.5302    0.8135 C   0  0  1  0  0  0  0  0  0  0  0  0
    4.5823   -3.6515   -0.1367 C   0  0  0  0  0  0  0  0  0  0  0  0
    6.5343   -2.2947    0.7341 C   0  0  0  0  0  0  0  0  0  0  0  0
   -0.1608   -0.3331   -0.2176 H   0  0  0  0  0  0  0  0  0  0  0  0
    0.2823   -1.1183    1.3224 H   0  0  0  0  0  0  0  0  0  0  0  0
    0.3886   -2.0329   -0.2053 H   0  0  0  0  0  0  0  0  0  0  0  0
    2.1097    0.4221    0.5307 H   0  0  0  0  0  0  0  0  0  0  0  0
    2.2100   -0.4688   -1.0064 H   0  0  0  0  0  0  0  0  0  0  0  0
    4.4348   -0.9301   -0.5222 H   0  0  0  0  0  0  0  0  0  0  0  0
    2.9742   -1.6228    2.9451 H   0  0  0  0  0  0  0  0  0  0  0  0
    2.4887   -1.2811    5.3857 H   0  0  0  0  0  0  0  0  0  0  0  0
    5.7776    2.1624    6.5202 H   0  0  0  0  0  0  0  0  0  0  0  0
    4.3905    3.1709    6.0894 H   0  0  0  0  0  0  0  0  0  0  0  0
    5.8267    3.1440    5.0314 H   0  0  0  0  0  0  0  0  0  0  0  0
    5.5214    1.8441    2.9925 H   0  0  0  0  0  0  0  0  0  0  0  0
    4.7723   -2.8394    1.8443 H   0  0  0  0  0  0  0  0  0  0  0  0
    4.8329   -3.3999   -1.1816 H   0  0  0  0  0  0  0  0  0  0  0  0
    3.4983   -3.8204   -0.0775 H   0  0  0  0  0  0  0  0  0  0  0  0
    5.0958   -4.5938    0.1125 H   0  0  0  0  0  0  0  0  0  0  0  0
    6.8275   -1.9197   -0.2606 H   0  0  0  0  0  0  0  0  0  0  0  0
    7.0739   -3.2387    0.9091 H   0  0  0  0  0  0  0  0  0  0  0  0
    6.8887   -1.5659    1.4782 H   0  0  0  0  0  0  0  0  0  0  0  0
  1  2  1  0
  1 18  1  0
  1 19  1  0
  1 20  1  0
  2  3  1  0
  2 21  1  0
  2 22  1  0
  3  4  1  0
  4  5  1  0
  4 15  1  0
  4 23  1  6
  5  6  2  0
  5  7  1  0
  7  8  2  0
  7 14  1  0
  8  9  1  0
  8 24  1  0
  9 10  2  0
  9 25  1  0
 10 11  1  0
 10 12  1  0
 12 13  1  0
 12 14  2  0
 13 26  1  0
 13 27  1  0
 13 28  1  0
 14 29  1  0
 15 16  1  0
 15 17  1  0
 15 30  1  1
 16 31  1  0
 16 32  1  0
 16 33  1  0
 17 34  1  0
 17 35  1  0
 17 36  1  0
M  END

