
     RDKit          3D

 32 33  0  0  0  0  0  0  0  0999 V2000
    2.5932    1.5511    2.9331 O   0  0  0  0  0  0  0  0  0  0  0  0
    2.2056    1.2109    1.8306 C   0  0  0  0  0  0  0  0  0  0  0  0
    2.9813    0.8918    0.7609 N   0  0  0  0  0  0  0  0  0  0  0  0
    4.4538    0.8633    0.7400 C   0  0  2  0  0  0  0  0  0  0  0  0
    4.8882    0.4579   -0.6787 C   0  0  0  0  0  0  0  0  0  0  0  0
    4.6119    1.4589   -1.6838 O   0  0  0  0  0  0  0  0  0  0  0  0
    3.4634    1.4010   -2.3570 C   0  0  0  0  0  0  0  0  0  0  0  0
    2.5520    0.6409   -2.1451 O   0  0  0  0  0  0  0  0  0  0  0  0
    4.9792   -0.1857    1.7475 C   0  0  0  0  0  0  0  0  0  0  0  0
    6.5083   -0.2673    1.8218 C   0  0  0  0  0  0  0  0  0  0  0  0
    7.2202    1.0675    1.7368 C   0  0  0  0  0  0  0  0  0  0  0  0
    8.6051    1.1726    1.9721 C   0  0  0  0  0  0  0  0  0  0  0  0
    9.6221   -0.3872    2.4336 Br  0  0  0  0  0  0  0  0  0  0  0  0
    9.2946    2.3807    1.8755 C   0  0  0  0  0  0  0  0  0  0  0  0
    8.5909    3.5329    1.5189 C   0  0  0  0  0  0  0  0  0  0  0  0
    7.2234    3.4588    1.2659 C   0  0  0  0  0  0  0  0  0  0  0  0
    6.5277    2.2442    1.3740 C   0  0  0  0  0  0  0  0  0  0  0  0
    5.0305    2.2385    1.1345 C   0  0  0  0  0  0  0  0  0  0  0  0
    1.1181    1.1289    1.5821 H   0  0  0  0  0  0  0  0  0  0  0  0
    2.5008    0.5966   -0.0871 H   0  0  0  0  0  0  0  0  0  0  0  0
    4.4054   -0.4874   -0.9704 H   0  0  0  0  0  0  0  0  0  0  0  0
    5.9764    0.3357   -0.7149 H   0  0  0  0  0  0  0  0  0  0  0  0
    3.4673    2.1682   -3.1582 H   0  0  0  0  0  0  0  0  0  0  0  0
    4.5619   -1.1762    1.5021 H   0  0  0  0  0  0  0  0  0  0  0  0
    4.5675    0.0960    2.7274 H   0  0  0  0  0  0  0  0  0  0  0  0
    6.9044   -0.9227    1.0245 H   0  0  0  0  0  0  0  0  0  0  0  0
    6.7962   -0.7736    2.7568 H   0  0  0  0  0  0  0  0  0  0  0  0
   10.3672    2.4150    2.0718 H   0  0  0  0  0  0  0  0  0  0  0  0
    9.1178    4.4866    1.4351 H   0  0  0  0  0  0  0  0  0  0  0  0
    6.6738    4.3599    0.9805 H   0  0  0  0  0  0  0  0  0  0  0  0
    4.7738    2.9822    0.3649 H   0  0  0  0  0  0  0  0  0  0  0  0
    4.5170    2.5450    2.0593 H   0  0  0  0  0  0  0  0  0  0  0  0
  1  2  2  0
  2  3  1  0
  2 19  1  0
  4  3  1  6
  3 20  1  0
  4  5  1  0
  4  9  1  0
  4 18  1  0
  5  6  1  0
  5 21  1  0
  5 22  1  0
  6  7  1  0
  7  8  2  0
  7 23  1  0
  9 10  1  0
  9 24  1  0
  9 25  1  0
 10 11  1  0
 10 26  1  0
 10 27  1  0
 11 12  1  0
 11 17  2  0
 12 13  1  0
 12 14  2  0
 14 15  1  0
 14 28  1  0
 15 16  2  0
 15 29  1  0
 16 17  1  0
 16 30  1  0
 17 18  1  0
 18 31  1  0
 18 32  1  0
M  END

