
     RDKit          3D

 46 48  0  0  0  0  0  0  0  0999 V2000
    1.3640    0.4744    0.3341 C   0  0  0  0  0  0  0  0  0  0  0  0
    2.6101   -0.3954    0.1129 C   0  0  1  0  0  0  0  0  0  0  0  0
    2.3051   -1.7043   -0.6433 C   0  0  0  0  0  0  0  0  0  0  0  0
    2.0240   -1.4722   -2.1301 C   0  0  0  0  0  0  0  0  0  0  0  0
    3.0932   -0.7089   -2.7681 N   0  0  0  0  0  0  0  0  0  0  0  0
    3.6100   -1.1731   -3.9676 C   0  0  0  0  0  0  0  0  0  0  0  0
    3.3633   -2.2921   -4.4016 O   0  0  0  0  0  0  0  0  0  0  0  0
    4.4535   -0.3139   -4.6514 N   0  0  0  0  0  0  0  0  0  0  0  0
    4.9588   -0.7242   -5.9563 C   0  0  1  0  0  0  0  0  0  0  0  0
    5.6370    0.4515   -6.6878 C   0  0  0  0  0  0  0  0  0  0  0  0
    6.7324   -0.2171   -7.5316 C   0  0  2  0  0  0  0  0  0  0  0  0
    6.2195   -0.7376   -8.8863 C   0  0  0  0  0  0  0  0  0  0  0  0
    7.2057   -1.2434   -6.5976 N   0  0  0  0  0  0  0  0  0  0  0  0
    8.2177   -2.1513   -7.0219 C   0  0  1  0  0  0  0  0  0  0  0  0
    9.6376   -1.6503   -7.1149 C   0  0  0  0  0  0  0  0  0  0  0  0
    9.2441   -2.5952   -6.0082 C   0  0  0  0  0  0  0  0  0  0  0  0
    6.0582   -1.8172   -5.8921 C   0  0  0  0  0  0  0  0  0  0  0  0
    3.4509    0.5482   -2.1262 C   0  0  0  0  0  0  0  0  0  0  0  0
    3.7364    0.3498   -0.6291 C   0  0  0  0  0  0  0  0  0  0  0  0
    0.5954   -0.0776    0.8991 H   0  0  0  0  0  0  0  0  0  0  0  0
    0.9007    0.8030   -0.6099 H   0  0  0  0  0  0  0  0  0  0  0  0
    1.6135    1.3810    0.9094 H   0  0  0  0  0  0  0  0  0  0  0  0
    2.9959   -0.6656    1.1117 H   0  0  0  0  0  0  0  0  0  0  0  0
    1.4444   -2.2216   -0.1862 H   0  0  0  0  0  0  0  0  0  0  0  0
    3.1714   -2.3820   -0.5538 H   0  0  0  0  0  0  0  0  0  0  0  0
    1.0621   -0.9358   -2.2566 H   0  0  0  0  0  0  0  0  0  0  0  0
    1.9412   -2.4237   -2.6688 H   0  0  0  0  0  0  0  0  0  0  0  0
    4.3370    0.6821   -4.5140 H   0  0  0  0  0  0  0  0  0  0  0  0
    4.1185   -1.1141   -6.5539 H   0  0  0  0  0  0  0  0  0  0  0  0
    6.1154    1.1118   -5.9459 H   0  0  0  0  0  0  0  0  0  0  0  0
    4.9315    1.0509   -7.2839 H   0  0  0  0  0  0  0  0  0  0  0  0
    7.5561    0.4912   -7.7302 H   0  0  0  0  0  0  0  0  0  0  0  0
    5.3766   -1.4381   -8.7687 H   0  0  0  0  0  0  0  0  0  0  0  0
    7.0171   -1.2609   -9.4365 H   0  0  0  0  0  0  0  0  0  0  0  0
    5.8767    0.0988   -9.5171 H   0  0  0  0  0  0  0  0  0  0  0  0
    7.9272   -2.9177   -7.7635 H   0  0  0  0  0  0  0  0  0  0  0  0
    9.8116   -0.6053   -6.8449 H   0  0  0  0  0  0  0  0  0  0  0  0
   10.2669   -2.0249   -7.9271 H   0  0  0  0  0  0  0  0  0  0  0  0
    9.1505   -2.1791   -5.0018 H   0  0  0  0  0  0  0  0  0  0  0  0
    9.5992   -3.6288   -6.0492 H   0  0  0  0  0  0  0  0  0  0  0  0
    6.3195   -2.0608   -4.8498 H   0  0  0  0  0  0  0  0  0  0  0  0
    5.6909   -2.7541   -6.3567 H   0  0  0  0  0  0  0  0  0  0  0  0
    2.6466    1.2996   -2.2656 H   0  0  0  0  0  0  0  0  0  0  0  0
    4.3574    0.9522   -2.5955 H   0  0  0  0  0  0  0  0  0  0  0  0
    3.9223    1.3336   -0.1649 H   0  0  0  0  0  0  0  0  0  0  0  0
    4.6696   -0.2316   -0.5355 H   0  0  0  0  0  0  0  0  0  0  0  0
  1  2  1  0
  1 20  1  0
  1 21  1  0
  1 22  1  0
  2  3  1  0
  2 19  1  0
  2 23  1  1
  3  4  1  0
  3 24  1  0
  3 25  1  0
  4  5  1  0
  4 26  1  0
  4 27  1  0
  5  6  1  0
  5 18  1  0
  6  7  2  0
  6  8  1  0
  8  9  1  0
  8 28  1  0
  9 10  1  0
  9 17  1  0
  9 29  1  6
 10 11  1  0
 10 30  1  0
 10 31  1  0
 11 12  1  0
 11 13  1  0
 11 32  1  6
 12 33  1  0
 12 34  1  0
 12 35  1  0
 13 14  1  0
 13 17  1  0
 14 15  1  0
 14 16  1  0
 14 36  1  6
 15 16  1  0
 15 37  1  0
 15 38  1  0
 16 39  1  0
 16 40  1  0
 17 41  1  0
 17 42  1  0
 18 19  1  0
 18 43  1  0
 18 44  1  0
 19 45  1  0
 19 46  1  0
M  END

