
     RDKit          3D

 57 60  0  0  0  0  0  0  0  0999 V2000
    3.3328    1.8439    0.2216 C   0  0  0  0  0  0  0  0  0  0  0  0
    4.1171    0.7287   -0.1434 O   0  0  0  0  0  0  0  0  0  0  0  0
    4.4959   -0.1593    0.8046 C   0  0  0  0  0  0  0  0  0  0  0  0
    5.2737   -1.2446    0.3602 C   0  0  0  0  0  0  0  0  0  0  0  0
    5.7187   -2.2052    1.2597 C   0  0  0  0  0  0  0  0  0  0  0  0
    5.3837   -2.1074    2.6186 C   0  0  0  0  0  0  0  0  0  0  0  0
    5.8529   -3.0932    3.5431 N   0  0  0  0  0  0  0  0  0  0  0  0
    6.7711   -2.9127    4.5537 C   0  0  0  0  0  0  0  0  0  0  0  0
    7.4298   -1.3265    4.9531 S   0  0  0  0  0  0  0  0  0  0  0  0
    8.6343   -1.8221    6.2806 C   0  0  1  0  0  0  0  0  0  0  0  0
    9.8655   -2.5562    5.7447 C   0  0  0  0  0  0  0  0  0  0  0  0
    8.9955   -0.5548    7.0699 C   0  0  0  0  0  0  0  0  0  0  0  0
    8.8757   -0.5080    8.2781 O   0  0  0  0  0  0  0  0  0  0  0  0
    9.4941    0.4708    6.2961 N   0  0  0  0  0  0  0  0  0  0  0  0
    9.9334    1.7469    6.6978 C   0  0  0  0  0  0  0  0  0  0  0  0
    9.9507    2.1728    8.0379 C   0  0  0  0  0  0  0  0  0  0  0  0
   10.4041    3.4577    8.3487 C   0  0  0  0  0  0  0  0  0  0  0  0
   10.8390    4.3220    7.3511 C   0  0  0  0  0  0  0  0  0  0  0  0
   11.2735    5.5522    7.6446 F   0  0  0  0  0  0  0  0  0  0  0  0
   10.8214    3.8973    6.0194 C   0  0  0  0  0  0  0  0  0  0  0  0
   11.2386    4.7273    5.0590 F   0  0  0  0  0  0  0  0  0  0  0  0
   10.3745    2.6248    5.6897 C   0  0  0  0  0  0  0  0  0  0  0  0
    7.0515   -4.0528    5.1364 N   0  0  0  0  0  0  0  0  0  0  0  0
    6.3180   -5.0260    4.5117 N   0  0  0  0  0  0  0  0  0  0  0  0
    5.6017   -4.4598    3.5690 C   0  0  0  0  0  0  0  0  0  0  0  0
    4.6954   -5.1802    2.6539 C   0  0  0  0  0  0  0  0  0  0  0  0
    5.1777   -6.2819    1.9269 C   0  0  0  0  0  0  0  0  0  0  0  0
    4.3414   -6.9927    1.0650 C   0  0  0  0  0  0  0  0  0  0  0  0
    3.0048   -6.6079    0.9180 C   0  0  0  0  0  0  0  0  0  0  0  0
    2.5035   -5.5294    1.6499 C   0  0  0  0  0  0  0  0  0  0  0  0
    3.3372   -4.8239    2.5242 C   0  0  0  0  0  0  0  0  0  0  0  0
    2.8290   -3.7783    3.2510 O   0  0  0  0  0  0  0  0  0  0  0  0
    2.3091   -4.1207    4.5295 C   0  0  0  0  0  0  0  0  0  0  0  0
    4.6034   -1.0381    3.0616 C   0  0  0  0  0  0  0  0  0  0  0  0
    4.1662   -0.0591    2.1660 C   0  0  0  0  0  0  0  0  0  0  0  0
    3.1523    2.4131   -0.6998 H   0  0  0  0  0  0  0  0  0  0  0  0
    3.8551    2.4933    0.9468 H   0  0  0  0  0  0  0  0  0  0  0  0
    2.3612    1.5394    0.6503 H   0  0  0  0  0  0  0  0  0  0  0  0
    5.5218   -1.3054   -0.7010 H   0  0  0  0  0  0  0  0  0  0  0  0
    6.3312   -3.0395    0.9125 H   0  0  0  0  0  0  0  0  0  0  0  0
    8.0840   -2.4672    6.9759 H   0  0  0  0  0  0  0  0  0  0  0  0
   10.4120   -1.9606    4.9969 H   0  0  0  0  0  0  0  0  0  0  0  0
    9.5601   -3.5087    5.2918 H   0  0  0  0  0  0  0  0  0  0  0  0
   10.5496   -2.7771    6.5804 H   0  0  0  0  0  0  0  0  0  0  0  0
    9.5355    0.2964    5.2971 H   0  0  0  0  0  0  0  0  0  0  0  0
    9.6106    1.4970    8.8180 H   0  0  0  0  0  0  0  0  0  0  0  0
   10.4250    3.8056    9.3837 H   0  0  0  0  0  0  0  0  0  0  0  0
   10.3764    2.3345    4.6364 H   0  0  0  0  0  0  0  0  0  0  0  0
    6.2236   -6.5705    2.0505 H   0  0  0  0  0  0  0  0  0  0  0  0
    4.7344   -7.8435    0.5036 H   0  0  0  0  0  0  0  0  0  0  0  0
    2.3477   -7.1529    0.2355 H   0  0  0  0  0  0  0  0  0  0  0  0
    1.4603   -5.2183    1.5609 H   0  0  0  0  0  0  0  0  0  0  0  0
    1.9547   -3.1889    4.9920 H   0  0  0  0  0  0  0  0  0  0  0  0
    3.0824   -4.5752    5.1738 H   0  0  0  0  0  0  0  0  0  0  0  0
    1.4618   -4.8244    4.4432 H   0  0  0  0  0  0  0  0  0  0  0  0
    4.3308   -0.9692    4.1160 H   0  0  0  0  0  0  0  0  0  0  0  0
    3.5611    0.7668    2.5392 H   0  0  0  0  0  0  0  0  0  0  0  0
  1  2  1  0
  1 36  1  0
  1 37  1  0
  1 38  1  0
  2  3  1  0
  3  4  2  0
  3 35  1  0
  4  5  1  0
  4 39  1  0
  5  6  2  0
  5 40  1  0
  6  7  1  0
  6 34  1  0
  7  8  1  0
  7 25  1  0
  8  9  1  0
  8 23  2  0
  9 10  1  0
 10 11  1  0
 10 12  1  0
 10 41  1  1
 11 42  1  0
 11 43  1  0
 11 44  1  0
 12 13  2  0
 12 14  1  0
 14 15  1  0
 14 45  1  0
 15 16  2  0
 15 22  1  0
 16 17  1  0
 16 46  1  0
 17 18  2  0
 17 47  1  0
 18 19  1  0
 18 20  1  0
 20 21  1  0
 20 22  2  0
 22 48  1  0
 23 24  1  0
 24 25  2  0
 25 26  1  0
 26 27  2  0
 26 31  1  0
 27 28  1  0
 27 49  1  0
 28 29  2  0
 28 50  1  0
 29 30  1  0
 29 51  1  0
 30 31  2  0
 30 52  1  0
 31 32  1  0
 32 33  1  0
 33 53  1  0
 33 54  1  0
 33 55  1  0
 34 35  2  0
 34 56  1  0
 35 57  1  0
M  END

