
     RDKit          3D

 52 53  0  0  0  0  0  0  0  0999 V2000
   11.6557    5.1994   -3.6804 C   0  0  0  0  0  0  0  0  0  0  0  0
   10.8275    3.9527   -3.9455 C   0  0  0  0  0  0  0  0  0  0  0  0
    9.6087    3.9770   -3.9818 O   0  0  0  0  0  0  0  0  0  0  0  0
   11.5360    2.7976   -4.1468 N   0  0  0  0  0  0  0  0  0  0  0  0
   10.8698    1.5330   -4.3970 C   0  0  0  0  0  0  0  0  0  0  0  0
   10.3682    0.8800   -3.1018 C   0  0  0  0  0  0  0  0  0  0  0  0
    9.5041   -0.7077   -3.3791 S   0  0  0  0  0  0  0  0  0  0  0  0
   10.9186   -1.7870   -3.5629 C   0  0  0  0  0  0  0  0  0  0  0  0
   12.0608   -1.3910   -3.5220 O   0  0  0  0  0  0  0  0  0  0  0  0
   10.5631   -3.2644   -3.8009 C   0  0  2  0  0  0  0  0  0  0  0  0
    9.8862   -3.2753   -4.6763 H   0  0  0  0  0  0  0  0  0  0  0  0
    9.7845   -3.9103   -2.6168 C   0  0  0  0  0  0  0  0  0  0  0  0
   10.5487   -3.9761   -1.3138 C   0  0  0  0  0  0  0  0  0  0  0  0
   10.3584   -3.0112   -0.3111 C   0  0  0  0  0  0  0  0  0  0  0  0
   11.0746   -3.0718    0.8883 C   0  0  0  0  0  0  0  0  0  0  0  0
   11.9952   -4.1009    1.1036 C   0  0  0  0  0  0  0  0  0  0  0  0
   12.1912   -5.0698    0.1142 C   0  0  0  0  0  0  0  0  0  0  0  0
   11.4735   -5.0092   -1.0827 C   0  0  0  0  0  0  0  0  0  0  0  0
   11.7997   -3.9596   -4.1064 N   0  0  0  0  0  0  0  0  0  0  0  0
   11.8877   -5.2455   -5.1567 S   0  0  1  0  0  0  0  0  0  0  0  0
   13.2687   -5.7152   -5.0738 O   0  0  0  0  0  0  0  0  0  0  0  0
   10.7384   -6.1050   -4.8548 O   0  0  0  0  0  0  0  0  0  0  0  0
   11.6307   -4.5900   -6.8100 C   0  0  0  0  0  0  0  0  0  0  0  0
   12.7099   -4.0281   -7.4984 C   0  0  0  0  0  0  0  0  0  0  0  0
   12.5030   -3.4986   -8.7728 C   0  0  0  0  0  0  0  0  0  0  0  0
   11.2351   -3.5267   -9.3778 C   0  0  0  0  0  0  0  0  0  0  0  0
   11.0165   -2.9697  -10.7624 C   0  0  0  0  0  0  0  0  0  0  0  0
   10.1719   -4.1101   -8.6675 C   0  0  0  0  0  0  0  0  0  0  0  0
   10.3600   -4.6453   -7.3926 C   0  0  0  0  0  0  0  0  0  0  0  0
   11.3823    5.9645   -4.4224 H   0  0  0  0  0  0  0  0  0  0  0  0
   12.7424    5.0331   -3.7168 H   0  0  0  0  0  0  0  0  0  0  0  0
   11.3848    5.5995   -2.6914 H   0  0  0  0  0  0  0  0  0  0  0  0
   12.5436    2.8073   -4.0500 H   0  0  0  0  0  0  0  0  0  0  0  0
   11.5744    0.8603   -4.9055 H   0  0  0  0  0  0  0  0  0  0  0  0
   10.0149    1.7177   -5.0641 H   0  0  0  0  0  0  0  0  0  0  0  0
    9.6279    1.5307   -2.6152 H   0  0  0  0  0  0  0  0  0  0  0  0
   11.1981    0.6875   -2.4072 H   0  0  0  0  0  0  0  0  0  0  0  0
    9.5259   -4.9239   -2.9559 H   0  0  0  0  0  0  0  0  0  0  0  0
    8.8409   -3.3588   -2.4819 H   0  0  0  0  0  0  0  0  0  0  0  0
    9.6364   -2.2055   -0.4704 H   0  0  0  0  0  0  0  0  0  0  0  0
   10.9079   -2.3145    1.6590 H   0  0  0  0  0  0  0  0  0  0  0  0
   12.5541   -4.1517    2.0417 H   0  0  0  0  0  0  0  0  0  0  0  0
   12.9047   -5.8820    0.2765 H   0  0  0  0  0  0  0  0  0  0  0  0
   11.6283   -5.7694   -1.8514 H   0  0  0  0  0  0  0  0  0  0  0  0
   12.6555   -3.4137   -4.0108 H   0  0  0  0  0  0  0  0  0  0  0  0
   13.7026   -4.0236   -7.0438 H   0  0  0  0  0  0  0  0  0  0  0  0
   13.3469   -3.0617   -9.3137 H   0  0  0  0  0  0  0  0  0  0  0  0
   11.8987   -2.4221  -11.1243 H   0  0  0  0  0  0  0  0  0  0  0  0
   10.1544   -2.2838  -10.7865 H   0  0  0  0  0  0  0  0  0  0  0  0
   10.8047   -3.7775  -11.4836 H   0  0  0  0  0  0  0  0  0  0  0  0
    9.1791   -4.1547   -9.1243 H   0  0  0  0  0  0  0  0  0  0  0  0
    9.5400   -5.1236   -6.8542 H   0  0  0  0  0  0  0  0  0  0  0  0
  1  2  1  0
  1 30  1  0
  1 31  1  0
  1 32  1  0
  2  3  2  0
  2  4  1  0
  4  5  1  0
  4 33  1  0
  5  6  1  0
  5 34  1  0
  5 35  1  0
  6  7  1  0
  6 36  1  0
  6 37  1  0
  7  8  2  0
  8  9  1  0
  8 10  1  0
 10 11  1  6
 10 12  1  0
 10 19  1  0
 12 13  1  0
 12 38  1  0
 12 39  1  0
 13 14  2  0
 13 18  1  0
 14 15  1  0
 14 40  1  0
 15 16  2  0
 15 41  1  0
 16 17  1  0
 16 42  1  0
 17 18  2  0
 17 43  1  0
 18 44  1  0
 20 19  1  1
 19 45  1  0
 20 21  2  0
 20 22  2  0
 20 23  1  0
 23 24  2  0
 23 29  1  0
 24 25  1  0
 24 46  1  0
 25 26  2  0
 25 47  1  0
 26 27  1  0
 26 28  1  0
 27 48  1  0
 27 49  1  0
 27 50  1  0
 28 29  2  0
 28 51  1  0
 29 52  1  0
M  CHG  2   7   1   9  -1
M  END

