
     RDKit          3D

 26 26  0  0  0  0  0  0  0  0999 V2000
    3.1801   -2.7872    4.5149 O   0  0  0  0  0  0  0  0  0  0  0  0
    2.6302   -3.1256    3.5044 C   0  0  0  0  0  0  0  0  0  0  0  0
    1.3625   -3.5943    3.5336 O   0  0  0  0  0  0  0  0  0  0  0  0
    3.2783   -3.0842    2.1250 C   0  0  0  0  0  0  0  0  0  0  0  0
    4.6541   -2.4261    2.1549 C   0  0  0  0  0  0  0  0  0  0  0  0
    5.2842   -2.5367    0.8385 N   0  0  0  0  0  0  0  0  0  0  0  0
    6.9020   -2.0790    0.6742 S   0  0  1  0  0  0  0  0  0  0  0  0
    7.0560   -1.7702   -0.7477 O   0  0  0  0  0  0  0  0  0  0  0  0
    7.2738   -1.1255    1.7218 O   0  0  0  0  0  0  0  0  0  0  0  0
    7.7773   -3.6154    1.0213 C   0  0  0  0  0  0  0  0  0  0  0  0
    7.7822   -4.6159    0.0461 C   0  0  0  0  0  0  0  0  0  0  0  0
    8.4755   -5.7947    0.3227 C   0  0  0  0  0  0  0  0  0  0  0  0
    8.5071   -7.0735   -0.8624 Cl  0  0  0  0  0  0  0  0  0  0  0  0
    9.1548   -5.9714    1.5344 C   0  0  0  0  0  0  0  0  0  0  0  0
    9.1363   -4.9420    2.4788 C   0  0  0  0  0  0  0  0  0  0  0  0
    9.9884   -5.1507    3.9843 Cl  0  0  0  0  0  0  0  0  0  0  0  0
    8.4504   -3.7467    2.2352 C   0  0  0  0  0  0  0  0  0  0  0  0
    1.0584   -3.8280    2.6450 H   0  0  0  0  0  0  0  0  0  0  0  0
    2.6035   -2.5524    1.4288 H   0  0  0  0  0  0  0  0  0  0  0  0
    3.3638   -4.1173    1.7430 H   0  0  0  0  0  0  0  0  0  0  0  0
    5.2819   -2.9470    2.8927 H   0  0  0  0  0  0  0  0  0  0  0  0
    4.5735   -1.3821    2.5017 H   0  0  0  0  0  0  0  0  0  0  0  0
    4.7754   -2.0977    0.0694 H   0  0  0  0  0  0  0  0  0  0  0  0
    7.2688   -4.4738   -0.9048 H   0  0  0  0  0  0  0  0  0  0  0  0
    9.6946   -6.8966    1.7351 H   0  0  0  0  0  0  0  0  0  0  0  0
    8.4472   -2.9336    2.9611 H   0  0  0  0  0  0  0  0  0  0  0  0
  1  2  2  0
  2  3  1  0
  2  4  1  0
  3 18  1  0
  4  5  1  0
  4 19  1  0
  4 20  1  0
  5  6  1  0
  5 21  1  0
  5 22  1  0
  7  6  1  6
  6 23  1  0
  7  8  2  0
  7  9  2  0
  7 10  1  0
 10 11  2  0
 10 17  1  0
 11 12  1  0
 11 24  1  0
 12 13  1  0
 12 14  2  0
 14 15  1  0
 14 25  1  0
 15 16  1  0
 15 17  2  0
 17 26  1  0
M  END

