
     RDKit          3D

 46 47  0  0  0  0  0  0  0  0999 V2000
    6.2505    0.8640   -2.9760 C   0  0  0  0  0  0  0  0  0  0  0  0
    6.9452   -0.0159   -1.9331 C   0  0  0  0  0  0  0  0  0  0  0  0
    6.1548   -0.2664   -0.6285 C   0  0  1  0  0  0  0  0  0  0  0  0
    5.8294    0.9322    0.1441 N   0  0  0  0  0  0  0  0  0  0  0  0
    4.8334   -1.0344   -0.8284 C   0  0  0  0  0  0  0  0  0  0  0  0
    4.9727   -2.3127   -1.5047 N   0  0  0  0  0  0  0  0  0  0  0  0
    4.4654   -2.5639   -2.7992 C   0  0  0  0  0  0  0  0  0  0  0  0
    3.9080   -1.7518   -3.5057 O   0  0  0  0  0  0  0  0  0  0  0  0
    4.7422   -3.8730   -3.0757 N   0  0  0  0  0  0  0  0  0  0  0  0
    5.3275   -4.6023   -1.9513 C   0  0  2  0  0  0  0  0  0  0  0  0
    6.7785   -5.0103   -2.2637 C   0  0  0  0  0  0  0  0  0  0  0  0
    4.4456   -5.7711   -1.4953 C   0  0  0  0  0  0  0  0  0  0  0  0
    4.9027   -7.0962   -1.5407 C   0  0  0  0  0  0  0  0  0  0  0  0
    4.0856   -8.1686   -1.1524 C   0  0  0  0  0  0  0  0  0  0  0  0
    4.4691   -9.4747   -1.1730 O   0  0  0  0  0  0  0  0  0  0  0  0
    5.7742   -9.8048   -1.5835 C   0  0  0  0  0  0  0  0  0  0  0  0
    2.7846   -7.9069   -0.7096 C   0  0  0  0  0  0  0  0  0  0  0  0
    2.3130   -6.5974   -0.6520 C   0  0  0  0  0  0  0  0  0  0  0  0
    3.1307   -5.5260   -1.0396 C   0  0  0  0  0  0  0  0  0  0  0  0
    2.7360   -4.2238   -0.9961 O   0  0  0  0  0  0  0  0  0  0  0  0
    1.4620   -3.8897   -0.4911 C   0  0  0  0  0  0  0  0  0  0  0  0
    5.4008   -3.4684   -0.8883 C   0  0  0  0  0  0  0  0  0  0  0  0
    5.8177   -3.5732    0.2406 O   0  0  0  0  0  0  0  0  0  0  0  0
    6.9198    1.0598   -3.8287 H   0  0  0  0  0  0  0  0  0  0  0  0
    5.9721    1.8455   -2.5560 H   0  0  0  0  0  0  0  0  0  0  0  0
    5.3408    0.3875   -3.3729 H   0  0  0  0  0  0  0  0  0  0  0  0
    7.9099    0.4418   -1.6470 H   0  0  0  0  0  0  0  0  0  0  0  0
    7.2037   -0.9893   -2.3865 H   0  0  0  0  0  0  0  0  0  0  0  0
    6.7853   -0.8980    0.0204 H   0  0  0  0  0  0  0  0  0  0  0  0
    5.3005    1.5954   -0.4242 H   0  0  0  0  0  0  0  0  0  0  0  0
    6.6811    1.4148    0.4299 H   0  0  0  0  0  0  0  0  0  0  0  0
    4.1237   -0.4423   -1.4257 H   0  0  0  0  0  0  0  0  0  0  0  0
    4.3938   -1.2061    0.1648 H   0  0  0  0  0  0  0  0  0  0  0  0
    4.3240   -4.3230   -3.8799 H   0  0  0  0  0  0  0  0  0  0  0  0
    6.8200   -5.7324   -3.0927 H   0  0  0  0  0  0  0  0  0  0  0  0
    7.2578   -5.4451   -1.3753 H   0  0  0  0  0  0  0  0  0  0  0  0
    7.3495   -4.1207   -2.5668 H   0  0  0  0  0  0  0  0  0  0  0  0
    5.9162   -7.2936   -1.8799 H   0  0  0  0  0  0  0  0  0  0  0  0
    5.8599  -10.8974   -1.5102 H   0  0  0  0  0  0  0  0  0  0  0  0
    6.5419   -9.3440   -0.9349 H   0  0  0  0  0  0  0  0  0  0  0  0
    5.9689   -9.5039   -2.6298 H   0  0  0  0  0  0  0  0  0  0  0  0
    2.1541   -8.7451   -0.4069 H   0  0  0  0  0  0  0  0  0  0  0  0
    1.2988   -6.4173   -0.2961 H   0  0  0  0  0  0  0  0  0  0  0  0
    1.3862   -2.7954   -0.5390 H   0  0  0  0  0  0  0  0  0  0  0  0
    1.3406   -4.2141    0.5574 H   0  0  0  0  0  0  0  0  0  0  0  0
    0.6523   -4.3297   -1.1002 H   0  0  0  0  0  0  0  0  0  0  0  0
  1  2  1  0
  1 24  1  0
  1 25  1  0
  1 26  1  0
  2  3  1  0
  2 27  1  0
  2 28  1  0
  3  4  1  0
  3  5  1  0
  3 29  1  1
  4 30  1  0
  4 31  1  0
  5  6  1  0
  5 32  1  0
  5 33  1  0
  6  7  1  0
  6 22  1  0
  7  8  2  0
  7  9  1  0
  9 10  1  0
  9 34  1  0
 10 11  1  6
 10 12  1  0
 10 22  1  0
 11 35  1  0
 11 36  1  0
 11 37  1  0
 12 13  2  0
 12 19  1  0
 13 14  1  0
 13 38  1  0
 14 15  1  0
 14 17  2  0
 15 16  1  0
 16 39  1  0
 16 40  1  0
 16 41  1  0
 17 18  1  0
 17 42  1  0
 18 19  2  0
 18 43  1  0
 19 20  1  0
 20 21  1  0
 21 44  1  0
 21 45  1  0
 21 46  1  0
 22 23  2  0
M  END

