
     RDKit          3D

 28 29  0  0  0  0  0  0  0  0999 V2000
    2.7812    0.7080    1.0865 N   0  0  0  0  0  0  0  0  0  0  0  0
    3.0794   -0.0494   -0.0315 N   0  0  0  0  0  0  0  0  0  0  0  0
    3.3048    0.5123   -1.2582 C   0  0  0  0  0  0  0  0  0  0  0  0
    3.2515    1.9124   -1.4738 C   0  0  0  0  0  0  0  0  0  0  0  0
    3.4942    2.3789   -2.7536 C   0  0  0  0  0  0  0  0  0  0  0  0
    3.7857    1.4527   -3.7679 C   0  0  0  0  0  0  0  0  0  0  0  0
    4.0636    2.0137   -5.4196 S   0  0  1  0  0  0  0  0  0  0  0  0
    3.7850    0.9287   -6.3521 O   0  0  0  0  0  0  0  0  0  0  0  0
    3.4598    3.3400   -5.5768 O   0  0  0  0  0  0  0  0  0  0  0  0
    5.7397    2.4110   -5.4921 N   0  0  0  0  0  0  0  0  0  0  0  0
    6.7856    1.5118   -5.6151 C   0  0  0  0  0  0  0  0  0  0  0  0
    8.0305    1.9185   -6.1466 C   0  0  0  0  0  0  0  0  0  0  0  0
    9.0240    0.9615   -6.2004 C   0  0  0  0  0  0  0  0  0  0  0  0
    8.7152   -0.3266   -5.7315 C   0  0  0  0  0  0  0  0  0  0  0  0
    7.5204   -0.6440   -5.2434 N   0  0  0  0  0  0  0  0  0  0  0  0
    6.5642    0.2664   -5.1798 N   0  0  0  0  0  0  0  0  0  0  0  0
    3.8118    0.0864   -3.4605 C   0  0  0  0  0  0  0  0  0  0  0  0
    3.5741   -0.3695   -2.2370 N   0  0  0  0  0  0  0  0  0  0  0  0
    3.4807    0.5835    1.8193 H   0  0  0  0  0  0  0  0  0  0  0  0
    1.8607    0.4756    1.4613 H   0  0  0  0  0  0  0  0  0  0  0  0
    3.1380   -1.0656   -0.0009 H   0  0  0  0  0  0  0  0  0  0  0  0
    3.0150    2.5773   -0.6445 H   0  0  0  0  0  0  0  0  0  0  0  0
    3.4473    3.4448   -2.9856 H   0  0  0  0  0  0  0  0  0  0  0  0
    5.8576    3.3569   -5.8438 H   0  0  0  0  0  0  0  0  0  0  0  0
    8.1869    2.9411   -6.4988 H   0  0  0  0  0  0  0  0  0  0  0  0
   10.0153    1.1913   -6.5984 H   0  0  0  0  0  0  0  0  0  0  0  0
    9.4527   -1.1343   -5.7468 H   0  0  0  0  0  0  0  0  0  0  0  0
    4.0386   -0.6443   -4.2411 H   0  0  0  0  0  0  0  0  0  0  0  0
  1  2  1  0
  1 19  1  0
  1 20  1  0
  2  3  1  0
  2 21  1  0
  3  4  2  0
  3 18  1  0
  4  5  1  0
  4 22  1  0
  5  6  2  0
  5 23  1  0
  6  7  1  0
  6 17  1  0
  7  8  2  0
  7  9  2  0
  7 10  1  1
 10 11  1  0
 10 24  1  0
 11 12  2  0
 11 16  1  0
 12 13  1  0
 12 25  1  0
 13 14  2  0
 13 26  1  0
 14 15  1  0
 14 27  1  0
 15 16  2  0
 17 18  2  0
 17 28  1  0
M  END

