
     RDKit          3D

 38 41  0  0  0  0  0  0  0  0999 V2000
    3.2175   -3.4258   -1.4268 N   0  0  0  0  0  0  0  0  0  0  0  0
    3.4600   -2.6336   -2.4884 C   0  0  0  0  0  0  0  0  0  0  0  0
    3.4183   -3.0225   -3.6464 O   0  0  0  0  0  0  0  0  0  0  0  0
    3.8003   -1.1656   -2.2323 C   0  0  0  0  0  0  0  0  0  0  0  0
    4.0053   -0.3835   -3.3973 C   0  0  0  0  0  0  0  0  0  0  0  0
    4.3083    0.9489   -3.1709 C   0  0  0  0  0  0  0  0  0  0  0  0
    4.5685    1.9950   -4.1639 C   0  0  0  0  0  0  0  0  0  0  0  0
    4.5529    3.3604   -3.8260 C   0  0  0  0  0  0  0  0  0  0  0  0
    4.7985    4.3459   -4.7797 C   0  0  0  0  0  0  0  0  0  0  0  0
    5.0758    4.0018   -6.1130 C   0  0  0  0  0  0  0  0  0  0  0  0
    5.3818    4.9888   -7.0938 N   0  0  0  0  0  0  0  0  0  0  0  0
    6.0251    6.2239   -6.6107 C   0  0  0  0  0  0  0  0  0  0  0  0
    6.7959    6.9619   -7.6972 C   0  0  0  0  0  0  0  0  0  0  0  0
    5.6972    7.5020   -9.0527 S   0  0  0  0  0  0  0  0  0  0  0  0
    5.0876    5.8248   -9.4277 C   0  0  0  0  0  0  0  0  0  0  0  0
    4.5210    5.1078   -8.2191 C   0  0  1  0  0  0  0  0  0  0  0  0
    3.7277    4.0197   -8.5158 O   0  0  0  0  0  0  0  0  0  0  0  0
    3.1423    5.2964   -7.9961 O   0  0  0  0  0  0  0  0  0  0  0  0
    5.1020    2.6368   -6.4562 C   0  0  0  0  0  0  0  0  0  0  0  0
    4.8477    1.6574   -5.5055 C   0  0  0  0  0  0  0  0  0  0  0  0
    4.3624    1.2834   -1.4664 S   0  0  0  0  0  0  0  0  0  0  0  0
    3.9613   -0.3704   -1.0918 C   0  0  0  0  0  0  0  0  0  0  0  0
    3.8697   -0.6420    0.3169 N   0  0  0  0  0  0  0  0  0  0  0  0
    3.5992   -1.7764    0.7130 O   0  0  0  0  0  0  0  0  0  0  0  0
    4.0751    0.3019    1.0691 O   0  0  0  0  0  0  0  0  0  0  0  0
    2.9979   -4.3962   -1.6175 H   0  0  0  0  0  0  0  0  0  0  0  0
    3.2814   -3.0644   -0.4769 H   0  0  0  0  0  0  0  0  0  0  0  0
    3.9020   -0.8415   -4.3796 H   0  0  0  0  0  0  0  0  0  0  0  0
    4.3176    3.6682   -2.8039 H   0  0  0  0  0  0  0  0  0  0  0  0
    4.7469    5.3928   -4.4795 H   0  0  0  0  0  0  0  0  0  0  0  0
    6.7270    5.9267   -5.8168 H   0  0  0  0  0  0  0  0  0  0  0  0
    5.2874    6.9172   -6.1637 H   0  0  0  0  0  0  0  0  0  0  0  0
    7.6045    6.3322   -8.1034 H   0  0  0  0  0  0  0  0  0  0  0  0
    7.2480    7.8720   -7.2759 H   0  0  0  0  0  0  0  0  0  0  0  0
    5.9022    5.2131   -9.8495 H   0  0  0  0  0  0  0  0  0  0  0  0
    4.2869    5.9152  -10.1721 H   0  0  0  0  0  0  0  0  0  0  0  0
    5.3448    2.3453   -7.4782 H   0  0  0  0  0  0  0  0  0  0  0  0
    4.8960    0.6088   -5.8038 H   0  0  0  0  0  0  0  0  0  0  0  0
  1  2  1  0
  1 26  1  0
  1 27  1  0
  2  3  2  0
  2  4  1  0
  4  5  2  0
  4 22  1  0
  5  6  1  0
  5 28  1  0
  6  7  1  0
  6 21  2  0
  7  8  2  0
  7 20  1  0
  8  9  1  0
  8 29  1  0
  9 10  2  0
  9 30  1  0
 10 11  1  0
 10 19  1  0
 11 12  1  0
 11 16  1  0
 12 13  1  0
 12 31  1  0
 12 32  1  0
 13 14  1  0
 13 33  1  0
 13 34  1  0
 14 15  1  0
 15 16  1  0
 15 35  1  0
 15 36  1  0
 16 17  1  6
 16 18  1  0
 17 18  1  0
 19 20  2  0
 19 37  1  0
 20 38  1  0
 21 22  1  0
 22 23  2  0
 23 24  1  0
 23 25  1  0
M  CHG  4  21   1  23   1  24  -1  25  -1
M  END

