
     RDKit          3D

 36 37  0  0  0  0  0  0  0  0999 V2000
    2.4949   -3.3149   -1.5044 O   0  0  0  0  0  0  0  0  0  0  0  0
    2.8148   -2.4737   -0.7092 C   0  0  0  0  0  0  0  0  0  0  0  0
    3.0647   -2.7958    0.5777 O   0  0  0  0  0  0  0  0  0  0  0  0
    2.9717   -0.9745   -1.0623 C   0  0  2  0  0  0  0  0  0  0  0  0
    2.3071   -0.4215   -0.3732 H   0  0  0  0  0  0  0  0  0  0  0  0
    2.5626   -0.6476   -2.4114 N   0  0  0  0  0  0  0  0  0  0  0  0
    1.1274   -0.7252   -2.6834 C   0  0  0  0  0  0  0  0  0  0  0  0
    0.8183   -0.2404   -4.0702 C   0  0  0  0  0  0  0  0  0  0  0  0
   -0.1859   -0.6958   -4.9649 C   0  0  0  0  0  0  0  0  0  0  0  0
   -0.1757   -0.0209   -6.1100 N   0  0  0  0  0  0  0  0  0  0  0  0
    0.8315    0.8613   -5.9836 N   0  0  0  0  0  0  0  0  0  0  0  0
    1.0660    1.8231   -7.0330 C   0  0  0  0  0  0  0  0  0  0  0  0
    0.1525    3.0354   -6.9197 C   0  0  1  0  0  0  0  0  0  0  0  0
    0.4265    3.7137   -5.7736 F   0  0  0  0  0  0  0  0  0  0  0  0
    0.3964    3.8647   -7.9679 F   0  0  0  0  0  0  0  0  0  0  0  0
    1.4498    0.7752   -4.7717 C   0  0  0  0  0  0  0  0  0  0  0  0
    4.4039   -0.5174   -0.7928 C   0  0  0  0  0  0  0  0  0  0  0  0
    4.6530    0.7202   -0.1805 C   0  0  0  0  0  0  0  0  0  0  0  0
    5.9621    1.1637    0.0256 C   0  0  0  0  0  0  0  0  0  0  0  0
    7.0416    0.3750   -0.3838 C   0  0  0  0  0  0  0  0  0  0  0  0
    6.8048   -0.8590   -0.9970 C   0  0  0  0  0  0  0  0  0  0  0  0
    5.4952   -1.3026   -1.1987 C   0  0  0  0  0  0  0  0  0  0  0  0
    3.4052   -2.0241    1.0560 H   0  0  0  0  0  0  0  0  0  0  0  0
    3.0709   -1.2292   -3.0778 H   0  0  0  0  0  0  0  0  0  0  0  0
    0.6182   -0.0816   -1.9408 H   0  0  0  0  0  0  0  0  0  0  0  0
    0.7096   -1.7423   -2.5517 H   0  0  0  0  0  0  0  0  0  0  0  0
   -0.9073   -1.4994   -4.8123 H   0  0  0  0  0  0  0  0  0  0  0  0
    0.8909    1.3360   -8.0024 H   0  0  0  0  0  0  0  0  0  0  0  0
    2.1080    2.1739   -6.9919 H   0  0  0  0  0  0  0  0  0  0  0  0
   -0.9162    2.7607   -6.9164 H   0  0  0  0  0  0  0  0  0  0  0  0
    2.2837    1.4172   -4.4986 H   0  0  0  0  0  0  0  0  0  0  0  0
    3.8116    1.3464    0.1300 H   0  0  0  0  0  0  0  0  0  0  0  0
    6.1394    2.1295    0.5057 H   0  0  0  0  0  0  0  0  0  0  0  0
    8.0659    0.7203   -0.2229 H   0  0  0  0  0  0  0  0  0  0  0  0
    7.6437   -1.4817   -1.3179 H   0  0  0  0  0  0  0  0  0  0  0  0
    5.3220   -2.2725   -1.6745 H   0  0  0  0  0  0  0  0  0  0  0  0
  1  2  2  0
  2  3  1  0
  2  4  1  0
  3 23  1  0
  4  5  1  1
  4  6  1  0
  4 17  1  0
  6  7  1  0
  6 24  1  0
  7  8  1  0
  7 25  1  0
  7 26  1  0
  8  9  1  0
  8 16  2  0
  9 10  2  0
  9 27  1  0
 10 11  1  0
 11 12  1  0
 11 16  1  0
 12 13  1  0
 12 28  1  0
 12 29  1  0
 13 14  1  0
 13 15  1  0
 13 30  1  1
 16 31  1  0
 17 18  2  0
 17 22  1  0
 18 19  1  0
 18 32  1  0
 19 20  2  0
 19 33  1  0
 20 21  1  0
 20 34  1  0
 21 22  2  0
 21 35  1  0
 22 36  1  0
M  END

