
     RDKit          3D

 43 45  0  0  0  0  0  0  0  0999 V2000
    7.5808   -6.8104    1.8451 C   0  0  0  0  0  0  0  0  0  0  0  0
    6.0893   -7.0348    2.0025 C   0  0  0  0  0  0  0  0  0  0  0  0
    5.5191   -5.8640    2.5628 O   0  0  0  0  0  0  0  0  0  0  0  0
    4.1317   -5.8991    2.7027 C   0  0  0  0  0  0  0  0  0  0  0  0
    3.6267   -4.5379    2.6985 N   0  0  0  0  0  0  0  0  0  0  0  0
    3.1596   -4.0057    3.8271 N   0  0  0  0  0  0  0  0  0  0  0  0
    2.8464   -2.7424    3.5362 C   0  0  0  0  0  0  0  0  0  0  0  0
    3.1408   -2.4411    2.1935 C   0  0  0  0  0  0  0  0  0  0  0  0
    3.6526   -3.6267    1.6676 C   0  0  0  0  0  0  0  0  0  0  0  0
    4.0524   -3.9663    0.2911 C   0  0  0  0  0  0  0  0  0  0  0  0
    4.1581   -5.1191   -0.0941 O   0  0  0  0  0  0  0  0  0  0  0  0
    4.2205   -2.8343   -0.6990 C   0  0  0  0  0  0  0  0  0  0  0  0
    3.4100   -2.9000   -1.8573 C   0  0  0  0  0  0  0  0  0  0  0  0
    3.5554   -1.9032   -2.7960 C   0  0  0  0  0  0  0  0  0  0  0  0
    4.4797   -0.8699   -2.6408 C   0  0  0  0  0  0  0  0  0  0  0  0
    5.3095   -0.7962   -1.5343 C   0  0  0  0  0  0  0  0  0  0  0  0
    6.4643    0.4872   -1.4046 Cl  0  0  0  0  0  0  0  0  0  0  0  0
    5.1692   -1.8097   -0.5507 C   0  0  0  0  0  0  0  0  0  0  0  0
    6.2642   -1.8007    0.8059 Cl  0  0  0  0  0  0  0  0  0  0  0  0
    4.3914   -0.0110   -3.6926 O   0  0  0  0  0  0  0  0  0  0  0  0
    3.4865   -0.6181   -4.6225 C   0  0  1  0  0  0  0  0  0  0  0  0
    4.3062   -1.1347   -5.8230 C   0  0  0  0  0  0  0  0  0  0  0  0
    5.0287   -2.0935   -5.7624 O   0  0  0  0  0  0  0  0  0  0  0  0
    4.1106   -0.3578   -6.8896 O   0  0  0  0  0  0  0  0  0  0  0  0
    4.8577   -0.6681   -8.0900 C   0  0  0  0  0  0  0  0  0  0  0  0
    6.2309   -0.0208   -8.0712 C   0  0  0  0  0  0  0  0  0  0  0  0
    2.8644   -1.7066   -3.9605 O   0  0  0  0  0  0  0  0  0  0  0  0
    8.0593   -7.6983    1.4032 H   0  0  0  0  0  0  0  0  0  0  0  0
    8.0494   -6.6096    2.8210 H   0  0  0  0  0  0  0  0  0  0  0  0
    7.7698   -5.9469    1.1890 H   0  0  0  0  0  0  0  0  0  0  0  0
    5.8978   -7.9097    2.6578 H   0  0  0  0  0  0  0  0  0  0  0  0
    5.6191   -7.2441    1.0221 H   0  0  0  0  0  0  0  0  0  0  0  0
    3.8133   -6.3232    3.6715 H   0  0  0  0  0  0  0  0  0  0  0  0
    3.6653   -6.4530    1.8718 H   0  0  0  0  0  0  0  0  0  0  0  0
    2.4249   -2.0954    4.3047 H   0  0  0  0  0  0  0  0  0  0  0  0
    3.0003   -1.5014    1.6658 H   0  0  0  0  0  0  0  0  0  0  0  0
    2.7007   -3.7168   -1.9896 H   0  0  0  0  0  0  0  0  0  0  0  0
    2.7348    0.1206   -4.9395 H   0  0  0  0  0  0  0  0  0  0  0  0
    4.2365   -0.2771   -8.9077 H   0  0  0  0  0  0  0  0  0  0  0  0
    4.9323   -1.7615   -8.1817 H   0  0  0  0  0  0  0  0  0  0  0  0
    6.1522    1.0687   -7.9347 H   0  0  0  0  0  0  0  0  0  0  0  0
    6.7429   -0.2123   -9.0276 H   0  0  0  0  0  0  0  0  0  0  0  0
    6.8513   -0.4368   -7.2637 H   0  0  0  0  0  0  0  0  0  0  0  0
  1  2  1  0
  1 28  1  0
  1 29  1  0
  1 30  1  0
  2  3  1  0
  2 31  1  0
  2 32  1  0
  3  4  1  0
  4  5  1  0
  4 33  1  0
  4 34  1  0
  5  6  1  0
  5  9  1  0
  6  7  2  0
  7  8  1  0
  7 35  1  0
  8  9  2  0
  8 36  1  0
  9 10  1  0
 10 11  2  0
 10 12  1  0
 12 13  2  0
 12 18  1  0
 13 14  1  0
 13 37  1  0
 14 15  2  0
 14 27  1  0
 15 16  1  0
 15 20  1  0
 16 17  1  0
 16 18  2  0
 18 19  1  0
 20 21  1  0
 21 22  1  0
 21 27  1  0
 21 38  1  6
 22 23  2  0
 22 24  1  0
 24 25  1  0
 25 26  1  0
 25 39  1  0
 25 40  1  0
 26 41  1  0
 26 42  1  0
 26 43  1  0
M  END

