
     RDKit          3D

 52 54  0  0  0  0  0  0  0  0999 V2000
    1.2532    0.7605   -0.4229 O   0  0  0  0  0  0  0  0  0  0  0  0
    2.1733    0.0222   -0.0937 C   0  0  0  0  0  0  0  0  0  0  0  0
    2.4106   -1.2799   -0.8690 C   0  0  0  0  0  0  0  0  0  0  0  0
    3.3782   -1.0998   -2.0256 C   0  0  0  0  0  0  0  0  0  0  0  0
    3.1813   -0.0422   -2.9336 C   0  0  0  0  0  0  0  0  0  0  0  0
    4.0278    0.1572   -4.0233 C   0  0  0  0  0  0  0  0  0  0  0  0
    5.1059   -0.7074   -4.2369 C   0  0  0  0  0  0  0  0  0  0  0  0
    5.3273   -1.7663   -3.3571 C   0  0  0  0  0  0  0  0  0  0  0  0
    4.4691   -1.9530   -2.2673 C   0  0  0  0  0  0  0  0  0  0  0  0
    4.8051   -3.3154   -1.2005 Cl  0  0  0  0  0  0  0  0  0  0  0  0
    3.0253    0.3337    0.9355 N   0  0  0  0  0  0  0  0  0  0  0  0
    4.1810   -0.4396    1.3810 C   0  0  0  0  0  0  0  0  0  0  0  0
    5.4390    0.4504    1.4144 C   0  0  0  0  0  0  0  0  0  0  0  0
    5.2605    1.6796    2.1781 N   0  0  0  0  0  0  0  0  0  0  0  0
    5.4241    1.5516    3.6208 C   0  0  0  0  0  0  0  0  0  0  0  0
    6.8916    1.6622    4.0255 C   0  0  0  0  0  0  0  0  0  0  0  0
    6.9735    1.5162    5.4313 O   0  0  0  0  0  0  0  0  0  0  0  0
    8.2762    1.5563    5.9587 C   0  0  1  0  0  0  0  0  0  0  0  0
    8.1661    1.6470    7.4814 C   0  0  0  0  0  0  0  0  0  0  0  0
    7.6768    0.3254    8.0854 C   0  0  0  0  0  0  0  0  0  0  0  0
    8.5439   -0.8313    7.5735 C   0  0  0  0  0  0  0  0  0  0  0  0
    8.6021   -0.8109    6.0477 C   0  0  0  0  0  0  0  0  0  0  0  0
    9.0485    0.4479    5.5485 O   0  0  0  0  0  0  0  0  0  0  0  0
    4.0884    2.4110    1.7106 C   0  0  0  0  0  0  0  0  0  0  0  0
    2.8064    1.5660    1.6942 C   0  0  0  0  0  0  0  0  0  0  0  0
    1.4209   -1.5427   -1.2714 H   0  0  0  0  0  0  0  0  0  0  0  0
    2.7316   -2.1050   -0.2232 H   0  0  0  0  0  0  0  0  0  0  0  0
    2.3366    0.6292   -2.7604 H   0  0  0  0  0  0  0  0  0  0  0  0
    3.8441    0.9884   -4.7083 H   0  0  0  0  0  0  0  0  0  0  0  0
    5.7756   -0.5622   -5.0880 H   0  0  0  0  0  0  0  0  0  0  0  0
    6.1607   -2.4551   -3.5041 H   0  0  0  0  0  0  0  0  0  0  0  0
    4.3588   -1.2954    0.7205 H   0  0  0  0  0  0  0  0  0  0  0  0
    3.9799   -0.8429    2.3927 H   0  0  0  0  0  0  0  0  0  0  0  0
    5.7034    0.7144    0.3746 H   0  0  0  0  0  0  0  0  0  0  0  0
    6.2837   -0.1240    1.8252 H   0  0  0  0  0  0  0  0  0  0  0  0
    5.0169    0.6065    4.0375 H   0  0  0  0  0  0  0  0  0  0  0  0
    4.8719    2.3633    4.1201 H   0  0  0  0  0  0  0  0  0  0  0  0
    7.2888    2.6470    3.7098 H   0  0  0  0  0  0  0  0  0  0  0  0
    7.5004    0.8902    3.5209 H   0  0  0  0  0  0  0  0  0  0  0  0
    8.8176    2.4297    5.5482 H   0  0  0  0  0  0  0  0  0  0  0  0
    7.4964    2.4822    7.7389 H   0  0  0  0  0  0  0  0  0  0  0  0
    9.1680    1.8904    7.8732 H   0  0  0  0  0  0  0  0  0  0  0  0
    6.6266    0.1591    7.7911 H   0  0  0  0  0  0  0  0  0  0  0  0
    7.6972    0.3754    9.1863 H   0  0  0  0  0  0  0  0  0  0  0  0
    8.1537   -1.8051    7.9149 H   0  0  0  0  0  0  0  0  0  0  0  0
    9.5691   -0.7348    7.9733 H   0  0  0  0  0  0  0  0  0  0  0  0
    7.6051   -1.0500    5.6311 H   0  0  0  0  0  0  0  0  0  0  0  0
    9.3156   -1.5543    5.6612 H   0  0  0  0  0  0  0  0  0  0  0  0
    4.2858    2.7625    0.6814 H   0  0  0  0  0  0  0  0  0  0  0  0
    3.9416    3.3056    2.3360 H   0  0  0  0  0  0  0  0  0  0  0  0
    1.9731    2.1028    1.2240 H   0  0  0  0  0  0  0  0  0  0  0  0
    2.5099    1.3061    2.7289 H   0  0  0  0  0  0  0  0  0  0  0  0
  1  2  2  0
  2  3  1  0
  2 11  1  0
  3  4  1  0
  3 26  1  0
  3 27  1  0
  4  5  2  0
  4  9  1  0
  5  6  1  0
  5 28  1  0
  6  7  2  0
  6 29  1  0
  7  8  1  0
  7 30  1  0
  8  9  2  0
  8 31  1  0
  9 10  1  0
 11 12  1  0
 11 25  1  0
 12 13  1  0
 12 32  1  0
 12 33  1  0
 13 14  1  0
 13 34  1  0
 13 35  1  0
 14 15  1  0
 14 24  1  0
 15 16  1  0
 15 36  1  0
 15 37  1  0
 16 17  1  0
 16 38  1  0
 16 39  1  0
 17 18  1  0
 18 19  1  0
 18 23  1  0
 18 40  1  6
 19 20  1  0
 19 41  1  0
 19 42  1  0
 20 21  1  0
 20 43  1  0
 20 44  1  0
 21 22  1  0
 21 45  1  0
 21 46  1  0
 22 23  1  0
 22 47  1  0
 22 48  1  0
 24 25  1  0
 24 49  1  0
 24 50  1  0
 25 51  1  0
 25 52  1  0
M  END

