
     RDKit          3D

 77 81  0  0  0  0  0  0  0  0999 V2000
    1.7888    2.4652    0.5074 C   0  0  0  0  0  0  0  0  0  0  0  0
    0.9209    1.9325    1.4834 O   0  0  0  0  0  0  0  0  0  0  0  0
    1.4395    1.2760    2.5510 C   0  0  0  0  0  0  0  0  0  0  0  0
    0.5135    0.7658    3.4752 C   0  0  0  0  0  0  0  0  0  0  0  0
    0.9642    0.0627    4.5906 C   0  0  0  0  0  0  0  0  0  0  0  0
    2.3318   -0.1326    4.8094 C   0  0  0  0  0  0  0  0  0  0  0  0
    3.2633    0.3874    3.9023 C   0  0  0  0  0  0  0  0  0  0  0  0
    4.7648    0.2122    4.1408 C   0  0  1  0  0  0  0  0  0  0  0  0
    5.2984    0.8237    3.3896 H   0  0  0  0  0  0  0  0  0  0  0  0
    5.2134    0.5420    5.5561 C   0  0  0  0  0  0  0  0  0  0  0  0
    5.0759    1.6844    6.3403 C   0  0  0  0  0  0  0  0  0  0  0  0
    5.4576    1.6247    7.6042 O   0  0  0  0  0  0  0  0  0  0  0  0
    4.5319    2.9922    5.9392 C   0  0  0  0  0  0  0  0  0  0  0  0
    3.9292    3.8153    6.9158 C   0  0  0  0  0  0  0  0  0  0  0  0
    3.4177    5.0595    6.5822 C   0  0  0  0  0  0  0  0  0  0  0  0
    3.5171    5.5386    5.2619 C   0  0  0  0  0  0  0  0  0  0  0  0
    2.9953    6.7687    5.0401 O   0  0  0  0  0  0  0  0  0  0  0  0
    3.1854    7.4250    3.7963 C   0  0  0  0  0  0  0  0  0  0  0  0
    2.2749    6.9480    2.6805 C   0  0  0  0  0  0  0  0  0  0  0  0
    1.0495    6.3285    2.9543 C   0  0  0  0  0  0  0  0  0  0  0  0
    0.2137    5.9475    1.9011 C   0  0  0  0  0  0  0  0  0  0  0  0
    0.5848    6.1945    0.5776 C   0  0  0  0  0  0  0  0  0  0  0  0
    1.8061    6.8211    0.2791 C   0  0  0  0  0  0  0  0  0  0  0  0
    2.1964    7.1218   -1.1482 C   0  0  0  0  0  0  0  0  0  0  0  0
    2.6418    7.1803    1.3469 C   0  0  0  0  0  0  0  0  0  0  0  0
    4.1380    4.7444    4.2845 C   0  0  0  0  0  0  0  0  0  0  0  0
    4.6292    3.4848    4.6283 C   0  0  0  0  0  0  0  0  0  0  0  0
    5.8183   -0.6187    6.1394 C   0  0  0  0  0  0  0  0  0  0  0  0
    6.2322   -0.7488    7.3000 O   0  0  0  0  0  0  0  0  0  0  0  0
    5.9030   -1.6874    5.0548 C   0  0  0  0  0  0  0  0  0  0  0  0
    6.4883   -2.7492    5.1215 O   0  0  0  0  0  0  0  0  0  0  0  0
    5.2174   -1.1846    3.9757 N   0  0  0  0  0  0  0  0  0  0  0  0
    5.3180   -1.8087    2.6560 C   0  0  0  0  0  0  0  0  0  0  0  0
    4.7695   -3.2397    2.5758 C   0  0  0  0  0  0  0  0  0  0  0  0
    3.2452   -3.3345    2.4517 C   0  0  0  0  0  0  0  0  0  0  0  0
    2.7453   -2.7673    1.1986 N   0  0  0  0  0  0  0  0  0  0  0  0
    2.9555   -3.5868    0.0037 C   0  0  0  0  0  0  0  0  0  0  0  0
    1.8802   -4.6647   -0.1741 C   0  0  0  0  0  0  0  0  0  0  0  0
    0.5841   -4.0956   -0.1702 O   0  0  0  0  0  0  0  0  0  0  0  0
    0.3296   -3.3731    1.0220 C   0  0  0  0  0  0  0  0  0  0  0  0
    1.3705   -2.2683    1.2238 C   0  0  0  0  0  0  0  0  0  0  0  0
    2.8137    1.0839    2.7711 C   0  0  0  0  0  0  0  0  0  0  0  0
    2.4552    3.2383    0.9288 H   0  0  0  0  0  0  0  0  0  0  0  0
    1.1516    2.9320   -0.2549 H   0  0  0  0  0  0  0  0  0  0  0  0
    2.4017    1.6790    0.0307 H   0  0  0  0  0  0  0  0  0  0  0  0
   -0.5500    0.9317    3.2921 H   0  0  0  0  0  0  0  0  0  0  0  0
    0.2381   -0.3347    5.3046 H   0  0  0  0  0  0  0  0  0  0  0  0
    2.6734   -0.6748    5.6936 H   0  0  0  0  0  0  0  0  0  0  0  0
    5.8234    0.6896    7.7720 H   0  0  0  0  0  0  0  0  0  0  0  0
    3.8661    3.4565    7.9439 H   0  0  0  0  0  0  0  0  0  0  0  0
    2.9396    5.6958    7.3293 H   0  0  0  0  0  0  0  0  0  0  0  0
    4.2440    7.3644    3.4861 H   0  0  0  0  0  0  0  0  0  0  0  0
    2.9748    8.4849    4.0147 H   0  0  0  0  0  0  0  0  0  0  0  0
    0.7577    6.1389    3.9891 H   0  0  0  0  0  0  0  0  0  0  0  0
   -0.7355    5.4500    2.1152 H   0  0  0  0  0  0  0  0  0  0  0  0
   -0.0812    5.8955   -0.2372 H   0  0  0  0  0  0  0  0  0  0  0  0
    1.8403    6.3420   -1.8391 H   0  0  0  0  0  0  0  0  0  0  0  0
    3.2876    7.2083   -1.2625 H   0  0  0  0  0  0  0  0  0  0  0  0
    1.7560    8.0766   -1.4852 H   0  0  0  0  0  0  0  0  0  0  0  0
    3.6038    7.6577    1.1308 H   0  0  0  0  0  0  0  0  0  0  0  0
    4.2294    5.0914    3.2558 H   0  0  0  0  0  0  0  0  0  0  0  0
    5.1265    2.8947    3.8592 H   0  0  0  0  0  0  0  0  0  0  0  0
    6.3832   -1.8154    2.3613 H   0  0  0  0  0  0  0  0  0  0  0  0
    4.7714   -1.1794    1.9383 H   0  0  0  0  0  0  0  0  0  0  0  0
    5.1134   -3.8073    3.4519 H   0  0  0  0  0  0  0  0  0  0  0  0
    5.2401   -3.7241    1.7037 H   0  0  0  0  0  0  0  0  0  0  0  0
    2.7842   -2.7701    3.2783 H   0  0  0  0  0  0  0  0  0  0  0  0
    2.9476   -4.3942    2.6037 H   0  0  0  0  0  0  0  0  0  0  0  0
    3.9552   -4.0481    0.0312 H   0  0  0  0  0  0  0  0  0  0  0  0
    2.9291   -2.9251   -0.8817 H   0  0  0  0  0  0  0  0  0  0  0  0
    1.9634   -5.4291    0.6276 H   0  0  0  0  0  0  0  0  0  0  0  0
    2.0015   -5.1812   -1.1397 H   0  0  0  0  0  0  0  0  0  0  0  0
    0.3255   -4.0631    1.8929 H   0  0  0  0  0  0  0  0  0  0  0  0
   -0.6820   -2.9468    0.9278 H   0  0  0  0  0  0  0  0  0  0  0  0
    1.1895   -1.7333    2.1678 H   0  0  0  0  0  0  0  0  0  0  0  0
    1.2521   -1.5345    0.4048 H   0  0  0  0  0  0  0  0  0  0  0  0
    3.5466    1.4806    2.0675 H   0  0  0  0  0  0  0  0  0  0  0  0
  1  2  1  0
  1 43  1  0
  1 44  1  0
  1 45  1  0
  2  3  1  0
  3  4  2  0
  3 42  1  0
  4  5  1  0
  4 46  1  0
  5  6  2  0
  5 47  1  0
  6  7  1  0
  6 48  1  0
  7  8  1  0
  7 42  2  0
  8  9  1  6
  8 10  1  0
  8 32  1  0
 10 11  2  0
 10 28  1  0
 11 12  1  0
 11 13  1  0
 12 49  1  0
 13 14  2  0
 13 27  1  0
 14 15  1  0
 14 50  1  0
 15 16  2  0
 15 51  1  0
 16 17  1  0
 16 26  1  0
 17 18  1  0
 18 19  1  0
 18 52  1  0
 18 53  1  0
 19 20  2  0
 19 25  1  0
 20 21  1  0
 20 54  1  0
 21 22  2  0
 21 55  1  0
 22 23  1  0
 22 56  1  0
 23 24  1  0
 23 25  2  0
 24 57  1  0
 24 58  1  0
 24 59  1  0
 25 60  1  0
 26 27  2  0
 26 61  1  0
 27 62  1  0
 28 29  2  0
 28 30  1  0
 30 31  2  0
 30 32  1  0
 32 33  1  0
 33 34  1  0
 33 63  1  0
 33 64  1  0
 34 35  1  0
 34 65  1  0
 34 66  1  0
 35 36  1  0
 35 67  1  0
 35 68  1  0
 36 37  1  0
 36 41  1  0
 37 38  1  0
 37 69  1  0
 37 70  1  0
 38 39  1  0
 38 71  1  0
 38 72  1  0
 39 40  1  0
 40 41  1  0
 40 73  1  0
 40 74  1  0
 41 75  1  0
 41 76  1  0
 42 77  1  0
M  END

