
     RDKit          3D

 74 77  0  0  0  0  0  0  0  0999 V2000
    3.8772   -1.4878   -3.7489 C   0  0  0  0  0  0  0  0  0  0  0  0
    4.7964   -0.2602   -3.8260 C   0  0  1  0  0  0  0  0  0  0  0  0
    4.1068    0.8613   -4.6148 C   0  0  0  0  0  0  0  0  0  0  0  0
    5.2667    0.2308   -2.4254 C   0  0  1  0  0  0  0  0  0  0  0  0
    4.3701    0.5869   -1.8832 H   0  0  0  0  0  0  0  0  0  0  0  0
    5.9130   -0.8897   -1.5876 C   0  0  0  0  0  0  0  0  0  0  0  0
    6.2343    1.3872   -2.5340 C   0  0  0  0  0  0  0  0  0  0  0  0
    6.0611    2.5975   -1.9892 C   0  0  0  0  0  0  0  0  0  0  0  0
    7.0295    3.7685   -1.9501 C   0  0  1  0  0  0  0  0  0  0  0  0
    6.4167    4.6782   -2.0913 H   0  0  0  0  0  0  0  0  0  0  0  0
    7.6139    3.8419   -0.5236 C   0  0  0  0  0  0  0  0  0  0  0  0
    8.0876    3.7503   -3.0747 C   0  0  1  0  0  0  0  0  0  0  0  0
    8.6676    2.8151   -2.9703 H   0  0  0  0  0  0  0  0  0  0  0  0
    7.4487    3.7727   -4.5027 C   0  0  0  0  0  0  0  0  0  0  0  0
    8.4173    4.5502   -5.4315 C   0  0  0  0  0  0  0  0  0  0  0  0
    9.6774    4.7160   -4.5791 C   0  0  1  0  0  0  0  0  0  0  0  0
   10.1760    3.7237   -4.5624 H   0  0  0  0  0  0  0  0  0  0  0  0
   10.7606    5.6759   -4.9869 C   0  0  0  0  0  0  0  0  0  0  0  0
   10.8052    6.2721   -6.1946 C   0  0  0  0  0  0  0  0  0  0  0  0
   11.9856    6.9969   -6.6404 C   0  0  0  0  0  0  0  0  0  0  0  0
   13.0483    7.2404   -5.8453 C   0  0  0  0  0  0  0  0  0  0  0  0
   14.2400    8.0186   -6.3589 C   0  0  0  0  0  0  0  0  0  0  0  0
   15.5558    7.3030   -6.0324 C   0  0  2  0  0  0  0  0  0  0  0  0
   16.4078    7.9290   -6.3470 H   0  0  0  0  0  0  0  0  0  0  0  0
   15.6766    6.0859   -6.7550 O   0  0  0  0  0  0  0  0  0  0  0  0
   15.6320    7.0688   -4.5196 C   0  0  0  0  0  0  0  0  0  0  0  0
   14.4437    6.2525   -4.0032 C   0  0  1  0  0  0  0  0  0  0  0  0
   14.4920    5.2639   -4.5012 H   0  0  0  0  0  0  0  0  0  0  0  0
   14.5266    6.0819   -2.5951 O   0  0  0  0  0  0  0  0  0  0  0  0
   13.0410    6.8457   -4.3566 C   0  0  1  0  0  0  0  0  0  0  0  0
   12.7957    8.1538   -3.5602 C   0  0  0  0  0  0  0  0  0  0  0  0
   11.9478    5.7411   -4.0278 C   0  0  1  0  0  0  0  0  0  0  0  0
   12.4525    4.7619   -4.1660 H   0  0  0  0  0  0  0  0  0  0  0  0
   11.4776    5.7641   -2.5480 C   0  0  0  0  0  0  0  0  0  0  0  0
   10.3746    4.7500   -2.2068 C   0  0  0  0  0  0  0  0  0  0  0  0
    9.1489    4.9008   -3.1269 C   0  0  2  0  0  0  0  0  0  0  0  0
    8.4828    6.2809   -2.9482 C   0  0  0  0  0  0  0  0  0  0  0  0
    3.5222   -1.7697   -4.7534 H   0  0  0  0  0  0  0  0  0  0  0  0
    2.9859   -1.2765   -3.1323 H   0  0  0  0  0  0  0  0  0  0  0  0
    4.3796   -2.3682   -3.3218 H   0  0  0  0  0  0  0  0  0  0  0  0
    5.7059   -0.5574   -4.3847 H   0  0  0  0  0  0  0  0  0  0  0  0
    3.1848    1.1897   -4.1038 H   0  0  0  0  0  0  0  0  0  0  0  0
    3.8219    0.5169   -5.6222 H   0  0  0  0  0  0  0  0  0  0  0  0
    4.7532    1.7439   -4.7272 H   0  0  0  0  0  0  0  0  0  0  0  0
    5.2083   -1.7071   -1.3734 H   0  0  0  0  0  0  0  0  0  0  0  0
    6.2682   -0.4939   -0.6238 H   0  0  0  0  0  0  0  0  0  0  0  0
    6.7833   -1.3238   -2.1098 H   0  0  0  0  0  0  0  0  0  0  0  0
    7.1569    1.1667   -3.0874 H   0  0  0  0  0  0  0  0  0  0  0  0
    5.1310    2.7710   -1.4295 H   0  0  0  0  0  0  0  0  0  0  0  0
    6.8109    3.7577    0.2264 H   0  0  0  0  0  0  0  0  0  0  0  0
    8.1392    4.7889   -0.3353 H   0  0  0  0  0  0  0  0  0  0  0  0
    8.3183    3.0136   -0.3449 H   0  0  0  0  0  0  0  0  0  0  0  0
    6.4572    4.2523   -4.4717 H   0  0  0  0  0  0  0  0  0  0  0  0
    7.2757    2.7522   -4.8717 H   0  0  0  0  0  0  0  0  0  0  0  0
    8.0020    5.5330   -5.7057 H   0  0  0  0  0  0  0  0  0  0  0  0
    8.6176    4.0168   -6.3734 H   0  0  0  0  0  0  0  0  0  0  0  0
    9.9782    6.1568   -6.8992 H   0  0  0  0  0  0  0  0  0  0  0  0
   12.0019    7.3591   -7.6737 H   0  0  0  0  0  0  0  0  0  0  0  0
   14.2727    9.0246   -5.9029 H   0  0  0  0  0  0  0  0  0  0  0  0
   14.1547    8.1664   -7.4469 H   0  0  0  0  0  0  0  0  0  0  0  0
   14.7877    5.7200   -6.8704 H   0  0  0  0  0  0  0  0  0  0  0  0
   15.6801    8.0348   -3.9894 H   0  0  0  0  0  0  0  0  0  0  0  0
   16.5638    6.5237   -4.2868 H   0  0  0  0  0  0  0  0  0  0  0  0
   15.3901    5.7010   -2.3892 H   0  0  0  0  0  0  0  0  0  0  0  0
   13.4832    8.9506   -3.8777 H   0  0  0  0  0  0  0  0  0  0  0  0
   12.9470    8.0042   -2.4841 H   0  0  0  0  0  0  0  0  0  0  0  0
   11.7720    8.5193   -3.7317 H   0  0  0  0  0  0  0  0  0  0  0  0
   11.1042    6.7679   -2.3007 H   0  0  0  0  0  0  0  0  0  0  0  0
   12.3510    5.5955   -1.9052 H   0  0  0  0  0  0  0  0  0  0  0  0
   10.1059    4.8755   -1.1469 H   0  0  0  0  0  0  0  0  0  0  0  0
   10.7651    3.7206   -2.3072 H   0  0  0  0  0  0  0  0  0  0  0  0
    9.1333    7.0968   -3.2960 H   0  0  0  0  0  0  0  0  0  0  0  0
    8.2458    6.4748   -1.8904 H   0  0  0  0  0  0  0  0  0  0  0  0
    7.5419    6.3620   -3.5128 H   0  0  0  0  0  0  0  0  0  0  0  0
  1  2  1  0
  1 38  1  0
  1 39  1  0
  1 40  1  0
  2  3  1  0
  2  4  1  0
  2 41  1  6
  3 42  1  0
  3 43  1  0
  3 44  1  0
  4  5  1  1
  4  6  1  0
  4  7  1  0
  6 45  1  0
  6 46  1  0
  6 47  1  0
  7  8  2  0
  7 48  1  0
  8  9  1  0
  8 49  1  0
  9 10  1  6
  9 11  1  0
  9 12  1  0
 11 50  1  0
 11 51  1  0
 11 52  1  0
 12 13  1  6
 12 14  1  0
 12 36  1  0
 14 15  1  0
 14 53  1  0
 14 54  1  0
 15 16  1  0
 15 55  1  0
 15 56  1  0
 16 17  1  1
 16 18  1  0
 16 36  1  0
 18 19  2  0
 18 32  1  0
 19 20  1  0
 19 57  1  0
 20 21  2  0
 20 58  1  0
 21 22  1  0
 21 30  1  0
 22 23  1  0
 22 59  1  0
 22 60  1  0
 23 24  1  6
 23 25  1  0
 23 26  1  0
 25 61  1  0
 26 27  1  0
 26 62  1  0
 26 63  1  0
 27 28  1  6
 27 29  1  0
 27 30  1  0
 29 64  1  0
 30 31  1  1
 30 32  1  0
 31 65  1  0
 31 66  1  0
 31 67  1  0
 32 33  1  1
 32 34  1  0
 34 35  1  0
 34 68  1  0
 34 69  1  0
 35 36  1  0
 35 70  1  0
 35 71  1  0
 36 37  1  6
 37 72  1  0
 37 73  1  0
 37 74  1  0
M  END

