
     RDKit          3D

 25 26  0  0  0  0  0  0  0  0999 V2000
    1.1232    0.0017   -0.0173 C   0  0  0  0  0  0  0  0  0  0  0  0
    2.5706    0.0641   -0.0238 N   0  0  0  0  0  0  0  0  0  0  0  0
    3.3557    1.2155   -0.0647 C   0  0  0  0  0  0  0  0  0  0  0  0
    2.7726    2.5113   -0.1024 C   0  0  0  0  0  0  0  0  0  0  0  0
    2.2852    3.5667   -0.1325 N   0  0  0  0  0  0  0  0  0  0  0  0
    4.6986    0.8755   -0.0617 C   0  0  0  0  0  0  0  0  0  0  0  0
    4.7564   -0.5478   -0.0160 C   0  0  0  0  0  0  0  0  0  0  0  0
    5.8067   -1.4894    0.0104 C   0  0  0  0  0  0  0  0  0  0  0  0
    7.4537   -0.8863   -0.0370 Cl  0  0  0  0  0  0  0  0  0  0  0  0
    5.5420   -2.8575    0.0589 C   0  0  0  0  0  0  0  0  0  0  0  0
    6.6637   -3.8844    0.0700 C   0  0  0  0  0  0  0  0  0  0  0  0
    6.2079   -5.2097    0.4715 N   0  0  0  0  0  0  0  0  0  0  0  0
    4.1867   -3.2802    0.0714 C   0  0  0  0  0  0  0  0  0  0  0  0
    3.1179   -2.3948    0.0476 C   0  0  0  0  0  0  0  0  0  0  0  0
    3.4129   -1.0229    0.0057 C   0  0  0  0  0  0  0  0  0  0  0  0
    0.7148    1.0201   -0.0454 H   0  0  0  0  0  0  0  0  0  0  0  0
    0.7565   -0.4978    0.8940 H   0  0  0  0  0  0  0  0  0  0  0  0
    0.7504   -0.5496   -0.8958 H   0  0  0  0  0  0  0  0  0  0  0  0
    5.5331    1.5706   -0.0890 H   0  0  0  0  0  0  0  0  0  0  0  0
    7.4937   -3.4832    0.6840 H   0  0  0  0  0  0  0  0  0  0  0  0
    7.0725   -3.9613   -0.9541 H   0  0  0  0  0  0  0  0  0  0  0  0
    6.0514   -5.2447    1.4795 H   0  0  0  0  0  0  0  0  0  0  0  0
    6.9212   -5.9062    0.2633 H   0  0  0  0  0  0  0  0  0  0  0  0
    4.0125   -4.3572    0.0998 H   0  0  0  0  0  0  0  0  0  0  0  0
    2.0895   -2.7605    0.0588 H   0  0  0  0  0  0  0  0  0  0  0  0
  1  2  1  0
  1 16  1  0
  1 17  1  0
  1 18  1  0
  2  3  1  0
  2 15  1  0
  3  4  1  0
  3  6  2  0
  4  5  3  0
  6  7  1  0
  6 19  1  0
  7  8  1  0
  7 15  2  0
  8  9  1  0
  8 10  2  0
 10 11  1  0
 10 13  1  0
 11 12  1  0
 11 20  1  0
 11 21  1  0
 12 22  1  0
 12 23  1  0
 13 14  2  0
 13 24  1  0
 14 15  1  0
 14 25  1  0
M  END

