
     RDKit          3D

105113  0  0  0  0  0  0  0  0999 V2000
   -0.3715   -1.6233   -3.7264 C   0  0  0  0  0  0  0  0  0  0  0  0
    0.7097   -1.0317   -2.8209 C   0  0  0  0  0  0  0  0  0  0  0  0
    2.1060   -1.5953   -3.1008 C   0  0  0  0  0  0  0  0  0  0  0  0
    3.1766   -0.9914   -2.1852 C   0  0  0  0  0  0  0  0  0  0  0  0
    4.5203   -1.5173   -2.4416 N   0  0  0  0  0  0  0  0  0  0  0  0
    5.3765   -1.1327   -3.4562 C   0  0  0  0  0  0  0  0  0  0  0  0
    5.2807    0.1083   -4.2464 C   0  0  0  0  0  0  0  0  0  0  0  0
    4.9545    1.3596   -3.6844 C   0  0  0  0  0  0  0  0  0  0  0  0
    4.9167    2.5090   -4.4670 C   0  0  0  0  0  0  0  0  0  0  0  0
    5.2169    2.4432   -5.8399 C   0  0  0  0  0  0  0  0  0  0  0  0
    5.1639    3.6594   -6.6400 C   0  0  0  0  0  0  0  0  0  0  0  0
    4.8469    4.8654   -6.2615 N   0  0  0  0  0  0  0  0  0  0  0  0
    4.9420    5.6717   -7.3679 N   0  0  0  0  0  0  0  0  0  0  0  0
    5.3107    4.9135   -8.3618 C   0  0  0  0  0  0  0  0  0  0  0  0
    5.5494    5.2895   -9.7483 C   0  0  0  0  0  0  0  0  0  0  0  0
    5.9557    4.3466  -10.7102 C   0  0  0  0  0  0  0  0  0  0  0  0
    6.1815    4.7368  -12.0256 C   0  0  0  0  0  0  0  0  0  0  0  0
    6.0176    6.0786  -12.4260 C   0  0  0  0  0  0  0  0  0  0  0  0
    6.2346    6.4060  -13.8464 C   0  0  0  0  0  0  0  0  0  0  0  0
    5.9879    5.5397  -14.8106 N   0  0  0  0  0  0  0  0  0  0  0  0
    6.2586    6.1615  -15.9986 C   0  0  0  0  0  0  0  0  0  0  0  0
    6.0304    5.4572  -17.2768 C   0  0  0  0  0  0  0  0  0  0  0  0
    5.8258    6.1301  -18.4965 C   0  0  0  0  0  0  0  0  0  0  0  0
    5.6047    5.4174  -19.6772 C   0  0  0  0  0  0  0  0  0  0  0  0
    5.5767    4.0199  -19.6666 C   0  0  0  0  0  0  0  0  0  0  0  0
    5.7629    3.3402  -18.4582 C   0  0  0  0  0  0  0  0  0  0  0  0
    5.9833    4.0493  -17.2774 C   0  0  0  0  0  0  0  0  0  0  0  0
    6.7122    7.4582  -15.7478 C   0  0  0  0  0  0  0  0  0  0  0  0
    7.1654    8.5275  -16.6645 C   0  0  0  0  0  0  0  0  0  0  0  0
    6.4785    9.7542  -16.7489 C   0  0  0  0  0  0  0  0  0  0  0  0
    6.9078   10.7554  -17.6240 C   0  0  0  0  0  0  0  0  0  0  0  0
    8.0270   10.5465  -18.4355 C   0  0  0  0  0  0  0  0  0  0  0  0
    8.7150    9.3309  -18.3656 C   0  0  0  0  0  0  0  0  0  0  0  0
    8.2909    8.3319  -17.4867 C   0  0  0  0  0  0  0  0  0  0  0  0
    6.6871    7.6070  -14.3630 N   0  0  0  0  0  0  0  0  0  0  0  0
    7.3234    8.7122  -13.6343 C   0  0  0  0  0  0  0  0  0  0  0  0
    8.6133    8.3273  -12.8983 C   0  0  0  0  0  0  0  0  0  0  0  0
    9.7342    7.8003  -13.7994 C   0  0  0  0  0  0  0  0  0  0  0  0
   11.0113    7.4676  -13.0263 C   0  0  0  0  0  0  0  0  0  0  0  0
    5.5884    7.0109  -11.4595 C   0  0  0  0  0  0  0  0  0  0  0  0
    5.3613    6.6266  -10.1420 C   0  0  0  0  0  0  0  0  0  0  0  0
    5.4696    3.6200   -7.9664 O   0  0  0  0  0  0  0  0  0  0  0  0
    5.5713    1.2042   -6.4036 C   0  0  0  0  0  0  0  0  0  0  0  0
    5.6053    0.0578   -5.6160 C   0  0  0  0  0  0  0  0  0  0  0  0
    6.3296   -2.0240   -3.6385 N   0  0  0  0  0  0  0  0  0  0  0  0
    6.1252   -3.0281   -2.7277 C   0  0  0  0  0  0  0  0  0  0  0  0
    7.0680   -4.1617   -2.6474 C   0  0  0  0  0  0  0  0  0  0  0  0
    7.1963   -4.9721   -1.5031 C   0  0  0  0  0  0  0  0  0  0  0  0
    8.1082   -6.0297   -1.4755 C   0  0  0  0  0  0  0  0  0  0  0  0
    8.9158   -6.2982   -2.5844 C   0  0  0  0  0  0  0  0  0  0  0  0
    8.8089   -5.4901   -3.7214 C   0  0  0  0  0  0  0  0  0  0  0  0
    7.8995   -4.4330   -3.7519 C   0  0  0  0  0  0  0  0  0  0  0  0
    4.9851   -2.7436   -1.9743 C   0  0  0  0  0  0  0  0  0  0  0  0
    4.2927   -3.5001   -0.9076 C   0  0  0  0  0  0  0  0  0  0  0  0
    4.1728   -2.9775    0.3946 C   0  0  0  0  0  0  0  0  0  0  0  0
    3.5190   -3.6986    1.3971 C   0  0  0  0  0  0  0  0  0  0  0  0
    2.9794   -4.9580    1.1184 C   0  0  0  0  0  0  0  0  0  0  0  0
    3.0970   -5.4916   -0.1689 C   0  0  0  0  0  0  0  0  0  0  0  0
    3.7443   -4.7690   -1.1735 C   0  0  0  0  0  0  0  0  0  0  0  0
   -1.3622   -1.1983   -3.5006 H   0  0  0  0  0  0  0  0  0  0  0  0
   -0.4419   -2.7169   -3.6041 H   0  0  0  0  0  0  0  0  0  0  0  0
   -0.1573   -1.4229   -4.7893 H   0  0  0  0  0  0  0  0  0  0  0  0
    0.4470   -1.2168   -1.7634 H   0  0  0  0  0  0  0  0  0  0  0  0
    0.7287    0.0670   -2.9394 H   0  0  0  0  0  0  0  0  0  0  0  0
    2.3831   -1.4033   -4.1522 H   0  0  0  0  0  0  0  0  0  0  0  0
    2.0988   -2.6915   -2.9730 H   0  0  0  0  0  0  0  0  0  0  0  0
    2.9299   -1.1896   -1.1330 H   0  0  0  0  0  0  0  0  0  0  0  0
    3.1992    0.0981   -2.3066 H   0  0  0  0  0  0  0  0  0  0  0  0
    4.7672    1.4459   -2.6126 H   0  0  0  0  0  0  0  0  0  0  0  0
    4.6702    3.4766   -4.0265 H   0  0  0  0  0  0  0  0  0  0  0  0
    6.0963    3.3038  -10.4202 H   0  0  0  0  0  0  0  0  0  0  0  0
    6.4872    4.0052  -12.7744 H   0  0  0  0  0  0  0  0  0  0  0  0
    5.8208    7.2202  -18.5239 H   0  0  0  0  0  0  0  0  0  0  0  0
    5.4443    5.9614  -20.6120 H   0  0  0  0  0  0  0  0  0  0  0  0
    5.4031    3.4645  -20.5920 H   0  0  0  0  0  0  0  0  0  0  0  0
    5.7343    2.2473  -18.4352 H   0  0  0  0  0  0  0  0  0  0  0  0
    6.1176    3.5245  -16.3304 H   0  0  0  0  0  0  0  0  0  0  0  0
    5.5900    9.9147  -16.1330 H   0  0  0  0  0  0  0  0  0  0  0  0
    6.3596   11.6995  -17.6782 H   0  0  0  0  0  0  0  0  0  0  0  0
    8.3607   11.3283  -19.1225 H   0  0  0  0  0  0  0  0  0  0  0  0
    9.5903    9.1599  -18.9974 H   0  0  0  0  0  0  0  0  0  0  0  0
    8.8306    7.3840  -17.4328 H   0  0  0  0  0  0  0  0  0  0  0  0
    6.6021    9.1489  -12.9298 H   0  0  0  0  0  0  0  0  0  0  0  0
    7.5416    9.4918  -14.3753 H   0  0  0  0  0  0  0  0  0  0  0  0
    8.3875    7.5878  -12.1121 H   0  0  0  0  0  0  0  0  0  0  0  0
    8.9604    9.2332  -12.3692 H   0  0  0  0  0  0  0  0  0  0  0  0
    9.9561    8.5471  -14.5826 H   0  0  0  0  0  0  0  0  0  0  0  0
    9.3834    6.8992  -14.3319 H   0  0  0  0  0  0  0  0  0  0  0  0
   11.4128    8.3557  -12.5100 H   0  0  0  0  0  0  0  0  0  0  0  0
   11.7991    7.0878  -13.6959 H   0  0  0  0  0  0  0  0  0  0  0  0
   10.8261    6.6967  -12.2598 H   0  0  0  0  0  0  0  0  0  0  0  0
    5.3942    8.0461  -11.7404 H   0  0  0  0  0  0  0  0  0  0  0  0
    5.0231    7.3524   -9.4005 H   0  0  0  0  0  0  0  0  0  0  0  0
    5.8183    1.1436   -7.4650 H   0  0  0  0  0  0  0  0  0  0  0  0
    5.8883   -0.9021   -6.0504 H   0  0  0  0  0  0  0  0  0  0  0  0
    6.5923   -4.7667   -0.6187 H   0  0  0  0  0  0  0  0  0  0  0  0
    8.1932   -6.6435   -0.5746 H   0  0  0  0  0  0  0  0  0  0  0  0
    9.6292   -7.1261   -2.5600 H   0  0  0  0  0  0  0  0  0  0  0  0
    9.4416   -5.6842   -4.5918 H   0  0  0  0  0  0  0  0  0  0  0  0
    7.8199   -3.7919   -4.6311 H   0  0  0  0  0  0  0  0  0  0  0  0
    4.6148   -2.0046    0.6246 H   0  0  0  0  0  0  0  0  0  0  0  0
    3.4397   -3.2785    2.4031 H   0  0  0  0  0  0  0  0  0  0  0  0
    2.4715   -5.5237    1.9036 H   0  0  0  0  0  0  0  0  0  0  0  0
    2.6795   -6.4764   -0.3938 H   0  0  0  0  0  0  0  0  0  0  0  0
    3.8351   -5.1877   -2.1784 H   0  0  0  0  0  0  0  0  0  0  0  0
  1  2  1  0
  1 60  1  0
  1 61  1  0
  1 62  1  0
  2  3  1  0
  2 63  1  0
  2 64  1  0
  3  4  1  0
  3 65  1  0
  3 66  1  0
  4  5  1  0
  4 67  1  0
  4 68  1  0
  5  6  1  0
  5 53  1  0
  6  7  1  0
  6 45  2  0
  7  8  2  0
  7 44  1  0
  8  9  1  0
  8 69  1  0
  9 10  2  0
  9 70  1  0
 10 11  1  0
 10 43  1  0
 11 12  2  0
 11 42  1  0
 12 13  1  0
 13 14  2  0
 14 15  1  0
 14 42  1  0
 15 16  2  0
 15 41  1  0
 16 17  1  0
 16 71  1  0
 17 18  2  0
 17 72  1  0
 18 19  1  0
 18 40  1  0
 19 20  2  0
 19 35  1  0
 20 21  1  0
 21 22  1  0
 21 28  2  0
 22 23  2  0
 22 27  1  0
 23 24  1  0
 23 73  1  0
 24 25  2  0
 24 74  1  0
 25 26  1  0
 25 75  1  0
 26 27  2  0
 26 76  1  0
 27 77  1  0
 28 29  1  0
 28 35  1  0
 29 30  2  0
 29 34  1  0
 30 31  1  0
 30 78  1  0
 31 32  2  0
 31 79  1  0
 32 33  1  0
 32 80  1  0
 33 34  2  0
 33 81  1  0
 34 82  1  0
 35 36  1  0
 36 37  1  0
 36 83  1  0
 36 84  1  0
 37 38  1  0
 37 85  1  0
 37 86  1  0
 38 39  1  0
 38 87  1  0
 38 88  1  0
 39 89  1  0
 39 90  1  0
 39 91  1  0
 40 41  2  0
 40 92  1  0
 41 93  1  0
 43 44  2  0
 43 94  1  0
 44 95  1  0
 45 46  1  0
 46 47  1  0
 46 53  2  0
 47 48  2  0
 47 52  1  0
 48 49  1  0
 48 96  1  0
 49 50  2  0
 49 97  1  0
 50 51  1  0
 50 98  1  0
 51 52  2  0
 51 99  1  0
 52100  1  0
 53 54  1  0
 54 55  2  0
 54 59  1  0
 55 56  1  0
 55101  1  0
 56 57  2  0
 56102  1  0
 57 58  1  0
 57103  1  0
 58 59  2  0
 58104  1  0
 59105  1  0
M  END

