
     RDKit          3D

 33 34  0  0  0  0  0  0  0  0999 V2000
    0.9228    0.4058    0.2203 C   0  0  0  0  0  0  0  0  0  0  0  0
    2.3938    0.1341    0.0464 C   0  0  0  0  0  0  0  0  0  0  0  0
    3.3094    1.2052    0.0768 C   0  0  0  0  0  0  0  0  0  0  0  0
    4.6242    1.1151   -0.0672 N   0  0  0  0  0  0  0  0  0  0  0  0
    5.1781   -0.0980   -0.2494 C   0  0  0  0  0  0  0  0  0  0  0  0
    6.5360   -0.1302   -0.3763 N   0  0  0  0  0  0  0  0  0  0  0  0
    7.3132   -1.3098   -0.6941 C   0  0  0  0  0  0  0  0  0  0  0  0
    8.8026   -0.9812   -0.6753 C   0  0  0  0  0  0  0  0  0  0  0  0
    9.6997   -2.1632   -0.9851 C   0  0  0  0  0  0  0  0  0  0  0  0
   11.0835   -1.9814   -1.1595 C   0  0  0  0  0  0  0  0  0  0  0  0
   11.8833   -3.0901   -1.4267 C   0  0  0  0  0  0  0  0  0  0  0  0
   11.2823   -4.3496   -1.5160 C   0  0  0  0  0  0  0  0  0  0  0  0
    9.9013   -4.4307   -1.3320 C   0  0  0  0  0  0  0  0  0  0  0  0
    9.1309   -3.3697   -1.0734 N   0  0  0  0  0  0  0  0  0  0  0  0
    4.3809   -1.2629   -0.2955 C   0  0  0  0  0  0  0  0  0  0  0  0
    3.0061   -1.1184   -0.1490 C   0  0  0  0  0  0  0  0  0  0  0  0
    2.2097   -2.3724   -0.2121 N   0  0  0  0  0  0  0  0  0  0  0  0
    1.0032   -2.2744   -0.3694 O   0  0  0  0  0  0  0  0  0  0  0  0
    2.8099   -3.4291   -0.1097 O   0  0  0  0  0  0  0  0  0  0  0  0
    0.7721    1.4647    0.4796 H   0  0  0  0  0  0  0  0  0  0  0  0
    0.4762   -0.2153    1.0108 H   0  0  0  0  0  0  0  0  0  0  0  0
    0.3557    0.1849   -0.6963 H   0  0  0  0  0  0  0  0  0  0  0  0
    2.9134    2.2170    0.2317 H   0  0  0  0  0  0  0  0  0  0  0  0
    6.9703    0.7848   -0.4179 H   0  0  0  0  0  0  0  0  0  0  0  0
    7.0378   -1.7268   -1.6816 H   0  0  0  0  0  0  0  0  0  0  0  0
    7.1115   -2.1131    0.0334 H   0  0  0  0  0  0  0  0  0  0  0  0
    9.0711   -0.5767    0.3181 H   0  0  0  0  0  0  0  0  0  0  0  0
    9.0154   -0.1711   -1.3966 H   0  0  0  0  0  0  0  0  0  0  0  0
   11.5194   -0.9817   -1.0851 H   0  0  0  0  0  0  0  0  0  0  0  0
   12.9616   -2.9752   -1.5655 H   0  0  0  0  0  0  0  0  0  0  0  0
   11.8684   -5.2472   -1.7249 H   0  0  0  0  0  0  0  0  0  0  0  0
    9.3898   -5.3984   -1.3963 H   0  0  0  0  0  0  0  0  0  0  0  0
    4.7991   -2.2571   -0.4331 H   0  0  0  0  0  0  0  0  0  0  0  0
  1  2  1  0
  1 20  1  0
  1 21  1  0
  1 22  1  0
  2  3  2  0
  2 16  1  0
  3  4  1  0
  3 23  1  0
  4  5  2  0
  5  6  1  0
  5 15  1  0
  6  7  1  0
  6 24  1  0
  7  8  1  0
  7 25  1  0
  7 26  1  0
  8  9  1  0
  8 27  1  0
  8 28  1  0
  9 10  2  0
  9 14  1  0
 10 11  1  0
 10 29  1  0
 11 12  2  0
 11 30  1  0
 12 13  1  0
 12 31  1  0
 13 14  2  0
 13 32  1  0
 15 16  2  0
 15 33  1  0
 16 17  1  0
 17 18  2  0
 17 19  1  0
M  CHG  2  17   1  19  -1
M  END

