
     RDKit          3D

 44 46  0  0  0  0  0  0  0  0999 V2000
    3.1266    0.2635   -2.2096 C   0  0  0  0  0  0  0  0  0  0  0  0
    3.8843    0.2431   -1.0135 O   0  0  0  0  0  0  0  0  0  0  0  0
    3.8514    1.2987   -0.1817 C   0  0  0  0  0  0  0  0  0  0  0  0
    3.1851    2.5078   -0.4329 C   0  0  0  0  0  0  0  0  0  0  0  0
    3.2353    3.5421    0.5071 C   0  0  0  0  0  0  0  0  0  0  0  0
    3.9434    3.3994    1.7022 C   0  0  0  0  0  0  0  0  0  0  0  0
    4.6038    2.1962    1.9636 C   0  0  0  0  0  0  0  0  0  0  0  0
    4.5636    1.1551    1.0337 C   0  0  0  0  0  0  0  0  0  0  0  0
    5.2379   -0.0902    1.2905 N   0  0  0  0  0  0  0  0  0  0  0  0
    6.5470   -0.2450    0.8474 C   0  0  0  0  0  0  0  0  0  0  0  0
    7.1144    0.8301    0.2930 O   0  0  0  0  0  0  0  0  0  0  0  0
    7.2536   -1.4239    0.9655 C   0  0  0  0  0  0  0  0  0  0  0  0
    8.6282   -1.4753    0.4843 C   0  0  0  0  0  0  0  0  0  0  0  0
    9.3594   -2.5307    0.4866 N   0  0  0  0  0  0  0  0  0  0  0  0
   10.6151   -2.3915    0.0173 N   0  0  0  0  0  0  0  0  0  0  0  0
   11.4674   -3.4780   -0.1305 C   0  0  0  0  0  0  0  0  0  0  0  0
   11.1372   -4.6238    0.0831 O   0  0  0  0  0  0  0  0  0  0  0  0
   12.8513   -3.1142   -0.6104 C   0  0  0  0  0  0  0  0  0  0  0  0
   13.4514   -1.8612   -0.4013 C   0  0  0  0  0  0  0  0  0  0  0  0
   14.7492   -1.6126   -0.8570 C   0  0  0  0  0  0  0  0  0  0  0  0
   15.4608   -2.6131   -1.5249 C   0  0  0  0  0  0  0  0  0  0  0  0
   14.8754   -3.8688   -1.7236 C   0  0  0  0  0  0  0  0  0  0  0  0
   13.5835   -4.1197   -1.2619 C   0  0  0  0  0  0  0  0  0  0  0  0
    6.5795   -2.5708    1.5826 C   0  0  0  0  0  0  0  0  0  0  0  0
    7.0267   -3.6764    1.7789 O   0  0  0  0  0  0  0  0  0  0  0  0
    5.2453   -2.2917    1.9841 N   0  0  0  0  0  0  0  0  0  0  0  0
    4.7598   -3.0764    2.4123 H   0  0  0  0  0  0  0  0  0  0  0  0
    4.5244   -1.1439    1.8712 C   0  0  0  0  0  0  0  0  0  0  0  0
    2.9519   -1.0060    2.3849 S   0  0  0  0  0  0  0  0  0  0  0  0
    3.2864   -0.7094   -2.6911 H   0  0  0  0  0  0  0  0  0  0  0  0
    3.4649    1.0634   -2.8911 H   0  0  0  0  0  0  0  0  0  0  0  0
    2.0511    0.3920   -2.0003 H   0  0  0  0  0  0  0  0  0  0  0  0
    2.6228    2.6458   -1.3563 H   0  0  0  0  0  0  0  0  0  0  0  0
    2.7086    4.4758    0.2946 H   0  0  0  0  0  0  0  0  0  0  0  0
    3.9725    4.2109    2.4315 H   0  0  0  0  0  0  0  0  0  0  0  0
    5.1445    2.0427    2.8997 H   0  0  0  0  0  0  0  0  0  0  0  0
    6.4887    1.5760    0.3043 H   0  0  0  0  0  0  0  0  0  0  0  0
    9.0264   -0.5193    0.0977 H   0  0  0  0  0  0  0  0  0  0  0  0
   10.9164   -1.4811   -0.3370 H   0  0  0  0  0  0  0  0  0  0  0  0
   12.9248   -1.0781    0.1504 H   0  0  0  0  0  0  0  0  0  0  0  0
   15.2093   -0.6371   -0.6797 H   0  0  0  0  0  0  0  0  0  0  0  0
   16.4751   -2.4176   -1.8824 H   0  0  0  0  0  0  0  0  0  0  0  0
   15.4323   -4.6567   -2.2371 H   0  0  0  0  0  0  0  0  0  0  0  0
   13.1142   -5.0971   -1.3900 H   0  0  0  0  0  0  0  0  0  0  0  0
  1  2  1  0
  1 30  1  0
  1 31  1  0
  1 32  1  0
  2  3  1  0
  3  4  2  0
  3  8  1  0
  4  5  1  0
  4 33  1  0
  5  6  2  0
  5 34  1  0
  6  7  1  0
  6 35  1  0
  7  8  2  0
  7 36  1  0
  8  9  1  0
  9 10  1  0
  9 28  1  0
 10 11  1  0
 10 12  2  0
 11 37  1  0
 12 13  1  0
 12 24  1  0
 13 14  2  0
 13 38  1  0
 14 15  1  0
 15 16  1  0
 15 39  1  0
 16 17  2  0
 16 18  1  0
 18 19  2  0
 18 23  1  0
 19 20  1  0
 19 40  1  0
 20 21  2  0
 20 41  1  0
 21 22  1  0
 21 42  1  0
 22 23  2  0
 22 43  1  0
 23 44  1  0
 24 25  2  0
 24 26  1  0
 26 27  1  0
 26 28  1  0
 28 29  2  0
M  END

