
     RDKit          3D

 39 40  0  0  0  0  0  0  0  0999 V2000
    1.5959    0.9909    0.8095 C   0  0  0  0  0  0  0  0  0  0  0  0
    1.4074   -0.3290    0.3194 O   0  0  0  0  0  0  0  0  0  0  0  0
    2.2490   -1.2817    0.8119 C   0  0  0  0  0  0  0  0  0  0  0  0
    3.4682   -1.5437    0.1722 C   0  0  0  0  0  0  0  0  0  0  0  0
    4.3201   -2.5476    0.6322 C   0  0  0  0  0  0  0  0  0  0  0  0
    3.9807   -3.3257    1.7504 C   0  0  0  0  0  0  0  0  0  0  0  0
    4.8813   -4.4438    2.2264 C   0  0  0  0  0  0  0  0  0  0  0  0
    4.5775   -5.7887    1.5480 C   0  0  0  0  0  0  0  0  0  0  0  0
    5.5961   -6.8649    1.9185 C   0  0  0  0  0  0  0  0  0  0  0  0
    6.7518   -6.6098    2.1933 O   0  0  0  0  0  0  0  0  0  0  0  0
    5.0978   -8.1525    1.8830 N   0  0  0  0  0  0  0  0  0  0  0  0
    5.8387   -9.3133    2.1130 C   0  0  0  0  0  0  0  0  0  0  0  0
    7.1734   -9.5233    2.4246 C   0  0  0  0  0  0  0  0  0  0  0  0
    7.2873  -10.9372    2.5284 C   0  0  0  0  0  0  0  0  0  0  0  0
    8.5116  -11.7395    2.8480 C   0  0  0  0  0  0  0  0  0  0  0  0
    6.1235  -11.5371    2.3003 N   0  0  0  0  0  0  0  0  0  0  0  0
    5.2409  -10.5408    2.0480 N   0  0  0  0  0  0  0  0  0  0  0  0
    3.8621  -10.8516    1.7532 C   0  0  0  0  0  0  0  0  0  0  0  0
    2.7614   -3.0649    2.3933 C   0  0  0  0  0  0  0  0  0  0  0  0
    1.9098   -2.0574    1.9341 C   0  0  0  0  0  0  0  0  0  0  0  0
    0.2563   -1.7449    2.8290 Br  0  0  0  0  0  0  0  0  0  0  0  0
    0.8590    1.6281    0.3014 H   0  0  0  0  0  0  0  0  0  0  0  0
    2.6115    1.3638    0.5841 H   0  0  0  0  0  0  0  0  0  0  0  0
    1.4278    1.0463    1.8992 H   0  0  0  0  0  0  0  0  0  0  0  0
    3.7267   -0.9440   -0.7038 H   0  0  0  0  0  0  0  0  0  0  0  0
    5.2666   -2.7286    0.1151 H   0  0  0  0  0  0  0  0  0  0  0  0
    4.7885   -4.5630    3.3181 H   0  0  0  0  0  0  0  0  0  0  0  0
    5.9359   -4.1985    2.0319 H   0  0  0  0  0  0  0  0  0  0  0  0
    4.6182   -5.6638    0.4505 H   0  0  0  0  0  0  0  0  0  0  0  0
    3.5510   -6.1198    1.7804 H   0  0  0  0  0  0  0  0  0  0  0  0
    4.1191   -8.2652    1.6486 H   0  0  0  0  0  0  0  0  0  0  0  0
    7.9302   -8.7582    2.5549 H   0  0  0  0  0  0  0  0  0  0  0  0
    9.3100  -11.5685    2.1071 H   0  0  0  0  0  0  0  0  0  0  0  0
    8.2647  -12.8104    2.8518 H   0  0  0  0  0  0  0  0  0  0  0  0
    8.9216  -11.4726    3.8361 H   0  0  0  0  0  0  0  0  0  0  0  0
    3.7607  -11.9416    1.8143 H   0  0  0  0  0  0  0  0  0  0  0  0
    3.5760  -10.5290    0.7366 H   0  0  0  0  0  0  0  0  0  0  0  0
    3.1739  -10.3936    2.4851 H   0  0  0  0  0  0  0  0  0  0  0  0
    2.4679   -3.6486    3.2688 H   0  0  0  0  0  0  0  0  0  0  0  0
  1  2  1  0
  1 22  1  0
  1 23  1  0
  1 24  1  0
  2  3  1  0
  3  4  2  0
  3 20  1  0
  4  5  1  0
  4 25  1  0
  5  6  2  0
  5 26  1  0
  6  7  1  0
  6 19  1  0
  7  8  1  0
  7 27  1  0
  7 28  1  0
  8  9  1  0
  8 29  1  0
  8 30  1  0
  9 10  2  0
  9 11  1  0
 11 12  1  0
 11 31  1  0
 12 13  2  0
 12 17  1  0
 13 14  1  0
 13 32  1  0
 14 15  1  0
 14 16  2  0
 15 33  1  0
 15 34  1  0
 15 35  1  0
 16 17  1  0
 17 18  1  0
 18 36  1  0
 18 37  1  0
 18 38  1  0
 19 20  2  0
 19 39  1  0
 20 21  1  0
M  END

