
     RDKit          3D

 33 33  0  0  0  0  0  0  0  0999 V2000
    1.3544   -0.0386    0.1033 C   0  0  0  0  0  0  0  0  0  0  0  0
    2.7358    0.3720    0.1675 N   0  0  0  0  0  0  0  0  0  0  0  0
    3.4055    0.0618    1.1996 C   0  0  0  0  0  0  0  0  0  0  0  0
    4.7494    0.4177    1.3337 N   0  0  0  0  0  0  0  0  0  0  0  0
    5.3508    1.2192    0.2730 C   0  0  0  0  0  0  0  0  0  0  0  0
    5.3984    0.0873    2.5276 C   0  0  0  0  0  0  0  0  0  0  0  0
    4.8033   -0.2959    3.5086 O   0  0  0  0  0  0  0  0  0  0  0  0
    6.8183    0.1862    2.4663 N   0  0  0  0  0  0  0  0  0  0  0  0
    7.5468   -0.6671    1.5270 C   0  0  0  0  0  0  0  0  0  0  0  0
    7.4814    0.7997    3.5347 C   0  0  0  0  0  0  0  0  0  0  0  0
    6.9091    1.7385    4.1889 N   0  0  0  0  0  0  0  0  0  0  0  0
    7.6279    2.2575    5.3334 C   0  0  0  0  0  0  0  0  0  0  0  0
    8.5736    1.2224    5.9557 C   0  0  0  0  0  0  0  0  0  0  0  0
    9.3595    0.5654    4.8420 C   0  0  0  0  0  0  0  0  0  0  0  0
   10.7824    0.1581    5.0794 C   0  0  0  0  0  0  0  0  0  0  0  0
    8.8106    0.3510    3.7019 N   0  0  0  0  0  0  0  0  0  0  0  0
    1.1890   -0.6648   -0.7909 H   0  0  0  0  0  0  0  0  0  0  0  0
    0.7046    0.8461   -0.0152 H   0  0  0  0  0  0  0  0  0  0  0  0
    1.0061   -0.6054    0.9914 H   0  0  0  0  0  0  0  0  0  0  0  0
    3.0205   -0.4964    2.0685 H   0  0  0  0  0  0  0  0  0  0  0  0
    4.6366    1.9979   -0.0278 H   0  0  0  0  0  0  0  0  0  0  0  0
    5.5673    0.6121   -0.6211 H   0  0  0  0  0  0  0  0  0  0  0  0
    6.2732    1.6783    0.6439 H   0  0  0  0  0  0  0  0  0  0  0  0
    6.8523   -1.0079    0.7486 H   0  0  0  0  0  0  0  0  0  0  0  0
    7.9682   -1.5537    2.0263 H   0  0  0  0  0  0  0  0  0  0  0  0
    8.3737   -0.1207    1.0509 H   0  0  0  0  0  0  0  0  0  0  0  0
    6.9026    2.6094    6.0846 H   0  0  0  0  0  0  0  0  0  0  0  0
    8.2022    3.1555    5.0226 H   0  0  0  0  0  0  0  0  0  0  0  0
    7.9836    0.4378    6.4676 H   0  0  0  0  0  0  0  0  0  0  0  0
    9.2405    1.6666    6.7107 H   0  0  0  0  0  0  0  0  0  0  0  0
   11.3987    1.0397    5.3269 H   0  0  0  0  0  0  0  0  0  0  0  0
   11.1948   -0.3402    4.1924 H   0  0  0  0  0  0  0  0  0  0  0  0
   10.8445   -0.5208    5.9477 H   0  0  0  0  0  0  0  0  0  0  0  0
  1  2  1  0
  1 17  1  0
  1 18  1  0
  1 19  1  0
  2  3  2  0
  3  4  1  0
  3 20  1  0
  4  5  1  0
  4  6  1  0
  5 21  1  0
  5 22  1  0
  5 23  1  0
  6  7  2  0
  6  8  1  0
  8  9  1  0
  8 10  1  0
  9 24  1  0
  9 25  1  0
  9 26  1  0
 10 11  2  0
 10 16  1  0
 11 12  1  0
 12 13  1  0
 12 27  1  0
 12 28  1  0
 13 14  1  0
 13 29  1  0
 13 30  1  0
 14 15  1  0
 14 16  2  0
 15 31  1  0
 15 32  1  0
 15 33  1  0
M  END

