
     RDKit          3D

 41 42  0  0  0  0  0  0  0  0999 V2000
    0.4695    0.1684   -0.2929 O   0  0  0  0  0  0  0  0  0  0  0  0
    0.4865   -0.4240   -1.3611 C   0  0  0  0  0  0  0  0  0  0  0  0
    1.1333    0.1700   -2.6116 C   0  0  0  0  0  0  0  0  0  0  0  0
    1.1907    1.6899   -2.5320 C   0  0  0  0  0  0  0  0  0  0  0  0
    2.1996    2.3198   -3.9054 S   0  0  1  0  0  0  0  0  0  0  0  0
    3.5614    1.7795   -3.7417 O   0  0  0  0  0  0  0  0  0  0  0  0
    1.4565    2.0947   -5.1534 O   0  0  0  0  0  0  0  0  0  0  0  0
    2.2787    4.1313   -3.5939 C   0  0  0  0  0  0  0  0  0  0  0  0
    2.9497    4.8112   -4.7488 C   0  0  0  0  0  0  0  0  0  0  0  0
    4.3385    4.7399   -4.9458 C   0  0  0  0  0  0  0  0  0  0  0  0
    4.9384    5.3501   -6.0483 C   0  0  0  0  0  0  0  0  0  0  0  0
    4.1535    6.0403   -6.9783 C   0  0  0  0  0  0  0  0  0  0  0  0
    2.7696    6.1189   -6.8083 C   0  0  0  0  0  0  0  0  0  0  0  0
    2.1913    5.4992   -5.7044 C   0  0  0  0  0  0  0  0  0  0  0  0
    0.8609    5.5819   -5.5397 F   0  0  0  0  0  0  0  0  0  0  0  0
   -0.0570   -1.6626   -1.5302 N   0  0  0  0  0  0  0  0  0  0  0  0
   -0.5853   -2.4221   -0.4053 C   0  0  0  0  0  0  0  0  0  0  0  0
    0.4538   -3.2706    0.3026 C   0  0  0  0  0  0  0  0  0  0  0  0
    1.0319   -2.8372    1.5061 C   0  0  0  0  0  0  0  0  0  0  0  0
    1.9973   -3.5912    2.1747 C   0  0  0  0  0  0  0  0  0  0  0  0
    2.3960   -4.8049    1.6205 C   0  0  0  0  0  0  0  0  0  0  0  0
    3.3188   -5.5438    2.2476 F   0  0  0  0  0  0  0  0  0  0  0  0
    1.8629   -5.2753    0.4227 C   0  0  0  0  0  0  0  0  0  0  0  0
    0.9007   -4.4957   -0.2217 C   0  0  0  0  0  0  0  0  0  0  0  0
    0.2485   -5.0845   -1.7445 Cl  0  0  0  0  0  0  0  0  0  0  0  0
    0.6091   -0.1498   -3.5253 H   0  0  0  0  0  0  0  0  0  0  0  0
    2.1632   -0.2229   -2.6788 H   0  0  0  0  0  0  0  0  0  0  0  0
    1.6557    2.0111   -1.5894 H   0  0  0  0  0  0  0  0  0  0  0  0
    0.1971    2.1521   -2.6255 H   0  0  0  0  0  0  0  0  0  0  0  0
    2.8388    4.2413   -2.6544 H   0  0  0  0  0  0  0  0  0  0  0  0
    1.2435    4.4722   -3.4632 H   0  0  0  0  0  0  0  0  0  0  0  0
    4.9433    4.1817   -4.2282 H   0  0  0  0  0  0  0  0  0  0  0  0
    6.0200    5.2837   -6.1842 H   0  0  0  0  0  0  0  0  0  0  0  0
    4.6186    6.5200   -7.8429 H   0  0  0  0  0  0  0  0  0  0  0  0
    2.1279    6.6476   -7.5155 H   0  0  0  0  0  0  0  0  0  0  0  0
    0.0735   -2.1460   -2.4116 H   0  0  0  0  0  0  0  0  0  0  0  0
   -1.4037   -3.0571   -0.7740 H   0  0  0  0  0  0  0  0  0  0  0  0
   -1.0037   -1.6966    0.3041 H   0  0  0  0  0  0  0  0  0  0  0  0
    0.7188   -1.8742    1.9159 H   0  0  0  0  0  0  0  0  0  0  0  0
    2.4447   -3.2527    3.1107 H   0  0  0  0  0  0  0  0  0  0  0  0
    2.1973   -6.2260    0.0073 H   0  0  0  0  0  0  0  0  0  0  0  0
  1  2  2  0
  2  3  1  0
  2 16  1  0
  3  4  1  0
  3 26  1  0
  3 27  1  0
  5  4  1  1
  4 28  1  0
  4 29  1  0
  5  6  2  0
  5  7  2  0
  5  8  1  0
  8  9  1  0
  8 30  1  0
  8 31  1  0
  9 10  2  0
  9 14  1  0
 10 11  1  0
 10 32  1  0
 11 12  2  0
 11 33  1  0
 12 13  1  0
 12 34  1  0
 13 14  2  0
 13 35  1  0
 14 15  1  0
 16 17  1  0
 16 36  1  0
 17 18  1  0
 17 37  1  0
 17 38  1  0
 18 19  2  0
 18 24  1  0
 19 20  1  0
 19 39  1  0
 20 21  2  0
 20 40  1  0
 21 22  1  0
 21 23  1  0
 23 24  2  0
 23 41  1  0
 24 25  1  0
M  END

