
     RDKit          3D

 65 68  0  0  0  0  0  0  0  0999 V2000
    3.9184    2.6214   -4.6780 C   0  0  0  0  0  0  0  0  0  0  0  0
    4.4776    1.5826   -3.7359 C   0  0  0  0  0  0  0  0  0  0  0  0
    3.9266    1.4002   -2.4528 C   0  0  0  0  0  0  0  0  0  0  0  0
    4.4272    0.4460   -1.5743 C   0  0  0  0  0  0  0  0  0  0  0  0
    5.5087   -0.3675   -1.9544 C   0  0  0  0  0  0  0  0  0  0  0  0
    5.9343   -1.2734   -1.0300 O   0  0  0  0  0  0  0  0  0  0  0  0
    7.0174   -2.1261   -1.3335 C   0  0  0  0  0  0  0  0  0  0  0  0
    7.2242   -3.0205   -0.1121 C   0  0  0  0  0  0  0  0  0  0  0  0
    8.3868   -3.8917   -0.2511 N   0  0  0  0  0  0  0  0  0  0  0  0
    8.1677   -5.2105   -0.6063 C   0  0  0  0  0  0  0  0  0  0  0  0
    7.0594   -5.6589   -0.8320 O   0  0  0  0  0  0  0  0  0  0  0  0
    9.4250   -6.0884   -0.6377 C   0  0  1  0  0  0  0  0  0  0  0  0
    9.2433   -7.3236   -1.4960 C   0  0  0  0  0  0  0  0  0  0  0  0
   10.5498   -5.3611   -1.1351 O   0  0  0  0  0  0  0  0  0  0  0  0
   10.7851   -4.1693   -0.5252 C   0  0  0  0  0  0  0  0  0  0  0  0
   12.1026   -3.7260   -0.4199 C   0  0  0  0  0  0  0  0  0  0  0  0
   12.3720   -2.4818    0.1719 C   0  0  0  0  0  0  0  0  0  0  0  0
   13.6737   -1.9603    0.3106 N   0  0  0  0  0  0  0  0  0  0  0  0
   14.8747   -2.5005   -0.0880 C   0  0  0  0  0  0  0  0  0  0  0  0
   14.9827   -3.5857   -0.6323 O   0  0  0  0  0  0  0  0  0  0  0  0
   16.0772   -1.5972    0.2000 C   0  0  0  0  0  0  0  0  0  0  0  0
   17.4336   -2.2827    0.0251 C   0  0  0  0  0  0  0  0  0  0  0  0
   17.7872   -2.6021   -1.4218 C   0  0  0  0  0  0  0  0  0  0  0  0
   19.1338   -3.0575   -1.4327 O   0  0  0  0  0  0  0  0  0  0  0  0
   19.6991   -3.4591   -2.5885 C   0  0  0  0  0  0  0  0  0  0  0  0
   19.0476   -3.4847   -3.8314 C   0  0  0  0  0  0  0  0  0  0  0  0
   19.7098   -3.9153   -4.9853 C   0  0  0  0  0  0  0  0  0  0  0  0
   21.0391   -4.3263   -4.9073 C   0  0  0  0  0  0  0  0  0  0  0  0
   21.8776   -4.8659   -6.3454 Cl  0  0  0  0  0  0  0  0  0  0  0  0
   21.7139   -4.3114   -3.6820 C   0  0  0  0  0  0  0  0  0  0  0  0
   21.0478   -3.8815   -2.5369 C   0  0  0  0  0  0  0  0  0  0  0  0
   21.8885   -3.8615   -1.0098 Cl  0  0  0  0  0  0  0  0  0  0  0  0
   11.3014   -1.7148    0.6609 C   0  0  0  0  0  0  0  0  0  0  0  0
    9.9875   -2.1692    0.5517 C   0  0  0  0  0  0  0  0  0  0  0  0
    9.7013   -3.4016   -0.0504 C   0  0  0  0  0  0  0  0  0  0  0  0
    6.0729   -0.2046   -3.2254 C   0  0  0  0  0  0  0  0  0  0  0  0
    5.5529    0.7637   -4.0955 C   0  0  0  0  0  0  0  0  0  0  0  0
    2.8609    2.4200   -4.9200 H   0  0  0  0  0  0  0  0  0  0  0  0
    4.4769    2.6488   -5.6256 H   0  0  0  0  0  0  0  0  0  0  0  0
    3.9587    3.6317   -4.2367 H   0  0  0  0  0  0  0  0  0  0  0  0
    3.0835    2.0220   -2.1362 H   0  0  0  0  0  0  0  0  0  0  0  0
    3.9962    0.3064   -0.5806 H   0  0  0  0  0  0  0  0  0  0  0  0
    7.9297   -1.5388   -1.5493 H   0  0  0  0  0  0  0  0  0  0  0  0
    6.7976   -2.7505   -2.2188 H   0  0  0  0  0  0  0  0  0  0  0  0
    6.3474   -3.6662    0.0159 H   0  0  0  0  0  0  0  0  0  0  0  0
    7.3202   -2.3983    0.7893 H   0  0  0  0  0  0  0  0  0  0  0  0
    9.6343   -6.3843    0.4123 H   0  0  0  0  0  0  0  0  0  0  0  0
    9.0614   -7.0377   -2.5425 H   0  0  0  0  0  0  0  0  0  0  0  0
    8.3799   -7.9004   -1.1400 H   0  0  0  0  0  0  0  0  0  0  0  0
   10.1477   -7.9468   -1.4494 H   0  0  0  0  0  0  0  0  0  0  0  0
   12.9062   -4.3502   -0.8008 H   0  0  0  0  0  0  0  0  0  0  0  0
   13.7212   -1.0569    0.7674 H   0  0  0  0  0  0  0  0  0  0  0  0
   15.9907   -1.2096    1.2296 H   0  0  0  0  0  0  0  0  0  0  0  0
   16.0030   -0.7121   -0.4599 H   0  0  0  0  0  0  0  0  0  0  0  0
   17.4626   -3.2149    0.6107 H   0  0  0  0  0  0  0  0  0  0  0  0
   18.2203   -1.6253    0.4285 H   0  0  0  0  0  0  0  0  0  0  0  0
   17.6947   -1.6969   -2.0542 H   0  0  0  0  0  0  0  0  0  0  0  0
   17.1103   -3.3738   -1.8206 H   0  0  0  0  0  0  0  0  0  0  0  0
   18.0068   -3.1707   -3.9086 H   0  0  0  0  0  0  0  0  0  0  0  0
   19.1891   -3.9311   -5.9438 H   0  0  0  0  0  0  0  0  0  0  0  0
   22.7534   -4.6319   -3.6147 H   0  0  0  0  0  0  0  0  0  0  0  0
   11.4912   -0.7453    1.1294 H   0  0  0  0  0  0  0  0  0  0  0  0
    9.1833   -1.5393    0.9311 H   0  0  0  0  0  0  0  0  0  0  0  0
    6.9108   -0.8202   -3.5537 H   0  0  0  0  0  0  0  0  0  0  0  0
    6.0059    0.8760   -5.0849 H   0  0  0  0  0  0  0  0  0  0  0  0
  1  2  1  0
  1 38  1  0
  1 39  1  0
  1 40  1  0
  2  3  2  0
  2 37  1  0
  3  4  1  0
  3 41  1  0
  4  5  2  0
  4 42  1  0
  5  6  1  0
  5 36  1  0
  6  7  1  0
  7  8  1  0
  7 43  1  0
  7 44  1  0
  8  9  1  0
  8 45  1  0
  8 46  1  0
  9 10  1  0
  9 35  1  0
 10 11  2  0
 10 12  1  0
 12 13  1  0
 12 14  1  0
 12 47  1  1
 13 48  1  0
 13 49  1  0
 13 50  1  0
 14 15  1  0
 15 16  2  0
 15 35  1  0
 16 17  1  0
 16 51  1  0
 17 18  1  0
 17 33  2  0
 18 19  1  0
 18 52  1  0
 19 20  2  0
 19 21  1  0
 21 22  1  0
 21 53  1  0
 21 54  1  0
 22 23  1  0
 22 55  1  0
 22 56  1  0
 23 24  1  0
 23 57  1  0
 23 58  1  0
 24 25  1  0
 25 26  2  0
 25 31  1  0
 26 27  1  0
 26 59  1  0
 27 28  2  0
 27 60  1  0
 28 29  1  0
 28 30  1  0
 30 31  2  0
 30 61  1  0
 31 32  1  0
 33 34  1  0
 33 62  1  0
 34 35  2  0
 34 63  1  0
 36 37  2  0
 36 64  1  0
 37 65  1  0
M  END

