
     RDKit          3D

 45 45  0  0  0  0  0  0  0  0999 V2000
    3.4568    0.1041   -3.1924 C   0  0  0  0  0  0  0  0  0  0  0  0
    4.7622   -0.3797   -2.6667 C   0  0  0  0  0  0  0  0  0  0  0  0
    5.9970   -0.5598   -3.2289 C   0  0  0  0  0  0  0  0  0  0  0  0
    6.8555   -1.0466   -2.1870 C   0  0  0  0  0  0  0  0  0  0  0  0
    6.0879   -1.1267   -1.0590 C   0  0  0  0  0  0  0  0  0  0  0  0
    6.3615   -1.5933    0.3348 C   0  0  0  0  0  0  0  0  0  0  0  0
    5.9424   -2.9692    0.6116 N   0  0  0  0  0  0  0  0  0  0  0  0
    4.5266   -3.2544    0.7396 C   0  0  0  0  0  0  0  0  0  0  0  0
    6.9019   -3.9598    0.4796 C   0  0  0  0  0  0  0  0  0  0  0  0
    8.0908   -3.7073    0.3084 O   0  0  0  0  0  0  0  0  0  0  0  0
    6.4536   -5.2596    0.5868 N   0  0  0  0  0  0  0  0  0  0  0  0
    7.3651   -6.3686    0.3465 C   0  0  0  0  0  0  0  0  0  0  0  0
    8.3851   -6.5813    1.4802 C   0  0  1  0  0  0  0  0  0  0  0  0
    7.7618   -6.6913    2.8933 C   0  0  0  0  0  0  0  0  0  0  0  0
    6.6933   -7.7745    3.1430 C   0  0  1  0  0  0  0  0  0  0  0  0
    7.2055   -9.2083    2.9458 C   0  0  0  0  0  0  0  0  0  0  0  0
    6.1019   -7.5971    4.5488 C   0  0  0  0  0  0  0  0  0  0  0  0
    9.3185   -7.7339    1.1138 C   0  0  0  0  0  0  0  0  0  0  0  0
    9.1995   -8.4257    0.1370 O   0  0  0  0  0  0  0  0  0  0  0  0
   10.3480   -7.9458    1.9680 O   0  0  0  0  0  0  0  0  0  0  0  0
    4.8113   -0.7239   -1.3472 O   0  0  0  0  0  0  0  0  0  0  0  0
    3.5462    0.3408   -4.2616 H   0  0  0  0  0  0  0  0  0  0  0  0
    3.1202    1.0129   -2.6649 H   0  0  0  0  0  0  0  0  0  0  0  0
    2.6655   -0.6554   -3.0726 H   0  0  0  0  0  0  0  0  0  0  0  0
    6.2625   -0.3642   -4.2660 H   0  0  0  0  0  0  0  0  0  0  0  0
    7.9075   -1.3141   -2.2591 H   0  0  0  0  0  0  0  0  0  0  0  0
    5.8582   -0.9245    1.0534 H   0  0  0  0  0  0  0  0  0  0  0  0
    7.4417   -1.5485    0.5139 H   0  0  0  0  0  0  0  0  0  0  0  0
    3.9972   -2.3323    1.0162 H   0  0  0  0  0  0  0  0  0  0  0  0
    4.3423   -3.9907    1.5401 H   0  0  0  0  0  0  0  0  0  0  0  0
    4.0651   -3.6257   -0.1959 H   0  0  0  0  0  0  0  0  0  0  0  0
    5.4638   -5.4529    0.5372 H   0  0  0  0  0  0  0  0  0  0  0  0
    7.9243   -6.2072   -0.5876 H   0  0  0  0  0  0  0  0  0  0  0  0
    6.7636   -7.2767    0.2021 H   0  0  0  0  0  0  0  0  0  0  0  0
    9.0191   -5.6764    1.4906 H   0  0  0  0  0  0  0  0  0  0  0  0
    7.3147   -5.7101    3.1191 H   0  0  0  0  0  0  0  0  0  0  0  0
    8.5671   -6.8175    3.6427 H   0  0  0  0  0  0  0  0  0  0  0  0
    5.8730   -7.6068    2.4205 H   0  0  0  0  0  0  0  0  0  0  0  0
    8.0767   -9.4111    3.5916 H   0  0  0  0  0  0  0  0  0  0  0  0
    7.5080   -9.4090    1.9081 H   0  0  0  0  0  0  0  0  0  0  0  0
    6.4228   -9.9389    3.2067 H   0  0  0  0  0  0  0  0  0  0  0  0
    6.8720   -7.7571    5.3233 H   0  0  0  0  0  0  0  0  0  0  0  0
    5.2913   -8.3195    4.7352 H   0  0  0  0  0  0  0  0  0  0  0  0
    5.6912   -6.5844    4.6936 H   0  0  0  0  0  0  0  0  0  0  0  0
   10.3294   -7.2950    2.6841 H   0  0  0  0  0  0  0  0  0  0  0  0
  1  2  1  0
  1 22  1  0
  1 23  1  0
  1 24  1  0
  2  3  2  0
  2 21  1  0
  3  4  1  0
  3 25  1  0
  4  5  2  0
  4 26  1  0
  5  6  1  0
  5 21  1  0
  6  7  1  0
  6 27  1  0
  6 28  1  0
  7  8  1  0
  7  9  1  0
  8 29  1  0
  8 30  1  0
  8 31  1  0
  9 10  2  0
  9 11  1  0
 11 12  1  0
 11 32  1  0
 12 13  1  0
 12 33  1  0
 12 34  1  0
 13 14  1  0
 13 18  1  0
 13 35  1  1
 14 15  1  0
 14 36  1  0
 14 37  1  0
 15 16  1  0
 15 17  1  0
 15 38  1  6
 16 39  1  0
 16 40  1  0
 16 41  1  0
 17 42  1  0
 17 43  1  0
 17 44  1  0
 18 19  2  0
 18 20  1  0
 20 45  1  0
M  END

