
     RDKit          3D

 57 58  0  0  0  0  0  0  0  0999 V2000
    1.2924   -1.1807    2.2834 C   0  0  0  0  0  0  0  0  0  0  0  0
    2.3665   -0.1479    1.9454 C   0  0  0  0  0  0  0  0  0  0  0  0
    3.3004   -0.6107    0.9135 N   0  0  0  0  0  0  0  0  0  0  0  0
    2.8974   -0.5159   -0.4968 C   0  0  0  0  0  0  0  0  0  0  0  0
    2.9682    0.8894   -1.0964 C   0  0  0  0  0  0  0  0  0  0  0  0
    4.9440   -0.5297    1.2658 S   0  0  1  0  0  0  0  0  0  0  0  0
    5.6431   -0.7915    0.0037 O   0  0  0  0  0  0  0  0  0  0  0  0
    5.2436    0.6812    2.0434 O   0  0  0  0  0  0  0  0  0  0  0  0
    5.2131   -1.9238    2.3670 C   0  0  0  0  0  0  0  0  0  0  0  0
    5.7819   -1.6941    3.6152 C   0  0  0  0  0  0  0  0  0  0  0  0
    6.0584   -2.7831    4.4511 C   0  0  0  0  0  0  0  0  0  0  0  0
    5.7696   -4.0828    4.0314 C   0  0  0  0  0  0  0  0  0  0  0  0
    6.0080   -5.2155    4.7458 O   0  0  0  0  0  0  0  0  0  0  0  0
    6.5870   -5.1804    6.0641 C   0  0  1  0  0  0  0  0  0  0  0  0
    5.5195   -4.8650    7.1083 C   0  0  0  0  0  0  0  0  0  0  0  0
    7.2441   -6.5371    6.2755 C   0  0  0  0  0  0  0  0  0  0  0  0
    5.1859   -4.3066    2.7493 C   0  0  0  0  0  0  0  0  0  0  0  0
    4.9249   -5.6433    2.4215 N   0  0  0  0  0  0  0  0  0  0  0  0
    4.3435   -6.1474    1.2814 C   0  0  0  0  0  0  0  0  0  0  0  0
    4.0062   -5.4570    0.3324 O   0  0  0  0  0  0  0  0  0  0  0  0
    4.1539   -7.6409    1.2677 C   0  0  0  0  0  0  0  0  0  0  0  0
    4.1355   -8.4473    2.4196 C   0  0  0  0  0  0  0  0  0  0  0  0
    3.9285   -9.8207    2.3256 C   0  0  0  0  0  0  0  0  0  0  0  0
    3.7431  -10.4109    1.0693 C   0  0  0  0  0  0  0  0  0  0  0  0
    3.5619  -11.7737    1.0651 O   0  0  0  0  0  0  0  0  0  0  0  0
    2.8974  -12.3696    0.0259 C   0  0  1  0  0  0  0  0  0  0  0  0
    3.7136  -12.5149   -1.0474 F   0  0  0  0  0  0  0  0  0  0  0  0
    2.5445  -13.5905    0.4377 F   0  0  0  0  0  0  0  0  0  0  0  0
    3.7638   -9.6267   -0.0922 C   0  0  0  0  0  0  0  0  0  0  0  0
    3.9524   -8.2493    0.0208 C   0  0  0  0  0  0  0  0  0  0  0  0
    4.9185   -3.2175    1.9169 C   0  0  0  0  0  0  0  0  0  0  0  0
    0.6172   -0.7877    3.0608 H   0  0  0  0  0  0  0  0  0  0  0  0
    1.7462   -2.1126    2.6545 H   0  0  0  0  0  0  0  0  0  0  0  0
    0.6760   -1.4320    1.4056 H   0  0  0  0  0  0  0  0  0  0  0  0
    2.9491    0.1002    2.8443 H   0  0  0  0  0  0  0  0  0  0  0  0
    1.8999    0.8026    1.6276 H   0  0  0  0  0  0  0  0  0  0  0  0
    1.8696   -0.9110   -0.5519 H   0  0  0  0  0  0  0  0  0  0  0  0
    3.5299   -1.2012   -1.0769 H   0  0  0  0  0  0  0  0  0  0  0  0
    2.3522    1.6109   -0.5358 H   0  0  0  0  0  0  0  0  0  0  0  0
    2.6046    0.8775   -2.1369 H   0  0  0  0  0  0  0  0  0  0  0  0
    4.0073    1.2510   -1.1025 H   0  0  0  0  0  0  0  0  0  0  0  0
    6.0062   -0.6737    3.9277 H   0  0  0  0  0  0  0  0  0  0  0  0
    6.5002   -2.6011    5.4303 H   0  0  0  0  0  0  0  0  0  0  0  0
    7.3697   -4.4022    6.0773 H   0  0  0  0  0  0  0  0  0  0  0  0
    4.7414   -5.6447    7.1060 H   0  0  0  0  0  0  0  0  0  0  0  0
    5.0345   -3.8967    6.9159 H   0  0  0  0  0  0  0  0  0  0  0  0
    5.9681   -4.8273    8.1133 H   0  0  0  0  0  0  0  0  0  0  0  0
    6.4931   -7.3425    6.2391 H   0  0  0  0  0  0  0  0  0  0  0  0
    7.7381   -6.5729    7.2584 H   0  0  0  0  0  0  0  0  0  0  0  0
    7.9995   -6.7297    5.4993 H   0  0  0  0  0  0  0  0  0  0  0  0
    5.2552   -6.2987    3.1201 H   0  0  0  0  0  0  0  0  0  0  0  0
    4.2450   -8.0071    3.4139 H   0  0  0  0  0  0  0  0  0  0  0  0
    3.8945  -10.4540    3.2137 H   0  0  0  0  0  0  0  0  0  0  0  0
    2.0048  -11.7991   -0.2904 H   0  0  0  0  0  0  0  0  0  0  0  0
    3.6621  -10.0844   -1.0765 H   0  0  0  0  0  0  0  0  0  0  0  0
    3.9575   -7.6162   -0.8683 H   0  0  0  0  0  0  0  0  0  0  0  0
    4.4858   -3.3963    0.9355 H   0  0  0  0  0  0  0  0  0  0  0  0
  1  2  1  0
  1 32  1  0
  1 33  1  0
  1 34  1  0
  2  3  1  0
  2 35  1  0
  2 36  1  0
  3  4  1  0
  6  3  1  6
  4  5  1  0
  4 37  1  0
  4 38  1  0
  5 39  1  0
  5 40  1  0
  5 41  1  0
  6  7  2  0
  6  8  2  0
  6  9  1  0
  9 10  2  0
  9 31  1  0
 10 11  1  0
 10 42  1  0
 11 12  2  0
 11 43  1  0
 12 13  1  0
 12 17  1  0
 13 14  1  0
 14 15  1  0
 14 16  1  0
 14 44  1  6
 15 45  1  0
 15 46  1  0
 15 47  1  0
 16 48  1  0
 16 49  1  0
 16 50  1  0
 17 18  1  0
 17 31  2  0
 18 19  1  0
 18 51  1  0
 19 20  2  0
 19 21  1  0
 21 22  2  0
 21 30  1  0
 22 23  1  0
 22 52  1  0
 23 24  2  0
 23 53  1  0
 24 25  1  0
 24 29  1  0
 25 26  1  0
 26 27  1  0
 26 28  1  0
 26 54  1  6
 29 30  2  0
 29 55  1  0
 30 56  1  0
 31 57  1  0
M  END

