
     RDKit          3D

 42 42  0  0  0  0  0  0  0  0999 V2000
    2.8013   -0.4905    1.4915 C   0  0  0  0  0  0  0  0  0  0  0  0
    2.7729    0.2618    0.1575 C   0  0  0  0  0  0  0  0  0  0  0  0
    3.0657   -0.5528   -1.1263 C   0  0  1  0  0  0  0  0  0  0  0  0
    2.2845   -1.8875   -1.1692 C   0  0  0  0  0  0  0  0  0  0  0  0
    0.7620   -1.7319   -1.1451 C   0  0  0  0  0  0  0  0  0  0  0  0
    2.6323    0.1753   -2.2831 O   0  0  0  0  0  0  0  0  0  0  0  0
    3.1623    1.4671   -2.4855 C   0  0  0  0  0  0  0  0  0  0  0  0
    4.5933   -0.8667   -1.2343 C   0  0  0  0  0  0  0  0  0  0  0  0
    5.3091   -0.6766   -0.2673 O   0  0  0  0  0  0  0  0  0  0  0  0
    5.1924   -1.4371   -2.4946 C   0  0  0  0  0  0  0  0  0  0  0  0
    4.5289   -1.5656   -3.7287 C   0  0  0  0  0  0  0  0  0  0  0  0
    5.1870   -2.1120   -4.8330 C   0  0  0  0  0  0  0  0  0  0  0  0
    6.5178   -2.5484   -4.7560 C   0  0  0  0  0  0  0  0  0  0  0  0
    7.2149   -3.1464   -5.9698 C   0  0  1  0  0  0  0  0  0  0  0  0
    8.4260   -2.3053   -6.4095 C   0  0  0  0  0  0  0  0  0  0  0  0
    7.6092   -4.6156   -5.7364 C   0  0  0  0  0  0  0  0  0  0  0  0
    7.1788   -2.4125   -3.5208 C   0  0  0  0  0  0  0  0  0  0  0  0
    6.5325   -1.8667   -2.4170 C   0  0  0  0  0  0  0  0  0  0  0  0
    2.6204    0.2130    2.3202 H   0  0  0  0  0  0  0  0  0  0  0  0
    3.7790   -0.9616    1.6602 H   0  0  0  0  0  0  0  0  0  0  0  0
    2.0236   -1.2675    1.5533 H   0  0  0  0  0  0  0  0  0  0  0  0
    3.4967    1.0889    0.2140 H   0  0  0  0  0  0  0  0  0  0  0  0
    1.7798    0.7197    0.0143 H   0  0  0  0  0  0  0  0  0  0  0  0
    2.6219   -2.5134   -0.3276 H   0  0  0  0  0  0  0  0  0  0  0  0
    2.5746   -2.4271   -2.0828 H   0  0  0  0  0  0  0  0  0  0  0  0
    0.4002   -1.2983   -0.2001 H   0  0  0  0  0  0  0  0  0  0  0  0
    0.2767   -2.7136   -1.2647 H   0  0  0  0  0  0  0  0  0  0  0  0
    0.4261   -1.0817   -1.9657 H   0  0  0  0  0  0  0  0  0  0  0  0
    2.8582    1.7811   -3.4951 H   0  0  0  0  0  0  0  0  0  0  0  0
    4.2677    1.4864   -2.4372 H   0  0  0  0  0  0  0  0  0  0  0  0
    2.7707    2.2046   -1.7625 H   0  0  0  0  0  0  0  0  0  0  0  0
    3.5015   -1.2193   -3.8292 H   0  0  0  0  0  0  0  0  0  0  0  0
    4.6504   -2.1983   -5.7824 H   0  0  0  0  0  0  0  0  0  0  0  0
    6.4840   -3.1290   -6.7968 H   0  0  0  0  0  0  0  0  0  0  0  0
    9.2108   -2.2927   -5.6355 H   0  0  0  0  0  0  0  0  0  0  0  0
    8.1380   -1.2616   -6.6107 H   0  0  0  0  0  0  0  0  0  0  0  0
    8.8729   -2.7190   -7.3283 H   0  0  0  0  0  0  0  0  0  0  0  0
    8.3537   -4.7092   -4.9288 H   0  0  0  0  0  0  0  0  0  0  0  0
    8.0518   -5.0487   -6.6483 H   0  0  0  0  0  0  0  0  0  0  0  0
    6.7358   -5.2260   -5.4584 H   0  0  0  0  0  0  0  0  0  0  0  0
    8.2173   -2.7390   -3.4192 H   0  0  0  0  0  0  0  0  0  0  0  0
    7.0503   -1.7602   -1.4621 H   0  0  0  0  0  0  0  0  0  0  0  0
  1  2  1  0
  1 19  1  0
  1 20  1  0
  1 21  1  0
  2  3  1  0
  2 22  1  0
  2 23  1  0
  3  4  1  0
  3  6  1  6
  3  8  1  0
  4  5  1  0
  4 24  1  0
  4 25  1  0
  5 26  1  0
  5 27  1  0
  5 28  1  0
  6  7  1  0
  7 29  1  0
  7 30  1  0
  7 31  1  0
  8  9  2  0
  8 10  1  0
 10 11  2  0
 10 18  1  0
 11 12  1  0
 11 32  1  0
 12 13  2  0
 12 33  1  0
 13 14  1  0
 13 17  1  0
 14 15  1  0
 14 16  1  0
 14 34  1  6
 15 35  1  0
 15 36  1  0
 15 37  1  0
 16 38  1  0
 16 39  1  0
 16 40  1  0
 17 18  2  0
 17 41  1  0
 18 42  1  0
M  END

