
     RDKit          3D

 53 56  0  0  0  0  0  0  0  0999 V2000
    3.7738   -1.0270   -0.6577 C   0  0  0  0  0  0  0  0  0  0  0  0
    3.0195    0.2264   -0.2127 C   0  0  0  0  0  0  0  0  0  0  0  0
    3.0833    1.3061   -1.1942 N   0  0  0  0  0  0  0  0  0  0  0  0
    2.2560    1.1348   -2.3812 C   0  0  0  0  0  0  0  0  0  0  0  0
    0.7719    1.5071   -2.1746 C   0  0  0  0  0  0  0  0  0  0  0  0
    0.6369    2.8581   -1.6149 N   0  0  0  0  0  0  0  0  0  0  0  0
    0.3623    3.9568   -2.4228 C   0  0  0  0  0  0  0  0  0  0  0  0
    1.1181    5.0297   -2.2775 N   0  0  0  0  0  0  0  0  0  0  0  0
    0.9283    6.1187   -3.0730 C   0  0  0  0  0  0  0  0  0  0  0  0
    1.7770    7.2528   -2.8261 C   0  0  0  0  0  0  0  0  0  0  0  0
    2.4969    8.2102   -2.6189 C   0  0  0  0  0  0  0  0  0  0  0  0
    3.3497    9.3834   -2.3684 C   0  0  1  0  0  0  0  0  0  0  0  0
    2.6286   10.5999   -2.5064 O   0  0  0  0  0  0  0  0  0  0  0  0
    4.1075    9.3097   -1.0360 C   0  0  0  0  0  0  0  0  0  0  0  0
    4.6472   10.4930   -0.5083 C   0  0  0  0  0  0  0  0  0  0  0  0
    5.3771   10.4705    0.6823 C   0  0  0  0  0  0  0  0  0  0  0  0
    5.5788    9.2639    1.3604 C   0  0  0  0  0  0  0  0  0  0  0  0
    5.0423    8.0830    0.8409 C   0  0  0  0  0  0  0  0  0  0  0  0
    4.3083    8.1047   -0.3497 C   0  0  0  0  0  0  0  0  0  0  0  0
   -0.0060    6.1448   -4.0957 C   0  0  0  0  0  0  0  0  0  0  0  0
   -0.8984    5.0489   -4.2344 C   0  0  0  0  0  0  0  0  0  0  0  0
   -1.9613    5.0511   -5.1805 C   0  0  0  0  0  0  0  0  0  0  0  0
   -2.8917    4.0324   -5.2001 C   0  0  0  0  0  0  0  0  0  0  0  0
   -2.8125    2.9800   -4.2580 C   0  0  0  0  0  0  0  0  0  0  0  0
   -1.7722    2.9377   -3.3475 C   0  0  0  0  0  0  0  0  0  0  0  0
   -0.7661    3.9380   -3.3415 C   0  0  0  0  0  0  0  0  0  0  0  0
    1.4628    3.0477   -0.4182 C   0  0  0  0  0  0  0  0  0  0  0  0
    2.9285    2.6600   -0.6673 C   0  0  0  0  0  0  0  0  0  0  0  0
    3.7580   -1.7894    0.1378 H   0  0  0  0  0  0  0  0  0  0  0  0
    4.8214   -0.7818   -0.8913 H   0  0  0  0  0  0  0  0  0  0  0  0
    3.3273   -1.4843   -1.5553 H   0  0  0  0  0  0  0  0  0  0  0  0
    3.4836    0.6033    0.7136 H   0  0  0  0  0  0  0  0  0  0  0  0
    1.9798   -0.0562    0.0687 H   0  0  0  0  0  0  0  0  0  0  0  0
    2.3238    0.0956   -2.7401 H   0  0  0  0  0  0  0  0  0  0  0  0
    2.6622    1.7765   -3.1846 H   0  0  0  0  0  0  0  0  0  0  0  0
    0.2872    0.7851   -1.4914 H   0  0  0  0  0  0  0  0  0  0  0  0
    0.2522    1.4434   -3.1380 H   0  0  0  0  0  0  0  0  0  0  0  0
    4.1025    9.4260   -3.1776 H   0  0  0  0  0  0  0  0  0  0  0  0
    1.9450   10.6097   -1.8205 H   0  0  0  0  0  0  0  0  0  0  0  0
    4.4805   11.4331   -1.0382 H   0  0  0  0  0  0  0  0  0  0  0  0
    5.7908   11.4000    1.0825 H   0  0  0  0  0  0  0  0  0  0  0  0
    6.1499    9.2455    2.2923 H   0  0  0  0  0  0  0  0  0  0  0  0
    5.1897    7.1362    1.3673 H   0  0  0  0  0  0  0  0  0  0  0  0
    3.8812    7.1810   -0.7460 H   0  0  0  0  0  0  0  0  0  0  0  0
   -0.0884    7.0131   -4.7511 H   0  0  0  0  0  0  0  0  0  0  0  0
   -2.0415    5.8897   -5.8771 H   0  0  0  0  0  0  0  0  0  0  0  0
   -3.7088    4.0508   -5.9259 H   0  0  0  0  0  0  0  0  0  0  0  0
   -3.5826    2.2050   -4.2424 H   0  0  0  0  0  0  0  0  0  0  0  0
   -1.7405    2.1411   -2.6041 H   0  0  0  0  0  0  0  0  0  0  0  0
    1.0381    2.4132    0.3823 H   0  0  0  0  0  0  0  0  0  0  0  0
    1.3906    4.0957   -0.1042 H   0  0  0  0  0  0  0  0  0  0  0  0
    3.5102    2.7568    0.2640 H   0  0  0  0  0  0  0  0  0  0  0  0
    3.3513    3.3725   -1.3963 H   0  0  0  0  0  0  0  0  0  0  0  0
  1  2  1  0
  1 29  1  0
  1 30  1  0
  1 31  1  0
  2  3  1  0
  2 32  1  0
  2 33  1  0
  3  4  1  0
  3 28  1  0
  4  5  1  0
  4 34  1  0
  4 35  1  0
  5  6  1  0
  5 36  1  0
  5 37  1  0
  6  7  1  0
  6 27  1  0
  7  8  2  0
  7 26  1  0
  8  9  1  0
  9 10  1  0
  9 20  2  0
 10 11  3  0
 11 12  1  0
 12 13  1  0
 12 14  1  0
 12 38  1  6
 13 39  1  0
 14 15  2  0
 14 19  1  0
 15 16  1  0
 15 40  1  0
 16 17  2  0
 16 41  1  0
 17 18  1  0
 17 42  1  0
 18 19  2  0
 18 43  1  0
 19 44  1  0
 20 21  1  0
 20 45  1  0
 21 22  1  0
 21 26  2  0
 22 23  2  0
 22 46  1  0
 23 24  1  0
 23 47  1  0
 24 25  2  0
 24 48  1  0
 25 26  1  0
 25 49  1  0
 27 28  1  0
 27 50  1  0
 27 51  1  0
 28 52  1  0
 28 53  1  0
M  END

