
     RDKit          3D

 42 44  0  0  0  0  0  0  0  0999 V2000
    0.9629   -0.7115   -0.4953 C   0  0  0  0  0  0  0  0  0  0  0  0
    2.3763   -0.4298   -0.2639 N   0  0  0  0  0  0  0  0  0  0  0  0
    3.1816   -1.2433    0.4840 C   0  0  0  0  0  0  0  0  0  0  0  0
    4.3935   -1.2724    0.4130 O   0  0  0  0  0  0  0  0  0  0  0  0
    2.5274   -2.1165    1.4265 N   0  0  0  0  0  0  0  0  0  0  0  0
    3.0473   -3.3407    1.7961 C   0  0  0  0  0  0  0  0  0  0  0  0
    2.3665   -3.8901    2.7622 N   0  0  0  0  0  0  0  0  0  0  0  0
    1.3638   -2.9936    3.0856 C   0  0  0  0  0  0  0  0  0  0  0  0
    0.4077   -3.2810    4.1653 C   0  0  0  0  0  0  0  0  0  0  0  0
    0.5220   -4.4643    4.9160 C   0  0  0  0  0  0  0  0  0  0  0  0
   -0.4057   -4.6961    5.9320 C   0  0  0  0  0  0  0  0  0  0  0  0
   -1.4156   -3.7858    6.1970 C   0  0  0  0  0  0  0  0  0  0  0  0
   -1.5335   -2.6261    5.4641 N   0  0  0  0  0  0  0  0  0  0  0  0
   -2.4566   -1.7981    5.7049 O   0  0  0  0  0  0  0  0  0  0  0  0
   -0.6249   -2.3910    4.4625 C   0  0  0  0  0  0  0  0  0  0  0  0
    1.4508   -1.8842    2.2689 C   0  0  0  0  0  0  0  0  0  0  0  0
    3.1174    0.6219   -1.0304 C   0  0  1  0  0  0  0  0  0  0  0  0
    2.3484    1.2261   -2.2189 C   0  0  0  0  0  0  0  0  0  0  0  0
    1.2753    2.2650   -1.8507 C   0  0  0  0  0  0  0  0  0  0  0  0
    1.8201    3.3387   -0.8994 C   0  0  0  0  0  0  0  0  0  0  0  0
    2.4921    2.7076    0.3264 C   0  0  0  0  0  0  0  0  0  0  0  0
    3.6080    1.7437   -0.0909 C   0  0  0  0  0  0  0  0  0  0  0  0
    0.7293   -1.7420   -0.2055 H   0  0  0  0  0  0  0  0  0  0  0  0
    0.7291   -0.6159   -1.5633 H   0  0  0  0  0  0  0  0  0  0  0  0
    0.2924   -0.0348    0.0604 H   0  0  0  0  0  0  0  0  0  0  0  0
    3.9284   -3.7466    1.3016 H   0  0  0  0  0  0  0  0  0  0  0  0
    1.3246   -5.1653    4.6895 H   0  0  0  0  0  0  0  0  0  0  0  0
   -0.3534   -5.6020    6.5402 H   0  0  0  0  0  0  0  0  0  0  0  0
   -2.1756   -3.8934    6.9695 H   0  0  0  0  0  0  0  0  0  0  0  0
   -0.8073   -1.4515    3.9432 H   0  0  0  0  0  0  0  0  0  0  0  0
    0.8816   -0.9614    2.2401 H   0  0  0  0  0  0  0  0  0  0  0  0
    4.0054    0.1105   -1.4282 H   0  0  0  0  0  0  0  0  0  0  0  0
    1.9355    0.4372   -2.8682 H   0  0  0  0  0  0  0  0  0  0  0  0
    3.1164    1.7290   -2.8317 H   0  0  0  0  0  0  0  0  0  0  0  0
    0.4073    1.7754   -1.3787 H   0  0  0  0  0  0  0  0  0  0  0  0
    0.8916    2.7305   -2.7739 H   0  0  0  0  0  0  0  0  0  0  0  0
    1.0092    4.0199   -0.5923 H   0  0  0  0  0  0  0  0  0  0  0  0
    2.5616    3.9601   -1.4347 H   0  0  0  0  0  0  0  0  0  0  0  0
    1.7374    2.1652    0.9255 H   0  0  0  0  0  0  0  0  0  0  0  0
    2.9002    3.4899    0.9873 H   0  0  0  0  0  0  0  0  0  0  0  0
    4.1083    1.2988    0.7819 H   0  0  0  0  0  0  0  0  0  0  0  0
    4.3889    2.3077   -0.6318 H   0  0  0  0  0  0  0  0  0  0  0  0
  1  2  1  0
  1 23  1  0
  1 24  1  0
  1 25  1  0
  2  3  1  0
  2 17  1  0
  3  4  2  0
  3  5  1  0
  5  6  1  0
  5 16  1  0
  6  7  2  0
  6 26  1  0
  7  8  1  0
  8  9  1  0
  8 16  2  0
  9 10  2  0
  9 15  1  0
 10 11  1  0
 10 27  1  0
 11 12  2  0
 11 28  1  0
 12 13  1  0
 12 29  1  0
 13 14  1  0
 13 15  2  0
 15 30  1  0
 16 31  1  0
 17 18  1  0
 17 22  1  0
 17 32  1  6
 18 19  1  0
 18 33  1  0
 18 34  1  0
 19 20  1  0
 19 35  1  0
 19 36  1  0
 20 21  1  0
 20 37  1  0
 20 38  1  0
 21 22  1  0
 21 39  1  0
 21 40  1  0
 22 41  1  0
 22 42  1  0
M  CHG  2  13   1  14  -1
M  END

