
     RDKit          3D

 41 43  0  0  0  0  0  0  0  0999 V2000
    4.1141   -0.2199    0.2086 O   0  0  0  0  0  0  0  0  0  0  0  0
    3.2735    0.6189    0.5453 C   0  0  0  0  0  0  0  0  0  0  0  0
    2.2653    0.2627    1.6101 C   0  0  0  0  0  0  0  0  0  0  0  0
    2.7460   -0.1907    2.8472 C   0  0  0  0  0  0  0  0  0  0  0  0
    1.8786   -0.6167    3.8540 C   0  0  0  0  0  0  0  0  0  0  0  0
    0.5015   -0.6237    3.6143 C   0  0  0  0  0  0  0  0  0  0  0  0
    0.0035   -0.2077    2.3789 C   0  0  0  0  0  0  0  0  0  0  0  0
    0.8775    0.2303    1.3742 C   0  0  0  0  0  0  0  0  0  0  0  0
    0.4238    0.6249    0.1514 O   0  0  0  0  0  0  0  0  0  0  0  0
    3.2564    1.8661    0.0156 N   0  0  0  0  0  0  0  0  0  0  0  0
    2.4157    3.0010    0.4184 C   0  0  0  0  0  0  0  0  0  0  0  0
    2.6930    4.0418   -0.6726 C   0  0  0  0  0  0  0  0  0  0  0  0
    4.1544    3.7680   -1.0517 C   0  0  0  0  0  0  0  0  0  0  0  0
    4.2659    2.2332   -1.0026 C   0  0  2  0  0  0  0  0  0  0  0  0
    4.0130    1.5082   -2.3476 C   0  0  0  0  0  0  0  0  0  0  0  0
    5.2857    0.8502   -2.9146 C   0  0  1  0  0  0  0  0  0  0  0  0
    5.9372    0.0498   -1.9500 O   0  0  0  0  0  0  0  0  0  0  0  0
    4.9869    0.0810   -4.1705 C   0  0  0  0  0  0  0  0  0  0  0  0
    5.5127    0.1129   -5.4339 C   0  0  0  0  0  0  0  0  0  0  0  0
    4.8285   -0.8998   -6.1873 C   0  0  0  0  0  0  0  0  0  0  0  0
    3.9403   -1.4710   -5.3225 C   0  0  0  0  0  0  0  0  0  0  0  0
    4.0255   -0.8825   -4.1027 O   0  0  0  0  0  0  0  0  0  0  0  0
    3.8265   -0.2100    3.0066 H   0  0  0  0  0  0  0  0  0  0  0  0
    2.2750   -0.9527    4.8144 H   0  0  0  0  0  0  0  0  0  0  0  0
   -0.1926   -0.9625    4.3875 H   0  0  0  0  0  0  0  0  0  0  0  0
   -1.0733   -0.2285    2.1813 H   0  0  0  0  0  0  0  0  0  0  0  0
   -0.5311    0.4861    0.0997 H   0  0  0  0  0  0  0  0  0  0  0  0
    2.7206    3.3764    1.4127 H   0  0  0  0  0  0  0  0  0  0  0  0
    1.3579    2.7155    0.4652 H   0  0  0  0  0  0  0  0  0  0  0  0
    2.5134    5.0707   -0.3272 H   0  0  0  0  0  0  0  0  0  0  0  0
    2.0335    3.8591   -1.5373 H   0  0  0  0  0  0  0  0  0  0  0  0
    4.8270    4.2176   -0.3025 H   0  0  0  0  0  0  0  0  0  0  0  0
    4.4375    4.1748   -2.0339 H   0  0  0  0  0  0  0  0  0  0  0  0
    5.2525    1.9171   -0.6334 H   0  0  0  0  0  0  0  0  0  0  0  0
    3.5951    2.2013   -3.0969 H   0  0  0  0  0  0  0  0  0  0  0  0
    3.2611    0.7181   -2.2034 H   0  0  0  0  0  0  0  0  0  0  0  0
    5.9991    1.6423   -3.2125 H   0  0  0  0  0  0  0  0  0  0  0  0
    5.2952   -0.2171   -1.2609 H   0  0  0  0  0  0  0  0  0  0  0  0
    6.3038    0.7745   -5.7811 H   0  0  0  0  0  0  0  0  0  0  0  0
    4.9821   -1.1687   -7.2305 H   0  0  0  0  0  0  0  0  0  0  0  0
    3.2120   -2.2722   -5.4191 H   0  0  0  0  0  0  0  0  0  0  0  0
  1  2  2  0
  2  3  1  0
  2 10  1  0
  3  4  2  0
  3  8  1  0
  4  5  1  0
  4 23  1  0
  5  6  2  0
  5 24  1  0
  6  7  1  0
  6 25  1  0
  7  8  2  0
  7 26  1  0
  8  9  1  0
  9 27  1  0
 10 11  1  0
 10 14  1  0
 11 12  1  0
 11 28  1  0
 11 29  1  0
 12 13  1  0
 12 30  1  0
 12 31  1  0
 13 14  1  0
 13 32  1  0
 13 33  1  0
 14 15  1  0
 14 34  1  1
 15 16  1  0
 15 35  1  0
 15 36  1  0
 16 17  1  0
 16 18  1  0
 16 37  1  6
 17 38  1  0
 18 19  2  0
 18 22  1  0
 19 20  1  0
 19 39  1  0
 20 21  2  0
 20 40  1  0
 21 22  1  0
 21 41  1  0
M  END

