
     RDKit          3D

 38 40  0  0  0  0  0  0  0  0999 V2000
    1.2275   -0.1832   -0.1482 N   0  0  0  0  0  0  0  0  0  0  0  0
    2.3314   -0.3041   -0.4775 C   0  0  0  0  0  0  0  0  0  0  0  0
    3.7345   -0.4444   -0.8871 C   0  0  1  0  0  0  0  0  0  0  0  0
    3.8100   -1.3969   -2.1027 C   0  0  0  0  0  0  0  0  0  0  0  0
    3.9491   -2.5920   -1.9897 O   0  0  0  0  0  0  0  0  0  0  0  0
    3.6875   -0.7591   -3.3143 N   0  0  0  0  0  0  0  0  0  0  0  0
    3.6353    0.6300   -3.5671 C   0  0  0  0  0  0  0  0  0  0  0  0
    3.4394    1.0504   -4.6848 O   0  0  0  0  0  0  0  0  0  0  0  0
    3.8079    1.4107   -2.4567 N   0  0  0  0  0  0  0  0  0  0  0  0
    4.3643    0.9376   -1.1874 C   0  0  2  0  0  0  0  0  0  0  0  0
    5.8926    0.9665   -1.1477 C   0  0  0  0  0  0  0  0  0  0  0  0
    6.5167    2.1825   -0.8428 C   0  0  0  0  0  0  0  0  0  0  0  0
    7.9108    2.2721   -0.8527 C   0  0  0  0  0  0  0  0  0  0  0  0
    8.6731    1.1571   -1.1639 C   0  0  0  0  0  0  0  0  0  0  0  0
   10.0113    1.2942   -1.2080 F   0  0  0  0  0  0  0  0  0  0  0  0
    8.0959   -0.1033   -1.4461 C   0  0  0  0  0  0  0  0  0  0  0  0
    8.8895   -1.2068   -1.7674 N   0  0  0  0  0  0  0  0  0  0  0  0
    8.2594   -2.3692   -2.3847 C   0  0  0  0  0  0  0  0  0  0  0  0
    9.3228   -3.2436   -3.0495 C   0  0  0  0  0  0  0  0  0  0  0  0
   10.3344   -3.6201   -2.1421 O   0  0  0  0  0  0  0  0  0  0  0  0
   10.9739   -2.4883   -1.5910 C   0  0  0  0  0  0  0  0  0  0  0  0
    9.9831   -1.5868   -0.8631 C   0  0  0  0  0  0  0  0  0  0  0  0
    6.6856   -0.1570   -1.4280 C   0  0  0  0  0  0  0  0  0  0  0  0
    4.2762   -0.9424   -0.0703 H   0  0  0  0  0  0  0  0  0  0  0  0
    3.6385   -1.3460   -4.1442 H   0  0  0  0  0  0  0  0  0  0  0  0
    3.8551    2.4026   -2.6631 H   0  0  0  0  0  0  0  0  0  0  0  0
    4.0064    1.6336   -0.4146 H   0  0  0  0  0  0  0  0  0  0  0  0
    5.9217    3.0666   -0.5990 H   0  0  0  0  0  0  0  0  0  0  0  0
    8.4271    3.2097   -0.6372 H   0  0  0  0  0  0  0  0  0  0  0  0
    7.5438   -2.0350   -3.1511 H   0  0  0  0  0  0  0  0  0  0  0  0
    7.7000   -2.9774   -1.6424 H   0  0  0  0  0  0  0  0  0  0  0  0
    9.7601   -2.6929   -3.9078 H   0  0  0  0  0  0  0  0  0  0  0  0
    8.8639   -4.1692   -3.4284 H   0  0  0  0  0  0  0  0  0  0  0  0
   11.4807   -1.9049   -2.3869 H   0  0  0  0  0  0  0  0  0  0  0  0
   11.7376   -2.8565   -0.8892 H   0  0  0  0  0  0  0  0  0  0  0  0
   10.5007   -0.6924   -0.4990 H   0  0  0  0  0  0  0  0  0  0  0  0
    9.5764   -2.1309    0.0155 H   0  0  0  0  0  0  0  0  0  0  0  0
    6.2187   -1.1216   -1.6180 H   0  0  0  0  0  0  0  0  0  0  0  0
  1  2  3  0
  2  3  1  0
  3  4  1  0
  3 10  1  0
  3 24  1  1
  4  5  2  0
  4  6  1  0
  6  7  1  0
  6 25  1  0
  7  8  2  0
  7  9  1  0
  9 10  1  0
  9 26  1  0
 10 11  1  0
 10 27  1  1
 11 12  2  0
 11 23  1  0
 12 13  1  0
 12 28  1  0
 13 14  2  0
 13 29  1  0
 14 15  1  0
 14 16  1  0
 16 17  1  0
 16 23  2  0
 17 18  1  0
 17 22  1  0
 18 19  1  0
 18 30  1  0
 18 31  1  0
 19 20  1  0
 19 32  1  0
 19 33  1  0
 20 21  1  0
 21 22  1  0
 21 34  1  0
 21 35  1  0
 22 36  1  0
 22 37  1  0
 23 38  1  0
M  END

