
     RDKit          3D

 32 33  0  0  0  0  0  0  0  0999 V2000
    0.9508    0.2494    0.2508 O   0  0  0  0  0  0  0  0  0  0  0  0
    2.1521    0.1017    0.1542 C   0  0  0  0  0  0  0  0  0  0  0  0
    2.8328   -0.9287    0.7909 N   0  0  0  0  0  0  0  0  0  0  0  0
    2.1691   -1.8125    1.5483 N   0  0  0  0  0  0  0  0  0  0  0  0
    2.8376   -2.7495    2.1176 C   0  0  0  0  0  0  0  0  0  0  0  0
    2.1629   -3.7444    2.9575 C   0  0  0  0  0  0  0  0  0  0  0  0
    0.7663   -3.6859    3.1528 C   0  0  0  0  0  0  0  0  0  0  0  0
    0.0938   -4.6108    3.9412 C   0  0  0  0  0  0  0  0  0  0  0  0
    0.8203   -5.6343    4.5632 C   0  0  0  0  0  0  0  0  0  0  0  0
   -0.0070   -6.8066    5.5582 Cl  0  0  0  0  0  0  0  0  0  0  0  0
    2.2020   -5.7307    4.3981 C   0  0  0  0  0  0  0  0  0  0  0  0
    2.8581   -4.7892    3.6003 C   0  0  0  0  0  0  0  0  0  0  0  0
    4.5972   -4.9569    3.4263 Cl  0  0  0  0  0  0  0  0  0  0  0  0
    2.9997    1.0359   -0.6714 C   0  0  0  0  0  0  0  0  0  0  0  0
    2.3074    2.0799   -1.3126 C   0  0  0  0  0  0  0  0  0  0  0  0
    2.9532    3.0204   -2.1088 C   0  0  0  0  0  0  0  0  0  0  0  0
    4.3392    2.9347   -2.2850 C   0  0  0  0  0  0  0  0  0  0  0  0
    5.0903    3.7890   -3.0370 O   0  0  0  0  0  0  0  0  0  0  0  0
    5.0535    1.9086   -1.6604 C   0  0  0  0  0  0  0  0  0  0  0  0
    6.4070    1.7728   -1.7942 O   0  0  0  0  0  0  0  0  0  0  0  0
    4.3963    0.9643   -0.8599 C   0  0  0  0  0  0  0  0  0  0  0  0
    5.1603   -0.0068   -0.2846 O   0  0  0  0  0  0  0  0  0  0  0  0
    3.8464   -1.0032    0.6714 H   0  0  0  0  0  0  0  0  0  0  0  0
    3.9291   -2.8416    1.9982 H   0  0  0  0  0  0  0  0  0  0  0  0
    0.2233   -2.8788    2.6571 H   0  0  0  0  0  0  0  0  0  0  0  0
   -0.9865   -4.5482    4.0797 H   0  0  0  0  0  0  0  0  0  0  0  0
    2.7661   -6.5272    4.8824 H   0  0  0  0  0  0  0  0  0  0  0  0
    1.2285    2.1216   -1.1576 H   0  0  0  0  0  0  0  0  0  0  0  0
    2.3899    3.8215   -2.5954 H   0  0  0  0  0  0  0  0  0  0  0  0
    4.5313    4.4694   -3.4339 H   0  0  0  0  0  0  0  0  0  0  0  0
    6.7336    2.4811   -2.3692 H   0  0  0  0  0  0  0  0  0  0  0  0
    6.0832    0.1390   -0.5507 H   0  0  0  0  0  0  0  0  0  0  0  0
  1  2  2  0
  2  3  1  0
  2 14  1  0
  3  4  1  0
  3 23  1  0
  4  5  2  0
  5  6  1  0
  5 24  1  0
  6  7  2  0
  6 12  1  0
  7  8  1  0
  7 25  1  0
  8  9  2  0
  8 26  1  0
  9 10  1  0
  9 11  1  0
 11 12  2  0
 11 27  1  0
 12 13  1  0
 14 15  2  0
 14 21  1  0
 15 16  1  0
 15 28  1  0
 16 17  2  0
 16 29  1  0
 17 18  1  0
 17 19  1  0
 18 30  1  0
 19 20  1  0
 19 21  2  0
 20 31  1  0
 21 22  1  0
 22 32  1  0
M  END

