
     RDKit          3D

 21 21  0  0  0  0  0  0  0  0999 V2000
    1.0548    0.5913   -0.2653 C   0  0  0  0  0  0  0  0  0  0  0  0
    2.5469    0.9103   -0.3559 C   0  0  0  0  0  0  0  0  0  0  0  0
    3.1520    1.2825    0.9970 C   0  0  0  0  0  0  0  0  0  0  0  0
    4.5753    1.5701    0.8864 N   0  0  0  0  0  0  0  0  0  0  0  0
    5.1916    2.4268    1.7300 C   0  0  0  0  0  0  0  0  0  0  0  0
    4.6634    3.2292    2.6155 N   0  0  0  0  0  0  0  0  0  0  0  0
    5.7262    3.9193    3.1733 N   0  0  0  0  0  0  0  0  0  0  0  0
    6.8042    3.4987    2.6041 C   0  0  0  0  0  0  0  0  0  0  0  0
    8.1988    3.9069    2.8608 C   0  0  0  0  0  0  0  0  0  0  0  0
    9.1685    2.5943    3.6689 Cl  0  0  0  0  0  0  0  0  0  0  0  0
    6.5399    2.5335    1.6601 O   0  0  0  0  0  0  0  0  0  0  0  0
    0.6443    0.3247   -1.2513 H   0  0  0  0  0  0  0  0  0  0  0  0
    0.4833    1.4555    0.1113 H   0  0  0  0  0  0  0  0  0  0  0  0
    0.8630   -0.2548    0.4152 H   0  0  0  0  0  0  0  0  0  0  0  0
    2.7197    1.7403   -1.0620 H   0  0  0  0  0  0  0  0  0  0  0  0
    3.0870    0.0373   -0.7678 H   0  0  0  0  0  0  0  0  0  0  0  0
    2.9689    0.4725    1.7305 H   0  0  0  0  0  0  0  0  0  0  0  0
    2.6716    2.1846    1.4044 H   0  0  0  0  0  0  0  0  0  0  0  0
    5.1702    0.8971    0.4165 H   0  0  0  0  0  0  0  0  0  0  0  0
    8.1876    4.7745    3.5298 H   0  0  0  0  0  0  0  0  0  0  0  0
    8.7305    4.1525    1.9321 H   0  0  0  0  0  0  0  0  0  0  0  0
  1  2  1  0
  1 12  1  0
  1 13  1  0
  1 14  1  0
  2  3  1  0
  2 15  1  0
  2 16  1  0
  3  4  1  0
  3 17  1  0
  3 18  1  0
  4  5  1  0
  4 19  1  0
  5  6  2  0
  5 11  1  0
  6  7  1  0
  7  8  2  0
  8  9  1  0
  8 11  1  0
  9 10  1  0
  9 20  1  0
  9 21  1  0
M  END

