
     RDKit          3D

 37 40  0  0  0  0  0  0  0  0999 V2000
    0.8640    0.3351   -0.0208 O   0  0  0  0  0  0  0  0  0  0  0  0
    2.0004    0.4765   -0.4405 C   0  0  0  0  0  0  0  0  0  0  0  0
    2.3882   -0.0303   -1.6783 N   0  0  0  0  0  0  0  0  0  0  0  0
    1.5353   -0.7238   -2.5046 C   0  0  0  0  0  0  0  0  0  0  0  0
    1.9068   -1.1838   -3.6665 N   0  0  0  0  0  0  0  0  0  0  0  0
    0.8432   -1.8325   -4.2565 C   0  0  0  0  0  0  0  0  0  0  0  0
    1.0033   -2.4504   -5.5911 C   0  0  0  0  0  0  0  0  0  0  0  0
    2.2344   -2.3804   -6.2645 C   0  0  0  0  0  0  0  0  0  0  0  0
    2.3830   -2.9645   -7.5243 C   0  0  0  0  0  0  0  0  0  0  0  0
    1.3067   -3.6241   -8.1254 C   0  0  0  0  0  0  0  0  0  0  0  0
    0.0775   -3.6969   -7.4589 C   0  0  0  0  0  0  0  0  0  0  0  0
   -0.0754   -3.1150   -6.2009 C   0  0  0  0  0  0  0  0  0  0  0  0
   -0.2990   -1.8855   -3.6077 N   0  0  0  0  0  0  0  0  0  0  0  0
   -0.1395   -1.0901   -2.1395 S   0  0  0  0  0  0  0  0  0  0  0  0
    2.9913    1.1519    0.2246 N   0  0  0  0  0  0  0  0  0  0  0  0
    2.9600    1.4344    1.6907 C   0  0  0  0  0  0  0  0  0  0  0  0
    4.4878    1.6947    1.5515 C   0  0  1  0  0  0  0  0  0  0  0  0
    5.8313    1.3294    2.1631 C   0  0  0  0  0  0  0  0  0  0  0  0
    6.6980    1.2143    0.8369 C   0  0  0  0  0  0  0  0  0  0  0  0
    5.7169    1.1553   -0.4100 C   0  0  0  0  0  0  0  0  0  0  0  0
    4.4333    0.8063    0.3300 C   0  0  2  0  0  0  0  0  0  0  0  0
    3.3135    0.1515   -2.0545 H   0  0  0  0  0  0  0  0  0  0  0  0
    3.0669   -1.8630   -5.7855 H   0  0  0  0  0  0  0  0  0  0  0  0
    3.3451   -2.9042   -8.0399 H   0  0  0  0  0  0  0  0  0  0  0  0
    1.4240   -4.0809   -9.1116 H   0  0  0  0  0  0  0  0  0  0  0  0
   -0.7672   -4.2112   -7.9246 H   0  0  0  0  0  0  0  0  0  0  0  0
   -1.0282   -3.1645   -5.6710 H   0  0  0  0  0  0  0  0  0  0  0  0
    2.6869    0.5347    2.2697 H   0  0  0  0  0  0  0  0  0  0  0  0
    2.3177    2.2754    1.9852 H   0  0  0  0  0  0  0  0  0  0  0  0
    4.5628    2.7304    1.1771 H   0  0  0  0  0  0  0  0  0  0  0  0
    5.7983    0.3644    2.6926 H   0  0  0  0  0  0  0  0  0  0  0  0
    6.2423    2.0796    2.8541 H   0  0  0  0  0  0  0  0  0  0  0  0
    7.3330    0.3167    0.8694 H   0  0  0  0  0  0  0  0  0  0  0  0
    7.3771    2.0741    0.7395 H   0  0  0  0  0  0  0  0  0  0  0  0
    6.0499    0.4166   -1.1551 H   0  0  0  0  0  0  0  0  0  0  0  0
    5.6429    2.1373   -0.9017 H   0  0  0  0  0  0  0  0  0  0  0  0
    4.5009   -0.2572    0.6422 H   0  0  0  0  0  0  0  0  0  0  0  0
  1  2  2  0
  2  3  1  0
  2 15  1  0
  3  4  1  0
  3 22  1  0
  4  5  2  0
  4 14  1  0
  5  6  1  0
  6  7  1  0
  6 13  2  0
  7  8  2  0
  7 12  1  0
  8  9  1  0
  8 23  1  0
  9 10  2  0
  9 24  1  0
 10 11  1  0
 10 25  1  0
 11 12  2  0
 11 26  1  0
 12 27  1  0
 13 14  1  0
 15 16  1  0
 15 21  1  0
 16 17  1  0
 16 28  1  0
 16 29  1  0
 17 18  1  0
 17 21  1  0
 17 30  1  6
 18 19  1  0
 18 31  1  0
 18 32  1  0
 19 20  1  0
 19 33  1  0
 19 34  1  0
 20 21  1  0
 20 35  1  0
 20 36  1  0
 21 37  1  1
M  END

