
     RDKit          3D

 63 66  0  0  0  0  0  0  0  0999 V2000
    4.2217    2.1188   -2.2961 C   0  0  0  0  0  0  0  0  0  0  0  0
    3.7368    0.7538   -1.7754 C   0  0  1  0  0  0  0  0  0  0  0  0
    2.1978    0.6981   -1.7305 C   0  0  0  0  0  0  0  0  0  0  0  0
    1.6169   -0.5552   -1.0450 C   0  0  1  0  0  0  0  0  0  0  0  0
    1.7419   -0.5220    0.4953 C   0  0  0  0  0  0  0  0  0  0  0  0
    0.7603    0.4510    1.1668 C   0  0  0  0  0  0  0  0  0  0  0  0
   -0.6890    0.1749    0.7445 C   0  0  0  0  0  0  0  0  0  0  0  0
   -0.8372    0.1697   -0.7828 C   0  0  0  0  0  0  0  0  0  0  0  0
    0.1458   -0.8141   -1.4341 C   0  0  0  0  0  0  0  0  0  0  0  0
    4.2445   -0.3882   -2.5319 N   0  0  0  0  0  0  0  0  0  0  0  0
    5.6629   -0.6975   -2.4026 C   0  0  0  0  0  0  0  0  0  0  0  0
    6.0106   -1.9716   -3.1388 C   0  0  0  0  0  0  0  0  0  0  0  0
    6.5725   -1.9323   -4.4171 C   0  0  0  0  0  0  0  0  0  0  0  0
    6.8577   -3.0998   -5.1366 C   0  0  0  0  0  0  0  0  0  0  0  0
    6.5722   -4.3354   -4.5600 C   0  0  0  0  0  0  0  0  0  0  0  0
    6.0141   -4.4103   -3.2778 C   0  0  0  0  0  0  0  0  0  0  0  0
    5.7312   -3.2361   -2.5641 C   0  0  0  0  0  0  0  0  0  0  0  0
    5.2051   -3.2224   -1.3126 O   0  0  0  0  0  0  0  0  0  0  0  0
    4.9180   -4.4423   -0.6464 C   0  0  0  0  0  0  0  0  0  0  0  0
    4.3849   -4.1038    0.7369 C   0  0  2  0  0  0  0  0  0  0  0  0
    5.4261   -3.4536    1.7077 C   0  0  0  0  0  0  0  0  0  0  0  0
    5.3071   -4.3147    2.9860 C   0  0  2  0  0  0  0  0  0  0  0  0
    5.9601   -5.6905    2.7164 C   0  0  0  0  0  0  0  0  0  0  0  0
    4.9450   -6.3799    1.7495 C   0  0  0  0  0  0  0  0  0  0  0  0
    3.8491   -5.3031    1.5643 C   0  0  1  0  0  0  0  0  0  0  0  0
    3.8067   -4.6796    2.9758 C   0  0  0  0  0  0  0  0  0  0  0  0
    3.8716    2.9430   -1.6532 H   0  0  0  0  0  0  0  0  0  0  0  0
    3.8384    2.3048   -3.3148 H   0  0  0  0  0  0  0  0  0  0  0  0
    5.3211    2.1730   -2.3347 H   0  0  0  0  0  0  0  0  0  0  0  0
    4.1189    0.6331   -0.7451 H   0  0  0  0  0  0  0  0  0  0  0  0
    1.8312    0.7379   -2.7741 H   0  0  0  0  0  0  0  0  0  0  0  0
    1.8272    1.6211   -1.2536 H   0  0  0  0  0  0  0  0  0  0  0  0
    2.2220   -1.3983   -1.4156 H   0  0  0  0  0  0  0  0  0  0  0  0
    2.7772   -0.2845    0.7932 H   0  0  0  0  0  0  0  0  0  0  0  0
    1.5456   -1.5401    0.8796 H   0  0  0  0  0  0  0  0  0  0  0  0
    1.0227    1.4916    0.9030 H   0  0  0  0  0  0  0  0  0  0  0  0
    0.8578    0.3849    2.2641 H   0  0  0  0  0  0  0  0  0  0  0  0
   -1.3700    0.9159    1.1971 H   0  0  0  0  0  0  0  0  0  0  0  0
   -0.9983   -0.8115    1.1391 H   0  0  0  0  0  0  0  0  0  0  0  0
   -0.6604    1.1893   -1.1711 H   0  0  0  0  0  0  0  0  0  0  0  0
   -1.8724   -0.0880   -1.0651 H   0  0  0  0  0  0  0  0  0  0  0  0
    0.0385   -0.7933   -2.5325 H   0  0  0  0  0  0  0  0  0  0  0  0
   -0.1248   -1.8391   -1.1193 H   0  0  0  0  0  0  0  0  0  0  0  0
    3.9853   -0.3123   -3.5157 H   0  0  0  0  0  0  0  0  0  0  0  0
    5.8795   -0.8234   -1.3295 H   0  0  0  0  0  0  0  0  0  0  0  0
    6.3337    0.1088   -2.7717 H   0  0  0  0  0  0  0  0  0  0  0  0
    6.7968   -0.9561   -4.8582 H   0  0  0  0  0  0  0  0  0  0  0  0
    7.2980   -3.0396   -6.1345 H   0  0  0  0  0  0  0  0  0  0  0  0
    6.7853   -5.2599   -5.1035 H   0  0  0  0  0  0  0  0  0  0  0  0
    5.8031   -5.3878   -2.8446 H   0  0  0  0  0  0  0  0  0  0  0  0
    5.8351   -5.0568   -0.5843 H   0  0  0  0  0  0  0  0  0  0  0  0
    4.1671   -5.0185   -1.2206 H   0  0  0  0  0  0  0  0  0  0  0  0
    3.5489   -3.4025    0.5797 H   0  0  0  0  0  0  0  0  0  0  0  0
    5.1748   -2.4010    1.9088 H   0  0  0  0  0  0  0  0  0  0  0  0
    6.4471   -3.4646    1.2931 H   0  0  0  0  0  0  0  0  0  0  0  0
    5.6803   -3.8177    3.8938 H   0  0  0  0  0  0  0  0  0  0  0  0
    6.0711   -6.2631    3.6509 H   0  0  0  0  0  0  0  0  0  0  0  0
    6.9659   -5.5889    2.2789 H   0  0  0  0  0  0  0  0  0  0  0  0
    4.5088   -7.2810    2.2089 H   0  0  0  0  0  0  0  0  0  0  0  0
    5.4028   -6.7035    0.8027 H   0  0  0  0  0  0  0  0  0  0  0  0
    2.8967   -5.7019    1.1827 H   0  0  0  0  0  0  0  0  0  0  0  0
    3.5249   -5.4001    3.7609 H   0  0  0  0  0  0  0  0  0  0  0  0
    3.1420   -3.8035    3.0453 H   0  0  0  0  0  0  0  0  0  0  0  0
  1  2  1  0
  1 27  1  0
  1 28  1  0
  1 29  1  0
  2  3  1  0
  2 10  1  0
  2 30  1  1
  3  4  1  0
  3 31  1  0
  3 32  1  0
  4  5  1  0
  4  9  1  0
  4 33  1  6
  5  6  1  0
  5 34  1  0
  5 35  1  0
  6  7  1  0
  6 36  1  0
  6 37  1  0
  7  8  1  0
  7 38  1  0
  7 39  1  0
  8  9  1  0
  8 40  1  0
  8 41  1  0
  9 42  1  0
  9 43  1  0
 10 11  1  0
 10 44  1  0
 11 12  1  0
 11 45  1  0
 11 46  1  0
 12 13  2  0
 12 17  1  0
 13 14  1  0
 13 47  1  0
 14 15  2  0
 14 48  1  0
 15 16  1  0
 15 49  1  0
 16 17  2  0
 16 50  1  0
 17 18  1  0
 18 19  1  0
 19 20  1  0
 19 51  1  0
 19 52  1  0
 20 21  1  0
 20 25  1  0
 20 53  1  6
 21 22  1  0
 21 54  1  0
 21 55  1  0
 22 23  1  0
 22 26  1  0
 22 56  1  1
 23 24  1  0
 23 57  1  0
 23 58  1  0
 24 25  1  0
 24 59  1  0
 24 60  1  0
 25 26  1  0
 25 61  1  6
 26 62  1  0
 26 63  1  0
M  END

