
     RDKit          3D

 15 14  0  0  0  0  0  0  0  0999 V2000
    1.9600    0.1650    1.4745 C   0  0  0  0  0  0  0  0  0  0  0  0
    2.4730   -0.0086    0.2544 C   0  0  0  0  0  0  0  0  0  0  0  0
    2.7588   -1.3519   -0.3467 C   0  0  0  0  0  0  0  0  0  0  0  0
    4.1687   -1.4951   -0.6596 O   0  0  0  0  0  0  0  0  0  0  0  0
    4.9498   -1.9693    0.2979 C   0  0  0  0  0  0  0  0  0  0  0  0
    4.6246   -2.3371    1.3993 O   0  0  0  0  0  0  0  0  0  0  0  0
    6.2108   -2.0201   -0.2063 O   0  0  0  0  0  0  0  0  0  0  0  0
    7.1418   -2.3503    0.8648 O   0  0  0  0  0  0  0  0  0  0  0  0
    6.9631   -3.6839    1.2152 O   0  0  0  0  0  0  0  0  0  0  0  0
    1.7503    1.1631    1.8686 H   0  0  0  0  0  0  0  0  0  0  0  0
    1.7319   -0.6851    2.1254 H   0  0  0  0  0  0  0  0  0  0  0  0
    2.7100    0.8570   -0.3755 H   0  0  0  0  0  0  0  0  0  0  0  0
    2.2617   -1.4682   -1.3208 H   0  0  0  0  0  0  0  0  0  0  0  0
    2.4519   -2.1667    0.3239 H   0  0  0  0  0  0  0  0  0  0  0  0
    6.1887   -3.6104    1.8143 H   0  0  0  0  0  0  0  0  0  0  0  0
  1  2  2  0
  1 10  1  0
  1 11  1  0
  2  3  1  0
  2 12  1  0
  3  4  1  0
  3 13  1  0
  3 14  1  0
  4  5  1  0
  5  6  2  0
  5  7  1  0
  7  8  1  0
  8  9  1  0
  9 15  1  0
M  END

