
     RDKit          3D

 40 42  0  0  0  0  0  0  0  0999 V2000
    1.5467    0.5867    0.4289 O   0  0  0  0  0  0  0  0  0  0  0  0
    2.6347    0.2506    0.0126 C   0  0  0  0  0  0  0  0  0  0  0  0
    3.3712    0.8897   -0.9566 N   0  0  0  0  0  0  0  0  0  0  0  0
    4.6706    0.2900   -1.2548 C   0  0  0  0  0  0  0  0  0  0  0  0
    4.4120   -1.1406   -0.7475 C   0  0  2  0  0  0  0  0  0  0  0  0
    3.4860   -0.9399    0.4567 C   0  0  2  0  0  0  0  0  0  0  0  0
    2.8145   -2.2521    0.8393 C   0  0  0  0  0  0  0  0  0  0  0  0
    3.9088   -3.3179    1.0399 C   0  0  0  0  0  0  0  0  0  0  0  0
    4.9021   -3.4032   -0.1390 C   0  0  0  0  0  0  0  0  0  0  0  0
    5.4947   -2.0890   -0.4778 N   0  0  0  0  0  0  0  0  0  0  0  0
    6.6513   -1.6495    0.1556 C   0  0  0  0  0  0  0  0  0  0  0  0
    6.7615   -0.5386    0.6522 O   0  0  0  0  0  0  0  0  0  0  0  0
    7.7134   -2.5780    0.1945 N   0  0  0  0  0  0  0  0  0  0  0  0
    8.0137   -3.4244   -0.9790 C   0  0  0  0  0  0  0  0  0  0  0  0
    9.0414   -2.8046   -1.9259 C   0  0  0  0  0  0  0  0  0  0  0  0
   10.6532   -2.5331   -1.1115 S   0  0  0  0  0  0  0  0  0  0  0  0
   10.0099   -1.5172    0.2663 C   0  0  0  0  0  0  0  0  0  0  0  0
    8.8645   -2.1868    1.0277 C   0  0  2  0  0  0  0  0  0  0  0  0
    9.3547   -3.3575    1.9052 C   0  0  0  0  0  0  0  0  0  0  0  0
   10.4420   -3.3882    2.4096 O   0  0  0  0  0  0  0  0  0  0  0  0
    8.4309   -4.3094    2.1260 O   0  0  0  0  0  0  0  0  0  0  0  0
    3.0765    1.7903   -1.3170 H   0  0  0  0  0  0  0  0  0  0  0  0
    5.4919    0.7793   -0.7117 H   0  0  0  0  0  0  0  0  0  0  0  0
    4.8874    0.3166   -2.3348 H   0  0  0  0  0  0  0  0  0  0  0  0
    3.8057   -1.6266   -1.5337 H   0  0  0  0  0  0  0  0  0  0  0  0
    4.1033   -0.5770    1.3002 H   0  0  0  0  0  0  0  0  0  0  0  0
    2.1252   -2.5632    0.0341 H   0  0  0  0  0  0  0  0  0  0  0  0
    2.2045   -2.1390    1.7487 H   0  0  0  0  0  0  0  0  0  0  0  0
    3.4600   -4.3139    1.1902 H   0  0  0  0  0  0  0  0  0  0  0  0
    4.4755   -3.0871    1.9596 H   0  0  0  0  0  0  0  0  0  0  0  0
    4.3868   -3.7841   -1.0381 H   0  0  0  0  0  0  0  0  0  0  0  0
    5.6983   -4.1193    0.0969 H   0  0  0  0  0  0  0  0  0  0  0  0
    7.0798   -3.5967   -1.5272 H   0  0  0  0  0  0  0  0  0  0  0  0
    8.3876   -4.4002   -0.6271 H   0  0  0  0  0  0  0  0  0  0  0  0
    8.6621   -1.8558   -2.3429 H   0  0  0  0  0  0  0  0  0  0  0  0
    9.2287   -3.4898   -2.7667 H   0  0  0  0  0  0  0  0  0  0  0  0
    9.6740   -0.5400   -0.1129 H   0  0  0  0  0  0  0  0  0  0  0  0
   10.8514   -1.3634    0.9548 H   0  0  0  0  0  0  0  0  0  0  0  0
    8.4743   -1.4359    1.7336 H   0  0  0  0  0  0  0  0  0  0  0  0
    7.6372   -4.0523    1.6224 H   0  0  0  0  0  0  0  0  0  0  0  0
  1  2  2  0
  2  3  1  0
  2  6  1  0
  3  4  1  0
  3 22  1  0
  4  5  1  0
  4 23  1  0
  4 24  1  0
  5  6  1  0
  5 10  1  0
  5 25  1  6
  6  7  1  0
  6 26  1  1
  7  8  1  0
  7 27  1  0
  7 28  1  0
  8  9  1  0
  8 29  1  0
  8 30  1  0
  9 10  1  0
  9 31  1  0
  9 32  1  0
 10 11  1  0
 11 12  2  0
 11 13  1  0
 13 14  1  0
 13 18  1  0
 14 15  1  0
 14 33  1  0
 14 34  1  0
 15 16  1  0
 15 35  1  0
 15 36  1  0
 16 17  1  0
 17 18  1  0
 17 37  1  0
 17 38  1  0
 18 19  1  0
 18 39  1  1
 19 20  2  0
 19 21  1  0
 21 40  1  0
M  END

