
     RDKit          3D

 61 63  0  0  0  0  0  0  0  0999 V2000
    6.1070   -2.8971    3.6172 C   0  0  0  0  0  0  0  0  0  0  0  0
    5.0837   -1.8288    4.0003 C   0  0  0  0  0  0  0  0  0  0  0  0
    3.9122   -1.7188    3.0113 C   0  0  1  0  0  0  0  0  0  0  0  0
    2.9072   -0.6479    3.4940 C   0  0  0  0  0  0  0  0  0  0  0  0
    3.3411    0.3934    3.9775 O   0  0  0  0  0  0  0  0  0  0  0  0
    1.5655   -0.8823    3.3481 N   0  0  0  0  0  0  0  0  0  0  0  0
    0.6184    0.1175    3.8511 C   0  0  0  0  0  0  0  0  0  0  0  0
   -0.3218    0.6161    2.7500 C   0  0  0  0  0  0  0  0  0  0  0  0
   -1.0427   -0.5313    2.0191 C   0  0  2  0  0  0  0  0  0  0  0  0
   -2.1912   -1.1471    2.8497 C   0  0  0  0  0  0  0  0  0  0  0  0
   -3.2207   -0.1789    3.2113 N   0  0  0  0  0  0  0  0  0  0  0  0
   -4.1830    0.1499    2.1630 C   0  0  0  0  0  0  0  0  0  0  0  0
   -5.3492   -0.8489    2.0839 C   0  0  2  0  0  0  0  0  0  0  0  0
   -6.4268   -0.4298    1.0981 C   0  0  0  0  0  0  0  0  0  0  0  0
   -5.9622   -0.9757    3.3625 O   0  0  0  0  0  0  0  0  0  0  0  0
   -5.0690   -1.3841    4.3929 C   0  0  2  0  0  0  0  0  0  0  0  0
   -5.8695   -1.4884    5.6799 C   0  0  0  0  0  0  0  0  0  0  0  0
   -3.9040   -0.3864    4.4833 C   0  0  0  0  0  0  0  0  0  0  0  0
   -0.0158   -1.5927    1.5822 C   0  0  0  0  0  0  0  0  0  0  0  0
    0.9321   -2.0362    2.7072 C   0  0  0  0  0  0  0  0  0  0  0  0
    4.3411   -1.3861    1.6553 N   0  0  0  0  0  0  0  0  0  0  0  0
    5.1785   -0.2330    1.3292 C   0  0  0  0  0  0  0  0  0  0  0  0
    5.0198   -0.1077   -0.1988 C   0  0  0  0  0  0  0  0  0  0  0  0
    4.6831   -1.5346   -0.6520 C   0  0  0  0  0  0  0  0  0  0  0  0
    4.0110   -2.1579    0.5703 C   0  0  0  0  0  0  0  0  0  0  0  0
    3.3175   -3.1613    0.5974 O   0  0  0  0  0  0  0  0  0  0  0  0
    6.9151   -2.9516    4.3635 H   0  0  0  0  0  0  0  0  0  0  0  0
    6.5726   -2.6864    2.6411 H   0  0  0  0  0  0  0  0  0  0  0  0
    5.6456   -3.8961    3.5493 H   0  0  0  0  0  0  0  0  0  0  0  0
    5.5574   -0.8411    4.1090 H   0  0  0  0  0  0  0  0  0  0  0  0
    4.6565   -2.0581    4.9911 H   0  0  0  0  0  0  0  0  0  0  0  0
    3.4396   -2.7044    2.9248 H   0  0  0  0  0  0  0  0  0  0  0  0
    1.2050    0.9409    4.2746 H   0  0  0  0  0  0  0  0  0  0  0  0
    0.0378   -0.3378    4.6758 H   0  0  0  0  0  0  0  0  0  0  0  0
    0.2698    1.1965    2.0214 H   0  0  0  0  0  0  0  0  0  0  0  0
   -1.0685    1.2978    3.1861 H   0  0  0  0  0  0  0  0  0  0  0  0
   -1.4966   -0.1152    1.1028 H   0  0  0  0  0  0  0  0  0  0  0  0
   -1.7872   -1.5643    3.7859 H   0  0  0  0  0  0  0  0  0  0  0  0
   -2.5908   -2.0185    2.2866 H   0  0  0  0  0  0  0  0  0  0  0  0
   -3.6694    0.2120    1.1909 H   0  0  0  0  0  0  0  0  0  0  0  0
   -4.6058    1.1507    2.3706 H   0  0  0  0  0  0  0  0  0  0  0  0
   -4.9467   -1.8411    1.7841 H   0  0  0  0  0  0  0  0  0  0  0  0
   -6.8331    0.5573    1.3708 H   0  0  0  0  0  0  0  0  0  0  0  0
   -7.2554   -1.1535    1.1090 H   0  0  0  0  0  0  0  0  0  0  0  0
   -6.0237   -0.3730    0.0747 H   0  0  0  0  0  0  0  0  0  0  0  0
   -4.6585   -2.3849    4.1339 H   0  0  0  0  0  0  0  0  0  0  0  0
   -6.2737   -0.5027    5.9611 H   0  0  0  0  0  0  0  0  0  0  0  0
   -5.2413   -1.8589    6.5052 H   0  0  0  0  0  0  0  0  0  0  0  0
   -6.7165   -2.1780    5.5470 H   0  0  0  0  0  0  0  0  0  0  0  0
   -3.1754   -0.7130    5.2428 H   0  0  0  0  0  0  0  0  0  0  0  0
   -4.3189    0.5826    4.8207 H   0  0  0  0  0  0  0  0  0  0  0  0
    0.5997   -1.1843    0.7631 H   0  0  0  0  0  0  0  0  0  0  0  0
   -0.5225   -2.4847    1.1758 H   0  0  0  0  0  0  0  0  0  0  0  0
    1.6842   -2.7045    2.2746 H   0  0  0  0  0  0  0  0  0  0  0  0
    0.3765   -2.6091    3.4744 H   0  0  0  0  0  0  0  0  0  0  0  0
    6.2314   -0.4196    1.6141 H   0  0  0  0  0  0  0  0  0  0  0  0
    4.8413    0.6581    1.8788 H   0  0  0  0  0  0  0  0  0  0  0  0
    5.9173    0.3095   -0.6775 H   0  0  0  0  0  0  0  0  0  0  0  0
    4.1785    0.5660   -0.4275 H   0  0  0  0  0  0  0  0  0  0  0  0
    5.5869   -2.1272   -0.8794 H   0  0  0  0  0  0  0  0  0  0  0  0
    4.0229   -1.6006   -1.5280 H   0  0  0  0  0  0  0  0  0  0  0  0
  1  2  1  0
  1 27  1  0
  1 28  1  0
  1 29  1  0
  2  3  1  0
  2 30  1  0
  2 31  1  0
  3  4  1  0
  3 21  1  0
  3 32  1  6
  4  5  2  0
  4  6  1  0
  6  7  1  0
  6 20  1  0
  7  8  1  0
  7 33  1  0
  7 34  1  0
  8  9  1  0
  8 35  1  0
  8 36  1  0
  9 10  1  0
  9 19  1  0
  9 37  1  6
 10 11  1  0
 10 38  1  0
 10 39  1  0
 11 12  1  0
 11 18  1  0
 12 13  1  0
 12 40  1  0
 12 41  1  0
 13 14  1  0
 13 15  1  0
 13 42  1  6
 14 43  1  0
 14 44  1  0
 14 45  1  0
 15 16  1  0
 16 17  1  0
 16 18  1  0
 16 46  1  6
 17 47  1  0
 17 48  1  0
 17 49  1  0
 18 50  1  0
 18 51  1  0
 19 20  1  0
 19 52  1  0
 19 53  1  0
 20 54  1  0
 20 55  1  0
 21 22  1  0
 21 25  1  0
 22 23  1  0
 22 56  1  0
 22 57  1  0
 23 24  1  0
 23 58  1  0
 23 59  1  0
 24 25  1  0
 24 60  1  0
 24 61  1  0
 25 26  2  0
M  END

