
     RDKit          3D

 48 50  0  0  0  0  0  0  0  0999 V2000
    1.7138    0.6883   -0.1075 C   0  0  0  0  0  0  0  0  0  0  0  0
    1.6055   -0.0204    1.2426 C   0  0  0  0  0  0  0  0  0  0  0  0
    2.4836   -1.1662    1.3678 N   0  0  0  0  0  0  0  0  0  0  0  0
    3.9058   -1.0495    1.6103 C   0  0  0  0  0  0  0  0  0  0  0  0
    4.3468   -2.5203    1.6306 C   0  0  0  0  0  0  0  0  0  0  0  0
    3.1278   -3.2080    2.0301 N   0  0  0  0  0  0  0  0  0  0  0  0
    3.1067   -4.5646    2.3833 C   0  0  0  0  0  0  0  0  0  0  0  0
    4.1811   -5.4112    2.0435 C   0  0  0  0  0  0  0  0  0  0  0  0
    4.1520   -6.7481    2.4315 C   0  0  0  0  0  0  0  0  0  0  0  0
    3.0366   -7.2224    3.1422 C   0  0  0  0  0  0  0  0  0  0  0  0
    2.8661   -8.5452    3.5804 N   0  0  0  0  0  0  0  0  0  0  0  0
    3.7392   -9.6097    3.4624 C   0  0  0  0  0  0  0  0  0  0  0  0
    4.8541   -9.4969    2.9731 O   0  0  0  0  0  0  0  0  0  0  0  0
    3.2052  -10.9129    3.9845 C   0  0  0  0  0  0  0  0  0  0  0  0
    1.8376  -11.2277    3.8517 C   0  0  0  0  0  0  0  0  0  0  0  0
    1.3136  -12.4337    4.2945 C   0  0  0  0  0  0  0  0  0  0  0  0
    2.1645  -13.3722    4.9004 C   0  0  0  0  0  0  0  0  0  0  0  0
    1.5874  -14.5234    5.3160 O   0  0  0  0  0  0  0  0  0  0  0  0
    2.3776  -15.5223    5.9239 C   0  0  0  0  0  0  0  0  0  0  0  0
    3.5293  -13.0760    5.0337 C   0  0  0  0  0  0  0  0  0  0  0  0
    4.0710  -11.8648    4.5747 C   0  0  0  0  0  0  0  0  0  0  0  0
    5.5542  -11.6313    4.7347 C   0  0  0  0  0  0  0  0  0  0  0  0
    2.0217   -6.2897    3.4285 C   0  0  0  0  0  0  0  0  0  0  0  0
    2.0603   -5.0138    3.0785 N   0  0  0  0  0  0  0  0  0  0  0  0
    1.9958   -2.4123    1.7432 C   0  0  0  0  0  0  0  0  0  0  0  0
    0.8329   -2.7352    1.7843 O   0  0  0  0  0  0  0  0  0  0  0  0
    1.0193    1.5427   -0.1478 H   0  0  0  0  0  0  0  0  0  0  0  0
    1.4627    0.0008   -0.9301 H   0  0  0  0  0  0  0  0  0  0  0  0
    2.7286    1.0798   -0.2877 H   0  0  0  0  0  0  0  0  0  0  0  0
    0.5848   -0.4021    1.3932 H   0  0  0  0  0  0  0  0  0  0  0  0
    1.8125    0.6955    2.0635 H   0  0  0  0  0  0  0  0  0  0  0  0
    4.1124   -0.5501    2.5797 H   0  0  0  0  0  0  0  0  0  0  0  0
    4.4199   -0.4777    0.8219 H   0  0  0  0  0  0  0  0  0  0  0  0
    5.1653   -2.7077    2.3419 H   0  0  0  0  0  0  0  0  0  0  0  0
    4.6846   -2.8427    0.6268 H   0  0  0  0  0  0  0  0  0  0  0  0
    5.0335   -5.0424    1.4719 H   0  0  0  0  0  0  0  0  0  0  0  0
    4.9681   -7.4258    2.1919 H   0  0  0  0  0  0  0  0  0  0  0  0
    2.0172   -8.7164    4.1063 H   0  0  0  0  0  0  0  0  0  0  0  0
    1.1667  -10.5223    3.3545 H   0  0  0  0  0  0  0  0  0  0  0  0
    0.2565  -12.6779    4.1765 H   0  0  0  0  0  0  0  0  0  0  0  0
    1.6989  -16.3503    6.1684 H   0  0  0  0  0  0  0  0  0  0  0  0
    2.8516  -15.1618    6.8543 H   0  0  0  0  0  0  0  0  0  0  0  0
    3.1648  -15.8936    5.2438 H   0  0  0  0  0  0  0  0  0  0  0  0
    4.2029  -13.7946    5.5013 H   0  0  0  0  0  0  0  0  0  0  0  0
    6.0041  -12.4126    5.3649 H   0  0  0  0  0  0  0  0  0  0  0  0
    5.7701  -10.6503    5.1836 H   0  0  0  0  0  0  0  0  0  0  0  0
    6.0565  -11.6271    3.7563 H   0  0  0  0  0  0  0  0  0  0  0  0
    1.1334   -6.6140    3.9902 H   0  0  0  0  0  0  0  0  0  0  0  0
  1  2  1  0
  1 27  1  0
  1 28  1  0
  1 29  1  0
  2  3  1  0
  2 30  1  0
  2 31  1  0
  3  4  1  0
  3 25  1  0
  4  5  1  0
  4 32  1  0
  4 33  1  0
  5  6  1  0
  5 34  1  0
  5 35  1  0
  6  7  1  0
  6 25  1  0
  7  8  2  0
  7 24  1  0
  8  9  1  0
  8 36  1  0
  9 10  2  0
  9 37  1  0
 10 11  1  0
 10 23  1  0
 11 12  1  0
 11 38  1  0
 12 13  2  0
 12 14  1  0
 14 15  2  0
 14 21  1  0
 15 16  1  0
 15 39  1  0
 16 17  2  0
 16 40  1  0
 17 18  1  0
 17 20  1  0
 18 19  1  0
 19 41  1  0
 19 42  1  0
 19 43  1  0
 20 21  2  0
 20 44  1  0
 21 22  1  0
 22 45  1  0
 22 46  1  0
 22 47  1  0
 23 24  2  0
 23 48  1  0
 25 26  2  0
M  END

