
     RDKit          3D

 23 23  0  0  0  0  0  0  0  0999 V2000
    0.9044    0.1252   -0.1594 O   0  0  0  0  0  0  0  0  0  0  0  0
    2.1334    0.0711   -0.0876 C   0  0  0  0  0  0  0  0  0  0  0  0
    2.8547   -0.6930   -0.9530 N   0  0  0  0  0  0  0  0  0  0  0  0
    2.1700   -1.4945   -1.9617 C   0  0  1  0  0  0  0  0  0  0  0  0
    1.6851   -2.3578   -1.4571 H   0  0  0  0  0  0  0  0  0  0  0  0
    1.2474   -0.7580   -2.6850 O   0  0  0  0  0  0  0  0  0  0  0  0
    3.1745   -2.0926   -2.9537 C   0  0  1  0  0  0  0  0  0  0  0  0
    4.1120   -0.8339   -3.8101 Cl  0  0  0  0  0  0  0  0  0  0  0  0
    4.2716   -3.2405   -2.1034 Cl  0  0  0  0  0  0  0  0  0  0  0  0
    2.8980    0.8360    0.9526 C   0  0  0  0  0  0  0  0  0  0  0  0
    2.1894    1.2906    2.0757 C   0  0  0  0  0  0  0  0  0  0  0  0
    2.8433    2.0064    3.0786 C   0  0  0  0  0  0  0  0  0  0  0  0
    4.2088    2.2889    2.9620 C   0  0  0  0  0  0  0  0  0  0  0  0
    4.9172    1.8570    1.8365 C   0  0  0  0  0  0  0  0  0  0  0  0
    4.2659    1.1330    0.8354 C   0  0  0  0  0  0  0  0  0  0  0  0
    3.8472   -0.8380   -0.8117 H   0  0  0  0  0  0  0  0  0  0  0  0
    0.6673   -0.3549   -2.0078 H   0  0  0  0  0  0  0  0  0  0  0  0
    2.6267   -2.6625   -3.7115 H   0  0  0  0  0  0  0  0  0  0  0  0
    1.1222    1.0700    2.1387 H   0  0  0  0  0  0  0  0  0  0  0  0
    2.2864    2.3495    3.9540 H   0  0  0  0  0  0  0  0  0  0  0  0
    4.7203    2.8534    3.7458 H   0  0  0  0  0  0  0  0  0  0  0  0
    5.9794    2.0919    1.7329 H   0  0  0  0  0  0  0  0  0  0  0  0
    4.8261    0.8330   -0.0538 H   0  0  0  0  0  0  0  0  0  0  0  0
  1  2  2  0
  2  3  1  0
  2 10  1  0
  3  4  1  0
  3 16  1  0
  4  5  1  1
  4  6  1  0
  4  7  1  0
  6 17  1  0
  7  8  1  0
  7  9  1  0
  7 18  1  6
 10 11  2  0
 10 15  1  0
 11 12  1  0
 11 19  1  0
 12 13  2  0
 12 20  1  0
 13 14  1  0
 13 21  1  0
 14 15  2  0
 14 22  1  0
 15 23  1  0
M  END

