
     RDKit          3D

 41 42  0  0  0  0  0  0  0  0999 V2000
    0.7102    0.5327   -1.0759 C   0  0  0  0  0  0  0  0  0  0  0  0
    2.1679    0.2608   -0.8058 C   0  0  0  0  0  0  0  0  0  0  0  0
    3.1606    1.1052   -1.3250 C   0  0  0  0  0  0  0  0  0  0  0  0
    4.5187    0.8903   -1.0950 C   0  0  0  0  0  0  0  0  0  0  0  0
    4.9485   -0.2039   -0.3219 C   0  0  0  0  0  0  0  0  0  0  0  0
    6.3390   -0.4403   -0.0773 C   0  0  0  0  0  0  0  0  0  0  0  0
    7.5222   -0.6243    0.1335 C   0  0  0  0  0  0  0  0  0  0  0  0
    8.9460   -0.8824    0.3684 C   0  0  0  0  0  0  0  0  0  0  0  0
    9.7698   -0.4881   -0.7737 N   0  0  0  0  0  0  0  0  0  0  0  0
    3.9673   -1.0669    0.2073 C   0  0  0  0  0  0  0  0  0  0  0  0
    2.6155   -0.8350   -0.0316 C   0  0  0  0  0  0  0  0  0  0  0  0
    1.3731   -1.9529    0.6653 S   0  0  1  0  0  0  0  0  0  0  0  0
    0.5951   -1.1743    1.6388 O   0  0  0  0  0  0  0  0  0  0  0  0
    0.6939   -2.6083   -0.4607 O   0  0  0  0  0  0  0  0  0  0  0  0
    2.2398   -3.1248    1.5027 N   0  0  0  0  0  0  0  0  0  0  0  0
    2.3439   -2.9791    2.9621 C   0  0  0  0  0  0  0  0  0  0  0  0
    1.2614   -3.7515    3.7148 C   0  0  0  0  0  0  0  0  0  0  0  0
    1.3023   -5.5452    3.3388 S   0  0  0  0  0  0  0  0  0  0  0  0
    1.2269   -5.3910    1.5126 C   0  0  0  0  0  0  0  0  0  0  0  0
    2.3255   -4.4883    0.9240 C   0  0  2  0  0  0  0  0  0  0  0  0
    3.7340   -5.0721    1.0595 C   0  0  0  0  0  0  0  0  0  0  0  0
    0.5890    1.4334   -1.6935 H   0  0  0  0  0  0  0  0  0  0  0  0
    0.1568    0.6690   -0.1342 H   0  0  0  0  0  0  0  0  0  0  0  0
    0.2419   -0.3193   -1.5922 H   0  0  0  0  0  0  0  0  0  0  0  0
    2.8523    1.9624   -1.9295 H   0  0  0  0  0  0  0  0  0  0  0  0
    5.2606    1.5722   -1.5150 H   0  0  0  0  0  0  0  0  0  0  0  0
    9.0509   -1.9478    0.6736 H   0  0  0  0  0  0  0  0  0  0  0  0
    9.2685   -0.2910    1.2450 H   0  0  0  0  0  0  0  0  0  0  0  0
    9.5388   -1.0624   -1.5851 H   0  0  0  0  0  0  0  0  0  0  0  0
   10.7527   -0.6623   -0.5630 H   0  0  0  0  0  0  0  0  0  0  0  0
    4.2703   -1.9229    0.8089 H   0  0  0  0  0  0  0  0  0  0  0  0
    2.2699   -1.9105    3.2057 H   0  0  0  0  0  0  0  0  0  0  0  0
    3.3435   -3.3250    3.2730 H   0  0  0  0  0  0  0  0  0  0  0  0
    0.2706   -3.3370    3.4691 H   0  0  0  0  0  0  0  0  0  0  0  0
    1.4120   -3.6629    4.8017 H   0  0  0  0  0  0  0  0  0  0  0  0
    0.2412   -4.9974    1.2186 H   0  0  0  0  0  0  0  0  0  0  0  0
    1.3151   -6.4147    1.1181 H   0  0  0  0  0  0  0  0  0  0  0  0
    2.0972   -4.3732   -0.1445 H   0  0  0  0  0  0  0  0  0  0  0  0
    3.9935   -5.2823    2.1074 H   0  0  0  0  0  0  0  0  0  0  0  0
    4.4850   -4.3895    0.6342 H   0  0  0  0  0  0  0  0  0  0  0  0
    3.7924   -6.0244    0.5091 H   0  0  0  0  0  0  0  0  0  0  0  0
  1  2  1  0
  1 22  1  0
  1 23  1  0
  1 24  1  0
  2  3  2  0
  2 11  1  0
  3  4  1  0
  3 25  1  0
  4  5  2  0
  4 26  1  0
  5  6  1  0
  5 10  1  0
  6  7  3  0
  7  8  1  0
  8  9  1  0
  8 27  1  0
  8 28  1  0
  9 29  1  0
  9 30  1  0
 10 11  2  0
 10 31  1  0
 12 11  1  6
 12 13  2  0
 12 14  2  0
 12 15  1  0
 15 16  1  0
 15 20  1  0
 16 17  1  0
 16 32  1  0
 16 33  1  0
 17 18  1  0
 17 34  1  0
 17 35  1  0
 18 19  1  0
 19 20  1  0
 19 36  1  0
 19 37  1  0
 20 21  1  0
 20 38  1  6
 21 39  1  0
 21 40  1  0
 21 41  1  0
M  END

