
     RDKit          3D

 26 28  0  0  0  0  0  0  0  0999 V2000
    2.1604   -1.2046    0.3308 O   0  0  0  0  0  0  0  0  0  0  0  0
    2.2131   -0.0475   -0.0099 C   0  0  0  0  0  0  0  0  0  0  0  0
    1.6542    0.9354    0.6901 O   0  0  0  0  0  0  0  0  0  0  0  0
    2.9316    0.3634   -1.2753 C   0  0  0  0  0  0  0  0  0  0  0  0
    3.5302   -0.5964   -2.0419 C   0  0  0  0  0  0  0  0  0  0  0  0
    4.2247   -0.2735   -3.2500 C   0  0  0  0  0  0  0  0  0  0  0  0
    4.2594    1.0798   -3.6091 C   0  0  0  0  0  0  0  0  0  0  0  0
    4.9109    1.5355   -4.7779 C   0  0  0  0  0  0  0  0  0  0  0  0
    5.5331    0.6205   -5.5924 C   0  0  0  0  0  0  0  0  0  0  0  0
    5.5382   -0.7749   -5.2887 C   0  0  0  0  0  0  0  0  0  0  0  0
    6.1854   -1.7102   -6.1394 C   0  0  0  0  0  0  0  0  0  0  0  0
    6.1862   -3.0573   -5.8392 C   0  0  0  0  0  0  0  0  0  0  0  0
    5.5360   -3.5167   -4.6713 C   0  0  0  0  0  0  0  0  0  0  0  0
    4.8973   -2.6299   -3.8238 C   0  0  0  0  0  0  0  0  0  0  0  0
    4.8786   -1.2398   -4.1044 C   0  0  0  0  0  0  0  0  0  0  0  0
    3.6634    2.0295   -2.8452 O   0  0  0  0  0  0  0  0  0  0  0  0
    2.9910    1.7618   -1.6804 C   0  0  0  0  0  0  0  0  0  0  0  0
    2.4982    2.7001   -1.0818 O   0  0  0  0  0  0  0  0  0  0  0  0
    1.8160    1.7977    0.2338 H   0  0  0  0  0  0  0  0  0  0  0  0
    3.4508   -1.6253   -1.6850 H   0  0  0  0  0  0  0  0  0  0  0  0
    4.9009    2.6035   -5.0000 H   0  0  0  0  0  0  0  0  0  0  0  0
    6.0407    0.9589   -6.4994 H   0  0  0  0  0  0  0  0  0  0  0  0
    6.6847   -1.3424   -7.0396 H   0  0  0  0  0  0  0  0  0  0  0  0
    6.6867   -3.7690   -6.4997 H   0  0  0  0  0  0  0  0  0  0  0  0
    5.5374   -4.5834   -4.4347 H   0  0  0  0  0  0  0  0  0  0  0  0
    4.4036   -3.0120   -2.9294 H   0  0  0  0  0  0  0  0  0  0  0  0
  1  2  2  0
  2  3  1  0
  2  4  1  0
  3 19  1  0
  4  5  2  0
  4 17  1  0
  5  6  1  0
  5 20  1  0
  6  7  2  0
  6 15  1  0
  7  8  1  0
  7 16  1  0
  8  9  2  0
  8 21  1  0
  9 10  1  0
  9 22  1  0
 10 11  1  0
 10 15  2  0
 11 12  2  0
 11 23  1  0
 12 13  1  0
 12 24  1  0
 13 14  2  0
 13 25  1  0
 14 15  1  0
 14 26  1  0
 16 17  1  0
 17 18  2  0
M  END

