
     RDKit          3D

 44 46  0  0  0  0  0  0  0  0999 V2000
    2.8847    1.2514   -0.0434 O   0  0  0  0  0  0  0  0  0  0  0  0
    2.9637    0.2827    0.6649 C   0  0  0  0  0  0  0  0  0  0  0  0
    2.5497    0.3424    1.9518 O   0  0  0  0  0  0  0  0  0  0  0  0
    3.5059   -1.0388    0.1950 C   0  0  0  0  0  0  0  0  0  0  0  0
    3.9654   -2.0394    1.0679 C   0  0  0  0  0  0  0  0  0  0  0  0
    4.4719   -3.2390    0.5697 C   0  0  0  0  0  0  0  0  0  0  0  0
    4.5330   -3.4724   -0.8139 C   0  0  0  0  0  0  0  0  0  0  0  0
    5.0905   -4.7720   -1.3526 C   0  0  0  0  0  0  0  0  0  0  0  0
    4.4356   -5.9357   -0.7540 N   0  0  0  0  0  0  0  0  0  0  0  0
    4.8977   -7.2425   -1.2552 C   0  0  1  0  0  0  0  0  0  0  0  0
    6.3451   -7.4743   -0.8823 C   0  0  0  0  0  0  0  0  0  0  0  0
    6.9836   -7.2552    0.3185 C   0  0  0  0  0  0  0  0  0  0  0  0
    8.3645   -7.6182    0.2976 C   0  0  0  0  0  0  0  0  0  0  0  0
    8.7650   -8.1103   -0.9190 C   0  0  0  0  0  0  0  0  0  0  0  0
    7.4598   -8.1257   -2.0525 S   0  0  0  0  0  0  0  0  0  0  0  0
    3.9365   -8.3550   -0.7486 C   0  0  1  0  0  0  0  0  0  0  0  0
    3.9458   -8.5035    0.7815 C   0  0  0  0  0  0  0  0  0  0  0  0
    3.5515   -7.3426    1.4740 O   0  0  0  0  0  0  0  0  0  0  0  0
    2.4820   -8.2707   -1.3168 C   0  0  0  0  0  0  0  0  0  0  0  0
    2.5506   -9.7801   -1.6621 C   0  0  0  0  0  0  0  0  0  0  0  0
    4.0845   -9.7417   -1.4408 C   0  0  0  0  0  0  0  0  0  0  0  0
    4.0813   -2.4659   -1.6814 C   0  0  0  0  0  0  0  0  0  0  0  0
    3.5857   -1.2598   -1.1871 C   0  0  0  0  0  0  0  0  0  0  0  0
    2.5464   -0.5397    2.3485 H   0  0  0  0  0  0  0  0  0  0  0  0
    3.9653   -1.8828    2.1511 H   0  0  0  0  0  0  0  0  0  0  0  0
    4.8312   -4.0039    1.2615 H   0  0  0  0  0  0  0  0  0  0  0  0
    6.1670   -4.8341   -1.1209 H   0  0  0  0  0  0  0  0  0  0  0  0
    5.0132   -4.7738   -2.4598 H   0  0  0  0  0  0  0  0  0  0  0  0
    3.4302   -5.8663   -0.9178 H   0  0  0  0  0  0  0  0  0  0  0  0
    4.8407   -7.2686   -2.3657 H   0  0  0  0  0  0  0  0  0  0  0  0
    6.4746   -6.8467    1.1926 H   0  0  0  0  0  0  0  0  0  0  0  0
    9.0333   -7.5179    1.1540 H   0  0  0  0  0  0  0  0  0  0  0  0
    9.7523   -8.4628   -1.2141 H   0  0  0  0  0  0  0  0  0  0  0  0
    4.9524   -8.8481    1.0930 H   0  0  0  0  0  0  0  0  0  0  0  0
    3.2434   -9.3072    1.0623 H   0  0  0  0  0  0  0  0  0  0  0  0
    3.9691   -6.5899    1.0139 H   0  0  0  0  0  0  0  0  0  0  0  0
    2.4159   -7.6433   -2.2215 H   0  0  0  0  0  0  0  0  0  0  0  0
    1.7086   -7.9435   -0.6052 H   0  0  0  0  0  0  0  0  0  0  0  0
    2.2049  -10.0714   -2.6651 H   0  0  0  0  0  0  0  0  0  0  0  0
    2.0280  -10.4088   -0.9261 H   0  0  0  0  0  0  0  0  0  0  0  0
    4.6487   -9.6834   -2.3845 H   0  0  0  0  0  0  0  0  0  0  0  0
    4.5297  -10.5436   -0.8307 H   0  0  0  0  0  0  0  0  0  0  0  0
    4.1222   -2.6289   -2.7620 H   0  0  0  0  0  0  0  0  0  0  0  0
    3.2458   -0.4702   -1.8599 H   0  0  0  0  0  0  0  0  0  0  0  0
  1  2  2  0
  2  3  1  0
  2  4  1  0
  3 24  1  0
  4  5  2  0
  4 23  1  0
  5  6  1  0
  5 25  1  0
  6  7  2  0
  6 26  1  0
  7  8  1  0
  7 22  1  0
  8  9  1  0
  8 27  1  0
  8 28  1  0
  9 10  1  0
  9 29  1  0
 10 11  1  0
 10 16  1  0
 10 30  1  6
 11 12  2  0
 11 15  1  0
 12 13  1  0
 12 31  1  0
 13 14  2  0
 13 32  1  0
 14 15  1  0
 14 33  1  0
 16 17  1  1
 16 19  1  0
 16 21  1  0
 17 18  1  0
 17 34  1  0
 17 35  1  0
 18 36  1  0
 19 20  1  0
 19 37  1  0
 19 38  1  0
 20 21  1  0
 20 39  1  0
 20 40  1  0
 21 41  1  0
 21 42  1  0
 22 23  2  0
 22 43  1  0
 23 44  1  0
M  END

