
     RDKit          3D

 43 44  0  0  0  0  0  0  0  0999 V2000
    3.5528    7.8130   -4.5649 C   0  0  0  0  0  0  0  0  0  0  0  0
    4.3773    6.9841   -5.3522 O   0  0  0  0  0  0  0  0  0  0  0  0
    4.3817    5.6524   -5.1133 C   0  0  0  0  0  0  0  0  0  0  0  0
    3.6269    4.9879   -4.1402 C   0  0  0  0  0  0  0  0  0  0  0  0
    3.7192    3.5981   -3.9910 C   0  0  0  0  0  0  0  0  0  0  0  0
    4.5576    2.8209   -4.8024 C   0  0  0  0  0  0  0  0  0  0  0  0
    4.6451    1.3136   -4.5328 C   0  0  1  0  0  0  0  0  0  0  0  0
    3.4652    0.8544   -3.8860 O   0  0  0  0  0  0  0  0  0  0  0  0
    5.0047    0.3656   -5.7393 C   0  0  1  0  0  0  0  0  0  0  0  0
    6.2515    0.7633   -6.3328 O   0  0  0  0  0  0  0  0  0  0  0  0
    7.4515    0.6359   -5.6059 C   0  0  0  0  0  0  0  0  0  0  0  0
    5.0867   -1.0768   -5.1947 C   0  0  0  0  0  0  0  0  0  0  0  0
    5.3403   -2.2017   -6.2097 C   0  0  0  0  0  0  0  0  0  0  0  0
    4.1200   -2.5511   -7.0777 C   0  0  0  0  0  0  0  0  0  0  0  0
    3.8913   -1.6633   -8.3170 C   0  0  0  0  0  0  0  0  0  0  0  0
    4.3026   -0.1867   -8.1900 C   0  0  0  0  0  0  0  0  0  0  0  0
    3.9593    0.5220   -6.8687 C   0  0  0  0  0  0  0  0  0  0  0  0
    5.3219    3.4933   -5.7776 C   0  0  0  0  0  0  0  0  0  0  0  0
    5.2267    4.8673   -5.9223 C   0  0  0  0  0  0  0  0  0  0  0  0
    5.9572    5.4833   -6.8626 F   0  0  0  0  0  0  0  0  0  0  0  0
    3.7058    8.8390   -4.9253 H   0  0  0  0  0  0  0  0  0  0  0  0
    3.8237    7.7652   -3.4945 H   0  0  0  0  0  0  0  0  0  0  0  0
    2.4843    7.5515   -4.6721 H   0  0  0  0  0  0  0  0  0  0  0  0
    2.9613    5.5488   -3.4834 H   0  0  0  0  0  0  0  0  0  0  0  0
    3.1296    3.1098   -3.2141 H   0  0  0  0  0  0  0  0  0  0  0  0
    5.4337    1.1617   -3.7750 H   0  0  0  0  0  0  0  0  0  0  0  0
    2.7119    1.0859   -4.4475 H   0  0  0  0  0  0  0  0  0  0  0  0
    8.2445    1.0638   -6.2373 H   0  0  0  0  0  0  0  0  0  0  0  0
    7.7155   -0.4154   -5.3933 H   0  0  0  0  0  0  0  0  0  0  0  0
    7.4432    1.1921   -4.6500 H   0  0  0  0  0  0  0  0  0  0  0  0
    4.1490   -1.2781   -4.6569 H   0  0  0  0  0  0  0  0  0  0  0  0
    5.8703   -1.1041   -4.4189 H   0  0  0  0  0  0  0  0  0  0  0  0
    5.6248   -3.0990   -5.6344 H   0  0  0  0  0  0  0  0  0  0  0  0
    6.2113   -1.9641   -6.8450 H   0  0  0  0  0  0  0  0  0  0  0  0
    3.2265   -2.5213   -6.4289 H   0  0  0  0  0  0  0  0  0  0  0  0
    4.1983   -3.5987   -7.4142 H   0  0  0  0  0  0  0  0  0  0  0  0
    2.8239   -1.7270   -8.5936 H   0  0  0  0  0  0  0  0  0  0  0  0
    4.4413   -2.0879   -9.1751 H   0  0  0  0  0  0  0  0  0  0  0  0
    3.8286    0.3685   -9.0165 H   0  0  0  0  0  0  0  0  0  0  0  0
    5.3859   -0.0799   -8.3479 H   0  0  0  0  0  0  0  0  0  0  0  0
    2.9798    0.1800   -6.4915 H   0  0  0  0  0  0  0  0  0  0  0  0
    3.8557    1.5983   -7.0723 H   0  0  0  0  0  0  0  0  0  0  0  0
    5.9878    2.9493   -6.4450 H   0  0  0  0  0  0  0  0  0  0  0  0
  1  2  1  0
  1 21  1  0
  1 22  1  0
  1 23  1  0
  2  3  1  0
  3  4  2  0
  3 19  1  0
  4  5  1  0
  4 24  1  0
  5  6  2  0
  5 25  1  0
  6  7  1  0
  6 18  1  0
  7  8  1  0
  7  9  1  0
  7 26  1  1
  8 27  1  0
  9 10  1  6
  9 12  1  0
  9 17  1  0
 10 11  1  0
 11 28  1  0
 11 29  1  0
 11 30  1  0
 12 13  1  0
 12 31  1  0
 12 32  1  0
 13 14  1  0
 13 33  1  0
 13 34  1  0
 14 15  1  0
 14 35  1  0
 14 36  1  0
 15 16  1  0
 15 37  1  0
 15 38  1  0
 16 17  1  0
 16 39  1  0
 16 40  1  0
 17 41  1  0
 17 42  1  0
 18 19  2  0
 18 43  1  0
 19 20  1  0
M  END

