
     RDKit          3D

 32 34  0  0  0  0  0  0  0  0999 V2000
    2.5274    2.1601   -0.4895 C   0  0  0  0  0  0  0  0  0  0  0  0
    3.1987    0.9969    0.0533 N   0  0  0  0  0  0  0  0  0  0  0  0
    2.6862    0.2765    1.0376 N   0  0  0  0  0  0  0  0  0  0  0  0
    3.6084   -0.6573    1.2681 C   0  0  0  0  0  0  0  0  0  0  0  0
    4.6765   -0.4497    0.3642 C   0  0  0  0  0  0  0  0  0  0  0  0
    5.8423   -1.2045    0.2257 N   0  0  0  0  0  0  0  0  0  0  0  0
    7.1206   -0.6869    0.0466 C   0  0  0  0  0  0  0  0  0  0  0  0
    7.3520    0.5040    0.0188 O   0  0  0  0  0  0  0  0  0  0  0  0
    8.2067   -1.7211   -0.0905 C   0  0  0  0  0  0  0  0  0  0  0  0
    7.9715   -3.0456   -0.5003 C   0  0  0  0  0  0  0  0  0  0  0  0
    9.0264   -3.9569   -0.6202 C   0  0  0  0  0  0  0  0  0  0  0  0
   10.3253   -3.5407   -0.3251 C   0  0  0  0  0  0  0  0  0  0  0  0
   10.5703   -2.2133    0.0717 C   0  0  0  0  0  0  0  0  0  0  0  0
    9.5223   -1.3037    0.1790 C   0  0  0  0  0  0  0  0  0  0  0  0
   12.0517   -2.0002    0.3026 C   0  0  0  0  0  0  0  0  0  0  0  0
   12.5996   -3.4419    0.4292 C   0  0  0  0  0  0  0  0  0  0  0  0
   11.6222   -4.3176   -0.3912 C   0  0  0  0  0  0  0  0  0  0  0  0
    4.3818    0.6040   -0.3979 N   0  0  0  0  0  0  0  0  0  0  0  0
    1.5616    2.2520    0.0201 H   0  0  0  0  0  0  0  0  0  0  0  0
    2.3738    2.0360   -1.5714 H   0  0  0  0  0  0  0  0  0  0  0  0
    3.1330    3.0620   -0.3154 H   0  0  0  0  0  0  0  0  0  0  0  0
    3.4791   -1.4119    2.0412 H   0  0  0  0  0  0  0  0  0  0  0  0
    5.7695   -2.1830    0.4735 H   0  0  0  0  0  0  0  0  0  0  0  0
    6.9616   -3.3708   -0.7630 H   0  0  0  0  0  0  0  0  0  0  0  0
    8.8281   -4.9813   -0.9476 H   0  0  0  0  0  0  0  0  0  0  0  0
    9.6854   -0.2642    0.4717 H   0  0  0  0  0  0  0  0  0  0  0  0
   12.2685   -1.3755    1.1835 H   0  0  0  0  0  0  0  0  0  0  0  0
   12.4957   -1.4821   -0.5680 H   0  0  0  0  0  0  0  0  0  0  0  0
   12.5628   -3.7523    1.4868 H   0  0  0  0  0  0  0  0  0  0  0  0
   13.6445   -3.5372    0.0979 H   0  0  0  0  0  0  0  0  0  0  0  0
   11.5337   -5.3464   -0.0071 H   0  0  0  0  0  0  0  0  0  0  0  0
   11.9538   -4.4019   -1.4434 H   0  0  0  0  0  0  0  0  0  0  0  0
  1  2  1  0
  1 19  1  0
  1 20  1  0
  1 21  1  0
  2  3  1  0
  2 18  1  0
  3  4  2  0
  4  5  1  0
  4 22  1  0
  5  6  1  0
  5 18  2  0
  6  7  1  0
  6 23  1  0
  7  8  2  0
  7  9  1  0
  9 10  2  0
  9 14  1  0
 10 11  1  0
 10 24  1  0
 11 12  2  0
 11 25  1  0
 12 13  1  0
 12 17  1  0
 13 14  2  0
 13 15  1  0
 14 26  1  0
 15 16  1  0
 15 27  1  0
 15 28  1  0
 16 17  1  0
 16 29  1  0
 16 30  1  0
 17 31  1  0
 17 32  1  0
M  END

