
     RDKit          3D

 40 39  0  0  0  0  0  0  0  0999 V2000
    0.5893    1.9909    1.4649 C   0  0  0  0  0  0  0  0  0  0  0  0
    2.0613    2.2304    1.1201 C   0  0  0  0  0  0  0  0  0  0  0  0
    3.0098    1.0560    1.4618 C   0  0  1  0  0  0  0  0  0  0  0  0
    2.7182   -0.2048    0.6376 C   0  0  0  0  0  0  0  0  0  0  0  0
    4.4332    1.4164    1.4004 N   0  0  0  0  0  0  0  0  0  0  0  0
    4.9430    1.8868    0.1237 C   0  0  0  0  0  0  0  0  0  0  0  0
    6.3283    1.3554   -0.2306 C   0  0  0  0  0  0  0  0  0  0  0  0
    6.2752   -0.0401   -0.3967 O   0  0  0  0  0  0  0  0  0  0  0  0
    7.4986   -0.6129   -0.7710 C   0  0  0  0  0  0  0  0  0  0  0  0
    4.9523    2.0859    2.5809 C   0  0  0  0  0  0  0  0  0  0  0  0
    5.3893    1.1119    3.7113 C   0  0  1  0  0  0  0  0  0  0  0  0
    6.5160    0.1852    3.2585 C   0  0  0  0  0  0  0  0  0  0  0  0
    5.7262    1.9106    4.9744 C   0  0  0  0  0  0  0  0  0  0  0  0
    6.8925    2.2165    5.4037 N   0  0  0  0  0  0  0  0  0  0  0  0
    4.6153    2.4070    5.6325 N   0  0  0  0  0  0  0  0  0  0  0  0
   -0.0160    2.8904    1.2688 H   0  0  0  0  0  0  0  0  0  0  0  0
    0.4632    1.7357    2.5311 H   0  0  0  0  0  0  0  0  0  0  0  0
    0.1525    1.1691    0.8756 H   0  0  0  0  0  0  0  0  0  0  0  0
    2.4130    3.1261    1.6613 H   0  0  0  0  0  0  0  0  0  0  0  0
    2.1526    2.4690    0.0455 H   0  0  0  0  0  0  0  0  0  0  0  0
    2.8214    0.7909    2.5178 H   0  0  0  0  0  0  0  0  0  0  0  0
    2.7996   -0.0153   -0.4450 H   0  0  0  0  0  0  0  0  0  0  0  0
    1.7009   -0.5791    0.8293 H   0  0  0  0  0  0  0  0  0  0  0  0
    3.4384   -0.9964    0.8894 H   0  0  0  0  0  0  0  0  0  0  0  0
    4.9828    2.9969    0.0588 H   0  0  0  0  0  0  0  0  0  0  0  0
    4.2629    1.5573   -0.6751 H   0  0  0  0  0  0  0  0  0  0  0  0
    7.0667    1.6267    0.5528 H   0  0  0  0  0  0  0  0  0  0  0  0
    6.6669    1.8472   -1.1683 H   0  0  0  0  0  0  0  0  0  0  0  0
    7.3459   -1.6971   -0.8777 H   0  0  0  0  0  0  0  0  0  0  0  0
    8.2891   -0.4423   -0.0117 H   0  0  0  0  0  0  0  0  0  0  0  0
    7.8671   -0.2127   -1.7382 H   0  0  0  0  0  0  0  0  0  0  0  0
    4.2247    2.8076    3.0040 H   0  0  0  0  0  0  0  0  0  0  0  0
    5.8343    2.6847    2.2996 H   0  0  0  0  0  0  0  0  0  0  0  0
    4.5111    0.4850    3.9549 H   0  0  0  0  0  0  0  0  0  0  0  0
    7.4375    0.7538    3.0452 H   0  0  0  0  0  0  0  0  0  0  0  0
    6.2254   -0.3253    2.3295 H   0  0  0  0  0  0  0  0  0  0  0  0
    6.7565   -0.5678    4.0249 H   0  0  0  0  0  0  0  0  0  0  0  0
    7.6155    1.8413    4.7883 H   0  0  0  0  0  0  0  0  0  0  0  0
    3.7556    1.8736    5.5884 H   0  0  0  0  0  0  0  0  0  0  0  0
    4.8105    2.8437    6.5277 H   0  0  0  0  0  0  0  0  0  0  0  0
  1  2  1  0
  1 16  1  0
  1 17  1  0
  1 18  1  0
  2  3  1  0
  2 19  1  0
  2 20  1  0
  3  4  1  0
  3  5  1  0
  3 21  1  1
  4 22  1  0
  4 23  1  0
  4 24  1  0
  5  6  1  0
  5 10  1  0
  6  7  1  0
  6 25  1  0
  6 26  1  0
  7  8  1  0
  7 27  1  0
  7 28  1  0
  8  9  1  0
  9 29  1  0
  9 30  1  0
  9 31  1  0
 10 11  1  0
 10 32  1  0
 10 33  1  0
 11 12  1  0
 11 13  1  0
 11 34  1  1
 12 35  1  0
 12 36  1  0
 12 37  1  0
 13 14  2  0
 13 15  1  0
 14 38  1  0
 15 39  1  0
 15 40  1  0
M  END

