
     RDKit          3D

 34 36  0  0  0  0  0  0  0  0999 V2000
    0.8224    0.3332   -0.6529 C   0  0  0  0  0  0  0  0  0  0  0  0
    2.3445    0.4657   -0.6160 C   0  0  0  0  0  0  0  0  0  0  0  0
    3.0543   -0.7452   -1.2291 C   0  0  0  0  0  0  0  0  0  0  0  0
    4.5016   -0.6151   -1.2423 N   0  0  0  0  0  0  0  0  0  0  0  0
    5.3956   -1.1761   -0.3790 C   0  0  0  0  0  0  0  0  0  0  0  0
    6.6414   -0.6922   -0.7530 C   0  0  0  0  0  0  0  0  0  0  0  0
    7.7826   -1.0641   -0.0998 O   0  0  0  0  0  0  0  0  0  0  0  0
    9.0201   -0.6424   -0.4396 C   0  0  0  0  0  0  0  0  0  0  0  0
    9.2857    0.2776   -1.4111 N   0  0  0  0  0  0  0  0  0  0  0  0
   10.5953    0.3938   -1.3825 C   0  0  0  0  0  0  0  0  0  0  0  0
   11.7986    1.3076   -2.2635 S   0  0  0  0  0  0  0  0  0  0  0  0
   13.0620    0.5437   -1.3032 C   0  0  0  0  0  0  0  0  0  0  0  0
   12.5734   -0.3353   -0.3921 C   0  0  0  0  0  0  0  0  0  0  0  0
   11.1883   -0.4074   -0.4344 N   0  0  0  0  0  0  0  0  0  0  0  0
   10.1637   -1.1052    0.2031 C   0  0  0  0  0  0  0  0  0  0  0  0
   10.3683   -2.0437    1.3433 C   0  0  0  0  0  0  0  0  0  0  0  0
   11.4587   -2.9867    1.0731 N   0  0  0  0  0  0  0  0  0  0  0  0
    6.3927    0.1649   -1.8561 C   0  0  0  0  0  0  0  0  0  0  0  0
    5.0875    0.1953   -2.1288 N   0  0  0  0  0  0  0  0  0  0  0  0
    0.3356    1.2173   -0.2130 H   0  0  0  0  0  0  0  0  0  0  0  0
    0.4767   -0.5499   -0.0891 H   0  0  0  0  0  0  0  0  0  0  0  0
    0.4520    0.2312   -1.6868 H   0  0  0  0  0  0  0  0  0  0  0  0
    2.6916    0.5950    0.4238 H   0  0  0  0  0  0  0  0  0  0  0  0
    2.6667    1.3638   -1.1677 H   0  0  0  0  0  0  0  0  0  0  0  0
    2.7270   -0.8892   -2.2713 H   0  0  0  0  0  0  0  0  0  0  0  0
    2.8078   -1.6647   -0.6744 H   0  0  0  0  0  0  0  0  0  0  0  0
    5.1059   -1.8640    0.4112 H   0  0  0  0  0  0  0  0  0  0  0  0
   14.1068    0.7879   -1.4819 H   0  0  0  0  0  0  0  0  0  0  0  0
   13.1190   -0.9750    0.2982 H   0  0  0  0  0  0  0  0  0  0  0  0
    9.3859   -2.5092    1.5566 H   0  0  0  0  0  0  0  0  0  0  0  0
   10.6456   -1.4828    2.2571 H   0  0  0  0  0  0  0  0  0  0  0  0
   11.2034   -3.6085    0.3044 H   0  0  0  0  0  0  0  0  0  0  0  0
   11.6250   -3.5780    1.8875 H   0  0  0  0  0  0  0  0  0  0  0  0
    7.1094    0.7356   -2.4369 H   0  0  0  0  0  0  0  0  0  0  0  0
  1  2  1  0
  1 20  1  0
  1 21  1  0
  1 22  1  0
  2  3  1  0
  2 23  1  0
  2 24  1  0
  3  4  1  0
  3 25  1  0
  3 26  1  0
  4  5  1  0
  4 19  1  0
  5  6  2  0
  5 27  1  0
  6  7  1  0
  6 18  1  0
  7  8  1  0
  8  9  1  0
  8 15  2  0
  9 10  2  0
 10 11  1  0
 10 14  1  0
 11 12  1  0
 12 13  2  0
 12 28  1  0
 13 14  1  0
 13 29  1  0
 14 15  1  0
 15 16  1  0
 16 17  1  0
 16 30  1  0
 16 31  1  0
 17 32  1  0
 17 33  1  0
 18 19  2  0
 18 34  1  0
M  END

