
     RDKit          3D

 57 59  0  0  0  0  0  0  0  0999 V2000
    8.1373   -3.5353   -7.1679 C   0  0  0  0  0  0  0  0  0  0  0  0
    7.7055   -2.6857   -5.9967 C   0  0  0  0  0  0  0  0  0  0  0  0
    8.1177   -1.3548   -5.8661 C   0  0  0  0  0  0  0  0  0  0  0  0
    7.7001   -0.5922   -4.7722 C   0  0  0  0  0  0  0  0  0  0  0  0
    6.8680   -1.1176   -3.7798 C   0  0  0  0  0  0  0  0  0  0  0  0
    6.4320   -0.2701   -2.6083 C   0  0  0  0  0  0  0  0  0  0  0  0
    6.4510   -2.4668   -3.9128 C   0  0  0  0  0  0  0  0  0  0  0  0
    5.6101   -2.9936   -2.9070 N   0  0  0  0  0  0  0  0  0  0  0  0
    5.0669   -4.2508   -2.7787 C   0  0  0  0  0  0  0  0  0  0  0  0
    5.2366   -5.1654   -3.5651 O   0  0  0  0  0  0  0  0  0  0  0  0
    4.1998   -4.4079   -1.5081 C   0  0  0  0  0  0  0  0  0  0  0  0
    3.5833   -5.7002   -1.3193 N   0  0  0  0  0  0  0  0  0  0  0  0
    2.5440   -6.0187   -2.2973 C   0  0  0  0  0  0  0  0  0  0  0  0
    1.4695   -6.9680   -1.7568 C   0  0  0  0  0  0  0  0  0  0  0  0
    0.2471   -7.0007   -2.6691 C   0  0  0  0  0  0  0  0  0  0  0  0
   -0.1657   -6.0071   -3.2400 O   0  0  0  0  0  0  0  0  0  0  0  0
   -0.3589   -8.2382   -2.7623 N   0  0  0  0  0  0  0  0  0  0  0  0
   -1.5217   -8.5983   -3.4607 C   0  0  0  0  0  0  0  0  0  0  0  0
   -2.2732   -7.6963   -4.2373 C   0  0  0  0  0  0  0  0  0  0  0  0
   -3.4138   -8.1490   -4.8948 C   0  0  0  0  0  0  0  0  0  0  0  0
   -3.8246   -9.4806   -4.7983 C   0  0  0  0  0  0  0  0  0  0  0  0
   -5.2921   -9.9041   -5.6900 Cl  0  0  0  0  0  0  0  0  0  0  0  0
   -3.0932  -10.4072   -4.0291 C   0  0  0  0  0  0  0  0  0  0  0  0
   -3.3673  -11.8872   -3.7940 C   0  0  0  0  0  0  0  0  0  0  0  0
   -2.6391  -12.5425   -3.0912 O   0  0  0  0  0  0  0  0  0  0  0  0
   -4.4268  -12.4524   -4.3790 O   0  0  0  0  0  0  0  0  0  0  0  0
   -1.9481   -9.9292   -3.3750 C   0  0  0  0  0  0  0  0  0  0  0  0
    4.5060   -6.7694   -1.0332 C   0  0  1  0  0  0  0  0  0  0  0  0
    5.2306   -6.7567    0.2876 C   0  0  0  0  0  0  0  0  0  0  0  0
    4.1616   -7.7859    0.0308 C   0  0  0  0  0  0  0  0  0  0  0  0
    6.8700   -3.2322   -5.0108 C   0  0  0  0  0  0  0  0  0  0  0  0
    8.7984   -2.9799   -7.8495 H   0  0  0  0  0  0  0  0  0  0  0  0
    7.2680   -3.8845   -7.7498 H   0  0  0  0  0  0  0  0  0  0  0  0
    8.6775   -4.4357   -6.8309 H   0  0  0  0  0  0  0  0  0  0  0  0
    8.7688   -0.9075   -6.6218 H   0  0  0  0  0  0  0  0  0  0  0  0
    8.0306    0.4468   -4.6842 H   0  0  0  0  0  0  0  0  0  0  0  0
    6.8555    0.7416   -2.6787 H   0  0  0  0  0  0  0  0  0  0  0  0
    6.7622   -0.6910   -1.6410 H   0  0  0  0  0  0  0  0  0  0  0  0
    5.3335   -0.1565   -2.5595 H   0  0  0  0  0  0  0  0  0  0  0  0
    5.3710   -2.3433   -2.1684 H   0  0  0  0  0  0  0  0  0  0  0  0
    3.4150   -3.6296   -1.5296 H   0  0  0  0  0  0  0  0  0  0  0  0
    4.8378   -4.1791   -0.6361 H   0  0  0  0  0  0  0  0  0  0  0  0
    2.9704   -6.4332   -3.2310 H   0  0  0  0  0  0  0  0  0  0  0  0
    2.0345   -5.0850   -2.5780 H   0  0  0  0  0  0  0  0  0  0  0  0
    1.1314   -6.5953   -0.7732 H   0  0  0  0  0  0  0  0  0  0  0  0
    1.8687   -7.9809   -1.5959 H   0  0  0  0  0  0  0  0  0  0  0  0
    0.0832   -8.9917   -2.2488 H   0  0  0  0  0  0  0  0  0  0  0  0
   -1.9561   -6.6592   -4.3162 H   0  0  0  0  0  0  0  0  0  0  0  0
   -4.0010   -7.4553   -5.4987 H   0  0  0  0  0  0  0  0  0  0  0  0
   -4.9294  -11.8144   -4.9156 H   0  0  0  0  0  0  0  0  0  0  0  0
   -1.3930  -10.6599   -2.7823 H   0  0  0  0  0  0  0  0  0  0  0  0
    5.0810   -7.1459   -1.8918 H   0  0  0  0  0  0  0  0  0  0  0  0
    4.9825   -5.9548    0.9887 H   0  0  0  0  0  0  0  0  0  0  0  0
    6.2783   -7.0691    0.3045 H   0  0  0  0  0  0  0  0  0  0  0  0
    3.2178   -7.6557    0.5651 H   0  0  0  0  0  0  0  0  0  0  0  0
    4.4579   -8.8259   -0.1349 H   0  0  0  0  0  0  0  0  0  0  0  0
    6.5326   -4.2640   -5.0842 H   0  0  0  0  0  0  0  0  0  0  0  0
  1  2  1  0
  1 32  1  0
  1 33  1  0
  1 34  1  0
  2  3  2  0
  2 31  1  0
  3  4  1  0
  3 35  1  0
  4  5  2  0
  4 36  1  0
  5  6  1  0
  5  7  1  0
  6 37  1  0
  6 38  1  0
  6 39  1  0
  7  8  1  0
  7 31  2  0
  8  9  1  0
  8 40  1  0
  9 10  2  0
  9 11  1  0
 11 12  1  0
 11 41  1  0
 11 42  1  0
 12 13  1  0
 12 28  1  0
 13 14  1  0
 13 43  1  0
 13 44  1  0
 14 15  1  0
 14 45  1  0
 14 46  1  0
 15 16  2  0
 15 17  1  0
 17 18  1  0
 17 47  1  0
 18 19  2  0
 18 27  1  0
 19 20  1  0
 19 48  1  0
 20 21  2  0
 20 49  1  0
 21 22  1  0
 21 23  1  0
 23 24  1  0
 23 27  2  0
 24 25  2  0
 24 26  1  0
 26 50  1  0
 27 51  1  0
 28 29  1  0
 28 30  1  0
 28 52  1  6
 29 30  1  0
 29 53  1  0
 29 54  1  0
 30 55  1  0
 30 56  1  0
 31 57  1  0
M  END

