
     RDKit          3D

 46 48  0  0  0  0  0  0  0  0999 V2000
    2.3607   -2.3562   -0.1706 O   0  0  0  0  0  0  0  0  0  0  0  0
    2.1168   -0.9545   -0.0580 C   0  0  1  0  0  0  0  0  0  0  0  0
    2.5302   -0.2155   -1.3574 C   0  0  0  0  0  0  0  0  0  0  0  0
    3.9586   -0.0830   -1.5796 N   0  0  0  0  0  0  0  0  0  0  0  0
    4.6658   -1.2891   -2.0170 C   0  0  0  0  0  0  0  0  0  0  0  0
    4.5245   -1.5663   -3.5259 C   0  0  0  0  0  0  0  0  0  0  0  0
    4.9421   -0.3595   -4.3949 C   0  0  2  0  0  0  0  0  0  0  0  0
    6.4671   -0.1743   -4.4825 C   0  0  1  0  0  0  0  0  0  0  0  0
    7.2555   -1.3794   -5.0679 C   0  0  0  0  0  0  0  0  0  0  0  0
    8.5050   -0.7417   -5.7296 C   0  0  0  0  0  0  0  0  0  0  0  0
    8.2607    0.7901   -5.6000 C   0  0  0  0  0  0  0  0  0  0  0  0
    6.8377    0.9760   -5.3181 N   0  0  0  0  0  0  0  0  0  0  0  0
    4.2182    0.9058   -3.8811 C   0  0  0  0  0  0  0  0  0  0  0  0
    4.3740    1.0812   -2.3602 C   0  0  0  0  0  0  0  0  0  0  0  0
    0.6362   -0.6506    0.2731 C   0  0  0  0  0  0  0  0  0  0  0  0
    0.6401    0.6681    1.0821 C   0  0  0  0  0  0  0  0  0  0  0  0
    2.1112    0.8689    1.5547 C   0  0  0  0  0  0  0  0  0  0  0  0
    2.8483   -0.4286    1.1838 C   0  0  0  0  0  0  0  0  0  0  0  0
    1.8564   -2.6852   -0.9276 H   0  0  0  0  0  0  0  0  0  0  0  0
    2.1090    0.8016   -1.3174 H   0  0  0  0  0  0  0  0  0  0  0  0
    1.9893   -0.7216   -2.1936 H   0  0  0  0  0  0  0  0  0  0  0  0
    4.2981   -2.1416   -1.4317 H   0  0  0  0  0  0  0  0  0  0  0  0
    5.7341   -1.1686   -1.7602 H   0  0  0  0  0  0  0  0  0  0  0  0
    3.4699   -1.8055   -3.7504 H   0  0  0  0  0  0  0  0  0  0  0  0
    5.1011   -2.4667   -3.7947 H   0  0  0  0  0  0  0  0  0  0  0  0
    4.6015   -0.5538   -5.4311 H   0  0  0  0  0  0  0  0  0  0  0  0
    6.8710    0.0316   -3.4736 H   0  0  0  0  0  0  0  0  0  0  0  0
    6.6351   -1.8939   -5.8218 H   0  0  0  0  0  0  0  0  0  0  0  0
    7.5178   -2.1263   -4.3032 H   0  0  0  0  0  0  0  0  0  0  0  0
    8.5899   -1.0434   -6.7855 H   0  0  0  0  0  0  0  0  0  0  0  0
    9.4415   -1.0458   -5.2362 H   0  0  0  0  0  0  0  0  0  0  0  0
    8.5597    1.3605   -6.4926 H   0  0  0  0  0  0  0  0  0  0  0  0
    8.8427    1.1914   -4.7519 H   0  0  0  0  0  0  0  0  0  0  0  0
    6.3139    0.9175   -6.1950 H   0  0  0  0  0  0  0  0  0  0  0  0
    3.1443    0.8249   -4.1272 H   0  0  0  0  0  0  0  0  0  0  0  0
    4.6051    1.7968   -4.3988 H   0  0  0  0  0  0  0  0  0  0  0  0
    3.8062    1.9620   -2.0192 H   0  0  0  0  0  0  0  0  0  0  0  0
    5.4332    1.2906   -2.1243 H   0  0  0  0  0  0  0  0  0  0  0  0
    0.2694   -1.4879    0.8876 H   0  0  0  0  0  0  0  0  0  0  0  0
    0.0021   -0.6057   -0.6291 H   0  0  0  0  0  0  0  0  0  0  0  0
   -0.0567    0.6078    1.9323 H   0  0  0  0  0  0  0  0  0  0  0  0
    0.3025    1.5198    0.4706 H   0  0  0  0  0  0  0  0  0  0  0  0
    2.1797    1.0901    2.6308 H   0  0  0  0  0  0  0  0  0  0  0  0
    2.5674    1.7262    1.0336 H   0  0  0  0  0  0  0  0  0  0  0  0
    2.7369   -1.1897    1.9732 H   0  0  0  0  0  0  0  0  0  0  0  0
    3.9205   -0.2829    0.9930 H   0  0  0  0  0  0  0  0  0  0  0  0
  2  1  1  6
  1 19  1  0
  2  3  1  0
  2 15  1  0
  2 18  1  0
  3  4  1  0
  3 20  1  0
  3 21  1  0
  4  5  1  0
  4 14  1  0
  5  6  1  0
  5 22  1  0
  5 23  1  0
  6  7  1  0
  6 24  1  0
  6 25  1  0
  7  8  1  0
  7 13  1  0
  7 26  1  6
  8  9  1  0
  8 12  1  0
  8 27  1  1
  9 10  1  0
  9 28  1  0
  9 29  1  0
 10 11  1  0
 10 30  1  0
 10 31  1  0
 11 12  1  0
 11 32  1  0
 11 33  1  0
 12 34  1  0
 13 14  1  0
 13 35  1  0
 13 36  1  0
 14 37  1  0
 14 38  1  0
 15 16  1  0
 15 39  1  0
 15 40  1  0
 16 17  1  0
 16 41  1  0
 16 42  1  0
 17 18  1  0
 17 43  1  0
 17 44  1  0
 18 45  1  0
 18 46  1  0
M  END

