
     RDKit          3D

 31 31  0  0  0  0  0  0  0  0999 V2000
    0.5495    0.1540    1.7076 N   0  0  0  0  0  0  0  0  0  0  0  0
    1.9306    0.5315    1.3924 C   0  0  0  0  0  0  0  0  0  0  0  0
    2.8404   -0.6753    1.3227 C   0  0  0  0  0  0  0  0  0  0  0  0
    3.7655   -0.9614    2.3299 C   0  0  0  0  0  0  0  0  0  0  0  0
    4.6091   -2.0767    2.2612 C   0  0  0  0  0  0  0  0  0  0  0  0
    4.5252   -2.9290    1.1618 C   0  0  0  0  0  0  0  0  0  0  0  0
    3.6061   -2.6741    0.1369 C   0  0  0  0  0  0  0  0  0  0  0  0
    2.7676   -1.5558    0.2199 C   0  0  0  0  0  0  0  0  0  0  0  0
    1.8388   -1.2376   -0.7342 O   0  0  0  0  0  0  0  0  0  0  0  0
    1.7343   -2.0276   -1.8992 C   0  0  0  0  0  0  0  0  0  0  0  0
    0.6583   -1.4006   -2.7697 C   0  0  0  0  0  0  0  0  0  0  0  0
    0.5495   -2.1826   -3.9351 O   0  0  0  0  0  0  0  0  0  0  0  0
   -0.4003   -1.7255   -4.8463 C   0  0  0  0  0  0  0  0  0  0  0  0
   -0.4177   -2.6576   -6.0458 C   0  0  1  0  0  0  0  0  0  0  0  0
   -0.7441   -3.9089   -5.7004 F   0  0  0  0  0  0  0  0  0  0  0  0
   -1.3315   -2.2218   -6.9319 F   0  0  0  0  0  0  0  0  0  0  0  0
    0.7688   -2.6966   -6.6643 F   0  0  0  0  0  0  0  0  0  0  0  0
   -0.0369    0.9899    1.7199 H   0  0  0  0  0  0  0  0  0  0  0  0
    0.1878   -0.4298    0.9524 H   0  0  0  0  0  0  0  0  0  0  0  0
    2.2962    1.1958    2.1923 H   0  0  0  0  0  0  0  0  0  0  0  0
    2.0337    1.0960    0.4408 H   0  0  0  0  0  0  0  0  0  0  0  0
    3.8249   -0.2891    3.1905 H   0  0  0  0  0  0  0  0  0  0  0  0
    5.3245   -2.2748    3.0627 H   0  0  0  0  0  0  0  0  0  0  0  0
    5.1752   -3.8050    1.0908 H   0  0  0  0  0  0  0  0  0  0  0  0
    3.5506   -3.3517   -0.7153 H   0  0  0  0  0  0  0  0  0  0  0  0
    1.4558   -3.0695   -1.6572 H   0  0  0  0  0  0  0  0  0  0  0  0
    2.6900   -2.0534   -2.4536 H   0  0  0  0  0  0  0  0  0  0  0  0
    0.9349   -0.3546   -3.0112 H   0  0  0  0  0  0  0  0  0  0  0  0
   -0.3023   -1.3699   -2.2166 H   0  0  0  0  0  0  0  0  0  0  0  0
   -0.1734   -0.7062   -5.2174 H   0  0  0  0  0  0  0  0  0  0  0  0
   -1.4228   -1.7110   -4.4190 H   0  0  0  0  0  0  0  0  0  0  0  0
  1  2  1  0
  1 18  1  0
  1 19  1  0
  2  3  1  0
  2 20  1  0
  2 21  1  0
  3  4  2  0
  3  8  1  0
  4  5  1  0
  4 22  1  0
  5  6  2  0
  5 23  1  0
  6  7  1  0
  6 24  1  0
  7  8  2  0
  7 25  1  0
  8  9  1  0
  9 10  1  0
 10 11  1  0
 10 26  1  0
 10 27  1  0
 11 12  1  0
 11 28  1  0
 11 29  1  0
 12 13  1  0
 13 14  1  0
 13 30  1  0
 13 31  1  0
 14 15  1  1
 14 16  1  0
 14 17  1  0
M  END

