
     RDKit          3D

 82 87  0  0  0  0  0  0  0  0999 V2000
    6.4962   -1.3285   -5.2293 C   0  0  0  0  0  0  0  0  0  0  0  0
    5.5139   -1.6822   -4.2826 O   0  0  0  0  0  0  0  0  0  0  0  0
    5.8756   -1.8997   -2.9930 C   0  0  0  0  0  0  0  0  0  0  0  0
    4.8385   -2.2530   -2.1122 C   0  0  0  0  0  0  0  0  0  0  0  0
    5.1307   -2.4942   -0.7780 C   0  0  0  0  0  0  0  0  0  0  0  0
    6.4431   -2.3843   -0.2887 C   0  0  0  0  0  0  0  0  0  0  0  0
    6.6807   -2.6145    1.1085 N   0  0  0  0  0  0  0  0  0  0  0  0
    6.2522   -1.6180    2.0897 C   0  0  0  0  0  0  0  0  0  0  0  0
    6.8760   -2.0309    3.4167 C   0  0  0  0  0  0  0  0  0  0  0  0
    6.9202   -3.8774    3.3969 S   0  0  0  0  0  0  0  0  0  0  0  0
    6.8963   -3.8762    1.6037 C   0  0  0  0  0  0  0  0  0  0  0  0
    7.0539   -4.8926    0.8261 N   0  0  0  0  0  0  0  0  0  0  0  0
    7.2558   -6.1505    1.3957 C   0  0  0  0  0  0  0  0  0  0  0  0
    7.2063   -6.4002    2.5977 O   0  0  0  0  0  0  0  0  0  0  0  0
    7.5134   -7.0981    0.4437 N   0  0  0  0  0  0  0  0  0  0  0  0
    7.7267   -8.4952    0.7356 C   0  0  1  0  0  0  0  0  0  0  0  0
    6.6711   -9.4552    0.1517 C   0  0  0  0  0  0  0  0  0  0  0  0
    7.3586  -10.8165    0.2564 C   0  0  0  0  0  0  0  0  0  0  0  0
    8.8155  -10.5362   -0.2075 C   0  0  2  0  0  0  0  0  0  0  0  0
    9.8315  -11.5545    0.2682 C   0  0  0  0  0  0  0  0  0  0  0  0
   10.4941  -12.3919   -0.6422 C   0  0  0  0  0  0  0  0  0  0  0  0
   11.4206  -13.3445   -0.2153 C   0  0  0  0  0  0  0  0  0  0  0  0
   11.7136  -13.4862    1.1494 C   0  0  0  0  0  0  0  0  0  0  0  0
   12.6916  -14.4890    1.5937 C   0  0  0  0  0  0  0  0  0  0  0  0
   13.3469  -15.3307    0.7300 N   0  0  0  0  0  0  0  0  0  0  0  0
   14.1060  -16.0499    1.5194 C   0  0  0  0  0  0  0  0  0  0  0  0
   13.9281  -15.6754    2.8201 N   0  0  0  0  0  0  0  0  0  0  0  0
   14.5528  -16.1635    3.9946 C   0  0  0  0  0  0  0  0  0  0  0  0
   15.1924  -17.4118    3.9948 C   0  0  0  0  0  0  0  0  0  0  0  0
   15.8196  -17.8721    5.1522 C   0  0  0  0  0  0  0  0  0  0  0  0
   15.7915  -17.0895    6.3065 C   0  0  0  0  0  0  0  0  0  0  0  0
   16.3620  -17.5770    7.4838 O   0  0  0  0  0  0  0  0  0  0  0  0
   17.6719  -17.3295    7.7140 C   0  0  1  0  0  0  0  0  0  0  0  0
   18.4626  -17.8631    6.7693 F   0  0  0  0  0  0  0  0  0  0  0  0
   17.9401  -16.0163    7.7545 F   0  0  0  0  0  0  0  0  0  0  0  0
   17.9883  -17.8656    8.8834 F   0  0  0  0  0  0  0  0  0  0  0  0
   15.1416  -15.8550    6.3209 C   0  0  0  0  0  0  0  0  0  0  0  0
   14.5227  -15.3882    5.1626 C   0  0  0  0  0  0  0  0  0  0  0  0
   13.0248  -14.6700    2.8664 N   0  0  0  0  0  0  0  0  0  0  0  0
   11.0560  -12.6527    2.0718 C   0  0  0  0  0  0  0  0  0  0  0  0
   10.1333  -11.7062    1.6348 C   0  0  0  0  0  0  0  0  0  0  0  0
    9.0827   -9.0589    0.2249 C   0  0  0  0  0  0  0  0  0  0  0  0
    7.4918   -2.0311   -1.1567 C   0  0  0  0  0  0  0  0  0  0  0  0
    8.9351   -1.9467   -0.6744 C   0  0  1  0  0  0  0  0  0  0  0  0
    9.7335   -3.1872   -1.1180 C   0  0  0  0  0  0  0  0  0  0  0  0
    9.6360   -0.6459   -1.0975 C   0  0  0  0  0  0  0  0  0  0  0  0
    7.1859   -1.7950   -2.5099 C   0  0  0  0  0  0  0  0  0  0  0  0
    5.9762   -1.2056   -6.1889 H   0  0  0  0  0  0  0  0  0  0  0  0
    7.2656   -2.1142   -5.3386 H   0  0  0  0  0  0  0  0  0  0  0  0
    6.9958   -0.3775   -4.9699 H   0  0  0  0  0  0  0  0  0  0  0  0
    3.8223   -2.3369   -2.5016 H   0  0  0  0  0  0  0  0  0  0  0  0
    4.3314   -2.7837   -0.0917 H   0  0  0  0  0  0  0  0  0  0  0  0
    5.1471   -1.5970    2.1633 H   0  0  0  0  0  0  0  0  0  0  0  0
    6.5851   -0.6187    1.7699 H   0  0  0  0  0  0  0  0  0  0  0  0
    6.2869   -1.6904    4.2791 H   0  0  0  0  0  0  0  0  0  0  0  0
    7.9044   -1.6499    3.5175 H   0  0  0  0  0  0  0  0  0  0  0  0
    7.4891   -6.7805   -0.5189 H   0  0  0  0  0  0  0  0  0  0  0  0
    7.6915   -8.5665    1.8327 H   0  0  0  0  0  0  0  0  0  0  0  0
    6.4818   -9.2011   -0.9075 H   0  0  0  0  0  0  0  0  0  0  0  0
    5.7090   -9.3960    0.6835 H   0  0  0  0  0  0  0  0  0  0  0  0
    6.8789  -11.6099   -0.3372 H   0  0  0  0  0  0  0  0  0  0  0  0
    7.3574  -11.1533    1.3070 H   0  0  0  0  0  0  0  0  0  0  0  0
    8.8140  -10.5694   -1.3090 H   0  0  0  0  0  0  0  0  0  0  0  0
   10.2802  -12.2949   -1.7107 H   0  0  0  0  0  0  0  0  0  0  0  0
   11.9297  -13.9889   -0.9342 H   0  0  0  0  0  0  0  0  0  0  0  0
   14.8040  -16.8262    1.2111 H   0  0  0  0  0  0  0  0  0  0  0  0
   15.1903  -18.0404    3.1034 H   0  0  0  0  0  0  0  0  0  0  0  0
   16.3165  -18.8429    5.1700 H   0  0  0  0  0  0  0  0  0  0  0  0
   15.1254  -15.2665    7.2395 H   0  0  0  0  0  0  0  0  0  0  0  0
   14.0085  -14.4279    5.1455 H   0  0  0  0  0  0  0  0  0  0  0  0
   11.2769  -12.7568    3.1358 H   0  0  0  0  0  0  0  0  0  0  0  0
    9.6381  -11.0705    2.3744 H   0  0  0  0  0  0  0  0  0  0  0  0
    9.4396   -8.4660   -0.6326 H   0  0  0  0  0  0  0  0  0  0  0  0
    9.8607   -8.9828    0.9987 H   0  0  0  0  0  0  0  0  0  0  0  0
    8.9013   -1.9601    0.4258 H   0  0  0  0  0  0  0  0  0  0  0  0
    9.8164   -3.2335   -2.2170 H   0  0  0  0  0  0  0  0  0  0  0  0
    9.2439   -4.1093   -0.7721 H   0  0  0  0  0  0  0  0  0  0  0  0
   10.7554   -3.1601   -0.7049 H   0  0  0  0  0  0  0  0  0  0  0  0
    9.7747   -0.5865   -2.1896 H   0  0  0  0  0  0  0  0  0  0  0  0
   10.6374   -0.5860   -0.6415 H   0  0  0  0  0  0  0  0  0  0  0  0
    9.0664    0.2435   -0.7840 H   0  0  0  0  0  0  0  0  0  0  0  0
    7.9955   -1.5274   -3.1883 H   0  0  0  0  0  0  0  0  0  0  0  0
  1  2  1  0
  1 48  1  0
  1 49  1  0
  1 50  1  0
  2  3  1  0
  3  4  2  0
  3 47  1  0
  4  5  1  0
  4 51  1  0
  5  6  2  0
  5 52  1  0
  6  7  1  0
  6 43  1  0
  7  8  1  0
  7 11  1  0
  8  9  1  0
  8 53  1  0
  8 54  1  0
  9 10  1  0
  9 55  1  0
  9 56  1  0
 10 11  2  0
 11 12  1  0
 12 13  2  0
 13 14  1  0
 13 15  1  0
 15 16  1  0
 15 57  1  0
 16 17  1  0
 16 42  1  0
 16 58  1  1
 17 18  1  0
 17 59  1  0
 17 60  1  0
 18 19  1  0
 18 61  1  0
 18 62  1  0
 19 20  1  0
 19 42  1  0
 19 63  1  6
 20 21  2  0
 20 41  1  0
 21 22  1  0
 21 64  1  0
 22 23  2  0
 22 65  1  0
 23 24  1  0
 23 40  1  0
 24 25  1  0
 24 39  2  0
 25 26  2  0
 26 27  1  0
 26 66  1  0
 27 28  1  0
 27 39  1  0
 28 29  2  0
 28 38  1  0
 29 30  1  0
 29 67  1  0
 30 31  2  0
 30 68  1  0
 31 32  1  0
 31 37  1  0
 32 33  1  0
 33 34  1  6
 33 35  1  0
 33 36  1  0
 37 38  2  0
 37 69  1  0
 38 70  1  0
 40 41  2  0
 40 71  1  0
 41 72  1  0
 42 73  1  0
 42 74  1  0
 43 44  1  0
 43 47  2  0
 44 45  1  0
 44 46  1  0
 44 75  1  1
 45 76  1  0
 45 77  1  0
 45 78  1  0
 46 79  1  0
 46 80  1  0
 46 81  1  0
 47 82  1  0
M  CHG  2  10   1  14  -1
M  END

