
     RDKit          3D

 61 65  0  0  0  0  0  0  0  0999 V2000
    0.3938    0.2751    0.0569 C   0  0  0  0  0  0  0  0  0  0  0  0
    1.7902    0.0953   -0.0041 O   0  0  0  0  0  0  0  0  0  0  0  0
    2.6061    1.1674    0.1581 C   0  0  0  0  0  0  0  0  0  0  0  0
    2.1650    2.4776    0.3964 C   0  0  0  0  0  0  0  0  0  0  0  0
    3.0975    3.5085    0.5480 C   0  0  0  0  0  0  0  0  0  0  0  0
    4.4802    3.2778    0.4704 C   0  0  0  0  0  0  0  0  0  0  0  0
    5.4626    4.3807    0.6343 C   0  0  0  0  0  0  0  0  0  0  0  0
    6.6955    4.1738    1.2804 C   0  0  0  0  0  0  0  0  0  0  0  0
    7.6115    5.2168    1.4101 C   0  0  0  0  0  0  0  0  0  0  0  0
    7.3530    6.5119    0.9261 C   0  0  0  0  0  0  0  0  0  0  0  0
    6.0969    6.7452    0.3038 C   0  0  0  0  0  0  0  0  0  0  0  0
    5.1974    5.6694    0.1495 C   0  0  0  0  0  0  0  0  0  0  0  0
    5.6409    8.0417   -0.2240 C   0  0  0  0  0  0  0  0  0  0  0  0
    5.8746    9.3288    0.1394 C   0  0  0  0  0  0  0  0  0  0  0  0
    6.6792    9.9461    1.2065 C   0  0  0  0  0  0  0  0  0  0  0  0
    6.1965   11.1732    1.7078 C   0  0  0  0  0  0  0  0  0  0  0  0
    6.8170   11.8617    2.7601 C   0  0  0  0  0  0  0  0  0  0  0  0
    6.2722   13.1473    3.2690 C   0  0  0  0  0  0  0  0  0  0  0  0
    6.3327   13.4771    4.6397 C   0  0  0  0  0  0  0  0  0  0  0  0
    5.8253   14.6771    5.1222 C   0  0  0  0  0  0  0  0  0  0  0  0
    5.2346   15.6038    4.2451 C   0  0  0  0  0  0  0  0  0  0  0  0
    4.7671   16.7479    4.8055 O   0  0  0  0  0  0  0  0  0  0  0  0
    4.1562   17.7181    3.9862 C   0  0  0  0  0  0  0  0  0  0  0  0
    5.1652   15.2984    2.8776 C   0  0  0  0  0  0  0  0  0  0  0  0
    5.6790   14.0852    2.4091 C   0  0  0  0  0  0  0  0  0  0  0  0
    7.9769   11.2884    3.3134 C   0  0  0  0  0  0  0  0  0  0  0  0
    8.4858   10.0922    2.8092 C   0  0  0  0  0  0  0  0  0  0  0  0
    7.8734    9.3993    1.7496 C   0  0  0  0  0  0  0  0  0  0  0  0
    8.6737    7.8570    1.0129 Si  0  0  1  0  0  4  0  0  0  0  0  0
   10.1169    7.2884    2.0937 C   0  0  0  0  0  0  0  0  0  0  0  0
    9.3265    8.2349   -0.7230 C   0  0  0  0  0  0  0  0  0  0  0  0
    4.9003    1.9519    0.2321 C   0  0  0  0  0  0  0  0  0  0  0  0
    3.9872    0.9163    0.0772 C   0  0  0  0  0  0  0  0  0  0  0  0
   -0.0570   -0.7133   -0.1054 H   0  0  0  0  0  0  0  0  0  0  0  0
    0.0323    0.9655   -0.7268 H   0  0  0  0  0  0  0  0  0  0  0  0
    0.0698    0.6575    1.0420 H   0  0  0  0  0  0  0  0  0  0  0  0
    1.1023    2.7074    0.4770 H   0  0  0  0  0  0  0  0  0  0  0  0
    2.7311    4.5160    0.7586 H   0  0  0  0  0  0  0  0  0  0  0  0
    6.9351    3.1914    1.6941 H   0  0  0  0  0  0  0  0  0  0  0  0
    8.5633    5.0071    1.9055 H   0  0  0  0  0  0  0  0  0  0  0  0
    4.2571    5.8520   -0.3769 H   0  0  0  0  0  0  0  0  0  0  0  0
    4.8880    7.9330   -1.0134 H   0  0  0  0  0  0  0  0  0  0  0  0
    5.2738   10.0614   -0.4122 H   0  0  0  0  0  0  0  0  0  0  0  0
    5.2754   11.5796    1.2822 H   0  0  0  0  0  0  0  0  0  0  0  0
    6.7653   12.7650    5.3463 H   0  0  0  0  0  0  0  0  0  0  0  0
    5.8643   14.9224    6.1855 H   0  0  0  0  0  0  0  0  0  0  0  0
    3.8555   18.5423    4.6470 H   0  0  0  0  0  0  0  0  0  0  0  0
    3.2581   17.3223    3.4779 H   0  0  0  0  0  0  0  0  0  0  0  0
    4.8517   18.1094    3.2215 H   0  0  0  0  0  0  0  0  0  0  0  0
    4.7246   15.9979    2.1668 H   0  0  0  0  0  0  0  0  0  0  0  0
    5.6357   13.8801    1.3368 H   0  0  0  0  0  0  0  0  0  0  0  0
    8.5082   11.8034    4.1172 H   0  0  0  0  0  0  0  0  0  0  0  0
    9.4071    9.6997    3.2481 H   0  0  0  0  0  0  0  0  0  0  0  0
    9.8031    7.0538    3.1236 H   0  0  0  0  0  0  0  0  0  0  0  0
   10.8950    8.0675    2.1442 H   0  0  0  0  0  0  0  0  0  0  0  0
   10.5898    6.3880    1.6688 H   0  0  0  0  0  0  0  0  0  0  0  0
    8.5199    8.5744   -1.3903 H   0  0  0  0  0  0  0  0  0  0  0  0
    9.7826    7.3360   -1.1703 H   0  0  0  0  0  0  0  0  0  0  0  0
   10.0936    9.0263   -0.6856 H   0  0  0  0  0  0  0  0  0  0  0  0
    5.9668    1.7328    0.1421 H   0  0  0  0  0  0  0  0  0  0  0  0
    4.3173   -0.1061   -0.1183 H   0  0  0  0  0  0  0  0  0  0  0  0
  1  2  1  0
  1 34  1  0
  1 35  1  0
  1 36  1  0
  2  3  1  0
  3  4  2  0
  3 33  1  0
  4  5  1  0
  4 37  1  0
  5  6  2  0
  5 38  1  0
  6  7  1  0
  6 32  1  0
  7  8  2  0
  7 12  1  0
  8  9  1  0
  8 39  1  0
  9 10  2  0
  9 40  1  0
 10 11  1  0
 10 29  1  0
 11 12  2  0
 11 13  1  0
 12 41  1  0
 13 14  2  0
 13 42  1  0
 14 15  1  0
 14 43  1  0
 15 16  1  0
 15 28  2  0
 16 17  2  0
 16 44  1  0
 17 18  1  0
 17 26  1  0
 18 19  2  0
 18 25  1  0
 19 20  1  0
 19 45  1  0
 20 21  2  0
 20 46  1  0
 21 22  1  0
 21 24  1  0
 22 23  1  0
 23 47  1  0
 23 48  1  0
 23 49  1  0
 24 25  2  0
 24 50  1  0
 25 51  1  0
 26 27  2  0
 26 52  1  0
 27 28  1  0
 27 53  1  0
 28 29  1  0
 29 30  1  1
 29 31  1  0
 30 54  1  0
 30 55  1  0
 30 56  1  0
 31 57  1  0
 31 58  1  0
 31 59  1  0
 32 33  2  0
 32 60  1  0
 33 61  1  0
M  END

