
     RDKit          3D

 32 33  0  0  0  0  0  0  0  0999 V2000
    1.9211   -1.5397    0.2640 C   0  0  0  0  0  0  0  0  0  0  0  0
    2.4464    0.0805   -0.3719 S   0  0  0  0  0  0  0  0  0  0  0  0
    3.1658   -0.3483   -1.9345 C   0  0  0  0  0  0  0  0  0  0  0  0
    3.1805   -1.6423   -2.2982 N   0  0  0  0  0  0  0  0  0  0  0  0
    3.7186   -1.9815   -3.4744 C   0  0  0  0  0  0  0  0  0  0  0  0
    3.7203   -3.2933   -3.8115 N   0  0  0  0  0  0  0  0  0  0  0  0
    4.2638   -0.9680   -4.3092 C   0  0  0  0  0  0  0  0  0  0  0  0
    4.9034   -0.8010   -5.5737 C   0  0  0  0  0  0  0  0  0  0  0  0
    5.1716    0.4725   -5.7994 N   0  0  0  0  0  0  0  0  0  0  0  0
    4.7288    1.1699   -4.7202 N   0  0  0  0  0  0  0  0  0  0  0  0
    4.8740    2.6140   -4.6251 C   0  0  0  0  0  0  0  0  0  0  0  0
    6.2453    3.0785   -4.1189 C   0  0  0  0  0  0  0  0  0  0  0  0
    7.4047    2.8393   -5.0886 C   0  0  0  0  0  0  0  0  0  0  0  0
    8.7606    3.2573   -4.5222 C   0  0  0  0  0  0  0  0  0  0  0  0
    9.8154    3.1094   -5.4493 O   0  0  0  0  0  0  0  0  0  0  0  0
    4.1725    0.3437   -3.7889 C   0  0  0  0  0  0  0  0  0  0  0  0
    3.6363    0.6937   -2.6151 N   0  0  0  0  0  0  0  0  0  0  0  0
    1.4622   -1.3394    1.2429 H   0  0  0  0  0  0  0  0  0  0  0  0
    2.7798   -2.2131    0.3852 H   0  0  0  0  0  0  0  0  0  0  0  0
    1.1854   -2.0060   -0.4044 H   0  0  0  0  0  0  0  0  0  0  0  0
    3.2912   -3.9549   -3.1777 H   0  0  0  0  0  0  0  0  0  0  0  0
    4.0779   -3.6117   -4.6995 H   0  0  0  0  0  0  0  0  0  0  0  0
    5.1728   -1.5470   -6.3220 H   0  0  0  0  0  0  0  0  0  0  0  0
    4.0897    2.9521   -3.9328 H   0  0  0  0  0  0  0  0  0  0  0  0
    4.6629    3.0306   -5.6220 H   0  0  0  0  0  0  0  0  0  0  0  0
    6.4442    2.5863   -3.1505 H   0  0  0  0  0  0  0  0  0  0  0  0
    6.1652    4.1586   -3.9004 H   0  0  0  0  0  0  0  0  0  0  0  0
    7.2329    3.3928   -6.0285 H   0  0  0  0  0  0  0  0  0  0  0  0
    7.4397    1.7714   -5.3682 H   0  0  0  0  0  0  0  0  0  0  0  0
    8.9599    2.6983   -3.5828 H   0  0  0  0  0  0  0  0  0  0  0  0
    8.7422    4.3263   -4.2494 H   0  0  0  0  0  0  0  0  0  0  0  0
    9.8490    2.1809   -5.7148 H   0  0  0  0  0  0  0  0  0  0  0  0
  1  2  1  0
  1 18  1  0
  1 19  1  0
  1 20  1  0
  2  3  1  0
  3  4  2  0
  3 17  1  0
  4  5  1  0
  5  6  1  0
  5  7  2  0
  6 21  1  0
  6 22  1  0
  7  8  1  0
  7 16  1  0
  8  9  2  0
  8 23  1  0
  9 10  1  0
 10 11  1  0
 10 16  1  0
 11 12  1  0
 11 24  1  0
 11 25  1  0
 12 13  1  0
 12 26  1  0
 12 27  1  0
 13 14  1  0
 13 28  1  0
 13 29  1  0
 14 15  1  0
 14 30  1  0
 14 31  1  0
 15 32  1  0
 16 17  2  0
M  END

