
     RDKit          3D

 26 28  0  0  0  0  0  0  0  0999 V2000
    1.1219    0.7378    0.6238 F   0  0  0  0  0  0  0  0  0  0  0  0
    2.3891    0.4796    0.2801 C   0  0  0  0  0  0  0  0  0  0  0  0
    3.2985    1.5266    0.1491 C   0  0  0  0  0  0  0  0  0  0  0  0
    4.6184    1.2659   -0.2082 C   0  0  0  0  0  0  0  0  0  0  0  0
    5.0523   -0.0554   -0.4414 C   0  0  0  0  0  0  0  0  0  0  0  0
    6.3830   -0.2623   -0.7957 N   0  0  0  0  0  0  0  0  0  0  0  0
    7.0545   -1.4257   -1.0760 C   0  0  0  0  0  0  0  0  0  0  0  0
    6.5597   -2.6498   -1.0699 N   0  0  0  0  0  0  0  0  0  0  0  0
    7.5922   -3.4852   -1.4085 N   0  0  0  0  0  0  0  0  0  0  0  0
    7.4129   -4.4784   -1.4597 H   0  0  0  0  0  0  0  0  0  0  0  0
    8.7529   -2.8163   -1.6353 C   0  0  0  0  0  0  0  0  0  0  0  0
   10.0612   -3.1775   -1.9982 C   0  0  0  0  0  0  0  0  0  0  0  0
   10.9643   -2.1273   -2.1240 C   0  0  0  0  0  0  0  0  0  0  0  0
   10.5619   -0.7876   -1.8945 C   0  0  0  0  0  0  0  0  0  0  0  0
    9.3263   -0.4394   -1.5510 N   0  0  0  0  0  0  0  0  0  0  0  0
    8.4553   -1.4444   -1.4291 C   0  0  0  0  0  0  0  0  0  0  0  0
    4.1292   -1.1098   -0.3076 C   0  0  0  0  0  0  0  0  0  0  0  0
    2.8079   -0.8343    0.0512 C   0  0  0  0  0  0  0  0  0  0  0  0
    1.6606   -2.1351    0.2184 Cl  0  0  0  0  0  0  0  0  0  0  0  0
    2.9533    2.5464    0.3317 H   0  0  0  0  0  0  0  0  0  0  0  0
    5.3240    2.0949   -0.3083 H   0  0  0  0  0  0  0  0  0  0  0  0
    6.9726    0.5601   -0.8657 H   0  0  0  0  0  0  0  0  0  0  0  0
   10.3585   -4.2141   -2.1727 H   0  0  0  0  0  0  0  0  0  0  0  0
   12.0010   -2.3281   -2.4035 H   0  0  0  0  0  0  0  0  0  0  0  0
   11.2937    0.0207   -2.0003 H   0  0  0  0  0  0  0  0  0  0  0  0
    4.4418   -2.1365   -0.4832 H   0  0  0  0  0  0  0  0  0  0  0  0
  1  2  1  0
  2  3  2  0
  2 18  1  0
  3  4  1  0
  3 20  1  0
  4  5  2  0
  4 21  1  0
  5  6  1  0
  5 17  1  0
  6  7  1  0
  6 22  1  0
  7  8  2  0
  7 16  1  0
  8  9  1  0
  9 10  1  0
  9 11  1  0
 11 12  1  0
 11 16  2  0
 12 13  2  0
 12 23  1  0
 13 14  1  0
 13 24  1  0
 14 15  2  0
 14 25  1  0
 15 16  1  0
 17 18  2  0
 17 26  1  0
 18 19  1  0
M  END

