
     RDKit          3D

 39 44  0  0  0  0  0  0  0  0999 V2000
    3.5046   -0.2819    1.3105 Cl  0  0  0  0  0  0  0  0  0  0  0  0
    3.6659   -0.4968   -0.4225 C   0  0  0  0  0  0  0  0  0  0  0  0
    4.3200    0.5274   -1.1199 C   0  0  0  0  0  0  0  0  0  0  0  0
    4.4923    0.4392   -2.4993 C   0  0  0  0  0  0  0  0  0  0  0  0
    4.0091   -0.6776   -3.1871 C   0  0  0  0  0  0  0  0  0  0  0  0
    3.3597   -1.6915   -2.4868 C   0  0  0  0  0  0  0  0  0  0  0  0
    3.1700   -1.6318   -1.0934 C   0  0  0  0  0  0  0  0  0  0  0  0
    2.4845   -2.7204   -0.4205 N   0  0  0  0  0  0  0  0  0  0  0  0
    3.1983   -3.9682   -0.4149 C   0  0  0  0  0  0  0  0  0  0  0  0
    2.9017   -5.0043   -1.2652 C   0  0  0  0  0  0  0  0  0  0  0  0
    3.8967   -6.4271   -1.0366 S   0  0  0  0  0  0  0  0  0  0  0  0
    4.7952   -5.6087    0.2297 C   0  0  0  0  0  0  0  0  0  0  0  0
    5.8655   -6.1442    0.9561 C   0  0  0  0  0  0  0  0  0  0  0  0
    6.4347   -5.3703    1.9641 C   0  0  0  0  0  0  0  0  0  0  0  0
    5.9363   -4.0840    2.2434 C   0  0  0  0  0  0  0  0  0  0  0  0
    4.8760   -3.5519    1.5172 C   0  0  0  0  0  0  0  0  0  0  0  0
    4.2893   -4.3065    0.4822 C   0  0  0  0  0  0  0  0  0  0  0  0
    1.5957   -5.0027   -2.4558 S   0  0  0  0  0  0  0  0  0  0  0  0
    0.6132   -3.7876   -1.6302 C   0  0  0  0  0  0  0  0  0  0  0  0
   -1.1255   -3.7564   -1.8377 S   0  0  0  0  0  0  0  0  0  0  0  0
   -1.2437   -2.3971   -0.7335 C   0  0  0  0  0  0  0  0  0  0  0  0
   -2.4219   -1.7363   -0.3659 C   0  0  0  0  0  0  0  0  0  0  0  0
   -2.3390   -0.7035    0.5645 C   0  0  0  0  0  0  0  0  0  0  0  0
   -1.0977   -0.3428    1.1214 C   0  0  0  0  0  0  0  0  0  0  0  0
    0.0723   -0.9975    0.7511 C   0  0  0  0  0  0  0  0  0  0  0  0
    0.0210   -2.0368   -0.1987 C   0  0  0  0  0  0  0  0  0  0  0  0
    1.0914   -2.8482   -0.7509 C   0  0  0  0  0  0  0  0  0  0  0  0
    4.6893    1.3900   -0.5632 H   0  0  0  0  0  0  0  0  0  0  0  0
    5.0038    1.2436   -3.0331 H   0  0  0  0  0  0  0  0  0  0  0  0
    4.1370   -0.7604   -4.2688 H   0  0  0  0  0  0  0  0  0  0  0  0
    2.9805   -2.5652   -3.0200 H   0  0  0  0  0  0  0  0  0  0  0  0
    6.2385   -7.1483    0.7415 H   0  0  0  0  0  0  0  0  0  0  0  0
    7.2694   -5.7699    2.5452 H   0  0  0  0  0  0  0  0  0  0  0  0
    6.3870   -3.4942    3.0455 H   0  0  0  0  0  0  0  0  0  0  0  0
    4.4923   -2.5588    1.7439 H   0  0  0  0  0  0  0  0  0  0  0  0
   -3.3833   -2.0305   -0.7932 H   0  0  0  0  0  0  0  0  0  0  0  0
   -3.2467   -0.1758    0.8676 H   0  0  0  0  0  0  0  0  0  0  0  0
   -1.0519    0.4622    1.8589 H   0  0  0  0  0  0  0  0  0  0  0  0
    1.0275   -0.7169    1.1915 H   0  0  0  0  0  0  0  0  0  0  0  0
  1  2  1  0
  2  3  2  0
  2  7  1  0
  3  4  1  0
  3 28  1  0
  4  5  2  0
  4 29  1  0
  5  6  1  0
  5 30  1  0
  6  7  2  0
  6 31  1  0
  7  8  1  0
  8  9  1  0
  8 27  1  0
  9 10  2  0
  9 17  1  0
 10 11  1  0
 10 18  1  0
 11 12  1  0
 12 13  2  0
 12 17  1  0
 13 14  1  0
 13 32  1  0
 14 15  2  0
 14 33  1  0
 15 16  1  0
 15 34  1  0
 16 17  2  0
 16 35  1  0
 18 19  1  0
 19 20  1  0
 19 27  2  0
 20 21  1  0
 21 22  2  0
 21 26  1  0
 22 23  1  0
 22 36  1  0
 23 24  2  0
 23 37  1  0
 24 25  1  0
 24 38  1  0
 25 26  2  0
 25 39  1  0
 26 27  1  0
M  END

