
     RDKit          3D

 40 42  0  0  0  0  0  0  0  0999 V2000
    3.2133    1.1119   -1.1193 O   0  0  0  0  0  0  0  0  0  0  0  0
    2.5091    0.3139   -0.5256 C   0  0  0  0  0  0  0  0  0  0  0  0
    0.9998    0.5357   -0.4645 C   0  0  0  0  0  0  0  0  0  0  0  0
    0.3665   -0.4666    0.3280 O   0  0  0  0  0  0  0  0  0  0  0  0
   -0.9909   -0.3941    0.4810 C   0  0  0  0  0  0  0  0  0  0  0  0
   -1.5410   -0.2220    1.7554 C   0  0  0  0  0  0  0  0  0  0  0  0
   -2.9246   -0.2039    1.9488 C   0  0  0  0  0  0  0  0  0  0  0  0
   -3.7590   -0.3479    0.8428 C   0  0  0  0  0  0  0  0  0  0  0  0
   -5.0863   -0.3255    1.0115 F   0  0  0  0  0  0  0  0  0  0  0  0
   -3.2489   -0.5184   -0.4438 C   0  0  0  0  0  0  0  0  0  0  0  0
   -1.8681   -0.5467   -0.6058 C   0  0  0  0  0  0  0  0  0  0  0  0
   -1.3572   -0.7289   -1.8321 F   0  0  0  0  0  0  0  0  0  0  0  0
    2.9567   -0.8058    0.1013 N   0  0  0  0  0  0  0  0  0  0  0  0
    4.3579   -1.1742    0.1439 C   0  0  0  0  0  0  0  0  0  0  0  0
    4.6356   -2.5669   -0.3892 C   0  0  0  0  0  0  0  0  0  0  0  0
    4.0702   -3.0076   -1.5962 C   0  0  0  0  0  0  0  0  0  0  0  0
    4.3565   -4.2722   -2.1073 C   0  0  0  0  0  0  0  0  0  0  0  0
    5.2097   -5.1384   -1.4066 C   0  0  0  0  0  0  0  0  0  0  0  0
    5.5022   -6.4283   -1.9195 N   0  0  0  0  0  0  0  0  0  0  0  0
    4.6364   -7.2803   -2.5871 C   0  0  0  0  0  0  0  0  0  0  0  0
    5.3775   -8.3976   -2.8926 C   0  0  0  0  0  0  0  0  0  0  0  0
    6.6689   -8.2571   -2.4460 N   0  0  0  0  0  0  0  0  0  0  0  0
    6.7150   -7.0812   -1.8708 C   0  0  0  0  0  0  0  0  0  0  0  0
    5.7705   -4.7165   -0.1940 C   0  0  0  0  0  0  0  0  0  0  0  0
    5.4875   -3.4410    0.2987 C   0  0  0  0  0  0  0  0  0  0  0  0
    0.6214    0.5320   -1.4994 H   0  0  0  0  0  0  0  0  0  0  0  0
    0.8244    1.5399   -0.0403 H   0  0  0  0  0  0  0  0  0  0  0  0
   -0.8564   -0.1098    2.5984 H   0  0  0  0  0  0  0  0  0  0  0  0
   -3.3617   -0.0746    2.9401 H   0  0  0  0  0  0  0  0  0  0  0  0
   -3.9101   -0.6383   -1.3028 H   0  0  0  0  0  0  0  0  0  0  0  0
    2.2661   -1.3856    0.5670 H   0  0  0  0  0  0  0  0  0  0  0  0
    4.7480   -1.0938    1.1739 H   0  0  0  0  0  0  0  0  0  0  0  0
    4.8849   -0.4163   -0.4582 H   0  0  0  0  0  0  0  0  0  0  0  0
    3.4028   -2.3444   -2.1518 H   0  0  0  0  0  0  0  0  0  0  0  0
    3.9338   -4.5845   -3.0642 H   0  0  0  0  0  0  0  0  0  0  0  0
    3.5905   -7.0307   -2.7431 H   0  0  0  0  0  0  0  0  0  0  0  0
    5.0423   -9.2975   -3.4076 H   0  0  0  0  0  0  0  0  0  0  0  0
    7.5952   -6.6170   -1.4263 H   0  0  0  0  0  0  0  0  0  0  0  0
    6.4070   -5.3951    0.3767 H   0  0  0  0  0  0  0  0  0  0  0  0
    5.9292   -3.1281    1.2492 H   0  0  0  0  0  0  0  0  0  0  0  0
  1  2  2  0
  2  3  1  0
  2 13  1  0
  3  4  1  0
  3 26  1  0
  3 27  1  0
  4  5  1  0
  5  6  2  0
  5 11  1  0
  6  7  1  0
  6 28  1  0
  7  8  2  0
  7 29  1  0
  8  9  1  0
  8 10  1  0
 10 11  2  0
 10 30  1  0
 11 12  1  0
 13 14  1  0
 13 31  1  0
 14 15  1  0
 14 32  1  0
 14 33  1  0
 15 16  2  0
 15 25  1  0
 16 17  1  0
 16 34  1  0
 17 18  2  0
 17 35  1  0
 18 19  1  0
 18 24  1  0
 19 20  1  0
 19 23  1  0
 20 21  2  0
 20 36  1  0
 21 22  1  0
 21 37  1  0
 22 23  2  0
 23 38  1  0
 24 25  2  0
 24 39  1  0
 25 40  1  0
M  END

