
     RDKit          3D

 38 42  0  0  0  0  0  0  0  0999 V2000
    0.9283   -0.9394   -0.6508 O   0  0  0  0  0  0  0  0  0  0  0  0
    2.0913   -0.5699   -0.6419 C   0  0  0  0  0  0  0  0  0  0  0  0
    2.5910    0.8175   -0.4939 C   0  0  0  0  0  0  0  0  0  0  0  0
    2.0095    2.0394   -0.3450 C   0  0  0  0  0  0  0  0  0  0  0  0
    0.6401    2.5175   -0.2571 C   0  0  0  0  0  0  0  0  0  0  0  0
   -0.5124    1.6827   -0.3119 C   0  0  0  0  0  0  0  0  0  0  0  0
   -1.7961    2.2098   -0.2203 C   0  0  0  0  0  0  0  0  0  0  0  0
   -1.9171    3.5906   -0.0723 C   0  0  0  0  0  0  0  0  0  0  0  0
   -3.0877    4.2748    0.0322 O   0  0  0  0  0  0  0  0  0  0  0  0
   -2.7591    5.6037    0.1621 C   0  0  0  0  0  0  0  0  0  0  0  0
   -3.6679    6.6469    0.2972 C   0  0  0  0  0  0  0  0  0  0  0  0
   -3.1327    7.9331    0.4171 C   0  0  0  0  0  0  0  0  0  0  0  0
   -1.7428    8.1521    0.4010 C   0  0  0  0  0  0  0  0  0  0  0  0
   -0.8469    7.0899    0.2643 C   0  0  0  0  0  0  0  0  0  0  0  0
   -1.3616    5.7919    0.1424 C   0  0  0  0  0  0  0  0  0  0  0  0
   -0.8016    4.4578   -0.0130 C   0  0  0  0  0  0  0  0  0  0  0  0
    0.4781    3.9155   -0.1058 C   0  0  0  0  0  0  0  0  0  0  0  0
    4.4077    0.8271   -0.5361 S   0  0  1  0  0  0  0  0  0  0  0  0
    4.8918    1.5215   -1.7356 O   0  0  0  0  0  0  0  0  0  0  0  0
    4.9517    1.2057    0.7737 O   0  0  0  0  0  0  0  0  0  0  0  0
    4.5077   -0.9480   -0.7583 C   0  0  0  0  0  0  0  0  0  0  0  0
    5.6705   -1.7017   -0.8833 C   0  0  0  0  0  0  0  0  0  0  0  0
    5.5306   -3.0843   -1.0458 C   0  0  0  0  0  0  0  0  0  0  0  0
    4.2596   -3.6815   -1.0797 C   0  0  0  0  0  0  0  0  0  0  0  0
    3.1049   -2.9072   -0.9523 C   0  0  0  0  0  0  0  0  0  0  0  0
    3.2358   -1.5237   -0.7898 C   0  0  0  0  0  0  0  0  0  0  0  0
    2.7390    2.8577   -0.2757 H   0  0  0  0  0  0  0  0  0  0  0  0
   -0.3709    0.6088   -0.4293 H   0  0  0  0  0  0  0  0  0  0  0  0
   -2.6797    1.5710   -0.2625 H   0  0  0  0  0  0  0  0  0  0  0  0
   -4.7430    6.4608    0.3080 H   0  0  0  0  0  0  0  0  0  0  0  0
   -3.8088    8.7845    0.5254 H   0  0  0  0  0  0  0  0  0  0  0  0
   -1.3606    9.1709    0.4971 H   0  0  0  0  0  0  0  0  0  0  0  0
    0.2307    7.2688    0.2526 H   0  0  0  0  0  0  0  0  0  0  0  0
    1.3585    4.5613   -0.0627 H   0  0  0  0  0  0  0  0  0  0  0  0
    6.6543   -1.2287   -0.8555 H   0  0  0  0  0  0  0  0  0  0  0  0
    6.4229   -3.7070   -1.1474 H   0  0  0  0  0  0  0  0  0  0  0  0
    4.1772   -4.7635   -1.2073 H   0  0  0  0  0  0  0  0  0  0  0  0
    2.1064   -3.3489   -0.9759 H   0  0  0  0  0  0  0  0  0  0  0  0
  1  2  2  0
  2  3  1  0
  2 26  1  0
  3  4  2  0
 18  3  1  1
  4  5  1  0
  4 27  1  0
  5  6  2  0
  5 17  1  0
  6  7  1  0
  6 28  1  0
  7  8  2  0
  7 29  1  0
  8  9  1  0
  8 16  1  0
  9 10  1  0
 10 11  1  0
 10 15  2  0
 11 12  2  0
 11 30  1  0
 12 13  1  0
 12 31  1  0
 13 14  2  0
 13 32  1  0
 14 15  1  0
 14 33  1  0
 15 16  1  0
 16 17  2  0
 17 34  1  0
 18 19  2  0
 18 20  2  0
 18 21  1  0
 21 22  2  0
 21 26  1  0
 22 23  1  0
 22 35  1  0
 23 24  2  0
 23 36  1  0
 24 25  1  0
 24 37  1  0
 25 26  2  0
 25 38  1  0
M  END

