
     RDKit          3D

 45 46  0  0  0  0  0  0  0  0999 V2000
    3.0639    1.1988   -3.4712 C   0  0  0  0  0  0  0  0  0  0  0  0
    2.4710    0.6124   -2.1873 C   0  0  0  0  0  0  0  0  0  0  0  0
    2.8212    1.3942   -0.9051 C   0  0  1  0  0  0  0  0  0  0  0  0
    2.2857    2.8506   -0.9054 C   0  0  0  0  0  0  0  0  0  0  0  0
    0.8394    2.9695   -0.9501 N   0  0  0  0  0  0  0  0  0  0  0  0
    0.1659    3.4524   -2.0251 C   0  0  0  0  0  0  0  0  0  0  0  0
    0.6799    3.7856   -3.0825 O   0  0  0  0  0  0  0  0  0  0  0  0
   -1.3649    3.5179   -1.8599 C   0  0  1  0  0  0  0  0  0  0  0  0
   -2.0264    2.2695   -2.4334 C   0  0  0  0  0  0  0  0  0  0  0  0
   -1.7653    3.6216   -0.4951 O   0  0  0  0  0  0  0  0  0  0  0  0
   -1.7019    4.8158    0.1512 C   0  0  0  0  0  0  0  0  0  0  0  0
   -1.1233    5.9777   -0.3842 C   0  0  0  0  0  0  0  0  0  0  0  0
   -1.1042    7.1640    0.3560 C   0  0  0  0  0  0  0  0  0  0  0  0
   -1.6531    7.2112    1.6375 C   0  0  0  0  0  0  0  0  0  0  0  0
   -2.2237    6.0576    2.1851 C   0  0  0  0  0  0  0  0  0  0  0  0
   -2.2474    4.8725    1.4512 C   0  0  0  0  0  0  0  0  0  0  0  0
   -3.0246    3.3093    2.2117 Br  0  0  0  0  0  0  0  0  0  0  0  0
    2.4260    0.6709    0.3766 C   0  0  0  0  0  0  0  0  0  0  0  0
    3.2941    0.6795    1.4822 C   0  0  0  0  0  0  0  0  0  0  0  0
    2.9440    0.0635    2.6863 C   0  0  0  0  0  0  0  0  0  0  0  0
    1.7086   -0.5786    2.8123 C   0  0  0  0  0  0  0  0  0  0  0  0
    0.8337   -0.5996    1.7233 C   0  0  0  0  0  0  0  0  0  0  0  0
    1.1896    0.0168    0.5191 C   0  0  0  0  0  0  0  0  0  0  0  0
    2.8734    0.5296   -4.3255 H   0  0  0  0  0  0  0  0  0  0  0  0
    4.1573    1.3236   -3.3893 H   0  0  0  0  0  0  0  0  0  0  0  0
    2.6200    2.1758   -3.7153 H   0  0  0  0  0  0  0  0  0  0  0  0
    2.8232   -0.4248   -2.0548 H   0  0  0  0  0  0  0  0  0  0  0  0
    1.3750    0.5462   -2.2961 H   0  0  0  0  0  0  0  0  0  0  0  0
    3.9204    1.5032   -0.8803 H   0  0  0  0  0  0  0  0  0  0  0  0
    2.6724    3.3931   -1.7787 H   0  0  0  0  0  0  0  0  0  0  0  0
    2.6572    3.3621   -0.0021 H   0  0  0  0  0  0  0  0  0  0  0  0
    0.2975    2.7369   -0.1237 H   0  0  0  0  0  0  0  0  0  0  0  0
   -1.6984    4.4011   -2.4277 H   0  0  0  0  0  0  0  0  0  0  0  0
   -1.7270    1.3768   -1.8636 H   0  0  0  0  0  0  0  0  0  0  0  0
   -1.7227    2.1416   -3.4822 H   0  0  0  0  0  0  0  0  0  0  0  0
   -3.1210    2.3636   -2.3831 H   0  0  0  0  0  0  0  0  0  0  0  0
   -0.6736    5.9612   -1.3775 H   0  0  0  0  0  0  0  0  0  0  0  0
   -0.6484    8.0555   -0.0813 H   0  0  0  0  0  0  0  0  0  0  0  0
   -1.6382    8.1372    2.2164 H   0  0  0  0  0  0  0  0  0  0  0  0
   -2.6564    6.0713    3.1870 H   0  0  0  0  0  0  0  0  0  0  0  0
    4.2657    1.1755    1.3944 H   0  0  0  0  0  0  0  0  0  0  0  0
    3.6411    0.0820    3.5282 H   0  0  0  0  0  0  0  0  0  0  0  0
    1.4313   -1.0624    3.7523 H   0  0  0  0  0  0  0  0  0  0  0  0
   -0.1338   -1.1015    1.8081 H   0  0  0  0  0  0  0  0  0  0  0  0
    0.4938   -0.0229   -0.3216 H   0  0  0  0  0  0  0  0  0  0  0  0
  1  2  1  0
  1 24  1  0
  1 25  1  0
  1 26  1  0
  2  3  1  0
  2 27  1  0
  2 28  1  0
  3  4  1  0
  3 18  1  0
  3 29  1  1
  4  5  1  0
  4 30  1  0
  4 31  1  0
  5  6  1  0
  5 32  1  0
  6  7  2  0
  6  8  1  0
  8  9  1  0
  8 10  1  0
  8 33  1  6
  9 34  1  0
  9 35  1  0
  9 36  1  0
 10 11  1  0
 11 12  2  0
 11 16  1  0
 12 13  1  0
 12 37  1  0
 13 14  2  0
 13 38  1  0
 14 15  1  0
 14 39  1  0
 15 16  2  0
 15 40  1  0
 16 17  1  0
 18 19  2  0
 18 23  1  0
 19 20  1  0
 19 41  1  0
 20 21  2  0
 20 42  1  0
 21 22  1  0
 21 43  1  0
 22 23  2  0
 22 44  1  0
 23 45  1  0
M  END

