
     RDKit          3D

 54 58  0  0  0  0  0  0  0  0999 V2000
    0.9412   -0.0838   -0.3522 C   0  0  0  0  0  0  0  0  0  0  0  0
    1.8815   -0.3315    0.7916 C   0  0  0  0  0  0  0  0  0  0  0  0
    2.2040    0.6221    1.7643 C   0  0  0  0  0  0  0  0  0  0  0  0
    1.6197    1.8469    1.6382 O   0  0  0  0  0  0  0  0  0  0  0  0
    1.8355    2.8587    2.5383 C   0  0  0  0  0  0  0  0  0  0  0  0
    1.5075    2.7650    3.8940 C   0  0  0  0  0  0  0  0  0  0  0  0
    1.6686    3.8702    4.7298 C   0  0  0  0  0  0  0  0  0  0  0  0
    2.1681    5.0625    4.1979 C   0  0  0  0  0  0  0  0  0  0  0  0
    2.3698    6.4911    5.2781 S   0  0  1  0  0  0  0  0  0  0  0  0
    2.3941    7.6932    4.4261 O   0  0  0  0  0  0  0  0  0  0  0  0
    1.4062    6.3503    6.3775 O   0  0  0  0  0  0  0  0  0  0  0  0
    4.0130    6.3069    5.9771 C   0  0  1  0  0  0  0  0  0  0  0  0
    5.2122    6.7779    5.1999 C   0  0  0  0  0  0  0  0  0  0  0  0
    4.7195    7.5788    6.3713 C   0  0  0  0  0  0  0  0  0  0  0  0
    2.4827    5.1849    2.8428 C   0  0  0  0  0  0  0  0  0  0  0  0
    2.3206    4.0718    2.0261 C   0  0  0  0  0  0  0  0  0  0  0  0
    2.6155    4.1516    0.7271 F   0  0  0  0  0  0  0  0  0  0  0  0
    3.0409    0.4081    2.7750 N   0  0  0  0  0  0  0  0  0  0  0  0
    3.5837   -0.8029    2.8389 C   0  0  0  0  0  0  0  0  0  0  0  0
    3.3678   -1.8082    1.9960 N   0  0  0  0  0  0  0  0  0  0  0  0
    2.5231   -1.5738    0.9893 C   0  0  0  0  0  0  0  0  0  0  0  0
    2.2471   -2.5413    0.1081 O   0  0  0  0  0  0  0  0  0  0  0  0
    2.8698   -3.8380    0.2318 C   0  0  1  0  0  0  0  0  0  0  0  0
    1.9122   -4.8614   -0.3816 C   0  0  0  0  0  0  0  0  0  0  0  0
    2.6389   -6.2288   -0.6041 C   0  0  1  0  0  0  0  0  0  0  0  0
    3.1059   -6.4191   -2.0676 C   0  0  0  0  0  0  0  0  0  0  0  0
    4.5414   -5.8204   -2.0841 C   0  0  0  0  0  0  0  0  0  0  0  0
    4.7496   -5.3216   -0.6354 C   0  0  1  0  0  0  0  0  0  0  0  0
    5.8021   -5.4047   -0.3246 H   0  0  0  0  0  0  0  0  0  0  0  0
    4.2512   -3.8519   -0.4333 C   0  0  0  0  0  0  0  0  0  0  0  0
    3.9289   -6.2970    0.0981 N   0  0  0  0  0  0  0  0  0  0  0  0
    0.7805    0.9913   -0.5017 H   0  0  0  0  0  0  0  0  0  0  0  0
   -0.0401   -0.5553   -0.1704 H   0  0  0  0  0  0  0  0  0  0  0  0
    1.3372   -0.5234   -1.2796 H   0  0  0  0  0  0  0  0  0  0  0  0
    1.1197    1.8235    4.2831 H   0  0  0  0  0  0  0  0  0  0  0  0
    1.3908    3.8210    5.7838 H   0  0  0  0  0  0  0  0  0  0  0  0
    4.0767    5.4265    6.6222 H   0  0  0  0  0  0  0  0  0  0  0  0
    5.0308    7.1963    4.2063 H   0  0  0  0  0  0  0  0  0  0  0  0
    6.1283    6.1892    5.2982 H   0  0  0  0  0  0  0  0  0  0  0  0
    4.2064    8.5183    6.1498 H   0  0  0  0  0  0  0  0  0  0  0  0
    5.2785    7.5609    7.3106 H   0  0  0  0  0  0  0  0  0  0  0  0
    2.8318    6.1292    2.4230 H   0  0  0  0  0  0  0  0  0  0  0  0
    4.2785   -0.9908    3.6664 H   0  0  0  0  0  0  0  0  0  0  0  0
    2.9953   -4.0371    1.3053 H   0  0  0  0  0  0  0  0  0  0  0  0
    1.5297   -4.4596   -1.3340 H   0  0  0  0  0  0  0  0  0  0  0  0
    1.0398   -4.9783    0.2812 H   0  0  0  0  0  0  0  0  0  0  0  0
    1.9866   -7.0532   -0.2780 H   0  0  0  0  0  0  0  0  0  0  0  0
    2.4254   -5.9360   -2.7843 H   0  0  0  0  0  0  0  0  0  0  0  0
    3.1340   -7.4907   -2.3124 H   0  0  0  0  0  0  0  0  0  0  0  0
    4.6691   -5.0155   -2.8229 H   0  0  0  0  0  0  0  0  0  0  0  0
    5.2796   -6.6017   -2.3159 H   0  0  0  0  0  0  0  0  0  0  0  0
    4.1803   -3.3253   -1.3995 H   0  0  0  0  0  0  0  0  0  0  0  0
    4.9498   -3.2788    0.1945 H   0  0  0  0  0  0  0  0  0  0  0  0
    3.8607   -6.1035    1.0962 H   0  0  0  0  0  0  0  0  0  0  0  0
  1  2  1  0
  1 32  1  0
  1 33  1  0
  1 34  1  0
  2  3  2  0
  2 21  1  0
  3  4  1  0
  3 18  1  0
  4  5  1  0
  5  6  2  0
  5 16  1  0
  6  7  1  0
  6 35  1  0
  7  8  2  0
  7 36  1  0
  9  8  1  6
  8 15  1  0
  9 10  2  0
  9 11  2  0
  9 12  1  0
 12 13  1  0
 12 14  1  0
 12 37  1  1
 13 14  1  0
 13 38  1  0
 13 39  1  0
 14 40  1  0
 14 41  1  0
 15 16  2  0
 15 42  1  0
 16 17  1  0
 18 19  2  0
 19 20  1  0
 19 43  1  0
 20 21  2  0
 21 22  1  0
 22 23  1  0
 23 24  1  0
 23 30  1  0
 23 44  1  1
 24 25  1  0
 24 45  1  0
 24 46  1  0
 25 26  1  0
 25 31  1  0
 25 47  1  1
 26 27  1  0
 26 48  1  0
 26 49  1  0
 27 28  1  0
 27 50  1  0
 27 51  1  0
 28 29  1  1
 28 30  1  0
 28 31  1  0
 30 52  1  0
 30 53  1  0
 31 54  1  0
M  END

