
     RDKit          3D

 46 45  0  0  0  0  0  0  0  0999 V2000
    0.7112   -0.6220    0.8659 C   0  0  0  0  0  0  0  0  0  0  0  0
    2.2395   -0.6666    0.8295 C   0  0  0  0  0  0  0  0  0  0  0  0
    2.8065   -2.0659    0.5706 C   0  0  0  0  0  0  0  0  0  0  0  0
    4.3362   -2.1176    0.5310 C   0  0  0  0  0  0  0  0  0  0  0  0
    4.8996   -3.5246    0.2682 C   0  0  0  0  0  0  0  0  0  0  0  0
    6.4019   -3.5803    0.2730 C   0  0  0  0  0  0  0  0  0  0  0  0
    7.1733   -3.9359   -0.7620 C   0  0  0  0  0  0  0  0  0  0  0  0
    8.6757   -3.9910   -0.7571 C   0  0  0  0  0  0  0  0  0  0  0  0
    9.2396   -5.3978   -1.0195 C   0  0  0  0  0  0  0  0  0  0  0  0
   10.7695   -5.4480   -1.0596 C   0  0  0  0  0  0  0  0  0  0  0  0
   11.3364   -6.8469   -1.3184 C   0  0  0  0  0  0  0  0  0  0  0  0
   12.8665   -6.8984   -1.3566 C   0  0  0  0  0  0  0  0  0  0  0  0
   13.4325   -8.2977   -1.6156 C   0  0  0  0  0  0  0  0  0  0  0  0
   14.9618   -8.3499   -1.6481 C   0  0  0  0  0  0  0  0  0  0  0  0
   15.5246   -9.7446   -1.9175 C   0  0  0  0  0  0  0  0  0  0  0  0
   16.9358   -9.7923   -1.8756 O   0  0  0  0  0  0  0  0  0  0  0  0
    0.3394    0.3980    1.0540 H   0  0  0  0  0  0  0  0  0  0  0  0
    0.3096   -1.2739    1.6600 H   0  0  0  0  0  0  0  0  0  0  0  0
    0.2771   -0.9632   -0.0891 H   0  0  0  0  0  0  0  0  0  0  0  0
    2.6426   -0.2832    1.7847 H   0  0  0  0  0  0  0  0  0  0  0  0
    2.6105    0.0244    0.0507 H   0  0  0  0  0  0  0  0  0  0  0  0
    2.4032   -2.4509   -0.3849 H   0  0  0  0  0  0  0  0  0  0  0  0
    2.4375   -2.7588    1.3502 H   0  0  0  0  0  0  0  0  0  0  0  0
    4.7402   -1.7363    1.4873 H   0  0  0  0  0  0  0  0  0  0  0  0
    4.7109   -1.4295   -0.2481 H   0  0  0  0  0  0  0  0  0  0  0  0
    4.5165   -3.9030   -0.6957 H   0  0  0  0  0  0  0  0  0  0  0  0
    4.5069   -4.2079    1.0459 H   0  0  0  0  0  0  0  0  0  0  0  0
    6.8904   -3.2837    1.2127 H   0  0  0  0  0  0  0  0  0  0  0  0
    6.6850   -4.2323   -1.7018 H   0  0  0  0  0  0  0  0  0  0  0  0
    9.0586   -3.6123    0.2067 H   0  0  0  0  0  0  0  0  0  0  0  0
    9.0684   -3.3078   -1.5350 H   0  0  0  0  0  0  0  0  0  0  0  0
    8.8356   -5.7799   -1.9754 H   0  0  0  0  0  0  0  0  0  0  0  0
    8.8658   -6.0858   -0.2399 H   0  0  0  0  0  0  0  0  0  0  0  0
   11.1723   -5.0623   -0.1045 H   0  0  0  0  0  0  0  0  0  0  0  0
   11.1370   -4.7548   -1.8393 H   0  0  0  0  0  0  0  0  0  0  0  0
   10.9344   -7.2325   -2.2739 H   0  0  0  0  0  0  0  0  0  0  0  0
   10.9677   -7.5396   -0.5391 H   0  0  0  0  0  0  0  0  0  0  0  0
   13.2691   -6.5141   -0.4011 H   0  0  0  0  0  0  0  0  0  0  0  0
   13.2358   -6.2057   -2.1358 H   0  0  0  0  0  0  0  0  0  0  0  0
   13.0305   -8.6809   -2.5722 H   0  0  0  0  0  0  0  0  0  0  0  0
   13.0609   -8.9897   -0.8371 H   0  0  0  0  0  0  0  0  0  0  0  0
   15.3776   -7.9881   -0.6912 H   0  0  0  0  0  0  0  0  0  0  0  0
   15.3364   -7.6572   -2.4270 H   0  0  0  0  0  0  0  0  0  0  0  0
   15.1309  -10.1265   -2.8836 H   0  0  0  0  0  0  0  0  0  0  0  0
   15.1735  -10.4444   -1.1405 H   0  0  0  0  0  0  0  0  0  0  0  0
   17.2742   -9.2015   -2.5612 H   0  0  0  0  0  0  0  0  0  0  0  0
  1  2  1  0
  1 17  1  0
  1 18  1  0
  1 19  1  0
  2  3  1  0
  2 20  1  0
  2 21  1  0
  3  4  1  0
  3 22  1  0
  3 23  1  0
  4  5  1  0
  4 24  1  0
  4 25  1  0
  5  6  1  0
  5 26  1  0
  5 27  1  0
  6  7  2  0
  6 28  1  0
  7  8  1  0
  7 29  1  0
  8  9  1  0
  8 30  1  0
  8 31  1  0
  9 10  1  0
  9 32  1  0
  9 33  1  0
 10 11  1  0
 10 34  1  0
 10 35  1  0
 11 12  1  0
 11 36  1  0
 11 37  1  0
 12 13  1  0
 12 38  1  0
 12 39  1  0
 13 14  1  0
 13 40  1  0
 13 41  1  0
 14 15  1  0
 14 42  1  0
 14 43  1  0
 15 16  1  0
 15 44  1  0
 15 45  1  0
 16 46  1  0
M  END

