
     RDKit          3D

 47 50  0  0  0  0  0  0  0  0999 V2000
    4.4176   -4.9688   -1.8954 C   0  0  0  0  0  0  0  0  0  0  0  0
    2.9915   -4.9165   -1.3469 C   0  0  0  0  0  0  0  0  0  0  0  0
    2.7115   -3.6551   -0.5102 C   0  0  1  0  0  0  0  0  0  0  0  0
    2.8124   -2.4146   -1.3018 N   0  0  0  0  0  0  0  0  0  0  0  0
    1.7254   -2.0570   -2.2192 C   0  0  2  0  0  0  0  0  0  0  0  0
    1.9034   -2.6545   -3.6604 C   0  0  0  0  0  0  0  0  0  0  0  0
    1.9990   -1.4090   -4.5723 C   0  0  2  0  0  0  0  0  0  0  0  0
    2.7640   -0.4312   -3.6552 C   0  0  0  0  0  0  0  0  0  0  0  0
    1.7379   -0.5311   -2.5066 C   0  0  1  0  0  0  0  0  0  0  0  0
    0.4113   -0.1600   -3.2093 C   0  0  1  0  0  0  0  0  0  0  0  0
    0.1405    1.3478   -3.4170 C   0  0  0  0  0  0  0  0  0  0  0  0
   -0.4148    1.4481   -4.8471 C   0  0  0  0  0  0  0  0  0  0  0  0
    0.4277    0.4265   -5.6281 C   0  0  0  0  0  0  0  0  0  0  0  0
    0.5971   -0.7627   -4.6556 C   0  0  1  0  0  0  0  0  0  0  0  0
    1.4265   -3.7432    0.3235 C   0  0  0  0  0  0  0  0  0  0  0  0
    1.3620   -3.0678    1.5543 C   0  0  0  0  0  0  0  0  0  0  0  0
    0.1972   -3.0780    2.3234 C   0  0  0  0  0  0  0  0  0  0  0  0
   -0.9383   -3.7637    1.8826 C   0  0  0  0  0  0  0  0  0  0  0  0
   -0.8769   -4.4374    0.6614 C   0  0  0  0  0  0  0  0  0  0  0  0
   -2.2849   -5.3083    0.0864 Cl  0  0  0  0  0  0  0  0  0  0  0  0
    0.2868   -4.4349   -0.1140 C   0  0  0  0  0  0  0  0  0  0  0  0
    4.5679   -5.8514   -2.5370 H   0  0  0  0  0  0  0  0  0  0  0  0
    5.1545   -5.0228   -1.0765 H   0  0  0  0  0  0  0  0  0  0  0  0
    4.6479   -4.0682   -2.4832 H   0  0  0  0  0  0  0  0  0  0  0  0
    2.8077   -5.7975   -0.7091 H   0  0  0  0  0  0  0  0  0  0  0  0
    2.2693   -4.9905   -2.1767 H   0  0  0  0  0  0  0  0  0  0  0  0
    3.5367   -3.5809    0.2195 H   0  0  0  0  0  0  0  0  0  0  0  0
    2.9656   -1.6394   -0.6604 H   0  0  0  0  0  0  0  0  0  0  0  0
    0.7402   -2.3406   -1.8031 H   0  0  0  0  0  0  0  0  0  0  0  0
    1.0739   -3.3191   -3.9508 H   0  0  0  0  0  0  0  0  0  0  0  0
    2.8346   -3.2338   -3.7093 H   0  0  0  0  0  0  0  0  0  0  0  0
    2.4540   -1.6140   -5.5537 H   0  0  0  0  0  0  0  0  0  0  0  0
    2.8703    0.5824   -4.0705 H   0  0  0  0  0  0  0  0  0  0  0  0
    3.7600   -0.7982   -3.3659 H   0  0  0  0  0  0  0  0  0  0  0  0
    1.9393    0.0739   -1.6073 H   0  0  0  0  0  0  0  0  0  0  0  0
   -0.4429   -0.6208   -2.6883 H   0  0  0  0  0  0  0  0  0  0  0  0
    1.0816    1.9205   -3.3466 H   0  0  0  0  0  0  0  0  0  0  0  0
   -0.5412    1.7627   -2.6577 H   0  0  0  0  0  0  0  0  0  0  0  0
   -0.3663    2.4670   -5.2645 H   0  0  0  0  0  0  0  0  0  0  0  0
   -1.4767    1.1440   -4.8583 H   0  0  0  0  0  0  0  0  0  0  0  0
    1.4103    0.8673   -5.8708 H   0  0  0  0  0  0  0  0  0  0  0  0
   -0.0309    0.1282   -6.5842 H   0  0  0  0  0  0  0  0  0  0  0  0
   -0.1661   -1.5275   -4.8718 H   0  0  0  0  0  0  0  0  0  0  0  0
    2.2433   -2.5307    1.9181 H   0  0  0  0  0  0  0  0  0  0  0  0
    0.1698   -2.5531    3.2819 H   0  0  0  0  0  0  0  0  0  0  0  0
   -1.8555   -3.7829    2.4731 H   0  0  0  0  0  0  0  0  0  0  0  0
    0.2900   -4.9840   -1.0559 H   0  0  0  0  0  0  0  0  0  0  0  0
  1  2  1  0
  1 22  1  0
  1 23  1  0
  1 24  1  0
  2  3  1  0
  2 25  1  0
  2 26  1  0
  3  4  1  0
  3 15  1  0
  3 27  1  1
  4  5  1  0
  4 28  1  0
  5  6  1  0
  5  9  1  0
  5 29  1  1
  6  7  1  0
  6 30  1  0
  6 31  1  0
  7  8  1  0
  7 14  1  0
  7 32  1  6
  8  9  1  0
  8 33  1  0
  8 34  1  0
  9 10  1  0
  9 35  1  1
 10 11  1  0
 10 14  1  0
 10 36  1  1
 11 12  1  0
 11 37  1  0
 11 38  1  0
 12 13  1  0
 12 39  1  0
 12 40  1  0
 13 14  1  0
 13 41  1  0
 13 42  1  0
 14 43  1  6
 15 16  2  0
 15 21  1  0
 16 17  1  0
 16 44  1  0
 17 18  2  0
 17 45  1  0
 18 19  1  0
 18 46  1  0
 19 20  1  0
 19 21  2  0
 21 47  1  0
M  END

