
     RDKit          3D

 35 36  0  0  0  0  0  0  0  0999 V2000
    2.0366   -0.1299    1.6063 C   0  0  0  0  0  0  0  0  0  0  0  0
    2.7717   -0.1742    0.2724 C   0  0  0  0  0  0  0  0  0  0  0  0
    3.2012    1.1769   -0.0961 N   0  0  0  0  0  0  0  0  0  0  0  0
    4.1381    1.3838   -1.2733 S   0  0  1  0  0  0  0  0  0  0  0  0
    5.4265    0.6865   -1.4660 O   0  0  0  0  0  0  0  0  0  0  0  0
    3.2986    1.0434   -2.6897 O   0  0  0  0  0  0  0  0  0  0  0  0
    4.3768    3.1427   -1.3878 C   0  0  0  0  0  0  0  0  0  0  0  0
    3.3182    4.0176   -1.0627 C   0  0  0  0  0  0  0  0  0  0  0  0
    3.4856    5.3934   -1.1867 C   0  0  0  0  0  0  0  0  0  0  0  0
    4.7295    5.8528   -1.6418 C   0  0  0  0  0  0  0  0  0  0  0  0
    5.7931    4.9702   -1.9676 C   0  0  0  0  0  0  0  0  0  0  0  0
    5.6186    3.5862   -1.8388 C   0  0  0  0  0  0  0  0  0  0  0  0
    6.8972    5.6901   -2.3756 N   0  0  0  0  0  0  0  0  0  0  0  0
    6.5411    6.9490   -2.3074 C   0  0  0  0  0  0  0  0  0  0  0  0
    7.4304    8.0989   -2.6517 C   0  0  0  0  0  0  0  0  0  0  0  0
    5.2344    7.1202   -1.8617 N   0  0  0  0  0  0  0  0  0  0  0  0
    4.5026    8.3708   -1.7143 C   0  0  0  0  0  0  0  0  0  0  0  0
    3.6543    8.7334   -2.9342 C   0  0  0  0  0  0  0  0  0  0  0  0
    1.6945   -1.1365    1.8959 H   0  0  0  0  0  0  0  0  0  0  0  0
    1.1581    0.5318    1.5446 H   0  0  0  0  0  0  0  0  0  0  0  0
    2.6944    0.2570    2.4002 H   0  0  0  0  0  0  0  0  0  0  0  0
    2.1050   -0.5921   -0.5063 H   0  0  0  0  0  0  0  0  0  0  0  0
    3.6359   -0.8613    0.3478 H   0  0  0  0  0  0  0  0  0  0  0  0
    3.9531    0.7062   -3.3246 H   0  0  0  0  0  0  0  0  0  0  0  0
    2.3803    3.5972   -0.6999 H   0  0  0  0  0  0  0  0  0  0  0  0
    2.6708    6.0747   -0.9331 H   0  0  0  0  0  0  0  0  0  0  0  0
    6.4207    2.8841   -2.0682 H   0  0  0  0  0  0  0  0  0  0  0  0
    8.3928    7.6972   -2.9915 H   0  0  0  0  0  0  0  0  0  0  0  0
    7.6125    8.7507   -1.7806 H   0  0  0  0  0  0  0  0  0  0  0  0
    7.0066    8.7253   -3.4539 H   0  0  0  0  0  0  0  0  0  0  0  0
    5.2310    9.1671   -1.5015 H   0  0  0  0  0  0  0  0  0  0  0  0
    3.8683    8.2848   -0.8173 H   0  0  0  0  0  0  0  0  0  0  0  0
    4.2797    8.8596   -3.8317 H   0  0  0  0  0  0  0  0  0  0  0  0
    3.1172    9.6783   -2.7561 H   0  0  0  0  0  0  0  0  0  0  0  0
    2.9095    7.9515   -3.1478 H   0  0  0  0  0  0  0  0  0  0  0  0
  1  2  1  0
  1 19  1  0
  1 20  1  0
  1 21  1  0
  2  3  1  0
  2 22  1  0
  2 23  1  0
  3  4  2  0
  4  5  2  0
  4  6  1  6
  4  7  1  0
  6 24  1  0
  7  8  2  0
  7 12  1  0
  8  9  1  0
  8 25  1  0
  9 10  2  0
  9 26  1  0
 10 11  1  0
 10 16  1  0
 11 12  2  0
 11 13  1  0
 12 27  1  0
 13 14  2  0
 14 15  1  0
 14 16  1  0
 15 28  1  0
 15 29  1  0
 15 30  1  0
 16 17  1  0
 17 18  1  0
 17 31  1  0
 17 32  1  0
 18 33  1  0
 18 34  1  0
 18 35  1  0
M  END

