
     RDKit          3D

 42 44  0  0  0  0  0  0  0  0999 V2000
    1.0624    0.8310   -0.5923 C   0  0  0  0  0  0  0  0  0  0  0  0
    2.4931    0.6292   -0.1451 C   0  0  0  0  0  0  0  0  0  0  0  0
    3.3517    1.7299   -0.0158 C   0  0  0  0  0  0  0  0  0  0  0  0
    4.6859    1.5533    0.3549 C   0  0  0  0  0  0  0  0  0  0  0  0
    5.2096    0.2788    0.5620 C   0  0  0  0  0  0  0  0  0  0  0  0
    4.3760   -0.8430    0.4081 C   0  0  0  0  0  0  0  0  0  0  0  0
    4.8560   -2.1582    0.5345 N   0  0  0  0  0  0  0  0  0  0  0  0
    6.0467   -2.5784    1.0529 C   0  0  0  0  0  0  0  0  0  0  0  0
    6.9136   -1.8713    1.5439 O   0  0  0  0  0  0  0  0  0  0  0  0
    6.2261   -4.0830    0.9725 C   0  0  0  0  0  0  0  0  0  0  0  0
    7.4135   -4.6367    1.4651 C   0  0  0  0  0  0  0  0  0  0  0  0
    7.5640   -6.0202    1.3783 C   0  0  0  0  0  0  0  0  0  0  0  0
    9.0122   -6.7839    1.9696 Cl  0  0  0  0  0  0  0  0  0  0  0  0
    6.5454   -6.7925    0.8121 C   0  0  0  0  0  0  0  0  0  0  0  0
    5.4025   -6.1300    0.3534 C   0  0  0  0  0  0  0  0  0  0  0  0
    5.2428   -4.8095    0.4323 N   0  0  0  0  0  0  0  0  0  0  0  0
    3.0038   -0.6603    0.1079 C   0  0  0  0  0  0  0  0  0  0  0  0
    2.1260   -1.8844   -0.0076 C   0  0  0  0  0  0  0  0  0  0  0  0
    2.2913   -2.7092   -0.9034 O   0  0  0  0  0  0  0  0  0  0  0  0
    1.1666   -2.0557    0.9447 N   0  0  0  0  0  0  0  0  0  0  0  0
    0.3161   -3.2544    0.9032 C   0  0  0  0  0  0  0  0  0  0  0  0
   -0.5507   -3.1291    2.1624 C   0  0  0  0  0  0  0  0  0  0  0  0
    0.3484   -2.3493    3.1328 C   0  0  0  0  0  0  0  0  0  0  0  0
    1.0383   -1.3301    2.2161 C   0  0  0  0  0  0  0  0  0  0  0  0
    0.8915    1.8754   -0.8906 H   0  0  0  0  0  0  0  0  0  0  0  0
    0.3351    0.5896    0.1991 H   0  0  0  0  0  0  0  0  0  0  0  0
    0.8216    0.1894   -1.4550 H   0  0  0  0  0  0  0  0  0  0  0  0
    2.9676    2.7341   -0.2134 H   0  0  0  0  0  0  0  0  0  0  0  0
    5.3389    2.4229    0.4659 H   0  0  0  0  0  0  0  0  0  0  0  0
    6.2515    0.1319    0.8361 H   0  0  0  0  0  0  0  0  0  0  0  0
    4.2870   -2.9041    0.1251 H   0  0  0  0  0  0  0  0  0  0  0  0
    8.1752   -3.9857    1.8935 H   0  0  0  0  0  0  0  0  0  0  0  0
    6.6412   -7.8760    0.7308 H   0  0  0  0  0  0  0  0  0  0  0  0
    4.5830   -6.7001   -0.0978 H   0  0  0  0  0  0  0  0  0  0  0  0
    0.9491   -4.1591    0.9164 H   0  0  0  0  0  0  0  0  0  0  0  0
   -0.2632   -3.2898   -0.0323 H   0  0  0  0  0  0  0  0  0  0  0  0
   -0.8697   -4.1071    2.5517 H   0  0  0  0  0  0  0  0  0  0  0  0
   -1.4619   -2.5475    1.9422 H   0  0  0  0  0  0  0  0  0  0  0  0
    1.0999   -3.0224    3.5786 H   0  0  0  0  0  0  0  0  0  0  0  0
   -0.2021   -1.8704    3.9561 H   0  0  0  0  0  0  0  0  0  0  0  0
    2.0198   -1.0034    2.5874 H   0  0  0  0  0  0  0  0  0  0  0  0
    0.4113   -0.4268    2.0999 H   0  0  0  0  0  0  0  0  0  0  0  0
  1  2  1  0
  1 25  1  0
  1 26  1  0
  1 27  1  0
  2  3  2  0
  2 17  1  0
  3  4  1  0
  3 28  1  0
  4  5  2  0
  4 29  1  0
  5  6  1  0
  5 30  1  0
  6  7  1  0
  6 17  2  0
  7  8  1  0
  7 31  1  0
  8  9  2  0
  8 10  1  0
 10 11  2  0
 10 16  1  0
 11 12  1  0
 11 32  1  0
 12 13  1  0
 12 14  2  0
 14 15  1  0
 14 33  1  0
 15 16  2  0
 15 34  1  0
 17 18  1  0
 18 19  2  0
 18 20  1  0
 20 21  1  0
 20 24  1  0
 21 22  1  0
 21 35  1  0
 21 36  1  0
 22 23  1  0
 22 37  1  0
 22 38  1  0
 23 24  1  0
 23 39  1  0
 23 40  1  0
 24 41  1  0
 24 42  1  0
M  END

