
     RDKit          3D

 42 42  0  0  0  0  0  0  0  0999 V2000
    0.4039    1.5514    0.0522 C   0  0  0  0  0  0  0  0  0  0  0  0
    1.4511    1.7334    1.1459 C   0  0  0  0  0  0  0  0  0  0  0  0
    2.7466    1.2463    0.7110 N   0  0  0  0  0  0  0  0  0  0  0  0
    3.9696    1.5385    1.2841 C   0  0  0  0  0  0  0  0  0  0  0  0
    5.1073    1.1246    0.8503 N   0  0  0  0  0  0  0  0  0  0  0  0
    5.1569    0.3255   -0.3463 C   0  0  0  0  0  0  0  0  0  0  0  0
    6.6029    0.0200   -0.7116 C   0  0  0  0  0  0  0  0  0  0  0  0
    6.6184   -0.7881   -1.8630 O   0  0  0  0  0  0  0  0  0  0  0  0
    7.9033   -1.1344   -2.2966 C   0  0  0  0  0  0  0  0  0  0  0  0
    3.9176    2.3944    2.3806 N   0  0  0  0  0  0  0  0  0  0  0  0
    5.1382    2.7109    3.1056 C   0  0  0  0  0  0  0  0  0  0  0  0
    5.9252    3.8346    2.4223 C   0  0  0  0  0  0  0  0  0  0  0  0
    7.3953    4.2260    3.4370 S   0  0  0  0  0  0  0  0  0  0  0  0
    8.1996    5.5233    2.5315 C   0  0  0  0  0  0  0  0  0  0  0  0
    7.7848    6.0062    1.2796 C   0  0  0  0  0  0  0  0  0  0  0  0
    8.4912    7.0310    0.6424 C   0  0  0  0  0  0  0  0  0  0  0  0
    9.6204    7.5813    1.2492 C   0  0  0  0  0  0  0  0  0  0  0  0
   10.5044    8.8645    0.4509 Cl  0  0  0  0  0  0  0  0  0  0  0  0
   10.0497    7.1111    2.4953 C   0  0  0  0  0  0  0  0  0  0  0  0
    9.3421    6.0921    3.1282 C   0  0  0  0  0  0  0  0  0  0  0  0
   -0.5750    1.9280    0.3854 H   0  0  0  0  0  0  0  0  0  0  0  0
    0.2785    0.4863   -0.2058 H   0  0  0  0  0  0  0  0  0  0  0  0
    0.6930    2.0932   -0.8619 H   0  0  0  0  0  0  0  0  0  0  0  0
    1.1027    1.2236    2.0698 H   0  0  0  0  0  0  0  0  0  0  0  0
    1.5457    2.8041    1.3928 H   0  0  0  0  0  0  0  0  0  0  0  0
    2.7485    0.4816    0.0480 H   0  0  0  0  0  0  0  0  0  0  0  0
    4.6788    0.8270   -1.2155 H   0  0  0  0  0  0  0  0  0  0  0  0
    4.6333   -0.6505   -0.2342 H   0  0  0  0  0  0  0  0  0  0  0  0
    7.0980   -0.4864    0.1430 H   0  0  0  0  0  0  0  0  0  0  0  0
    7.1506    0.9707   -0.8812 H   0  0  0  0  0  0  0  0  0  0  0  0
    7.8018   -1.7626   -3.1945 H   0  0  0  0  0  0  0  0  0  0  0  0
    8.4636   -1.7074   -1.5287 H   0  0  0  0  0  0  0  0  0  0  0  0
    8.5108   -0.2432   -2.5586 H   0  0  0  0  0  0  0  0  0  0  0  0
    3.0858    2.3240    2.9529 H   0  0  0  0  0  0  0  0  0  0  0  0
    5.7824    1.8192    3.1861 H   0  0  0  0  0  0  0  0  0  0  0  0
    4.8526    3.0249    4.1219 H   0  0  0  0  0  0  0  0  0  0  0  0
    5.2934    4.7308    2.3202 H   0  0  0  0  0  0  0  0  0  0  0  0
    6.2369    3.4903    1.4264 H   0  0  0  0  0  0  0  0  0  0  0  0
    6.9094    5.5892    0.7817 H   0  0  0  0  0  0  0  0  0  0  0  0
    8.1630    7.4013   -0.3305 H   0  0  0  0  0  0  0  0  0  0  0  0
   10.9337    7.5457    2.9653 H   0  0  0  0  0  0  0  0  0  0  0  0
    9.6802    5.7309    4.1030 H   0  0  0  0  0  0  0  0  0  0  0  0
  1  2  1  0
  1 21  1  0
  1 22  1  0
  1 23  1  0
  2  3  1  0
  2 24  1  0
  2 25  1  0
  3  4  1  0
  3 26  1  0
  4  5  2  0
  4 10  1  0
  5  6  1  0
  6  7  1  0
  6 27  1  0
  6 28  1  0
  7  8  1  0
  7 29  1  0
  7 30  1  0
  8  9  1  0
  9 31  1  0
  9 32  1  0
  9 33  1  0
 10 11  1  0
 10 34  1  0
 11 12  1  0
 11 35  1  0
 11 36  1  0
 12 13  1  0
 12 37  1  0
 12 38  1  0
 13 14  1  0
 14 15  2  0
 14 20  1  0
 15 16  1  0
 15 39  1  0
 16 17  2  0
 16 40  1  0
 17 18  1  0
 17 19  1  0
 19 20  2  0
 19 41  1  0
 20 42  1  0
M  END

