
     RDKit          3D

 39 41  0  0  0  0  0  0  0  0999 V2000
    0.7144    0.8903    0.4176 F   0  0  0  0  0  0  0  0  0  0  0  0
    1.4607   -0.2067    0.0385 C   0  0  1  0  0  0  0  0  0  0  0  0
    2.5766    0.2824   -0.5742 F   0  0  0  0  0  0  0  0  0  0  0  0
    1.8615   -0.9566    1.3081 C   0  0  0  0  0  0  0  0  0  0  0  0
    2.5493   -0.0888    2.2358 N   0  0  0  0  0  0  0  0  0  0  0  0
    2.9666   -0.7232    3.4833 C   0  0  2  0  0  0  0  0  0  0  0  0
    3.4742    0.3382    4.4792 C   0  0  0  0  0  0  0  0  0  0  0  0
    4.9984    0.3349    4.2565 C   0  0  0  0  0  0  0  0  0  0  0  0
    5.3436   -1.0557    3.9942 N   0  0  0  0  0  0  0  0  0  0  0  0
    5.6932   -1.9144    5.1366 C   0  0  0  0  0  0  0  0  0  0  0  0
    4.5683   -2.9578    5.2477 C   0  0  0  0  0  0  0  0  0  0  0  0
    4.1019   -3.0902    3.7912 C   0  0  0  0  0  0  0  0  0  0  0  0
    4.2156   -1.6545    3.2511 C   0  0  1  0  0  0  0  0  0  0  0  0
    0.6626   -1.0420   -0.9433 C   0  0  0  0  0  0  0  0  0  0  0  0
    1.3195   -1.7468   -1.9604 C   0  0  0  0  0  0  0  0  0  0  0  0
    0.5890   -2.5484   -2.8416 C   0  0  0  0  0  0  0  0  0  0  0  0
   -0.7996   -2.6481   -2.7136 C   0  0  0  0  0  0  0  0  0  0  0  0
   -1.4576   -1.9404   -1.7029 C   0  0  0  0  0  0  0  0  0  0  0  0
   -0.7299   -1.1389   -0.8198 C   0  0  0  0  0  0  0  0  0  0  0  0
    2.5158   -1.7890    1.0027 H   0  0  0  0  0  0  0  0  0  0  0  0
    0.9379   -1.4224    1.7221 H   0  0  0  0  0  0  0  0  0  0  0  0
    1.9582    0.7167    2.4320 H   0  0  0  0  0  0  0  0  0  0  0  0
    2.1372   -1.3145    3.9319 H   0  0  0  0  0  0  0  0  0  0  0  0
    3.2434    0.0248    5.5104 H   0  0  0  0  0  0  0  0  0  0  0  0
    3.0033    1.3221    4.3205 H   0  0  0  0  0  0  0  0  0  0  0  0
    5.5723    0.7324    5.1073 H   0  0  0  0  0  0  0  0  0  0  0  0
    5.2439    0.9545    3.3756 H   0  0  0  0  0  0  0  0  0  0  0  0
    5.8144   -1.3222    6.0594 H   0  0  0  0  0  0  0  0  0  0  0  0
    6.6621   -2.4195    4.9572 H   0  0  0  0  0  0  0  0  0  0  0  0
    3.7465   -2.5720    5.8752 H   0  0  0  0  0  0  0  0  0  0  0  0
    4.9007   -3.9104    5.6892 H   0  0  0  0  0  0  0  0  0  0  0  0
    3.0868   -3.5035    3.6879 H   0  0  0  0  0  0  0  0  0  0  0  0
    4.7857   -3.7528    3.2347 H   0  0  0  0  0  0  0  0  0  0  0  0
    4.4272   -1.6480    2.1681 H   0  0  0  0  0  0  0  0  0  0  0  0
    2.4021   -1.6549   -2.0667 H   0  0  0  0  0  0  0  0  0  0  0  0
    1.1069   -3.0927   -3.6353 H   0  0  0  0  0  0  0  0  0  0  0  0
   -1.3700   -3.2740   -3.4046 H   0  0  0  0  0  0  0  0  0  0  0  0
   -2.5439   -2.0082   -1.6043 H   0  0  0  0  0  0  0  0  0  0  0  0
   -1.2434   -0.5740   -0.0392 H   0  0  0  0  0  0  0  0  0  0  0  0
  2  1  1  1
  2  3  1  0
  2  4  1  0
  2 14  1  0
  4  5  1  0
  4 20  1  0
  4 21  1  0
  5  6  1  0
  5 22  1  0
  6  7  1  0
  6 13  1  0
  6 23  1  1
  7  8  1  0
  7 24  1  0
  7 25  1  0
  8  9  1  0
  8 26  1  0
  8 27  1  0
  9 10  1  0
  9 13  1  0
 10 11  1  0
 10 28  1  0
 10 29  1  0
 11 12  1  0
 11 30  1  0
 11 31  1  0
 12 13  1  0
 12 32  1  0
 12 33  1  0
 13 34  1  6
 14 15  2  0
 14 19  1  0
 15 16  1  0
 15 35  1  0
 16 17  2  0
 16 36  1  0
 17 18  1  0
 17 37  1  0
 18 19  2  0
 18 38  1  0
 19 39  1  0
M  END

