
     RDKit          3D

 39 40  0  0  0  0  0  0  0  0999 V2000
    3.3597   -2.0863   -0.5722 C   0  0  0  0  0  0  0  0  0  0  0  0
    4.1362   -0.9343   -0.3370 O   0  0  0  0  0  0  0  0  0  0  0  0
    4.0233    0.1242   -1.1804 C   0  0  0  0  0  0  0  0  0  0  0  0
    3.1835    0.1689   -2.3027 C   0  0  0  0  0  0  0  0  0  0  0  0
    3.1337    1.3071   -3.1114 C   0  0  0  0  0  0  0  0  0  0  0  0
    3.9259    2.4301   -2.8206 C   0  0  0  0  0  0  0  0  0  0  0  0
    3.8871    3.6036   -3.6223 N   0  0  0  0  0  0  0  0  0  0  0  0
    4.5667    4.8310   -3.2048 C   0  0  0  0  0  0  0  0  0  0  0  0
    4.0867    5.9021   -4.2058 C   0  0  2  0  0  0  0  0  0  0  0  0
    2.8769    6.7124   -3.7478 C   0  0  0  0  0  0  0  0  0  0  0  0
    2.7480    7.9059   -3.9965 O   0  0  0  0  0  0  0  0  0  0  0  0
    1.9019    6.0292   -3.0902 N   0  0  0  0  0  0  0  0  0  0  0  0
    0.7991    6.7396   -2.6594 N   0  0  0  0  0  0  0  0  0  0  0  0
    0.0672    6.3083   -1.5949 C   0  0  0  0  0  0  0  0  0  0  0  0
    0.3165    4.8153   -0.8696 S   0  0  0  0  0  0  0  0  0  0  0  0
   -0.9022    7.1802   -1.1950 N   0  0  0  0  0  0  0  0  0  0  0  0
   -1.8397    6.8934   -0.2068 N   0  0  0  0  0  0  0  0  0  0  0  0
    3.7714    5.0703   -5.4632 C   0  0  0  0  0  0  0  0  0  0  0  0
    3.4377    3.6768   -4.9373 C   0  0  0  0  0  0  0  0  0  0  0  0
    2.8972    2.7957   -5.5703 O   0  0  0  0  0  0  0  0  0  0  0  0
    4.7697    2.3770   -1.6930 C   0  0  0  0  0  0  0  0  0  0  0  0
    4.8156    1.2443   -0.8870 C   0  0  0  0  0  0  0  0  0  0  0  0
    3.6088   -2.8007    0.2241 H   0  0  0  0  0  0  0  0  0  0  0  0
    3.5908   -2.5476   -1.5498 H   0  0  0  0  0  0  0  0  0  0  0  0
    2.2767   -1.8695   -0.5312 H   0  0  0  0  0  0  0  0  0  0  0  0
    2.5517   -0.6801   -2.5647 H   0  0  0  0  0  0  0  0  0  0  0  0
    2.4848    1.3220   -3.9833 H   0  0  0  0  0  0  0  0  0  0  0  0
    5.6648    4.7145   -3.2601 H   0  0  0  0  0  0  0  0  0  0  0  0
    4.3150    5.0808   -2.1625 H   0  0  0  0  0  0  0  0  0  0  0  0
    4.8650    6.6529   -4.3917 H   0  0  0  0  0  0  0  0  0  0  0  0
    1.9341    5.0692   -2.7405 H   0  0  0  0  0  0  0  0  0  0  0  0
    0.8586    7.7143   -2.9581 H   0  0  0  0  0  0  0  0  0  0  0  0
   -1.1098    8.0003   -1.7565 H   0  0  0  0  0  0  0  0  0  0  0  0
   -1.3457    6.7885    0.6831 H   0  0  0  0  0  0  0  0  0  0  0  0
   -2.2384    5.9690   -0.3985 H   0  0  0  0  0  0  0  0  0  0  0  0
    4.6556    4.9819   -6.1175 H   0  0  0  0  0  0  0  0  0  0  0  0
    2.9492    5.4588   -6.0799 H   0  0  0  0  0  0  0  0  0  0  0  0
    5.4075    3.2215   -1.4314 H   0  0  0  0  0  0  0  0  0  0  0  0
    5.4692    1.2061   -0.0133 H   0  0  0  0  0  0  0  0  0  0  0  0
  1  2  1  0
  1 23  1  0
  1 24  1  0
  1 25  1  0
  2  3  1  0
  3  4  2  0
  3 22  1  0
  4  5  1  0
  4 26  1  0
  5  6  2  0
  5 27  1  0
  6  7  1  0
  6 21  1  0
  7  8  1  0
  7 19  1  0
  8  9  1  0
  8 28  1  0
  8 29  1  0
  9 10  1  0
  9 18  1  0
  9 30  1  6
 10 11  2  0
 10 12  1  0
 12 13  1  0
 12 31  1  0
 13 14  1  0
 13 32  1  0
 14 15  2  0
 14 16  1  0
 16 17  1  0
 16 33  1  0
 17 34  1  0
 17 35  1  0
 18 19  1  0
 18 36  1  0
 18 37  1  0
 19 20  2  0
 21 22  2  0
 21 38  1  0
 22 39  1  0
M  END

