
     RDKit          3D

 49 48  0  0  0  0  0  0  0  0999 V2000
    5.3716   -2.6372    2.7363 C   0  0  0  0  0  0  0  0  0  0  0  0
    6.6581   -2.2725    2.8394 C   0  0  0  0  0  0  0  0  0  0  0  0
    7.1684   -1.3395    3.9096 C   0  0  0  0  0  0  0  0  0  0  0  0
    7.6116   -2.8494    1.8243 C   0  0  0  0  0  0  0  0  0  0  0  0
    7.2507   -3.6323    0.9456 O   0  0  0  0  0  0  0  0  0  0  0  0
    8.9160   -2.4629    1.9261 N   0  0  0  0  0  0  0  0  0  0  0  0
    9.9530   -3.0165    1.0700 C   0  0  0  0  0  0  0  0  0  0  0  0
   10.0338   -2.3890   -0.3318 C   0  0  0  0  0  0  0  0  0  0  0  0
   11.0406   -1.7889   -0.7043 O   0  0  0  0  0  0  0  0  0  0  0  0
    8.9378   -2.5673   -1.1018 N   0  0  0  0  0  0  0  0  0  0  0  0
    8.7914   -1.9482   -2.4109 C   0  0  0  0  0  0  0  0  0  0  0  0
    9.5193   -2.6909   -3.5476 C   0  0  0  0  0  0  0  0  0  0  0  0
    8.9136   -3.2348   -4.4520 O   0  0  0  0  0  0  0  0  0  0  0  0
   10.8858   -2.6561   -3.4484 N   0  0  0  0  0  0  0  0  0  0  0  0
   11.7368   -3.3907   -4.3570 C   0  0  0  0  0  0  0  0  0  0  0  0
   12.6911   -2.5505   -5.2116 C   0  0  0  0  0  0  0  0  0  0  0  0
   13.5854   -3.0748   -5.8511 O   0  0  0  0  0  0  0  0  0  0  0  0
   12.4499   -1.2083   -5.2132 N   0  0  0  0  0  0  0  0  0  0  0  0
   13.2456   -0.2914   -5.9777 C   0  0  1  0  0  0  0  0  0  0  0  0
   12.3426    0.7164   -6.6902 C   0  0  0  0  0  0  0  0  0  0  0  0
   11.3131    1.1280   -6.2140 O   0  0  0  0  0  0  0  0  0  0  0  0
   12.8333    1.0757   -7.8742 O   0  0  0  0  0  0  0  0  0  0  0  0
   12.1109    2.0865   -8.5837 C   0  0  0  0  0  0  0  0  0  0  0  0
   14.2887    0.4936   -5.1573 C   0  0  0  0  0  0  0  0  0  0  0  0
   14.7222    1.5699   -5.4844 O   0  0  0  0  0  0  0  0  0  0  0  0
   14.6641   -0.1727   -4.0632 O   0  0  0  0  0  0  0  0  0  0  0  0
   15.6712    0.4462   -3.2585 C   0  0  0  0  0  0  0  0  0  0  0  0
    4.6166   -2.2702    3.4363 H   0  0  0  0  0  0  0  0  0  0  0  0
    5.0599   -3.3178    1.9411 H   0  0  0  0  0  0  0  0  0  0  0  0
    6.3519   -1.0197    4.5719 H   0  0  0  0  0  0  0  0  0  0  0  0
    7.6169   -0.4266    3.4787 H   0  0  0  0  0  0  0  0  0  0  0  0
    7.9374   -1.8207    4.5386 H   0  0  0  0  0  0  0  0  0  0  0  0
    9.1830   -1.7637    2.6062 H   0  0  0  0  0  0  0  0  0  0  0  0
    9.7756   -4.0992    0.9617 H   0  0  0  0  0  0  0  0  0  0  0  0
   10.9306   -2.8599    1.5418 H   0  0  0  0  0  0  0  0  0  0  0  0
    8.1651   -3.1050   -0.6991 H   0  0  0  0  0  0  0  0  0  0  0  0
    9.1665   -0.9121   -2.3613 H   0  0  0  0  0  0  0  0  0  0  0  0
    7.7278   -1.9316   -2.6767 H   0  0  0  0  0  0  0  0  0  0  0  0
   11.2761   -2.2601   -2.5886 H   0  0  0  0  0  0  0  0  0  0  0  0
   11.0854   -3.9497   -5.0464 H   0  0  0  0  0  0  0  0  0  0  0  0
   12.3634   -4.1262   -3.8264 H   0  0  0  0  0  0  0  0  0  0  0  0
   11.6683   -0.8372   -4.6833 H   0  0  0  0  0  0  0  0  0  0  0  0
   13.8174   -0.8777   -6.7157 H   0  0  0  0  0  0  0  0  0  0  0  0
   12.6453    2.2342   -9.5296 H   0  0  0  0  0  0  0  0  0  0  0  0
   12.0923    3.0220   -8.0050 H   0  0  0  0  0  0  0  0  0  0  0  0
   11.0759    1.7647   -8.7717 H   0  0  0  0  0  0  0  0  0  0  0  0
   15.8390   -0.2281   -2.4102 H   0  0  0  0  0  0  0  0  0  0  0  0
   15.3343    1.4325   -2.9059 H   0  0  0  0  0  0  0  0  0  0  0  0
   16.6000    0.5778   -3.8336 H   0  0  0  0  0  0  0  0  0  0  0  0
  1  2  2  0
  1 28  1  0
  1 29  1  0
  2  3  1  0
  2  4  1  0
  3 30  1  0
  3 31  1  0
  3 32  1  0
  4  5  2  0
  4  6  1  0
  6  7  1  0
  6 33  1  0
  7  8  1  0
  7 34  1  0
  7 35  1  0
  8  9  2  0
  8 10  1  0
 10 11  1  0
 10 36  1  0
 11 12  1  0
 11 37  1  0
 11 38  1  0
 12 13  2  0
 12 14  1  0
 14 15  1  0
 14 39  1  0
 15 16  1  0
 15 40  1  0
 15 41  1  0
 16 17  2  0
 16 18  1  0
 18 19  1  0
 18 42  1  0
 19 20  1  0
 19 24  1  0
 19 43  1  6
 20 21  2  0
 20 22  1  0
 22 23  1  0
 23 44  1  0
 23 45  1  0
 23 46  1  0
 24 25  2  0
 24 26  1  0
 26 27  1  0
 27 47  1  0
 27 48  1  0
 27 49  1  0
M  END

