
     RDKit          3D

 72 76  0  0  0  0  0  0  0  0999 V2000
    3.9329   -1.6231    0.7782 C   0  0  0  0  0  0  0  0  0  0  0  0
    4.0701   -1.0602   -0.6150 C   0  0  0  0  0  0  0  0  0  0  0  0
    4.6683    0.1898   -0.8155 C   0  0  0  0  0  0  0  0  0  0  0  0
    4.8102    0.7591   -2.0944 C   0  0  0  0  0  0  0  0  0  0  0  0
    5.4489    2.0888   -2.2808 C   0  0  0  0  0  0  0  0  0  0  0  0
    6.5233    2.5033   -1.4746 C   0  0  0  0  0  0  0  0  0  0  0  0
    7.1248    3.7523   -1.6476 C   0  0  0  0  0  0  0  0  0  0  0  0
    6.6690    4.6315   -2.6363 C   0  0  0  0  0  0  0  0  0  0  0  0
    7.2992    5.9869   -2.8562 C   0  0  0  0  0  0  0  0  0  0  0  0
    8.3136    6.2257   -1.8941 O   0  0  0  0  0  0  0  0  0  0  0  0
    8.9773    7.4325   -1.9860 C   0  0  0  0  0  0  0  0  0  0  0  0
    8.4901    8.5426   -1.2713 C   0  0  0  0  0  0  0  0  0  0  0  0
    7.2289    8.4340   -0.4501 C   0  0  0  0  0  0  0  0  0  0  0  0
    9.2099    9.7415   -1.3407 C   0  0  0  0  0  0  0  0  0  0  0  0
   10.3916    9.8601   -2.0913 C   0  0  0  0  0  0  0  0  0  0  0  0
   11.1381   11.1449   -2.1509 C   0  0  0  0  0  0  0  0  0  0  0  0
   11.2252   11.9952   -1.0351 C   0  0  0  0  0  0  0  0  0  0  0  0
   11.9274   13.2017   -1.0924 C   0  0  0  0  0  0  0  0  0  0  0  0
   12.5730   13.6120   -2.2678 C   0  0  0  0  0  0  0  0  0  0  0  0
   13.2937   14.9573   -2.4117 C   0  0  1  0  0  0  0  0  0  0  0  0
   13.7916   15.6016   -1.1061 C   0  0  0  0  0  0  0  0  0  0  0  0
   15.0342   14.8917   -0.5540 C   0  0  0  0  0  0  0  0  0  0  0  0
   16.1033   14.7962   -1.6491 C   0  0  0  0  0  0  0  0  0  0  0  0
   15.5075   14.1769   -2.9121 C   0  0  0  0  0  0  0  0  0  0  0  0
   14.3577   14.8826   -3.3595 O   0  0  0  0  0  0  0  0  0  0  0  0
   12.4855   12.7652   -3.3856 C   0  0  0  0  0  0  0  0  0  0  0  0
   11.7872   11.5605   -3.3294 C   0  0  0  0  0  0  0  0  0  0  0  0
   10.8540    8.7216   -2.7738 C   0  0  0  0  0  0  0  0  0  0  0  0
   10.1688    7.5019   -2.7326 C   0  0  0  0  0  0  0  0  0  0  0  0
   10.7002    6.2790   -3.4384 C   0  0  0  0  0  0  0  0  0  0  0  0
    5.5964    4.2277   -3.4460 C   0  0  0  0  0  0  0  0  0  0  0  0
    4.9984    2.9813   -3.2733 C   0  0  0  0  0  0  0  0  0  0  0  0
    4.3260    0.0305   -3.1916 C   0  0  0  0  0  0  0  0  0  0  0  0
    3.7335   -1.2099   -2.9837 C   0  0  0  0  0  0  0  0  0  0  0  0
    3.2907   -1.8814   -4.0660 F   0  0  0  0  0  0  0  0  0  0  0  0
    3.5848   -1.7943   -1.7219 C   0  0  0  0  0  0  0  0  0  0  0  0
    2.9334   -3.1436   -1.5662 C   0  0  0  0  0  0  0  0  0  0  0  0
    4.3510   -0.9385    1.5298 H   0  0  0  0  0  0  0  0  0  0  0  0
    4.4529   -2.5912    0.8769 H   0  0  0  0  0  0  0  0  0  0  0  0
    2.8770   -1.8073    1.0395 H   0  0  0  0  0  0  0  0  0  0  0  0
    5.0119    0.7502    0.0569 H   0  0  0  0  0  0  0  0  0  0  0  0
    6.9156    1.8273   -0.7114 H   0  0  0  0  0  0  0  0  0  0  0  0
    7.9618    4.0521   -1.0161 H   0  0  0  0  0  0  0  0  0  0  0  0
    6.5217    6.7728   -2.7979 H   0  0  0  0  0  0  0  0  0  0  0  0
    7.7222    6.0416   -3.8784 H   0  0  0  0  0  0  0  0  0  0  0  0
    7.1773    7.4657    0.0693 H   0  0  0  0  0  0  0  0  0  0  0  0
    6.3238    8.5089   -1.0781 H   0  0  0  0  0  0  0  0  0  0  0  0
    7.1734    9.2394    0.2966 H   0  0  0  0  0  0  0  0  0  0  0  0
    8.8247   10.6128   -0.8051 H   0  0  0  0  0  0  0  0  0  0  0  0
   10.7584   11.6980   -0.0931 H   0  0  0  0  0  0  0  0  0  0  0  0
   11.9684   13.8213   -0.1945 H   0  0  0  0  0  0  0  0  0  0  0  0
   12.5749   15.6523   -2.8805 H   0  0  0  0  0  0  0  0  0  0  0  0
   12.9841   15.6435   -0.3590 H   0  0  0  0  0  0  0  0  0  0  0  0
   14.0497   16.6482   -1.3406 H   0  0  0  0  0  0  0  0  0  0  0  0
   14.7666   13.8767   -0.2107 H   0  0  0  0  0  0  0  0  0  0  0  0
   15.4224   15.4296    0.3267 H   0  0  0  0  0  0  0  0  0  0  0  0
   16.9665   14.1965   -1.3139 H   0  0  0  0  0  0  0  0  0  0  0  0
   16.4819   15.8057   -1.8884 H   0  0  0  0  0  0  0  0  0  0  0  0
   15.2598   13.1125   -2.7262 H   0  0  0  0  0  0  0  0  0  0  0  0
   16.2224   14.2091   -3.7488 H   0  0  0  0  0  0  0  0  0  0  0  0
   12.9730   13.0703   -4.3139 H   0  0  0  0  0  0  0  0  0  0  0  0
   11.7213   10.9409   -4.2270 H   0  0  0  0  0  0  0  0  0  0  0  0
   11.7944    8.7738   -3.3281 H   0  0  0  0  0  0  0  0  0  0  0  0
   11.7365    6.4347   -3.7715 H   0  0  0  0  0  0  0  0  0  0  0  0
   10.1016    6.0278   -4.3309 H   0  0  0  0  0  0  0  0  0  0  0  0
   10.6704    5.3967   -2.7812 H   0  0  0  0  0  0  0  0  0  0  0  0
    5.2150    4.9018   -4.2197 H   0  0  0  0  0  0  0  0  0  0  0  0
    4.1495    2.7048   -3.9028 H   0  0  0  0  0  0  0  0  0  0  0  0
    4.4240    0.3960   -4.2148 H   0  0  0  0  0  0  0  0  0  0  0  0
    2.6295   -3.5524   -2.5379 H   0  0  0  0  0  0  0  0  0  0  0  0
    2.0374   -3.0857   -0.9253 H   0  0  0  0  0  0  0  0  0  0  0  0
    3.6163   -3.8673   -1.0900 H   0  0  0  0  0  0  0  0  0  0  0  0
  1  2  1  0
  1 38  1  0
  1 39  1  0
  1 40  1  0
  2  3  2  0
  2 36  1  0
  3  4  1  0
  3 41  1  0
  4  5  1  0
  4 33  2  0
  5  6  2  0
  5 32  1  0
  6  7  1  0
  6 42  1  0
  7  8  2  0
  7 43  1  0
  8  9  1  0
  8 31  1  0
  9 10  1  0
  9 44  1  0
  9 45  1  0
 10 11  1  0
 11 12  2  0
 11 29  1  0
 12 13  1  0
 12 14  1  0
 13 46  1  0
 13 47  1  0
 13 48  1  0
 14 15  2  0
 14 49  1  0
 15 16  1  0
 15 28  1  0
 16 17  2  0
 16 27  1  0
 17 18  1  0
 17 50  1  0
 18 19  2  0
 18 51  1  0
 19 20  1  0
 19 26  1  0
 20 21  1  0
 20 25  1  0
 20 52  1  6
 21 22  1  0
 21 53  1  0
 21 54  1  0
 22 23  1  0
 22 55  1  0
 22 56  1  0
 23 24  1  0
 23 57  1  0
 23 58  1  0
 24 25  1  0
 24 59  1  0
 24 60  1  0
 26 27  2  0
 26 61  1  0
 27 62  1  0
 28 29  2  0
 28 63  1  0
 29 30  1  0
 30 64  1  0
 30 65  1  0
 30 66  1  0
 31 32  2  0
 31 67  1  0
 32 68  1  0
 33 34  1  0
 33 69  1  0
 34 35  1  0
 34 36  2  0
 36 37  1  0
 37 70  1  0
 37 71  1  0
 37 72  1  0
M  END

