
     RDKit          3D

 44 47  0  0  0  0  0  0  0  0999 V2000
    3.3865   -0.9215   -1.2501 C   0  0  0  0  0  0  0  0  0  0  0  0
    3.0159   -0.1482    0.0150 C   0  0  0  0  0  0  0  0  0  0  0  0
    3.5908   -0.7416    1.3058 C   0  0  0  0  0  0  0  0  0  0  0  0
    5.0461   -0.7204    1.3494 N   0  0  0  0  0  0  0  0  0  0  0  0
    5.6803    0.4606    1.4094 N   0  0  0  0  0  0  0  0  0  0  0  0
    6.9864    0.1746    1.4029 C   0  0  0  0  0  0  0  0  0  0  0  0
    7.9921    1.2280    1.4656 C   0  0  0  0  0  0  0  0  0  0  0  0
    7.8356    2.5872    1.4972 C   0  0  0  0  0  0  0  0  0  0  0  0
    9.0778    3.1480    1.5522 O   0  0  0  0  0  0  0  0  0  0  0  0
    9.9306    2.1016    1.5511 C   0  0  0  0  0  0  0  0  0  0  0  0
    9.3548    0.9457    1.5021 N   0  0  0  0  0  0  0  0  0  0  0  0
    7.1968   -1.2296    1.3315 C   0  0  0  0  0  0  0  0  0  0  0  0
    5.9203   -1.7691    1.3059 C   0  0  0  0  0  0  0  0  0  0  0  0
    5.6207   -3.2352    1.2542 C   0  0  0  0  0  0  0  0  0  0  0  0
    6.9079   -3.9820    1.6509 C   0  0  0  0  0  0  0  0  0  0  0  0
    8.0688   -3.4541    0.9436 N   0  0  0  0  0  0  0  0  0  0  0  0
    8.7605   -4.0979   -0.0441 C   0  0  0  0  0  0  0  0  0  0  0  0
    9.7519   -3.6357   -0.5862 O   0  0  0  0  0  0  0  0  0  0  0  0
    8.2439   -5.4434   -0.5253 C   0  0  0  0  0  0  0  0  0  0  0  0
    6.9952   -5.5225   -0.9977 N   0  0  0  0  0  0  0  0  0  0  0  0
    6.5841   -6.6510   -1.5802 C   0  0  0  0  0  0  0  0  0  0  0  0
    7.3993   -7.7784   -1.7140 C   0  0  0  0  0  0  0  0  0  0  0  0
    8.6996   -7.7236   -1.2097 C   0  0  0  0  0  0  0  0  0  0  0  0
    9.1188   -6.5389   -0.6144 C   0  0  0  0  0  0  0  0  0  0  0  0
   10.3476   -6.4615   -0.1060 F   0  0  0  0  0  0  0  0  0  0  0  0
    8.4401   -2.0730    1.2781 C   0  0  0  0  0  0  0  0  0  0  0  0
    2.9434   -0.4535   -2.1430 H   0  0  0  0  0  0  0  0  0  0  0  0
    3.0267   -1.9637   -1.2082 H   0  0  0  0  0  0  0  0  0  0  0  0
    4.4776   -0.9492   -1.3995 H   0  0  0  0  0  0  0  0  0  0  0  0
    1.9184   -0.1084    0.1289 H   0  0  0  0  0  0  0  0  0  0  0  0
    3.3626    0.8951   -0.0620 H   0  0  0  0  0  0  0  0  0  0  0  0
    3.2734   -1.7885    1.4268 H   0  0  0  0  0  0  0  0  0  0  0  0
    3.2195   -0.1778    2.1765 H   0  0  0  0  0  0  0  0  0  0  0  0
    6.9795    3.2533    1.4870 H   0  0  0  0  0  0  0  0  0  0  0  0
   10.9948    2.3287    1.5899 H   0  0  0  0  0  0  0  0  0  0  0  0
    5.3253   -3.5536    0.2399 H   0  0  0  0  0  0  0  0  0  0  0  0
    4.8042   -3.5138    1.9422 H   0  0  0  0  0  0  0  0  0  0  0  0
    6.8054   -5.0541    1.4563 H   0  0  0  0  0  0  0  0  0  0  0  0
    7.0831   -3.8570    2.7350 H   0  0  0  0  0  0  0  0  0  0  0  0
    5.5558   -6.6610   -1.9579 H   0  0  0  0  0  0  0  0  0  0  0  0
    7.0231   -8.6826   -2.1976 H   0  0  0  0  0  0  0  0  0  0  0  0
    9.3880   -8.5695   -1.2677 H   0  0  0  0  0  0  0  0  0  0  0  0
    9.1504   -1.7191    0.5215 H   0  0  0  0  0  0  0  0  0  0  0  0
    8.9808   -2.0481    2.2432 H   0  0  0  0  0  0  0  0  0  0  0  0
  1  2  1  0
  1 27  1  0
  1 28  1  0
  1 29  1  0
  2  3  1  0
  2 30  1  0
  2 31  1  0
  3  4  1  0
  3 32  1  0
  3 33  1  0
  4  5  1  0
  4 13  1  0
  5  6  2  0
  6  7  1  0
  6 12  1  0
  7  8  2  0
  7 11  1  0
  8  9  1  0
  8 34  1  0
  9 10  1  0
 10 11  2  0
 10 35  1  0
 12 13  2  0
 12 26  1  0
 13 14  1  0
 14 15  1  0
 14 36  1  0
 14 37  1  0
 15 16  1  0
 15 38  1  0
 15 39  1  0
 16 17  1  0
 16 26  1  0
 17 18  2  0
 17 19  1  0
 19 20  2  0
 19 24  1  0
 20 21  1  0
 21 22  2  0
 21 40  1  0
 22 23  1  0
 22 41  1  0
 23 24  2  0
 23 42  1  0
 24 25  1  0
 26 43  1  0
 26 44  1  0
M  END

