
     RDKit          3D

 37 38  0  0  0  0  0  0  0  0999 V2000
    3.1772    1.3579    1.0060 C   0  0  0  0  0  0  0  0  0  0  0  0
    2.5675    0.0385    0.5172 C   0  0  1  0  0  0  0  0  0  0  0  0
    1.0919   -0.0788    0.9143 C   0  0  0  0  0  0  0  0  0  0  0  0
    2.7549   -0.1866   -1.0122 C   0  0  1  0  0  0  0  0  0  0  0  0
    2.1004    0.8391   -1.8097 N   0  0  0  0  0  0  0  0  0  0  0  0
    0.9944    0.5945   -2.5819 C   0  0  0  0  0  0  0  0  0  0  0  0
    0.4791   -0.5080   -2.6685 O   0  0  0  0  0  0  0  0  0  0  0  0
    0.4248    1.8142   -3.3032 C   0  0  0  0  0  0  0  0  0  0  0  0
   -0.2400    1.4576   -4.6238 C   0  0  1  0  0  0  0  0  0  0  0  0
   -1.5635    0.6538   -4.6269 C   0  0  0  0  0  0  0  0  0  0  0  0
   -2.0554    1.5349   -5.7047 N   0  0  0  0  0  0  0  0  0  0  0  0
   -1.0427    2.5511   -5.3742 C   0  0  0  0  0  0  0  0  0  0  0  0
    4.2035   -0.3388   -1.4370 C   0  0  0  0  0  0  0  0  0  0  0  0
    4.8253    0.1581   -2.5583 C   0  0  0  0  0  0  0  0  0  0  0  0
    6.1946   -0.2369   -2.6752 C   0  0  0  0  0  0  0  0  0  0  0  0
    6.6028   -1.0363   -1.6409 C   0  0  0  0  0  0  0  0  0  0  0  0
    5.3199   -1.3134   -0.5109 S   0  0  0  0  0  0  0  0  0  0  0  0
    3.0907    1.4435    2.1006 H   0  0  0  0  0  0  0  0  0  0  0  0
    2.6500    2.2257    0.5736 H   0  0  0  0  0  0  0  0  0  0  0  0
    4.2440    1.4394    0.7468 H   0  0  0  0  0  0  0  0  0  0  0  0
    3.1112   -0.7879    1.0103 H   0  0  0  0  0  0  0  0  0  0  0  0
    0.4943    0.7302    0.4636 H   0  0  0  0  0  0  0  0  0  0  0  0
    0.9758   -0.0078    2.0074 H   0  0  0  0  0  0  0  0  0  0  0  0
    0.6561   -1.0342    0.5839 H   0  0  0  0  0  0  0  0  0  0  0  0
    2.2193   -1.1146   -1.2721 H   0  0  0  0  0  0  0  0  0  0  0  0
    2.4907    1.7738   -1.8007 H   0  0  0  0  0  0  0  0  0  0  0  0
    1.2115    2.5730   -3.4617 H   0  0  0  0  0  0  0  0  0  0  0  0
   -0.3165    2.2751   -2.6241 H   0  0  0  0  0  0  0  0  0  0  0  0
    0.4917    0.9853   -5.2978 H   0  0  0  0  0  0  0  0  0  0  0  0
   -2.1005    0.7531   -3.6621 H   0  0  0  0  0  0  0  0  0  0  0  0
   -1.5047   -0.4173   -4.8759 H   0  0  0  0  0  0  0  0  0  0  0  0
   -3.0288    1.8294   -5.6450 H   0  0  0  0  0  0  0  0  0  0  0  0
   -1.3892    3.3469   -4.6812 H   0  0  0  0  0  0  0  0  0  0  0  0
   -0.5618    3.0384   -6.2413 H   0  0  0  0  0  0  0  0  0  0  0  0
    4.3097    0.7777   -3.2924 H   0  0  0  0  0  0  0  0  0  0  0  0
    6.8461    0.0625   -3.4979 H   0  0  0  0  0  0  0  0  0  0  0  0
    7.5838   -1.4780   -1.4711 H   0  0  0  0  0  0  0  0  0  0  0  0
  1  2  1  0
  1 18  1  0
  1 19  1  0
  1 20  1  0
  2  3  1  0
  2  4  1  0
  2 21  1  1
  3 22  1  0
  3 23  1  0
  3 24  1  0
  4  5  1  0
  4 13  1  0
  4 25  1  6
  5  6  1  0
  5 26  1  0
  6  7  2  0
  6  8  1  0
  8  9  1  0
  8 27  1  0
  8 28  1  0
  9 10  1  0
  9 12  1  0
  9 29  1  6
 10 11  1  0
 10 30  1  0
 10 31  1  0
 11 12  1  0
 11 32  1  0
 12 33  1  0
 12 34  1  0
 13 14  2  0
 13 17  1  0
 14 15  1  0
 14 35  1  0
 15 16  2  0
 15 36  1  0
 16 17  1  0
 16 37  1  0
M  END

