
     RDKit          3D

 54 57  0  0  0  0  0  0  0  0999 V2000
    5.8242    2.8347   -2.6417 C   0  0  0  0  0  0  0  0  0  0  0  0
    5.1252    4.4543   -2.2775 S   0  0  1  0  0  0  0  0  0  0  0  0
    6.0683    5.4709   -2.7628 O   0  0  0  0  0  0  0  0  0  0  0  0
    3.7264    4.4547   -2.7116 O   0  0  0  0  0  0  0  0  0  0  0  0
    5.1514    4.5536   -0.4684 C   0  0  0  0  0  0  0  0  0  0  0  0
    5.8505    5.6090    0.1202 C   0  0  0  0  0  0  0  0  0  0  0  0
    5.8013    5.7538    1.5017 C   0  0  0  0  0  0  0  0  0  0  0  0
    6.4855    6.7638    2.0726 F   0  0  0  0  0  0  0  0  0  0  0  0
    5.0688    4.8910    2.3260 C   0  0  0  0  0  0  0  0  0  0  0  0
    5.0503    5.0816    3.8343 C   0  0  0  0  0  0  0  0  0  0  0  0
    6.1038    4.3725    4.5326 N   0  0  0  0  0  0  0  0  0  0  0  0
    7.4679    4.8404    4.6442 C   0  0  0  0  0  0  0  0  0  0  0  0
    8.1044    3.7243    5.4923 C   0  0  0  0  0  0  0  0  0  0  0  0
    7.2434    2.5710    5.2310 N   0  0  0  0  0  0  0  0  0  0  0  0
    7.4733    1.3465    6.0192 C   0  0  1  0  0  0  0  0  0  0  0  0
    6.5521    0.1667    5.6571 C   0  0  0  0  0  0  0  0  0  0  0  0
    6.8287   -0.4083    4.2683 C   0  0  0  0  0  0  0  0  0  0  0  0
    8.2520   -0.7090    4.0951 N   0  0  0  0  0  0  0  0  0  0  0  0
    8.6192   -1.7060    3.2482 C   0  0  0  0  0  0  0  0  0  0  0  0
    7.7579   -2.5089    2.6383 N   0  0  0  0  0  0  0  0  0  0  0  0
    8.5933   -3.3967    1.9436 O   0  0  0  0  0  0  0  0  0  0  0  0
    9.8376   -3.0148    2.1916 C   0  0  0  0  0  0  0  0  0  0  0  0
   10.9570   -3.8101    1.5533 C   0  0  1  0  0  0  0  0  0  0  0  0
   10.7755   -3.8981    0.2308 F   0  0  0  0  0  0  0  0  0  0  0  0
   12.1302   -3.2280    1.7840 F   0  0  0  0  0  0  0  0  0  0  0  0
   10.9906   -5.0524    2.0493 F   0  0  0  0  0  0  0  0  0  0  0  0
    9.9460   -1.9953    2.9736 N   0  0  0  0  0  0  0  0  0  0  0  0
    9.2055    0.3410    4.4480 C   0  0  0  0  0  0  0  0  0  0  0  0
    8.9280    0.8613    5.8578 C   0  0  0  0  0  0  0  0  0  0  0  0
    5.9970    3.0189    4.7947 C   0  0  0  0  0  0  0  0  0  0  0  0
    4.9767    2.3683    4.6314 O   0  0  0  0  0  0  0  0  0  0  0  0
    4.3809    3.8305    1.7183 C   0  0  0  0  0  0  0  0  0  0  0  0
    4.4180    3.6760    0.3365 C   0  0  0  0  0  0  0  0  0  0  0  0
    3.7659    2.6493   -0.2228 F   0  0  0  0  0  0  0  0  0  0  0  0
    5.7938    2.7528   -3.7375 H   0  0  0  0  0  0  0  0  0  0  0  0
    5.1960    2.0649   -2.1765 H   0  0  0  0  0  0  0  0  0  0  0  0
    6.8596    2.8019   -2.2786 H   0  0  0  0  0  0  0  0  0  0  0  0
    6.4189    6.3013   -0.5035 H   0  0  0  0  0  0  0  0  0  0  0  0
    4.0910    4.7219    4.2310 H   0  0  0  0  0  0  0  0  0  0  0  0
    5.1434    6.1507    4.0730 H   0  0  0  0  0  0  0  0  0  0  0  0
    7.5259    5.8239    5.1375 H   0  0  0  0  0  0  0  0  0  0  0  0
    7.9590    4.9448    3.6574 H   0  0  0  0  0  0  0  0  0  0  0  0
    8.1090    3.9796    6.5721 H   0  0  0  0  0  0  0  0  0  0  0  0
    9.1467    3.5399    5.1972 H   0  0  0  0  0  0  0  0  0  0  0  0
    7.3086    1.5948    7.0880 H   0  0  0  0  0  0  0  0  0  0  0  0
    5.4974    0.4559    5.7180 H   0  0  0  0  0  0  0  0  0  0  0  0
    6.7379   -0.6140    6.4135 H   0  0  0  0  0  0  0  0  0  0  0  0
    6.4839    0.2980    3.4906 H   0  0  0  0  0  0  0  0  0  0  0  0
    6.2642   -1.3395    4.1236 H   0  0  0  0  0  0  0  0  0  0  0  0
    9.1393    1.1729    3.7189 H   0  0  0  0  0  0  0  0  0  0  0  0
   10.2184   -0.0753    4.3788 H   0  0  0  0  0  0  0  0  0  0  0  0
    9.6539    1.6492    6.1100 H   0  0  0  0  0  0  0  0  0  0  0  0
    9.0904    0.0460    6.5810 H   0  0  0  0  0  0  0  0  0  0  0  0
    3.8282    3.1140    2.3288 H   0  0  0  0  0  0  0  0  0  0  0  0
  2  1  1  1
  1 35  1  0
  1 36  1  0
  1 37  1  0
  2  3  2  0
  2  4  2  0
  2  5  1  0
  5  6  2  0
  5 33  1  0
  6  7  1  0
  6 38  1  0
  7  8  1  0
  7  9  2  0
  9 10  1  0
  9 32  1  0
 10 11  1  0
 10 39  1  0
 10 40  1  0
 11 12  1  0
 11 30  1  0
 12 13  1  0
 12 41  1  0
 12 42  1  0
 13 14  1  0
 13 43  1  0
 13 44  1  0
 14 15  1  0
 14 30  1  0
 15 16  1  0
 15 29  1  0
 15 45  1  1
 16 17  1  0
 16 46  1  0
 16 47  1  0
 17 18  1  0
 17 48  1  0
 17 49  1  0
 18 19  1  0
 18 28  1  0
 19 20  2  0
 19 27  1  0
 20 21  1  0
 21 22  1  0
 22 23  1  0
 22 27  2  0
 23 24  1  6
 23 25  1  0
 23 26  1  0
 28 29  1  0
 28 50  1  0
 28 51  1  0
 29 52  1  0
 29 53  1  0
 30 31  2  0
 32 33  2  0
 32 54  1  0
 33 34  1  0
M  END

