
     RDKit          3D

 63 71  0  0  0  0  0  0  0  0999 V2000
    1.5235    0.1096    0.7068 C   0  0  0  0  0  0  0  0  0  0  0  0
    1.2452   -1.2519    0.9818 C   0  0  0  0  0  0  0  0  0  0  0  0
    0.1110   -1.8527    0.4756 C   0  0  0  0  0  0  0  0  0  0  0  0
   -0.8095   -1.1245   -0.3321 C   0  0  0  0  0  0  0  0  0  0  0  0
   -2.0134   -1.7008   -0.8680 C   0  0  0  0  0  0  0  0  0  0  0  0
   -2.3344   -3.1367   -0.6547 C   0  0  0  0  0  0  0  0  0  0  0  0
   -3.4416   -3.6413   -0.0433 C   0  0  0  0  0  0  0  0  0  0  0  0
   -4.4556   -2.7406    0.5901 C   0  0  0  0  0  0  0  0  0  0  0  0
   -4.1620   -2.1224    1.7948 C   0  0  0  0  0  0  0  0  0  0  0  0
   -5.0990   -1.2823    2.4436 C   0  0  0  0  0  0  0  0  0  0  0  0
   -6.3389   -1.0659    1.8850 C   0  0  0  0  0  0  0  0  0  0  0  0
   -6.6924   -1.6766    0.6496 C   0  0  0  0  0  0  0  0  0  0  0  0
   -7.9648   -1.4597    0.0486 C   0  0  0  0  0  0  0  0  0  0  0  0
   -8.2929   -2.0469   -1.1546 C   0  0  0  0  0  0  0  0  0  0  0  0
   -7.3556   -2.8802   -1.8141 C   0  0  0  0  0  0  0  0  0  0  0  0
   -6.1143   -3.1131   -1.2580 C   0  0  0  0  0  0  0  0  0  0  0  0
   -5.7421   -2.5267   -0.0137 C   0  0  0  0  0  0  0  0  0  0  0  0
   -3.5955   -5.0999    0.0551 C   0  0  0  0  0  0  0  0  0  0  0  0
   -4.6776   -5.7231    0.6886 C   0  0  0  0  0  0  0  0  0  0  0  0
   -4.7582   -7.1223    0.7507 C   0  0  0  0  0  0  0  0  0  0  0  0
   -3.7693   -7.9231    0.1920 C   0  0  0  0  0  0  0  0  0  0  0  0
   -2.6594   -7.3331   -0.4436 C   0  0  0  0  0  0  0  0  0  0  0  0
   -2.5774   -5.9187   -0.5058 C   0  0  0  0  0  0  0  0  0  0  0  0
   -1.4376   -5.3055   -1.1371 C   0  0  0  0  0  0  0  0  0  0  0  0
   -0.4220   -6.0319   -1.6959 C   0  0  0  0  0  0  0  0  0  0  0  0
   -0.4664   -7.4641   -1.6649 C   0  0  0  0  0  0  0  0  0  0  0  0
    0.5276   -8.1638   -2.2141 N   0  0  0  0  0  0  0  0  0  0  0  0
    0.4551   -9.5065   -2.1658 C   0  0  0  0  0  0  0  0  0  0  0  0
    1.4944  -10.2990   -2.7402 C   0  0  0  0  0  0  0  0  0  0  0  0
    1.4258  -11.6724   -2.6936 C   0  0  0  0  0  0  0  0  0  0  0  0
    0.3219  -12.3272   -2.0743 C   0  0  0  0  0  0  0  0  0  0  0  0
   -0.6983  -11.5959   -1.5101 C   0  0  0  0  0  0  0  0  0  0  0  0
   -0.6610  -10.1711   -1.5397 C   0  0  0  0  0  0  0  0  0  0  0  0
   -1.6615   -9.4567   -0.9864 N   0  0  0  0  0  0  0  0  0  0  0  0
   -1.5895   -8.1354   -1.0353 C   0  0  0  0  0  0  0  0  0  0  0  0
   -1.3600   -3.9438   -1.1801 O   0  0  0  0  0  0  0  0  0  0  0  0
   -2.8761   -0.9167   -1.6172 C   0  0  0  0  0  0  0  0  0  0  0  0
   -2.5956    0.4458   -1.8738 C   0  0  0  0  0  0  0  0  0  0  0  0
   -1.4465    1.0203   -1.3784 C   0  0  0  0  0  0  0  0  0  0  0  0
   -0.5314    0.2600   -0.5982 C   0  0  0  0  0  0  0  0  0  0  0  0
    0.6513    0.8461   -0.0650 C   0  0  0  0  0  0  0  0  0  0  0  0
    2.4275    0.5723    1.1105 H   0  0  0  0  0  0  0  0  0  0  0  0
    1.9362   -1.8317    1.5989 H   0  0  0  0  0  0  0  0  0  0  0  0
   -0.0821   -2.9034    0.6933 H   0  0  0  0  0  0  0  0  0  0  0  0
   -3.1838   -2.2880    2.2523 H   0  0  0  0  0  0  0  0  0  0  0  0
   -4.8301   -0.8098    3.3916 H   0  0  0  0  0  0  0  0  0  0  0  0
   -7.0684   -0.4203    2.3816 H   0  0  0  0  0  0  0  0  0  0  0  0
   -8.6811   -0.8119    0.5615 H   0  0  0  0  0  0  0  0  0  0  0  0
   -9.2735   -1.8703   -1.6038 H   0  0  0  0  0  0  0  0  0  0  0  0
   -7.6189   -3.3415   -2.7693 H   0  0  0  0  0  0  0  0  0  0  0  0
   -5.4005   -3.7576   -1.7745 H   0  0  0  0  0  0  0  0  0  0  0  0
   -5.4634   -5.1136    1.1363 H   0  0  0  0  0  0  0  0  0  0  0  0
   -5.6139   -7.5861    1.2480 H   0  0  0  0  0  0  0  0  0  0  0  0
   -3.8221   -9.0116    0.2332 H   0  0  0  0  0  0  0  0  0  0  0  0
    0.4277   -5.5396   -2.1681 H   0  0  0  0  0  0  0  0  0  0  0  0
    2.3294   -9.7742   -3.2089 H   0  0  0  0  0  0  0  0  0  0  0  0
    2.2246  -12.2738   -3.1353 H   0  0  0  0  0  0  0  0  0  0  0  0
    0.2911  -13.4194   -2.0504 H   0  0  0  0  0  0  0  0  0  0  0  0
   -1.5559  -12.0712   -1.0292 H   0  0  0  0  0  0  0  0  0  0  0  0
   -3.7847   -1.3616   -2.0265 H   0  0  0  0  0  0  0  0  0  0  0  0
   -3.2951    1.0338   -2.4726 H   0  0  0  0  0  0  0  0  0  0  0  0
   -1.2213    2.0719   -1.5758 H   0  0  0  0  0  0  0  0  0  0  0  0
    0.8536    1.8994   -0.2776 H   0  0  0  0  0  0  0  0  0  0  0  0
  1  2  2  0
  1 41  1  0
  1 42  1  0
  2  3  1  0
  2 43  1  0
  3  4  2  0
  3 44  1  0
  4  5  1  0
  4 40  1  0
  5  6  1  0
  5 37  2  0
  6  7  2  0
  6 36  1  0
  7  8  1  0
  7 18  1  0
  8  9  2  0
  8 17  1  0
  9 10  1  0
  9 45  1  0
 10 11  2  0
 10 46  1  0
 11 12  1  0
 11 47  1  0
 12 13  1  0
 12 17  2  0
 13 14  2  0
 13 48  1  0
 14 15  1  0
 14 49  1  0
 15 16  2  0
 15 50  1  0
 16 17  1  0
 16 51  1  0
 18 19  2  0
 18 23  1  0
 19 20  1  0
 19 52  1  0
 20 21  2  0
 20 53  1  0
 21 22  1  0
 21 54  1  0
 22 23  2  0
 22 35  1  0
 23 24  1  0
 24 25  2  0
 24 36  1  0
 25 26  1  0
 25 55  1  0
 26 27  1  0
 26 35  2  0
 27 28  2  0
 28 29  1  0
 28 33  1  0
 29 30  2  0
 29 56  1  0
 30 31  1  0
 30 57  1  0
 31 32  2  0
 31 58  1  0
 32 33  1  0
 32 59  1  0
 33 34  2  0
 34 35  1  0
 37 38  1  0
 37 60  1  0
 38 39  2  0
 38 61  1  0
 39 40  1  0
 39 62  1  0
 40 41  2  0
 41 63  1  0
M  END

