
     RDKit          3D

 59 61  0  0  0  0  0  0  0  0999 V2000
    1.0764    0.1389    0.7809 C   0  0  0  0  0  0  0  0  0  0  0  0
    2.5226   -0.0901    0.4170 C   0  0  0  0  0  0  0  0  0  0  0  0
    3.2972   -1.0315    1.1061 C   0  0  0  0  0  0  0  0  0  0  0  0
    4.6388   -1.2754    0.8039 C   0  0  0  0  0  0  0  0  0  0  0  0
    5.2488   -0.5530   -0.2335 C   0  0  0  0  0  0  0  0  0  0  0  0
    6.5905   -0.7209   -0.6280 N   0  0  0  0  0  0  0  0  0  0  0  0
    7.5671   -1.4699   -0.0252 C   0  0  0  0  0  0  0  0  0  0  0  0
    7.3878   -2.1526    0.9716 O   0  0  0  0  0  0  0  0  0  0  0  0
    8.9763   -1.3340   -0.6610 C   0  0  1  0  0  0  0  0  0  0  0  0
    8.9544   -1.2079   -2.2051 C   0  0  0  0  0  0  0  0  0  0  0  0
    8.3790    0.0364   -2.7194 N   0  0  0  0  0  0  0  0  0  0  0  0
    8.4595    0.1984   -4.1827 C   0  0  1  0  0  0  0  0  0  0  0  0
    7.4905   -0.7390   -4.9279 C   0  0  0  0  0  0  0  0  0  0  0  0
    6.0196   -0.3701   -4.7044 C   0  0  0  0  0  0  0  0  0  0  0  0
    5.7212    1.1019   -5.0832 C   0  0  2  0  0  0  0  0  0  0  0  0
    5.7195    1.3136   -6.6020 C   0  0  0  0  0  0  0  0  0  0  0  0
    6.4501    2.0610   -7.1949 O   0  0  0  0  0  0  0  0  0  0  0  0
    4.8042    0.5856   -7.2861 O   0  0  0  0  0  0  0  0  0  0  0  0
    6.6977    2.0569   -4.3755 C   0  0  0  0  0  0  0  0  0  0  0  0
    8.1673    1.6568   -4.5705 C   0  0  0  0  0  0  0  0  0  0  0  0
    9.7437   -0.1713    0.0331 C   0  0  0  0  0  0  0  0  0  0  0  0
   11.2298   -0.4754   -0.2144 C   0  0  0  0  0  0  0  0  0  0  0  0
   11.3249   -2.0245   -0.2270 C   0  0  0  0  0  0  0  0  0  0  0  0
    9.8652   -2.5457   -0.2843 C   0  0  0  0  0  0  0  0  0  0  0  0
    4.4805    0.4001   -0.9293 C   0  0  0  0  0  0  0  0  0  0  0  0
    3.1376    0.6420   -0.6256 C   0  0  0  0  0  0  0  0  0  0  0  0
    2.3602    1.6786   -1.4002 C   0  0  0  0  0  0  0  0  0  0  0  0
    0.7662   -0.5152    1.6088 H   0  0  0  0  0  0  0  0  0  0  0  0
    0.4012   -0.0572   -0.0701 H   0  0  0  0  0  0  0  0  0  0  0  0
    0.8904    1.1816    1.0924 H   0  0  0  0  0  0  0  0  0  0  0  0
    2.8352   -1.6026    1.9171 H   0  0  0  0  0  0  0  0  0  0  0  0
    5.2174   -2.0082    1.3601 H   0  0  0  0  0  0  0  0  0  0  0  0
    6.9004   -0.2039   -1.4603 H   0  0  0  0  0  0  0  0  0  0  0  0
    8.3698   -2.0550   -2.5990 H   0  0  0  0  0  0  0  0  0  0  0  0
    9.9872   -1.3542   -2.5853 H   0  0  0  0  0  0  0  0  0  0  0  0
    8.8708    0.8231   -2.2948 H   0  0  0  0  0  0  0  0  0  0  0  0
    9.4878   -0.0483   -4.5242 H   0  0  0  0  0  0  0  0  0  0  0  0
    7.6605   -1.7876   -4.6370 H   0  0  0  0  0  0  0  0  0  0  0  0
    7.7326   -0.6832   -6.0033 H   0  0  0  0  0  0  0  0  0  0  0  0
    5.7581   -0.5134   -3.6449 H   0  0  0  0  0  0  0  0  0  0  0  0
    5.3734   -1.0647   -5.2683 H   0  0  0  0  0  0  0  0  0  0  0  0
    4.6925    1.3370   -4.7500 H   0  0  0  0  0  0  0  0  0  0  0  0
    4.2742    0.0486   -6.6800 H   0  0  0  0  0  0  0  0  0  0  0  0
    6.4532    2.0606   -3.3008 H   0  0  0  0  0  0  0  0  0  0  0  0
    6.5436    3.0817   -4.7449 H   0  0  0  0  0  0  0  0  0  0  0  0
    8.8197    2.3345   -3.9914 H   0  0  0  0  0  0  0  0  0  0  0  0
    8.4358    1.7974   -5.6281 H   0  0  0  0  0  0  0  0  0  0  0  0
    9.5213   -0.2220    1.1115 H   0  0  0  0  0  0  0  0  0  0  0  0
    9.4351    0.8333   -0.3004 H   0  0  0  0  0  0  0  0  0  0  0  0
   11.8757   -0.0134    0.5482 H   0  0  0  0  0  0  0  0  0  0  0  0
   11.5495   -0.0592   -1.1840 H   0  0  0  0  0  0  0  0  0  0  0  0
   11.8330   -2.4016    0.6738 H   0  0  0  0  0  0  0  0  0  0  0  0
   11.9207   -2.3748   -1.0843 H   0  0  0  0  0  0  0  0  0  0  0  0
    9.5346   -2.9052    0.6988 H   0  0  0  0  0  0  0  0  0  0  0  0
    9.7360   -3.3820   -0.9903 H   0  0  0  0  0  0  0  0  0  0  0  0
    4.9540    0.9808   -1.7261 H   0  0  0  0  0  0  0  0  0  0  0  0
    2.9816    2.1561   -2.1724 H   0  0  0  0  0  0  0  0  0  0  0  0
    1.9768    2.4760   -0.7409 H   0  0  0  0  0  0  0  0  0  0  0  0
    1.4799    1.2390   -1.8998 H   0  0  0  0  0  0  0  0  0  0  0  0
  1  2  1  0
  1 28  1  0
  1 29  1  0
  1 30  1  0
  2  3  2  0
  2 26  1  0
  3  4  1  0
  3 31  1  0
  4  5  2  0
  4 32  1  0
  5  6  1  0
  5 25  1  0
  6  7  1  0
  6 33  1  0
  7  8  2  0
  9  7  1  1
  9 10  1  0
  9 21  1  0
  9 24  1  0
 10 11  1  0
 10 34  1  0
 10 35  1  0
 11 12  1  0
 11 36  1  0
 12 13  1  0
 12 20  1  0
 12 37  1  6
 13 14  1  0
 13 38  1  0
 13 39  1  0
 14 15  1  0
 14 40  1  0
 14 41  1  0
 15 16  1  0
 15 19  1  0
 15 42  1  1
 16 17  2  0
 16 18  1  0
 18 43  1  0
 19 20  1  0
 19 44  1  0
 19 45  1  0
 20 46  1  0
 20 47  1  0
 21 22  1  0
 21 48  1  0
 21 49  1  0
 22 23  1  0
 22 50  1  0
 22 51  1  0
 23 24  1  0
 23 52  1  0
 23 53  1  0
 24 54  1  0
 24 55  1  0
 25 26  2  0
 25 56  1  0
 26 27  1  0
 27 57  1  0
 27 58  1  0
 27 59  1  0
M  END

