
     RDKit          3D

 48 49  0  0  0  0  0  0  0  0999 V2000
    0.5069    9.9542   -3.8197 C   0  0  0  0  0  0  0  0  0  0  0  0
    0.2093    8.5913   -3.6318 O   0  0  0  0  0  0  0  0  0  0  0  0
    1.2274    7.6927   -3.5660 C   0  0  0  0  0  0  0  0  0  0  0  0
    2.5861    8.0167   -3.6767 C   0  0  0  0  0  0  0  0  0  0  0  0
    3.5506    7.0033   -3.5901 C   0  0  0  0  0  0  0  0  0  0  0  0
    3.2014    5.6597   -3.3993 C   0  0  0  0  0  0  0  0  0  0  0  0
    4.2854    4.5827   -3.3619 C   0  0  1  0  0  0  0  0  0  0  0  0
    4.0279    3.4706   -2.3264 C   0  0  0  0  0  0  0  0  0  0  0  0
    3.6824    3.9589   -1.0505 O   0  0  0  0  0  0  0  0  0  0  0  0
    4.6123    3.9728   -4.6653 N   0  0  0  0  0  0  0  0  0  0  0  0
    3.4848    3.4501   -5.4183 C   0  0  0  0  0  0  0  0  0  0  0  0
    5.5084    4.7649   -5.5126 C   0  0  0  0  0  0  0  0  0  0  0  0
    6.8696    4.9833   -4.9193 C   0  0  0  0  0  0  0  0  0  0  0  0
    7.8534    4.0055   -4.5829 C   0  0  0  0  0  0  0  0  0  0  0  0
    7.7683    2.5237   -4.7783 C   0  0  0  0  0  0  0  0  0  0  0  0
    8.9339    4.5668   -4.0448 N   0  0  0  0  0  0  0  0  0  0  0  0
    8.6926    5.8922   -4.0260 N   0  0  0  0  0  0  0  0  0  0  0  0
    9.6657    6.8105   -3.4806 C   0  0  0  0  0  0  0  0  0  0  0  0
    7.4623    6.1820   -4.5417 C   0  0  0  0  0  0  0  0  0  0  0  0
    7.0010    7.4558   -4.5697 O   0  0  0  0  0  0  0  0  0  0  0  0
    7.0983    8.1336   -5.8216 C   0  0  0  0  0  0  0  0  0  0  0  0
    1.8306    5.3600   -3.2809 C   0  0  0  0  0  0  0  0  0  0  0  0
    0.8594    6.3512   -3.3627 C   0  0  0  0  0  0  0  0  0  0  0  0
   -0.4540   10.4864   -3.8408 H   0  0  0  0  0  0  0  0  0  0  0  0
    1.0348   10.1348   -4.7743 H   0  0  0  0  0  0  0  0  0  0  0  0
    1.1214   10.3611   -2.9956 H   0  0  0  0  0  0  0  0  0  0  0  0
    2.9092    9.0481   -3.8214 H   0  0  0  0  0  0  0  0  0  0  0  0
    4.6060    7.2796   -3.6694 H   0  0  0  0  0  0  0  0  0  0  0  0
    5.2151    5.0818   -3.0410 H   0  0  0  0  0  0  0  0  0  0  0  0
    4.9278    2.8259   -2.3012 H   0  0  0  0  0  0  0  0  0  0  0  0
    3.1906    2.8267   -2.6389 H   0  0  0  0  0  0  0  0  0  0  0  0
    4.3646    4.5824   -0.7679 H   0  0  0  0  0  0  0  0  0  0  0  0
    2.8524    2.8129   -4.7835 H   0  0  0  0  0  0  0  0  0  0  0  0
    3.8564    2.8212   -6.2440 H   0  0  0  0  0  0  0  0  0  0  0  0
    2.8323    4.2345   -5.8587 H   0  0  0  0  0  0  0  0  0  0  0  0
    5.0610    5.7454   -5.7873 H   0  0  0  0  0  0  0  0  0  0  0  0
    5.6124    4.2076   -6.4598 H   0  0  0  0  0  0  0  0  0  0  0  0
    6.8240    2.1294   -4.3733 H   0  0  0  0  0  0  0  0  0  0  0  0
    8.6169    2.0306   -4.2835 H   0  0  0  0  0  0  0  0  0  0  0  0
    7.7953    2.2586   -5.8498 H   0  0  0  0  0  0  0  0  0  0  0  0
   10.5611    6.8642   -4.1209 H   0  0  0  0  0  0  0  0  0  0  0  0
    9.9720    6.4750   -2.4788 H   0  0  0  0  0  0  0  0  0  0  0  0
    9.2074    7.8053   -3.4070 H   0  0  0  0  0  0  0  0  0  0  0  0
    6.6801    9.1385   -5.6726 H   0  0  0  0  0  0  0  0  0  0  0  0
    6.5240    7.6121   -6.6049 H   0  0  0  0  0  0  0  0  0  0  0  0
    8.1496    8.2212   -6.1466 H   0  0  0  0  0  0  0  0  0  0  0  0
    1.5095    4.3317   -3.1024 H   0  0  0  0  0  0  0  0  0  0  0  0
   -0.2022    6.1153   -3.2628 H   0  0  0  0  0  0  0  0  0  0  0  0
  1  2  1  0
  1 24  1  0
  1 25  1  0
  1 26  1  0
  2  3  1  0
  3  4  2  0
  3 23  1  0
  4  5  1  0
  4 27  1  0
  5  6  2  0
  5 28  1  0
  6  7  1  0
  6 22  1  0
  7  8  1  0
  7 10  1  0
  7 29  1  1
  8  9  1  0
  8 30  1  0
  8 31  1  0
  9 32  1  0
 10 11  1  0
 10 12  1  0
 11 33  1  0
 11 34  1  0
 11 35  1  0
 12 13  1  0
 12 36  1  0
 12 37  1  0
 13 14  1  0
 13 19  2  0
 14 15  1  0
 14 16  2  0
 15 38  1  0
 15 39  1  0
 15 40  1  0
 16 17  1  0
 17 18  1  0
 17 19  1  0
 18 41  1  0
 18 42  1  0
 18 43  1  0
 19 20  1  0
 20 21  1  0
 21 44  1  0
 21 45  1  0
 21 46  1  0
 22 23  2  0
 22 47  1  0
 23 48  1  0
M  END

