
     RDKit          3D

 73 77  0  0  0  0  0  0  0  0999 V2000
    8.2756   -0.1379  -10.2504 O   0  0  0  0  0  0  0  0  0  0  0  0
    8.9091   -0.1225   -9.2023 C   0  0  0  0  0  0  0  0  0  0  0  0
    9.8650   -1.2674   -8.8729 C   0  0  0  0  0  0  0  0  0  0  0  0
    9.2566   -2.3607   -7.9699 C   0  0  0  0  0  0  0  0  0  0  0  0
    7.9137   -2.9610   -8.4396 C   0  0  1  0  0  0  0  0  0  0  0  0
    7.9469   -3.5584   -9.8630 C   0  0  0  0  0  0  0  0  0  0  0  0
    8.7506   -4.8635   -9.9457 C   0  0  0  0  0  0  0  0  0  0  0  0
    8.2258   -5.9053   -8.9476 C   0  0  0  0  0  0  0  0  0  0  0  0
    8.1834   -5.3491   -7.5175 C   0  0  0  0  0  0  0  0  0  0  0  0
    7.4020   -4.0272   -7.4450 C   0  0  0  0  0  0  0  0  0  0  0  0
    8.7565    0.8953   -8.2857 N   0  0  0  0  0  0  0  0  0  0  0  0
    7.8411    1.9929   -8.5846 C   0  0  0  0  0  0  0  0  0  0  0  0
    6.8254    2.2016   -7.4567 C   0  0  0  0  0  0  0  0  0  0  0  0
    7.5335    2.3977   -6.1062 C   0  0  1  0  0  0  0  0  0  0  0  0
    6.5304    2.7038   -4.9343 C   0  0  2  0  0  0  0  0  0  0  0  0
    5.6200    1.5125   -4.5959 C   0  0  0  0  0  0  0  0  0  0  0  0
    6.0062    0.4847   -3.7227 C   0  0  0  0  0  0  0  0  0  0  0  0
    5.1145   -0.5655   -3.4957 C   0  0  0  0  0  0  0  0  0  0  0  0
    3.8787   -0.5628   -4.1455 C   0  0  0  0  0  0  0  0  0  0  0  0
    3.5855    0.5071   -4.9946 C   0  0  0  0  0  0  0  0  0  0  0  0
    4.4313    1.5169   -5.2112 N   0  0  0  0  0  0  0  0  0  0  0  0
    5.7194    3.8716   -5.2578 N   0  0  0  0  0  0  0  0  0  0  0  0
    5.8622    4.8871   -4.3488 C   0  0  0  0  0  0  0  0  0  0  0  0
    5.2226    5.9110   -4.2620 O   0  0  0  0  0  0  0  0  0  0  0  0
    6.9298    4.5176   -3.4969 N   0  0  0  0  0  0  0  0  0  0  0  0
    7.4643    5.3648   -2.4439 C   0  0  0  0  0  0  0  0  0  0  0  0
    8.5678    6.3251   -2.9055 C   0  0  2  0  0  0  0  0  0  0  0  0
    8.9467    6.8141   -1.9853 H   0  0  0  0  0  0  0  0  0  0  0  0
    8.1627    7.4146   -3.9406 C   0  0  0  0  0  0  0  0  0  0  0  0
    8.9622    7.0345   -5.1987 C   0  0  0  0  0  0  0  0  0  0  0  0
   10.1536    6.2891   -4.5962 C   0  0  0  0  0  0  0  0  0  0  0  0
    9.6113    5.5646   -3.5053 O   0  0  0  0  0  0  0  0  0  0  0  0
    7.3219    3.2132   -3.7055 C   0  0  0  0  0  0  0  0  0  0  0  0
    8.1288    2.5926   -3.0487 O   0  0  0  0  0  0  0  0  0  0  0  0
    8.4888    1.2221   -5.8490 C   0  0  0  0  0  0  0  0  0  0  0  0
    9.4637    1.0417   -7.0206 C   0  0  0  0  0  0  0  0  0  0  0  0
   10.7972   -0.8984   -8.4169 H   0  0  0  0  0  0  0  0  0  0  0  0
   10.1408   -1.6954   -9.8462 H   0  0  0  0  0  0  0  0  0  0  0  0
    9.1073   -1.9573   -6.9525 H   0  0  0  0  0  0  0  0  0  0  0  0
   10.0145   -3.1542   -7.8606 H   0  0  0  0  0  0  0  0  0  0  0  0
    7.1797   -2.1366   -8.4503 H   0  0  0  0  0  0  0  0  0  0  0  0
    8.3132   -2.8099  -10.5812 H   0  0  0  0  0  0  0  0  0  0  0  0
    6.9045   -3.7709  -10.1630 H   0  0  0  0  0  0  0  0  0  0  0  0
    9.8194   -4.6664   -9.7427 H   0  0  0  0  0  0  0  0  0  0  0  0
    8.7085   -5.2652  -10.9723 H   0  0  0  0  0  0  0  0  0  0  0  0
    8.8391   -6.8218   -8.9841 H   0  0  0  0  0  0  0  0  0  0  0  0
    7.2040   -6.2045   -9.2478 H   0  0  0  0  0  0  0  0  0  0  0  0
    9.2161   -5.1968   -7.1551 H   0  0  0  0  0  0  0  0  0  0  0  0
    7.7311   -6.0878   -6.8339 H   0  0  0  0  0  0  0  0  0  0  0  0
    7.4226   -3.6284   -6.4154 H   0  0  0  0  0  0  0  0  0  0  0  0
    6.3406   -4.2333   -7.6735 H   0  0  0  0  0  0  0  0  0  0  0  0
    7.3446    1.7570   -9.5332 H   0  0  0  0  0  0  0  0  0  0  0  0
    8.4278    2.9215   -8.7307 H   0  0  0  0  0  0  0  0  0  0  0  0
    6.1525    1.3299   -7.4087 H   0  0  0  0  0  0  0  0  0  0  0  0
    6.2048    3.0795   -7.6939 H   0  0  0  0  0  0  0  0  0  0  0  0
    8.1477    3.3147   -6.1887 H   0  0  0  0  0  0  0  0  0  0  0  0
    6.9733    0.5304   -3.2222 H   0  0  0  0  0  0  0  0  0  0  0  0
    5.3834   -1.3757   -2.8131 H   0  0  0  0  0  0  0  0  0  0  0  0
    3.1536   -1.3655   -3.9959 H   0  0  0  0  0  0  0  0  0  0  0  0
    2.6251    0.5538   -5.5206 H   0  0  0  0  0  0  0  0  0  0  0  0
    4.8116    3.7186   -5.6891 H   0  0  0  0  0  0  0  0  0  0  0  0
    7.8787    4.6893   -1.6819 H   0  0  0  0  0  0  0  0  0  0  0  0
    6.6345    5.9393   -2.0056 H   0  0  0  0  0  0  0  0  0  0  0  0
    8.4721    8.4055   -3.5734 H   0  0  0  0  0  0  0  0  0  0  0  0
    7.0788    7.4448   -4.1133 H   0  0  0  0  0  0  0  0  0  0  0  0
    9.2558    7.9041   -5.8058 H   0  0  0  0  0  0  0  0  0  0  0  0
    8.3795    6.3560   -5.8428 H   0  0  0  0  0  0  0  0  0  0  0  0
   10.9312    7.0021   -4.2500 H   0  0  0  0  0  0  0  0  0  0  0  0
   10.6327    5.5715   -5.2800 H   0  0  0  0  0  0  0  0  0  0  0  0
    7.9106    0.2904   -5.7311 H   0  0  0  0  0  0  0  0  0  0  0  0
    9.0557    1.3790   -4.9200 H   0  0  0  0  0  0  0  0  0  0  0  0
   10.1021    0.1707   -6.8389 H   0  0  0  0  0  0  0  0  0  0  0  0
   10.1327    1.9239   -7.0771 H   0  0  0  0  0  0  0  0  0  0  0  0
  1  2  2  0
  2  3  1  0
  2 11  1  0
  3  4  1  0
  3 37  1  0
  3 38  1  0
  4  5  1  0
  4 39  1  0
  4 40  1  0
  5  6  1  0
  5 10  1  0
  5 41  1  6
  6  7  1  0
  6 42  1  0
  6 43  1  0
  7  8  1  0
  7 44  1  0
  7 45  1  0
  8  9  1  0
  8 46  1  0
  8 47  1  0
  9 10  1  0
  9 48  1  0
  9 49  1  0
 10 50  1  0
 10 51  1  0
 11 12  1  0
 11 36  1  0
 12 13  1  0
 12 52  1  0
 12 53  1  0
 13 14  1  0
 13 54  1  0
 13 55  1  0
 14 15  1  0
 14 35  1  0
 14 56  1  6
 15 16  1  1
 15 22  1  0
 15 33  1  0
 16 17  2  0
 16 21  1  0
 17 18  1  0
 17 57  1  0
 18 19  2  0
 18 58  1  0
 19 20  1  0
 19 59  1  0
 20 21  2  0
 20 60  1  0
 22 23  1  0
 22 61  1  0
 23 24  2  0
 23 25  1  0
 25 26  1  0
 25 33  1  0
 26 27  1  0
 26 62  1  0
 26 63  1  0
 27 28  1  1
 27 29  1  0
 27 32  1  0
 29 30  1  0
 29 64  1  0
 29 65  1  0
 30 31  1  0
 30 66  1  0
 30 67  1  0
 31 32  1  0
 31 68  1  0
 31 69  1  0
 33 34  2  0
 35 36  1  0
 35 70  1  0
 35 71  1  0
 36 72  1  0
 36 73  1  0
M  END

