
     RDKit          3D

 51 54  0  0  0  0  0  0  0  0999 V2000
    3.9723   -3.9923    5.1855 C   0  0  0  0  0  0  0  0  0  0  0  0
    2.7322   -4.8068    5.0326 C   0  0  0  0  0  0  0  0  0  0  0  0
    1.6974   -4.9276    5.9365 C   0  0  0  0  0  0  0  0  0  0  0  0
    0.5814   -5.7564    5.6290 C   0  0  0  0  0  0  0  0  0  0  0  0
    0.4488   -6.4417    4.5133 N   0  0  0  0  0  0  0  0  0  0  0  0
    1.4468   -6.3326    3.6239 C   0  0  0  0  0  0  0  0  0  0  0  0
    1.5971   -6.8898    2.4297 N   0  0  0  0  0  0  0  0  0  0  0  0
    2.7891   -6.4177    2.0113 C   0  0  0  0  0  0  0  0  0  0  0  0
    3.3610   -6.8049    0.6840 C   0  0  0  0  0  0  0  0  0  0  0  0
    2.7621   -7.4450   -0.1408 O   0  0  0  0  0  0  0  0  0  0  0  0
    4.6177   -6.3483    0.5454 O   0  0  0  0  0  0  0  0  0  0  0  0
    5.3410   -6.7170   -0.6482 C   0  0  1  0  0  0  0  0  0  0  0  0
    5.3633   -5.5530   -1.6219 C   0  0  0  0  0  0  0  0  0  0  0  0
    6.7569   -7.0812   -0.1569 C   0  0  0  0  0  0  0  0  0  0  0  0
    7.6730   -6.2872   -0.2466 O   0  0  0  0  0  0  0  0  0  0  0  0
    6.9336   -8.3364    0.4166 N   0  0  0  0  0  0  0  0  0  0  0  0
    5.8873   -9.2724    0.4660 C   0  0  0  0  0  0  0  0  0  0  0  0
    4.9679   -9.3361    1.3848 N   0  0  0  0  0  0  0  0  0  0  0  0
    4.0778  -10.3470    1.1459 C   0  0  0  0  0  0  0  0  0  0  0  0
    4.3098  -11.0924    0.0190 C   0  0  0  0  0  0  0  0  0  0  0  0
    5.7073  -10.4944   -0.7974 S   0  0  0  0  0  0  0  0  0  0  0  0
    8.2800   -8.5962    1.0224 C   0  0  1  0  0  0  0  0  0  0  0  0
    8.4100   -7.9480    2.4158 C   0  0  0  0  0  0  0  0  0  0  0  0
    7.7378   -8.7565    3.5315 C   0  0  0  0  0  0  0  0  0  0  0  0
    8.2742  -10.1938    3.5715 C   0  0  0  0  0  0  0  0  0  0  0  0
    8.0930  -10.8975    2.2194 C   0  0  0  0  0  0  0  0  0  0  0  0
    8.6893  -10.0791    1.0619 C   0  0  0  0  0  0  0  0  0  0  0  0
    3.4266   -5.5880    2.8480 N   0  0  0  0  0  0  0  0  0  0  0  0
    2.5751   -5.5272    3.8790 N   0  0  0  0  0  0  0  0  0  0  0  0
    3.9756   -3.4665    6.1488 H   0  0  0  0  0  0  0  0  0  0  0  0
    4.0535   -3.2613    4.3652 H   0  0  0  0  0  0  0  0  0  0  0  0
    4.8635   -4.6361    5.1124 H   0  0  0  0  0  0  0  0  0  0  0  0
    1.7392   -4.3884    6.8835 H   0  0  0  0  0  0  0  0  0  0  0  0
   -0.2321   -5.8418    6.3593 H   0  0  0  0  0  0  0  0  0  0  0  0
    4.8365   -7.5829   -1.0976 H   0  0  0  0  0  0  0  0  0  0  0  0
    5.8530   -4.6829   -1.1645 H   0  0  0  0  0  0  0  0  0  0  0  0
    4.3354   -5.2931   -1.9136 H   0  0  0  0  0  0  0  0  0  0  0  0
    5.9264   -5.8258   -2.5272 H   0  0  0  0  0  0  0  0  0  0  0  0
    3.2419  -10.4995    1.8300 H   0  0  0  0  0  0  0  0  0  0  0  0
    3.7333  -11.9320   -0.3658 H   0  0  0  0  0  0  0  0  0  0  0  0
    8.9666   -8.0682    0.3474 H   0  0  0  0  0  0  0  0  0  0  0  0
    8.0229   -6.9191    2.3727 H   0  0  0  0  0  0  0  0  0  0  0  0
    9.4910   -7.8611    2.6315 H   0  0  0  0  0  0  0  0  0  0  0  0
    6.6468   -8.7711    3.3699 H   0  0  0  0  0  0  0  0  0  0  0  0
    7.9076   -8.2592    4.5015 H   0  0  0  0  0  0  0  0  0  0  0  0
    7.7743  -10.7716    4.3670 H   0  0  0  0  0  0  0  0  0  0  0  0
    9.3495  -10.1732    3.8316 H   0  0  0  0  0  0  0  0  0  0  0  0
    7.0201  -11.0804    2.0485 H   0  0  0  0  0  0  0  0  0  0  0  0
    8.5705  -11.8918    2.2385 H   0  0  0  0  0  0  0  0  0  0  0  0
    8.4856  -10.5618    0.0925 H   0  0  0  0  0  0  0  0  0  0  0  0
    9.7882  -10.0775    1.1704 H   0  0  0  0  0  0  0  0  0  0  0  0
  1  2  1  0
  1 30  1  0
  1 31  1  0
  1 32  1  0
  2  3  2  0
  2 29  1  0
  3  4  1  0
  3 33  1  0
  4  5  2  0
  4 34  1  0
  5  6  1  0
  6  7  2  0
  6 29  1  0
  7  8  1  0
  8  9  1  0
  8 28  2  0
  9 10  2  0
  9 11  1  0
 11 12  1  0
 12 13  1  0
 12 14  1  0
 12 35  1  6
 13 36  1  0
 13 37  1  0
 13 38  1  0
 14 15  2  0
 14 16  1  0
 16 17  1  0
 16 22  1  0
 17 18  2  0
 17 21  1  0
 18 19  1  0
 19 20  2  0
 19 39  1  0
 20 21  1  0
 20 40  1  0
 22 23  1  0
 22 27  1  0
 22 41  1  6
 23 24  1  0
 23 42  1  0
 23 43  1  0
 24 25  1  0
 24 44  1  0
 24 45  1  0
 25 26  1  0
 25 46  1  0
 25 47  1  0
 26 27  1  0
 26 48  1  0
 26 49  1  0
 27 50  1  0
 27 51  1  0
 28 29  1  0
M  END

