
     RDKit          3D

 46 48  0  0  0  0  0  0  0  0999 V2000
    9.9337   -0.2373   -5.3116 C   0  0  0  0  0  0  0  0  0  0  0  0
    9.5262   -1.0833   -4.1446 C   0  0  0  0  0  0  0  0  0  0  0  0
   10.3031   -1.9349   -3.5456 N   0  0  0  0  0  0  0  0  0  0  0  0
    9.7031   -2.5489   -2.4709 C   0  0  0  0  0  0  0  0  0  0  0  0
   10.4506   -3.5774   -1.6803 C   0  0  0  0  0  0  0  0  0  0  0  0
    8.4055   -2.1542   -2.2378 C   0  0  0  0  0  0  0  0  0  0  0  0
    7.5199   -2.6228   -1.2627 N   0  0  0  0  0  0  0  0  0  0  0  0
    7.0464   -3.9379   -1.2395 C   0  0  0  0  0  0  0  0  0  0  0  0
    7.4180   -4.7934   -2.0141 O   0  0  0  0  0  0  0  0  0  0  0  0
    6.1236   -4.1609   -0.2285 N   0  0  0  0  0  0  0  0  0  0  0  0
    5.5491   -5.4265    0.0143 C   0  0  0  0  0  0  0  0  0  0  0  0
    6.2096   -6.6381    0.3746 C   0  0  0  0  0  0  0  0  0  0  0  0
    7.6760   -6.8751    0.5364 C   0  0  0  0  0  0  0  0  0  0  0  0
    5.3197   -7.6099    0.5313 N   0  0  0  0  0  0  0  0  0  0  0  0
    4.1108   -7.0581    0.2880 N   0  0  0  0  0  0  0  0  0  0  0  0
    2.9236   -7.8821    0.4125 C   0  0  1  0  0  0  0  0  0  0  0  0
    2.9535   -9.0994   -0.5482 C   0  0  0  0  0  0  0  0  0  0  0  0
    1.8694  -10.1059   -0.1307 C   0  0  0  0  0  0  0  0  0  0  0  0
    1.3885   -9.6614    1.5955 S   0  0  2  0  0  0  0  0  0  0  0  0
    1.5236  -10.8023    2.5049 O   0  0  0  0  0  0  0  0  0  0  0  0
    0.1373   -8.8892    1.5188 O   0  0  0  0  0  0  0  0  0  0  0  0
    2.7371   -8.4544    1.8226 C   0  0  0  0  0  0  0  0  0  0  0  0
    4.1933   -5.7345   -0.0396 C   0  0  0  0  0  0  0  0  0  0  0  0
    3.0272   -4.8667   -0.3807 C   0  0  0  0  0  0  0  0  0  0  0  0
    7.9170   -0.9729   -3.4456 S   0  0  0  0  0  0  0  0  0  0  0  0
   10.9696   -0.4906   -5.5751 H   0  0  0  0  0  0  0  0  0  0  0  0
    9.8813    0.8375   -5.0718 H   0  0  0  0  0  0  0  0  0  0  0  0
    9.2907   -0.4144   -6.1889 H   0  0  0  0  0  0  0  0  0  0  0  0
   11.5208   -3.3269   -1.6554 H   0  0  0  0  0  0  0  0  0  0  0  0
   10.3384   -4.5736   -2.1390 H   0  0  0  0  0  0  0  0  0  0  0  0
   10.0672   -3.6445   -0.6518 H   0  0  0  0  0  0  0  0  0  0  0  0
    7.0621   -1.9332   -0.6758 H   0  0  0  0  0  0  0  0  0  0  0  0
    5.9539   -3.4247    0.4484 H   0  0  0  0  0  0  0  0  0  0  0  0
    8.1239   -6.1448    1.2303 H   0  0  0  0  0  0  0  0  0  0  0  0
    8.1879   -6.7606   -0.4319 H   0  0  0  0  0  0  0  0  0  0  0  0
    7.8544   -7.8869    0.9254 H   0  0  0  0  0  0  0  0  0  0  0  0
    2.0583   -7.2451    0.1807 H   0  0  0  0  0  0  0  0  0  0  0  0
    3.9522   -9.5506   -0.4610 H   0  0  0  0  0  0  0  0  0  0  0  0
    2.8265   -8.7713   -1.5903 H   0  0  0  0  0  0  0  0  0  0  0  0
    2.2126  -11.1483   -0.1152 H   0  0  0  0  0  0  0  0  0  0  0  0
    0.9370  -10.0278   -0.7058 H   0  0  0  0  0  0  0  0  0  0  0  0
    3.6382   -8.9853    2.1603 H   0  0  0  0  0  0  0  0  0  0  0  0
    2.4025   -7.7279    2.5746 H   0  0  0  0  0  0  0  0  0  0  0  0
    2.4436   -5.2703   -1.2244 H   0  0  0  0  0  0  0  0  0  0  0  0
    3.3935   -3.8741   -0.6782 H   0  0  0  0  0  0  0  0  0  0  0  0
    2.3349   -4.7317    0.4676 H   0  0  0  0  0  0  0  0  0  0  0  0
  1  2  1  0
  1 26  1  0
  1 27  1  0
  1 28  1  0
  2  3  2  0
  2 25  1  0
  3  4  1  0
  4  5  1  0
  4  6  2  0
  5 29  1  0
  5 30  1  0
  5 31  1  0
  6  7  1  0
  6 25  1  0
  7  8  1  0
  7 32  1  0
  8  9  2  0
  8 10  1  0
 10 11  1  0
 10 33  1  0
 11 12  1  0
 11 23  2  0
 12 13  1  0
 12 14  2  0
 13 34  1  0
 13 35  1  0
 13 36  1  0
 14 15  1  0
 15 16  1  0
 15 23  1  0
 16 17  1  0
 16 22  1  0
 16 37  1  6
 17 18  1  0
 17 38  1  0
 17 39  1  0
 19 18  1  6
 18 40  1  0
 18 41  1  0
 19 20  2  0
 19 21  2  0
 19 22  1  0
 22 42  1  0
 22 43  1  0
 23 24  1  0
 24 44  1  0
 24 45  1  0
 24 46  1  0
M  END

