
     RDKit          3D

 43 45  0  0  0  0  0  0  0  0999 V2000
    8.9441    4.8851    1.2033 C   0  0  0  0  0  0  0  0  0  0  0  0
    8.3506    3.5283    0.9121 C   0  0  0  0  0  0  0  0  0  0  0  0
    6.9791    3.3625    0.6679 C   0  0  0  0  0  0  0  0  0  0  0  0
    6.4335    2.1043    0.4190 C   0  0  0  0  0  0  0  0  0  0  0  0
    7.2499    0.9603    0.4051 C   0  0  0  0  0  0  0  0  0  0  0  0
    6.6255   -0.2767    0.1452 N   0  0  0  0  0  0  0  0  0  0  0  0
    7.1580   -1.5282    0.0760 C   0  0  0  0  0  0  0  0  0  0  0  0
    8.4129   -1.8545    0.2171 N   0  0  0  0  0  0  0  0  0  0  0  0
    8.6213   -3.2049    0.1014 C   0  0  0  0  0  0  0  0  0  0  0  0
   10.0245   -3.7096    0.2420 C   0  0  0  0  0  0  0  0  0  0  0  0
    7.4905   -3.9656   -0.1470 C   0  0  0  0  0  0  0  0  0  0  0  0
    7.4046   -5.4313   -0.3420 C   0  0  0  0  0  0  0  0  0  0  0  0
    8.3072   -6.1900   -0.0193 O   0  0  0  0  0  0  0  0  0  0  0  0
    6.2269   -5.8717   -0.9280 N   0  0  0  0  0  0  0  0  0  0  0  0
    5.8161   -7.1872   -1.1960 C   0  0  0  0  0  0  0  0  0  0  0  0
    6.5737   -8.3270   -0.8657 C   0  0  0  0  0  0  0  0  0  0  0  0
    6.0773   -9.5961   -1.1710 C   0  0  0  0  0  0  0  0  0  0  0  0
    4.8431   -9.7656   -1.7995 C   0  0  0  0  0  0  0  0  0  0  0  0
    4.0912   -8.6308   -2.1257 C   0  0  0  0  0  0  0  0  0  0  0  0
    2.7286   -8.7892   -2.7536 C   0  0  1  0  0  0  0  0  0  0  0  0
    2.6892   -9.8281   -3.6059 F   0  0  0  0  0  0  0  0  0  0  0  0
    1.7772   -9.0108   -1.8250 F   0  0  0  0  0  0  0  0  0  0  0  0
    2.3560   -7.6911   -3.4378 F   0  0  0  0  0  0  0  0  0  0  0  0
    4.5712   -7.3552   -1.8296 C   0  0  0  0  0  0  0  0  0  0  0  0
    6.0789   -2.9007   -0.2097 S   0  0  0  0  0  0  0  0  0  0  0  0
    8.6271    1.1061    0.6445 C   0  0  0  0  0  0  0  0  0  0  0  0
    9.1512    2.3754    0.8916 C   0  0  0  0  0  0  0  0  0  0  0  0
    8.2392    5.6951    0.9634 H   0  0  0  0  0  0  0  0  0  0  0  0
    9.8656    5.0556    0.6236 H   0  0  0  0  0  0  0  0  0  0  0  0
    9.2122    4.9854    2.2696 H   0  0  0  0  0  0  0  0  0  0  0  0
    6.3195    4.2348    0.6706 H   0  0  0  0  0  0  0  0  0  0  0  0
    5.3594    2.0086    0.2309 H   0  0  0  0  0  0  0  0  0  0  0  0
    5.6256   -0.2194   -0.0062 H   0  0  0  0  0  0  0  0  0  0  0  0
   10.6924   -3.1247   -0.4097 H   0  0  0  0  0  0  0  0  0  0  0  0
   10.0959   -4.7770    0.0120 H   0  0  0  0  0  0  0  0  0  0  0  0
   10.3685   -3.5510    1.2781 H   0  0  0  0  0  0  0  0  0  0  0  0
    5.5870   -5.1572   -1.2562 H   0  0  0  0  0  0  0  0  0  0  0  0
    7.5399   -8.2005   -0.3843 H   0  0  0  0  0  0  0  0  0  0  0  0
    6.6770  -10.4726   -0.9137 H   0  0  0  0  0  0  0  0  0  0  0  0
    4.4694  -10.7617   -2.0416 H   0  0  0  0  0  0  0  0  0  0  0  0
    3.9736   -6.4813   -2.0996 H   0  0  0  0  0  0  0  0  0  0  0  0
    9.2676    0.2270    0.6310 H   0  0  0  0  0  0  0  0  0  0  0  0
   10.2263    2.4673    1.0735 H   0  0  0  0  0  0  0  0  0  0  0  0
  1  2  1  0
  1 28  1  0
  1 29  1  0
  1 30  1  0
  2  3  2  0
  2 27  1  0
  3  4  1  0
  3 31  1  0
  4  5  2  0
  4 32  1  0
  5  6  1  0
  5 26  1  0
  6  7  1  0
  6 33  1  0
  7  8  2  0
  7 25  1  0
  8  9  1  0
  9 10  1  0
  9 11  2  0
 10 34  1  0
 10 35  1  0
 10 36  1  0
 11 12  1  0
 11 25  1  0
 12 13  2  0
 12 14  1  0
 14 15  1  0
 14 37  1  0
 15 16  2  0
 15 24  1  0
 16 17  1  0
 16 38  1  0
 17 18  2  0
 17 39  1  0
 18 19  1  0
 18 40  1  0
 19 20  1  0
 19 24  2  0
 20 21  1  6
 20 22  1  0
 20 23  1  0
 24 41  1  0
 26 27  2  0
 26 42  1  0
 27 43  1  0
M  END

