
     RDKit          3D

 44 47  0  0  0  0  0  0  0  0999 V2000
    1.2679    0.0035    1.0246 C   0  0  0  0  0  0  0  0  0  0  0  0
    2.6947    0.0074    0.5328 C   0  0  0  0  0  0  0  0  0  0  0  0
    3.0570   -0.6886   -0.6330 C   0  0  0  0  0  0  0  0  0  0  0  0
    4.3776   -0.7149   -1.0792 C   0  0  0  0  0  0  0  0  0  0  0  0
    5.3900   -0.0438   -0.3748 C   0  0  0  0  0  0  0  0  0  0  0  0
    6.8267   -0.0200   -0.8759 C   0  0  2  0  0  0  0  0  0  0  0  0
    7.4464    0.4009   -0.0621 H   0  0  0  0  0  0  0  0  0  0  0  0
    6.9673    0.8998   -2.1027 C   0  0  0  0  0  0  0  0  0  0  0  0
    8.3281    0.8626   -2.7755 C   0  0  0  0  0  0  0  0  0  0  0  0
    8.8746    1.8382   -3.2324 O   0  0  0  0  0  0  0  0  0  0  0  0
    8.8750   -0.4298   -2.9037 N   0  0  0  0  0  0  0  0  0  0  0  0
    8.3879   -1.5023   -2.1564 C   0  0  0  0  0  0  0  0  0  0  0  0
    7.3994   -1.3929   -1.2219 C   0  0  0  0  0  0  0  0  0  0  0  0
    7.0190   -2.5447   -0.4767 C   0  0  0  0  0  0  0  0  0  0  0  0
    6.7137   -3.4896    0.1307 N   0  0  0  0  0  0  0  0  0  0  0  0
    9.2641   -3.0005   -2.4875 S   0  0  0  0  0  0  0  0  0  0  0  0
   10.1893   -2.2209   -3.8537 C   0  0  0  0  0  0  0  0  0  0  0  0
   10.1224   -0.6716   -3.7067 C   0  0  1  0  0  0  0  0  0  0  0  0
   10.0215   -0.0936   -4.9702 O   0  0  0  0  0  0  0  0  0  0  0  0
   11.3506   -0.0717   -3.0147 C   0  0  0  0  0  0  0  0  0  0  0  0
   11.9591    1.0821   -3.5275 C   0  0  0  0  0  0  0  0  0  0  0  0
   13.0728    1.6393   -2.8972 C   0  0  0  0  0  0  0  0  0  0  0  0
   13.5709    1.0381   -1.7443 C   0  0  0  0  0  0  0  0  0  0  0  0
   14.6393    1.5705   -1.1356 F   0  0  0  0  0  0  0  0  0  0  0  0
   12.9831   -0.1053   -1.2080 C   0  0  0  0  0  0  0  0  0  0  0  0
   11.8722   -0.6562   -1.8493 C   0  0  0  0  0  0  0  0  0  0  0  0
    5.0329    0.6508    0.7869 C   0  0  0  0  0  0  0  0  0  0  0  0
    3.7078    0.6778    1.2316 C   0  0  0  0  0  0  0  0  0  0  0  0
    0.5550    0.1457    0.1968 H   0  0  0  0  0  0  0  0  0  0  0  0
    1.0924    0.7971    1.7661 H   0  0  0  0  0  0  0  0  0  0  0  0
    1.0169   -0.9586    1.5043 H   0  0  0  0  0  0  0  0  0  0  0  0
    2.2899   -1.2251   -1.1993 H   0  0  0  0  0  0  0  0  0  0  0  0
    4.6241   -1.2761   -1.9851 H   0  0  0  0  0  0  0  0  0  0  0  0
    6.7602    1.9465   -1.8453 H   0  0  0  0  0  0  0  0  0  0  0  0
    6.2273    0.5982   -2.8663 H   0  0  0  0  0  0  0  0  0  0  0  0
    9.7319   -2.5034   -4.8139 H   0  0  0  0  0  0  0  0  0  0  0  0
   11.2273   -2.5755   -3.8488 H   0  0  0  0  0  0  0  0  0  0  0  0
    9.1894   -0.3687   -5.3790 H   0  0  0  0  0  0  0  0  0  0  0  0
   11.5459    1.5476   -4.4206 H   0  0  0  0  0  0  0  0  0  0  0  0
   13.5563    2.5379   -3.2852 H   0  0  0  0  0  0  0  0  0  0  0  0
   13.3985   -0.5508   -0.3022 H   0  0  0  0  0  0  0  0  0  0  0  0
   11.4128   -1.5527   -1.4264 H   0  0  0  0  0  0  0  0  0  0  0  0
    5.8017    1.1801    1.3576 H   0  0  0  0  0  0  0  0  0  0  0  0
    3.4598    1.2288    2.1433 H   0  0  0  0  0  0  0  0  0  0  0  0
  1  2  1  0
  1 29  1  0
  1 30  1  0
  1 31  1  0
  2  3  2  0
  2 28  1  0
  3  4  1  0
  3 32  1  0
  4  5  2  0
  4 33  1  0
  5  6  1  0
  5 27  1  0
  6  7  1  1
  6  8  1  0
  6 13  1  0
  8  9  1  0
  8 34  1  0
  8 35  1  0
  9 10  2  0
  9 11  1  0
 11 12  1  0
 11 18  1  0
 12 13  2  0
 12 16  1  0
 13 14  1  0
 14 15  3  0
 16 17  1  0
 17 18  1  0
 17 36  1  0
 17 37  1  0
 18 19  1  6
 18 20  1  0
 19 38  1  0
 20 21  2  0
 20 26  1  0
 21 22  1  0
 21 39  1  0
 22 23  2  0
 22 40  1  0
 23 24  1  0
 23 25  1  0
 25 26  2  0
 25 41  1  0
 26 42  1  0
 27 28  2  0
 27 43  1  0
 28 44  1  0
M  END

