
     RDKit          3D

 32 32  0  0  0  0  0  0  0  0999 V2000
    1.5624    1.7133    0.8621 C   0  0  0  0  0  0  0  0  0  0  0  0
    2.5449    0.5911    0.5428 C   0  0  1  0  0  0  0  0  0  0  0  0
    3.8692    1.0283   -0.1043 C   0  0  0  0  0  0  0  0  0  0  0  0
    4.8779   -0.0267    0.3351 C   0  0  0  0  0  0  0  0  0  0  0  0
    5.9847   -0.2320   -0.1305 O   0  0  0  0  0  0  0  0  0  0  0  0
    4.3212   -0.7123    1.3900 N   0  0  0  0  0  0  0  0  0  0  0  0
    5.0698   -1.6817    2.1609 C   0  0  0  0  0  0  0  0  0  0  0  0
    4.5445   -3.1249    2.1064 C   0  0  0  0  0  0  0  0  0  0  0  0
    4.4682   -3.8145    0.7128 C   0  0  1  0  0  0  0  0  0  0  0  0
    5.7985   -3.7009   -0.0657 C   0  0  0  0  0  0  0  0  0  0  0  0
    4.1032   -5.3045    0.9195 C   0  0  0  0  0  0  0  0  0  0  0  0
    3.3807   -3.2044   -0.0840 C   0  0  0  0  0  0  0  0  0  0  0  0
    2.5056   -2.7633   -0.7039 N   0  0  0  0  0  0  0  0  0  0  0  0
    3.0109   -0.2120    1.7782 C   0  0  0  0  0  0  0  0  0  0  0  0
    1.2462    2.2355   -0.0548 H   0  0  0  0  0  0  0  0  0  0  0  0
    2.0123    2.4623    1.5360 H   0  0  0  0  0  0  0  0  0  0  0  0
    0.6535    1.3244    1.3502 H   0  0  0  0  0  0  0  0  0  0  0  0
    2.0646   -0.1295   -0.1391 H   0  0  0  0  0  0  0  0  0  0  0  0
    4.2166    2.0052    0.2799 H   0  0  0  0  0  0  0  0  0  0  0  0
    3.8409    1.0998   -1.2008 H   0  0  0  0  0  0  0  0  0  0  0  0
    5.0884   -1.3678    3.2216 H   0  0  0  0  0  0  0  0  0  0  0  0
    6.1042   -1.6335    1.7915 H   0  0  0  0  0  0  0  0  0  0  0  0
    3.5494   -3.1847    2.5790 H   0  0  0  0  0  0  0  0  0  0  0  0
    5.2145   -3.7371    2.7343 H   0  0  0  0  0  0  0  0  0  0  0  0
    6.6116   -4.1385    0.5362 H   0  0  0  0  0  0  0  0  0  0  0  0
    6.0566   -2.6575   -0.2965 H   0  0  0  0  0  0  0  0  0  0  0  0
    5.7377   -4.2601   -1.0116 H   0  0  0  0  0  0  0  0  0  0  0  0
    4.9073   -5.8070    1.4795 H   0  0  0  0  0  0  0  0  0  0  0  0
    3.9821   -5.8180   -0.0459 H   0  0  0  0  0  0  0  0  0  0  0  0
    3.1658   -5.4135    1.4861 H   0  0  0  0  0  0  0  0  0  0  0  0
    3.0868    0.4298    2.6806 H   0  0  0  0  0  0  0  0  0  0  0  0
    2.3184   -1.0363    2.0140 H   0  0  0  0  0  0  0  0  0  0  0  0
  1  2  1  0
  1 15  1  0
  1 16  1  0
  1 17  1  0
  2  3  1  0
  2 14  1  0
  2 18  1  6
  3  4  1  0
  3 19  1  0
  3 20  1  0
  4  5  2  0
  4  6  1  0
  6  7  1  0
  6 14  1  0
  7  8  1  0
  7 21  1  0
  7 22  1  0
  8  9  1  0
  8 23  1  0
  8 24  1  0
  9 10  1  0
  9 11  1  0
  9 12  1  6
 10 25  1  0
 10 26  1  0
 10 27  1  0
 11 28  1  0
 11 29  1  0
 11 30  1  0
 12 13  3  0
 14 31  1  0
 14 32  1  0
M  END

