
     RDKit          3D

 36 36  0  0  0  0  0  0  0  0999 V2000
    0.9228    0.1420   -0.0047 C   0  0  0  0  0  0  0  0  0  0  0  0
    2.4506    0.0878    0.1233 C   0  0  1  0  0  0  0  0  0  0  0  0
    2.8928    0.5030    1.5329 C   0  0  0  0  0  0  0  0  0  0  0  0
    2.9773   -1.3034   -0.2791 C   0  0  0  0  0  0  0  0  0  0  0  0
    4.5014   -1.4242   -0.3676 C   0  0  0  0  0  0  0  0  0  0  0  0
    4.9569   -2.7913   -0.8537 C   0  0  0  0  0  0  0  0  0  0  0  0
    6.3689   -2.8212   -0.8919 O   0  0  0  0  0  0  0  0  0  0  0  0
    6.9088   -4.0367   -1.3213 C   0  0  0  0  0  0  0  0  0  0  0  0
    8.4172   -3.9607   -1.3321 C   0  0  0  0  0  0  0  0  0  0  0  0
    9.0770   -2.7892   -0.9495 C   0  0  0  0  0  0  0  0  0  0  0  0
   10.4699   -2.7408   -0.9671 C   0  0  0  0  0  0  0  0  0  0  0  0
   11.1456   -1.4912   -0.5583 N   0  0  0  0  0  0  0  0  0  0  0  0
   10.4433   -0.5525   -0.2215 O   0  0  0  0  0  0  0  0  0  0  0  0
   12.3662   -1.4777   -0.5841 O   0  0  0  0  0  0  0  0  0  0  0  0
   11.2477   -3.8308   -1.3571 C   0  0  0  0  0  0  0  0  0  0  0  0
   10.6003   -5.0031   -1.7403 C   0  0  0  0  0  0  0  0  0  0  0  0
    9.2025   -5.0595   -1.7252 C   0  0  0  0  0  0  0  0  0  0  0  0
    8.4196   -6.5456   -2.2119 Cl  0  0  0  0  0  0  0  0  0  0  0  0
    0.5352    1.1451    0.2361 H   0  0  0  0  0  0  0  0  0  0  0  0
    0.4427   -0.5733    0.6856 H   0  0  0  0  0  0  0  0  0  0  0  0
    0.5925   -0.1091   -1.0259 H   0  0  0  0  0  0  0  0  0  0  0  0
    2.8736    0.8192   -0.5918 H   0  0  0  0  0  0  0  0  0  0  0  0
    2.5184   -0.2094    2.2889 H   0  0  0  0  0  0  0  0  0  0  0  0
    2.4981    1.4985    1.7927 H   0  0  0  0  0  0  0  0  0  0  0  0
    3.9884    0.5495    1.6307 H   0  0  0  0  0  0  0  0  0  0  0  0
    2.5411   -1.5698   -1.2592 H   0  0  0  0  0  0  0  0  0  0  0  0
    2.5872   -2.0523    0.4367 H   0  0  0  0  0  0  0  0  0  0  0  0
    4.9686   -1.2397    0.6135 H   0  0  0  0  0  0  0  0  0  0  0  0
    4.9038   -0.6584   -1.0536 H   0  0  0  0  0  0  0  0  0  0  0  0
    4.5438   -3.0039   -1.8625 H   0  0  0  0  0  0  0  0  0  0  0  0
    4.5768   -3.5884   -0.1802 H   0  0  0  0  0  0  0  0  0  0  0  0
    6.5500   -4.3018   -2.3390 H   0  0  0  0  0  0  0  0  0  0  0  0
    6.5907   -4.8750   -0.6649 H   0  0  0  0  0  0  0  0  0  0  0  0
    8.5005   -1.9201   -0.6399 H   0  0  0  0  0  0  0  0  0  0  0  0
   12.3339   -3.7483   -1.3556 H   0  0  0  0  0  0  0  0  0  0  0  0
   11.1699   -5.8795   -2.0525 H   0  0  0  0  0  0  0  0  0  0  0  0
  1  2  1  0
  1 19  1  0
  1 20  1  0
  1 21  1  0
  2  3  1  0
  2  4  1  0
  2 22  1  6
  3 23  1  0
  3 24  1  0
  3 25  1  0
  4  5  1  0
  4 26  1  0
  4 27  1  0
  5  6  1  0
  5 28  1  0
  5 29  1  0
  6  7  1  0
  6 30  1  0
  6 31  1  0
  7  8  1  0
  8  9  1  0
  8 32  1  0
  8 33  1  0
  9 10  2  0
  9 17  1  0
 10 11  1  0
 10 34  1  0
 11 12  1  0
 11 15  2  0
 12 13  2  0
 12 14  1  0
 15 16  1  0
 15 35  1  0
 16 17  2  0
 16 36  1  0
 17 18  1  0
M  CHG  2  12   1  14  -1
M  END

