
     RDKit          3D

 62 64  0  0  0  0  0  0  0  0999 V2000
    3.2491   -2.3730   -8.8651 C   0  0  0  0  0  0  0  0  0  0  0  0
    4.2149   -1.3089   -8.3714 C   0  0  0  0  0  0  0  0  0  0  0  0
    4.2710   -1.2636   -6.9322 O   0  0  0  0  0  0  0  0  0  0  0  0
    5.1073   -2.1110   -6.3231 C   0  0  0  0  0  0  0  0  0  0  0  0
    5.7874   -2.9267   -6.8932 O   0  0  0  0  0  0  0  0  0  0  0  0
    5.0762   -1.9844   -4.7860 C   0  0  2  0  0  0  0  0  0  0  0  0
    4.5859   -2.9122   -4.4473 H   0  0  0  0  0  0  0  0  0  0  0  0
    4.2834   -0.7814   -4.2165 C   0  0  0  0  0  0  0  0  0  0  0  0
    2.7767   -0.9262   -4.2631 C   0  0  0  0  0  0  0  0  0  0  0  0
    2.1154   -1.8538   -3.4432 C   0  0  0  0  0  0  0  0  0  0  0  0
    0.7276   -2.0047   -3.4492 C   0  0  0  0  0  0  0  0  0  0  0  0
   -0.0523   -1.2000   -4.2988 C   0  0  0  0  0  0  0  0  0  0  0  0
   -1.4548   -1.2803   -4.3787 N   0  0  0  0  0  0  0  0  0  0  0  0
   -2.3218   -2.0831   -3.6704 C   0  0  0  0  0  0  0  0  0  0  0  0
   -1.9662   -2.8522   -2.7907 O   0  0  0  0  0  0  0  0  0  0  0  0
   -3.7756   -1.9348   -4.0445 C   0  0  0  0  0  0  0  0  0  0  0  0
   -4.2187   -1.4450   -5.2838 C   0  0  0  0  0  0  0  0  0  0  0  0
   -5.5906   -1.3413   -5.5364 C   0  0  0  0  0  0  0  0  0  0  0  0
   -6.5200   -1.7259   -4.5728 C   0  0  0  0  0  0  0  0  0  0  0  0
   -6.0975   -2.2550   -3.3348 C   0  0  0  0  0  0  0  0  0  0  0  0
   -7.0697   -2.6246   -2.4040 N   0  0  0  0  0  0  0  0  0  0  0  0
   -6.8990   -3.6514   -1.6540 C   0  0  0  0  0  0  0  0  0  0  0  0
   -7.7768   -3.9786   -0.6714 N   0  0  0  0  0  0  0  0  0  0  0  0
   -8.9527   -3.2639   -0.4380 N   0  0  0  0  0  0  0  0  0  0  0  0
   -4.7149   -2.3426   -3.0873 C   0  0  0  0  0  0  0  0  0  0  0  0
    0.5962   -0.2596   -5.1203 C   0  0  0  0  0  0  0  0  0  0  0  0
    1.9830   -0.1294   -5.1013 C   0  0  0  0  0  0  0  0  0  0  0  0
    6.4421   -2.0502   -4.2880 N   0  0  0  0  0  0  0  0  0  0  0  0
    7.4033   -1.1833   -4.7247 C   0  0  0  0  0  0  0  0  0  0  0  0
    7.1368   -0.2707   -5.4957 O   0  0  0  0  0  0  0  0  0  0  0  0
    8.7959   -1.3945   -4.1941 C   0  0  0  0  0  0  0  0  0  0  0  0
    9.2636   -2.6282   -3.7134 C   0  0  0  0  0  0  0  0  0  0  0  0
   10.5759   -2.7555   -3.2510 C   0  0  0  0  0  0  0  0  0  0  0  0
   11.4333   -1.6514   -3.2653 C   0  0  0  0  0  0  0  0  0  0  0  0
   10.9786   -0.4224   -3.7563 C   0  0  0  0  0  0  0  0  0  0  0  0
    9.6709   -0.2975   -4.2257 C   0  0  0  0  0  0  0  0  0  0  0  0
    3.1712   -2.3253   -9.9633 H   0  0  0  0  0  0  0  0  0  0  0  0
    2.2446   -2.2215   -8.4405 H   0  0  0  0  0  0  0  0  0  0  0  0
    3.6025   -3.3780   -8.5915 H   0  0  0  0  0  0  0  0  0  0  0  0
    3.8868   -0.3019   -8.6666 H   0  0  0  0  0  0  0  0  0  0  0  0
    5.2299   -1.4833   -8.7568 H   0  0  0  0  0  0  0  0  0  0  0  0
    4.6075    0.1306   -4.7339 H   0  0  0  0  0  0  0  0  0  0  0  0
    4.5973   -0.6832   -3.1641 H   0  0  0  0  0  0  0  0  0  0  0  0
    2.6981   -2.4807   -2.7600 H   0  0  0  0  0  0  0  0  0  0  0  0
    0.2365   -2.7244   -2.7991 H   0  0  0  0  0  0  0  0  0  0  0  0
   -1.8841   -0.6087   -5.0028 H   0  0  0  0  0  0  0  0  0  0  0  0
   -3.5106   -1.1683   -6.0689 H   0  0  0  0  0  0  0  0  0  0  0  0
   -5.9364   -0.9606   -6.5009 H   0  0  0  0  0  0  0  0  0  0  0  0
   -7.5927   -1.6407   -4.7590 H   0  0  0  0  0  0  0  0  0  0  0  0
   -6.0506   -4.3562   -1.7421 H   0  0  0  0  0  0  0  0  0  0  0  0
   -7.7068   -4.8799   -0.2148 H   0  0  0  0  0  0  0  0  0  0  0  0
   -9.3982   -3.0875   -1.3438 H   0  0  0  0  0  0  0  0  0  0  0  0
   -8.6970   -2.3359   -0.0898 H   0  0  0  0  0  0  0  0  0  0  0  0
   -4.3395   -2.7112   -2.1313 H   0  0  0  0  0  0  0  0  0  0  0  0
    0.0033    0.3778   -5.7839 H   0  0  0  0  0  0  0  0  0  0  0  0
    2.4617    0.6037   -5.7542 H   0  0  0  0  0  0  0  0  0  0  0  0
    6.6797   -2.7693   -3.6196 H   0  0  0  0  0  0  0  0  0  0  0  0
    8.6191   -3.5111   -3.7287 H   0  0  0  0  0  0  0  0  0  0  0  0
   10.9324   -3.7227   -2.8880 H   0  0  0  0  0  0  0  0  0  0  0  0
   12.4593   -1.7512   -2.9017 H   0  0  0  0  0  0  0  0  0  0  0  0
   11.6493    0.4403   -3.7770 H   0  0  0  0  0  0  0  0  0  0  0  0
    9.2997    0.6467   -4.6286 H   0  0  0  0  0  0  0  0  0  0  0  0
  1  2  1  0
  1 37  1  0
  1 38  1  0
  1 39  1  0
  2  3  1  0
  2 40  1  0
  2 41  1  0
  3  4  1  0
  4  5  2  0
  4  6  1  0
  6  7  1  1
  6  8  1  0
  6 28  1  0
  8  9  1  0
  8 42  1  0
  8 43  1  0
  9 10  2  0
  9 27  1  0
 10 11  1  0
 10 44  1  0
 11 12  2  0
 11 45  1  0
 12 13  1  0
 12 26  1  0
 13 14  1  0
 13 46  1  0
 14 15  2  0
 14 16  1  0
 16 17  2  0
 16 25  1  0
 17 18  1  0
 17 47  1  0
 18 19  2  0
 18 48  1  0
 19 20  1  0
 19 49  1  0
 20 21  1  0
 20 25  2  0
 21 22  2  0
 22 23  1  0
 22 50  1  0
 23 24  1  0
 23 51  1  0
 24 52  1  0
 24 53  1  0
 25 54  1  0
 26 27  2  0
 26 55  1  0
 27 56  1  0
 28 29  1  0
 28 57  1  0
 29 30  2  0
 29 31  1  0
 31 32  2  0
 31 36  1  0
 32 33  1  0
 32 58  1  0
 33 34  2  0
 33 59  1  0
 34 35  1  0
 34 60  1  0
 35 36  2  0
 35 61  1  0
 36 62  1  0
M  END

