
     RDKit          3D

 38 39  0  0  0  0  0  0  0  0999 V2000
    5.2538   -1.0949    2.1707 C   0  0  0  0  0  0  0  0  0  0  0  0
    3.8859   -1.4100    2.2236 O   0  0  0  0  0  0  0  0  0  0  0  0
    3.4943   -2.4805    1.3997 C   0  0  1  0  0  0  0  0  0  0  0  0
    2.0751   -2.9172    1.7637 C   0  0  0  0  0  0  0  0  0  0  0  0
    1.6354   -3.6607    0.5879 N   0  0  0  0  0  0  0  0  0  0  0  0
    2.3575   -3.1913   -0.6151 C   0  0  2  0  0  0  0  0  0  0  0  0
    3.0813   -4.3974   -1.2538 C   0  0  0  0  0  0  0  0  0  0  0  0
    4.2910   -4.5509   -1.0934 O   0  0  0  0  0  0  0  0  0  0  0  0
    2.3380   -5.2904   -1.9727 N   0  0  0  0  0  0  0  0  0  0  0  0
    0.8912   -5.2783   -2.1255 C   0  0  0  0  0  0  0  0  0  0  0  0
    3.0091   -6.4792   -2.5148 C   0  0  0  0  0  0  0  0  0  0  0  0
    2.8644   -7.7068   -1.6588 C   0  0  0  0  0  0  0  0  0  0  0  0
    1.7829   -8.4683   -1.6490 N   0  0  0  0  0  0  0  0  0  0  0  0
    2.0237   -9.4531   -0.7307 C   0  0  0  0  0  0  0  0  0  0  0  0
    3.2731   -9.2870   -0.1755 C   0  0  0  0  0  0  0  0  0  0  0  0
    3.8061   -8.1631   -0.7683 N   0  0  0  0  0  0  0  0  0  0  0  0
    5.1379   -7.6295   -0.5188 C   0  0  0  0  0  0  0  0  0  0  0  0
    3.3575   -2.1441   -0.0967 C   0  0  0  0  0  0  0  0  0  0  0  0
    5.4371   -0.2879    2.8957 H   0  0  0  0  0  0  0  0  0  0  0  0
    5.5708   -0.7420    1.1700 H   0  0  0  0  0  0  0  0  0  0  0  0
    5.8880   -1.9631    2.4413 H   0  0  0  0  0  0  0  0  0  0  0  0
    4.1928   -3.3323    1.5161 H   0  0  0  0  0  0  0  0  0  0  0  0
    1.4849   -2.0004    1.9708 H   0  0  0  0  0  0  0  0  0  0  0  0
    2.0511   -3.5425    2.6717 H   0  0  0  0  0  0  0  0  0  0  0  0
    0.6275   -3.6947    0.4791 H   0  0  0  0  0  0  0  0  0  0  0  0
    1.6819   -2.7346   -1.3591 H   0  0  0  0  0  0  0  0  0  0  0  0
    0.4496   -4.3685   -1.7081 H   0  0  0  0  0  0  0  0  0  0  0  0
    0.4436   -6.1568   -1.6336 H   0  0  0  0  0  0  0  0  0  0  0  0
    0.6247   -5.3237   -3.1960 H   0  0  0  0  0  0  0  0  0  0  0  0
    4.0625   -6.2221   -2.6741 H   0  0  0  0  0  0  0  0  0  0  0  0
    2.5501   -6.7045   -3.4894 H   0  0  0  0  0  0  0  0  0  0  0  0
    1.2924  -10.2311   -0.5130 H   0  0  0  0  0  0  0  0  0  0  0  0
    3.8234   -9.8559    0.5704 H   0  0  0  0  0  0  0  0  0  0  0  0
    5.4152   -7.8310    0.5256 H   0  0  0  0  0  0  0  0  0  0  0  0
    5.1386   -6.5424   -0.6767 H   0  0  0  0  0  0  0  0  0  0  0  0
    5.8859   -8.1024   -1.1769 H   0  0  0  0  0  0  0  0  0  0  0  0
    2.9243   -1.1340   -0.1761 H   0  0  0  0  0  0  0  0  0  0  0  0
    4.3071   -2.1765   -0.6443 H   0  0  0  0  0  0  0  0  0  0  0  0
  1  2  1  0
  1 19  1  0
  1 20  1  0
  1 21  1  0
  2  3  1  0
  3  4  1  0
  3 18  1  0
  3 22  1  6
  4  5  1  0
  4 23  1  0
  4 24  1  0
  5  6  1  0
  5 25  1  0
  6  7  1  0
  6 18  1  0
  6 26  1  6
  7  8  2  0
  7  9  1  0
  9 10  1  0
  9 11  1  0
 10 27  1  0
 10 28  1  0
 10 29  1  0
 11 12  1  0
 11 30  1  0
 11 31  1  0
 12 13  2  0
 12 16  1  0
 13 14  1  0
 14 15  2  0
 14 32  1  0
 15 16  1  0
 15 33  1  0
 16 17  1  0
 17 34  1  0
 17 35  1  0
 17 36  1  0
 18 37  1  0
 18 38  1  0
M  END

