
     RDKit          3D

 57 61  0  0  0  0  0  0  0  0999 V2000
    4.4962   -0.2463   -2.0412 C   0  0  0  0  0  0  0  0  0  0  0  0
    3.4489    0.7568   -2.5324 C   0  0  1  0  0  0  0  0  0  0  0  0
    3.8912    2.1335   -2.3083 N   0  0  0  0  0  0  0  0  0  0  0  0
    3.3575    2.9405   -1.3436 C   0  0  0  0  0  0  0  0  0  0  0  0
    2.4918    2.5627   -0.5687 O   0  0  0  0  0  0  0  0  0  0  0  0
    3.8861    4.3738   -1.3245 C   0  0  0  0  0  0  0  0  0  0  0  0
    3.3137    5.2669   -2.4375 C   0  0  0  0  0  0  0  0  0  0  0  0
    1.4899    5.2131   -2.6561 S   0  0  0  0  0  0  0  0  0  0  0  0
    0.9057    5.4665   -0.9337 C   0  0  0  0  0  0  0  0  0  0  0  0
    1.3197    6.7797   -0.3249 C   0  0  0  0  0  0  0  0  0  0  0  0
    1.9243    6.7953    0.8297 N   0  0  0  0  0  0  0  0  0  0  0  0
    2.2305    8.0251    1.3187 C   0  0  0  0  0  0  0  0  0  0  0  0
    3.0420    8.2437    2.8607 S   0  0  0  0  0  0  0  0  0  0  0  0
    3.0299    9.9708    2.6367 C   0  0  0  0  0  0  0  0  0  0  0  0
    2.4389   10.3587    1.4643 C   0  0  0  0  0  0  0  0  0  0  0  0
    1.9713    9.2522    0.6938 C   0  0  0  0  0  0  0  0  0  0  0  0
    1.3214    9.2436   -0.6077 C   0  0  0  0  0  0  0  0  0  0  0  0
    1.0394   10.1969   -1.3107 O   0  0  0  0  0  0  0  0  0  0  0  0
    1.0301    7.9230   -1.0228 N   0  0  0  0  0  0  0  0  0  0  0  0
    0.6289    7.8362   -1.9551 H   0  0  0  0  0  0  0  0  0  0  0  0
    2.4008   11.8599    1.3471 C   0  0  0  0  0  0  0  0  0  0  0  0
    3.3732   12.3084    2.4772 C   0  0  0  0  0  0  0  0  0  0  0  0
    3.4687   11.1272    3.4907 C   0  0  0  0  0  0  0  0  0  0  0  0
    3.0072    0.5797   -3.9848 C   0  0  0  0  0  0  0  0  0  0  0  0
    2.0170    1.4339   -4.5029 C   0  0  0  0  0  0  0  0  0  0  0  0
    1.5741    1.3182   -5.8182 C   0  0  0  0  0  0  0  0  0  0  0  0
    2.1104    0.3232   -6.6489 C   0  0  0  0  0  0  0  0  0  0  0  0
    1.6585    0.1773   -7.9877 N   0  0  0  0  0  0  0  0  0  0  0  0
    0.5067    0.6185   -8.5697 C   0  0  0  0  0  0  0  0  0  0  0  0
    0.4645    0.2554   -9.8337 N   0  0  0  0  0  0  0  0  0  0  0  0
    1.6329   -0.4256   -9.9910 C   0  0  0  0  0  0  0  0  0  0  0  0
    2.3835   -0.5017   -8.9072 N   0  0  0  0  0  0  0  0  0  0  0  0
    3.0986   -0.5335   -6.1557 C   0  0  0  0  0  0  0  0  0  0  0  0
    3.5385   -0.3985   -4.8365 C   0  0  0  0  0  0  0  0  0  0  0  0
    4.7114   -0.0607   -0.9789 H   0  0  0  0  0  0  0  0  0  0  0  0
    5.4419   -0.1604   -2.6013 H   0  0  0  0  0  0  0  0  0  0  0  0
    4.1344   -1.2813   -2.1377 H   0  0  0  0  0  0  0  0  0  0  0  0
    2.5581    0.6573   -1.8920 H   0  0  0  0  0  0  0  0  0  0  0  0
    4.6187    2.4998   -2.9122 H   0  0  0  0  0  0  0  0  0  0  0  0
    4.9867    4.3796   -1.4150 H   0  0  0  0  0  0  0  0  0  0  0  0
    3.6389    4.7906   -0.3386 H   0  0  0  0  0  0  0  0  0  0  0  0
    3.6926    4.9682   -3.4279 H   0  0  0  0  0  0  0  0  0  0  0  0
    3.6316    6.3084   -2.2729 H   0  0  0  0  0  0  0  0  0  0  0  0
    1.2412    4.6413   -0.2923 H   0  0  0  0  0  0  0  0  0  0  0  0
   -0.1929    5.4140   -1.0170 H   0  0  0  0  0  0  0  0  0  0  0  0
    1.3736   12.2317    1.5132 H   0  0  0  0  0  0  0  0  0  0  0  0
    2.7008   12.2226    0.3524 H   0  0  0  0  0  0  0  0  0  0  0  0
    3.0602   13.2463    2.9595 H   0  0  0  0  0  0  0  0  0  0  0  0
    4.3707   12.4844    2.0438 H   0  0  0  0  0  0  0  0  0  0  0  0
    2.7853   11.2647    4.3495 H   0  0  0  0  0  0  0  0  0  0  0  0
    4.4819   11.0133    3.9093 H   0  0  0  0  0  0  0  0  0  0  0  0
    1.5947    2.2186   -3.8693 H   0  0  0  0  0  0  0  0  0  0  0  0
    0.8226    2.0143   -6.1944 H   0  0  0  0  0  0  0  0  0  0  0  0
   -0.2604    1.1724   -8.0316 H   0  0  0  0  0  0  0  0  0  0  0  0
    1.9415   -0.8784  -10.9333 H   0  0  0  0  0  0  0  0  0  0  0  0
    3.5148   -1.2949   -6.8149 H   0  0  0  0  0  0  0  0  0  0  0  0
    4.3086   -1.0830   -4.4779 H   0  0  0  0  0  0  0  0  0  0  0  0
  1  2  1  0
  1 35  1  0
  1 36  1  0
  1 37  1  0
  2  3  1  0
  2 24  1  0
  2 38  1  1
  3  4  1  0
  3 39  1  0
  4  5  2  0
  4  6  1  0
  6  7  1  0
  6 40  1  0
  6 41  1  0
  7  8  1  0
  7 42  1  0
  7 43  1  0
  8  9  1  0
  9 10  1  0
  9 44  1  0
  9 45  1  0
 10 11  2  0
 10 19  1  0
 11 12  1  0
 12 13  2  0
 12 16  1  0
 13 14  1  0
 14 15  2  0
 14 23  1  0
 15 16  1  0
 15 21  1  0
 16 17  2  0
 17 18  1  0
 17 19  1  0
 19 20  1  0
 21 22  1  0
 21 46  1  0
 21 47  1  0
 22 23  1  0
 22 48  1  0
 22 49  1  0
 23 50  1  0
 23 51  1  0
 24 25  2  0
 24 34  1  0
 25 26  1  0
 25 52  1  0
 26 27  2  0
 26 53  1  0
 27 28  1  0
 27 33  1  0
 28 29  1  0
 28 32  1  0
 29 30  2  0
 29 54  1  0
 30 31  1  0
 31 32  2  0
 31 55  1  0
 33 34  2  0
 33 56  1  0
 34 57  1  0
M  CHG  2  13   1  18  -1
M  END

