
     RDKit          3D

 63 64  0  0  0  0  0  0  0  0999 V2000
   14.0157   -3.3730   -7.5245 C   0  0  0  0  0  0  0  0  0  0  0  0
   13.1605   -3.5632   -6.3649 N   0  0  0  0  0  0  0  0  0  0  0  0
   13.0129   -4.9691   -6.0304 C   0  0  0  0  0  0  0  0  0  0  0  0
   13.5476   -2.7427   -5.2210 C   0  0  0  0  0  0  0  0  0  0  0  0
   13.1682   -1.2720   -5.4022 C   0  0  0  0  0  0  0  0  0  0  0  0
   11.7584   -1.1560   -5.7033 N   0  0  0  0  0  0  0  0  0  0  0  0
   10.9853   -0.1302   -5.2675 C   0  0  0  0  0  0  0  0  0  0  0  0
   11.3895    0.8091   -4.5941 O   0  0  0  0  0  0  0  0  0  0  0  0
    9.5549   -0.2313   -5.6757 C   0  0  0  0  0  0  0  0  0  0  0  0
    8.5615    0.6582   -5.3875 C   0  0  0  0  0  0  0  0  0  0  0  0
    7.4143    0.1868   -5.9432 O   0  0  0  0  0  0  0  0  0  0  0  0
    7.7572   -0.9821   -6.5394 C   0  0  0  0  0  0  0  0  0  0  0  0
    6.6820   -1.7434   -7.2641 C   0  0  0  0  0  0  0  0  0  0  0  0
    6.4114   -3.0829   -6.7634 N   0  0  0  0  0  0  0  0  0  0  0  0
    5.3925   -3.2613   -5.7262 C   0  0  0  0  0  0  0  0  0  0  0  0
    5.9693   -3.3867   -4.3120 C   0  0  0  0  0  0  0  0  0  0  0  0
    6.6145   -2.1730   -3.8276 N   0  0  0  0  0  0  0  0  0  0  0  0
    5.6697   -1.1828   -3.3446 C   0  0  0  0  0  0  0  0  0  0  0  0
    7.6658   -2.4371   -2.8598 C   0  0  0  0  0  0  0  0  0  0  0  0
    7.0442   -4.2223   -7.2198 C   0  0  0  0  0  0  0  0  0  0  0  0
    6.6974   -5.3317   -6.8301 O   0  0  0  0  0  0  0  0  0  0  0  0
    8.1668   -4.0597   -8.1955 C   0  0  0  0  0  0  0  0  0  0  0  0
    8.6141   -5.1369   -8.8691 C   0  0  0  0  0  0  0  0  0  0  0  0
    9.7226   -5.1849   -9.8272 C   0  0  0  0  0  0  0  0  0  0  0  0
    9.9769   -6.3940  -10.5083 C   0  0  0  0  0  0  0  0  0  0  0  0
   11.0118   -6.5022  -11.4342 C   0  0  0  0  0  0  0  0  0  0  0  0
   11.8080   -5.3839  -11.6798 C   0  0  0  0  0  0  0  0  0  0  0  0
   12.9099   -5.4853  -12.6569 N   0  0  0  0  0  0  0  0  0  0  0  0
   13.0679   -6.5565  -13.2203 O   0  0  0  0  0  0  0  0  0  0  0  0
   13.5947   -4.4910  -12.8395 O   0  0  0  0  0  0  0  0  0  0  0  0
   11.5921   -4.1689  -11.0221 C   0  0  0  0  0  0  0  0  0  0  0  0
   10.5543   -4.0762  -10.1019 C   0  0  0  0  0  0  0  0  0  0  0  0
    9.0162   -1.2673   -6.4249 N   0  0  0  0  0  0  0  0  0  0  0  0
   13.6148   -3.9330   -8.3836 H   0  0  0  0  0  0  0  0  0  0  0  0
   15.0615   -3.7166   -7.3522 H   0  0  0  0  0  0  0  0  0  0  0  0
   14.0567   -2.3117   -7.8119 H   0  0  0  0  0  0  0  0  0  0  0  0
   12.6267   -5.5233   -6.9003 H   0  0  0  0  0  0  0  0  0  0  0  0
   12.2923   -5.0915   -5.2069 H   0  0  0  0  0  0  0  0  0  0  0  0
   13.9693   -5.4504   -5.7224 H   0  0  0  0  0  0  0  0  0  0  0  0
   14.6368   -2.8150   -4.9996 H   0  0  0  0  0  0  0  0  0  0  0  0
   13.0159   -3.1276   -4.3361 H   0  0  0  0  0  0  0  0  0  0  0  0
   13.7808   -0.8061   -6.1975 H   0  0  0  0  0  0  0  0  0  0  0  0
   13.3757   -0.7033   -4.4836 H   0  0  0  0  0  0  0  0  0  0  0  0
   11.3382   -1.9030   -6.2509 H   0  0  0  0  0  0  0  0  0  0  0  0
    8.5244    1.5993   -4.8486 H   0  0  0  0  0  0  0  0  0  0  0  0
    6.9399   -1.7937   -8.3321 H   0  0  0  0  0  0  0  0  0  0  0  0
    5.7581   -1.1515   -7.1986 H   0  0  0  0  0  0  0  0  0  0  0  0
    4.8396   -4.1840   -5.9533 H   0  0  0  0  0  0  0  0  0  0  0  0
    4.6873   -2.4190   -5.7919 H   0  0  0  0  0  0  0  0  0  0  0  0
    6.7085   -4.2008   -4.3328 H   0  0  0  0  0  0  0  0  0  0  0  0
    5.1548   -3.7242   -3.6298 H   0  0  0  0  0  0  0  0  0  0  0  0
    4.9292   -0.9346   -4.1205 H   0  0  0  0  0  0  0  0  0  0  0  0
    6.1950   -0.2507   -3.0859 H   0  0  0  0  0  0  0  0  0  0  0  0
    5.1101   -1.5222   -2.4423 H   0  0  0  0  0  0  0  0  0  0  0  0
    8.4219   -3.1071   -3.2967 H   0  0  0  0  0  0  0  0  0  0  0  0
    7.2917   -2.9060   -1.9206 H   0  0  0  0  0  0  0  0  0  0  0  0
    8.1691   -1.4968   -2.5857 H   0  0  0  0  0  0  0  0  0  0  0  0
    8.6479   -3.0872   -8.2986 H   0  0  0  0  0  0  0  0  0  0  0  0
    8.0950   -6.0819   -8.6776 H   0  0  0  0  0  0  0  0  0  0  0  0
    9.3454   -7.2620  -10.3041 H   0  0  0  0  0  0  0  0  0  0  0  0
   11.2146   -7.4308  -11.9671 H   0  0  0  0  0  0  0  0  0  0  0  0
   12.2408   -3.3219  -11.2438 H   0  0  0  0  0  0  0  0  0  0  0  0
   10.3925   -3.1304   -9.5818 H   0  0  0  0  0  0  0  0  0  0  0  0
  1  2  1  0
  1 34  1  0
  1 35  1  0
  1 36  1  0
  2  3  1  0
  2  4  1  0
  3 37  1  0
  3 38  1  0
  3 39  1  0
  4  5  1  0
  4 40  1  0
  4 41  1  0
  5  6  1  0
  5 42  1  0
  5 43  1  0
  6  7  1  0
  6 44  1  0
  7  8  2  0
  7  9  1  0
  9 10  2  0
  9 33  1  0
 10 11  1  0
 10 45  1  0
 11 12  1  0
 12 13  1  0
 12 33  2  0
 13 14  1  0
 13 46  1  0
 13 47  1  0
 14 15  1  0
 14 20  1  0
 15 16  1  0
 15 48  1  0
 15 49  1  0
 16 17  1  0
 16 50  1  0
 16 51  1  0
 17 18  1  0
 17 19  1  0
 18 52  1  0
 18 53  1  0
 18 54  1  0
 19 55  1  0
 19 56  1  0
 19 57  1  0
 20 21  2  0
 20 22  1  0
 22 23  2  0
 22 58  1  0
 23 24  1  0
 23 59  1  0
 24 25  2  0
 24 32  1  0
 25 26  1  0
 25 60  1  0
 26 27  2  0
 26 61  1  0
 27 28  1  0
 27 31  1  0
 28 29  2  0
 28 30  1  0
 31 32  2  0
 31 62  1  0
 32 63  1  0
M  CHG  2  28   1  30  -1
M  END

