
     RDKit          3D

 58 62  0  0  0  0  0  0  0  0999 V2000
    3.8136    1.4980    0.4652 C   0  0  0  0  0  0  0  0  0  0  0  0
    5.0938    1.0672   -0.2303 C   0  0  0  0  0  0  0  0  0  0  0  0
    4.9140   -0.1608   -0.9609 O   0  0  0  0  0  0  0  0  0  0  0  0
    5.1391   -1.3092   -0.3008 C   0  0  0  0  0  0  0  0  0  0  0  0
    5.3535   -1.3848    0.8853 O   0  0  0  0  0  0  0  0  0  0  0  0
    5.0576   -2.4749   -1.2191 C   0  0  0  0  0  0  0  0  0  0  0  0
    5.5268   -2.6059   -2.5611 C   0  0  0  0  0  0  0  0  0  0  0  0
    6.2116   -1.6382   -3.4351 C   0  0  0  0  0  0  0  0  0  0  0  0
    5.9680   -1.6132   -4.7800 C   0  0  0  0  0  0  0  0  0  0  0  0
    6.6485   -0.7111   -5.6643 C   0  0  0  0  0  0  0  0  0  0  0  0
    7.5768    0.1549   -5.0800 C   0  0  0  0  0  0  0  0  0  0  0  0
    8.3000    1.1082   -5.8359 C   0  0  0  0  0  0  0  0  0  0  0  0
    8.0888    1.1891   -7.1905 C   0  0  0  0  0  0  0  0  0  0  0  0
    7.1576    0.3330   -7.8531 C   0  0  0  0  0  0  0  0  0  0  0  0
    6.9465    0.4207   -9.2552 C   0  0  0  0  0  0  0  0  0  0  0  0
    6.0461   -0.4096   -9.8911 C   0  0  0  0  0  0  0  0  0  0  0  0
    5.3213   -1.3632   -9.1404 C   0  0  0  0  0  0  0  0  0  0  0  0
    5.5050   -1.4721   -7.7744 C   0  0  0  0  0  0  0  0  0  0  0  0
    6.4227   -0.6331   -7.0894 C   0  0  0  0  0  0  0  0  0  0  0  0
    7.8331    0.1195   -3.7516 O   0  0  0  0  0  0  0  0  0  0  0  0
    7.2378   -0.7603   -2.8583 C   0  0  0  0  0  0  0  0  0  0  0  0
    7.6133   -0.7358   -1.7151 O   0  0  0  0  0  0  0  0  0  0  0  0
    5.2639   -3.8255   -3.0288 N   0  0  0  0  0  0  0  0  0  0  0  0
    4.6491   -4.4906   -2.0387 N   0  0  0  0  0  0  0  0  0  0  0  0
    4.2011   -5.8241   -2.2803 C   0  0  0  0  0  0  0  0  0  0  0  0
    2.9351   -6.2416   -1.8573 C   0  0  0  0  0  0  0  0  0  0  0  0
    2.5239   -7.5483   -2.1245 C   0  0  0  0  0  0  0  0  0  0  0  0
    3.3510   -8.4314   -2.8219 C   0  0  0  0  0  0  0  0  0  0  0  0
    4.6051   -7.9871   -3.2527 C   0  0  0  0  0  0  0  0  0  0  0  0
    5.6494   -9.0757   -4.1344 Cl  0  0  0  0  0  0  0  0  0  0  0  0
    5.0437   -6.6896   -2.9864 C   0  0  0  0  0  0  0  0  0  0  0  0
    4.5077   -3.7181   -0.9164 C   0  0  0  0  0  0  0  0  0  0  0  0
    3.9940   -4.2468    0.3820 C   0  0  0  0  0  0  0  0  0  0  0  0
    4.2847   -5.3333    0.8211 O   0  0  0  0  0  0  0  0  0  0  0  0
    3.1834   -3.3658    0.9717 O   0  0  0  0  0  0  0  0  0  0  0  0
    2.7593   -3.6458    2.3244 C   0  0  0  0  0  0  0  0  0  0  0  0
    3.8210   -3.2496    3.3362 C   0  0  0  0  0  0  0  0  0  0  0  0
    3.9614    2.4776    0.9477 H   0  0  0  0  0  0  0  0  0  0  0  0
    3.5273    0.7732    1.2414 H   0  0  0  0  0  0  0  0  0  0  0  0
    2.9852    1.5907   -0.2547 H   0  0  0  0  0  0  0  0  0  0  0  0
    5.9144    0.9333    0.4887 H   0  0  0  0  0  0  0  0  0  0  0  0
    5.4023    1.8005   -0.9894 H   0  0  0  0  0  0  0  0  0  0  0  0
    5.2262   -2.3086   -5.1740 H   0  0  0  0  0  0  0  0  0  0  0  0
    9.0103    1.7535   -5.3166 H   0  0  0  0  0  0  0  0  0  0  0  0
    8.6420    1.9206   -7.7854 H   0  0  0  0  0  0  0  0  0  0  0  0
    7.5138    1.1618   -9.8247 H   0  0  0  0  0  0  0  0  0  0  0  0
    5.8924   -0.3334  -10.9701 H   0  0  0  0  0  0  0  0  0  0  0  0
    4.6094   -2.0220   -9.6439 H   0  0  0  0  0  0  0  0  0  0  0  0
    4.9332   -2.2187   -7.2217 H   0  0  0  0  0  0  0  0  0  0  0  0
    2.2697   -5.5493   -1.3404 H   0  0  0  0  0  0  0  0  0  0  0  0
    1.5373   -7.8813   -1.7941 H   0  0  0  0  0  0  0  0  0  0  0  0
    3.0319   -9.4519   -3.0380 H   0  0  0  0  0  0  0  0  0  0  0  0
    6.0210   -6.3459   -3.3222 H   0  0  0  0  0  0  0  0  0  0  0  0
    2.5080   -4.7141    2.4023 H   0  0  0  0  0  0  0  0  0  0  0  0
    1.8431   -3.0511    2.4467 H   0  0  0  0  0  0  0  0  0  0  0  0
    4.7107   -3.8887    3.2412 H   0  0  0  0  0  0  0  0  0  0  0  0
    3.4198   -3.3664    4.3558 H   0  0  0  0  0  0  0  0  0  0  0  0
    4.1306   -2.2053    3.1879 H   0  0  0  0  0  0  0  0  0  0  0  0
  1  2  1  0
  1 38  1  0
  1 39  1  0
  1 40  1  0
  2  3  1  0
  2 41  1  0
  2 42  1  0
  3  4  1  0
  4  5  2  0
  4  6  1  0
  6  7  1  0
  6 32  2  0
  7  8  1  0
  7 23  2  0
  8  9  2  0
  8 21  1  0
  9 10  1  0
  9 43  1  0
 10 11  2  0
 10 19  1  0
 11 12  1  0
 11 20  1  0
 12 13  2  0
 12 44  1  0
 13 14  1  0
 13 45  1  0
 14 15  1  0
 14 19  2  0
 15 16  2  0
 15 46  1  0
 16 17  1  0
 16 47  1  0
 17 18  2  0
 17 48  1  0
 18 19  1  0
 18 49  1  0
 20 21  1  0
 21 22  2  0
 23 24  1  0
 24 25  1  0
 24 32  1  0
 25 26  2  0
 25 31  1  0
 26 27  1  0
 26 50  1  0
 27 28  2  0
 27 51  1  0
 28 29  1  0
 28 52  1  0
 29 30  1  0
 29 31  2  0
 31 53  1  0
 32 33  1  0
 33 34  2  0
 33 35  1  0
 35 36  1  0
 36 37  1  0
 36 54  1  0
 36 55  1  0
 37 56  1  0
 37 57  1  0
 37 58  1  0
M  END

