
     RDKit          3D

 52 52  0  0  0  0  0  0  0  0999 V2000
   11.1026   -2.1131   -2.2850 C   0  0  0  0  0  0  0  0  0  0  0  0
    9.9426   -2.7119   -1.4973 C   0  0  0  0  0  0  0  0  0  0  0  0
    9.4730   -1.8000   -0.4663 N   0  0  0  0  0  0  0  0  0  0  0  0
    8.3667   -2.2942    0.3327 C   0  0  0  0  0  0  0  0  0  0  0  0
    7.9831   -1.2893    1.4187 C   0  0  0  0  0  0  0  0  0  0  0  0
    6.8627   -1.7462    2.3778 C   0  0  0  0  0  0  0  0  0  0  0  0
    7.2094   -2.9122    3.2818 C   0  0  0  0  0  0  0  0  0  0  0  0
    7.9823   -2.7355    4.4532 C   0  0  0  0  0  0  0  0  0  0  0  0
    8.4694   -1.3799    4.9025 C   0  0  0  0  0  0  0  0  0  0  0  0
    8.3046   -3.7665    5.2398 N   0  0  0  0  0  0  0  0  0  0  0  0
    7.8641   -4.9795    4.9042 C   0  0  0  0  0  0  0  0  0  0  0  0
    8.2072   -6.1348    5.8642 C   0  0  1  0  0  0  0  0  0  0  0  0
    7.8952   -7.4918    5.2252 C   0  0  0  0  0  0  0  0  0  0  0  0
    9.6766   -6.0309    6.3333 C   0  0  0  0  0  0  0  0  0  0  0  0
   10.7349   -6.1953    5.2408 C   0  0  0  0  0  0  0  0  0  0  0  0
    7.3358   -5.8606    6.9781 O   0  0  0  0  0  0  0  0  0  0  0  0
    7.1537   -6.8438    7.9746 C   0  0  0  0  0  0  0  0  0  0  0  0
    6.3639   -6.2129    9.1096 C   0  0  0  0  0  0  0  0  0  0  0  0
    7.1134   -5.2438    3.8383 N   0  0  0  0  0  0  0  0  0  0  0  0
    6.7764   -4.2302    3.0282 C   0  0  0  0  0  0  0  0  0  0  0  0
    5.8910   -4.5906    1.8591 C   0  0  0  0  0  0  0  0  0  0  0  0
   11.4809   -2.8244   -3.0357 H   0  0  0  0  0  0  0  0  0  0  0  0
   11.9291   -1.8406   -1.6104 H   0  0  0  0  0  0  0  0  0  0  0  0
   10.7912   -1.2005   -2.8220 H   0  0  0  0  0  0  0  0  0  0  0  0
   10.2748   -3.6423   -1.0021 H   0  0  0  0  0  0  0  0  0  0  0  0
    9.1344   -3.0195   -2.2022 H   0  0  0  0  0  0  0  0  0  0  0  0
    9.2223   -0.9050   -0.8885 H   0  0  0  0  0  0  0  0  0  0  0  0
    8.6842   -3.2427    0.8019 H   0  0  0  0  0  0  0  0  0  0  0  0
    7.4659   -2.5425   -0.2786 H   0  0  0  0  0  0  0  0  0  0  0  0
    7.6552   -0.3505    0.9356 H   0  0  0  0  0  0  0  0  0  0  0  0
    8.8963   -1.0381    1.9815 H   0  0  0  0  0  0  0  0  0  0  0  0
    5.9652   -1.9867    1.7874 H   0  0  0  0  0  0  0  0  0  0  0  0
    6.5831   -0.8830    3.0034 H   0  0  0  0  0  0  0  0  0  0  0  0
    7.6292   -0.6808    5.0491 H   0  0  0  0  0  0  0  0  0  0  0  0
    9.1451   -0.9195    4.1649 H   0  0  0  0  0  0  0  0  0  0  0  0
    9.0059   -1.4912    5.8529 H   0  0  0  0  0  0  0  0  0  0  0  0
    8.4140   -7.5981    4.2630 H   0  0  0  0  0  0  0  0  0  0  0  0
    6.8195   -7.5825    5.0249 H   0  0  0  0  0  0  0  0  0  0  0  0
    8.2149   -8.3164    5.8805 H   0  0  0  0  0  0  0  0  0  0  0  0
    9.8414   -6.7924    7.1138 H   0  0  0  0  0  0  0  0  0  0  0  0
    9.7829   -5.0466    6.8114 H   0  0  0  0  0  0  0  0  0  0  0  0
   10.7073   -7.1943    4.7771 H   0  0  0  0  0  0  0  0  0  0  0  0
   11.7449   -6.0579    5.6591 H   0  0  0  0  0  0  0  0  0  0  0  0
   10.6109   -5.4491    4.4393 H   0  0  0  0  0  0  0  0  0  0  0  0
    8.1233   -7.2205    8.3563 H   0  0  0  0  0  0  0  0  0  0  0  0
    6.6040   -7.7199    7.5776 H   0  0  0  0  0  0  0  0  0  0  0  0
    6.9160   -5.3632    9.5399 H   0  0  0  0  0  0  0  0  0  0  0  0
    6.1722   -6.9492    9.9064 H   0  0  0  0  0  0  0  0  0  0  0  0
    5.3969   -5.8371    8.7403 H   0  0  0  0  0  0  0  0  0  0  0  0
    5.7035   -5.6714    1.8778 H   0  0  0  0  0  0  0  0  0  0  0  0
    6.3488   -4.3254    0.8939 H   0  0  0  0  0  0  0  0  0  0  0  0
    4.9225   -4.0659    1.9128 H   0  0  0  0  0  0  0  0  0  0  0  0
  1  2  1  0
  1 22  1  0
  1 23  1  0
  1 24  1  0
  2  3  1  0
  2 25  1  0
  2 26  1  0
  3  4  1  0
  3 27  1  0
  4  5  1  0
  4 28  1  0
  4 29  1  0
  5  6  1  0
  5 30  1  0
  5 31  1  0
  6  7  1  0
  6 32  1  0
  6 33  1  0
  7  8  2  0
  7 20  1  0
  8  9  1  0
  8 10  1  0
  9 34  1  0
  9 35  1  0
  9 36  1  0
 10 11  2  0
 11 12  1  0
 11 19  1  0
 12 13  1  0
 12 14  1  0
 12 16  1  1
 13 37  1  0
 13 38  1  0
 13 39  1  0
 14 15  1  0
 14 40  1  0
 14 41  1  0
 15 42  1  0
 15 43  1  0
 15 44  1  0
 16 17  1  0
 17 18  1  0
 17 45  1  0
 17 46  1  0
 18 47  1  0
 18 48  1  0
 18 49  1  0
 19 20  2  0
 20 21  1  0
 21 50  1  0
 21 51  1  0
 21 52  1  0
M  END

