
     RDKit          3D

 41 41  0  0  0  0  0  0  0  0999 V2000
    4.0350   -1.5755    0.9159 C   0  0  0  0  0  0  0  0  0  0  0  0
    4.0005   -0.0892    0.5469 C   0  0  1  0  0  0  0  0  0  0  0  0
    3.2918    0.7232    1.6493 C   0  0  0  0  0  0  0  0  0  0  0  0
    3.1176    2.1525    1.3519 N   0  0  0  0  0  0  0  0  0  0  0  0
    2.3661    2.4690    0.1196 C   0  0  0  0  0  0  0  0  0  0  0  0
    0.8733    2.0898    0.0840 C   0  0  0  0  0  0  0  0  0  0  0  0
   -0.0378    2.6925    1.1605 C   0  0  0  0  0  0  0  0  0  0  0  0
   -0.1200    4.2097    1.1948 C   0  0  0  0  0  0  0  0  0  0  0  0
    0.5102    4.9535    0.4791 O   0  0  0  0  0  0  0  0  0  0  0  0
   -0.9388    4.7266    2.1244 O   0  0  0  0  0  0  0  0  0  0  0  0
    2.9431    3.0390    2.4577 C   0  0  0  0  0  0  0  0  0  0  0  0
    2.8293    2.5917    3.7887 C   0  0  0  0  0  0  0  0  0  0  0  0
    2.6712    3.5060    4.8388 C   0  0  0  0  0  0  0  0  0  0  0  0
    2.5800    4.8737    4.5955 C   0  0  0  0  0  0  0  0  0  0  0  0
    2.6543    5.3316    3.2715 C   0  0  0  0  0  0  0  0  0  0  0  0
    2.5033    6.8080    2.9995 C   0  0  0  0  0  0  0  0  0  0  0  0
    2.8383    7.6469    3.7957 O   0  0  0  0  0  0  0  0  0  0  0  0
    1.9683    7.1479    1.8133 O   0  0  0  0  0  0  0  0  0  0  0  0
    2.8805    4.4284    2.2314 C   0  0  0  0  0  0  0  0  0  0  0  0
    5.4226    0.4146    0.2113 C   0  0  0  0  0  0  0  0  0  0  0  0
    6.2874   -0.3194   -0.1892 O   0  0  0  0  0  0  0  0  0  0  0  0
    5.6302    1.7305    0.3532 O   0  0  0  0  0  0  0  0  0  0  0  0
    3.0165   -1.9840    1.0081 H   0  0  0  0  0  0  0  0  0  0  0  0
    4.5584   -1.7345    1.8726 H   0  0  0  0  0  0  0  0  0  0  0  0
    4.5778   -2.1409    0.1479 H   0  0  0  0  0  0  0  0  0  0  0  0
    3.4338    0.0035   -0.3974 H   0  0  0  0  0  0  0  0  0  0  0  0
    3.9080    0.6470    2.5564 H   0  0  0  0  0  0  0  0  0  0  0  0
    2.3265    0.2335    1.8875 H   0  0  0  0  0  0  0  0  0  0  0  0
    2.8628    1.9636   -0.7207 H   0  0  0  0  0  0  0  0  0  0  0  0
    2.4646    3.5381   -0.0880 H   0  0  0  0  0  0  0  0  0  0  0  0
    0.7618    0.9938    0.1313 H   0  0  0  0  0  0  0  0  0  0  0  0
    0.4978    2.3882   -0.9088 H   0  0  0  0  0  0  0  0  0  0  0  0
    0.2776    2.3722    2.1693 H   0  0  0  0  0  0  0  0  0  0  0  0
   -1.0639    2.3030    1.0303 H   0  0  0  0  0  0  0  0  0  0  0  0
   -1.3616    4.0319    2.6505 H   0  0  0  0  0  0  0  0  0  0  0  0
    2.8557    1.5294    4.0279 H   0  0  0  0  0  0  0  0  0  0  0  0
    2.6019    3.1280    5.8621 H   0  0  0  0  0  0  0  0  0  0  0  0
    2.4423    5.5952    5.4023 H   0  0  0  0  0  0  0  0  0  0  0  0
    1.5168    6.4070    1.3620 H   0  0  0  0  0  0  0  0  0  0  0  0
    2.9989    4.8193    1.2233 H   0  0  0  0  0  0  0  0  0  0  0  0
    4.8233    2.1570    0.7303 H   0  0  0  0  0  0  0  0  0  0  0  0
  1  2  1  0
  1 23  1  0
  1 24  1  0
  1 25  1  0
  2  3  1  0
  2 20  1  0
  2 26  1  6
  3  4  1  0
  3 27  1  0
  3 28  1  0
  4  5  1  0
  4 11  1  0
  5  6  1  0
  5 29  1  0
  5 30  1  0
  6  7  1  0
  6 31  1  0
  6 32  1  0
  7  8  1  0
  7 33  1  0
  7 34  1  0
  8  9  2  0
  8 10  1  0
 10 35  1  0
 11 12  2  0
 11 19  1  0
 12 13  1  0
 12 36  1  0
 13 14  2  0
 13 37  1  0
 14 15  1  0
 14 38  1  0
 15 16  1  0
 15 19  2  0
 16 17  2  0
 16 18  1  0
 18 39  1  0
 19 40  1  0
 20 21  2  0
 20 22  1  0
 22 41  1  0
M  END

