
     RDKit          3D

 39 40  0  0  0  0  0  0  0  0999 V2000
    3.3815    0.8368   -0.0690 N   0  0  0  0  0  0  0  0  0  0  0  0
    2.5943    1.7423    0.5752 C   0  0  0  0  0  0  0  0  0  0  0  0
    1.4855    2.0603    0.1846 O   0  0  0  0  0  0  0  0  0  0  0  0
    3.1901    2.3219    1.8636 C   0  0  0  0  0  0  0  0  0  0  0  0
    4.6596    2.7241    1.8184 C   0  0  0  0  0  0  0  0  0  0  0  0
    5.4616    1.5541    1.7430 O   0  0  0  0  0  0  0  0  0  0  0  0
    6.8290    1.6751    1.7522 C   0  0  0  0  0  0  0  0  0  0  0  0
    7.5221    2.8881    1.7497 C   0  0  0  0  0  0  0  0  0  0  0  0
    8.9245    2.9052    1.7602 C   0  0  0  0  0  0  0  0  0  0  0  0
    9.6693    1.7129    1.7569 C   0  0  0  0  0  0  0  0  0  0  0  0
   11.0593    1.6885    1.7196 N   0  0  0  0  0  0  0  0  0  0  0  0
   11.8642    2.8709    1.9448 C   0  0  0  0  0  0  0  0  0  0  0  0
   13.3434    2.5782    1.7919 C   0  0  0  0  0  0  0  0  0  0  0  0
   13.8147    1.8314    0.6974 C   0  0  0  0  0  0  0  0  0  0  0  0
   15.1826    1.5966    0.5539 C   0  0  0  0  0  0  0  0  0  0  0  0
   16.0966    2.0980    1.4855 C   0  0  0  0  0  0  0  0  0  0  0  0
   15.6318    2.8427    2.5774 C   0  0  0  0  0  0  0  0  0  0  0  0
   16.4603    3.3560    3.5231 O   0  0  0  0  0  0  0  0  0  0  0  0
   14.2560    3.0753    2.7268 C   0  0  0  0  0  0  0  0  0  0  0  0
    8.9493    0.4950    1.7652 C   0  0  0  0  0  0  0  0  0  0  0  0
    7.5618    0.4763    1.7662 C   0  0  0  0  0  0  0  0  0  0  0  0
    3.0333    0.4220   -0.9251 H   0  0  0  0  0  0  0  0  0  0  0  0
    4.3050    0.6078    0.2820 H   0  0  0  0  0  0  0  0  0  0  0  0
    3.0502    1.5865    2.6751 H   0  0  0  0  0  0  0  0  0  0  0  0
    2.5790    3.2010    2.1113 H   0  0  0  0  0  0  0  0  0  0  0  0
    4.9174    3.2917    2.7313 H   0  0  0  0  0  0  0  0  0  0  0  0
    4.8585    3.3811    0.9504 H   0  0  0  0  0  0  0  0  0  0  0  0
    6.9910    3.8402    1.7458 H   0  0  0  0  0  0  0  0  0  0  0  0
    9.4292    3.8717    1.7698 H   0  0  0  0  0  0  0  0  0  0  0  0
   11.4790    0.8280    2.0540 H   0  0  0  0  0  0  0  0  0  0  0  0
   11.6789    3.3274    2.9394 H   0  0  0  0  0  0  0  0  0  0  0  0
   11.5770    3.6372    1.2007 H   0  0  0  0  0  0  0  0  0  0  0  0
   13.1050    1.4391   -0.0337 H   0  0  0  0  0  0  0  0  0  0  0  0
   15.5498    1.0173   -0.2974 H   0  0  0  0  0  0  0  0  0  0  0  0
   17.1686    1.9105    1.3676 H   0  0  0  0  0  0  0  0  0  0  0  0
   17.3744    3.1253    3.3115 H   0  0  0  0  0  0  0  0  0  0  0  0
   13.9193    3.6513    3.5920 H   0  0  0  0  0  0  0  0  0  0  0  0
    9.4991   -0.4508    1.7671 H   0  0  0  0  0  0  0  0  0  0  0  0
    7.0188   -0.4715    1.7813 H   0  0  0  0  0  0  0  0  0  0  0  0
  1  2  1  0
  1 22  1  0
  1 23  1  0
  2  3  2  0
  2  4  1  0
  4  5  1  0
  4 24  1  0
  4 25  1  0
  5  6  1  0
  5 26  1  0
  5 27  1  0
  6  7  1  0
  7  8  2  0
  7 21  1  0
  8  9  1  0
  8 28  1  0
  9 10  2  0
  9 29  1  0
 10 11  1  0
 10 20  1  0
 11 12  1  0
 11 30  1  0
 12 13  1  0
 12 31  1  0
 12 32  1  0
 13 14  2  0
 13 19  1  0
 14 15  1  0
 14 33  1  0
 15 16  2  0
 15 34  1  0
 16 17  1  0
 16 35  1  0
 17 18  1  0
 17 19  2  0
 18 36  1  0
 19 37  1  0
 20 21  2  0
 20 38  1  0
 21 39  1  0
M  END

