
     RDKit          3D

 59 61  0  0  0  0  0  0  0  0999 V2000
    0.7660    1.7773    1.0074 C   0  0  0  0  0  0  0  0  0  0  0  0
    1.9473    1.1216    0.2941 C   0  0  0  0  0  0  0  0  0  0  0  0
    2.9901    0.5426    1.2632 C   0  0  1  0  0  0  0  0  0  0  0  0
    3.2663    1.3293    1.9845 H   0  0  0  0  0  0  0  0  0  0  0  0
    2.4382   -0.4886    2.0895 O   0  0  0  0  0  0  0  0  0  0  0  0
    2.1140   -1.6938    1.5195 C   0  0  0  0  0  0  0  0  0  0  0  0
    0.7889   -2.1006    1.3599 C   0  0  0  0  0  0  0  0  0  0  0  0
    0.4896   -3.3663    0.8491 C   0  0  0  0  0  0  0  0  0  0  0  0
    1.5310   -4.2420    0.4927 C   0  0  0  0  0  0  0  0  0  0  0  0
    1.3150   -5.5320   -0.0312 N   0  0  0  0  0  0  0  0  0  0  0  0
    0.1245   -6.1771   -0.2975 C   0  0  0  0  0  0  0  0  0  0  0  0
   -0.9696   -5.6773   -0.0959 O   0  0  0  0  0  0  0  0  0  0  0  0
    0.2854   -7.5765   -0.8815 C   0  0  0  0  0  0  0  0  0  0  0  0
   -0.1416   -7.7195   -2.3738 C   0  0  1  0  0  0  0  0  0  0  0  0
    0.6164   -6.6999   -3.2444 C   0  0  0  0  0  0  0  0  0  0  0  0
    0.2221   -9.1462   -2.8264 C   0  0  0  0  0  0  0  0  0  0  0  0
   -1.6592   -7.5098   -2.5281 C   0  0  0  0  0  0  0  0  0  0  0  0
    2.8649   -3.8266    0.6712 C   0  0  0  0  0  0  0  0  0  0  0  0
    3.1613   -2.5649    1.1849 C   0  0  0  0  0  0  0  0  0  0  0  0
    4.5576   -2.0688    1.4543 C   0  0  0  0  0  0  0  0  0  0  0  0
    4.9575   -0.9494    0.5877 N   0  0  0  0  0  0  0  0  0  0  0  0
    6.1877   -1.1090   -0.1965 C   0  0  0  0  0  0  0  0  0  0  0  0
    7.4604   -0.9127    0.6076 C   0  0  0  0  0  0  0  0  0  0  0  0
    8.3104   -1.9944    0.8739 C   0  0  0  0  0  0  0  0  0  0  0  0
    9.4695   -1.7853    1.6216 C   0  0  0  0  0  0  0  0  0  0  0  0
   10.2766   -2.8252    1.8706 F   0  0  0  0  0  0  0  0  0  0  0  0
    9.8149   -0.5335    2.1192 C   0  0  0  0  0  0  0  0  0  0  0  0
    8.9514    0.5261    1.8372 C   0  0  0  0  0  0  0  0  0  0  0  0
    9.2669    1.7424    2.2984 F   0  0  0  0  0  0  0  0  0  0  0  0
    7.7872    0.3648    1.0930 C   0  0  0  0  0  0  0  0  0  0  0  0
    4.3145    0.2572    0.5102 C   0  0  0  0  0  0  0  0  0  0  0  0
    4.7695    1.1841   -0.1506 O   0  0  0  0  0  0  0  0  0  0  0  0
    0.0253    2.1471    0.2814 H   0  0  0  0  0  0  0  0  0  0  0  0
    1.0965    2.6366    1.6145 H   0  0  0  0  0  0  0  0  0  0  0  0
    0.2564    1.0747    1.6839 H   0  0  0  0  0  0  0  0  0  0  0  0
    2.4674    1.8517   -0.3419 H   0  0  0  0  0  0  0  0  0  0  0  0
    1.5970    0.3139   -0.3722 H   0  0  0  0  0  0  0  0  0  0  0  0
   -0.0168   -1.4224    1.6470 H   0  0  0  0  0  0  0  0  0  0  0  0
   -0.5407   -3.6889    0.7215 H   0  0  0  0  0  0  0  0  0  0  0  0
    2.1565   -6.0548   -0.2394 H   0  0  0  0  0  0  0  0  0  0  0  0
   -0.3387   -8.2466   -0.2682 H   0  0  0  0  0  0  0  0  0  0  0  0
    1.3281   -7.9216   -0.7759 H   0  0  0  0  0  0  0  0  0  0  0  0
    1.7092   -6.8081   -3.1367 H   0  0  0  0  0  0  0  0  0  0  0  0
    0.3491   -5.6633   -2.9845 H   0  0  0  0  0  0  0  0  0  0  0  0
    0.3747   -6.8451   -4.3097 H   0  0  0  0  0  0  0  0  0  0  0  0
    1.3087   -9.3257   -2.7669 H   0  0  0  0  0  0  0  0  0  0  0  0
   -0.0884   -9.3151   -3.8702 H   0  0  0  0  0  0  0  0  0  0  0  0
   -0.2793   -9.9035   -2.2018 H   0  0  0  0  0  0  0  0  0  0  0  0
   -1.9683   -6.5183   -2.1702 H   0  0  0  0  0  0  0  0  0  0  0  0
   -2.2214   -8.2604   -1.9486 H   0  0  0  0  0  0  0  0  0  0  0  0
   -1.9530   -7.6123   -3.5857 H   0  0  0  0  0  0  0  0  0  0  0  0
    3.6830   -4.5084    0.4163 H   0  0  0  0  0  0  0  0  0  0  0  0
    5.2848   -2.8753    1.2955 H   0  0  0  0  0  0  0  0  0  0  0  0
    4.6364   -1.7713    2.5135 H   0  0  0  0  0  0  0  0  0  0  0  0
    6.1454   -0.3676   -1.0047 H   0  0  0  0  0  0  0  0  0  0  0  0
    6.1817   -2.1142   -0.6457 H   0  0  0  0  0  0  0  0  0  0  0  0
    8.0942   -2.9987    0.5038 H   0  0  0  0  0  0  0  0  0  0  0  0
   10.7242   -0.3843    2.7018 H   0  0  0  0  0  0  0  0  0  0  0  0
    7.1470    1.2234    0.8839 H   0  0  0  0  0  0  0  0  0  0  0  0
  1  2  1  0
  1 33  1  0
  1 34  1  0
  1 35  1  0
  2  3  1  0
  2 36  1  0
  2 37  1  0
  3  4  1  1
  3  5  1  0
  3 31  1  0
  5  6  1  0
  6  7  2  0
  6 19  1  0
  7  8  1  0
  7 38  1  0
  8  9  2  0
  8 39  1  0
  9 10  1  0
  9 18  1  0
 10 11  1  0
 10 40  1  0
 11 12  2  0
 11 13  1  0
 14 13  1  1
 13 41  1  0
 13 42  1  0
 14 15  1  0
 14 16  1  0
 14 17  1  0
 15 43  1  0
 15 44  1  0
 15 45  1  0
 16 46  1  0
 16 47  1  0
 16 48  1  0
 17 49  1  0
 17 50  1  0
 17 51  1  0
 18 19  2  0
 18 52  1  0
 19 20  1  0
 20 21  1  0
 20 53  1  0
 20 54  1  0
 21 22  1  0
 21 31  1  0
 22 23  1  0
 22 55  1  0
 22 56  1  0
 23 24  2  0
 23 30  1  0
 24 25  1  0
 24 57  1  0
 25 26  1  0
 25 27  2  0
 27 28  1  0
 27 58  1  0
 28 29  1  0
 28 30  2  0
 30 59  1  0
 31 32  2  0
M  END

