
     RDKit          3D

 53 56  0  0  0  0  0  0  0  0999 V2000
    0.9671    0.1942    0.3381 C   0  0  0  0  0  0  0  0  0  0  0  0
    2.4395   -0.0473    0.2886 C   0  0  0  0  0  0  0  0  0  0  0  0
    3.3477    0.9549    0.3997 N   0  0  0  0  0  0  0  0  0  0  0  0
    3.1172    1.9365    0.5178 H   0  0  0  0  0  0  0  0  0  0  0  0
    4.6384    0.6103    0.3315 N   0  0  0  0  0  0  0  0  0  0  0  0
    4.5899   -0.7220    0.1629 C   0  0  0  0  0  0  0  0  0  0  0  0
    5.6780   -1.5069    0.0270 N   0  0  0  0  0  0  0  0  0  0  0  0
    5.4744   -2.7994   -0.1499 C   0  0  0  0  0  0  0  0  0  0  0  0
    6.6818   -3.6589   -0.3107 C   0  0  0  0  0  0  0  0  0  0  0  0
    7.9604   -3.0803   -0.2278 C   0  0  0  0  0  0  0  0  0  0  0  0
    9.1118   -3.8523   -0.3693 C   0  0  0  0  0  0  0  0  0  0  0  0
    9.0343   -5.2325   -0.6002 C   0  0  0  0  0  0  0  0  0  0  0  0
   10.1084   -6.0421   -0.7463 O   0  0  0  0  0  0  0  0  0  0  0  0
    7.7550   -5.8069   -0.6843 C   0  0  0  0  0  0  0  0  0  0  0  0
    7.6541   -7.1260   -0.9066 F   0  0  0  0  0  0  0  0  0  0  0  0
    6.6050   -5.0457   -0.5449 C   0  0  0  0  0  0  0  0  0  0  0  0
    4.1537   -3.3751   -0.1798 C   0  0  0  0  0  0  0  0  0  0  0  0
    3.0211   -2.5991   -0.0333 C   0  0  0  0  0  0  0  0  0  0  0  0
    1.6237   -3.1561   -0.1741 C   0  0  0  0  0  0  0  0  0  0  0  0
    0.8669   -2.6534   -0.9963 O   0  0  0  0  0  0  0  0  0  0  0  0
    1.2496   -4.2241    0.6077 N   0  0  0  0  0  0  0  0  0  0  0  0
   -0.1295   -4.7030    0.4929 C   0  0  0  0  0  0  0  0  0  0  0  0
   -0.1822   -6.2141    0.6868 C   0  0  0  0  0  0  0  0  0  0  0  0
    0.4608   -6.5806    1.9423 N   0  0  0  0  0  0  0  0  0  0  0  0
    1.8303   -6.1150    2.1557 C   0  0  1  0  0  0  0  0  0  0  0  0
    2.0140   -6.1885    3.2436 H   0  0  0  0  0  0  0  0  0  0  0  0
    2.9842   -6.9497    1.5158 C   0  0  2  0  0  0  0  0  0  0  0  0
    2.9248   -7.1475   -0.0064 C   0  0  0  0  0  0  0  0  0  0  0  0
    3.1054   -8.3121    2.2148 C   0  0  0  0  0  0  0  0  0  0  0  0
    1.8778   -4.6001    1.8759 C   0  0  0  0  0  0  0  0  0  0  0  0
    3.2277   -1.2007    0.1314 C   0  0  0  0  0  0  0  0  0  0  0  0
    0.7407    1.2699    0.2709 H   0  0  0  0  0  0  0  0  0  0  0  0
    0.5254   -0.1825    1.2764 H   0  0  0  0  0  0  0  0  0  0  0  0
    0.4690   -0.3333   -0.4876 H   0  0  0  0  0  0  0  0  0  0  0  0
    8.0278   -2.0069   -0.0495 H   0  0  0  0  0  0  0  0  0  0  0  0
   10.0980   -3.3816   -0.3006 H   0  0  0  0  0  0  0  0  0  0  0  0
   10.9158   -5.5159   -0.6759 H   0  0  0  0  0  0  0  0  0  0  0  0
    5.6561   -5.5744   -0.6325 H   0  0  0  0  0  0  0  0  0  0  0  0
    4.0425   -4.4457   -0.3344 H   0  0  0  0  0  0  0  0  0  0  0  0
   -0.5164   -4.4073   -0.4890 H   0  0  0  0  0  0  0  0  0  0  0  0
   -0.7480   -4.2111    1.2687 H   0  0  0  0  0  0  0  0  0  0  0  0
    0.2488   -6.6995   -0.2114 H   0  0  0  0  0  0  0  0  0  0  0  0
   -1.2405   -6.5203    0.7365 H   0  0  0  0  0  0  0  0  0  0  0  0
    0.3583   -7.5697    2.1511 H   0  0  0  0  0  0  0  0  0  0  0  0
    3.9095   -6.3878    1.7452 H   0  0  0  0  0  0  0  0  0  0  0  0
    2.1080   -7.8300   -0.2906 H   0  0  0  0  0  0  0  0  0  0  0  0
    3.8615   -7.6032   -0.3674 H   0  0  0  0  0  0  0  0  0  0  0  0
    2.7697   -6.2062   -0.5522 H   0  0  0  0  0  0  0  0  0  0  0  0
    2.2050   -8.9293    2.0485 H   0  0  0  0  0  0  0  0  0  0  0  0
    3.2420   -8.2029    3.3029 H   0  0  0  0  0  0  0  0  0  0  0  0
    3.9624   -8.8835    1.8247 H   0  0  0  0  0  0  0  0  0  0  0  0
    2.9114   -4.2401    1.9054 H   0  0  0  0  0  0  0  0  0  0  0  0
    1.3250   -4.0996    2.6941 H   0  0  0  0  0  0  0  0  0  0  0  0
  1  2  1  0
  1 32  1  0
  1 33  1  0
  1 34  1  0
  2  3  1  0
  2 31  2  0
  3  4  1  0
  3  5  1  0
  5  6  2  0
  6  7  1  0
  6 31  1  0
  7  8  2  0
  8  9  1  0
  8 17  1  0
  9 10  2  0
  9 16  1  0
 10 11  1  0
 10 35  1  0
 11 12  2  0
 11 36  1  0
 12 13  1  0
 12 14  1  0
 13 37  1  0
 14 15  1  0
 14 16  2  0
 16 38  1  0
 17 18  2  0
 17 39  1  0
 18 19  1  0
 18 31  1  0
 19 20  2  0
 19 21  1  0
 21 22  1  0
 21 30  1  0
 22 23  1  0
 22 40  1  0
 22 41  1  0
 23 24  1  0
 23 42  1  0
 23 43  1  0
 24 25  1  0
 24 44  1  0
 25 26  1  1
 25 27  1  0
 25 30  1  0
 27 28  1  0
 27 29  1  0
 27 45  1  6
 28 46  1  0
 28 47  1  0
 28 48  1  0
 29 49  1  0
 29 50  1  0
 29 51  1  0
 30 52  1  0
 30 53  1  0
M  END

