
     RDKit          3D

 48 52  0  0  0  0  0  0  0  0999 V2000
    1.1764   -0.3128   -1.8552 C   0  0  0  0  0  0  0  0  0  0  0  0
    2.5153   -0.1211   -1.2996 N   0  0  0  0  0  0  0  0  0  0  0  0
    3.0228    1.1015   -0.9627 C   0  0  0  0  0  0  0  0  0  0  0  0
    2.3958    2.3482   -0.8436 C   0  0  0  0  0  0  0  0  0  0  0  0
    1.0741    2.6709   -0.5239 C   0  0  0  0  0  0  0  0  0  0  0  0
   -0.1227    1.9884    0.0317 C   0  0  0  0  0  0  0  0  0  0  0  0
   -0.4714    0.8493    0.3034 O   0  0  0  0  0  0  0  0  0  0  0  0
   -0.7731    3.3011    0.1861 C   0  0  0  0  0  0  0  0  0  0  0  0
   -2.0410    3.4553    0.7619 C   0  0  0  0  0  0  0  0  0  0  0  0
   -2.7877    4.5874    1.0319 C   0  0  0  0  0  0  0  0  0  0  0  0
   -2.3785    5.8344    0.7518 O   0  0  0  0  0  0  0  0  0  0  0  0
   -3.3579    6.7144    1.1382 C   0  0  0  0  0  0  0  0  0  0  0  0
   -3.3513    8.0939    1.0254 C   0  0  0  0  0  0  0  0  0  0  0  0
   -4.4950    8.7492    1.5070 C   0  0  0  0  0  0  0  0  0  0  0  0
   -5.5684    8.0362    2.0634 C   0  0  0  0  0  0  0  0  0  0  0  0
   -5.5545    6.6370    2.1655 C   0  0  0  0  0  0  0  0  0  0  0  0
   -4.4189    5.9844    1.6875 C   0  0  0  0  0  0  0  0  0  0  0  0
   -4.0330    4.6427    1.6097 N   0  0  0  0  0  0  0  0  0  0  0  0
   -4.7886    3.4866    2.0452 C   0  0  0  0  0  0  0  0  0  0  0  0
    0.3929    3.9649   -0.3899 C   0  0  0  0  0  0  0  0  0  0  0  0
    0.8359    5.2505   -0.7281 C   0  0  0  0  0  0  0  0  0  0  0  0
    2.1338    5.4209   -1.3031 C   0  0  0  0  0  0  0  0  0  0  0  0
    3.1947    5.5632   -1.7642 N   0  0  0  0  0  0  0  0  0  0  0  0
    0.1156    6.4697   -0.5721 C   0  0  0  0  0  0  0  0  0  0  0  0
   -0.4015    7.5093   -0.4831 N   0  0  0  0  0  0  0  0  0  0  0  0
    4.7651    1.0004   -0.7000 S   0  0  0  0  0  0  0  0  0  0  0  0
    4.7519   -0.7298   -0.9880 C   0  0  0  0  0  0  0  0  0  0  0  0
    5.8214   -1.6255   -0.9523 C   0  0  0  0  0  0  0  0  0  0  0  0
    5.5657   -2.9777   -1.1969 C   0  0  0  0  0  0  0  0  0  0  0  0
    4.2631   -3.4182   -1.4706 C   0  0  0  0  0  0  0  0  0  0  0  0
    3.1910   -2.5235   -1.5117 C   0  0  0  0  0  0  0  0  0  0  0  0
    3.4427   -1.1659   -1.2737 C   0  0  0  0  0  0  0  0  0  0  0  0
    0.8422    0.6362   -2.2931 H   0  0  0  0  0  0  0  0  0  0  0  0
    0.4594   -0.5964   -1.0754 H   0  0  0  0  0  0  0  0  0  0  0  0
    1.2323   -1.0692   -2.6498 H   0  0  0  0  0  0  0  0  0  0  0  0
    3.0858    3.1921   -0.9180 H   0  0  0  0  0  0  0  0  0  0  0  0
   -2.4935    2.5017    1.0463 H   0  0  0  0  0  0  0  0  0  0  0  0
   -2.4954    8.6030    0.5800 H   0  0  0  0  0  0  0  0  0  0  0  0
   -4.5497    9.8383    1.4456 H   0  0  0  0  0  0  0  0  0  0  0  0
   -6.4416    8.5826    2.4273 H   0  0  0  0  0  0  0  0  0  0  0  0
   -6.3972    6.0958    2.5988 H   0  0  0  0  0  0  0  0  0  0  0  0
   -5.7379    3.8220    2.4800 H   0  0  0  0  0  0  0  0  0  0  0  0
   -4.2313    2.9205    2.8083 H   0  0  0  0  0  0  0  0  0  0  0  0
   -5.0048    2.8172    1.1973 H   0  0  0  0  0  0  0  0  0  0  0  0
    6.8332   -1.2768   -0.7356 H   0  0  0  0  0  0  0  0  0  0  0  0
    6.3886   -3.6952   -1.1689 H   0  0  0  0  0  0  0  0  0  0  0  0
    4.0775   -4.4796   -1.6501 H   0  0  0  0  0  0  0  0  0  0  0  0
    2.1799   -2.8805   -1.7095 H   0  0  0  0  0  0  0  0  0  0  0  0
  1  2  1  0
  1 33  1  0
  1 34  1  0
  1 35  1  0
  2  3  1  0
  2 32  1  0
  3  4  1  0
  3 26  2  0
  4  5  2  0
  4 36  1  0
  5  6  1  0
  5 20  1  0
  6  7  1  0
  6  8  2  0
  8  9  1  0
  8 20  1  0
  9 10  2  0
  9 37  1  0
 10 11  1  0
 10 18  1  0
 11 12  1  0
 12 13  1  0
 12 17  2  0
 13 14  2  0
 13 38  1  0
 14 15  1  0
 14 39  1  0
 15 16  2  0
 15 40  1  0
 16 17  1  0
 16 41  1  0
 17 18  1  0
 18 19  1  0
 19 42  1  0
 19 43  1  0
 19 44  1  0
 20 21  2  0
 21 22  1  0
 21 24  1  0
 22 23  3  0
 24 25  3  0
 26 27  1  0
 27 28  1  0
 27 32  2  0
 28 29  2  0
 28 45  1  0
 29 30  1  0
 29 46  1  0
 30 31  2  0
 30 47  1  0
 31 32  1  0
 31 48  1  0
M  CHG  2   7  -1  26   1
M  END

