
     RDKit          3D

 22 23  0  0  0  0  0  0  0  0999 V2000
    1.3526    0.4792   -0.8351 O   0  0  0  0  0  0  0  0  0  0  0  0
    2.4006    0.2607   -0.3053 C   0  0  0  0  0  0  0  0  0  0  0  0
    3.0056    0.8144    0.7971 N   0  0  0  0  0  0  0  0  0  0  0  0
    2.6139    1.5449    1.3782 H   0  0  0  0  0  0  0  0  0  0  0  0
    4.2257    0.2644    1.0741 N   0  0  0  0  0  0  0  0  0  0  0  0
    4.3800   -0.6157    0.1470 C   0  0  0  0  0  0  0  0  0  0  0  0
    5.5635   -1.4998   -0.0339 C   0  0  0  0  0  0  0  0  0  0  0  0
    5.1611   -2.8370    0.1800 O   0  0  0  0  0  0  0  0  0  0  0  0
    6.0719   -3.8323    0.0273 C   0  0  0  0  0  0  0  0  0  0  0  0
    7.4245   -3.6344   -0.2821 C   0  0  0  0  0  0  0  0  0  0  0  0
    8.2979   -4.7197   -0.4188 C   0  0  0  0  0  0  0  0  0  0  0  0
    7.8099   -6.0077   -0.2416 C   0  0  0  0  0  0  0  0  0  0  0  0
    8.6373   -7.0550   -0.3696 F   0  0  0  0  0  0  0  0  0  0  0  0
    6.4706   -6.2404    0.0693 C   0  0  0  0  0  0  0  0  0  0  0  0
    5.6067   -5.1552    0.2026 C   0  0  0  0  0  0  0  0  0  0  0  0
    3.9331   -5.4284    0.5900 Cl  0  0  0  0  0  0  0  0  0  0  0  0
    3.3437   -0.6875   -0.7240 O   0  0  0  0  0  0  0  0  0  0  0  0
    6.3308   -1.1808    0.6922 H   0  0  0  0  0  0  0  0  0  0  0  0
    5.9652   -1.3728   -1.0568 H   0  0  0  0  0  0  0  0  0  0  0  0
    7.8184   -2.6273   -0.4192 H   0  0  0  0  0  0  0  0  0  0  0  0
    9.3513   -4.5688   -0.6600 H   0  0  0  0  0  0  0  0  0  0  0  0
    6.1071   -7.2593    0.2047 H   0  0  0  0  0  0  0  0  0  0  0  0
  1  2  2  0
  2  3  1  0
  2 17  1  0
  3  4  1  0
  3  5  1  0
  5  6  2  0
  6  7  1  0
  6 17  1  0
  7  8  1  0
  7 18  1  0
  7 19  1  0
  8  9  1  0
  9 10  2  0
  9 15  1  0
 10 11  1  0
 10 20  1  0
 11 12  2  0
 11 21  1  0
 12 13  1  0
 12 14  1  0
 14 15  2  0
 14 22  1  0
 15 16  1  0
M  END

