
     RDKit          3D

 43 46  0  0  0  0  0  0  0  0999 V2000
    1.2958    0.6417   -1.9474 C   0  0  0  0  0  0  0  0  0  0  0  0
    2.6248    0.2033   -1.6671 O   0  0  0  0  0  0  0  0  0  0  0  0
    3.1410    0.5869   -0.4846 C   0  0  0  0  0  0  0  0  0  0  0  0
    2.5350    1.2634    0.3138 O   0  0  0  0  0  0  0  0  0  0  0  0
    4.5336    0.0842   -0.2779 C   0  0  0  0  0  0  0  0  0  0  0  0
    5.1827    0.4141    0.9212 C   0  0  0  0  0  0  0  0  0  0  0  0
    6.4827   -0.0237    1.1626 C   0  0  0  0  0  0  0  0  0  0  0  0
    7.1613   -0.8114    0.2127 C   0  0  0  0  0  0  0  0  0  0  0  0
    8.5472   -1.2832    0.4703 C   0  0  0  0  0  0  0  0  0  0  0  0
    8.8405   -2.6591    0.4360 C   0  0  0  0  0  0  0  0  0  0  0  0
    7.9934   -3.7844    0.2341 C   0  0  0  0  0  0  0  0  0  0  0  0
    8.7931   -4.9157    0.3276 C   0  0  0  0  0  0  0  0  0  0  0  0
   10.1158   -4.4787    0.5964 C   0  0  0  0  0  0  0  0  0  0  0  0
   11.3379   -5.3108    0.7966 C   0  0  0  0  0  0  0  0  0  0  0  0
   10.1318   -3.1311    0.6608 N   0  0  0  0  0  0  0  0  0  0  0  0
   11.3774   -2.2460    0.9958 B   0  0  1  0  0  0  0  0  0  0  0  0
   11.8791   -2.5879    2.2470 F   0  0  0  0  0  0  0  0  0  0  0  0
   12.3536   -2.4071    0.0182 F   0  0  0  0  0  0  0  0  0  0  0  0
   10.8725   -0.7657    1.0062 N   0  0  0  0  0  0  0  0  0  0  0  0
   11.6368    0.3274    1.2101 C   0  0  0  0  0  0  0  0  0  0  0  0
   13.0961    0.2473    1.5098 C   0  0  0  0  0  0  0  0  0  0  0  0
   10.8311    1.4884    1.0839 C   0  0  0  0  0  0  0  0  0  0  0  0
    9.5410    1.0681    0.7892 C   0  0  0  0  0  0  0  0  0  0  0  0
    9.5664   -0.3541    0.7490 C   0  0  0  0  0  0  0  0  0  0  0  0
    6.5018   -1.1427   -0.9860 C   0  0  0  0  0  0  0  0  0  0  0  0
    5.2041   -0.6962   -1.2319 C   0  0  0  0  0  0  0  0  0  0  0  0
    1.0439    0.2417   -2.9372 H   0  0  0  0  0  0  0  0  0  0  0  0
    1.2399    1.7409   -1.9534 H   0  0  0  0  0  0  0  0  0  0  0  0
    0.5916    0.2631   -1.1910 H   0  0  0  0  0  0  0  0  0  0  0  0
    4.6460    1.0155    1.6573 H   0  0  0  0  0  0  0  0  0  0  0  0
    6.9758    0.2254    2.1042 H   0  0  0  0  0  0  0  0  0  0  0  0
    6.9217   -3.7443    0.0547 H   0  0  0  0  0  0  0  0  0  0  0  0
    8.4860   -5.9549    0.2264 H   0  0  0  0  0  0  0  0  0  0  0  0
   11.1054   -6.3773    0.6769 H   0  0  0  0  0  0  0  0  0  0  0  0
   12.1216   -5.0262    0.0771 H   0  0  0  0  0  0  0  0  0  0  0  0
   11.7594   -5.1415    1.8001 H   0  0  0  0  0  0  0  0  0  0  0  0
   13.2725   -0.3551    2.4149 H   0  0  0  0  0  0  0  0  0  0  0  0
   13.5185    1.2506    1.6540 H   0  0  0  0  0  0  0  0  0  0  0  0
   13.6307   -0.2580    0.6900 H   0  0  0  0  0  0  0  0  0  0  0  0
   11.1859    2.5112    1.1949 H   0  0  0  0  0  0  0  0  0  0  0  0
    8.6674    1.6898    0.6087 H   0  0  0  0  0  0  0  0  0  0  0  0
    7.0235   -1.7376   -1.7381 H   0  0  0  0  0  0  0  0  0  0  0  0
    4.7040   -0.9471   -2.1679 H   0  0  0  0  0  0  0  0  0  0  0  0
  1  2  1  0
  1 27  1  0
  1 28  1  0
  1 29  1  0
  2  3  1  0
  3  4  2  0
  3  5  1  0
  5  6  2  0
  5 26  1  0
  6  7  1  0
  6 30  1  0
  7  8  2  0
  7 31  1  0
  8  9  1  0
  8 25  1  0
  9 10  1  0
  9 24  2  0
 10 11  2  0
 10 15  1  0
 11 12  1  0
 11 32  1  0
 12 13  2  0
 12 33  1  0
 13 14  1  0
 13 15  1  0
 14 34  1  0
 14 35  1  0
 14 36  1  0
 15 16  1  0
 16 17  1  1
 16 18  1  0
 16 19  1  0
 19 20  2  0
 19 24  1  0
 20 21  1  0
 20 22  1  0
 21 37  1  0
 21 38  1  0
 21 39  1  0
 22 23  2  0
 22 40  1  0
 23 24  1  0
 23 41  1  0
 25 26  2  0
 25 42  1  0
 26 43  1  0
M  CHG  2  16  -1  19   1
M  END

