
     RDKit          3D

 39 41  0  0  0  0  0  0  0  0999 V2000
    1.9264   -0.4076    0.8014 O   0  0  0  0  0  0  0  0  0  0  0  0
    2.1301    0.1345   -0.2797 C   0  0  0  0  0  0  0  0  0  0  0  0
    1.5825    1.5116   -0.5378 C   0  0  1  0  0  0  0  0  0  0  0  0
    0.2142    1.8182    0.0491 C   0  0  0  0  0  0  0  0  0  0  0  0
    1.4311    2.4119    0.6757 C   0  0  0  0  0  0  0  0  0  0  0  0
    2.8526   -0.4951   -1.2698 N   0  0  0  0  0  0  0  0  0  0  0  0
    3.4521   -1.7978   -0.9795 C   0  0  0  0  0  0  0  0  0  0  0  0
    3.1284   -2.8096   -2.0883 C   0  0  0  0  0  0  0  0  0  0  0  0
    3.4946   -2.3451   -3.4286 N   0  0  0  0  0  0  0  0  0  0  0  0
    4.9230   -2.5113   -3.7647 C   0  0  1  0  0  0  0  0  0  0  0  0
    5.2397   -4.0070   -4.0050 C   0  0  0  0  0  0  0  0  0  0  0  0
    4.6176   -4.5036   -5.3096 C   0  0  0  0  0  0  0  0  0  0  0  0
    5.0646   -3.7492   -6.4219 O   0  0  0  0  0  0  0  0  0  0  0  0
    4.7481   -2.3776   -6.3093 C   0  0  0  0  0  0  0  0  0  0  0  0
    5.3517   -1.7632   -5.0429 C   0  0  0  0  0  0  0  0  0  0  0  0
    2.8480   -1.0602   -3.6635 C   0  0  0  0  0  0  0  0  0  0  0  0
    3.1606    0.0117   -2.6024 C   0  0  0  0  0  0  0  0  0  0  0  0
    1.8293    2.0111   -1.4740 H   0  0  0  0  0  0  0  0  0  0  0  0
   -0.2704    0.9960    0.5814 H   0  0  0  0  0  0  0  0  0  0  0  0
   -0.4504    2.4595   -0.5365 H   0  0  0  0  0  0  0  0  0  0  0  0
    1.7615    1.9853    1.6257 H   0  0  0  0  0  0  0  0  0  0  0  0
    1.6342    3.4771    0.5350 H   0  0  0  0  0  0  0  0  0  0  0  0
    3.0637   -2.1322   -0.0098 H   0  0  0  0  0  0  0  0  0  0  0  0
    4.5484   -1.6786   -0.8791 H   0  0  0  0  0  0  0  0  0  0  0  0
    2.0421   -3.0097   -2.0756 H   0  0  0  0  0  0  0  0  0  0  0  0
    3.6292   -3.7624   -1.8661 H   0  0  0  0  0  0  0  0  0  0  0  0
    5.5726   -2.1506   -2.9386 H   0  0  0  0  0  0  0  0  0  0  0  0
    4.8939   -4.6328   -3.1676 H   0  0  0  0  0  0  0  0  0  0  0  0
    6.3348   -4.1288   -4.0579 H   0  0  0  0  0  0  0  0  0  0  0  0
    3.5132   -4.4561   -5.2329 H   0  0  0  0  0  0  0  0  0  0  0  0
    4.9027   -5.5485   -5.5071 H   0  0  0  0  0  0  0  0  0  0  0  0
    3.6476   -2.2365   -6.3234 H   0  0  0  0  0  0  0  0  0  0  0  0
    5.1566   -1.8868   -7.2067 H   0  0  0  0  0  0  0  0  0  0  0  0
    5.1306   -0.6857   -4.9922 H   0  0  0  0  0  0  0  0  0  0  0  0
    6.4487   -1.8463   -5.1135 H   0  0  0  0  0  0  0  0  0  0  0  0
    1.7561   -1.2318   -3.6524 H   0  0  0  0  0  0  0  0  0  0  0  0
    3.0918   -0.6727   -4.6613 H   0  0  0  0  0  0  0  0  0  0  0  0
    2.5711    0.9098   -2.8190 H   0  0  0  0  0  0  0  0  0  0  0  0
    4.2297    0.2992   -2.6578 H   0  0  0  0  0  0  0  0  0  0  0  0
  1  2  2  0
  2  3  1  0
  2  6  1  0
  3  4  1  0
  3  5  1  0
  3 18  1  6
  4  5  1  0
  4 19  1  0
  4 20  1  0
  5 21  1  0
  5 22  1  0
  6  7  1  0
  6 17  1  0
  7  8  1  0
  7 23  1  0
  7 24  1  0
  8  9  1  0
  8 25  1  0
  8 26  1  0
  9 10  1  0
  9 16  1  0
 10 11  1  0
 10 15  1  0
 10 27  1  1
 11 12  1  0
 11 28  1  0
 11 29  1  0
 12 13  1  0
 12 30  1  0
 12 31  1  0
 13 14  1  0
 14 15  1  0
 14 32  1  0
 14 33  1  0
 15 34  1  0
 15 35  1  0
 16 17  1  0
 16 36  1  0
 16 37  1  0
 17 38  1  0
 17 39  1  0
M  END

