
     RDKit          3D

 37 38  0  0  0  0  0  0  0  0999 V2000
    0.8218    0.1987    0.5805 C   0  0  0  0  0  0  0  0  0  0  0  0
    2.2747    0.1725    0.1869 C   0  0  0  0  0  0  0  0  0  0  0  0
    2.7857    0.8671   -0.9171 C   0  0  0  0  0  0  0  0  0  0  0  0
    4.1421    0.8125   -1.2551 C   0  0  0  0  0  0  0  0  0  0  0  0
    5.0467    0.0612   -0.4940 C   0  0  0  0  0  0  0  0  0  0  0  0
    6.5398    0.0342   -0.8406 C   0  0  1  0  0  0  0  0  0  0  0  0
    7.3381    0.9522    0.0947 C   0  0  0  0  0  0  0  0  0  0  0  0
    7.1576   -1.2873   -0.8552 N   0  0  0  0  0  0  0  0  0  0  0  0
    6.5837   -2.2619   -1.7674 C   0  0  0  0  0  0  0  0  0  0  0  0
    7.4121   -3.5299   -1.8608 C   0  0  0  0  0  0  0  0  0  0  0  0
    8.8072   -3.4782   -1.7353 C   0  0  0  0  0  0  0  0  0  0  0  0
    9.5770   -4.6425   -1.8653 C   0  0  0  0  0  0  0  0  0  0  0  0
   10.9289   -4.6339   -1.7500 O   0  0  0  0  0  0  0  0  0  0  0  0
    8.9594   -5.8744   -2.1240 C   0  0  0  0  0  0  0  0  0  0  0  0
    7.5751   -5.8998   -2.2423 C   0  0  0  0  0  0  0  0  0  0  0  0
    6.9737   -7.0753   -2.4827 F   0  0  0  0  0  0  0  0  0  0  0  0
    6.7860   -4.7580   -2.1125 C   0  0  0  0  0  0  0  0  0  0  0  0
    4.5507   -0.6425    0.6142 C   0  0  0  0  0  0  0  0  0  0  0  0
    3.1990   -0.5754    0.9282 C   0  0  0  0  0  0  0  0  0  0  0  0
    2.7500   -1.2624    1.9963 F   0  0  0  0  0  0  0  0  0  0  0  0
    0.2409    0.8400   -0.0976 H   0  0  0  0  0  0  0  0  0  0  0  0
    0.6913    0.5762    1.6080 H   0  0  0  0  0  0  0  0  0  0  0  0
    0.3818   -0.8121    0.5589 H   0  0  0  0  0  0  0  0  0  0  0  0
    2.1004    1.4610   -1.5286 H   0  0  0  0  0  0  0  0  0  0  0  0
    4.5013    1.3646   -2.1284 H   0  0  0  0  0  0  0  0  0  0  0  0
    6.6327    0.4349   -1.8662 H   0  0  0  0  0  0  0  0  0  0  0  0
    7.2775    0.5984    1.1378 H   0  0  0  0  0  0  0  0  0  0  0  0
    6.9436    1.9789    0.0714 H   0  0  0  0  0  0  0  0  0  0  0  0
    8.3976    0.9677   -0.2029 H   0  0  0  0  0  0  0  0  0  0  0  0
    7.2297   -1.6724    0.0865 H   0  0  0  0  0  0  0  0  0  0  0  0
    6.5437   -1.7921   -2.7688 H   0  0  0  0  0  0  0  0  0  0  0  0
    5.5356   -2.5370   -1.5277 H   0  0  0  0  0  0  0  0  0  0  0  0
    9.2824   -2.5161   -1.5265 H   0  0  0  0  0  0  0  0  0  0  0  0
   11.2276   -3.7312   -1.5778 H   0  0  0  0  0  0  0  0  0  0  0  0
    9.5489   -6.7860   -2.2238 H   0  0  0  0  0  0  0  0  0  0  0  0
    5.7017   -4.8423   -2.2057 H   0  0  0  0  0  0  0  0  0  0  0  0
    5.1985   -1.2545    1.2469 H   0  0  0  0  0  0  0  0  0  0  0  0
  1  2  1  0
  1 21  1  0
  1 22  1  0
  1 23  1  0
  2  3  2  0
  2 19  1  0
  3  4  1  0
  3 24  1  0
  4  5  2  0
  4 25  1  0
  5  6  1  0
  5 18  1  0
  6  7  1  0
  6  8  1  0
  6 26  1  6
  7 27  1  0
  7 28  1  0
  7 29  1  0
  8  9  1  0
  8 30  1  0
  9 10  1  0
  9 31  1  0
  9 32  1  0
 10 11  2  0
 10 17  1  0
 11 12  1  0
 11 33  1  0
 12 13  1  0
 12 14  2  0
 13 34  1  0
 14 15  1  0
 14 35  1  0
 15 16  1  0
 15 17  2  0
 17 36  1  0
 18 19  2  0
 18 37  1  0
 19 20  1  0
M  END

