
     RDKit          3D

 51 53  0  0  0  0  0  0  0  0999 V2000
    3.1447   -4.2559    1.4991 C   0  0  0  0  0  0  0  0  0  0  0  0
    3.3540   -5.3284    2.4252 O   0  0  0  0  0  0  0  0  0  0  0  0
    3.0652   -6.5661    2.0321 C   0  0  0  0  0  0  0  0  0  0  0  0
    3.3082   -7.6361    2.9188 C   0  0  0  0  0  0  0  0  0  0  0  0
    2.9921   -8.9038    2.4499 C   0  0  0  0  0  0  0  0  0  0  0  0
    2.4855   -9.1251    1.2269 N   0  0  0  0  0  0  0  0  0  0  0  0
    2.2818   -8.0450    0.4820 C   0  0  0  0  0  0  0  0  0  0  0  0
    1.6747   -8.2410   -0.8988 C   0  0  0  0  0  0  0  0  0  0  0  0
    1.6581   -9.3259   -1.4280 O   0  0  0  0  0  0  0  0  0  0  0  0
    1.1502   -6.9885   -1.6063 C   0  0  0  0  0  0  0  0  0  0  0  0
    0.1919   -6.0461   -0.8670 C   0  0  0  0  0  0  0  0  0  0  0  0
    0.3800   -4.8387   -0.8644 O   0  0  0  0  0  0  0  0  0  0  0  0
   -0.9108   -6.5997   -0.2467 N   0  0  0  0  0  0  0  0  0  0  0  0
   -1.8295   -5.7011    0.4741 C   0  0  0  0  0  0  0  0  0  0  0  0
   -3.0248   -5.2601   -0.3492 C   0  0  0  0  0  0  0  0  0  0  0  0
   -4.3036   -5.7807   -0.1105 C   0  0  0  0  0  0  0  0  0  0  0  0
   -5.3951   -5.3748   -0.8801 C   0  0  0  0  0  0  0  0  0  0  0  0
   -5.2262   -4.4411   -1.9062 C   0  0  0  0  0  0  0  0  0  0  0  0
   -6.6038   -3.9530   -2.8515 Cl  0  0  0  0  0  0  0  0  0  0  0  0
   -3.9465   -3.9116   -2.1544 C   0  0  0  0  0  0  0  0  0  0  0  0
   -3.6931   -2.7405   -3.4179 Cl  0  0  0  0  0  0  0  0  0  0  0  0
   -2.8596   -4.3201   -1.3779 C   0  0  0  0  0  0  0  0  0  0  0  0
   -1.2168   -7.9990   -0.2709 C   0  0  0  0  0  0  0  0  0  0  0  0
   -1.7526   -8.5988   -1.4212 C   0  0  0  0  0  0  0  0  0  0  0  0
   -1.9961   -9.9730   -1.4405 C   0  0  0  0  0  0  0  0  0  0  0  0
   -1.7181  -10.7541   -0.3159 C   0  0  0  0  0  0  0  0  0  0  0  0
   -1.2098  -10.1603    0.8500 C   0  0  0  0  0  0  0  0  0  0  0  0
   -0.8560  -10.9367    2.0915 C   0  0  0  0  0  0  0  0  0  0  0  0
   -1.0141  -12.4441    2.0743 C   0  0  0  0  0  0  0  0  0  0  0  0
   -0.4433  -10.3604    3.0792 O   0  0  0  0  0  0  0  0  0  0  0  0
   -0.9741   -8.7785    0.8624 C   0  0  0  0  0  0  0  0  0  0  0  0
    2.5484   -6.7788    0.8270 N   0  0  0  0  0  0  0  0  0  0  0  0
    3.3536   -3.3372    2.0609 H   0  0  0  0  0  0  0  0  0  0  0  0
    2.1179   -4.2521    1.1069 H   0  0  0  0  0  0  0  0  0  0  0  0
    3.8365   -4.3420    0.6469 H   0  0  0  0  0  0  0  0  0  0  0  0
    3.7176   -7.4582    3.9137 H   0  0  0  0  0  0  0  0  0  0  0  0
    3.1449   -9.7833    3.0849 H   0  0  0  0  0  0  0  0  0  0  0  0
    0.6868   -7.3339   -2.5422 H   0  0  0  0  0  0  0  0  0  0  0  0
    2.0098   -6.3533   -1.8632 H   0  0  0  0  0  0  0  0  0  0  0  0
   -1.2412   -4.8252    0.7772 H   0  0  0  0  0  0  0  0  0  0  0  0
   -2.1733   -6.2231    1.3787 H   0  0  0  0  0  0  0  0  0  0  0  0
   -4.4554   -6.5110    0.6885 H   0  0  0  0  0  0  0  0  0  0  0  0
   -6.3919   -5.7779   -0.6936 H   0  0  0  0  0  0  0  0  0  0  0  0
   -1.8712   -3.9015   -1.5764 H   0  0  0  0  0  0  0  0  0  0  0  0
   -1.9622   -7.9842   -2.2990 H   0  0  0  0  0  0  0  0  0  0  0  0
   -2.3980  -10.4398   -2.3426 H   0  0  0  0  0  0  0  0  0  0  0  0
   -1.8983  -11.8296   -0.3570 H   0  0  0  0  0  0  0  0  0  0  0  0
   -0.3816  -12.8918    1.2907 H   0  0  0  0  0  0  0  0  0  0  0  0
   -2.0560  -12.7326    1.8604 H   0  0  0  0  0  0  0  0  0  0  0  0
   -0.7191  -12.8422    3.0532 H   0  0  0  0  0  0  0  0  0  0  0  0
   -0.5668   -8.3336    1.7717 H   0  0  0  0  0  0  0  0  0  0  0  0
  1  2  1  0
  1 33  1  0
  1 34  1  0
  1 35  1  0
  2  3  1  0
  3  4  2  0
  3 32  1  0
  4  5  1  0
  4 36  1  0
  5  6  2  0
  5 37  1  0
  6  7  1  0
  7  8  1  0
  7 32  2  0
  8  9  2  0
  8 10  1  0
 10 11  1  0
 10 38  1  0
 10 39  1  0
 11 12  2  0
 11 13  1  0
 13 14  1  0
 13 23  1  0
 14 15  1  0
 14 40  1  0
 14 41  1  0
 15 16  2  0
 15 22  1  0
 16 17  1  0
 16 42  1  0
 17 18  2  0
 17 43  1  0
 18 19  1  0
 18 20  1  0
 20 21  1  0
 20 22  2  0
 22 44  1  0
 23 24  2  0
 23 31  1  0
 24 25  1  0
 24 45  1  0
 25 26  2  0
 25 46  1  0
 26 27  1  0
 26 47  1  0
 27 28  1  0
 27 31  2  0
 28 29  1  0
 28 30  2  0
 29 48  1  0
 29 49  1  0
 29 50  1  0
 31 51  1  0
M  END

