
     RDKit          3D

 50 52  0  0  0  0  0  0  0  0999 V2000
    2.9586    2.4086    0.1665 N   0  0  0  0  0  0  0  0  0  0  0  0
    2.4578    1.2539    0.6803 C   0  0  0  0  0  0  0  0  0  0  0  0
    1.3575    0.8138    0.4152 O   0  0  0  0  0  0  0  0  0  0  0  0
    3.4498    0.4629    1.5695 C   0  0  1  0  0  0  0  0  0  0  0  0
    2.7171   -0.2400    2.5787 O   0  0  0  0  0  0  0  0  0  0  0  0
    2.1111    0.5236    3.5131 C   0  0  0  0  0  0  0  0  0  0  0  0
    2.2191    1.7294    3.5404 O   0  0  0  0  0  0  0  0  0  0  0  0
    1.3318   -0.2810    4.4965 C   0  0  0  0  0  0  0  0  0  0  0  0
    1.2362   -1.6811    4.4185 C   0  0  0  0  0  0  0  0  0  0  0  0
    0.4944   -2.3840    5.3645 C   0  0  0  0  0  0  0  0  0  0  0  0
   -0.1682   -1.7081    6.4035 C   0  0  0  0  0  0  0  0  0  0  0  0
   -0.9781   -2.4755    7.4274 C   0  0  0  0  0  0  0  0  0  0  0  0
   -0.1176   -3.3846    8.1951 N   0  0  0  0  0  0  0  0  0  0  0  0
   -0.7740   -4.6801    9.0303 S   0  0  1  0  0  0  0  0  0  0  0  0
   -0.3074   -4.6087   10.4160 O   0  0  0  0  0  0  0  0  0  0  0  0
   -2.1919   -4.7641    8.6869 O   0  0  0  0  0  0  0  0  0  0  0  0
    0.0495   -6.1097    8.3073 C   0  0  0  0  0  0  0  0  0  0  0  0
    0.7619   -6.9791    9.1373 C   0  0  0  0  0  0  0  0  0  0  0  0
    1.3588   -8.1255    8.6098 C   0  0  0  0  0  0  0  0  0  0  0  0
    1.2353   -8.3962    7.2499 C   0  0  0  0  0  0  0  0  0  0  0  0
    1.7950   -9.4789    6.7186 F   0  0  0  0  0  0  0  0  0  0  0  0
    0.5263   -7.5330    6.4053 C   0  0  0  0  0  0  0  0  0  0  0  0
    0.4232   -7.7943    5.1071 F   0  0  0  0  0  0  0  0  0  0  0  0
   -0.0737   -6.3946    6.9441 C   0  0  0  0  0  0  0  0  0  0  0  0
   -0.7334   -5.5785    6.1226 F   0  0  0  0  0  0  0  0  0  0  0  0
   -0.0678   -0.3114    6.4747 C   0  0  0  0  0  0  0  0  0  0  0  0
    0.6732    0.3991    5.5298 C   0  0  0  0  0  0  0  0  0  0  0  0
    4.2171   -0.5545    0.7549 C   0  0  0  0  0  0  0  0  0  0  0  0
    5.6172   -0.5322    0.7154 C   0  0  0  0  0  0  0  0  0  0  0  0
    6.3290   -1.4705   -0.0371 C   0  0  0  0  0  0  0  0  0  0  0  0
    5.6195   -2.4372   -0.7443 C   0  0  0  0  0  0  0  0  0  0  0  0
    6.2928   -3.3442   -1.4653 F   0  0  0  0  0  0  0  0  0  0  0  0
    4.2255   -2.4867   -0.7215 C   0  0  0  0  0  0  0  0  0  0  0  0
    3.5281   -1.5403    0.0280 C   0  0  0  0  0  0  0  0  0  0  0  0
    2.3392    2.9748   -0.4030 H   0  0  0  0  0  0  0  0  0  0  0  0
    3.7801    2.8502    0.5581 H   0  0  0  0  0  0  0  0  0  0  0  0
    4.1443    1.1633    2.0588 H   0  0  0  0  0  0  0  0  0  0  0  0
    1.7426   -2.2089    3.6097 H   0  0  0  0  0  0  0  0  0  0  0  0
    0.4166   -3.4713    5.2999 H   0  0  0  0  0  0  0  0  0  0  0  0
   -1.7390   -3.0945    6.9313 H   0  0  0  0  0  0  0  0  0  0  0  0
   -1.5171   -1.7712    8.0847 H   0  0  0  0  0  0  0  0  0  0  0  0
    0.6120   -2.9431    8.7528 H   0  0  0  0  0  0  0  0  0  0  0  0
    0.8396   -6.7388   10.1984 H   0  0  0  0  0  0  0  0  0  0  0  0
    1.9201   -8.8203    9.2366 H   0  0  0  0  0  0  0  0  0  0  0  0
   -0.5794    0.2270    7.2775 H   0  0  0  0  0  0  0  0  0  0  0  0
    0.7538    1.4867    5.5769 H   0  0  0  0  0  0  0  0  0  0  0  0
    6.1660    0.2238    1.2838 H   0  0  0  0  0  0  0  0  0  0  0  0
    7.4199   -1.4670   -0.0774 H   0  0  0  0  0  0  0  0  0  0  0  0
    3.7080   -3.2602   -1.2922 H   0  0  0  0  0  0  0  0  0  0  0  0
    2.4365   -1.5503    0.0493 H   0  0  0  0  0  0  0  0  0  0  0  0
  1  2  1  0
  1 35  1  0
  1 36  1  0
  2  3  2  0
  2  4  1  0
  4  5  1  0
  4 28  1  0
  4 37  1  1
  5  6  1  0
  6  7  2  0
  6  8  1  0
  8  9  2  0
  8 27  1  0
  9 10  1  0
  9 38  1  0
 10 11  2  0
 10 39  1  0
 11 12  1  0
 11 26  1  0
 12 13  1  0
 12 40  1  0
 12 41  1  0
 14 13  1  6
 13 42  1  0
 14 15  2  0
 14 16  2  0
 14 17  1  0
 17 18  2  0
 17 24  1  0
 18 19  1  0
 18 43  1  0
 19 20  2  0
 19 44  1  0
 20 21  1  0
 20 22  1  0
 22 23  1  0
 22 24  2  0
 24 25  1  0
 26 27  2  0
 26 45  1  0
 27 46  1  0
 28 29  2  0
 28 34  1  0
 29 30  1  0
 29 47  1  0
 30 31  2  0
 30 48  1  0
 31 32  1  0
 31 33  1  0
 33 34  2  0
 33 49  1  0
 34 50  1  0
M  END

