
     RDKit          3D

 66 68  0  0  0  0  0  0  0  0999 V2000
    2.1338    2.0355   -3.5791 N   0  0  0  0  0  0  0  0  0  0  0  0
    3.4008    1.5504   -3.5052 C   0  0  0  0  0  0  0  0  0  0  0  0
    4.3612    2.1426   -3.9677 O   0  0  0  0  0  0  0  0  0  0  0  0
    3.5577    0.1947   -2.7888 C   0  0  1  0  0  0  0  0  0  0  0  0
    2.7510   -0.9648   -3.4465 C   0  0  0  0  0  0  0  0  0  0  0  0
    3.2534   -1.4206   -4.7983 C   0  0  0  0  0  0  0  0  0  0  0  0
    4.0189   -2.5930   -4.9018 C   0  0  0  0  0  0  0  0  0  0  0  0
    4.5178   -3.0279   -6.1339 C   0  0  0  0  0  0  0  0  0  0  0  0
    4.2474   -2.2905   -7.2906 C   0  0  0  0  0  0  0  0  0  0  0  0
    3.4763   -1.1263   -7.2062 C   0  0  0  0  0  0  0  0  0  0  0  0
    2.9836   -0.6958   -5.9713 C   0  0  0  0  0  0  0  0  0  0  0  0
    4.9792   -0.0543   -2.7039 N   0  0  0  0  0  0  0  0  0  0  0  0
    5.5236   -0.9995   -1.9038 C   0  0  0  0  0  0  0  0  0  0  0  0
    4.8571   -1.7691   -1.2238 O   0  0  0  0  0  0  0  0  0  0  0  0
    7.0701   -1.0169   -1.8111 C   0  0  1  0  0  0  0  0  0  0  0  0
    7.5950   -2.4564   -1.6766 C   0  0  0  0  0  0  0  0  0  0  0  0
    7.5959   -3.1951   -3.0177 C   0  0  2  0  0  0  0  0  0  0  0  0
    8.1443   -4.5450   -2.8038 N   0  0  0  0  0  0  0  0  0  0  0  0
    7.9441   -5.7300   -3.9868 S   0  0  1  0  0  0  0  0  0  0  0  0
    7.8260   -6.9856   -3.2467 O   0  0  0  0  0  0  0  0  0  0  0  0
    6.9279   -5.3199   -4.9645 O   0  0  0  0  0  0  0  0  0  0  0  0
    9.4875   -5.7226   -4.8611 C   0  0  0  0  0  0  0  0  0  0  0  0
    9.6140   -5.6759   -6.2299 C   0  0  0  0  0  0  0  0  0  0  0  0
   10.9713   -5.7994   -6.6450 C   0  0  0  0  0  0  0  0  0  0  0  0
   11.8343   -5.9426   -5.5853 C   0  0  0  0  0  0  0  0  0  0  0  0
   11.0161   -5.9322   -4.0643 S   0  0  0  0  0  0  0  0  0  0  0  0
    8.4006   -2.3954   -4.0450 C   0  0  0  0  0  0  0  0  0  0  0  0
    7.8207   -0.9889   -4.1866 C   0  0  0  0  0  0  0  0  0  0  0  0
    7.7545   -0.2982   -2.8889 N   0  0  0  0  0  0  0  0  0  0  0  0
    8.3224    0.9506   -2.7916 C   0  0  0  0  0  0  0  0  0  0  0  0
    8.7968    1.5288   -3.7574 O   0  0  0  0  0  0  0  0  0  0  0  0
    8.2923    1.6771   -1.4233 C   0  0  1  0  0  0  0  0  0  0  0  0
    8.7059    0.9146   -0.3016 O   0  0  0  0  0  0  0  0  0  0  0  0
    9.1058    2.9747   -1.4910 C   0  0  1  0  0  0  0  0  0  0  0  0
    8.7447    3.8887   -0.4642 O   0  0  0  0  0  0  0  0  0  0  0  0
   10.6149    2.6822   -1.3917 C   0  0  0  0  0  0  0  0  0  0  0  0
   11.1117    1.5998   -1.5885 O   0  0  0  0  0  0  0  0  0  0  0  0
   11.3351    3.7432   -1.0200 O   0  0  0  0  0  0  0  0  0  0  0  0
    1.9901    2.9338   -4.0256 H   0  0  0  0  0  0  0  0  0  0  0  0
    1.3448    1.5694   -3.1523 H   0  0  0  0  0  0  0  0  0  0  0  0
    3.1534    0.3079   -1.7653 H   0  0  0  0  0  0  0  0  0  0  0  0
    1.6946   -0.6544   -3.5149 H   0  0  0  0  0  0  0  0  0  0  0  0
    2.7900   -1.8028   -2.7373 H   0  0  0  0  0  0  0  0  0  0  0  0
    4.2190   -3.1807   -4.0018 H   0  0  0  0  0  0  0  0  0  0  0  0
    5.1193   -3.9393   -6.1748 H   0  0  0  0  0  0  0  0  0  0  0  0
    4.6316   -2.6246   -8.2579 H   0  0  0  0  0  0  0  0  0  0  0  0
    3.2546   -0.5500   -8.1084 H   0  0  0  0  0  0  0  0  0  0  0  0
    2.3758    0.2119   -5.9204 H   0  0  0  0  0  0  0  0  0  0  0  0
    5.5564    0.5777   -3.2556 H   0  0  0  0  0  0  0  0  0  0  0  0
    7.2963   -0.5124   -0.8638 H   0  0  0  0  0  0  0  0  0  0  0  0
    6.9553   -2.9747   -0.9469 H   0  0  0  0  0  0  0  0  0  0  0  0
    8.6229   -2.4250   -1.2799 H   0  0  0  0  0  0  0  0  0  0  0  0
    6.5543   -3.2679   -3.3781 H   0  0  0  0  0  0  0  0  0  0  0  0
    7.8542   -4.9740   -1.9240 H   0  0  0  0  0  0  0  0  0  0  0  0
    8.7577   -5.5576   -6.8938 H   0  0  0  0  0  0  0  0  0  0  0  0
   11.2953   -5.7790   -7.6864 H   0  0  0  0  0  0  0  0  0  0  0  0
   12.9188   -6.0459   -5.6124 H   0  0  0  0  0  0  0  0  0  0  0  0
    8.3687   -2.8894   -5.0275 H   0  0  0  0  0  0  0  0  0  0  0  0
    9.4557   -2.3481   -3.7272 H   0  0  0  0  0  0  0  0  0  0  0  0
    6.8074   -1.0483   -4.6209 H   0  0  0  0  0  0  0  0  0  0  0  0
    8.4294   -0.3670   -4.8524 H   0  0  0  0  0  0  0  0  0  0  0  0
    7.2446    1.9656   -1.2303 H   0  0  0  0  0  0  0  0  0  0  0  0
    9.6186    0.6322   -0.4921 H   0  0  0  0  0  0  0  0  0  0  0  0
    8.9197    3.4732   -2.4531 H   0  0  0  0  0  0  0  0  0  0  0  0
    8.7111    3.3864    0.3663 H   0  0  0  0  0  0  0  0  0  0  0  0
   10.7038    4.4454   -0.7721 H   0  0  0  0  0  0  0  0  0  0  0  0
  1  2  1  0
  1 39  1  0
  1 40  1  0
  2  3  2  0
  2  4  1  0
  4  5  1  0
  4 12  1  0
  4 41  1  1
  5  6  1  0
  5 42  1  0
  5 43  1  0
  6  7  2  0
  6 11  1  0
  7  8  1  0
  7 44  1  0
  8  9  2  0
  8 45  1  0
  9 10  1  0
  9 46  1  0
 10 11  2  0
 10 47  1  0
 11 48  1  0
 12 13  1  0
 12 49  1  0
 13 14  2  0
 13 15  1  0
 15 16  1  0
 15 29  1  0
 15 50  1  1
 16 17  1  0
 16 51  1  0
 16 52  1  0
 17 18  1  0
 17 27  1  0
 17 53  1  6
 19 18  1  1
 18 54  1  0
 19 20  2  0
 19 21  2  0
 19 22  1  0
 22 23  2  0
 22 26  1  0
 23 24  1  0
 23 55  1  0
 24 25  2  0
 24 56  1  0
 25 26  1  0
 25 57  1  0
 27 28  1  0
 27 58  1  0
 27 59  1  0
 28 29  1  0
 28 60  1  0
 28 61  1  0
 29 30  1  0
 30 31  2  0
 30 32  1  0
 32 33  1  0
 32 34  1  0
 32 62  1  1
 33 63  1  0
 34 35  1  0
 34 36  1  0
 34 64  1  6
 35 65  1  0
 36 37  2  0
 36 38  1  0
 38 66  1  0
M  END

