
     RDKit          3D

 40 43  0  0  0  0  0  0  0  0999 V2000
    1.0753   -0.0771    0.8593 C   0  0  0  0  0  0  0  0  0  0  0  0
    2.5473    0.0049    0.5422 C   0  0  0  0  0  0  0  0  0  0  0  0
    3.3197   -1.1535    0.3472 C   0  0  0  0  0  0  0  0  0  0  0  0
    4.6805   -1.0755    0.0634 C   0  0  0  0  0  0  0  0  0  0  0  0
    5.3116    0.1776   -0.0345 C   0  0  0  0  0  0  0  0  0  0  0  0
    6.7370    0.2471   -0.3328 C   0  0  0  0  0  0  0  0  0  0  0  0
    7.5432   -0.7439   -0.5300 N   0  0  0  0  0  0  0  0  0  0  0  0
    8.7943   -0.1893   -0.7786 C   0  0  0  0  0  0  0  0  0  0  0  0
    9.8896   -0.9759   -1.0311 C   0  0  0  0  0  0  0  0  0  0  0  0
   11.2442   -0.6498   -1.3084 C   0  0  0  0  0  0  0  0  0  0  0  0
   12.3318   -1.4808   -1.5601 C   0  0  0  0  0  0  0  0  0  0  0  0
   13.4476   -0.6401   -1.7724 C   0  0  0  0  0  0  0  0  0  0  0  0
   12.9880    0.6626   -1.6406 C   0  0  0  0  0  0  0  0  0  0  0  0
   13.6186    1.9705   -1.7381 C   0  0  0  0  0  0  0  0  0  0  0  0
   12.8544    3.1404   -1.5447 C   0  0  0  0  0  0  0  0  0  0  0  0
   13.4495    4.3977   -1.6359 C   0  0  0  0  0  0  0  0  0  0  0  0
   14.8148    4.4980   -1.9214 C   0  0  0  0  0  0  0  0  0  0  0  0
   15.6302    6.2152   -2.0466 Br  0  0  0  0  0  0  0  0  0  0  0  0
   15.5914    3.3502   -2.1169 C   0  0  0  0  0  0  0  0  0  0  0  0
   14.9923    2.0963   -2.0248 C   0  0  0  0  0  0  0  0  0  0  0  0
   11.6652    0.6428   -1.3625 O   0  0  0  0  0  0  0  0  0  0  0  0
    8.6636    1.2949   -0.7102 C   0  0  0  0  0  0  0  0  0  0  0  0
    9.4111    2.2207   -0.8423 O   0  0  0  0  0  0  0  0  0  0  0  0
    7.3079    1.4901   -0.4192 O   0  0  0  0  0  0  0  0  0  0  0  0
    4.5489    1.3448    0.1576 C   0  0  0  0  0  0  0  0  0  0  0  0
    3.1888    1.2521    0.4408 C   0  0  0  0  0  0  0  0  0  0  0  0
    0.7061   -1.1119    0.8111 H   0  0  0  0  0  0  0  0  0  0  0  0
    0.4803    0.5300    0.1573 H   0  0  0  0  0  0  0  0  0  0  0  0
    0.8656    0.3078    1.8720 H   0  0  0  0  0  0  0  0  0  0  0  0
    2.8420   -2.1345    0.4192 H   0  0  0  0  0  0  0  0  0  0  0  0
    5.2761   -1.9776   -0.0878 H   0  0  0  0  0  0  0  0  0  0  0  0
    9.6829   -2.0495   -1.0168 H   0  0  0  0  0  0  0  0  0  0  0  0
   12.3073   -2.5684   -1.5848 H   0  0  0  0  0  0  0  0  0  0  0  0
   14.4665   -0.9466   -1.9953 H   0  0  0  0  0  0  0  0  0  0  0  0
   11.7885    3.0545   -1.3223 H   0  0  0  0  0  0  0  0  0  0  0  0
   12.8526    5.2986   -1.4852 H   0  0  0  0  0  0  0  0  0  0  0  0
   16.6559    3.4387   -2.3394 H   0  0  0  0  0  0  0  0  0  0  0  0
   15.6049    1.2052   -2.1789 H   0  0  0  0  0  0  0  0  0  0  0  0
    5.0327    2.3200    0.0816 H   0  0  0  0  0  0  0  0  0  0  0  0
    2.6087    2.1680    0.5864 H   0  0  0  0  0  0  0  0  0  0  0  0
  1  2  1  0
  1 27  1  0
  1 28  1  0
  1 29  1  0
  2  3  2  0
  2 26  1  0
  3  4  1  0
  3 30  1  0
  4  5  2  0
  4 31  1  0
  5  6  1  0
  5 25  1  0
  6  7  2  0
  6 24  1  0
  7  8  1  0
  8  9  2  0
  8 22  1  0
  9 10  1  0
  9 32  1  0
 10 11  2  0
 10 21  1  0
 11 12  1  0
 11 33  1  0
 12 13  2  0
 12 34  1  0
 13 14  1  0
 13 21  1  0
 14 15  2  0
 14 20  1  0
 15 16  1  0
 15 35  1  0
 16 17  2  0
 16 36  1  0
 17 18  1  0
 17 19  1  0
 19 20  2  0
 19 37  1  0
 20 38  1  0
 22 23  2  0
 22 24  1  0
 25 26  2  0
 25 39  1  0
 26 40  1  0
M  END

