
     RDKit          3D

 43 42  0  0  0  0  0  0  0  0999 V2000
    0.9995   -2.2571   -0.8281 C   0  0  0  0  0  0  0  0  0  0  0  0
    2.4967   -1.9425   -0.8288 C   0  0  0  0  0  0  0  0  0  0  0  0
    2.8585   -0.6180   -1.5089 C   0  0  1  0  0  0  0  0  0  0  0  0
    2.3220    0.6241   -0.8135 C   0  0  0  0  0  0  0  0  0  0  0  0
    4.3018   -0.4775   -1.5260 O   0  0  0  0  0  0  0  0  0  0  0  0
    4.9864   -1.0194   -2.5497 C   0  0  0  0  0  0  0  0  0  0  0  0
    4.4719   -1.6150   -3.4674 O   0  0  0  0  0  0  0  0  0  0  0  0
    6.4727   -0.7777   -2.3918 C   0  0  0  0  0  0  0  0  0  0  0  0
    7.2946   -1.3553   -3.5340 C   0  0  0  0  0  0  0  0  0  0  0  0
    8.7886   -1.1738   -3.3625 C   0  0  0  0  0  0  0  0  0  0  0  0
    9.2781   -0.7236   -2.3484 O   0  0  0  0  0  0  0  0  0  0  0  0
    9.6636   -1.5716   -4.5508 C   0  0  0  0  0  0  0  0  0  0  0  0
   11.0292   -2.0877   -4.1142 C   0  0  0  0  0  0  0  0  0  0  0  0
   10.9211   -3.4311   -3.4190 C   0  0  0  0  0  0  0  0  0  0  0  0
    9.8766   -3.9890   -3.1693 O   0  0  0  0  0  0  0  0  0  0  0  0
   12.1300   -3.9203   -3.1076 O   0  0  0  0  0  0  0  0  0  0  0  0
   12.2005   -5.1892   -2.4030 C   0  0  1  0  0  0  0  0  0  0  0  0
   12.1550   -6.3338   -3.4082 C   0  0  0  0  0  0  0  0  0  0  0  0
   13.4767   -5.1483   -1.5774 C   0  0  0  0  0  0  0  0  0  0  0  0
    0.8117   -3.2530   -0.3975 H   0  0  0  0  0  0  0  0  0  0  0  0
    0.5892   -2.2581   -1.8518 H   0  0  0  0  0  0  0  0  0  0  0  0
    0.4202   -1.5309   -0.2359 H   0  0  0  0  0  0  0  0  0  0  0  0
    3.0340   -2.7451   -1.3592 H   0  0  0  0  0  0  0  0  0  0  0  0
    2.8868   -1.9248    0.2042 H   0  0  0  0  0  0  0  0  0  0  0  0
    2.5166   -0.6519   -2.5558 H   0  0  0  0  0  0  0  0  0  0  0  0
    2.6770    0.6736    0.2285 H   0  0  0  0  0  0  0  0  0  0  0  0
    1.2219    0.6237   -0.8066 H   0  0  0  0  0  0  0  0  0  0  0  0
    2.6593    1.5324   -1.3350 H   0  0  0  0  0  0  0  0  0  0  0  0
    6.7933   -1.2014   -1.4265 H   0  0  0  0  0  0  0  0  0  0  0  0
    6.6371    0.3072   -2.2851 H   0  0  0  0  0  0  0  0  0  0  0  0
    6.9855   -0.9346   -4.5069 H   0  0  0  0  0  0  0  0  0  0  0  0
    7.1186   -2.4412   -3.6332 H   0  0  0  0  0  0  0  0  0  0  0  0
    9.7889   -0.6608   -5.1646 H   0  0  0  0  0  0  0  0  0  0  0  0
    9.1387   -2.3073   -5.1783 H   0  0  0  0  0  0  0  0  0  0  0  0
   11.4897   -1.3827   -3.4035 H   0  0  0  0  0  0  0  0  0  0  0  0
   11.7268   -2.1853   -4.9610 H   0  0  0  0  0  0  0  0  0  0  0  0
   11.3181   -5.2476   -1.7471 H   0  0  0  0  0  0  0  0  0  0  0  0
   12.9935   -6.2615   -4.1195 H   0  0  0  0  0  0  0  0  0  0  0  0
   11.2092   -6.3207   -3.9689 H   0  0  0  0  0  0  0  0  0  0  0  0
   12.2274   -7.3010   -2.8860 H   0  0  0  0  0  0  0  0  0  0  0  0
   14.3607   -5.0493   -2.2274 H   0  0  0  0  0  0  0  0  0  0  0  0
   13.5799   -6.0746   -0.9912 H   0  0  0  0  0  0  0  0  0  0  0  0
   13.4637   -4.2970   -0.8804 H   0  0  0  0  0  0  0  0  0  0  0  0
  1  2  1  0
  1 20  1  0
  1 21  1  0
  1 22  1  0
  2  3  1  0
  2 23  1  0
  2 24  1  0
  3  4  1  0
  3  5  1  0
  3 25  1  6
  4 26  1  0
  4 27  1  0
  4 28  1  0
  5  6  1  0
  6  7  2  0
  6  8  1  0
  8  9  1  0
  8 29  1  0
  8 30  1  0
  9 10  1  0
  9 31  1  0
  9 32  1  0
 10 11  2  0
 10 12  1  0
 12 13  1  0
 12 33  1  0
 12 34  1  0
 13 14  1  0
 13 35  1  0
 13 36  1  0
 14 15  2  0
 14 16  1  0
 16 17  1  0
 17 18  1  0
 17 19  1  0
 17 37  1  1
 18 38  1  0
 18 39  1  0
 18 40  1  0
 19 41  1  0
 19 42  1  0
 19 43  1  0
M  END

