
     RDKit          3D

 68 71  0  0  0  0  0  0  0  0999 V2000
    2.2283    4.0154   -3.8436 C   0  0  0  0  0  0  0  0  0  0  0  0
    3.4568    3.4964   -3.2929 N   0  0  0  0  0  0  0  0  0  0  0  0
    3.6630    3.3226   -1.9654 C   0  0  0  0  0  0  0  0  0  0  0  0
    2.8522    3.5778   -1.0852 O   0  0  0  0  0  0  0  0  0  0  0  0
    5.0363    2.7630   -1.6387 C   0  0  0  0  0  0  0  0  0  0  0  0
    5.3503    2.5384   -0.2950 C   0  0  0  0  0  0  0  0  0  0  0  0
    6.6168    2.0258    0.0019 C   0  0  0  0  0  0  0  0  0  0  0  0
    7.0627    1.7611    1.2591 O   0  0  0  0  0  0  0  0  0  0  0  0
    6.2435    1.9680    2.3565 C   0  0  0  0  0  0  0  0  0  0  0  0
    5.4211    0.9423    2.8238 C   0  0  0  0  0  0  0  0  0  0  0  0
    4.6452    1.1280    3.9667 C   0  0  0  0  0  0  0  0  0  0  0  0
    4.6783    2.3470    4.6712 C   0  0  0  0  0  0  0  0  0  0  0  0
    3.9250    2.6052    5.8183 N   0  0  0  0  0  0  0  0  0  0  0  0
    3.1522    1.7142    6.5536 C   0  0  0  0  0  0  0  0  0  0  0  0
    2.9883    0.5436    6.2745 O   0  0  0  0  0  0  0  0  0  0  0  0
    2.5894    2.3250    7.6651 N   0  0  0  0  0  0  0  0  0  0  0  0
    1.7980    1.6809    8.6132 C   0  0  0  0  0  0  0  0  0  0  0  0
    1.1621    0.4549    8.6133 C   0  0  0  0  0  0  0  0  0  0  0  0
    0.4448    0.4254    9.8464 C   0  0  0  0  0  0  0  0  0  0  0  0
   -0.4250   -0.7048   10.3747 C   0  0  1  0  0  0  0  0  0  0  0  0
    0.4542   -1.9582   10.5841 C   0  0  0  0  0  0  0  0  0  0  0  0
   -1.0725   -0.3050   11.7111 C   0  0  0  0  0  0  0  0  0  0  0  0
   -1.5292   -1.0216    9.3421 C   0  0  0  0  0  0  0  0  0  0  0  0
    0.6283    1.5404   10.5380 N   0  0  0  0  0  0  0  0  0  0  0  0
    1.4756    2.3063    9.7981 N   0  0  0  0  0  0  0  0  0  0  0  0
    1.8524    3.5940   10.2601 C   0  0  0  0  0  0  0  0  0  0  0  0
    0.8989    4.4046   10.8834 C   0  0  0  0  0  0  0  0  0  0  0  0
    1.2800    5.6722   11.3353 C   0  0  0  0  0  0  0  0  0  0  0  0
    2.5793    6.1414   11.1618 C   0  0  0  0  0  0  0  0  0  0  0  0
    3.5394    5.3208   10.5451 C   0  0  0  0  0  0  0  0  0  0  0  0
    4.7873    5.8374   10.4309 O   0  0  0  0  0  0  0  0  0  0  0  0
    5.8064    5.0776    9.8210 C   0  0  0  0  0  0  0  0  0  0  0  0
    3.1807    4.0370   10.1054 C   0  0  0  0  0  0  0  0  0  0  0  0
    5.5283    3.3634    4.1775 C   0  0  0  0  0  0  0  0  0  0  0  0
    5.6235    4.9021    5.0288 Cl  0  0  0  0  0  0  0  0  0  0  0  0
    6.3036    3.1859    3.0339 C   0  0  0  0  0  0  0  0  0  0  0  0
    7.5034    1.7633   -1.0533 C   0  0  0  0  0  0  0  0  0  0  0  0
    7.0796    2.0258   -2.3544 C   0  0  0  0  0  0  0  0  0  0  0  0
    5.8728    2.5158   -2.6531 N   0  0  0  0  0  0  0  0  0  0  0  0
    1.7498    3.2899   -4.5240 H   0  0  0  0  0  0  0  0  0  0  0  0
    2.3973    4.9520   -4.4029 H   0  0  0  0  0  0  0  0  0  0  0  0
    1.5434    4.2215   -3.0100 H   0  0  0  0  0  0  0  0  0  0  0  0
    4.2375    3.2350   -3.8897 H   0  0  0  0  0  0  0  0  0  0  0  0
    4.6032    2.7691    0.4638 H   0  0  0  0  0  0  0  0  0  0  0  0
    5.3923   -0.0092    2.2895 H   0  0  0  0  0  0  0  0  0  0  0  0
    4.0056    0.3322    4.3415 H   0  0  0  0  0  0  0  0  0  0  0  0
    4.0205    3.5541    6.1647 H   0  0  0  0  0  0  0  0  0  0  0  0
    2.7252    3.3201    7.8062 H   0  0  0  0  0  0  0  0  0  0  0  0
    1.2159   -0.2869    7.8248 H   0  0  0  0  0  0  0  0  0  0  0  0
    1.2498   -1.7632   11.3206 H   0  0  0  0  0  0  0  0  0  0  0  0
    0.9344   -2.2768    9.6454 H   0  0  0  0  0  0  0  0  0  0  0  0
   -0.1555   -2.7990   10.9543 H   0  0  0  0  0  0  0  0  0  0  0  0
   -0.3113   -0.0657   12.4677 H   0  0  0  0  0  0  0  0  0  0  0  0
   -1.6955   -1.1311   12.0901 H   0  0  0  0  0  0  0  0  0  0  0  0
   -1.7091    0.5849   11.5957 H   0  0  0  0  0  0  0  0  0  0  0  0
   -1.1039   -1.3242    8.3722 H   0  0  0  0  0  0  0  0  0  0  0  0
   -2.1729   -0.1446    9.1691 H   0  0  0  0  0  0  0  0  0  0  0  0
   -2.1662   -1.8466    9.7015 H   0  0  0  0  0  0  0  0  0  0  0  0
   -0.1155    4.0293   11.0124 H   0  0  0  0  0  0  0  0  0  0  0  0
    0.5407    6.3111   11.8247 H   0  0  0  0  0  0  0  0  0  0  0  0
    2.8830    7.1329   11.5021 H   0  0  0  0  0  0  0  0  0  0  0  0
    6.7146    5.6941    9.8481 H   0  0  0  0  0  0  0  0  0  0  0  0
    5.5720    4.8414    8.7662 H   0  0  0  0  0  0  0  0  0  0  0  0
    6.0000    4.1344   10.3627 H   0  0  0  0  0  0  0  0  0  0  0  0
    3.9271    3.3601    9.6942 H   0  0  0  0  0  0  0  0  0  0  0  0
    6.9536    3.9851    2.6774 H   0  0  0  0  0  0  0  0  0  0  0  0
    8.4965    1.3629   -0.8431 H   0  0  0  0  0  0  0  0  0  0  0  0
    7.7530    1.8285   -3.1960 H   0  0  0  0  0  0  0  0  0  0  0  0
  1  2  1  0
  1 40  1  0
  1 41  1  0
  1 42  1  0
  2  3  1  0
  2 43  1  0
  3  4  2  0
  3  5  1  0
  5  6  2  0
  5 39  1  0
  6  7  1  0
  6 44  1  0
  7  8  1  0
  7 37  2  0
  8  9  1  0
  9 10  2  0
  9 36  1  0
 10 11  1  0
 10 45  1  0
 11 12  2  0
 11 46  1  0
 12 13  1  0
 12 34  1  0
 13 14  1  0
 13 47  1  0
 14 15  2  0
 14 16  1  0
 16 17  1  0
 16 48  1  0
 17 18  2  0
 17 25  1  0
 18 19  1  0
 18 49  1  0
 19 20  1  0
 19 24  2  0
 20 21  1  1
 20 22  1  0
 20 23  1  0
 21 50  1  0
 21 51  1  0
 21 52  1  0
 22 53  1  0
 22 54  1  0
 22 55  1  0
 23 56  1  0
 23 57  1  0
 23 58  1  0
 24 25  1  0
 25 26  1  0
 26 27  2  0
 26 33  1  0
 27 28  1  0
 27 59  1  0
 28 29  2  0
 28 60  1  0
 29 30  1  0
 29 61  1  0
 30 31  1  0
 30 33  2  0
 31 32  1  0
 32 62  1  0
 32 63  1  0
 32 64  1  0
 33 65  1  0
 34 35  1  0
 34 36  2  0
 36 66  1  0
 37 38  1  0
 37 67  1  0
 38 39  2  0
 38 68  1  0
M  END

