
     RDKit          3D

 47 49  0  0  0  0  0  0  0  0999 V2000
   11.3324    4.2655    2.6938 C   0  0  0  0  0  0  0  0  0  0  0  0
   10.3580    3.2632    2.1241 C   0  0  0  0  0  0  0  0  0  0  0  0
   10.4505    2.8573    0.7798 C   0  0  0  0  0  0  0  0  0  0  0  0
    9.5543    1.9380    0.2381 C   0  0  0  0  0  0  0  0  0  0  0  0
    8.5289    1.3852    1.0260 C   0  0  0  0  0  0  0  0  0  0  0  0
    7.5698    0.3700    0.4343 C   0  0  0  0  0  0  0  0  0  0  0  0
    8.1729   -0.9324    0.1759 N   0  0  0  0  0  0  0  0  0  0  0  0
    8.5516   -1.3392   -1.0715 C   0  0  0  0  0  0  0  0  0  0  0  0
    8.3919   -0.6487   -2.0698 O   0  0  0  0  0  0  0  0  0  0  0  0
    9.2331   -2.7256   -1.1448 C   0  0  1  0  0  0  0  0  0  0  0  0
    9.1063   -3.2291   -0.1698 H   0  0  0  0  0  0  0  0  0  0  0  0
    8.5448   -3.5805   -2.2105 C   0  0  0  0  0  0  0  0  0  0  0  0
   10.6801   -2.6255   -1.3501 N   0  0  0  0  0  0  0  0  0  0  0  0
   11.4315   -2.0896   -0.2230 C   0  0  0  0  0  0  0  0  0  0  0  0
   12.8838   -2.5576   -0.3063 C   0  0  0  0  0  0  0  0  0  0  0  0
   13.4792   -2.3048   -1.6741 C   0  0  0  0  0  0  0  0  0  0  0  0
   14.8703   -2.2930   -1.8660 C   0  0  0  0  0  0  0  0  0  0  0  0
   15.4236   -2.0793   -3.1280 C   0  0  0  0  0  0  0  0  0  0  0  0
   14.5804   -1.8712   -4.2254 C   0  0  0  0  0  0  0  0  0  0  0  0
   13.1978   -1.8799   -4.0443 C   0  0  0  0  0  0  0  0  0  0  0  0
   12.6328   -2.0975   -2.7775 C   0  0  0  0  0  0  0  0  0  0  0  0
   11.1247   -2.0603   -2.6199 C   0  0  0  0  0  0  0  0  0  0  0  0
    8.4314    1.7877    2.3623 C   0  0  0  0  0  0  0  0  0  0  0  0
    9.3321    2.7129    2.9030 C   0  0  0  0  0  0  0  0  0  0  0  0
   12.3738    3.9189    2.5858 H   0  0  0  0  0  0  0  0  0  0  0  0
   11.1476    4.4486    3.7626 H   0  0  0  0  0  0  0  0  0  0  0  0
   11.2622    5.2339    2.1702 H   0  0  0  0  0  0  0  0  0  0  0  0
   11.2379    3.2761    0.1458 H   0  0  0  0  0  0  0  0  0  0  0  0
    9.6387    1.6423   -0.8112 H   0  0  0  0  0  0  0  0  0  0  0  0
    7.1941    0.7231   -0.5368 H   0  0  0  0  0  0  0  0  0  0  0  0
    6.7057    0.2364    1.1053 H   0  0  0  0  0  0  0  0  0  0  0  0
    8.4121   -1.5152    0.9690 H   0  0  0  0  0  0  0  0  0  0  0  0
    7.5155   -3.8171   -1.8992 H   0  0  0  0  0  0  0  0  0  0  0  0
    9.0972   -4.5216   -2.3509 H   0  0  0  0  0  0  0  0  0  0  0  0
    8.4825   -3.0450   -3.1682 H   0  0  0  0  0  0  0  0  0  0  0  0
   10.9792   -2.4569    0.7127 H   0  0  0  0  0  0  0  0  0  0  0  0
   11.3963   -0.9776   -0.1782 H   0  0  0  0  0  0  0  0  0  0  0  0
   12.9174   -3.6406   -0.0901 H   0  0  0  0  0  0  0  0  0  0  0  0
   13.4886   -2.0596    0.4703 H   0  0  0  0  0  0  0  0  0  0  0  0
   15.5268   -2.4535   -1.0051 H   0  0  0  0  0  0  0  0  0  0  0  0
   16.5090   -2.0730   -3.2571 H   0  0  0  0  0  0  0  0  0  0  0  0
   15.0010   -1.7033   -5.2203 H   0  0  0  0  0  0  0  0  0  0  0  0
   12.5373   -1.7160   -4.9016 H   0  0  0  0  0  0  0  0  0  0  0  0
   10.6688   -2.6278   -3.4453 H   0  0  0  0  0  0  0  0  0  0  0  0
   10.7797   -1.0115   -2.7497 H   0  0  0  0  0  0  0  0  0  0  0  0
    7.6373    1.3782    2.9947 H   0  0  0  0  0  0  0  0  0  0  0  0
    9.2320    3.0117    3.9505 H   0  0  0  0  0  0  0  0  0  0  0  0
  1  2  1  0
  1 25  1  0
  1 26  1  0
  1 27  1  0
  2  3  2  0
  2 24  1  0
  3  4  1  0
  3 28  1  0
  4  5  2  0
  4 29  1  0
  5  6  1  0
  5 23  1  0
  6  7  1  0
  6 30  1  0
  6 31  1  0
  7  8  1  0
  7 32  1  0
  8  9  2  0
  8 10  1  0
 10 11  1  1
 10 12  1  0
 10 13  1  0
 12 33  1  0
 12 34  1  0
 12 35  1  0
 13 14  1  0
 13 22  1  0
 14 15  1  0
 14 36  1  0
 14 37  1  0
 15 16  1  0
 15 38  1  0
 15 39  1  0
 16 17  2  0
 16 21  1  0
 17 18  1  0
 17 40  1  0
 18 19  2  0
 18 41  1  0
 19 20  1  0
 19 42  1  0
 20 21  2  0
 20 43  1  0
 21 22  1  0
 22 44  1  0
 22 45  1  0
 23 24  2  0
 23 46  1  0
 24 47  1  0
M  END

