
     RDKit          3D

 34 35  0  0  0  0  0  0  0  0999 V2000
    8.7016   -2.8899   -1.3016 C   0  0  0  0  0  0  0  0  0  0  0  0
    8.4659   -1.6342   -0.9096 C   0  0  0  0  0  0  0  0  0  0  0  0
    7.8772   -0.5593   -1.7902 C   0  0  0  0  0  0  0  0  0  0  0  0
    6.7087    0.0794   -1.2086 N   0  0  0  0  0  0  0  0  0  0  0  0
    6.6173    1.3736   -0.6969 C   0  0  0  0  0  0  0  0  0  0  0  0
    5.3071    1.5296   -0.3277 C   0  0  0  0  0  0  0  0  0  0  0  0
    4.5876    0.3807   -0.5759 N   0  0  0  0  0  0  0  0  0  0  0  0
    5.4502   -0.4657   -1.0972 C   0  0  0  0  0  0  0  0  0  0  0  0
    5.1704   -1.7408   -1.5593 N   0  0  0  0  0  0  0  0  0  0  0  0
    3.8075   -2.2491   -1.3992 C   0  0  0  0  0  0  0  0  0  0  0  0
    2.8408   -1.7370   -2.4735 C   0  0  0  0  0  0  0  0  0  0  0  0
    3.1929   -2.1653   -3.8915 C   0  0  1  0  0  0  0  0  0  0  0  0
    3.0255   -3.6547   -4.3124 C   0  0  0  0  0  0  0  0  0  0  0  0
    2.4949   -3.1703   -5.6860 C   0  0  0  0  0  0  0  0  0  0  0  0
    2.2405   -1.7775   -5.0553 C   0  0  0  0  0  0  0  0  0  0  0  0
    9.1450   -3.6269   -0.6265 H   0  0  0  0  0  0  0  0  0  0  0  0
    8.4727   -3.2247   -2.3196 H   0  0  0  0  0  0  0  0  0  0  0  0
    8.7032   -1.3262    0.1162 H   0  0  0  0  0  0  0  0  0  0  0  0
    7.6097   -0.9795   -2.7747 H   0  0  0  0  0  0  0  0  0  0  0  0
    8.6242    0.2322   -1.9654 H   0  0  0  0  0  0  0  0  0  0  0  0
    7.4814    2.0313   -0.6489 H   0  0  0  0  0  0  0  0  0  0  0  0
    4.8387    2.4105    0.1101 H   0  0  0  0  0  0  0  0  0  0  0  0
    5.8974   -2.4185   -1.3516 H   0  0  0  0  0  0  0  0  0  0  0  0
    3.4120   -1.9820   -0.4029 H   0  0  0  0  0  0  0  0  0  0  0  0
    3.8683   -3.3484   -1.4502 H   0  0  0  0  0  0  0  0  0  0  0  0
    2.8009   -0.6369   -2.4078 H   0  0  0  0  0  0  0  0  0  0  0  0
    1.8279   -2.1002   -2.2197 H   0  0  0  0  0  0  0  0  0  0  0  0
    4.2186   -1.8320   -4.1226 H   0  0  0  0  0  0  0  0  0  0  0  0
    2.2358   -4.1519   -3.7235 H   0  0  0  0  0  0  0  0  0  0  0  0
    3.9189   -4.2999   -4.3057 H   0  0  0  0  0  0  0  0  0  0  0  0
    1.6323   -3.7026   -6.1165 H   0  0  0  0  0  0  0  0  0  0  0  0
    3.2930   -3.1376   -6.4448 H   0  0  0  0  0  0  0  0  0  0  0  0
    1.2004   -1.6730   -4.7037 H   0  0  0  0  0  0  0  0  0  0  0  0
    2.4943   -0.8859   -5.6505 H   0  0  0  0  0  0  0  0  0  0  0  0
  1  2  2  0
  1 16  1  0
  1 17  1  0
  2  3  1  0
  2 18  1  0
  3  4  1  0
  3 19  1  0
  3 20  1  0
  4  5  1  0
  4  8  1  0
  5  6  2  0
  5 21  1  0
  6  7  1  0
  6 22  1  0
  7  8  2  0
  8  9  1  0
  9 10  1  0
  9 23  1  0
 10 11  1  0
 10 24  1  0
 10 25  1  0
 11 12  1  0
 11 26  1  0
 11 27  1  0
 12 13  1  0
 12 15  1  0
 12 28  1  6
 13 14  1  0
 13 29  1  0
 13 30  1  0
 14 15  1  0
 14 31  1  0
 14 32  1  0
 15 33  1  0
 15 34  1  0
M  END

