
     RDKit          3D

 43 45  0  0  0  0  0  0  0  0999 V2000
    3.8290    1.1404   -0.1798 C   0  0  0  0  0  0  0  0  0  0  0  0
    2.9460    0.0073   -0.7042 C   0  0  1  0  0  0  0  0  0  0  0  0
    3.0320   -0.1287   -2.2377 C   0  0  0  0  0  0  0  0  0  0  0  0
    3.1680    0.8096   -2.9730 O   0  0  0  0  0  0  0  0  0  0  0  0
    2.8613   -1.3813   -2.7058 O   0  0  0  0  0  0  0  0  0  0  0  0
    3.1468   -1.2878   -0.0132 N   0  0  0  0  0  0  0  0  0  0  0  0
    2.1481   -1.8944    0.7486 C   0  0  0  0  0  0  0  0  0  0  0  0
    2.4121   -2.7014    1.6165 O   0  0  0  0  0  0  0  0  0  0  0  0
    0.6783   -1.5806    0.4085 C   0  0  1  0  0  0  0  0  0  0  0  0
   -0.2694   -2.7332    0.7546 C   0  0  0  0  0  0  0  0  0  0  0  0
   -1.5712   -2.0401    1.1733 C   0  0  0  0  0  0  0  0  0  0  0  0
   -1.1389   -0.7266    1.6632 N   0  0  0  0  0  0  0  0  0  0  0  0
   -2.0200    0.1284    2.3696 C   0  0  0  0  0  0  0  0  0  0  0  0
   -1.5697    1.2981    3.0140 C   0  0  0  0  0  0  0  0  0  0  0  0
   -2.4776    2.0979    3.7067 C   0  0  0  0  0  0  0  0  0  0  0  0
   -3.8348    1.7722    3.7845 C   0  0  0  0  0  0  0  0  0  0  0  0
   -4.2685    0.6134    3.1418 C   0  0  0  0  0  0  0  0  0  0  0  0
   -6.1136    0.1281    3.2153 Br  0  0  0  0  0  0  0  0  0  0  0  0
   -3.3860   -0.2080    2.4382 C   0  0  0  0  0  0  0  0  0  0  0  0
    0.1353   -0.4052    1.2428 C   0  0  0  0  0  0  0  0  0  0  0  0
    0.7395    0.6299    1.4527 O   0  0  0  0  0  0  0  0  0  0  0  0
    4.5061   -1.6465    0.3517 C   0  0  1  0  0  0  0  0  0  0  0  0
    5.0092   -3.0325    0.0800 C   0  0  0  0  0  0  0  0  0  0  0  0
    5.5450   -1.8742   -0.7202 C   0  0  0  0  0  0  0  0  0  0  0  0
    3.5884    2.0544   -0.7387 H   0  0  0  0  0  0  0  0  0  0  0  0
    4.8988    0.9320   -0.3181 H   0  0  0  0  0  0  0  0  0  0  0  0
    3.6211    1.3112    0.8856 H   0  0  0  0  0  0  0  0  0  0  0  0
    1.9151    0.3291   -0.5084 H   0  0  0  0  0  0  0  0  0  0  0  0
    2.8348   -1.9735   -1.9322 H   0  0  0  0  0  0  0  0  0  0  0  0
    0.5794   -1.2923   -0.6514 H   0  0  0  0  0  0  0  0  0  0  0  0
    0.1619   -3.2902    1.5981 H   0  0  0  0  0  0  0  0  0  0  0  0
   -0.4232   -3.4333   -0.0783 H   0  0  0  0  0  0  0  0  0  0  0  0
   -2.0979   -2.5900    1.9670 H   0  0  0  0  0  0  0  0  0  0  0  0
   -2.2713   -1.9213    0.3265 H   0  0  0  0  0  0  0  0  0  0  0  0
   -0.5203    1.5729    2.9578 H   0  0  0  0  0  0  0  0  0  0  0  0
   -2.1155    3.0016    4.2034 H   0  0  0  0  0  0  0  0  0  0  0  0
   -4.5375    2.4026    4.3306 H   0  0  0  0  0  0  0  0  0  0  0  0
   -3.7764   -1.0958    1.9452 H   0  0  0  0  0  0  0  0  0  0  0  0
    4.8503   -1.1810    1.2822 H   0  0  0  0  0  0  0  0  0  0  0  0
    4.3290   -3.7276   -0.4195 H   0  0  0  0  0  0  0  0  0  0  0  0
    5.6388   -3.4981    0.8420 H   0  0  0  0  0  0  0  0  0  0  0  0
    5.2452   -1.7990   -1.7681 H   0  0  0  0  0  0  0  0  0  0  0  0
    6.5567   -1.5122   -0.5188 H   0  0  0  0  0  0  0  0  0  0  0  0
  1  2  1  0
  1 25  1  0
  1 26  1  0
  1 27  1  0
  2  3  1  0
  2  6  1  0
  2 28  1  6
  3  4  2  0
  3  5  1  0
  5 29  1  0
  6  7  1  0
  6 22  1  0
  7  8  2  0
  7  9  1  0
  9 10  1  0
  9 20  1  0
  9 30  1  6
 10 11  1  0
 10 31  1  0
 10 32  1  0
 11 12  1  0
 11 33  1  0
 11 34  1  0
 12 13  1  0
 12 20  1  0
 13 14  2  0
 13 19  1  0
 14 15  1  0
 14 35  1  0
 15 16  2  0
 15 36  1  0
 16 17  1  0
 16 37  1  0
 17 18  1  0
 17 19  2  0
 19 38  1  0
 20 21  2  0
 22 23  1  0
 22 24  1  0
 22 39  1  1
 23 24  1  0
 23 40  1  0
 23 41  1  0
 24 42  1  0
 24 43  1  0
M  END

