
     RDKit          3D

 66 69  0  0  0  0  0  0  0  0999 V2000
    3.1288    2.7564   -2.7618 C   0  0  0  0  0  0  0  0  0  0  0  0
    4.0514    1.6001   -2.4269 C   0  0  0  0  0  0  0  0  0  0  0  0
    5.1992    2.1255   -1.7802 O   0  0  0  0  0  0  0  0  0  0  0  0
    6.1871    1.2860   -1.3765 C   0  0  0  0  0  0  0  0  0  0  0  0
    6.1764   -0.1059   -1.5445 C   0  0  0  0  0  0  0  0  0  0  0  0
    7.2441   -0.8908   -1.0940 C   0  0  0  0  0  0  0  0  0  0  0  0
    8.3445   -0.2932   -0.4649 C   0  0  0  0  0  0  0  0  0  0  0  0
    9.4585   -1.0210    0.0157 N   0  0  0  0  0  0  0  0  0  0  0  0
    9.6822   -2.3693   -0.0167 C   0  0  0  0  0  0  0  0  0  0  0  0
    8.9338   -3.1994   -0.4925 O   0  0  0  0  0  0  0  0  0  0  0  0
   11.0200   -2.7723    0.6430 C   0  0  0  0  0  0  0  0  0  0  0  0
   11.2621   -4.1858    0.4947 N   0  0  0  0  0  0  0  0  0  0  0  0
   11.8045   -4.6834   -0.6839 C   0  0  0  0  0  0  0  0  0  0  0  0
   12.2113   -4.0195   -1.5987 O   0  0  0  0  0  0  0  0  0  0  0  0
   11.8400   -6.4829   -0.6152 S   0  0  0  0  0  0  0  0  0  0  0  0
   11.0723   -6.4964    0.9885 C   0  0  0  0  0  0  0  0  0  0  0  0
   10.8478   -7.6304    1.6853 C   0  0  0  0  0  0  0  0  0  0  0  0
   10.2038   -7.7979    3.0055 C   0  0  0  0  0  0  0  0  0  0  0  0
   10.9655   -8.4386    4.0133 C   0  0  0  0  0  0  0  0  0  0  0  0
   10.4679   -8.6775    5.2905 C   0  0  0  0  0  0  0  0  0  0  0  0
   11.1492   -9.2402    6.3164 O   0  0  0  0  0  0  0  0  0  0  0  0
   12.4874   -9.6925    6.1450 C   0  0  0  0  0  0  0  0  0  0  0  0
   12.5699  -11.0726    5.5057 C   0  0  0  0  0  0  0  0  0  0  0  0
    9.1284   -8.2950    5.5810 C   0  0  0  0  0  0  0  0  0  0  0  0
    8.7041   -8.5585    6.8369 O   0  0  0  0  0  0  0  0  0  0  0  0
    7.3997   -8.2017    7.2338 C   0  0  0  0  0  0  0  0  0  0  0  0
    7.1983   -8.5823    8.6838 C   0  0  0  0  0  0  0  0  0  0  0  0
    8.2256   -9.1513    9.4457 C   0  0  0  0  0  0  0  0  0  0  0  0
    8.0051   -9.4857   10.7827 C   0  0  0  0  0  0  0  0  0  0  0  0
    6.7619   -9.2588   11.3797 C   0  0  0  0  0  0  0  0  0  0  0  0
    6.5214   -9.6879   13.0494 Cl  0  0  0  0  0  0  0  0  0  0  0  0
    5.7270   -8.6876   10.6184 C   0  0  0  0  0  0  0  0  0  0  0  0
    4.1596   -8.3851   11.3138 Cl  0  0  0  0  0  0  0  0  0  0  0  0
    5.9522   -8.3552    9.2803 C   0  0  0  0  0  0  0  0  0  0  0  0
    8.3514   -7.7018    4.5879 C   0  0  0  0  0  0  0  0  0  0  0  0
    8.8809   -7.4564    3.3120 C   0  0  0  0  0  0  0  0  0  0  0  0
    7.6932   -6.7257    2.0131 Br  0  0  0  0  0  0  0  0  0  0  0  0
   10.8107   -5.0988    1.4542 C   0  0  0  0  0  0  0  0  0  0  0  0
   10.3340   -4.7611    2.5128 O   0  0  0  0  0  0  0  0  0  0  0  0
    8.3517    1.1045   -0.2982 C   0  0  0  0  0  0  0  0  0  0  0  0
    7.2924    1.8831   -0.7455 C   0  0  0  0  0  0  0  0  0  0  0  0
    2.2227    2.3873   -3.2667 H   0  0  0  0  0  0  0  0  0  0  0  0
    3.6314    3.4744   -3.4279 H   0  0  0  0  0  0  0  0  0  0  0  0
    2.8262    3.2895   -1.8476 H   0  0  0  0  0  0  0  0  0  0  0  0
    4.3486    1.0577   -3.3448 H   0  0  0  0  0  0  0  0  0  0  0  0
    3.5433    0.8727   -1.7653 H   0  0  0  0  0  0  0  0  0  0  0  0
    5.3374   -0.6048   -2.0296 H   0  0  0  0  0  0  0  0  0  0  0  0
    7.2281   -1.9698   -1.2292 H   0  0  0  0  0  0  0  0  0  0  0  0
   10.1830   -0.4540    0.4419 H   0  0  0  0  0  0  0  0  0  0  0  0
   10.9780   -2.5532    1.7210 H   0  0  0  0  0  0  0  0  0  0  0  0
   11.8523   -2.2175    0.1844 H   0  0  0  0  0  0  0  0  0  0  0  0
   11.2259   -8.5592    1.2385 H   0  0  0  0  0  0  0  0  0  0  0  0
   11.9876   -8.7279    3.7684 H   0  0  0  0  0  0  0  0  0  0  0  0
   12.9023   -9.7231    7.1638 H   0  0  0  0  0  0  0  0  0  0  0  0
   13.0751   -8.9474    5.5794 H   0  0  0  0  0  0  0  0  0  0  0  0
   11.9946  -11.8026    6.0955 H   0  0  0  0  0  0  0  0  0  0  0  0
   13.6188  -11.4080    5.4689 H   0  0  0  0  0  0  0  0  0  0  0  0
   12.1747  -11.0777    4.4786 H   0  0  0  0  0  0  0  0  0  0  0  0
    6.6491   -8.7151    6.6016 H   0  0  0  0  0  0  0  0  0  0  0  0
    7.2425   -7.1131    7.1034 H   0  0  0  0  0  0  0  0  0  0  0  0
    9.1963   -9.3305    8.9832 H   0  0  0  0  0  0  0  0  0  0  0  0
    8.8014   -9.9299   11.3824 H   0  0  0  0  0  0  0  0  0  0  0  0
    5.1312   -7.9135    8.7106 H   0  0  0  0  0  0  0  0  0  0  0  0
    7.3180   -7.4241    4.7861 H   0  0  0  0  0  0  0  0  0  0  0  0
    9.2025    1.5898    0.1905 H   0  0  0  0  0  0  0  0  0  0  0  0
    7.2971    2.9672   -0.6169 H   0  0  0  0  0  0  0  0  0  0  0  0
  1  2  1  0
  1 42  1  0
  1 43  1  0
  1 44  1  0
  2  3  1  0
  2 45  1  0
  2 46  1  0
  3  4  1  0
  4  5  2  0
  4 41  1  0
  5  6  1  0
  5 47  1  0
  6  7  2  0
  6 48  1  0
  7  8  1  0
  7 40  1  0
  8  9  1  0
  8 49  1  0
  9 10  2  0
  9 11  1  0
 11 12  1  0
 11 50  1  0
 11 51  1  0
 12 13  1  0
 12 38  1  0
 13 14  2  0
 13 15  1  0
 15 16  1  0
 16 17  2  0
 16 38  1  0
 17 18  1  0
 17 52  1  0
 18 19  2  0
 18 36  1  0
 19 20  1  0
 19 53  1  0
 20 21  1  0
 20 24  2  0
 21 22  1  0
 22 23  1  0
 22 54  1  0
 22 55  1  0
 23 56  1  0
 23 57  1  0
 23 58  1  0
 24 25  1  0
 24 35  1  0
 25 26  1  0
 26 27  1  0
 26 59  1  0
 26 60  1  0
 27 28  2  0
 27 34  1  0
 28 29  1  0
 28 61  1  0
 29 30  2  0
 29 62  1  0
 30 31  1  0
 30 32  1  0
 32 33  1  0
 32 34  2  0
 34 63  1  0
 35 36  2  0
 35 64  1  0
 36 37  1  0
 38 39  2  0
 40 41  2  0
 40 65  1  0
 41 66  1  0
M  END

