
     RDKit          3D

 37 38  0  0  0  0  0  0  0  0999 V2000
    0.8322   -0.1278    1.3472 O   0  0  0  0  0  0  0  0  0  0  0  0
    1.7660   -0.4125    0.6478 C   0  0  0  0  0  0  0  0  0  0  0  0
    1.6989   -0.2791   -0.6936 O   0  0  0  0  0  0  0  0  0  0  0  0
    3.0813   -0.9714    1.2115 C   0  0  1  0  0  0  0  0  0  0  0  0
    3.0470   -2.5159    1.2771 C   0  0  0  0  0  0  0  0  0  0  0  0
    3.2052   -3.1486   -0.1105 C   0  0  0  0  0  0  0  0  0  0  0  0
    4.4357   -2.6031   -0.8372 C   0  0  0  0  0  0  0  0  0  0  0  0
    4.4175   -1.1299   -0.8779 N   0  0  0  0  0  0  0  0  0  0  0  0
    5.0246   -0.5073   -1.9698 C   0  0  0  0  0  0  0  0  0  0  0  0
    5.4001   -1.1454   -2.9354 O   0  0  0  0  0  0  0  0  0  0  0  0
    5.1924    1.0278   -1.9337 C   0  0  0  0  0  0  0  0  0  0  0  0
    5.5717    1.5983   -3.1999 N   0  0  0  0  0  0  0  0  0  0  0  0
    4.4992    1.6764   -4.1887 C   0  0  0  0  0  0  0  0  0  0  0  0
    5.0217    2.2051   -5.5039 C   0  0  1  0  0  0  0  0  0  0  0  0
    5.6728    1.2560   -6.4838 C   0  0  0  0  0  0  0  0  0  0  0  0
    4.3252    1.8586   -6.7931 C   0  0  0  0  0  0  0  0  0  0  0  0
    4.3332   -0.5013    0.4483 C   0  0  0  0  0  0  0  0  0  0  0  0
    2.5353   -0.5883   -1.0960 H   0  0  0  0  0  0  0  0  0  0  0  0
    3.1324   -0.5776    2.2370 H   0  0  0  0  0  0  0  0  0  0  0  0
    2.1154   -2.8463    1.7620 H   0  0  0  0  0  0  0  0  0  0  0  0
    3.8778   -2.8458    1.9260 H   0  0  0  0  0  0  0  0  0  0  0  0
    2.3042   -2.9622   -0.7193 H   0  0  0  0  0  0  0  0  0  0  0  0
    3.2992   -4.2429   -0.0213 H   0  0  0  0  0  0  0  0  0  0  0  0
    4.4973   -2.9607   -1.8716 H   0  0  0  0  0  0  0  0  0  0  0  0
    5.3582   -2.9356   -0.3209 H   0  0  0  0  0  0  0  0  0  0  0  0
    5.9598    1.2597   -1.1705 H   0  0  0  0  0  0  0  0  0  0  0  0
    4.2606    1.5026   -1.5827 H   0  0  0  0  0  0  0  0  0  0  0  0
    6.3400    1.0549   -3.5936 H   0  0  0  0  0  0  0  0  0  0  0  0
    3.7203    2.3568   -3.7970 H   0  0  0  0  0  0  0  0  0  0  0  0
    4.0048    0.6976   -4.3696 H   0  0  0  0  0  0  0  0  0  0  0  0
    5.4613    3.2063   -5.4336 H   0  0  0  0  0  0  0  0  0  0  0  0
    5.7071    0.1954   -6.2141 H   0  0  0  0  0  0  0  0  0  0  0  0
    6.5420    1.6048   -7.0487 H   0  0  0  0  0  0  0  0  0  0  0  0
    3.4486    1.2051   -6.7435 H   0  0  0  0  0  0  0  0  0  0  0  0
    4.2635    2.6268   -7.5690 H   0  0  0  0  0  0  0  0  0  0  0  0
    4.3272    0.5905    0.3474 H   0  0  0  0  0  0  0  0  0  0  0  0
    5.2292   -0.7677    1.0423 H   0  0  0  0  0  0  0  0  0  0  0  0
  1  2  2  0
  2  3  1  0
  2  4  1  0
  3 18  1  0
  4  5  1  0
  4 17  1  0
  4 19  1  1
  5  6  1  0
  5 20  1  0
  5 21  1  0
  6  7  1  0
  6 22  1  0
  6 23  1  0
  7  8  1  0
  7 24  1  0
  7 25  1  0
  8  9  1  0
  8 17  1  0
  9 10  2  0
  9 11  1  0
 11 12  1  0
 11 26  1  0
 11 27  1  0
 12 13  1  0
 12 28  1  0
 13 14  1  0
 13 29  1  0
 13 30  1  0
 14 15  1  0
 14 16  1  0
 14 31  1  1
 15 16  1  0
 15 32  1  0
 15 33  1  0
 16 34  1  0
 16 35  1  0
 17 36  1  0
 17 37  1  0
M  END

