
     RDKit          3D

 45 47  0  0  0  0  0  0  0  0999 V2000
    1.5863    1.7052   -0.0036 C   0  0  0  0  0  0  0  0  0  0  0  0
    2.2700    0.3365    0.1655 C   0  0  1  0  0  0  0  0  0  0  0  0
    1.2172   -0.7668   -0.0937 C   0  0  0  0  0  0  0  0  0  0  0  0
    3.4008    0.2261   -0.8842 C   0  0  0  0  0  0  0  0  0  0  0  0
    2.8623    0.1506    1.5744 C   0  0  0  0  0  0  0  0  0  0  0  0
    2.7878    1.1379    2.5728 C   0  0  0  0  0  0  0  0  0  0  0  0
    3.3259    0.9406    3.8441 C   0  0  0  0  0  0  0  0  0  0  0  0
    3.9740   -0.2637    4.1779 C   0  0  0  0  0  0  0  0  0  0  0  0
    4.5950   -0.5247    5.4775 C   0  0  0  0  0  0  0  0  0  0  0  0
    4.2997   -0.0169    6.7072 C   0  0  0  0  0  0  0  0  0  0  0  0
    5.1588   -0.3522    7.8107 C   0  0  0  0  0  0  0  0  0  0  0  0
    5.8496   -0.6237    8.7045 N   0  0  0  0  0  0  0  0  0  0  0  0
    3.1378    0.8366    7.0600 C   0  0  0  0  0  0  0  0  0  0  0  0
    3.2196    1.9712    7.6883 N   0  0  0  0  0  0  0  0  0  0  0  0
    1.9855    2.5188    7.9577 C   0  0  0  0  0  0  0  0  0  0  0  0
    1.9063    3.8193    8.6541 C   0  0  0  0  0  0  0  0  0  0  0  0
    3.0863    4.4508    9.0878 C   0  0  0  0  0  0  0  0  0  0  0  0
    3.0455    5.6772    9.7502 C   0  0  0  0  0  0  0  0  0  0  0  0
    1.8127    6.2912    9.9872 C   0  0  0  0  0  0  0  0  0  0  0  0
    1.7514    7.8292   10.8158 Cl  0  0  0  0  0  0  0  0  0  0  0  0
    0.6248    5.6847    9.5657 C   0  0  0  0  0  0  0  0  0  0  0  0
    0.6785    4.4590    8.9048 C   0  0  0  0  0  0  0  0  0  0  0  0
    0.9254    1.7454    7.5245 C   0  0  0  0  0  0  0  0  0  0  0  0
    1.4871    0.3032    6.7695 S   0  0  0  0  0  0  0  0  0  0  0  0
    4.0818   -1.2437    3.1690 C   0  0  0  0  0  0  0  0  0  0  0  0
    3.5284   -1.0447    1.9084 C   0  0  0  0  0  0  0  0  0  0  0  0
    1.1740    1.7912   -1.0210 H   0  0  0  0  0  0  0  0  0  0  0  0
    2.2919    2.5388    0.1370 H   0  0  0  0  0  0  0  0  0  0  0  0
    0.7518    1.8388    0.7026 H   0  0  0  0  0  0  0  0  0  0  0  0
    0.7833   -0.6523   -1.1005 H   0  0  0  0  0  0  0  0  0  0  0  0
    0.3964   -0.7106    0.6388 H   0  0  0  0  0  0  0  0  0  0  0  0
    1.6532   -1.7755   -0.0324 H   0  0  0  0  0  0  0  0  0  0  0  0
    2.9931    0.3544   -1.9002 H   0  0  0  0  0  0  0  0  0  0  0  0
    3.9027   -0.7527   -0.8488 H   0  0  0  0  0  0  0  0  0  0  0  0
    4.1663    1.0020   -0.7244 H   0  0  0  0  0  0  0  0  0  0  0  0
    2.3074    2.0937    2.3642 H   0  0  0  0  0  0  0  0  0  0  0  0
    3.2680    1.7491    4.5744 H   0  0  0  0  0  0  0  0  0  0  0  0
    5.4326   -1.2295    5.4505 H   0  0  0  0  0  0  0  0  0  0  0  0
    4.0422    3.9609    8.8984 H   0  0  0  0  0  0  0  0  0  0  0  0
    3.9655    6.1593   10.0849 H   0  0  0  0  0  0  0  0  0  0  0  0
   -0.3318    6.1742    9.7557 H   0  0  0  0  0  0  0  0  0  0  0  0
   -0.2586    4.0019    8.5800 H   0  0  0  0  0  0  0  0  0  0  0  0
   -0.1403    1.9412    7.6194 H   0  0  0  0  0  0  0  0  0  0  0  0
    4.6015   -2.1810    3.3861 H   0  0  0  0  0  0  0  0  0  0  0  0
    3.6273   -1.8395    1.1659 H   0  0  0  0  0  0  0  0  0  0  0  0
  2  1  1  1
  1 27  1  0
  1 28  1  0
  1 29  1  0
  2  3  1  0
  2  4  1  0
  2  5  1  0
  3 30  1  0
  3 31  1  0
  3 32  1  0
  4 33  1  0
  4 34  1  0
  4 35  1  0
  5  6  2  0
  5 26  1  0
  6  7  1  0
  6 36  1  0
  7  8  2  0
  7 37  1  0
  8  9  1  0
  8 25  1  0
  9 10  2  0
  9 38  1  0
 10 11  1  0
 10 13  1  0
 11 12  3  0
 13 14  2  0
 13 24  1  0
 14 15  1  0
 15 16  1  0
 15 23  2  0
 16 17  2  0
 16 22  1  0
 17 18  1  0
 17 39  1  0
 18 19  2  0
 18 40  1  0
 19 20  1  0
 19 21  1  0
 21 22  2  0
 21 41  1  0
 22 42  1  0
 23 24  1  0
 23 43  1  0
 25 26  2  0
 25 44  1  0
 26 45  1  0
M  END

