
     RDKit          3D

 19 19  0  0  0  0  0  0  0  0999 V2000
    1.0722   -0.5964   -0.5067 O   0  0  0  0  0  0  0  0  0  0  0  0
    2.2057   -0.2244   -0.2395 C   0  0  0  0  0  0  0  0  0  0  0  0
    2.8242    0.8357   -0.8425 N   0  0  0  0  0  0  0  0  0  0  0  0
    2.1733    1.6494   -1.8439 C   0  0  0  0  0  0  0  0  0  0  0  0
    2.0859    3.1038   -1.4239 C   0  0  0  0  0  0  0  0  0  0  0  0
    3.3659    3.5959   -1.2069 F   0  0  0  0  0  0  0  0  0  0  0  0
    3.0190   -0.9202    0.7836 C   0  0  0  0  0  0  0  0  0  0  0  0
    2.7281   -2.0061    1.5666 C   0  0  0  0  0  0  0  0  0  0  0  0
    3.8862   -2.2396    2.3724 C   0  0  0  0  0  0  0  0  0  0  0  0
    4.7938   -1.2786    2.0191 C   0  0  0  0  0  0  0  0  0  0  0  0
    4.2807   -0.4739    1.0581 O   0  0  0  0  0  0  0  0  0  0  0  0
    3.7553    1.0991   -0.5401 H   0  0  0  0  0  0  0  0  0  0  0  0
    1.1640    1.2388   -1.9962 H   0  0  0  0  0  0  0  0  0  0  0  0
    2.7142    1.5850   -2.8058 H   0  0  0  0  0  0  0  0  0  0  0  0
    1.5133    3.2105   -0.4868 H   0  0  0  0  0  0  0  0  0  0  0  0
    1.6062    3.7093   -2.2125 H   0  0  0  0  0  0  0  0  0  0  0  0
    1.7911   -2.5569    1.5516 H   0  0  0  0  0  0  0  0  0  0  0  0
    4.0287   -3.0192    3.1177 H   0  0  0  0  0  0  0  0  0  0  0  0
    5.8038   -1.0488    2.3493 H   0  0  0  0  0  0  0  0  0  0  0  0
  1  2  2  0
  2  3  1  0
  2  7  1  0
  3  4  1  0
  3 12  1  0
  4  5  1  0
  4 13  1  0
  4 14  1  0
  5  6  1  0
  5 15  1  0
  5 16  1  0
  7  8  2  0
  7 11  1  0
  8  9  1  0
  8 17  1  0
  9 10  2  0
  9 18  1  0
 10 11  1  0
 10 19  1  0
M  END

