
     RDKit          3D

 26 27  0  0  0  0  0  0  0  0999 V2000
    1.2197   -0.0766   -0.5063 N   0  0  0  0  0  0  0  0  0  0  0  0
    2.5715    0.0052   -0.2822 C   0  0  0  0  0  0  0  0  0  0  0  0
    3.2882    1.2235   -0.3086 C   0  0  0  0  0  0  0  0  0  0  0  0
    2.3538    2.8429   -0.7306 Br  0  0  0  0  0  0  0  0  0  0  0  0
    4.6558    1.2973   -0.0449 C   0  0  0  0  0  0  0  0  0  0  0  0
    5.3501    0.1253    0.2506 C   0  0  0  0  0  0  0  0  0  0  0  0
    7.2256    0.1979    0.6045 Br  0  0  0  0  0  0  0  0  0  0  0  0
    4.6791   -1.0998    0.2873 C   0  0  0  0  0  0  0  0  0  0  0  0
    3.3081   -1.1734    0.0354 C   0  0  0  0  0  0  0  0  0  0  0  0
    2.5790   -2.4955    0.1581 C   0  0  0  0  0  0  0  0  0  0  0  0
    1.7992   -2.8371   -1.0217 N   0  0  0  0  0  0  0  0  0  0  0  0
    2.4858   -3.1968   -2.2800 C   0  0  0  0  0  0  0  0  0  0  0  0
    1.3883   -4.2547   -2.5393 C   0  0  0  0  0  0  0  0  0  0  0  0
    1.0434   -4.1047   -1.0398 C   0  0  0  0  0  0  0  0  0  0  0  0
    0.7768    0.7446   -0.9022 H   0  0  0  0  0  0  0  0  0  0  0  0
    0.9179   -0.9838   -0.8695 H   0  0  0  0  0  0  0  0  0  0  0  0
    5.1680    2.2587   -0.0788 H   0  0  0  0  0  0  0  0  0  0  0  0
    5.2291   -2.0123    0.5258 H   0  0  0  0  0  0  0  0  0  0  0  0
    1.8692   -2.4380    1.0051 H   0  0  0  0  0  0  0  0  0  0  0  0
    3.3120   -3.2940    0.4067 H   0  0  0  0  0  0  0  0  0  0  0  0
    3.4808   -3.6551   -2.1076 H   0  0  0  0  0  0  0  0  0  0  0  0
    2.6016   -2.3739   -3.0041 H   0  0  0  0  0  0  0  0  0  0  0  0
    1.7171   -5.2454   -2.8813 H   0  0  0  0  0  0  0  0  0  0  0  0
    0.5893   -3.8883   -3.1994 H   0  0  0  0  0  0  0  0  0  0  0  0
    1.5177   -4.8939   -0.4207 H   0  0  0  0  0  0  0  0  0  0  0  0
   -0.0181   -4.0242   -0.7505 H   0  0  0  0  0  0  0  0  0  0  0  0
  1  2  1  0
  1 15  1  0
  1 16  1  0
  2  3  2  0
  2  9  1  0
  3  4  1  0
  3  5  1  0
  5  6  2  0
  5 17  1  0
  6  7  1  0
  6  8  1  0
  8  9  2  0
  8 18  1  0
  9 10  1  0
 10 11  1  0
 10 19  1  0
 10 20  1  0
 11 12  1  0
 11 14  1  0
 12 13  1  0
 12 21  1  0
 12 22  1  0
 13 14  1  0
 13 23  1  0
 13 24  1  0
 14 25  1  0
 14 26  1  0
M  END

