
     RDKit          3D

 39 39  0  0  0  0  0  0  0  0999 V2000
    0.9472   -0.1261    0.0484 C   0  0  0  0  0  0  0  0  0  0  0  0
    2.4753   -0.1627    0.0241 C   0  0  0  0  0  0  0  0  0  0  0  0
    3.0710    0.2868   -1.3231 C   0  0  0  0  0  0  0  0  0  0  0  0
    4.5832    0.2526   -1.3542 C   0  0  0  0  0  0  0  0  0  0  0  0
    5.3418    1.3672   -0.9555 C   0  0  0  0  0  0  0  0  0  0  0  0
    6.7383    1.3221   -0.9442 C   0  0  0  0  0  0  0  0  0  0  0  0
    7.4106    0.1639   -1.3380 C   0  0  0  0  0  0  0  0  0  0  0  0
    6.6744   -0.9624   -1.7475 C   0  0  0  0  0  0  0  0  0  0  0  0
    7.3130   -2.2396   -2.2110 C   0  0  0  0  0  0  0  0  0  0  0  0
    6.6359   -3.2170   -2.4709 O   0  0  0  0  0  0  0  0  0  0  0  0
    8.8579   -2.2885   -2.3308 C   0  0  1  0  0  0  0  0  0  0  0  0
    9.4352   -2.1048   -1.0410 O   0  0  0  0  0  0  0  0  0  0  0  0
    9.1108   -3.0610   -0.0532 C   0  0  0  0  0  0  0  0  0  0  0  0
    9.3781   -3.5268   -3.0859 C   0  0  1  0  0  0  0  0  0  0  0  0
    8.9416   -3.4924   -4.5579 C   0  0  0  0  0  0  0  0  0  0  0  0
   10.9051   -3.6258   -2.9769 C   0  0  0  0  0  0  0  0  0  0  0  0
    5.2696   -0.9027   -1.7433 C   0  0  0  0  0  0  0  0  0  0  0  0
    0.5527   -0.4535    1.0235 H   0  0  0  0  0  0  0  0  0  0  0  0
    0.5176   -0.7866   -0.7233 H   0  0  0  0  0  0  0  0  0  0  0  0
    0.5662    0.8917   -0.1403 H   0  0  0  0  0  0  0  0  0  0  0  0
    2.8303   -1.1837    0.2488 H   0  0  0  0  0  0  0  0  0  0  0  0
    2.8792    0.4789    0.8272 H   0  0  0  0  0  0  0  0  0  0  0  0
    2.7209    1.3096   -1.5466 H   0  0  0  0  0  0  0  0  0  0  0  0
    2.6733   -0.3597   -2.1240 H   0  0  0  0  0  0  0  0  0  0  0  0
    4.8289    2.2850   -0.6521 H   0  0  0  0  0  0  0  0  0  0  0  0
    7.3081    2.1986   -0.6252 H   0  0  0  0  0  0  0  0  0  0  0  0
    8.4992    0.1252   -1.2979 H   0  0  0  0  0  0  0  0  0  0  0  0
    9.1766   -1.3923   -2.8912 H   0  0  0  0  0  0  0  0  0  0  0  0
    9.5918   -2.7283    0.8780 H   0  0  0  0  0  0  0  0  0  0  0  0
    9.4901   -4.0695   -0.2999 H   0  0  0  0  0  0  0  0  0  0  0  0
    8.0221   -3.1377    0.1248 H   0  0  0  0  0  0  0  0  0  0  0  0
    8.9227   -4.4204   -2.6264 H   0  0  0  0  0  0  0  0  0  0  0  0
    9.3411   -2.5987   -5.0688 H   0  0  0  0  0  0  0  0  0  0  0  0
    7.8478   -3.4924   -4.6608 H   0  0  0  0  0  0  0  0  0  0  0  0
    9.3274   -4.3748   -5.0930 H   0  0  0  0  0  0  0  0  0  0  0  0
   11.3912   -2.7505   -3.4411 H   0  0  0  0  0  0  0  0  0  0  0  0
   11.2707   -4.5246   -3.4987 H   0  0  0  0  0  0  0  0  0  0  0  0
   11.2467   -3.6727   -1.9333 H   0  0  0  0  0  0  0  0  0  0  0  0
    4.7228   -1.7922   -2.0658 H   0  0  0  0  0  0  0  0  0  0  0  0
  1  2  1  0
  1 18  1  0
  1 19  1  0
  1 20  1  0
  2  3  1  0
  2 21  1  0
  2 22  1  0
  3  4  1  0
  3 23  1  0
  3 24  1  0
  4  5  2  0
  4 17  1  0
  5  6  1  0
  5 25  1  0
  6  7  2  0
  6 26  1  0
  7  8  1  0
  7 27  1  0
  8  9  1  0
  8 17  2  0
  9 10  2  0
  9 11  1  0
 11 12  1  0
 11 14  1  0
 11 28  1  6
 12 13  1  0
 13 29  1  0
 13 30  1  0
 13 31  1  0
 14 15  1  0
 14 16  1  0
 14 32  1  1
 15 33  1  0
 15 34  1  0
 15 35  1  0
 16 36  1  0
 16 37  1  0
 16 38  1  0
 17 39  1  0
M  END

