
     RDKit          3D

 36 37  0  0  0  0  0  0  0  0999 V2000
    1.2192   -1.6955   -0.6211 C   0  0  0  0  0  0  0  0  0  0  0  0
    1.9392   -0.5003    0.0205 C   0  0  1  0  0  0  0  0  0  0  0  0
    1.9675   -0.6735    1.4611 N   0  0  0  0  0  0  0  0  0  0  0  0
    2.0830    0.3431    2.3822 C   0  0  0  0  0  0  0  0  0  0  0  0
    1.9099    0.0585    3.7596 C   0  0  0  0  0  0  0  0  0  0  0  0
    2.0192    1.0583    4.7160 C   0  0  0  0  0  0  0  0  0  0  0  0
    2.3135    2.3693    4.3188 C   0  0  0  0  0  0  0  0  0  0  0  0
    2.4379    3.6639    5.5482 S   0  0  1  0  0  0  0  0  0  0  0  0
    4.1860    3.6935    6.0155 C   0  0  0  0  0  0  0  0  0  0  0  0
    2.1542    4.9487    4.8909 O   0  0  0  0  0  0  0  0  0  0  0  0
    1.6891    3.2343    6.7394 O   0  0  0  0  0  0  0  0  0  0  0  0
    2.4742    2.6766    2.9649 C   0  0  0  0  0  0  0  0  0  0  0  0
    2.3686    1.6756    2.0024 C   0  0  0  0  0  0  0  0  0  0  0  0
    3.3331   -0.3128   -0.5875 C   0  0  0  0  0  0  0  0  0  0  0  0
    4.4661   -0.8702    0.0218 C   0  0  0  0  0  0  0  0  0  0  0  0
    5.7421   -0.7523   -0.5287 C   0  0  0  0  0  0  0  0  0  0  0  0
    5.9019   -0.0518   -1.7270 C   0  0  0  0  0  0  0  0  0  0  0  0
    7.4891    0.1153   -2.4348 Cl  0  0  0  0  0  0  0  0  0  0  0  0
    4.8024    0.5234   -2.3664 C   0  0  0  0  0  0  0  0  0  0  0  0
    3.5367    0.3833   -1.7911 C   0  0  0  0  0  0  0  0  0  0  0  0
    2.1809    1.1241   -2.6297 Cl  0  0  0  0  0  0  0  0  0  0  0  0
    0.1920   -1.7812   -0.2324 H   0  0  0  0  0  0  0  0  0  0  0  0
    1.7589   -2.6343   -0.4139 H   0  0  0  0  0  0  0  0  0  0  0  0
    1.1654   -1.5688   -1.7109 H   0  0  0  0  0  0  0  0  0  0  0  0
    1.3527    0.4033   -0.2167 H   0  0  0  0  0  0  0  0  0  0  0  0
    1.6725   -1.5731    1.8183 H   0  0  0  0  0  0  0  0  0  0  0  0
    1.6718   -0.9635    4.0688 H   0  0  0  0  0  0  0  0  0  0  0  0
    1.8572    0.8393    5.7734 H   0  0  0  0  0  0  0  0  0  0  0  0
    4.7935    3.9372    5.1345 H   0  0  0  0  0  0  0  0  0  0  0  0
    4.4642    2.7217    6.4430 H   0  0  0  0  0  0  0  0  0  0  0  0
    4.2661    4.4865    6.7725 H   0  0  0  0  0  0  0  0  0  0  0  0
    2.6683    3.7094    2.6678 H   0  0  0  0  0  0  0  0  0  0  0  0
    2.5070    1.9325    0.9521 H   0  0  0  0  0  0  0  0  0  0  0  0
    4.3353   -1.4009    0.9673 H   0  0  0  0  0  0  0  0  0  0  0  0
    6.6089   -1.1934   -0.0347 H   0  0  0  0  0  0  0  0  0  0  0  0
    4.9249    1.0746   -3.2984 H   0  0  0  0  0  0  0  0  0  0  0  0
  1  2  1  0
  1 22  1  0
  1 23  1  0
  1 24  1  0
  2  3  1  0
  2 14  1  0
  2 25  1  1
  3  4  1  0
  3 26  1  0
  4  5  2  0
  4 13  1  0
  5  6  1  0
  5 27  1  0
  6  7  2  0
  6 28  1  0
  7  8  1  0
  7 12  1  0
  8  9  1  1
  8 10  2  0
  8 11  2  0
  9 29  1  0
  9 30  1  0
  9 31  1  0
 12 13  2  0
 12 32  1  0
 13 33  1  0
 14 15  2  0
 14 20  1  0
 15 16  1  0
 15 34  1  0
 16 17  2  0
 16 35  1  0
 17 18  1  0
 17 19  1  0
 19 20  2  0
 19 36  1  0
 20 21  1  0
M  END

