
     RDKit          3D

 11 10  0  0  0  0  0  0  0  0999 V2000
    1.1708    0.1848    0.0369 N   0  0  0  0  0  0  0  0  0  0  0  0
    2.5300   -0.0653    0.0721 C   0  0  0  0  0  0  0  0  0  0  0  0
    3.2902    0.6128   -0.8474 N   0  0  0  0  0  0  0  0  0  0  0  0
    2.9758   -0.9108    0.9526 N   0  0  0  0  0  0  0  0  0  0  0  0
    4.3560   -0.9499    1.0036 N   0  0  0  0  0  0  0  0  0  0  0  0
    5.1577   -1.6028    1.6365 C   0  0  0  0  0  0  0  0  0  0  0  0
    6.0550   -2.1491    2.1659 O   0  0  0  0  0  0  0  0  0  0  0  0
    0.7681    0.2265   -0.8958 H   0  0  0  0  0  0  0  0  0  0  0  0
    0.6504   -0.4222    0.6637 H   0  0  0  0  0  0  0  0  0  0  0  0
    2.9688    1.5389   -1.1070 H   0  0  0  0  0  0  0  0  0  0  0  0
    4.2911    0.5314   -0.6949 H   0  0  0  0  0  0  0  0  0  0  0  0
  1  2  1  0
  1  8  1  0
  1  9  1  0
  2  3  1  0
  2  4  2  0
  3 10  1  0
  3 11  1  0
  4  5  1  0
  5  6  3  0
  6  7  1  0
M  CHG  2   5   1   7  -1
M  END

