
     RDKit          3D

 34 36  0  0  0  0  0  0  0  0999 V2000
    0.9870    0.0806    0.1087 C   0  0  0  0  0  0  0  0  0  0  0  0
    2.4901    0.1005    0.0275 C   0  0  0  0  0  0  0  0  0  0  0  0
    3.2868   -1.0344    0.2322 C   0  0  0  0  0  0  0  0  0  0  0  0
    4.6125   -1.0313    0.1646 N   0  0  0  0  0  0  0  0  0  0  0  0
    5.2102    0.1435   -0.1173 C   0  0  0  0  0  0  0  0  0  0  0  0
    6.5768    0.1667   -0.2020 N   0  0  0  0  0  0  0  0  0  0  0  0
    7.3967   -1.0060    0.0636 C   0  0  0  0  0  0  0  0  0  0  0  0
    8.2425   -1.3397   -1.1660 C   0  0  0  0  0  0  0  0  0  0  0  0
    8.9651   -0.1170   -1.6925 C   0  0  0  0  0  0  0  0  0  0  0  0
   10.0963   -0.2318   -2.5161 C   0  0  0  0  0  0  0  0  0  0  0  0
   10.7605    0.8834   -3.0161 C   0  0  0  0  0  0  0  0  0  0  0  0
   10.3063    2.1811   -2.7028 C   0  0  0  0  0  0  0  0  0  0  0  0
   10.9887    3.3055   -3.1545 N   0  0  0  0  0  0  0  0  0  0  0  0
    9.1747    2.3001   -1.8793 C   0  0  0  0  0  0  0  0  0  0  0  0
    8.5070    1.1751   -1.3788 C   0  0  0  0  0  0  0  0  0  0  0  0
    7.3044    1.3932   -0.4767 C   0  0  0  0  0  0  0  0  0  0  0  0
    4.5484    1.3022   -0.3251 N   0  0  0  0  0  0  0  0  0  0  0  0
    3.2246    1.2623   -0.2557 C   0  0  0  0  0  0  0  0  0  0  0  0
    0.6163   -0.9331    0.3249 H   0  0  0  0  0  0  0  0  0  0  0  0
    0.5208    0.4090   -0.8357 H   0  0  0  0  0  0  0  0  0  0  0  0
    0.6099    0.7467    0.9034 H   0  0  0  0  0  0  0  0  0  0  0  0
    2.8150   -1.9996    0.4635 H   0  0  0  0  0  0  0  0  0  0  0  0
    6.7336   -1.8342    0.3346 H   0  0  0  0  0  0  0  0  0  0  0  0
    8.0577   -0.7951    0.9272 H   0  0  0  0  0  0  0  0  0  0  0  0
    7.5805   -1.7563   -1.9477 H   0  0  0  0  0  0  0  0  0  0  0  0
    8.9669   -2.1334   -0.9160 H   0  0  0  0  0  0  0  0  0  0  0  0
   10.4682   -1.2291   -2.7717 H   0  0  0  0  0  0  0  0  0  0  0  0
   11.6431    0.7575   -3.6500 H   0  0  0  0  0  0  0  0  0  0  0  0
   11.5574    3.1777   -3.9839 H   0  0  0  0  0  0  0  0  0  0  0  0
   10.4603    4.1703   -3.1744 H   0  0  0  0  0  0  0  0  0  0  0  0
    8.8052    3.2986   -1.6220 H   0  0  0  0  0  0  0  0  0  0  0  0
    6.6062    2.1107   -0.9260 H   0  0  0  0  0  0  0  0  0  0  0  0
    7.6487    1.8523    0.4746 H   0  0  0  0  0  0  0  0  0  0  0  0
    2.7024    2.2133   -0.4317 H   0  0  0  0  0  0  0  0  0  0  0  0
  1  2  1  0
  1 19  1  0
  1 20  1  0
  1 21  1  0
  2  3  2  0
  2 18  1  0
  3  4  1  0
  3 22  1  0
  4  5  2  0
  5  6  1  0
  5 17  1  0
  6  7  1  0
  6 16  1  0
  7  8  1  0
  7 23  1  0
  7 24  1  0
  8  9  1  0
  8 25  1  0
  8 26  1  0
  9 10  2  0
  9 15  1  0
 10 11  1  0
 10 27  1  0
 11 12  2  0
 11 28  1  0
 12 13  1  0
 12 14  1  0
 13 29  1  0
 13 30  1  0
 14 15  2  0
 14 31  1  0
 15 16  1  0
 16 32  1  0
 16 33  1  0
 17 18  2  0
 18 34  1  0
M  END

