
     RDKit          3D

 40 40  0  0  0  0  0  0  0  0999 V2000
    0.7478   -3.7067    2.9141 C   0  0  0  0  0  0  0  0  0  0  0  0
    2.0343   -2.9276    3.1914 C   0  0  0  0  0  0  0  0  0  0  0  0
    3.0078   -2.9151    2.0087 C   0  0  0  0  0  0  0  0  0  0  0  0
    4.2853   -2.1187    2.2979 C   0  0  0  0  0  0  0  0  0  0  0  0
    5.2667   -2.1591    1.2216 N   0  0  0  0  0  0  0  0  0  0  0  0
    4.8762   -1.4368    0.0225 C   0  0  0  0  0  0  0  0  0  0  0  0
    6.6623   -2.0192    1.6453 C   0  0  1  0  0  0  0  0  0  0  0  0
    6.9953   -0.7579    2.4725 C   0  0  0  0  0  0  0  0  0  0  0  0
    6.5686    0.4601    1.7931 N   0  0  0  0  0  0  0  0  0  0  0  0
    7.1405   -3.3167    2.3167 C   0  0  0  0  0  0  0  0  0  0  0  0
    7.8345   -3.3642    3.5325 C   0  0  0  0  0  0  0  0  0  0  0  0
    8.2552   -4.5862    4.0681 C   0  0  0  0  0  0  0  0  0  0  0  0
    7.9870   -5.7718    3.3877 C   0  0  0  0  0  0  0  0  0  0  0  0
    8.5885   -7.4175    4.1626 Br  0  0  0  0  0  0  0  0  0  0  0  0
    7.2905   -5.7767    2.1637 C   0  0  0  0  0  0  0  0  0  0  0  0
    6.9871   -7.0459    1.4110 C   0  0  0  0  0  0  0  0  0  0  0  0
    6.8806   -4.5332    1.6650 C   0  0  0  0  0  0  0  0  0  0  0  0
    0.0726   -3.6983    3.7848 H   0  0  0  0  0  0  0  0  0  0  0  0
    0.9626   -4.7605    2.6697 H   0  0  0  0  0  0  0  0  0  0  0  0
    0.1954   -3.2781    2.0608 H   0  0  0  0  0  0  0  0  0  0  0  0
    2.5404   -3.3566    4.0756 H   0  0  0  0  0  0  0  0  0  0  0  0
    1.7818   -1.8872    3.4669 H   0  0  0  0  0  0  0  0  0  0  0  0
    2.4908   -2.4986    1.1263 H   0  0  0  0  0  0  0  0  0  0  0  0
    3.2903   -3.9486    1.7412 H   0  0  0  0  0  0  0  0  0  0  0  0
    4.7542   -2.5502    3.1981 H   0  0  0  0  0  0  0  0  0  0  0  0
    4.0106   -1.0721    2.5590 H   0  0  0  0  0  0  0  0  0  0  0  0
    3.9676   -1.8839   -0.4132 H   0  0  0  0  0  0  0  0  0  0  0  0
    5.6695   -1.5261   -0.7371 H   0  0  0  0  0  0  0  0  0  0  0  0
    4.6890   -0.3586    0.1932 H   0  0  0  0  0  0  0  0  0  0  0  0
    7.2435   -1.9347    0.7073 H   0  0  0  0  0  0  0  0  0  0  0  0
    8.0801   -0.7779    2.7087 H   0  0  0  0  0  0  0  0  0  0  0  0
    6.4701   -0.8078    3.4410 H   0  0  0  0  0  0  0  0  0  0  0  0
    7.1227    0.6143    0.9495 H   0  0  0  0  0  0  0  0  0  0  0  0
    6.7239    1.2729    2.3886 H   0  0  0  0  0  0  0  0  0  0  0  0
    8.0628   -2.4545    4.0889 H   0  0  0  0  0  0  0  0  0  0  0  0
    8.7916   -4.6144    5.0181 H   0  0  0  0  0  0  0  0  0  0  0  0
    6.3850   -7.7392    2.0206 H   0  0  0  0  0  0  0  0  0  0  0  0
    7.9113   -7.5852    1.1460 H   0  0  0  0  0  0  0  0  0  0  0  0
    6.4348   -6.8295    0.4855 H   0  0  0  0  0  0  0  0  0  0  0  0
    6.3148   -4.5024    0.7310 H   0  0  0  0  0  0  0  0  0  0  0  0
  1  2  1  0
  1 18  1  0
  1 19  1  0
  1 20  1  0
  2  3  1  0
  2 21  1  0
  2 22  1  0
  3  4  1  0
  3 23  1  0
  3 24  1  0
  4  5  1  0
  4 25  1  0
  4 26  1  0
  5  6  1  0
  5  7  1  0
  6 27  1  0
  6 28  1  0
  6 29  1  0
  7  8  1  0
  7 10  1  0
  7 30  1  6
  8  9  1  0
  8 31  1  0
  8 32  1  0
  9 33  1  0
  9 34  1  0
 10 11  2  0
 10 17  1  0
 11 12  1  0
 11 35  1  0
 12 13  2  0
 12 36  1  0
 13 14  1  0
 13 15  1  0
 15 16  1  0
 15 17  2  0
 16 37  1  0
 16 38  1  0
 16 39  1  0
 17 40  1  0
M  END

