
     RDKit          3D

 66 68  0  0  0  0  0  0  0  0999 V2000
    6.5936   -4.7418   -5.1008 C   0  0  0  0  0  0  0  0  0  0  0  0
    6.5767   -3.9824   -3.9108 O   0  0  0  0  0  0  0  0  0  0  0  0
    7.2560   -2.7962   -3.8639 C   0  0  0  0  0  0  0  0  0  0  0  0
    7.9388   -2.2191   -4.9320 C   0  0  0  0  0  0  0  0  0  0  0  0
    8.5974   -0.9922   -4.7615 C   0  0  0  0  0  0  0  0  0  0  0  0
    8.5850   -0.3286   -3.5326 C   0  0  0  0  0  0  0  0  0  0  0  0
    9.2854    0.9953   -3.3408 C   0  0  0  0  0  0  0  0  0  0  0  0
    7.8962   -0.9174   -2.4559 C   0  0  0  0  0  0  0  0  0  0  0  0
    7.2355   -2.1391   -2.6057 C   0  0  0  0  0  0  0  0  0  0  0  0
    6.5295   -2.7957   -1.5839 N   0  0  0  0  0  0  0  0  0  0  0  0
    6.3143   -2.4004   -0.2985 C   0  0  0  0  0  0  0  0  0  0  0  0
    6.7175   -1.3672    0.2083 O   0  0  0  0  0  0  0  0  0  0  0  0
    5.5097   -3.3953    0.5592 C   0  0  1  0  0  0  0  0  0  0  0  0
    4.4299   -2.6952    1.3712 C   0  0  0  0  0  0  0  0  0  0  0  0
    4.9334   -4.4062   -0.2973 O   0  0  0  0  0  0  0  0  0  0  0  0
    4.8144   -5.6651    0.1798 C   0  0  0  0  0  0  0  0  0  0  0  0
    5.1641   -5.9975    1.2861 O   0  0  0  0  0  0  0  0  0  0  0  0
    4.2066   -6.5927   -0.8256 C   0  0  0  0  0  0  0  0  0  0  0  0
    4.1050   -7.9507   -0.4844 C   0  0  0  0  0  0  0  0  0  0  0  0
    3.5558   -8.8634   -1.3834 C   0  0  0  0  0  0  0  0  0  0  0  0
    3.0943   -8.4065   -2.6241 C   0  0  0  0  0  0  0  0  0  0  0  0
    2.3585   -9.5875   -3.7787 S   0  0  1  0  0  0  0  0  0  0  0  0
    2.4977   -9.0204   -5.1195 O   0  0  0  0  0  0  0  0  0  0  0  0
    2.9289  -10.8988   -3.4663 O   0  0  0  0  0  0  0  0  0  0  0  0
    0.7049   -9.6672   -3.3850 N   0  0  0  0  0  0  0  0  0  0  0  0
    0.4268  -10.5294   -2.2302 C   0  0  0  0  0  0  0  0  0  0  0  0
   -0.1428   -8.4391   -3.5184 C   0  0  1  0  0  0  0  0  0  0  0  0
   -0.1494   -7.8233   -4.9350 C   0  0  0  0  0  0  0  0  0  0  0  0
   -0.8021   -8.7427   -5.9737 C   0  0  0  0  0  0  0  0  0  0  0  0
   -2.2397   -9.1053   -5.5825 C   0  0  0  0  0  0  0  0  0  0  0  0
   -2.3068   -9.6726   -4.1586 C   0  0  0  0  0  0  0  0  0  0  0  0
   -1.6120   -8.7484   -3.1485 C   0  0  0  0  0  0  0  0  0  0  0  0
    3.1960   -7.0579   -2.9815 C   0  0  0  0  0  0  0  0  0  0  0  0
    3.7522   -6.1506   -2.0784 C   0  0  0  0  0  0  0  0  0  0  0  0
    6.0156   -5.6539   -4.9006 H   0  0  0  0  0  0  0  0  0  0  0  0
    7.6220   -5.0234   -5.3883 H   0  0  0  0  0  0  0  0  0  0  0  0
    6.1258   -4.1959   -5.9394 H   0  0  0  0  0  0  0  0  0  0  0  0
    7.9660   -2.7127   -5.9037 H   0  0  0  0  0  0  0  0  0  0  0  0
    9.1283   -0.5542   -5.6109 H   0  0  0  0  0  0  0  0  0  0  0  0
    9.8239    1.3030   -4.2494 H   0  0  0  0  0  0  0  0  0  0  0  0
   10.0147    0.9482   -2.5151 H   0  0  0  0  0  0  0  0  0  0  0  0
    8.5688    1.7951   -3.0877 H   0  0  0  0  0  0  0  0  0  0  0  0
    7.8651   -0.4317   -1.4819 H   0  0  0  0  0  0  0  0  0  0  0  0
    6.1206   -3.6829   -1.8590 H   0  0  0  0  0  0  0  0  0  0  0  0
    6.2198   -3.8927    1.2394 H   0  0  0  0  0  0  0  0  0  0  0  0
    3.6585   -2.2732    0.7087 H   0  0  0  0  0  0  0  0  0  0  0  0
    4.8900   -1.8749    1.9386 H   0  0  0  0  0  0  0  0  0  0  0  0
    3.9605   -3.4008    2.0715 H   0  0  0  0  0  0  0  0  0  0  0  0
    4.4757   -8.2747    0.4898 H   0  0  0  0  0  0  0  0  0  0  0  0
    3.5049   -9.9264   -1.1433 H   0  0  0  0  0  0  0  0  0  0  0  0
    1.1705  -11.3320   -2.2000 H   0  0  0  0  0  0  0  0  0  0  0  0
   -0.5586  -10.9990   -2.3458 H   0  0  0  0  0  0  0  0  0  0  0  0
    0.4445   -9.9781   -1.2700 H   0  0  0  0  0  0  0  0  0  0  0  0
    0.2274   -7.6790   -2.8003 H   0  0  0  0  0  0  0  0  0  0  0  0
    0.8584   -7.5462   -5.2601 H   0  0  0  0  0  0  0  0  0  0  0  0
   -0.7296   -6.8864   -4.8550 H   0  0  0  0  0  0  0  0  0  0  0  0
   -0.1916   -9.6558   -6.0683 H   0  0  0  0  0  0  0  0  0  0  0  0
   -0.7858   -8.2530   -6.9615 H   0  0  0  0  0  0  0  0  0  0  0  0
   -2.6670   -9.8254   -6.3002 H   0  0  0  0  0  0  0  0  0  0  0  0
   -2.8710   -8.1989   -5.6394 H   0  0  0  0  0  0  0  0  0  0  0  0
   -1.8288  -10.6675   -4.1426 H   0  0  0  0  0  0  0  0  0  0  0  0
   -3.3557   -9.8271   -3.8545 H   0  0  0  0  0  0  0  0  0  0  0  0
   -1.6989   -9.1417   -2.1254 H   0  0  0  0  0  0  0  0  0  0  0  0
   -2.1309   -7.7746   -3.1338 H   0  0  0  0  0  0  0  0  0  0  0  0
    2.8610   -6.7295   -3.9665 H   0  0  0  0  0  0  0  0  0  0  0  0
    3.8435   -5.0978   -2.3473 H   0  0  0  0  0  0  0  0  0  0  0  0
  1  2  1  0
  1 35  1  0
  1 36  1  0
  1 37  1  0
  2  3  1  0
  3  4  2  0
  3  9  1  0
  4  5  1  0
  4 38  1  0
  5  6  2  0
  5 39  1  0
  6  7  1  0
  6  8  1  0
  7 40  1  0
  7 41  1  0
  7 42  1  0
  8  9  2  0
  8 43  1  0
  9 10  1  0
 10 11  1  0
 10 44  1  0
 11 12  2  0
 11 13  1  0
 13 14  1  0
 13 15  1  0
 13 45  1  1
 14 46  1  0
 14 47  1  0
 14 48  1  0
 15 16  1  0
 16 17  2  0
 16 18  1  0
 18 19  2  0
 18 34  1  0
 19 20  1  0
 19 49  1  0
 20 21  2  0
 20 50  1  0
 21 22  1  0
 21 33  1  0
 22 23  2  0
 22 24  2  0
 22 25  1  1
 25 26  1  0
 25 27  1  0
 26 51  1  0
 26 52  1  0
 26 53  1  0
 27 28  1  0
 27 32  1  0
 27 54  1  1
 28 29  1  0
 28 55  1  0
 28 56  1  0
 29 30  1  0
 29 57  1  0
 29 58  1  0
 30 31  1  0
 30 59  1  0
 30 60  1  0
 31 32  1  0
 31 61  1  0
 31 62  1  0
 32 63  1  0
 32 64  1  0
 33 34  2  0
 33 65  1  0
 34 66  1  0
M  END

