
     RDKit          3D

 54 57  0  0  0  0  0  0  0  0999 V2000
    2.3083   -0.0873   -2.1469 O   0  0  0  0  0  0  0  0  0  0  0  0
    1.9233    0.5345   -1.1705 C   0  0  0  0  0  0  0  0  0  0  0  0
    0.4380    0.7250   -0.8622 C   0  0  0  0  0  0  0  0  0  0  0  0
   -0.4111   -0.4680   -1.3282 C   0  0  0  0  0  0  0  0  0  0  0  0
   -1.8994   -0.2372   -1.1802 C   0  0  0  0  0  0  0  0  0  0  0  0
   -2.6573    0.2459   -2.2560 C   0  0  0  0  0  0  0  0  0  0  0  0
   -4.0387    0.5055   -2.1475 C   0  0  0  0  0  0  0  0  0  0  0  0
   -4.6284    0.2592   -0.9218 C   0  0  0  0  0  0  0  0  0  0  0  0
   -3.8872   -0.2239    0.1595 C   0  0  0  0  0  0  0  0  0  0  0  0
   -2.5318   -0.4787    0.0636 C   0  0  0  0  0  0  0  0  0  0  0  0
   -4.7097   -0.3588    1.2458 O   0  0  0  0  0  0  0  0  0  0  0  0
   -6.0317   -0.1230    0.7698 C   0  0  0  0  0  0  0  0  0  0  0  0
   -5.9302    0.4383   -0.5343 O   0  0  0  0  0  0  0  0  0  0  0  0
    2.7778    1.1314   -0.2832 N   0  0  0  0  0  0  0  0  0  0  0  0
    4.2195    1.1455   -0.4533 C   0  0  0  0  0  0  0  0  0  0  0  0
    4.7660    2.5386   -0.7881 C   0  0  0  0  0  0  0  0  0  0  0  0
    6.3058    2.5846   -0.8819 C   0  0  1  0  0  0  0  0  0  0  0  0
    6.8386    1.7119   -2.0206 C   0  0  0  0  0  0  0  0  0  0  0  0
    6.6280    2.0647   -3.3638 C   0  0  0  0  0  0  0  0  0  0  0  0
    7.0988    1.2559   -4.3998 C   0  0  0  0  0  0  0  0  0  0  0  0
    7.7956    0.0770   -4.1132 C   0  0  0  0  0  0  0  0  0  0  0  0
    8.0162   -0.2839   -2.7825 C   0  0  0  0  0  0  0  0  0  0  0  0
    7.5404    0.5285   -1.7475 C   0  0  0  0  0  0  0  0  0  0  0  0
    6.8745    4.0029   -0.9533 C   0  0  0  0  0  0  0  0  0  0  0  0
    8.1995    4.2263   -0.5394 C   0  0  0  0  0  0  0  0  0  0  0  0
    8.7743    5.4962   -0.6039 C   0  0  0  0  0  0  0  0  0  0  0  0
    8.0324    6.5790   -1.0885 C   0  0  0  0  0  0  0  0  0  0  0  0
    6.7152    6.3743   -1.5026 C   0  0  0  0  0  0  0  0  0  0  0  0
    6.1418    5.0990   -1.4337 C   0  0  0  0  0  0  0  0  0  0  0  0
    0.1087    1.6353   -1.3951 H   0  0  0  0  0  0  0  0  0  0  0  0
    0.2815    0.9236    0.2117 H   0  0  0  0  0  0  0  0  0  0  0  0
   -0.1113   -1.3640   -0.7591 H   0  0  0  0  0  0  0  0  0  0  0  0
   -0.1538   -0.6716   -2.3778 H   0  0  0  0  0  0  0  0  0  0  0  0
   -2.1633    0.4196   -3.2156 H   0  0  0  0  0  0  0  0  0  0  0  0
   -4.6208    0.8794   -2.9912 H   0  0  0  0  0  0  0  0  0  0  0  0
   -1.9744   -0.8611    0.9214 H   0  0  0  0  0  0  0  0  0  0  0  0
   -6.5480    0.5832    1.4406 H   0  0  0  0  0  0  0  0  0  0  0  0
   -6.5870   -1.0817    0.7224 H   0  0  0  0  0  0  0  0  0  0  0  0
    2.3797    1.6475    0.4923 H   0  0  0  0  0  0  0  0  0  0  0  0
    4.4440    0.4359   -1.2615 H   0  0  0  0  0  0  0  0  0  0  0  0
    4.7019    0.7644    0.4654 H   0  0  0  0  0  0  0  0  0  0  0  0
    4.4393    3.2539   -0.0123 H   0  0  0  0  0  0  0  0  0  0  0  0
    4.3108    2.8711   -1.7355 H   0  0  0  0  0  0  0  0  0  0  0  0
    6.6941    2.1452    0.0533 H   0  0  0  0  0  0  0  0  0  0  0  0
    6.0974    2.9898   -3.6040 H   0  0  0  0  0  0  0  0  0  0  0  0
    6.9228    1.5486   -5.4383 H   0  0  0  0  0  0  0  0  0  0  0  0
    8.1645   -0.5557   -4.9245 H   0  0  0  0  0  0  0  0  0  0  0  0
    8.5597   -1.2023   -2.5453 H   0  0  0  0  0  0  0  0  0  0  0  0
    7.7170    0.2358   -0.7081 H   0  0  0  0  0  0  0  0  0  0  0  0
    8.7905    3.3859   -0.1637 H   0  0  0  0  0  0  0  0  0  0  0  0
    9.8059    5.6426   -0.2730 H   0  0  0  0  0  0  0  0  0  0  0  0
    8.4791    7.5752   -1.1401 H   0  0  0  0  0  0  0  0  0  0  0  0
    6.1235    7.2121   -1.8812 H   0  0  0  0  0  0  0  0  0  0  0  0
    5.1081    4.9687   -1.7599 H   0  0  0  0  0  0  0  0  0  0  0  0
  1  2  2  0
  2  3  1  0
  2 14  1  0
  3  4  1  0
  3 30  1  0
  3 31  1  0
  4  5  1  0
  4 32  1  0
  4 33  1  0
  5  6  2  0
  5 10  1  0
  6  7  1  0
  6 34  1  0
  7  8  2  0
  7 35  1  0
  8  9  1  0
  8 13  1  0
  9 10  2  0
  9 11  1  0
 10 36  1  0
 11 12  1  0
 12 13  1  0
 12 37  1  0
 12 38  1  0
 14 15  1  0
 14 39  1  0
 15 16  1  0
 15 40  1  0
 15 41  1  0
 16 17  1  0
 16 42  1  0
 16 43  1  0
 17 18  1  0
 17 24  1  0
 17 44  1  1
 18 19  2  0
 18 23  1  0
 19 20  1  0
 19 45  1  0
 20 21  2  0
 20 46  1  0
 21 22  1  0
 21 47  1  0
 22 23  2  0
 22 48  1  0
 23 49  1  0
 24 25  2  0
 24 29  1  0
 25 26  1  0
 25 50  1  0
 26 27  2  0
 26 51  1  0
 27 28  1  0
 27 52  1  0
 28 29  2  0
 28 53  1  0
 29 54  1  0
M  END

