
     RDKit          3D

 45 46  0  0  0  0  0  0  0  0999 V2000
    7.3769   -4.6220   -6.9098 C   0  0  0  0  0  0  0  0  0  0  0  0
    7.2821   -5.5587   -5.7108 C   0  0  0  0  0  0  0  0  0  0  0  0
    6.5061   -4.9669   -4.6336 N   0  0  0  0  0  0  0  0  0  0  0  0
    6.3695   -5.7984   -3.4523 C   0  0  0  0  0  0  0  0  0  0  0  0
    5.6066   -5.1076   -2.3382 C   0  0  0  0  0  0  0  0  0  0  0  0
    5.7410   -3.7276   -2.1205 C   0  0  0  0  0  0  0  0  0  0  0  0
    5.0595   -3.1216   -1.0640 C   0  0  0  0  0  0  0  0  0  0  0  0
    4.2391   -3.8564   -0.2039 C   0  0  0  0  0  0  0  0  0  0  0  0
    4.0963   -5.2378   -0.4168 C   0  0  0  0  0  0  0  0  0  0  0  0
    3.2880   -6.0704    0.3870 N   0  0  0  0  0  0  0  0  0  0  0  0
    2.4950   -5.7463    1.4612 C   0  0  0  0  0  0  0  0  0  0  0  0
    2.3997   -4.6131    1.9105 O   0  0  0  0  0  0  0  0  0  0  0  0
    1.7223   -6.9281    2.0452 C   0  0  0  0  0  0  0  0  0  0  0  0
    1.7349   -6.9521    3.5948 C   0  0  1  0  0  0  0  0  0  0  0  0
    1.1108   -5.7938    4.2274 N   0  0  0  0  0  0  0  0  0  0  0  0
    1.1389   -8.2286    4.1913 C   0  0  0  0  0  0  0  0  0  0  0  0
    1.1417   -8.3590    5.5925 C   0  0  0  0  0  0  0  0  0  0  0  0
    0.6204   -9.4950    6.2106 C   0  0  0  0  0  0  0  0  0  0  0  0
    0.0742  -10.5289    5.4402 C   0  0  0  0  0  0  0  0  0  0  0  0
    0.0551  -10.4088    4.0507 C   0  0  0  0  0  0  0  0  0  0  0  0
    0.5829   -9.2676    3.4322 C   0  0  0  0  0  0  0  0  0  0  0  0
    4.7801   -5.8455   -1.4857 C   0  0  0  0  0  0  0  0  0  0  0  0
    7.9978   -5.0610   -7.7062 H   0  0  0  0  0  0  0  0  0  0  0  0
    7.8155   -3.6563   -6.6142 H   0  0  0  0  0  0  0  0  0  0  0  0
    6.3803   -4.4222   -7.3396 H   0  0  0  0  0  0  0  0  0  0  0  0
    8.2959   -5.7679   -5.3234 H   0  0  0  0  0  0  0  0  0  0  0  0
    6.8780   -6.5447   -6.0404 H   0  0  0  0  0  0  0  0  0  0  0  0
    5.5834   -4.6920   -4.9720 H   0  0  0  0  0  0  0  0  0  0  0  0
    7.3898   -6.0354   -3.0930 H   0  0  0  0  0  0  0  0  0  0  0  0
    5.8951   -6.7856   -3.6588 H   0  0  0  0  0  0  0  0  0  0  0  0
    6.3754   -3.1466   -2.7920 H   0  0  0  0  0  0  0  0  0  0  0  0
    5.1667   -2.0462   -0.8980 H   0  0  0  0  0  0  0  0  0  0  0  0
    3.7097   -3.3827    0.6187 H   0  0  0  0  0  0  0  0  0  0  0  0
    3.2855   -7.0463    0.1162 H   0  0  0  0  0  0  0  0  0  0  0  0
    2.1240   -7.8730    1.6460 H   0  0  0  0  0  0  0  0  0  0  0  0
    0.6784   -6.8467    1.6922 H   0  0  0  0  0  0  0  0  0  0  0  0
    2.8007   -6.9338    3.8943 H   0  0  0  0  0  0  0  0  0  0  0  0
    0.1049   -5.8044    4.0484 H   0  0  0  0  0  0  0  0  0  0  0  0
    1.4809   -4.9459    3.7941 H   0  0  0  0  0  0  0  0  0  0  0  0
    1.5459   -7.5397    6.1909 H   0  0  0  0  0  0  0  0  0  0  0  0
    0.6372   -9.5753    7.3009 H   0  0  0  0  0  0  0  0  0  0  0  0
   -0.3362  -11.4196    5.9229 H   0  0  0  0  0  0  0  0  0  0  0  0
   -0.3748  -11.2050    3.4370 H   0  0  0  0  0  0  0  0  0  0  0  0
    0.5474   -9.2042    2.3432 H   0  0  0  0  0  0  0  0  0  0  0  0
    4.6607   -6.9212   -1.6560 H   0  0  0  0  0  0  0  0  0  0  0  0
  1  2  1  0
  1 23  1  0
  1 24  1  0
  1 25  1  0
  2  3  1  0
  2 26  1  0
  2 27  1  0
  3  4  1  0
  3 28  1  0
  4  5  1  0
  4 29  1  0
  4 30  1  0
  5  6  2  0
  5 22  1  0
  6  7  1  0
  6 31  1  0
  7  8  2  0
  7 32  1  0
  8  9  1  0
  8 33  1  0
  9 10  1  0
  9 22  2  0
 10 11  1  0
 10 34  1  0
 11 12  2  0
 11 13  1  0
 13 14  1  0
 13 35  1  0
 13 36  1  0
 14 15  1  0
 14 16  1  0
 14 37  1  1
 15 38  1  0
 15 39  1  0
 16 17  2  0
 16 21  1  0
 17 18  1  0
 17 40  1  0
 18 19  2  0
 18 41  1  0
 19 20  1  0
 19 42  1  0
 20 21  2  0
 20 43  1  0
 21 44  1  0
 22 45  1  0
M  END

