
     RDKit          3D

 50 53  0  0  0  0  0  0  0  0999 V2000
    1.5455    1.2066   -0.8362 C   0  0  0  0  0  0  0  0  0  0  0  0
    2.8728    0.5195   -1.0472 C   0  0  0  0  0  0  0  0  0  0  0  0
    3.9029    1.1134   -1.7897 C   0  0  0  0  0  0  0  0  0  0  0  0
    5.1319    0.4759   -1.9652 C   0  0  0  0  0  0  0  0  0  0  0  0
    5.3750   -0.7898   -1.4122 C   0  0  0  0  0  0  0  0  0  0  0  0
    6.9562   -1.6023   -1.5917 S   0  0  0  0  0  0  0  0  0  0  0  0
    4.3394   -1.4164   -0.6845 C   0  0  0  0  0  0  0  0  0  0  0  0
    4.5938   -2.7349    0.0039 C   0  0  0  0  0  0  0  0  0  0  0  0
    5.5553   -2.8517    0.7507 O   0  0  0  0  0  0  0  0  0  0  0  0
    3.6935   -3.7561   -0.2052 N   0  0  0  0  0  0  0  0  0  0  0  0
    2.7813   -3.8623   -1.3422 C   0  0  0  0  0  0  0  0  0  0  0  0
    3.1999   -5.0132   -2.2683 C   0  0  0  0  0  0  0  0  0  0  0  0
    3.3532   -6.2470   -1.5072 N   0  0  0  0  0  0  0  0  0  0  0  0
    2.6014   -7.3342   -1.8343 C   0  0  0  0  0  0  0  0  0  0  0  0
    1.8164   -7.3738   -2.7704 O   0  0  0  0  0  0  0  0  0  0  0  0
    2.6159   -8.5516   -0.8940 C   0  0  0  0  0  0  0  0  0  0  0  0
    2.3165   -8.3973    0.2817 O   0  0  0  0  0  0  0  0  0  0  0  0
    2.7782   -9.8824   -1.4928 C   0  0  0  0  0  0  0  0  0  0  0  0
    2.2909  -11.0188   -0.8663 C   0  0  0  0  0  0  0  0  0  0  0  0
    2.5307  -12.1158   -1.6373 N   0  0  0  0  0  0  0  0  0  0  0  0
    2.2477  -13.0606   -1.4104 H   0  0  0  0  0  0  0  0  0  0  0  0
    3.2029  -11.7451   -2.7907 C   0  0  0  0  0  0  0  0  0  0  0  0
    3.6664  -12.5367   -3.8502 C   0  0  0  0  0  0  0  0  0  0  0  0
    4.3481  -11.8915   -4.8772 C   0  0  0  0  0  0  0  0  0  0  0  0
    4.5781  -10.5014   -4.8409 C   0  0  0  0  0  0  0  0  0  0  0  0
    4.1111   -9.7450   -3.7770 C   0  0  0  0  0  0  0  0  0  0  0  0
    4.3856   -8.4324   -3.7391 F   0  0  0  0  0  0  0  0  0  0  0  0
    3.3833  -10.3346   -2.7306 C   0  0  0  0  0  0  0  0  0  0  0  0
    4.2875   -6.1451   -0.3905 C   0  0  0  0  0  0  0  0  0  0  0  0
    3.8648   -5.0031    0.5394 C   0  0  0  0  0  0  0  0  0  0  0  0
    3.1188   -0.7510   -0.5082 C   0  0  0  0  0  0  0  0  0  0  0  0
    1.5538    2.2310   -1.2367 H   0  0  0  0  0  0  0  0  0  0  0  0
    1.2886    1.2655    0.2343 H   0  0  0  0  0  0  0  0  0  0  0  0
    0.7255    0.6611   -1.3338 H   0  0  0  0  0  0  0  0  0  0  0  0
    3.7503    2.1026   -2.2307 H   0  0  0  0  0  0  0  0  0  0  0  0
    5.9199    0.9792   -2.5309 H   0  0  0  0  0  0  0  0  0  0  0  0
    7.3160   -0.9106   -2.6991 H   0  0  0  0  0  0  0  0  0  0  0  0
    2.7750   -2.9219   -1.9052 H   0  0  0  0  0  0  0  0  0  0  0  0
    1.7562   -4.0468   -0.9728 H   0  0  0  0  0  0  0  0  0  0  0  0
    4.1608   -4.7610   -2.7529 H   0  0  0  0  0  0  0  0  0  0  0  0
    2.4462   -5.1867   -3.0470 H   0  0  0  0  0  0  0  0  0  0  0  0
    1.7632  -11.0811    0.0830 H   0  0  0  0  0  0  0  0  0  0  0  0
    3.5046  -13.6165   -3.8666 H   0  0  0  0  0  0  0  0  0  0  0  0
    4.7246  -12.4699   -5.7238 H   0  0  0  0  0  0  0  0  0  0  0  0
    5.1320   -9.9991   -5.6359 H   0  0  0  0  0  0  0  0  0  0  0  0
    5.2987   -5.9399   -0.7864 H   0  0  0  0  0  0  0  0  0  0  0  0
    4.3185   -7.0864    0.1678 H   0  0  0  0  0  0  0  0  0  0  0  0
    4.6233   -4.8325    1.3127 H   0  0  0  0  0  0  0  0  0  0  0  0
    2.9067   -5.2742    1.0163 H   0  0  0  0  0  0  0  0  0  0  0  0
    2.3373   -1.2434    0.0785 H   0  0  0  0  0  0  0  0  0  0  0  0
  1  2  1  0
  1 32  1  0
  1 33  1  0
  1 34  1  0
  2  3  1  0
  2 31  2  0
  3  4  2  0
  3 35  1  0
  4  5  1  0
  4 36  1  0
  5  6  2  0
  5  7  1  0
  6 37  1  0
  7  8  2  0
  7 31  1  0
  8  9  1  0
  8 10  1  0
 10 11  1  0
 10 30  1  0
 11 12  1  0
 11 38  1  0
 11 39  1  0
 12 13  1  0
 12 40  1  0
 12 41  1  0
 13 14  1  0
 13 29  1  0
 14 15  2  0
 14 16  1  0
 16 17  2  0
 16 18  1  0
 18 19  2  0
 18 28  1  0
 19 20  1  0
 19 42  1  0
 20 21  1  0
 20 22  1  0
 22 23  1  0
 22 28  2  0
 23 24  2  0
 23 43  1  0
 24 25  1  0
 24 44  1  0
 25 26  2  0
 25 45  1  0
 26 27  1  0
 26 28  1  0
 29 30  1  0
 29 46  1  0
 29 47  1  0
 30 48  1  0
 30 49  1  0
 31 50  1  0
M  CHG  2   6   1   9  -1
M  END

