
     RDKit          3D

 53 55  0  0  0  0  0  0  0  0999 V2000
   -1.0949   -2.5709    2.0894 C   0  0  0  0  0  0  0  0  0  0  0  0
   -0.5958   -1.4301    1.1995 C   0  0  0  0  0  0  0  0  0  0  0  0
    0.9159   -1.4686    0.8809 C   0  0  1  0  0  0  0  0  0  0  0  0
    1.3643   -2.7682    0.1630 C   0  0  0  0  0  0  0  0  0  0  0  0
    0.6771   -3.0540   -1.0828 N   0  0  0  0  0  0  0  0  0  0  0  0
    1.3329   -3.1875   -2.2639 C   0  0  0  0  0  0  0  0  0  0  0  0
    2.5372   -3.0697   -2.4181 O   0  0  0  0  0  0  0  0  0  0  0  0
    0.4436   -3.5653   -3.4618 C   0  0  0  0  0  0  0  0  0  0  0  0
   -0.7094   -2.2611   -4.0638 S   0  0  0  0  0  0  0  0  0  0  0  0
   -2.1028   -2.5594   -3.0360 C   0  0  0  0  0  0  0  0  0  0  0  0
   -2.1587   -3.1996   -1.8937 N   0  0  0  0  0  0  0  0  0  0  0  0
   -3.4598   -3.1917   -1.4718 N   0  0  0  0  0  0  0  0  0  0  0  0
   -4.1916   -2.5437   -2.3544 C   0  0  0  0  0  0  0  0  0  0  0  0
   -5.6404   -2.3317   -2.2124 C   0  0  0  0  0  0  0  0  0  0  0  0
   -6.4346   -1.6395   -3.1420 C   0  0  0  0  0  0  0  0  0  0  0  0
   -7.8062   -1.4856   -2.9225 C   0  0  0  0  0  0  0  0  0  0  0  0
   -8.4319   -2.0087   -1.7835 C   0  0  0  0  0  0  0  0  0  0  0  0
   -9.9111   -1.8388   -1.5436 C   0  0  0  0  0  0  0  0  0  0  0  0
   -7.6290   -2.7023   -0.8587 C   0  0  0  0  0  0  0  0  0  0  0  0
   -6.2639   -2.8630   -1.0633 C   0  0  0  0  0  0  0  0  0  0  0  0
   -3.3577   -2.1150   -3.3818 N   0  0  0  0  0  0  0  0  0  0  0  0
   -3.7003   -1.4306   -4.5418 N   0  0  0  0  0  0  0  0  0  0  0  0
    1.3898   -0.2129    0.1633 C   0  0  0  0  0  0  0  0  0  0  0  0
    2.4580    0.5350    0.6859 C   0  0  0  0  0  0  0  0  0  0  0  0
    2.9221    1.6871    0.0451 C   0  0  0  0  0  0  0  0  0  0  0  0
    2.3235    2.1177   -1.1416 C   0  0  0  0  0  0  0  0  0  0  0  0
    1.2598    1.3852   -1.6761 C   0  0  0  0  0  0  0  0  0  0  0  0
    0.7973    0.2353   -1.0302 C   0  0  0  0  0  0  0  0  0  0  0  0
   -2.1562   -2.4277    2.3458 H   0  0  0  0  0  0  0  0  0  0  0  0
   -0.5271   -2.6255    3.0339 H   0  0  0  0  0  0  0  0  0  0  0  0
   -1.0171   -3.5525    1.5956 H   0  0  0  0  0  0  0  0  0  0  0  0
   -0.8105   -0.4655    1.6899 H   0  0  0  0  0  0  0  0  0  0  0  0
   -1.1772   -1.4240    0.2623 H   0  0  0  0  0  0  0  0  0  0  0  0
    1.4456   -1.4949    1.8502 H   0  0  0  0  0  0  0  0  0  0  0  0
    1.2272   -3.6174    0.8559 H   0  0  0  0  0  0  0  0  0  0  0  0
    2.4357   -2.7096   -0.0721 H   0  0  0  0  0  0  0  0  0  0  0  0
   -0.3337   -3.2278   -1.0800 H   0  0  0  0  0  0  0  0  0  0  0  0
   -0.1549   -4.4650   -3.2560 H   0  0  0  0  0  0  0  0  0  0  0  0
    1.1140   -3.7497   -4.3102 H   0  0  0  0  0  0  0  0  0  0  0  0
   -5.9784   -1.2251   -4.0393 H   0  0  0  0  0  0  0  0  0  0  0  0
   -8.4032   -0.9430   -3.6612 H   0  0  0  0  0  0  0  0  0  0  0  0
  -10.4005   -1.3142   -2.3773 H   0  0  0  0  0  0  0  0  0  0  0  0
  -10.1019   -1.2609   -0.6234 H   0  0  0  0  0  0  0  0  0  0  0  0
  -10.4103   -2.8140   -1.4170 H   0  0  0  0  0  0  0  0  0  0  0  0
   -8.0868   -3.1245    0.0408 H   0  0  0  0  0  0  0  0  0  0  0  0
   -5.6517   -3.4028   -0.3395 H   0  0  0  0  0  0  0  0  0  0  0  0
   -3.3731   -1.9576   -5.3539 H   0  0  0  0  0  0  0  0  0  0  0  0
   -3.2518   -0.5129   -4.5478 H   0  0  0  0  0  0  0  0  0  0  0  0
    2.9353    0.2074    1.6145 H   0  0  0  0  0  0  0  0  0  0  0  0
    3.7546    2.2499    0.4760 H   0  0  0  0  0  0  0  0  0  0  0  0
    2.6837    3.0175   -1.6471 H   0  0  0  0  0  0  0  0  0  0  0  0
    0.7864    1.7087   -2.6072 H   0  0  0  0  0  0  0  0  0  0  0  0
   -0.0304   -0.3241   -1.4691 H   0  0  0  0  0  0  0  0  0  0  0  0
  1  2  1  0
  1 29  1  0
  1 30  1  0
  1 31  1  0
  2  3  1  0
  2 32  1  0
  2 33  1  0
  3  4  1  0
  3 23  1  0
  3 34  1  1
  4  5  1  0
  4 35  1  0
  4 36  1  0
  5  6  1  0
  5 37  1  0
  6  7  2  0
  6  8  1  0
  8  9  1  0
  8 38  1  0
  8 39  1  0
  9 10  1  0
 10 11  2  0
 10 21  1  0
 11 12  1  0
 12 13  2  0
 13 14  1  0
 13 21  1  0
 14 15  2  0
 14 20  1  0
 15 16  1  0
 15 40  1  0
 16 17  2  0
 16 41  1  0
 17 18  1  0
 17 19  1  0
 18 42  1  0
 18 43  1  0
 18 44  1  0
 19 20  2  0
 19 45  1  0
 20 46  1  0
 21 22  1  0
 22 47  1  0
 22 48  1  0
 23 24  2  0
 23 28  1  0
 24 25  1  0
 24 49  1  0
 25 26  2  0
 25 50  1  0
 26 27  1  0
 26 51  1  0
 27 28  2  0
 27 52  1  0
 28 53  1  0
M  END

