
     RDKit          3D

 55 58  0  0  0  0  0  0  0  0999 V2000
    3.2629   -0.4881    2.4840 C   0  0  0  0  0  0  0  0  0  0  0  0
    3.9809   -0.2255    1.2770 O   0  0  0  0  0  0  0  0  0  0  0  0
    3.4587    0.6967    0.4509 C   0  0  0  0  0  0  0  0  0  0  0  0
    2.4521    1.3152    0.7004 O   0  0  0  0  0  0  0  0  0  0  0  0
    4.3327    0.8516   -0.8117 C   0  0  1  0  0  0  0  0  0  0  0  0
    4.2182   -0.3886   -1.6981 C   0  0  0  0  0  0  0  0  0  0  0  0
    3.0401   -1.1483   -1.7589 C   0  0  0  0  0  0  0  0  0  0  0  0
    2.9227   -2.2569   -2.6010 C   0  0  0  0  0  0  0  0  0  0  0  0
    3.9978   -2.6282   -3.4105 C   0  0  0  0  0  0  0  0  0  0  0  0
    5.1828   -1.8900   -3.3744 C   0  0  0  0  0  0  0  0  0  0  0  0
    5.2836   -0.7820   -2.5292 C   0  0  0  0  0  0  0  0  0  0  0  0
    6.7943    0.1087   -2.5208 Cl  0  0  0  0  0  0  0  0  0  0  0  0
    4.1555    2.0725   -1.5519 N   0  0  0  0  0  0  0  0  0  0  0  0
    3.0008    2.3310   -2.3996 C   0  0  0  0  0  0  0  0  0  0  0  0
    2.0539    3.3860   -1.8086 C   0  0  0  0  0  0  0  0  0  0  0  0
    2.7937    4.5887   -1.4227 N   0  0  0  0  0  0  0  0  0  0  0  0
    2.5278    5.7762   -2.0743 C   0  0  0  0  0  0  0  0  0  0  0  0
    1.7468    5.8443   -3.0121 O   0  0  0  0  0  0  0  0  0  0  0  0
    3.1830    7.0114   -1.5441 C   0  0  0  0  0  0  0  0  0  0  0  0
    3.2043    7.5184   -0.2259 C   0  0  0  0  0  0  0  0  0  0  0  0
    3.7298    8.7424   -0.1312 N   0  0  0  0  0  0  0  0  0  0  0  0
    4.0678    9.0551   -1.3948 N   0  0  0  0  0  0  0  0  0  0  0  0
    4.6563   10.2281   -1.7885 C   0  0  0  0  0  0  0  0  0  0  0  0
    4.9466   11.2434   -0.7332 C   0  0  0  0  0  0  0  0  0  0  0  0
    4.9199   10.3480   -3.1327 C   0  0  0  0  0  0  0  0  0  0  0  0
    4.5921    9.2830   -4.0346 C   0  0  0  0  0  0  0  0  0  0  0  0
    4.8945    9.4261   -5.5025 C   0  0  0  0  0  0  0  0  0  0  0  0
    4.0285    8.1657   -3.6219 N   0  0  0  0  0  0  0  0  0  0  0  0
    3.7520    8.0403   -2.3134 C   0  0  0  0  0  0  0  0  0  0  0  0
    3.9152    4.3314   -0.5264 C   0  0  0  0  0  0  0  0  0  0  0  0
    4.8518    3.2764   -1.1458 C   0  0  0  0  0  0  0  0  0  0  0  0
    2.2497   -0.8577    2.2639 H   0  0  0  0  0  0  0  0  0  0  0  0
    3.1753    0.4244    3.0930 H   0  0  0  0  0  0  0  0  0  0  0  0
    3.8370   -1.2522    3.0220 H   0  0  0  0  0  0  0  0  0  0  0  0
    5.3665    0.8549   -0.4308 H   0  0  0  0  0  0  0  0  0  0  0  0
    2.1907   -0.8604   -1.1337 H   0  0  0  0  0  0  0  0  0  0  0  0
    1.9906   -2.8259   -2.6250 H   0  0  0  0  0  0  0  0  0  0  0  0
    3.9203   -3.4933   -4.0734 H   0  0  0  0  0  0  0  0  0  0  0  0
    6.0357   -2.1655   -3.9968 H   0  0  0  0  0  0  0  0  0  0  0  0
    2.4503    1.3969   -2.5783 H   0  0  0  0  0  0  0  0  0  0  0  0
    3.3527    2.6924   -3.3865 H   0  0  0  0  0  0  0  0  0  0  0  0
    1.5620    2.9711   -0.9143 H   0  0  0  0  0  0  0  0  0  0  0  0
    1.2993    3.6852   -2.5463 H   0  0  0  0  0  0  0  0  0  0  0  0
    2.8273    7.0330    0.6748 H   0  0  0  0  0  0  0  0  0  0  0  0
    5.6113   10.8181    0.0355 H   0  0  0  0  0  0  0  0  0  0  0  0
    4.0191   11.5281   -0.2113 H   0  0  0  0  0  0  0  0  0  0  0  0
    5.4125   12.1358   -1.1707 H   0  0  0  0  0  0  0  0  0  0  0  0
    5.3858   11.2615   -3.5053 H   0  0  0  0  0  0  0  0  0  0  0  0
    5.9690    9.6096   -5.6705 H   0  0  0  0  0  0  0  0  0  0  0  0
    4.3485   10.2816   -5.9346 H   0  0  0  0  0  0  0  0  0  0  0  0
    4.5979    8.5112   -6.0309 H   0  0  0  0  0  0  0  0  0  0  0  0
    3.5337    3.9662    0.4443 H   0  0  0  0  0  0  0  0  0  0  0  0
    4.4732    5.2595   -0.3528 H   0  0  0  0  0  0  0  0  0  0  0  0
    5.6500    3.0202   -0.4312 H   0  0  0  0  0  0  0  0  0  0  0  0
    5.3398    3.7361   -2.0296 H   0  0  0  0  0  0  0  0  0  0  0  0
  1  2  1  0
  1 32  1  0
  1 33  1  0
  1 34  1  0
  2  3  1  0
  3  4  2  0
  3  5  1  0
  5  6  1  0
  5 13  1  0
  5 35  1  1
  6  7  2  0
  6 11  1  0
  7  8  1  0
  7 36  1  0
  8  9  2  0
  8 37  1  0
  9 10  1  0
  9 38  1  0
 10 11  2  0
 10 39  1  0
 11 12  1  0
 13 14  1  0
 13 31  1  0
 14 15  1  0
 14 40  1  0
 14 41  1  0
 15 16  1  0
 15 42  1  0
 15 43  1  0
 16 17  1  0
 16 30  1  0
 17 18  2  0
 17 19  1  0
 19 20  1  0
 19 29  2  0
 20 21  2  0
 20 44  1  0
 21 22  1  0
 22 23  1  0
 22 29  1  0
 23 24  1  0
 23 25  2  0
 24 45  1  0
 24 46  1  0
 24 47  1  0
 25 26  1  0
 25 48  1  0
 26 27  1  0
 26 28  2  0
 27 49  1  0
 27 50  1  0
 27 51  1  0
 28 29  1  0
 30 31  1  0
 30 52  1  0
 30 53  1  0
 31 54  1  0
 31 55  1  0
M  END

