
     RDKit          3D

 85 89  0  0  0  0  0  0  0  0999 V2000
    6.2424    2.9885    0.4135 C   0  0  0  0  0  0  0  0  0  0  0  0
    5.4244    1.8296    0.9914 C   0  0  1  0  0  0  0  0  0  0  0  0
    4.3328    2.3196    1.9502 C   0  0  0  0  0  0  0  0  0  0  0  0
    4.7834    0.9679   -0.1089 C   0  0  0  0  0  0  0  0  0  0  0  0
    5.7383    0.4226   -1.0780 N   0  0  0  0  0  0  0  0  0  0  0  0
    5.1672   -0.1143   -2.3143 C   0  0  0  0  0  0  0  0  0  0  0  0
    6.2004   -1.0371   -2.9166 C   0  0  0  0  0  0  0  0  0  0  0  0
    6.2318   -1.5356   -4.2132 C   0  0  0  0  0  0  0  0  0  0  0  0
    7.2752   -2.4018   -4.6110 C   0  0  0  0  0  0  0  0  0  0  0  0
    7.2669   -2.9231   -5.9033 N   0  0  0  0  0  0  0  0  0  0  0  0
    8.4569   -3.5414   -6.4752 C   0  0  1  0  0  0  0  0  0  0  0  0
    8.7624   -4.9116   -5.9838 N   0  0  0  0  0  0  0  0  0  0  0  0
    8.5164   -5.9182   -6.9986 N   0  0  0  0  0  0  0  0  0  0  0  0
    7.2780   -6.7262   -6.8860 C   0  0  1  0  0  0  0  0  0  0  0  0
    5.9654   -5.9158   -7.1751 C   0  0  0  0  0  0  0  0  0  0  0  0
    4.7225   -6.6536   -6.9509 C   0  0  0  0  0  0  0  0  0  0  0  0
    3.7431   -7.2492   -6.7765 N   0  0  0  0  0  0  0  0  0  0  0  0
    7.3787   -7.9469   -7.8346 C   0  0  0  0  0  0  0  0  0  0  0  0
    8.5603   -8.8638   -7.5047 C   0  0  0  0  0  0  0  0  0  0  0  0
    8.5167   -9.2903   -6.1129 N   0  0  0  0  0  0  0  0  0  0  0  0
    8.6655  -10.6249   -5.8198 C   0  0  0  0  0  0  0  0  0  0  0  0
    8.7968  -11.4895   -6.6668 O   0  0  0  0  0  0  0  0  0  0  0  0
    8.6431  -10.8420   -4.4878 O   0  0  0  0  0  0  0  0  0  0  0  0
    8.7593  -12.1897   -3.9212 C   0  0  1  0  0  0  0  0  0  0  0  0
   10.1161  -12.7988   -4.2900 C   0  0  0  0  0  0  0  0  0  0  0  0
    8.6740  -11.9335   -2.4151 C   0  0  0  0  0  0  0  0  0  0  0  0
    7.5884  -13.0603   -4.3889 C   0  0  0  0  0  0  0  0  0  0  0  0
    8.4024   -8.2261   -5.1235 C   0  0  0  0  0  0  0  0  0  0  0  0
    7.2128   -7.3172   -5.4521 C   0  0  0  0  0  0  0  0  0  0  0  0
    8.9334   -5.1572   -8.1823 C   0  0  1  0  0  0  0  0  0  0  0  0
    8.7185   -5.5956   -9.6238 C   0  0  0  0  0  0  0  0  0  0  0  0
    9.4579   -4.5885  -10.5216 C   0  0  0  0  0  0  0  0  0  0  0  0
    9.2226   -3.1927  -10.1472 N   0  0  0  0  0  0  0  0  0  0  0  0
    8.8660   -2.7060   -8.9169 C   0  0  0  0  0  0  0  0  0  0  0  0
    8.9079   -1.5222   -8.6314 O   0  0  0  0  0  0  0  0  0  0  0  0
    8.3117   -3.7637   -7.9807 C   0  0  2  0  0  0  0  0  0  0  0  0
    8.2883   -2.7356   -3.6788 C   0  0  0  0  0  0  0  0  0  0  0  0
    8.2551   -2.2303   -2.3794 C   0  0  0  0  0  0  0  0  0  0  0  0
    7.2045   -1.3932   -2.0178 C   0  0  0  0  0  0  0  0  0  0  0  0
    6.9089   -0.6623   -0.4277 S   0  0  1  0  0  0  0  0  0  0  0  0
    8.0795    0.0720    0.0563 O   0  0  0  0  0  0  0  0  0  0  0  0
    6.2645   -1.6168    0.4856 O   0  0  0  0  0  0  0  0  0  0  0  0
    6.6950    3.5858    1.2211 H   0  0  0  0  0  0  0  0  0  0  0  0
    5.6057    3.6635   -0.1856 H   0  0  0  0  0  0  0  0  0  0  0  0
    7.0527    2.6150   -0.2274 H   0  0  0  0  0  0  0  0  0  0  0  0
    6.1091    1.1821    1.5663 H   0  0  0  0  0  0  0  0  0  0  0  0
    3.6134    2.9783    1.4326 H   0  0  0  0  0  0  0  0  0  0  0  0
    4.7702    2.8958    2.7805 H   0  0  0  0  0  0  0  0  0  0  0  0
    3.7664    1.4810    2.3872 H   0  0  0  0  0  0  0  0  0  0  0  0
    4.0821    1.5931   -0.6893 H   0  0  0  0  0  0  0  0  0  0  0  0
    4.1893    0.1531    0.3520 H   0  0  0  0  0  0  0  0  0  0  0  0
    4.9221    0.7163   -2.9985 H   0  0  0  0  0  0  0  0  0  0  0  0
    4.2280   -0.6764   -2.1257 H   0  0  0  0  0  0  0  0  0  0  0  0
    5.4548   -1.2596   -4.9321 H   0  0  0  0  0  0  0  0  0  0  0  0
    6.7566   -2.3457   -6.5653 H   0  0  0  0  0  0  0  0  0  0  0  0
    9.3341   -2.9053   -6.2598 H   0  0  0  0  0  0  0  0  0  0  0  0
    8.3019   -5.1498   -5.1132 H   0  0  0  0  0  0  0  0  0  0  0  0
    5.9590   -5.5820   -8.2250 H   0  0  0  0  0  0  0  0  0  0  0  0
    5.9536   -5.0121   -6.5430 H   0  0  0  0  0  0  0  0  0  0  0  0
    7.4364   -7.6342   -8.8852 H   0  0  0  0  0  0  0  0  0  0  0  0
    6.4437   -8.5214   -7.7369 H   0  0  0  0  0  0  0  0  0  0  0  0
    9.5107   -8.3361   -7.7017 H   0  0  0  0  0  0  0  0  0  0  0  0
    8.5352   -9.7656   -8.1285 H   0  0  0  0  0  0  0  0  0  0  0  0
   10.9336  -12.1311   -3.9751 H   0  0  0  0  0  0  0  0  0  0  0  0
   10.1918  -12.9666   -5.3715 H   0  0  0  0  0  0  0  0  0  0  0  0
   10.2437  -13.7616   -3.7707 H   0  0  0  0  0  0  0  0  0  0  0  0
    9.4886  -11.2699   -2.0872 H   0  0  0  0  0  0  0  0  0  0  0  0
    8.7539  -12.8818   -1.8624 H   0  0  0  0  0  0  0  0  0  0  0  0
    7.7153  -11.4595   -2.1549 H   0  0  0  0  0  0  0  0  0  0  0  0
    7.6337  -13.2338   -5.4713 H   0  0  0  0  0  0  0  0  0  0  0  0
    6.6297  -12.5754   -4.1461 H   0  0  0  0  0  0  0  0  0  0  0  0
    7.6190  -14.0319   -3.8715 H   0  0  0  0  0  0  0  0  0  0  0  0
    9.3341   -7.6325   -5.1024 H   0  0  0  0  0  0  0  0  0  0  0  0
    8.2668   -8.6772   -4.1353 H   0  0  0  0  0  0  0  0  0  0  0  0
    7.1216   -6.5252   -4.6903 H   0  0  0  0  0  0  0  0  0  0  0  0
    6.2856   -7.9052   -5.3750 H   0  0  0  0  0  0  0  0  0  0  0  0
   10.0258   -5.0404   -8.0466 H   0  0  0  0  0  0  0  0  0  0  0  0
    7.6479   -5.6145   -9.8843 H   0  0  0  0  0  0  0  0  0  0  0  0
    9.1305   -6.5949   -9.8246 H   0  0  0  0  0  0  0  0  0  0  0  0
    9.1440   -4.7290  -11.5682 H   0  0  0  0  0  0  0  0  0  0  0  0
   10.5418   -4.8077  -10.4825 H   0  0  0  0  0  0  0  0  0  0  0  0
    9.5791   -2.4792  -10.7781 H   0  0  0  0  0  0  0  0  0  0  0  0
    7.2376   -3.8278   -8.2231 H   0  0  0  0  0  0  0  0  0  0  0  0
    9.1172   -3.3823   -3.9715 H   0  0  0  0  0  0  0  0  0  0  0  0
    9.0455   -2.4778   -1.6674 H   0  0  0  0  0  0  0  0  0  0  0  0
  1  2  1  0
  1 43  1  0
  1 44  1  0
  1 45  1  0
  2  3  1  0
  2  4  1  0
  2 46  1  1
  3 47  1  0
  3 48  1  0
  3 49  1  0
  4  5  1  0
  4 50  1  0
  4 51  1  0
  5  6  1  0
 40  5  1  6
  6  7  1  0
  6 52  1  0
  6 53  1  0
  7  8  2  0
  7 39  1  0
  8  9  1  0
  8 54  1  0
  9 10  1  0
  9 37  2  0
 10 11  1  0
 10 55  1  0
 11 12  1  0
 11 36  1  0
 11 56  1  6
 12 13  1  0
 12 57  1  0
 13 14  1  0
 13 30  1  0
 14 15  1  6
 14 18  1  0
 14 29  1  0
 15 16  1  0
 15 58  1  0
 15 59  1  0
 16 17  3  0
 18 19  1  0
 18 60  1  0
 18 61  1  0
 19 20  1  0
 19 62  1  0
 19 63  1  0
 20 21  1  0
 20 28  1  0
 21 22  2  0
 21 23  1  0
 24 23  1  6
 24 25  1  0
 24 26  1  0
 24 27  1  0
 25 64  1  0
 25 65  1  0
 25 66  1  0
 26 67  1  0
 26 68  1  0
 26 69  1  0
 27 70  1  0
 27 71  1  0
 27 72  1  0
 28 29  1  0
 28 73  1  0
 28 74  1  0
 29 75  1  0
 29 76  1  0
 30 31  1  0
 30 36  1  0
 30 77  1  1
 31 32  1  0
 31 78  1  0
 31 79  1  0
 32 33  1  0
 32 80  1  0
 32 81  1  0
 33 34  1  0
 33 82  1  0
 34 35  2  0
 34 36  1  0
 36 83  1  1
 37 38  1  0
 37 84  1  0
 38 39  2  0
 38 85  1  0
 39 40  1  0
 40 41  2  0
 40 42  2  0
M  END

