
     RDKit          3D

 45 48  0  0  0  0  0  0  0  0999 V2000
    2.5596    0.2749   -1.7024 C   0  0  0  0  0  0  0  0  0  0  0  0
    2.1063   -0.1540   -0.3245 C   0  0  0  0  0  0  0  0  0  0  0  0
    0.9582   -0.4556   -0.0837 O   0  0  0  0  0  0  0  0  0  0  0  0
    3.1183   -0.0521    0.8365 C   0  0  0  0  0  0  0  0  0  0  0  0
    4.5941   -0.1639    0.5574 C   0  0  0  0  0  0  0  0  0  0  0  0
    5.3530    0.9754    0.2625 C   0  0  0  0  0  0  0  0  0  0  0  0
    6.6755    0.9952    0.1248 N   0  0  0  0  0  0  0  0  0  0  0  0
    7.3161   -0.1654    0.3230 C   0  0  0  0  0  0  0  0  0  0  0  0
    8.8005   -0.1674    0.2305 C   0  0  0  0  0  0  0  0  0  0  0  0
    9.4934    1.0242   -0.0475 C   0  0  0  0  0  0  0  0  0  0  0  0
   10.8860    1.0274   -0.1339 C   0  0  0  0  0  0  0  0  0  0  0  0
   11.6060   -0.1572    0.0556 C   0  0  0  0  0  0  0  0  0  0  0  0
   10.9238   -1.3471    0.3318 C   0  0  0  0  0  0  0  0  0  0  0  0
    9.5312   -1.3536    0.4182 C   0  0  0  0  0  0  0  0  0  0  0  0
    6.7014   -1.3212    0.5975 N   0  0  0  0  0  0  0  0  0  0  0  0
    5.3696   -1.3444    0.6862 C   0  0  0  0  0  0  0  0  0  0  0  0
    4.8424   -2.5949    1.0109 N   0  0  0  0  0  0  0  0  0  0  0  0
    3.7349   -3.2027    0.4379 C   0  0  0  0  0  0  0  0  0  0  0  0
    3.0404   -2.6888   -0.5228 N   0  0  0  0  0  0  0  0  0  0  0  0
    1.9514   -3.6098   -0.7692 C   0  0  0  0  0  0  0  0  0  0  0  0
    2.1388   -4.7818    0.1673 C   0  0  0  0  0  0  0  0  0  0  0  0
    1.2299   -5.9439    0.1910 C   0  0  1  0  0  0  0  0  0  0  0  0
    1.7791   -7.3585    0.3271 C   0  0  0  0  0  0  0  0  0  0  0  0
    1.0170   -6.7506    1.4605 C   0  0  0  0  0  0  0  0  0  0  0  0
    3.2452   -4.5090    0.9029 C   0  0  0  0  0  0  0  0  0  0  0  0
    1.7094    0.2222   -2.3953 H   0  0  0  0  0  0  0  0  0  0  0  0
    3.3688   -0.3845   -2.0469 H   0  0  0  0  0  0  0  0  0  0  0  0
    2.9514    1.3058   -1.6793 H   0  0  0  0  0  0  0  0  0  0  0  0
    2.7944   -0.7757    1.5968 H   0  0  0  0  0  0  0  0  0  0  0  0
    2.9319    0.9489    1.2689 H   0  0  0  0  0  0  0  0  0  0  0  0
    4.8410    1.9412    0.1572 H   0  0  0  0  0  0  0  0  0  0  0  0
    8.9173    1.9390   -0.1925 H   0  0  0  0  0  0  0  0  0  0  0  0
   11.4140    1.9598   -0.3503 H   0  0  0  0  0  0  0  0  0  0  0  0
   12.6971   -0.1533   -0.0124 H   0  0  0  0  0  0  0  0  0  0  0  0
   11.4815   -2.2757    0.4794 H   0  0  0  0  0  0  0  0  0  0  0  0
    8.9877   -2.2751    0.6304 H   0  0  0  0  0  0  0  0  0  0  0  0
    5.5617   -3.2298    1.3459 H   0  0  0  0  0  0  0  0  0  0  0  0
    1.9409   -3.9307   -1.8285 H   0  0  0  0  0  0  0  0  0  0  0  0
    0.9813   -3.1051   -0.5934 H   0  0  0  0  0  0  0  0  0  0  0  0
    0.3554   -5.8376   -0.4584 H   0  0  0  0  0  0  0  0  0  0  0  0
    2.8644   -7.4566    0.4204 H   0  0  0  0  0  0  0  0  0  0  0  0
    1.3023   -8.1445   -0.2655 H   0  0  0  0  0  0  0  0  0  0  0  0
    1.5674   -6.4299    2.3494 H   0  0  0  0  0  0  0  0  0  0  0  0
    0.0043   -7.1098    1.6639 H   0  0  0  0  0  0  0  0  0  0  0  0
    3.6907   -5.1024    1.7026 H   0  0  0  0  0  0  0  0  0  0  0  0
  1  2  1  0
  1 26  1  0
  1 27  1  0
  1 28  1  0
  2  3  2  0
  2  4  1  0
  4  5  1  0
  4 29  1  0
  4 30  1  0
  5  6  2  0
  5 16  1  0
  6  7  1  0
  6 31  1  0
  7  8  2  0
  8  9  1  0
  8 15  1  0
  9 10  2  0
  9 14  1  0
 10 11  1  0
 10 32  1  0
 11 12  2  0
 11 33  1  0
 12 13  1  0
 12 34  1  0
 13 14  2  0
 13 35  1  0
 14 36  1  0
 15 16  2  0
 16 17  1  0
 17 18  1  0
 17 37  1  0
 18 19  2  0
 18 25  1  0
 19 20  1  0
 20 21  1  0
 20 38  1  0
 20 39  1  0
 21 22  1  0
 21 25  2  0
 22 23  1  0
 22 24  1  0
 22 40  1  6
 23 24  1  0
 23 41  1  0
 23 42  1  0
 24 43  1  0
 24 44  1  0
 25 45  1  0
M  END

