
     RDKit          3D

 44 45  0  0  0  0  0  0  0  0999 V2000
   13.7420   -4.1794    2.1380 C   0  0  0  0  0  0  0  0  0  0  0  0
   13.2649   -4.5646    3.4041 O   0  0  0  0  0  0  0  0  0  0  0  0
   11.9726   -4.9732    3.5291 C   0  0  0  0  0  0  0  0  0  0  0  0
   11.5554   -5.3424    4.8186 C   0  0  0  0  0  0  0  0  0  0  0  0
   10.2564   -5.7750    5.0624 C   0  0  0  0  0  0  0  0  0  0  0  0
    9.3275   -5.8503    4.0045 C   0  0  0  0  0  0  0  0  0  0  0  0
    7.9973   -6.2762    4.1744 N   0  0  0  0  0  0  0  0  0  0  0  0
    7.3558   -6.6936    5.3054 C   0  0  0  0  0  0  0  0  0  0  0  0
    7.8592   -6.7822    6.4136 O   0  0  0  0  0  0  0  0  0  0  0  0
    5.8528   -6.9953    5.0774 C   0  0  2  0  0  0  0  0  0  0  0  0
    5.3594   -6.0207    5.2400 H   0  0  0  0  0  0  0  0  0  0  0  0
    5.3325   -7.9642    6.1460 C   0  0  0  0  0  0  0  0  0  0  0  0
    5.5786   -7.3533    3.6761 N   0  0  0  0  0  0  0  0  0  0  0  0
    5.9687   -8.7110    3.3154 C   0  0  0  0  0  0  0  0  0  0  0  0
    4.2240   -7.0313    3.2194 C   0  0  0  0  0  0  0  0  0  0  0  0
    3.9081   -5.5487    3.2244 C   0  0  0  0  0  0  0  0  0  0  0  0
    4.6711   -4.6564    2.4524 C   0  0  0  0  0  0  0  0  0  0  0  0
    4.3775   -3.2921    2.4366 C   0  0  0  0  0  0  0  0  0  0  0  0
    3.3104   -2.7941    3.1936 C   0  0  0  0  0  0  0  0  0  0  0  0
    2.5423   -3.6704    3.9631 C   0  0  0  0  0  0  0  0  0  0  0  0
    2.8421   -5.0374    3.9776 C   0  0  0  0  0  0  0  0  0  0  0  0
    9.7469   -5.4816    2.7182 C   0  0  0  0  0  0  0  0  0  0  0  0
   11.0529   -5.0463    2.4735 C   0  0  0  0  0  0  0  0  0  0  0  0
   14.7936   -3.8907    2.2714 H   0  0  0  0  0  0  0  0  0  0  0  0
   13.1852   -3.3151    1.7306 H   0  0  0  0  0  0  0  0  0  0  0  0
   13.6908   -5.0069    1.4061 H   0  0  0  0  0  0  0  0  0  0  0  0
   12.2811   -5.2810    5.6325 H   0  0  0  0  0  0  0  0  0  0  0  0
    9.9414   -6.0600    6.0640 H   0  0  0  0  0  0  0  0  0  0  0  0
    7.3957   -6.3024    3.3522 H   0  0  0  0  0  0  0  0  0  0  0  0
    4.2471   -8.1197    6.0448 H   0  0  0  0  0  0  0  0  0  0  0  0
    5.5355   -7.5506    7.1424 H   0  0  0  0  0  0  0  0  0  0  0  0
    5.8330   -8.9427    6.0937 H   0  0  0  0  0  0  0  0  0  0  0  0
    6.9979   -8.9117    3.6494 H   0  0  0  0  0  0  0  0  0  0  0  0
    5.9427   -8.8247    2.2197 H   0  0  0  0  0  0  0  0  0  0  0  0
    5.3126   -9.4943    3.7482 H   0  0  0  0  0  0  0  0  0  0  0  0
    3.4478   -7.5717    3.8027 H   0  0  0  0  0  0  0  0  0  0  0  0
    4.1405   -7.4081    2.1855 H   0  0  0  0  0  0  0  0  0  0  0  0
    5.5016   -5.0413    1.8543 H   0  0  0  0  0  0  0  0  0  0  0  0
    4.9808   -2.6124    1.8291 H   0  0  0  0  0  0  0  0  0  0  0  0
    3.0802   -1.7258    3.1819 H   0  0  0  0  0  0  0  0  0  0  0  0
    1.7079   -3.2909    4.5584 H   0  0  0  0  0  0  0  0  0  0  0  0
    2.2378   -5.7183    4.5842 H   0  0  0  0  0  0  0  0  0  0  0  0
    9.0400   -5.5332    1.8846 H   0  0  0  0  0  0  0  0  0  0  0  0
   11.3348   -4.7690    1.4576 H   0  0  0  0  0  0  0  0  0  0  0  0
  1  2  1  0
  1 24  1  0
  1 25  1  0
  1 26  1  0
  2  3  1  0
  3  4  2  0
  3 23  1  0
  4  5  1  0
  4 27  1  0
  5  6  2  0
  5 28  1  0
  6  7  1  0
  6 22  1  0
  7  8  1  0
  7 29  1  0
  8  9  2  0
  8 10  1  0
 10 11  1  1
 10 12  1  0
 10 13  1  0
 12 30  1  0
 12 31  1  0
 12 32  1  0
 13 14  1  0
 13 15  1  0
 14 33  1  0
 14 34  1  0
 14 35  1  0
 15 16  1  0
 15 36  1  0
 15 37  1  0
 16 17  2  0
 16 21  1  0
 17 18  1  0
 17 38  1  0
 18 19  2  0
 18 39  1  0
 19 20  1  0
 19 40  1  0
 20 21  2  0
 20 41  1  0
 21 42  1  0
 22 23  2  0
 22 43  1  0
 23 44  1  0
M  END

