
     RDKit          3D

 36 39  0  0  0  0  0  0  0  0999 V2000
    1.1953   -0.2231    0.4666 N   0  0  0  0  0  0  0  0  0  0  0  0
    2.5320   -0.1241    0.2049 C   0  0  0  0  0  0  0  0  0  0  0  0
    3.3072   -1.1542    0.0917 N   0  0  0  0  0  0  0  0  0  0  0  0
    4.6684   -0.7073   -0.1436 C   0  0  0  0  0  0  0  0  0  0  0  0
    4.5948    0.7960   -0.1793 C   0  0  0  0  0  0  0  0  0  0  0  0
    5.5732    1.6456   -0.4375 N   0  0  0  0  0  0  0  0  0  0  0  0
    5.2848    2.9384   -0.4226 N   0  0  0  0  0  0  0  0  0  0  0  0
    4.0455    3.3935   -0.1703 C   0  0  0  0  0  0  0  0  0  0  0  0
    3.9507    4.8851   -0.1725 C   0  0  0  0  0  0  0  0  0  0  0  0
    4.7019    5.6155   -1.1123 C   0  0  0  0  0  0  0  0  0  0  0  0
    4.6656    7.0104   -1.1194 C   0  0  0  0  0  0  0  0  0  0  0  0
    3.8966    7.7093   -0.1841 C   0  0  0  0  0  0  0  0  0  0  0  0
    3.1729    6.9761    0.7521 C   0  0  0  0  0  0  0  0  0  0  0  0
    2.4424    7.6284    1.6709 F   0  0  0  0  0  0  0  0  0  0  0  0
    3.1831    5.5846    0.7734 C   0  0  0  0  0  0  0  0  0  0  0  0
    2.9339    2.5248    0.0659 C   0  0  0  0  0  0  0  0  0  0  0  0
    1.5327    3.0092    0.2399 C   0  0  0  0  0  0  0  0  0  0  0  0
    0.8790    3.6874   -0.8044 C   0  0  0  0  0  0  0  0  0  0  0  0
   -0.4364    4.1294   -0.6503 C   0  0  0  0  0  0  0  0  0  0  0  0
   -1.1172    3.9097    0.5517 C   0  0  0  0  0  0  0  0  0  0  0  0
   -0.4766    3.2384    1.5971 C   0  0  0  0  0  0  0  0  0  0  0  0
    0.8378    2.7872    1.4427 C   0  0  0  0  0  0  0  0  0  0  0  0
    3.2609    1.1684    0.0671 C   0  0  0  0  0  0  0  0  0  0  0  0
    0.7977   -1.1518    0.3824 H   0  0  0  0  0  0  0  0  0  0  0  0
    0.5906    0.5587    0.2541 H   0  0  0  0  0  0  0  0  0  0  0  0
    5.0669   -1.1184   -1.0893 H   0  0  0  0  0  0  0  0  0  0  0  0
    5.3525   -1.0616    0.6503 H   0  0  0  0  0  0  0  0  0  0  0  0
    5.3207    5.0716   -1.8262 H   0  0  0  0  0  0  0  0  0  0  0  0
    5.2479    7.5645   -1.8598 H   0  0  0  0  0  0  0  0  0  0  0  0
    3.8545    8.8000   -0.1646 H   0  0  0  0  0  0  0  0  0  0  0  0
    2.6048    5.0740    1.5427 H   0  0  0  0  0  0  0  0  0  0  0  0
    1.4087    3.8678   -1.7426 H   0  0  0  0  0  0  0  0  0  0  0  0
   -0.9314    4.6513   -1.4730 H   0  0  0  0  0  0  0  0  0  0  0  0
   -2.1442    4.2626    0.6736 H   0  0  0  0  0  0  0  0  0  0  0  0
   -1.0000    3.0662    2.5410 H   0  0  0  0  0  0  0  0  0  0  0  0
    1.3332    2.2623    2.2627 H   0  0  0  0  0  0  0  0  0  0  0  0
  1  2  1  0
  1 24  1  0
  1 25  1  0
  2  3  2  0
  2 23  1  0
  3  4  1  0
  4  5  1  0
  4 26  1  0
  4 27  1  0
  5  6  2  0
  5 23  1  0
  6  7  1  0
  7  8  2  0
  8  9  1  0
  8 16  1  0
  9 10  2  0
  9 15  1  0
 10 11  1  0
 10 28  1  0
 11 12  2  0
 11 29  1  0
 12 13  1  0
 12 30  1  0
 13 14  1  0
 13 15  2  0
 15 31  1  0
 16 17  1  0
 16 23  2  0
 17 18  2  0
 17 22  1  0
 18 19  1  0
 18 32  1  0
 19 20  2  0
 19 33  1  0
 20 21  1  0
 20 34  1  0
 21 22  2  0
 21 35  1  0
 22 36  1  0
M  END

