
     RDKit          3D

 49 52  0  0  0  0  0  0  0  0999 V2000
    2.3761    0.8427    3.0167 N   0  0  0  0  0  0  0  0  0  0  0  0
    3.3277    0.7056    2.3677 C   0  0  0  0  0  0  0  0  0  0  0  0
    4.5202    0.5691    1.5598 C   0  0  0  0  0  0  0  0  0  0  0  0
    5.2145    1.7165    1.1383 C   0  0  0  0  0  0  0  0  0  0  0  0
    6.3584    1.5438    0.3648 C   0  0  0  0  0  0  0  0  0  0  0  0
    6.7938    0.2470    0.0624 C   0  0  0  0  0  0  0  0  0  0  0  0
    7.9675    0.0822   -0.8754 C   0  0  0  0  0  0  0  0  0  0  0  0
    7.9908    0.7625   -1.8937 O   0  0  0  0  0  0  0  0  0  0  0  0
    8.9412   -0.8306   -0.5676 N   0  0  0  0  0  0  0  0  0  0  0  0
    9.1467   -1.5050    0.7139 C   0  0  0  0  0  0  0  0  0  0  0  0
    9.2694   -3.0193    0.5153 C   0  0  0  0  0  0  0  0  0  0  0  0
   10.3460   -3.3641   -0.5207 C   0  0  0  0  0  0  0  0  0  0  0  0
   10.1338   -2.5899   -1.8343 C   0  0  2  0  0  0  0  0  0  0  0  0
    9.1797   -2.9169   -2.2820 H   0  0  0  0  0  0  0  0  0  0  0  0
   11.2446   -2.8448   -2.8152 C   0  0  0  0  0  0  0  0  0  0  0  0
   12.5021   -3.0746   -2.4924 N   0  0  0  0  0  0  0  0  0  0  0  0
   13.1840   -3.1978   -3.6748 C   0  0  0  0  0  0  0  0  0  0  0  0
   12.3257   -3.0339   -4.7369 C   0  0  0  0  0  0  0  0  0  0  0  0
   11.0809   -2.8013   -4.1820 N   0  0  0  0  0  0  0  0  0  0  0  0
    9.8435   -2.6056   -4.9243 C   0  0  0  0  0  0  0  0  0  0  0  0
    8.9247   -3.8171   -4.9714 C   0  0  0  0  0  0  0  0  0  0  0  0
    9.4287   -5.1252   -4.9324 C   0  0  0  0  0  0  0  0  0  0  0  0
    8.5646   -6.2203   -5.0247 C   0  0  0  0  0  0  0  0  0  0  0  0
    7.1871   -6.0228   -5.1591 C   0  0  0  0  0  0  0  0  0  0  0  0
    6.6767   -4.7219   -5.1961 C   0  0  0  0  0  0  0  0  0  0  0  0
    7.5404   -3.6276   -5.0993 C   0  0  0  0  0  0  0  0  0  0  0  0
   10.0061   -1.0769   -1.5371 C   0  0  0  0  0  0  0  0  0  0  0  0
    6.0059   -0.8248    0.5192 C   0  0  0  0  0  0  0  0  0  0  0  0
    4.9009   -0.6757    1.2443 N   0  0  0  0  0  0  0  0  0  0  0  0
    4.8519    2.7102    1.4066 H   0  0  0  0  0  0  0  0  0  0  0  0
    6.9152    2.4018   -0.0174 H   0  0  0  0  0  0  0  0  0  0  0  0
    8.3372   -1.2534    1.4087 H   0  0  0  0  0  0  0  0  0  0  0  0
   10.0831   -1.1182    1.1607 H   0  0  0  0  0  0  0  0  0  0  0  0
    8.2924   -3.4195    0.1905 H   0  0  0  0  0  0  0  0  0  0  0  0
    9.5028   -3.4940    1.4824 H   0  0  0  0  0  0  0  0  0  0  0  0
   10.3566   -4.4466   -0.7223 H   0  0  0  0  0  0  0  0  0  0  0  0
   11.3472   -3.1150   -0.1325 H   0  0  0  0  0  0  0  0  0  0  0  0
   14.2550   -3.3952   -3.7044 H   0  0  0  0  0  0  0  0  0  0  0  0
   12.4769   -3.0577   -5.8135 H   0  0  0  0  0  0  0  0  0  0  0  0
   10.1290   -2.3155   -5.9487 H   0  0  0  0  0  0  0  0  0  0  0  0
    9.3003   -1.7439   -4.5066 H   0  0  0  0  0  0  0  0  0  0  0  0
   10.5036   -5.2896   -4.8240 H   0  0  0  0  0  0  0  0  0  0  0  0
    8.9715   -7.2341   -4.9904 H   0  0  0  0  0  0  0  0  0  0  0  0
    6.5130   -6.8800   -5.2299 H   0  0  0  0  0  0  0  0  0  0  0  0
    5.6006   -4.5568   -5.2935 H   0  0  0  0  0  0  0  0  0  0  0  0
    7.1324   -2.6124   -5.1210 H   0  0  0  0  0  0  0  0  0  0  0  0
    9.7782   -0.4951   -2.4379 H   0  0  0  0  0  0  0  0  0  0  0  0
   10.9686   -0.7114   -1.1343 H   0  0  0  0  0  0  0  0  0  0  0  0
    6.2757   -1.8553    0.2631 H   0  0  0  0  0  0  0  0  0  0  0  0
  1  2  3  0
  2  3  1  0
  3  4  2  0
  3 29  1  0
  4  5  1  0
  4 30  1  0
  5  6  2  0
  5 31  1  0
  6  7  1  0
  6 28  1  0
  7  8  2  0
  7  9  1  0
  9 10  1  0
  9 27  1  0
 10 11  1  0
 10 32  1  0
 10 33  1  0
 11 12  1  0
 11 34  1  0
 11 35  1  0
 12 13  1  0
 12 36  1  0
 12 37  1  0
 13 14  1  6
 13 15  1  0
 13 27  1  0
 15 16  2  0
 15 19  1  0
 16 17  1  0
 17 18  2  0
 17 38  1  0
 18 19  1  0
 18 39  1  0
 19 20  1  0
 20 21  1  0
 20 40  1  0
 20 41  1  0
 21 22  2  0
 21 26  1  0
 22 23  1  0
 22 42  1  0
 23 24  2  0
 23 43  1  0
 24 25  1  0
 24 44  1  0
 25 26  2  0
 25 45  1  0
 26 46  1  0
 27 47  1  0
 27 48  1  0
 28 29  2  0
 28 49  1  0
M  END

