
     RDKit          3D

 38 39  0  0  0  0  0  0  0  0999 V2000
    4.7662   -1.6677   -2.0074 C   0  0  0  0  0  0  0  0  0  0  0  0
    4.3007   -0.7071   -0.9287 C   0  0  0  0  0  0  0  0  0  0  0  0
    4.8107   -1.1285    0.3154 O   0  0  0  0  0  0  0  0  0  0  0  0
    4.4374   -0.3156    1.4031 C   0  0  0  0  0  0  0  0  0  0  0  0
    5.0586   -0.8615    2.6799 C   0  0  0  0  0  0  0  0  0  0  0  0
    6.5860   -0.8519    2.6713 C   0  0  0  0  0  0  0  0  0  0  0  0
    7.1185   -1.3564    3.9296 N   0  0  0  0  0  0  0  0  0  0  0  0
    8.5698   -1.3771    3.9864 C   0  0  0  0  0  0  0  0  0  0  0  0
    9.0550   -1.8833    5.3006 C   0  0  0  0  0  0  0  0  0  0  0  0
    9.8821   -1.3463    6.1395 N   0  0  0  0  0  0  0  0  0  0  0  0
   10.0082   -2.2287    7.1895 N   0  0  0  0  0  0  0  0  0  0  0  0
    9.2425   -3.2497    6.9256 C   0  0  0  0  0  0  0  0  0  0  0  0
    9.0507   -4.4248    7.7822 C   0  0  0  0  0  0  0  0  0  0  0  0
    9.7290   -4.3894    9.0224 C   0  0  0  0  0  0  0  0  0  0  0  0
    9.6399   -5.4331    9.9347 C   0  0  0  0  0  0  0  0  0  0  0  0
    8.8609   -6.5546    9.6312 C   0  0  0  0  0  0  0  0  0  0  0  0
    8.1821   -6.6177    8.4158 C   0  0  0  0  0  0  0  0  0  0  0  0
    8.2720   -5.5667    7.4938 C   0  0  0  0  0  0  0  0  0  0  0  0
    7.2945   -5.8084    5.8692 Br  0  0  0  0  0  0  0  0  0  0  0  0
    8.6120   -3.0931    5.7340 O   0  0  0  0  0  0  0  0  0  0  0  0
    4.3770   -1.3634   -2.9916 H   0  0  0  0  0  0  0  0  0  0  0  0
    4.4144   -2.6888   -1.7934 H   0  0  0  0  0  0  0  0  0  0  0  0
    5.8659   -1.6892   -2.0590 H   0  0  0  0  0  0  0  0  0  0  0  0
    3.1906   -0.6706   -0.8955 H   0  0  0  0  0  0  0  0  0  0  0  0
    4.6423    0.3256   -1.1548 H   0  0  0  0  0  0  0  0  0  0  0  0
    3.3319   -0.2865    1.5037 H   0  0  0  0  0  0  0  0  0  0  0  0
    4.7676    0.7326    1.2332 H   0  0  0  0  0  0  0  0  0  0  0  0
    4.6974   -1.8952    2.8280 H   0  0  0  0  0  0  0  0  0  0  0  0
    4.6982   -0.2712    3.5386 H   0  0  0  0  0  0  0  0  0  0  0  0
    6.9434    0.1863    2.5395 H   0  0  0  0  0  0  0  0  0  0  0  0
    6.9481   -1.4178    1.7864 H   0  0  0  0  0  0  0  0  0  0  0  0
    6.7581   -2.2945    4.1070 H   0  0  0  0  0  0  0  0  0  0  0  0
    8.9646   -0.3549    3.8802 H   0  0  0  0  0  0  0  0  0  0  0  0
    9.0403   -1.9833    3.1759 H   0  0  0  0  0  0  0  0  0  0  0  0
   10.3297   -3.5049    9.2389 H   0  0  0  0  0  0  0  0  0  0  0  0
   10.1769   -5.3717   10.8838 H   0  0  0  0  0  0  0  0  0  0  0  0
    8.7790   -7.3837   10.3382 H   0  0  0  0  0  0  0  0  0  0  0  0
    7.5733   -7.4883    8.1679 H   0  0  0  0  0  0  0  0  0  0  0  0
  1  2  1  0
  1 21  1  0
  1 22  1  0
  1 23  1  0
  2  3  1  0
  2 24  1  0
  2 25  1  0
  3  4  1  0
  4  5  1  0
  4 26  1  0
  4 27  1  0
  5  6  1  0
  5 28  1  0
  5 29  1  0
  6  7  1  0
  6 30  1  0
  6 31  1  0
  7  8  1  0
  7 32  1  0
  8  9  1  0
  8 33  1  0
  8 34  1  0
  9 10  2  0
  9 20  1  0
 10 11  1  0
 11 12  2  0
 12 13  1  0
 12 20  1  0
 13 14  2  0
 13 18  1  0
 14 15  1  0
 14 35  1  0
 15 16  2  0
 15 36  1  0
 16 17  1  0
 16 37  1  0
 17 18  2  0
 17 38  1  0
 18 19  1  0
M  END

