
     RDKit          3D

 31 32  0  0  0  0  0  0  0  0999 V2000
    1.5060   -0.0449    0.4519 C   0  0  0  0  0  0  0  0  0  0  0  0
    2.9429   -0.2468   -0.0479 C   0  0  1  0  0  0  0  0  0  0  0  0
    3.1918   -1.6430   -0.6407 C   0  0  0  0  0  0  0  0  0  0  0  0
    2.3223   -1.9435   -2.2236 S   0  0  0  0  0  0  0  0  0  0  0  0
    3.0281   -0.5003   -3.1030 C   0  0  0  0  0  0  0  0  0  0  0  0
    2.7877    0.8075   -2.3571 C   0  0  0  0  0  0  0  0  0  0  0  0
    3.3652    0.7864   -1.0109 N   0  0  0  0  0  0  0  0  0  0  0  0
    3.9468    1.9372   -0.5741 C   0  0  0  0  0  0  0  0  0  0  0  0
    4.1760    3.0338   -1.2419 N   0  0  0  0  0  0  0  0  0  0  0  0
    4.8418    3.8804   -0.3618 N   0  0  0  0  0  0  0  0  0  0  0  0
    4.9577    3.2632    0.7614 C   0  0  0  0  0  0  0  0  0  0  0  0
    5.5845    3.7086    2.0347 C   0  0  0  0  0  0  0  0  0  0  0  0
    6.0872    5.1529    1.9770 C   0  0  0  0  0  0  0  0  0  0  0  0
    6.7516    5.4975    3.2299 N   0  0  0  0  0  0  0  0  0  0  0  0
    4.4003    2.0019    0.7041 O   0  0  0  0  0  0  0  0  0  0  0  0
    1.2806   -0.7616    1.2577 H   0  0  0  0  0  0  0  0  0  0  0  0
    0.7719   -0.2036   -0.3516 H   0  0  0  0  0  0  0  0  0  0  0  0
    1.3761    0.9706    0.8564 H   0  0  0  0  0  0  0  0  0  0  0  0
    3.6210   -0.1520    0.8124 H   0  0  0  0  0  0  0  0  0  0  0  0
    2.8389   -2.4172    0.0568 H   0  0  0  0  0  0  0  0  0  0  0  0
    4.2726   -1.7925   -0.7957 H   0  0  0  0  0  0  0  0  0  0  0  0
    2.5384   -0.4675   -4.0877 H   0  0  0  0  0  0  0  0  0  0  0  0
    4.1070   -0.6630   -3.2622 H   0  0  0  0  0  0  0  0  0  0  0  0
    1.7027    1.0172   -2.3131 H   0  0  0  0  0  0  0  0  0  0  0  0
    3.2591    1.6431   -2.8932 H   0  0  0  0  0  0  0  0  0  0  0  0
    6.4274    3.0438    2.2923 H   0  0  0  0  0  0  0  0  0  0  0  0
    4.8504    3.5915    2.8537 H   0  0  0  0  0  0  0  0  0  0  0  0
    5.2422    5.8151    1.6982 H   0  0  0  0  0  0  0  0  0  0  0  0
    6.8158    5.2385    1.1554 H   0  0  0  0  0  0  0  0  0  0  0  0
    6.0653    5.6005    3.9792 H   0  0  0  0  0  0  0  0  0  0  0  0
    7.2116    6.4035    3.1466 H   0  0  0  0  0  0  0  0  0  0  0  0
  1  2  1  0
  1 16  1  0
  1 17  1  0
  1 18  1  0
  2  3  1  0
  2  7  1  0
  2 19  1  1
  3  4  1  0
  3 20  1  0
  3 21  1  0
  4  5  1  0
  5  6  1  0
  5 22  1  0
  5 23  1  0
  6  7  1  0
  6 24  1  0
  6 25  1  0
  7  8  1  0
  8  9  2  0
  8 15  1  0
  9 10  1  0
 10 11  2  0
 11 12  1  0
 11 15  1  0
 12 13  1  0
 12 26  1  0
 12 27  1  0
 13 14  1  0
 13 28  1  0
 13 29  1  0
 14 30  1  0
 14 31  1  0
M  END

