
     RDKit          3D

 40 42  0  0  0  0  0  0  0  0999 V2000
    3.4019   -4.9117   -1.8704 C   0  0  0  0  0  0  0  0  0  0  0  0
    3.2514   -3.4746   -1.3494 C   0  0  0  0  0  0  0  0  0  0  0  0
    3.9477   -3.2348   -0.0395 C   0  0  0  0  0  0  0  0  0  0  0  0
    3.5131   -3.5633    1.2705 C   0  0  0  0  0  0  0  0  0  0  0  0
    4.5474   -3.1690    2.1092 C   0  0  0  0  0  0  0  0  0  0  0  0
    4.6572   -3.3111    3.6028 C   0  0  0  0  0  0  0  0  0  0  0  0
    4.9389   -2.0872    4.3479 N   0  0  0  0  0  0  0  0  0  0  0  0
    4.1338   -0.9574    4.4779 C   0  0  0  0  0  0  0  0  0  0  0  0
    2.7519   -0.8579    3.9031 C   0  0  0  0  0  0  0  0  0  0  0  0
    1.6730   -1.4568    4.8219 C   0  0  0  0  0  0  0  0  0  0  0  0
    4.6849   -0.0260    5.2167 N   0  0  0  0  0  0  0  0  0  0  0  0
    5.9051   -0.5324    5.6182 C   0  0  0  0  0  0  0  0  0  0  0  0
    6.8993    0.0417    6.4252 C   0  0  0  0  0  0  0  0  0  0  0  0
    8.0478   -0.7029    6.6870 C   0  0  0  0  0  0  0  0  0  0  0  0
    8.2133   -2.0005    6.1595 C   0  0  0  0  0  0  0  0  0  0  0  0
    7.2380   -2.5895    5.3522 C   0  0  0  0  0  0  0  0  0  0  0  0
    6.0874   -1.8359    5.0889 C   0  0  0  0  0  0  0  0  0  0  0  0
    5.5170   -2.6515    1.2966 N   0  0  0  0  0  0  0  0  0  0  0  0
    6.7761   -2.0322    1.6644 C   0  0  0  0  0  0  0  0  0  0  0  0
    5.1574   -2.6787    0.0010 N   0  0  0  0  0  0  0  0  0  0  0  0
    2.8823   -5.0397   -2.8338 H   0  0  0  0  0  0  0  0  0  0  0  0
    2.9814   -5.6430   -1.1610 H   0  0  0  0  0  0  0  0  0  0  0  0
    4.4636   -5.1642   -2.0197 H   0  0  0  0  0  0  0  0  0  0  0  0
    2.1803   -3.2328   -1.2410 H   0  0  0  0  0  0  0  0  0  0  0  0
    3.6651   -2.7683   -2.0862 H   0  0  0  0  0  0  0  0  0  0  0  0
    2.5748   -4.0272    1.5695 H   0  0  0  0  0  0  0  0  0  0  0  0
    5.4534   -4.0261    3.8625 H   0  0  0  0  0  0  0  0  0  0  0  0
    3.7184   -3.7588    3.9627 H   0  0  0  0  0  0  0  0  0  0  0  0
    2.7121   -1.3334    2.9111 H   0  0  0  0  0  0  0  0  0  0  0  0
    2.5534    0.2143    3.7602 H   0  0  0  0  0  0  0  0  0  0  0  0
    1.8214   -2.5369    4.9850 H   0  0  0  0  0  0  0  0  0  0  0  0
    0.6717   -1.3209    4.3839 H   0  0  0  0  0  0  0  0  0  0  0  0
    1.6874   -0.9654    5.8067 H   0  0  0  0  0  0  0  0  0  0  0  0
    6.7589    1.0451    6.8324 H   0  0  0  0  0  0  0  0  0  0  0  0
    8.8358   -0.2792    7.3145 H   0  0  0  0  0  0  0  0  0  0  0  0
    9.1235   -2.5602    6.3893 H   0  0  0  0  0  0  0  0  0  0  0  0
    7.3790   -3.5992    4.9591 H   0  0  0  0  0  0  0  0  0  0  0  0
    7.2960   -2.6243    2.4304 H   0  0  0  0  0  0  0  0  0  0  0  0
    6.6281   -1.0121    2.0530 H   0  0  0  0  0  0  0  0  0  0  0  0
    7.3921   -1.9876    0.7585 H   0  0  0  0  0  0  0  0  0  0  0  0
  1  2  1  0
  1 21  1  0
  1 22  1  0
  1 23  1  0
  2  3  1  0
  2 24  1  0
  2 25  1  0
  3  4  1  0
  3 20  2  0
  4  5  2  0
  4 26  1  0
  5  6  1  0
  5 18  1  0
  6  7  1  0
  6 27  1  0
  6 28  1  0
  7  8  1  0
  7 17  1  0
  8  9  1  0
  8 11  2  0
  9 10  1  0
  9 29  1  0
  9 30  1  0
 10 31  1  0
 10 32  1  0
 10 33  1  0
 11 12  1  0
 12 13  1  0
 12 17  2  0
 13 14  2  0
 13 34  1  0
 14 15  1  0
 14 35  1  0
 15 16  2  0
 15 36  1  0
 16 17  1  0
 16 37  1  0
 18 19  1  0
 18 20  1  0
 19 38  1  0
 19 39  1  0
 19 40  1  0
M  END

