
     RDKit          3D

 42 43  0  0  0  0  0  0  0  0999 V2000
    5.1831    5.0954    0.6806 C   0  0  0  0  0  0  0  0  0  0  0  0
    5.6798    3.6601    0.5020 C   0  0  0  0  0  0  0  0  0  0  0  0
    5.8990    3.2653   -0.9619 C   0  0  0  0  0  0  0  0  0  0  0  0
    6.3975    1.8295   -1.1485 C   0  0  0  0  0  0  0  0  0  0  0  0
    6.6095    1.4385   -2.6137 C   0  0  0  0  0  0  0  0  0  0  0  0
    7.1152    0.0049   -2.7797 C   0  0  0  0  0  0  0  0  0  0  0  0
    7.2763   -0.3556   -4.1813 N   0  0  0  0  0  0  0  0  0  0  0  0
    8.4321    0.1341   -4.9657 C   0  0  0  0  0  0  0  0  0  0  0  0
    8.6942   -1.1830   -5.6689 C   0  0  0  0  0  0  0  0  0  0  0  0
    9.4147   -1.5668   -6.7505 C   0  0  0  0  0  0  0  0  0  0  0  0
   10.0961   -0.6482   -7.5249 N   0  0  0  0  0  0  0  0  0  0  0  0
    9.4741   -2.9751   -7.2229 C   0  0  0  0  0  0  0  0  0  0  0  0
    9.5435   -3.2521   -8.6013 C   0  0  0  0  0  0  0  0  0  0  0  0
    9.6023   -4.5641   -9.0688 C   0  0  0  0  0  0  0  0  0  0  0  0
    9.5938   -5.6193   -8.1515 C   0  0  0  0  0  0  0  0  0  0  0  0
    9.6710   -7.2650   -8.7290 Cl  0  0  0  0  0  0  0  0  0  0  0  0
    9.5245   -5.3683   -6.7781 C   0  0  0  0  0  0  0  0  0  0  0  0
    9.4682   -4.0530   -6.3188 C   0  0  0  0  0  0  0  0  0  0  0  0
    7.5244   -2.0123   -4.6131 S   0  0  1  0  0  0  0  0  0  0  0  0
    8.1490   -2.7542   -3.5025 O   0  0  0  0  0  0  0  0  0  0  0  0
    6.3724   -2.6207   -5.2698 O   0  0  0  0  0  0  0  0  0  0  0  0
    5.0362    5.3440    1.7438 H   0  0  0  0  0  0  0  0  0  0  0  0
    4.2202    5.2535    0.1662 H   0  0  0  0  0  0  0  0  0  0  0  0
    5.9005    5.8231    0.2651 H   0  0  0  0  0  0  0  0  0  0  0  0
    4.9586    2.9600    0.9617 H   0  0  0  0  0  0  0  0  0  0  0  0
    6.6245    3.5241    1.0595 H   0  0  0  0  0  0  0  0  0  0  0  0
    6.6204    3.9654   -1.4237 H   0  0  0  0  0  0  0  0  0  0  0  0
    4.9541    3.3988   -1.5209 H   0  0  0  0  0  0  0  0  0  0  0  0
    5.6771    1.1299   -0.6857 H   0  0  0  0  0  0  0  0  0  0  0  0
    7.3436    1.6964   -0.5916 H   0  0  0  0  0  0  0  0  0  0  0  0
    7.3285    2.1382   -3.0781 H   0  0  0  0  0  0  0  0  0  0  0  0
    5.6675    1.5465   -3.1785 H   0  0  0  0  0  0  0  0  0  0  0  0
    6.3849   -0.6966   -2.3446 H   0  0  0  0  0  0  0  0  0  0  0  0
    8.0615   -0.1395   -2.2181 H   0  0  0  0  0  0  0  0  0  0  0  0
    9.2749    0.4577   -4.3200 H   0  0  0  0  0  0  0  0  0  0  0  0
    8.1570    0.9707   -5.6335 H   0  0  0  0  0  0  0  0  0  0  0  0
   10.1560    0.3054   -7.1888 H   0  0  0  0  0  0  0  0  0  0  0  0
   10.9298   -0.9751   -8.0005 H   0  0  0  0  0  0  0  0  0  0  0  0
    9.5228   -2.4299   -9.3196 H   0  0  0  0  0  0  0  0  0  0  0  0
    9.6438   -4.7741  -10.1388 H   0  0  0  0  0  0  0  0  0  0  0  0
    9.5204   -6.2003   -6.0724 H   0  0  0  0  0  0  0  0  0  0  0  0
    9.4288   -3.8703   -5.2430 H   0  0  0  0  0  0  0  0  0  0  0  0
  1  2  1  0
  1 22  1  0
  1 23  1  0
  1 24  1  0
  2  3  1  0
  2 25  1  0
  2 26  1  0
  3  4  1  0
  3 27  1  0
  3 28  1  0
  4  5  1  0
  4 29  1  0
  4 30  1  0
  5  6  1  0
  5 31  1  0
  5 32  1  0
  6  7  1  0
  6 33  1  0
  6 34  1  0
  7  8  1  0
  7 19  1  0
  8  9  1  0
  8 35  1  0
  8 36  1  0
  9 10  2  0
 19  9  1  6
 10 11  1  0
 10 12  1  0
 11 37  1  0
 11 38  1  0
 12 13  2  0
 12 18  1  0
 13 14  1  0
 13 39  1  0
 14 15  2  0
 14 40  1  0
 15 16  1  0
 15 17  1  0
 17 18  2  0
 17 41  1  0
 18 42  1  0
 19 20  2  0
 19 21  2  0
M  END

