
     RDKit          3D

 53 55  0  0  0  0  0  0  0  0999 V2000
    6.7521    3.7505   -3.0180 C   0  0  0  0  0  0  0  0  0  0  0  0
    6.2929    3.0844   -1.8561 O   0  0  0  0  0  0  0  0  0  0  0  0
    5.1007    2.3884   -2.0468 C   0  0  1  0  0  0  0  0  0  0  0  0
    4.3203    3.0506   -2.4760 H   0  0  0  0  0  0  0  0  0  0  0  0
    5.1324    1.0372   -2.8032 C   0  0  0  0  0  0  0  0  0  0  0  0
    5.4347    0.6620   -3.9116 O   0  0  0  0  0  0  0  0  0  0  0  0
    4.6093    0.3770   -1.7182 N   0  0  0  0  0  0  0  0  0  0  0  0
    3.9847   -0.9415   -1.6708 C   0  0  1  0  0  0  0  0  0  0  0  0
    4.7477   -1.9310   -0.7815 C   0  0  0  0  0  0  0  0  0  0  0  0
    2.5040   -0.8405   -1.2845 C   0  0  0  0  0  0  0  0  0  0  0  0
    4.5533    1.5611   -0.8334 C   0  0  1  0  0  0  0  0  0  0  0  0
    3.5128    1.8486   -0.5958 H   0  0  0  0  0  0  0  0  0  0  0  0
    5.3349    1.5028    0.4878 C   0  0  2  0  0  0  0  0  0  0  0  0
    5.2789    2.8577    1.2179 C   0  0  0  0  0  0  0  0  0  0  0  0
    6.0018    2.7991    2.5666 C   0  0  0  0  0  0  0  0  0  0  0  0
    7.3690    2.3094    2.4100 N   0  0  0  0  0  0  0  0  0  0  0  0
    8.4062    3.0401    2.9364 C   0  0  0  0  0  0  0  0  0  0  0  0
    8.2197    4.0852    3.5458 O   0  0  0  0  0  0  0  0  0  0  0  0
    9.8339    2.5044    2.7750 C   0  0  0  0  0  0  0  0  0  0  0  0
   10.2066    1.4814    3.8357 C   0  0  0  0  0  0  0  0  0  0  0  0
   10.8148    0.2654    3.4908 C   0  0  0  0  0  0  0  0  0  0  0  0
   11.1758   -0.6617    4.4742 C   0  0  0  0  0  0  0  0  0  0  0  0
   10.9301   -0.3856    5.8213 C   0  0  0  0  0  0  0  0  0  0  0  0
   10.3236    0.8243    6.1769 C   0  0  0  0  0  0  0  0  0  0  0  0
    9.9655    1.7496    5.1943 C   0  0  0  0  0  0  0  0  0  0  0  0
    7.4650    1.0088    1.7582 C   0  0  0  0  0  0  0  0  0  0  0  0
    6.7919    1.0227    0.3806 C   0  0  0  0  0  0  0  0  0  0  0  0
    7.6905    4.2575   -2.7533 H   0  0  0  0  0  0  0  0  0  0  0  0
    6.0204    4.5090   -3.3593 H   0  0  0  0  0  0  0  0  0  0  0  0
    6.9366    3.0446   -3.8457 H   0  0  0  0  0  0  0  0  0  0  0  0
    4.0524   -1.2993   -2.7123 H   0  0  0  0  0  0  0  0  0  0  0  0
    4.7270   -1.6237    0.2766 H   0  0  0  0  0  0  0  0  0  0  0  0
    5.7980   -2.0144   -1.0981 H   0  0  0  0  0  0  0  0  0  0  0  0
    4.2921   -2.9320   -0.8473 H   0  0  0  0  0  0  0  0  0  0  0  0
    2.3792   -0.4854   -0.2481 H   0  0  0  0  0  0  0  0  0  0  0  0
    2.0229   -1.8284   -1.3547 H   0  0  0  0  0  0  0  0  0  0  0  0
    1.9640   -0.1516   -1.9524 H   0  0  0  0  0  0  0  0  0  0  0  0
    4.7967    0.7711    1.1238 H   0  0  0  0  0  0  0  0  0  0  0  0
    4.2306    3.1604    1.3851 H   0  0  0  0  0  0  0  0  0  0  0  0
    5.7464    3.6285    0.5845 H   0  0  0  0  0  0  0  0  0  0  0  0
    5.4547    2.1243    3.2549 H   0  0  0  0  0  0  0  0  0  0  0  0
    6.0583    3.7860    3.0408 H   0  0  0  0  0  0  0  0  0  0  0  0
   10.4709    3.3950    2.8835 H   0  0  0  0  0  0  0  0  0  0  0  0
   10.0150    2.0942    1.7711 H   0  0  0  0  0  0  0  0  0  0  0  0
   11.0170    0.0420    2.4388 H   0  0  0  0  0  0  0  0  0  0  0  0
   11.6513   -1.6025    4.1843 H   0  0  0  0  0  0  0  0  0  0  0  0
   11.2110   -1.1083    6.5916 H   0  0  0  0  0  0  0  0  0  0  0  0
   10.1298    1.0503    7.2289 H   0  0  0  0  0  0  0  0  0  0  0  0
    9.4943    2.6956    5.4734 H   0  0  0  0  0  0  0  0  0  0  0  0
    6.9768    0.2508    2.4031 H   0  0  0  0  0  0  0  0  0  0  0  0
    8.5136    0.7069    1.6685 H   0  0  0  0  0  0  0  0  0  0  0  0
    6.8328    0.0101   -0.0499 H   0  0  0  0  0  0  0  0  0  0  0  0
    7.3482    1.6890   -0.2945 H   0  0  0  0  0  0  0  0  0  0  0  0
  1  2  1  0
  1 28  1  0
  1 29  1  0
  1 30  1  0
  2  3  1  0
  3  4  1  6
  3  5  1  0
  3 11  1  0
  5  6  2  0
  5  7  1  0
  7  8  1  0
  7 11  1  0
  8  9  1  0
  8 10  1  0
  8 31  1  6
  9 32  1  0
  9 33  1  0
  9 34  1  0
 10 35  1  0
 10 36  1  0
 10 37  1  0
 11 12  1  1
 11 13  1  0
 13 14  1  0
 13 27  1  0
 13 38  1  1
 14 15  1  0
 14 39  1  0
 14 40  1  0
 15 16  1  0
 15 41  1  0
 15 42  1  0
 16 17  1  0
 16 26  1  0
 17 18  2  0
 17 19  1  0
 19 20  1  0
 19 43  1  0
 19 44  1  0
 20 21  2  0
 20 25  1  0
 21 22  1  0
 21 45  1  0
 22 23  2  0
 22 46  1  0
 23 24  1  0
 23 47  1  0
 24 25  2  0
 24 48  1  0
 25 49  1  0
 26 27  1  0
 26 50  1  0
 26 51  1  0
 27 52  1  0
 27 53  1  0
M  END

