
     RDKit          3D

 51 52  0  0  0  0  0  0  0  0999 V2000
   10.9153    3.4079    0.8612 C   0  0  0  0  0  0  0  0  0  0  0  0
    9.8587    2.6603    1.6744 C   0  0  0  0  0  0  0  0  0  0  0  0
    8.4473    3.2568    1.5794 C   0  0  0  0  0  0  0  0  0  0  0  0
    7.8977    3.2975    0.2310 N   0  0  0  0  0  0  0  0  0  0  0  0
    7.3503    2.2012   -0.3567 C   0  0  0  0  0  0  0  0  0  0  0  0
    7.2095    1.1308    0.2103 O   0  0  0  0  0  0  0  0  0  0  0  0
    6.7851    2.4181   -1.7772 C   0  0  2  0  0  0  0  0  0  0  0  0
    5.7617    2.8010   -1.6282 H   0  0  0  0  0  0  0  0  0  0  0  0
    6.7152    1.1297   -2.5842 C   0  0  0  0  0  0  0  0  0  0  0  0
    7.4189    3.5088   -2.4816 O   0  0  0  0  0  0  0  0  0  0  0  0
    8.7233    3.4005   -2.8473 C   0  0  0  0  0  0  0  0  0  0  0  0
    9.4323    2.4708   -2.5283 O   0  0  0  0  0  0  0  0  0  0  0  0
    9.1359    4.5698   -3.6485 C   0  0  0  0  0  0  0  0  0  0  0  0
   10.4008    4.6726   -4.1058 C   0  0  0  0  0  0  0  0  0  0  0  0
   10.9100    5.7739   -4.9048 C   0  0  0  0  0  0  0  0  0  0  0  0
   12.2048    5.8721   -5.3651 C   0  0  0  0  0  0  0  0  0  0  0  0
   12.4352    7.3256   -6.2773 S   0  0  0  0  0  0  0  0  0  0  0  0
   10.7373    7.7057   -5.9714 C   0  0  0  0  0  0  0  0  0  0  0  0
   10.1123    8.8645   -6.4568 N   0  0  0  0  0  0  0  0  0  0  0  0
   10.8315    9.8272   -7.1776 C   0  0  0  0  0  0  0  0  0  0  0  0
   10.0815   11.0693   -7.6015 C   0  0  0  0  0  0  0  0  0  0  0  0
   12.0068    9.6516   -7.4327 O   0  0  0  0  0  0  0  0  0  0  0  0
    8.7306    9.0472   -6.1123 C   0  0  0  0  0  0  0  0  0  0  0  0
    7.7101    8.3950   -6.8120 C   0  0  0  0  0  0  0  0  0  0  0  0
    6.3753    8.5787   -6.4468 C   0  0  0  0  0  0  0  0  0  0  0  0
    6.0538    9.4154   -5.3721 C   0  0  0  0  0  0  0  0  0  0  0  0
    7.0622   10.0701   -4.6612 C   0  0  0  0  0  0  0  0  0  0  0  0
    8.3879    9.8732   -5.0366 C   0  0  0  0  0  0  0  0  0  0  0  0
    9.3640   10.5052   -4.3721 F   0  0  0  0  0  0  0  0  0  0  0  0
   10.0958    6.8289   -5.2640 N   0  0  0  0  0  0  0  0  0  0  0  0
   11.9131    2.9639    1.0055 H   0  0  0  0  0  0  0  0  0  0  0  0
   10.9806    4.4696    1.1580 H   0  0  0  0  0  0  0  0  0  0  0  0
   10.6912    3.3641   -0.2160 H   0  0  0  0  0  0  0  0  0  0  0  0
   10.1408    2.6471    2.7424 H   0  0  0  0  0  0  0  0  0  0  0  0
    9.8096    1.6071    1.3529 H   0  0  0  0  0  0  0  0  0  0  0  0
    8.4423    4.2884    1.9699 H   0  0  0  0  0  0  0  0  0  0  0  0
    7.7605    2.6614    2.2006 H   0  0  0  0  0  0  0  0  0  0  0  0
    8.0069    4.1349   -0.3265 H   0  0  0  0  0  0  0  0  0  0  0  0
    6.2260    1.3173   -3.5519 H   0  0  0  0  0  0  0  0  0  0  0  0
    6.1253    0.3958   -2.0188 H   0  0  0  0  0  0  0  0  0  0  0  0
    7.7151    0.7112   -2.7527 H   0  0  0  0  0  0  0  0  0  0  0  0
    8.3929    5.3392   -3.8647 H   0  0  0  0  0  0  0  0  0  0  0  0
   11.1032    3.8691   -3.8625 H   0  0  0  0  0  0  0  0  0  0  0  0
   13.0208    5.1680   -5.2081 H   0  0  0  0  0  0  0  0  0  0  0  0
    9.8306   11.6802   -6.7206 H   0  0  0  0  0  0  0  0  0  0  0  0
    9.1426   10.8299   -8.1213 H   0  0  0  0  0  0  0  0  0  0  0  0
   10.7407   11.6452   -8.2619 H   0  0  0  0  0  0  0  0  0  0  0  0
    7.9797    7.7364   -7.6398 H   0  0  0  0  0  0  0  0  0  0  0  0
    5.5853    8.0653   -6.9987 H   0  0  0  0  0  0  0  0  0  0  0  0
    5.0103    9.5607   -5.0831 H   0  0  0  0  0  0  0  0  0  0  0  0
    6.8430   10.7293   -3.8191 H   0  0  0  0  0  0  0  0  0  0  0  0
  1  2  1  0
  1 31  1  0
  1 32  1  0
  1 33  1  0
  2  3  1  0
  2 34  1  0
  2 35  1  0
  3  4  1  0
  3 36  1  0
  3 37  1  0
  4  5  1  0
  4 38  1  0
  5  6  2  0
  5  7  1  0
  7  8  1  1
  7  9  1  0
  7 10  1  0
  9 39  1  0
  9 40  1  0
  9 41  1  0
 10 11  1  0
 11 12  2  0
 11 13  1  0
 13 14  2  0
 13 42  1  0
 14 15  1  0
 14 43  1  0
 15 16  2  0
 15 30  1  0
 16 17  1  0
 16 44  1  0
 17 18  1  0
 18 19  1  0
 18 30  2  0
 19 20  1  0
 19 23  1  0
 20 21  1  0
 20 22  2  0
 21 45  1  0
 21 46  1  0
 21 47  1  0
 23 24  2  0
 23 28  1  0
 24 25  1  0
 24 48  1  0
 25 26  2  0
 25 49  1  0
 26 27  1  0
 26 50  1  0
 27 28  2  0
 27 51  1  0
 28 29  1  0
M  END

