
     RDKit          3D

 35 38  0  0  0  0  0  0  0  0999 V2000
    2.9562    1.6355    0.8574 C   0  0  0  0  0  0  0  0  0  0  0  0
    2.4511    0.3561    0.5462 O   0  0  0  0  0  0  0  0  0  0  0  0
    2.8992   -0.7215    1.2384 C   0  0  0  0  0  0  0  0  0  0  0  0
    3.8740   -0.6635    2.2375 C   0  0  0  0  0  0  0  0  0  0  0  0
    4.2406   -1.8402    2.9055 C   0  0  0  0  0  0  0  0  0  0  0  0
    5.4446   -1.9524    4.1941 S   0  0  0  0  0  0  0  0  0  0  0  0
    5.1498   -3.6817    4.3163 C   0  0  0  0  0  0  0  0  0  0  0  0
    5.7152   -4.5935    5.1348 N   0  0  0  0  0  0  0  0  0  0  0  0
    5.2193   -5.7858    4.9133 C   0  0  0  0  0  0  0  0  0  0  0  0
    5.6227   -6.9968    5.6383 C   0  0  0  0  0  0  0  0  0  0  0  0
    5.0615   -8.2578    5.3630 C   0  0  0  0  0  0  0  0  0  0  0  0
    5.4697   -9.3872    6.0730 C   0  0  0  0  0  0  0  0  0  0  0  0
    6.4447   -9.2779    7.0697 C   0  0  0  0  0  0  0  0  0  0  0  0
    7.0089   -8.0280    7.3509 C   0  0  0  0  0  0  0  0  0  0  0  0
    6.6046   -6.8968    6.6445 C   0  0  0  0  0  0  0  0  0  0  0  0
    3.9809   -5.8310    3.6301 S   0  0  0  0  0  0  0  0  0  0  0  0
    4.1851   -4.1222    3.4172 C   0  0  0  0  0  0  0  0  0  0  0  0
    3.6398   -3.0876    2.5869 C   0  0  0  0  0  0  0  0  0  0  0  0
    2.6670   -3.1286    1.5683 C   0  0  0  0  0  0  0  0  0  0  0  0
    2.2957   -1.9717    0.8980 C   0  0  0  0  0  0  0  0  0  0  0  0
    1.3034   -2.0385   -0.0363 O   0  0  0  0  0  0  0  0  0  0  0  0
    1.6643   -1.8000   -1.3891 C   0  0  0  0  0  0  0  0  0  0  0  0
    2.4400    2.3447    0.1968 H   0  0  0  0  0  0  0  0  0  0  0  0
    4.0442    1.7037    0.6764 H   0  0  0  0  0  0  0  0  0  0  0  0
    2.7518    1.9098    1.9078 H   0  0  0  0  0  0  0  0  0  0  0  0
    4.3417    0.2828    2.5076 H   0  0  0  0  0  0  0  0  0  0  0  0
    4.2982   -8.3608    4.5871 H   0  0  0  0  0  0  0  0  0  0  0  0
    5.0233  -10.3585    5.8462 H   0  0  0  0  0  0  0  0  0  0  0  0
    6.7636  -10.1633    7.6253 H   0  0  0  0  0  0  0  0  0  0  0  0
    7.7714   -7.9349    8.1285 H   0  0  0  0  0  0  0  0  0  0  0  0
    7.0368   -5.9173    6.8545 H   0  0  0  0  0  0  0  0  0  0  0  0
    2.1760   -4.0631    1.2903 H   0  0  0  0  0  0  0  0  0  0  0  0
    0.7545   -1.9477   -1.9878 H   0  0  0  0  0  0  0  0  0  0  0  0
    2.4344   -2.5171   -1.7279 H   0  0  0  0  0  0  0  0  0  0  0  0
    2.0333   -0.7733   -1.5407 H   0  0  0  0  0  0  0  0  0  0  0  0
  1  2  1  0
  1 23  1  0
  1 24  1  0
  1 25  1  0
  2  3  1  0
  3  4  2  0
  3 20  1  0
  4  5  1  0
  4 26  1  0
  5  6  1  0
  5 18  2  0
  6  7  1  0
  7  8  1  0
  7 17  2  0
  8  9  2  0
  9 10  1  0
  9 16  1  0
 10 11  2  0
 10 15  1  0
 11 12  1  0
 11 27  1  0
 12 13  2  0
 12 28  1  0
 13 14  1  0
 13 29  1  0
 14 15  2  0
 14 30  1  0
 15 31  1  0
 16 17  1  0
 17 18  1  0
 18 19  1  0
 19 20  2  0
 19 32  1  0
 20 21  1  0
 21 22  1  0
 22 33  1  0
 22 34  1  0
 22 35  1  0
M  END

