
     RDKit          3D

 38 41  0  0  0  0  0  0  0  0999 V2000
    1.1903    0.0854    1.5448 C   0  0  0  0  0  0  0  0  0  0  0  0
    2.5586    0.1485    0.9217 C   0  0  0  0  0  0  0  0  0  0  0  0
    3.5380    1.0384    1.3888 C   0  0  0  0  0  0  0  0  0  0  0  0
    4.8137    1.1050    0.8298 C   0  0  0  0  0  0  0  0  0  0  0  0
    5.1410    0.2674   -0.2428 C   0  0  0  0  0  0  0  0  0  0  0  0
    6.4398    0.3278   -0.8339 N   0  0  0  0  0  0  0  0  0  0  0  0
    7.0828    1.5362   -1.1671 C   0  0  0  0  0  0  0  0  0  0  0  0
    6.6538    2.6370   -0.9358 O   0  0  0  0  0  0  0  0  0  0  0  0
    8.3909    1.2014   -1.8682 C   0  0  0  0  0  0  0  0  0  0  0  0
    8.5259   -0.3171   -1.7522 C   0  0  2  0  0  0  0  0  0  0  0  0
    9.2691   -0.5965   -0.9873 H   0  0  0  0  0  0  0  0  0  0  0  0
    9.1338   -1.2419   -3.2079 S   0  0  0  0  0  0  0  0  0  0  0  0
    7.8194   -0.9596   -4.3428 C   0  0  0  0  0  0  0  0  0  0  0  0
    6.7508   -0.2774   -4.0926 N   0  0  0  0  0  0  0  0  0  0  0  0
    5.9025   -0.2445   -5.1873 C   0  0  0  0  0  0  0  0  0  0  0  0
    4.6605    0.4091   -5.2404 C   0  0  0  0  0  0  0  0  0  0  0  0
    3.9177    0.3513   -6.4169 C   0  0  0  0  0  0  0  0  0  0  0  0
    4.3948   -0.3475   -7.5410 C   0  0  0  0  0  0  0  0  0  0  0  0
    5.6261   -1.0037   -7.5097 C   0  0  0  0  0  0  0  0  0  0  0  0
    6.3714   -0.9455   -6.3281 C   0  0  0  0  0  0  0  0  0  0  0  0
    7.9370   -1.6574   -5.9716 S   0  0  0  0  0  0  0  0  0  0  0  0
    7.1675   -0.8084   -1.2218 C   0  0  0  0  0  0  0  0  0  0  0  0
    6.8155   -1.9500   -1.0971 O   0  0  0  0  0  0  0  0  0  0  0  0
    4.1889   -0.6294   -0.7423 C   0  0  0  0  0  0  0  0  0  0  0  0
    2.9248   -0.6795   -0.1550 C   0  0  0  0  0  0  0  0  0  0  0  0
    1.7601   -1.8210   -0.8020 Cl  0  0  0  0  0  0  0  0  0  0  0  0
    1.0949    0.8145    2.3618 H   0  0  0  0  0  0  0  0  0  0  0  0
    0.9827   -0.9192    1.9484 H   0  0  0  0  0  0  0  0  0  0  0  0
    0.4034    0.2903    0.8008 H   0  0  0  0  0  0  0  0  0  0  0  0
    3.2900    1.6997    2.2231 H   0  0  0  0  0  0  0  0  0  0  0  0
    5.5450    1.8141    1.2149 H   0  0  0  0  0  0  0  0  0  0  0  0
    9.2166    1.7587   -1.4032 H   0  0  0  0  0  0  0  0  0  0  0  0
    8.2990    1.5398   -2.9096 H   0  0  0  0  0  0  0  0  0  0  0  0
    4.3006    0.9469   -4.3613 H   0  0  0  0  0  0  0  0  0  0  0  0
    2.9497    0.8553   -6.4684 H   0  0  0  0  0  0  0  0  0  0  0  0
    3.7941   -0.3793   -8.4531 H   0  0  0  0  0  0  0  0  0  0  0  0
    5.9928   -1.5460   -8.3837 H   0  0  0  0  0  0  0  0  0  0  0  0
    4.4290   -1.2927   -1.5705 H   0  0  0  0  0  0  0  0  0  0  0  0
  1  2  1  0
  1 27  1  0
  1 28  1  0
  1 29  1  0
  2  3  2  0
  2 25  1  0
  3  4  1  0
  3 30  1  0
  4  5  2  0
  4 31  1  0
  5  6  1  0
  5 24  1  0
  6  7  1  0
  6 22  1  0
  7  8  2  0
  7  9  1  0
  9 10  1  0
  9 32  1  0
  9 33  1  0
 10 11  1  1
 10 12  1  0
 10 22  1  0
 12 13  1  0
 13 14  2  0
 13 21  1  0
 14 15  1  0
 15 16  2  0
 15 20  1  0
 16 17  1  0
 16 34  1  0
 17 18  2  0
 17 35  1  0
 18 19  1  0
 18 36  1  0
 19 20  2  0
 19 37  1  0
 20 21  1  0
 22 23  2  0
 24 25  2  0
 24 38  1  0
 25 26  1  0
M  END

