
     RDKit          3D

 52 55  0  0  0  0  0  0  0  0999 V2000
   -1.8483   -4.2415    0.2534 N   0  0  0  0  0  0  0  0  0  0  0  0
   -1.9931   -3.3078    1.2597 C   0  0  0  0  0  0  0  0  0  0  0  0
   -3.2038   -3.1712    1.9702 C   0  0  0  0  0  0  0  0  0  0  0  0
   -3.3345   -2.2598    3.0163 C   0  0  0  0  0  0  0  0  0  0  0  0
   -2.2664   -1.4290    3.3708 C   0  0  0  0  0  0  0  0  0  0  0  0
   -1.0689   -1.5283    2.6601 C   0  0  0  0  0  0  0  0  0  0  0  0
   -0.9076   -2.4651    1.6278 C   0  0  0  0  0  0  0  0  0  0  0  0
    0.7365   -2.6279    0.9547 S   0  0  0  0  0  0  0  0  0  0  0  0
    0.4559   -2.7393   -0.7856 N   0  0  0  0  0  0  0  0  0  0  0  0
    0.1052   -1.4750   -1.4561 C   0  0  0  0  0  0  0  0  0  0  0  0
    1.1279   -0.3342   -1.4152 C   0  0  1  0  0  0  0  0  0  0  0  0
    2.3811   -0.4648   -2.3092 C   0  0  0  0  0  0  0  0  0  0  0  0
    2.8899    0.9060   -2.4688 N   0  0  0  0  0  0  0  0  0  0  0  0
    1.9216    1.8414   -1.8833 C   0  0  0  0  0  0  0  0  0  0  0  0
    0.5858    1.0798   -1.7638 C   0  0  1  0  0  0  0  0  0  0  0  0
    0.0137    1.4625   -0.9018 H   0  0  0  0  0  0  0  0  0  0  0  0
   -0.3935    1.2251   -2.9689 C   0  0  0  0  0  0  0  0  0  0  0  0
    0.0498    0.8752   -4.3808 C   0  0  0  0  0  0  0  0  0  0  0  0
    1.0341    1.6555   -5.0250 C   0  0  0  0  0  0  0  0  0  0  0  0
    1.4758    1.3949   -6.3210 C   0  0  0  0  0  0  0  0  0  0  0  0
    0.9238    0.3329   -7.0422 C   0  0  0  0  0  0  0  0  0  0  0  0
   -0.0878   -0.4312   -6.4640 C   0  0  0  0  0  0  0  0  0  0  0  0
   -0.5204   -0.1508   -5.1611 C   0  0  0  0  0  0  0  0  0  0  0  0
   -2.0033   -1.2033   -4.5352 Br  0  0  0  0  0  0  0  0  0  0  0  0
    1.4527   -3.5594   -1.4325 C   0  0  1  0  0  0  0  0  0  0  0  0
    1.3356   -5.0541   -1.3190 C   0  0  0  0  0  0  0  0  0  0  0  0
    1.0245   -4.3762   -2.6289 C   0  0  0  0  0  0  0  0  0  0  0  0
   -2.7076   -4.6431   -0.1039 H   0  0  0  0  0  0  0  0  0  0  0  0
   -1.1685   -3.9753   -0.4606 H   0  0  0  0  0  0  0  0  0  0  0  0
   -4.0482   -3.8094    1.6924 H   0  0  0  0  0  0  0  0  0  0  0  0
   -4.2858   -2.1904    3.5506 H   0  0  0  0  0  0  0  0  0  0  0  0
   -2.3672   -0.7031    4.1805 H   0  0  0  0  0  0  0  0  0  0  0  0
   -0.2272   -0.8756    2.9063 H   0  0  0  0  0  0  0  0  0  0  0  0
   -0.8304   -1.1224   -0.9911 H   0  0  0  0  0  0  0  0  0  0  0  0
   -0.1457   -1.7397   -2.4941 H   0  0  0  0  0  0  0  0  0  0  0  0
    1.4716   -0.2624   -0.3684 H   0  0  0  0  0  0  0  0  0  0  0  0
    2.1180   -0.9216   -3.2818 H   0  0  0  0  0  0  0  0  0  0  0  0
    3.1412   -1.1165   -1.8436 H   0  0  0  0  0  0  0  0  0  0  0  0
    3.0690    1.1160   -3.4448 H   0  0  0  0  0  0  0  0  0  0  0  0
    1.8533    2.7714   -2.4696 H   0  0  0  0  0  0  0  0  0  0  0  0
    2.2483    2.1437   -0.8704 H   0  0  0  0  0  0  0  0  0  0  0  0
   -1.3066    0.6604   -2.7364 H   0  0  0  0  0  0  0  0  0  0  0  0
   -0.6998    2.2861   -2.9826 H   0  0  0  0  0  0  0  0  0  0  0  0
    1.4451    2.5154   -4.4933 H   0  0  0  0  0  0  0  0  0  0  0  0
    2.2422    2.0298   -6.7722 H   0  0  0  0  0  0  0  0  0  0  0  0
    1.2589    0.1123   -8.0585 H   0  0  0  0  0  0  0  0  0  0  0  0
   -0.5581   -1.2416   -7.0229 H   0  0  0  0  0  0  0  0  0  0  0  0
    2.4761   -3.1587   -1.4664 H   0  0  0  0  0  0  0  0  0  0  0  0
    0.5049   -5.4387   -0.7225 H   0  0  0  0  0  0  0  0  0  0  0  0
    2.2605   -5.6306   -1.2327 H   0  0  0  0  0  0  0  0  0  0  0  0
   -0.0231   -4.3035   -2.9344 H   0  0  0  0  0  0  0  0  0  0  0  0
    1.7301   -4.4772   -3.4586 H   0  0  0  0  0  0  0  0  0  0  0  0
  1  2  1  0
  1 28  1  0
  1 29  1  0
  2  3  2  0
  2  7  1  0
  3  4  1  0
  3 30  1  0
  4  5  2  0
  4 31  1  0
  5  6  1  0
  5 32  1  0
  6  7  2  0
  6 33  1  0
  7  8  1  0
  8  9  1  0
  9 10  1  0
  9 25  1  0
 10 11  1  0
 10 34  1  0
 10 35  1  0
 11 12  1  0
 11 15  1  0
 11 36  1  1
 12 13  1  0
 12 37  1  0
 12 38  1  0
 13 14  1  0
 13 39  1  0
 14 15  1  0
 14 40  1  0
 14 41  1  0
 15 16  1  1
 15 17  1  0
 17 18  1  0
 17 42  1  0
 17 43  1  0
 18 19  2  0
 18 23  1  0
 19 20  1  0
 19 44  1  0
 20 21  2  0
 20 45  1  0
 21 22  1  0
 21 46  1  0
 22 23  2  0
 22 47  1  0
 23 24  1  0
 25 26  1  0
 25 27  1  0
 25 48  1  6
 26 27  1  0
 26 49  1  0
 26 50  1  0
 27 51  1  0
 27 52  1  0
M  END

