
     RDKit          3D

 39 40  0  0  0  0  0  0  0  0999 V2000
    6.3677   -2.2053    2.4962 C   0  0  0  0  0  0  0  0  0  0  0  0
    6.6454   -0.7741    2.1402 C   0  0  0  0  0  0  0  0  0  0  0  0
    5.9763   -0.0533    1.2295 C   0  0  0  0  0  0  0  0  0  0  0  0
    6.2919    1.3657    0.8489 C   0  0  0  0  0  0  0  0  0  0  0  0
    5.0989    2.3207    0.9854 C   0  0  1  0  0  0  0  0  0  0  0  0
    4.5643    2.2686    2.3473 N   0  0  0  0  0  0  0  0  0  0  0  0
    3.3048    2.6701    2.6747 C   0  0  0  0  0  0  0  0  0  0  0  0
    2.6303    3.3456    1.8795 O   0  0  0  0  0  0  0  0  0  0  0  0
    2.7849    2.2827    3.9924 C   0  0  0  0  0  0  0  0  0  0  0  0
    3.2570    1.2880    4.8353 C   0  0  0  0  0  0  0  0  0  0  0  0
    2.4961    1.2226    5.9710 N   0  0  0  0  0  0  0  0  0  0  0  0
    2.6760    0.2967    7.0687 C   0  0  0  0  0  0  0  0  0  0  0  0
    1.4954    2.1824    5.8922 C   0  0  0  0  0  0  0  0  0  0  0  0
    0.4816    2.4947    6.8089 C   0  0  0  0  0  0  0  0  0  0  0  0
   -0.4002    3.5149    6.4614 C   0  0  0  0  0  0  0  0  0  0  0  0
   -0.2764    4.2028    5.2349 C   0  0  0  0  0  0  0  0  0  0  0  0
    0.7307    3.8903    4.3268 C   0  0  0  0  0  0  0  0  0  0  0  0
    1.6382    2.8659    4.6546 C   0  0  0  0  0  0  0  0  0  0  0  0
    5.4939    3.7613    0.5559 C   0  0  0  0  0  0  0  0  0  0  0  0
    6.6022    4.0324    0.1659 O   0  0  0  0  0  0  0  0  0  0  0  0
    4.5147    4.6536    0.6194 O   0  0  0  0  0  0  0  0  0  0  0  0
    7.2360   -2.8470    2.2639 H   0  0  0  0  0  0  0  0  0  0  0  0
    5.4975   -2.6016    1.9505 H   0  0  0  0  0  0  0  0  0  0  0  0
    6.1786   -2.3244    3.5777 H   0  0  0  0  0  0  0  0  0  0  0  0
    7.4900   -0.3006    2.6606 H   0  0  0  0  0  0  0  0  0  0  0  0
    5.1375   -0.5237    0.6971 H   0  0  0  0  0  0  0  0  0  0  0  0
    6.6230    1.4201   -0.2010 H   0  0  0  0  0  0  0  0  0  0  0  0
    7.1352    1.7559    1.4418 H   0  0  0  0  0  0  0  0  0  0  0  0
    4.2866    2.0079    0.3022 H   0  0  0  0  0  0  0  0  0  0  0  0
    5.1224    1.7812    3.0377 H   0  0  0  0  0  0  0  0  0  0  0  0
    4.0785    0.5867    4.6923 H   0  0  0  0  0  0  0  0  0  0  0  0
    3.5388   -0.3505    6.8629 H   0  0  0  0  0  0  0  0  0  0  0  0
    1.7847   -0.3386    7.1996 H   0  0  0  0  0  0  0  0  0  0  0  0
    2.8607    0.8357    8.0123 H   0  0  0  0  0  0  0  0  0  0  0  0
    0.3819    1.9634    7.7577 H   0  0  0  0  0  0  0  0  0  0  0  0
   -1.2039    3.7862    7.1505 H   0  0  0  0  0  0  0  0  0  0  0  0
   -0.9899    4.9951    4.9952 H   0  0  0  0  0  0  0  0  0  0  0  0
    0.8247    4.4108    3.3734 H   0  0  0  0  0  0  0  0  0  0  0  0
    3.6830    4.2378    0.9857 H   0  0  0  0  0  0  0  0  0  0  0  0
  1  2  1  0
  1 22  1  0
  1 23  1  0
  1 24  1  0
  2  3  2  0
  2 25  1  0
  3  4  1  0
  3 26  1  0
  4  5  1  0
  4 27  1  0
  4 28  1  0
  5  6  1  0
  5 19  1  0
  5 29  1  6
  6  7  1  0
  6 30  1  0
  7  8  2  0
  7  9  1  0
  9 10  2  0
  9 18  1  0
 10 11  1  0
 10 31  1  0
 11 12  1  0
 11 13  1  0
 12 32  1  0
 12 33  1  0
 12 34  1  0
 13 14  1  0
 13 18  2  0
 14 15  2  0
 14 35  1  0
 15 16  1  0
 15 36  1  0
 16 17  2  0
 16 37  1  0
 17 18  1  0
 17 38  1  0
 19 20  2  0
 19 21  1  0
 21 39  1  0
M  END

