
     RDKit          3D

 31 33  0  0  0  0  0  0  0  0999 V2000
    0.7034    0.7053   -0.4164 C   0  0  0  0  0  0  0  0  0  0  0  0
    2.1333    0.2743   -0.2046 C   0  0  0  0  0  0  0  0  0  0  0  0
    2.6917   -0.0422    0.9950 C   0  0  0  0  0  0  0  0  0  0  0  0
    2.1267    0.0003    2.3460 C   0  0  0  0  0  0  0  0  0  0  0  0
    2.6731   -0.8664    3.3193 C   0  0  0  0  0  0  0  0  0  0  0  0
    2.2006   -0.8934    4.6288 C   0  0  0  0  0  0  0  0  0  0  0  0
    1.1714   -0.0230    5.0027 C   0  0  0  0  0  0  0  0  0  0  0  0
    0.5729   -0.0407    6.6438 Cl  0  0  0  0  0  0  0  0  0  0  0  0
    0.6297    0.8722    4.0758 C   0  0  0  0  0  0  0  0  0  0  0  0
    1.1050    0.8808    2.7647 C   0  0  0  0  0  0  0  0  0  0  0  0
    2.9957    0.1603   -1.3942 C   0  0  0  0  0  0  0  0  0  0  0  0
    4.2459   -0.1951   -1.3872 N   0  0  0  0  0  0  0  0  0  0  0  0
    4.7964   -0.2049   -2.6450 C   0  0  0  0  0  0  0  0  0  0  0  0
    6.1259   -0.5500   -2.9553 C   0  0  0  0  0  0  0  0  0  0  0  0
    6.5440   -0.5114   -4.2808 C   0  0  0  0  0  0  0  0  0  0  0  0
    5.6582   -0.1334   -5.3098 C   0  0  0  0  0  0  0  0  0  0  0  0
    4.3372    0.2123   -5.0285 C   0  0  0  0  0  0  0  0  0  0  0  0
    3.9142    0.1740   -3.6944 C   0  0  0  0  0  0  0  0  0  0  0  0
    2.3482    0.5410   -3.0177 S   0  0  0  0  0  0  0  0  0  0  0  0
    0.0522    0.3550    0.3950 H   0  0  0  0  0  0  0  0  0  0  0  0
    0.3049    0.2950   -1.3577 H   0  0  0  0  0  0  0  0  0  0  0  0
    0.6063    1.8036   -0.4788 H   0  0  0  0  0  0  0  0  0  0  0  0
    3.7202   -0.4122    0.9395 H   0  0  0  0  0  0  0  0  0  0  0  0
    3.4834   -1.5418    3.0326 H   0  0  0  0  0  0  0  0  0  0  0  0
    2.6267   -1.5786    5.3634 H   0  0  0  0  0  0  0  0  0  0  0  0
   -0.1538    1.5652    4.3868 H   0  0  0  0  0  0  0  0  0  0  0  0
    0.6951    1.6138    2.0705 H   0  0  0  0  0  0  0  0  0  0  0  0
    6.8008   -0.8403   -2.1478 H   0  0  0  0  0  0  0  0  0  0  0  0
    7.5740   -0.7773   -4.5308 H   0  0  0  0  0  0  0  0  0  0  0  0
    6.0102   -0.1105   -6.3440 H   0  0  0  0  0  0  0  0  0  0  0  0
    3.6538    0.5040   -5.8288 H   0  0  0  0  0  0  0  0  0  0  0  0
  1  2  1  0
  1 20  1  0
  1 21  1  0
  1 22  1  0
  2  3  2  0
  2 11  1  0
  3  4  1  0
  3 23  1  0
  4  5  2  0
  4 10  1  0
  5  6  1  0
  5 24  1  0
  6  7  2  0
  6 25  1  0
  7  8  1  0
  7  9  1  0
  9 10  2  0
  9 26  1  0
 10 27  1  0
 11 12  2  0
 11 19  1  0
 12 13  1  0
 13 14  2  0
 13 18  1  0
 14 15  1  0
 14 28  1  0
 15 16  2  0
 15 29  1  0
 16 17  1  0
 16 30  1  0
 17 18  2  0
 17 31  1  0
 18 19  1  0
M  END

