
     RDKit          3D

 44 45  0  0  0  0  0  0  0  0999 V2000
    5.7592    0.5284    1.1817 O   0  0  0  0  0  0  0  0  0  0  0  0
    4.9516   -0.0998    1.8208 C   0  0  0  0  0  0  0  0  0  0  0  0
    3.8334    0.5087    2.2696 O   0  0  0  0  0  0  0  0  0  0  0  0
    5.0876   -1.5865    2.1097 C   0  0  0  0  0  0  0  0  0  0  0  0
    4.6361   -2.4725    0.9266 C   0  0  0  0  0  0  0  0  0  0  0  0
    5.2558   -2.0904   -0.4304 C   0  0  0  0  0  0  0  0  0  0  0  0
    6.6902   -1.8775   -0.4060 N   0  0  0  0  0  0  0  0  0  0  0  0
    7.5431   -2.9616   -0.3618 C   0  0  0  0  0  0  0  0  0  0  0  0
    7.1181   -4.1128   -0.3879 O   0  0  0  0  0  0  0  0  0  0  0  0
    8.8987   -2.6768   -0.3086 N   0  0  0  0  0  0  0  0  0  0  0  0
    9.8365   -3.7682   -0.0662 C   0  0  0  0  0  0  0  0  0  0  0  0
   10.9165   -3.8260   -1.1495 C   0  0  0  0  0  0  0  0  0  0  0  0
   11.6213   -2.4783   -1.3196 C   0  0  2  0  0  0  0  0  0  0  0  0
   12.3755   -2.2563   -0.1227 O   0  0  0  0  0  0  0  0  0  0  0  0
   13.4201   -1.3847   -0.0893 C   0  0  0  0  0  0  0  0  0  0  0  0
   13.9111   -0.6677   -1.1923 C   0  0  0  0  0  0  0  0  0  0  0  0
   15.0097    0.1879   -1.0415 C   0  0  0  0  0  0  0  0  0  0  0  0
   15.6098    0.3262    0.2038 C   0  0  0  0  0  0  0  0  0  0  0  0
   16.6626    1.1499    0.3459 F   0  0  0  0  0  0  0  0  0  0  0  0
   15.1351   -0.3760    1.3121 C   0  0  0  0  0  0  0  0  0  0  0  0
   14.0435   -1.2270    1.1622 C   0  0  0  0  0  0  0  0  0  0  0  0
   10.5901   -1.3626   -1.5395 C   0  0  0  0  0  0  0  0  0  0  0  0
    9.5011   -1.3590   -0.4554 C   0  0  0  0  0  0  0  0  0  0  0  0
    3.2883   -0.1145    2.7702 H   0  0  0  0  0  0  0  0  0  0  0  0
    4.5317   -1.8685    3.0198 H   0  0  0  0  0  0  0  0  0  0  0  0
    6.1527   -1.7702    2.3128 H   0  0  0  0  0  0  0  0  0  0  0  0
    3.5365   -2.4416    0.8296 H   0  0  0  0  0  0  0  0  0  0  0  0
    4.9122   -3.5116    1.1614 H   0  0  0  0  0  0  0  0  0  0  0  0
    4.7940   -1.1670   -0.8136 H   0  0  0  0  0  0  0  0  0  0  0  0
    5.0360   -2.8937   -1.1480 H   0  0  0  0  0  0  0  0  0  0  0  0
    6.9798   -0.9794   -0.0321 H   0  0  0  0  0  0  0  0  0  0  0  0
    9.2574   -4.6985   -0.0384 H   0  0  0  0  0  0  0  0  0  0  0  0
   10.3196   -3.6278    0.9189 H   0  0  0  0  0  0  0  0  0  0  0  0
   10.4572   -4.1019   -2.1131 H   0  0  0  0  0  0  0  0  0  0  0  0
   11.6623   -4.5972   -0.9001 H   0  0  0  0  0  0  0  0  0  0  0  0
   12.3117   -2.5345   -2.1791 H   0  0  0  0  0  0  0  0  0  0  0  0
   13.4521   -0.7612   -2.1762 H   0  0  0  0  0  0  0  0  0  0  0  0
   15.4014    0.7518   -1.8905 H   0  0  0  0  0  0  0  0  0  0  0  0
   15.6264   -0.2486    2.2789 H   0  0  0  0  0  0  0  0  0  0  0  0
   13.6523   -1.7924    2.0103 H   0  0  0  0  0  0  0  0  0  0  0  0
   10.1203   -1.5191   -2.5254 H   0  0  0  0  0  0  0  0  0  0  0  0
   11.0842   -0.3785   -1.5656 H   0  0  0  0  0  0  0  0  0  0  0  0
    8.7369   -0.6239   -0.7348 H   0  0  0  0  0  0  0  0  0  0  0  0
    9.9417   -1.0300    0.5050 H   0  0  0  0  0  0  0  0  0  0  0  0
  1  2  2  0
  2  3  1  0
  2  4  1  0
  3 24  1  0
  4  5  1  0
  4 25  1  0
  4 26  1  0
  5  6  1  0
  5 27  1  0
  5 28  1  0
  6  7  1  0
  6 29  1  0
  6 30  1  0
  7  8  1  0
  7 31  1  0
  8  9  2  0
  8 10  1  0
 10 11  1  0
 10 23  1  0
 11 12  1  0
 11 32  1  0
 11 33  1  0
 12 13  1  0
 12 34  1  0
 12 35  1  0
 13 14  1  0
 13 22  1  0
 13 36  1  6
 14 15  1  0
 15 16  2  0
 15 21  1  0
 16 17  1  0
 16 37  1  0
 17 18  2  0
 17 38  1  0
 18 19  1  0
 18 20  1  0
 20 21  2  0
 20 39  1  0
 21 40  1  0
 22 23  1  0
 22 41  1  0
 22 42  1  0
 23 43  1  0
 23 44  1  0
M  END

