
     RDKit          3D

 37 38  0  0  0  0  0  0  0  0999 V2000
    0.8679   -0.0121   -0.1210 C   0  0  0  0  0  0  0  0  0  0  0  0
    2.3876   -0.0284    0.1193 C   0  0  1  0  0  0  0  0  0  0  0  0
    2.7331    0.4364    1.5447 C   0  0  0  0  0  0  0  0  0  0  0  0
    3.0006   -1.3859   -0.2009 C   0  0  0  0  0  0  0  0  0  0  0  0
    3.9460   -1.5223   -1.2290 C   0  0  0  0  0  0  0  0  0  0  0  0
    4.5147   -2.7618   -1.5353 C   0  0  0  0  0  0  0  0  0  0  0  0
    4.1526   -3.9053   -0.8101 C   0  0  0  0  0  0  0  0  0  0  0  0
    4.8360   -5.5124   -1.2372 S   0  0  0  0  0  0  0  0  0  0  0  0
    6.2717   -5.5059   -0.0904 C   0  0  0  0  0  0  0  0  0  0  0  0
    7.0523   -6.7959   -0.2413 C   0  0  0  0  0  0  0  0  0  0  0  0
    6.6838   -7.6312   -1.0418 O   0  0  0  0  0  0  0  0  0  0  0  0
    8.2960   -7.0785    0.5904 C   0  0  0  0  0  0  0  0  0  0  0  0
    8.8863   -8.3309    0.3220 C   0  0  0  0  0  0  0  0  0  0  0  0
   10.0286   -8.7587    0.9865 C   0  0  0  0  0  0  0  0  0  0  0  0
   10.7196  -10.3182    0.6175 Cl  0  0  0  0  0  0  0  0  0  0  0  0
   10.6304   -7.9448    1.9525 C   0  0  0  0  0  0  0  0  0  0  0  0
   10.0671   -6.7046    2.2348 C   0  0  0  0  0  0  0  0  0  0  0  0
    8.9143   -6.2685    1.5672 C   0  0  0  0  0  0  0  0  0  0  0  0
    8.3317   -4.6836    2.0384 Cl  0  0  0  0  0  0  0  0  0  0  0  0
    3.2003   -3.7833    0.2138 C   0  0  0  0  0  0  0  0  0  0  0  0
    2.6385   -2.5412    0.5135 C   0  0  0  0  0  0  0  0  0  0  0  0
    0.4572    0.9964    0.0508 H   0  0  0  0  0  0  0  0  0  0  0  0
    0.3449   -0.7036    0.5600 H   0  0  0  0  0  0  0  0  0  0  0  0
    0.6219   -0.3094   -1.1523 H   0  0  0  0  0  0  0  0  0  0  0  0
    2.8387    0.6960   -0.5809 H   0  0  0  0  0  0  0  0  0  0  0  0
    2.2984   -0.2350    2.3036 H   0  0  0  0  0  0  0  0  0  0  0  0
    2.3374    1.4481    1.7315 H   0  0  0  0  0  0  0  0  0  0  0  0
    3.8223    0.4615    1.7054 H   0  0  0  0  0  0  0  0  0  0  0  0
    4.2408   -0.6410   -1.8064 H   0  0  0  0  0  0  0  0  0  0  0  0
    5.2423   -2.8495   -2.3457 H   0  0  0  0  0  0  0  0  0  0  0  0
    5.9325   -5.3903    0.9508 H   0  0  0  0  0  0  0  0  0  0  0  0
    6.9252   -4.6442   -0.2976 H   0  0  0  0  0  0  0  0  0  0  0  0
    8.4094   -8.9567   -0.4325 H   0  0  0  0  0  0  0  0  0  0  0  0
   11.5278   -8.2800    2.4749 H   0  0  0  0  0  0  0  0  0  0  0  0
   10.5200   -6.0539    2.9842 H   0  0  0  0  0  0  0  0  0  0  0  0
    2.8978   -4.6732    0.7711 H   0  0  0  0  0  0  0  0  0  0  0  0
    1.8990   -2.4766    1.3164 H   0  0  0  0  0  0  0  0  0  0  0  0
  1  2  1  0
  1 22  1  0
  1 23  1  0
  1 24  1  0
  2  3  1  0
  2  4  1  0
  2 25  1  6
  3 26  1  0
  3 27  1  0
  3 28  1  0
  4  5  2  0
  4 21  1  0
  5  6  1  0
  5 29  1  0
  6  7  2  0
  6 30  1  0
  7  8  1  0
  7 20  1  0
  8  9  1  0
  9 10  1  0
  9 31  1  0
  9 32  1  0
 10 11  2  0
 10 12  1  0
 12 13  2  0
 12 18  1  0
 13 14  1  0
 13 33  1  0
 14 15  1  0
 14 16  2  0
 16 17  1  0
 16 34  1  0
 17 18  2  0
 17 35  1  0
 18 19  1  0
 20 21  2  0
 20 36  1  0
 21 37  1  0
M  END

