
     RDKit          3D

 75 77  0  0  0  0  0  0  0  0999 V2000
    1.8167   -0.7945    0.5325 C   0  0  0  0  0  0  0  0  0  0  0  0
    2.7447   -0.3110   -0.3137 C   0  0  0  0  0  0  0  0  0  0  0  0
    3.2849   -1.1548   -1.4284 C   0  0  0  0  0  0  0  0  0  0  0  0
    3.3127   -2.4246   -1.5165 N   0  0  0  0  0  0  0  0  0  0  0  0
    3.2413    1.0927   -0.2236 C   0  0  0  0  0  0  0  0  0  0  0  0
    2.4288    2.1870   -0.2564 C   0  0  0  0  0  0  0  0  0  0  0  0
    0.9926    2.2105   -0.4389 C   0  0  0  0  0  0  0  0  0  0  0  0
    0.2125    3.3165   -0.4077 C   0  0  0  0  0  0  0  0  0  0  0  0
    0.6263    4.7318   -0.1461 C   0  0  0  0  0  0  0  0  0  0  0  0
    4.7142    1.2782   -0.1094 C   0  0  0  0  0  0  0  0  0  0  0  0
    5.2098    2.5150   -0.0601 N   0  0  0  0  0  0  0  0  0  0  0  0
    6.5317    2.6572    0.1321 C   0  0  0  0  0  0  0  0  0  0  0  0
    7.0483    4.0304    0.2666 C   0  0  0  0  0  0  0  0  0  0  0  0
    6.2959    5.1339    0.1057 C   0  0  0  0  0  0  0  0  0  0  0  0
    6.7913    6.5398    0.2280 C   0  0  0  0  0  0  0  0  0  0  0  0
    6.0546    7.3558    1.3034 C   0  0  0  0  0  0  0  0  0  0  0  0
    6.4589    8.8378    1.3169 C   0  0  0  0  0  0  0  0  0  0  0  0
    6.1547    9.5211    0.0633 N   0  0  0  0  0  0  0  0  0  0  0  0
    4.7614    9.9464   -0.0954 C   0  0  0  0  0  0  0  0  0  0  0  0
    4.4716   11.2905    0.5999 C   0  0  0  0  0  0  0  0  0  0  0  0
    5.3835   12.3600    0.1994 N   0  0  0  0  0  0  0  0  0  0  0  0
    5.0695   13.0315   -1.0591 C   0  0  0  0  0  0  0  0  0  0  0  0
    5.5797   14.4725   -1.1052 C   0  0  0  0  0  0  0  0  0  0  0  0
    6.7747   11.9338    0.3600 C   0  0  0  0  0  0  0  0  0  0  0  0
    7.0696   10.5912   -0.3353 C   0  0  0  0  0  0  0  0  0  0  0  0
    7.3899    1.5298    0.2028 C   0  0  0  0  0  0  0  0  0  0  0  0
    9.0947    1.6974    0.7453 S   0  0  0  0  0  0  0  0  0  0  0  0
    6.7818    0.2475    0.0222 C   0  0  0  0  0  0  0  0  0  0  0  0
    7.4681   -0.9512   -0.0067 N   0  0  0  0  0  0  0  0  0  0  0  0
    8.6680   -1.1449   -0.8264 C   0  0  0  0  0  0  0  0  0  0  0  0
    9.5116   -2.2806   -0.2572 C   0  0  0  0  0  0  0  0  0  0  0  0
    8.7670   -3.4737   -0.1437 O   0  0  0  0  0  0  0  0  0  0  0  0
    7.6243   -3.2926    0.6679 C   0  0  0  0  0  0  0  0  0  0  0  0
    6.7047   -2.1960    0.1359 C   0  0  0  0  0  0  0  0  0  0  0  0
    5.4470    0.1618   -0.0782 N   0  0  0  0  0  0  0  0  0  0  0  0
    1.4127   -1.8050    0.4162 H   0  0  0  0  0  0  0  0  0  0  0  0
    1.4347   -0.1987    1.3643 H   0  0  0  0  0  0  0  0  0  0  0  0
    3.6936   -0.5830   -2.2782 H   0  0  0  0  0  0  0  0  0  0  0  0
    2.9378   -2.8525   -0.6587 H   0  0  0  0  0  0  0  0  0  0  0  0
    2.9463    3.1450   -0.1676 H   0  0  0  0  0  0  0  0  0  0  0  0
    0.5017    1.2526   -0.6311 H   0  0  0  0  0  0  0  0  0  0  0  0
   -0.8593    3.1715   -0.5901 H   0  0  0  0  0  0  0  0  0  0  0  0
    1.7066    4.8465    0.0169 H   0  0  0  0  0  0  0  0  0  0  0  0
    0.1055    5.1308    0.7427 H   0  0  0  0  0  0  0  0  0  0  0  0
    0.3353    5.3838   -0.9889 H   0  0  0  0  0  0  0  0  0  0  0  0
    8.1080    4.1301    0.5091 H   0  0  0  0  0  0  0  0  0  0  0  0
    5.2342    4.9959   -0.1301 H   0  0  0  0  0  0  0  0  0  0  0  0
    6.6465    7.0672   -0.7329 H   0  0  0  0  0  0  0  0  0  0  0  0
    7.8761    6.5459    0.4325 H   0  0  0  0  0  0  0  0  0  0  0  0
    6.2502    6.9269    2.3014 H   0  0  0  0  0  0  0  0  0  0  0  0
    4.9644    7.2690    1.1478 H   0  0  0  0  0  0  0  0  0  0  0  0
    7.5484    8.9000    1.4774 H   0  0  0  0  0  0  0  0  0  0  0  0
    5.9956    9.3211    2.2038 H   0  0  0  0  0  0  0  0  0  0  0  0
    4.0905    9.1617    0.2901 H   0  0  0  0  0  0  0  0  0  0  0  0
    4.5459   10.0378   -1.1762 H   0  0  0  0  0  0  0  0  0  0  0  0
    4.5606   11.1577    1.6946 H   0  0  0  0  0  0  0  0  0  0  0  0
    3.4331   11.6069    0.4065 H   0  0  0  0  0  0  0  0  0  0  0  0
    3.9712   13.0464   -1.1553 H   0  0  0  0  0  0  0  0  0  0  0  0
    5.4400   12.4870   -1.9565 H   0  0  0  0  0  0  0  0  0  0  0  0
    5.1793   15.0492   -0.2569 H   0  0  0  0  0  0  0  0  0  0  0  0
    5.2710   14.9620   -2.0431 H   0  0  0  0  0  0  0  0  0  0  0  0
    6.6793   14.5241   -1.0572 H   0  0  0  0  0  0  0  0  0  0  0  0
    6.9862   11.8387    1.4418 H   0  0  0  0  0  0  0  0  0  0  0  0
    7.4487   12.7179   -0.0202 H   0  0  0  0  0  0  0  0  0  0  0  0
    8.1066   10.2736   -0.1379 H   0  0  0  0  0  0  0  0  0  0  0  0
    6.9848   10.7223   -1.4303 H   0  0  0  0  0  0  0  0  0  0  0  0
    9.6203    2.2282   -0.3877 H   0  0  0  0  0  0  0  0  0  0  0  0
    9.2626   -0.2269   -0.8575 H   0  0  0  0  0  0  0  0  0  0  0  0
    8.3637   -1.4042   -1.8608 H   0  0  0  0  0  0  0  0  0  0  0  0
    9.9100   -1.9732    0.7318 H   0  0  0  0  0  0  0  0  0  0  0  0
   10.3614   -2.4917   -0.9246 H   0  0  0  0  0  0  0  0  0  0  0  0
    7.9293   -3.0436    1.7060 H   0  0  0  0  0  0  0  0  0  0  0  0
    7.0881   -4.2536    0.6869 H   0  0  0  0  0  0  0  0  0  0  0  0
    5.8727   -2.0308    0.8314 H   0  0  0  0  0  0  0  0  0  0  0  0
    6.2607   -2.5026   -0.8299 H   0  0  0  0  0  0  0  0  0  0  0  0
  1  2  2  0
  1 36  1  0
  1 37  1  0
  2  3  1  0
  2  5  1  0
  3  4  2  0
  3 38  1  0
  4 39  1  0
  5  6  2  0
  5 10  1  0
  6  7  1  0
  6 40  1  0
  7  8  2  0
  7 41  1  0
  8  9  1  0
  8 42  1  0
  9 43  1  0
  9 44  1  0
  9 45  1  0
 10 11  2  0
 10 35  1  0
 11 12  1  0
 12 13  1  0
 12 26  2  0
 13 14  2  0
 13 46  1  0
 14 15  1  0
 14 47  1  0
 15 16  1  0
 15 48  1  0
 15 49  1  0
 16 17  1  0
 16 50  1  0
 16 51  1  0
 17 18  1  0
 17 52  1  0
 17 53  1  0
 18 19  1  0
 18 25  1  0
 19 20  1  0
 19 54  1  0
 19 55  1  0
 20 21  1  0
 20 56  1  0
 20 57  1  0
 21 22  1  0
 21 24  1  0
 22 23  1  0
 22 58  1  0
 22 59  1  0
 23 60  1  0
 23 61  1  0
 23 62  1  0
 24 25  1  0
 24 63  1  0
 24 64  1  0
 25 65  1  0
 25 66  1  0
 26 27  1  0
 26 28  1  0
 27 67  1  0
 28 29  1  0
 28 35  2  0
 29 30  1  0
 29 34  1  0
 30 31  1  0
 30 68  1  0
 30 69  1  0
 31 32  1  0
 31 70  1  0
 31 71  1  0
 32 33  1  0
 33 34  1  0
 33 72  1  0
 33 73  1  0
 34 74  1  0
 34 75  1  0
M  END

