
     RDKit          3D

 41 44  0  0  0  0  0  0  0  0999 V2000
    0.2964    1.0502    2.2387 C   0  0  0  0  0  0  0  0  0  0  0  0
    0.9484   -0.0871    1.6676 O   0  0  0  0  0  0  0  0  0  0  0  0
    1.8465   -0.7231    2.4081 C   0  0  0  0  0  0  0  0  0  0  0  0
    2.1274   -0.3147    3.6224 N   0  0  0  0  0  0  0  0  0  0  0  0
    3.0434   -1.0306    4.3351 C   0  0  0  0  0  0  0  0  0  0  0  0
    3.6739   -2.1114    3.9701 N   0  0  0  0  0  0  0  0  0  0  0  0
    3.3596   -2.5275    2.7189 N   0  0  0  0  0  0  0  0  0  0  0  0
    3.8182   -3.6443    2.0914 C   0  0  0  0  0  0  0  0  0  0  0  0
    4.7733   -4.5959    2.7234 C   0  0  0  0  0  0  0  0  0  0  0  0
    3.2945   -3.7315    0.8749 N   0  0  0  0  0  0  0  0  0  0  0  0
    2.4767   -2.6546    0.6797 C   0  0  0  0  0  0  0  0  0  0  0  0
    1.7351   -2.5145   -0.5755 C   0  0  0  0  0  0  0  0  0  0  0  0
    1.0915   -3.5814   -1.2523 C   0  0  0  0  0  0  0  0  0  0  0  0
    0.5051   -3.1748   -2.3685 N   0  0  0  0  0  0  0  0  0  0  0  0
    0.7507   -1.8586   -2.4495 N   0  0  0  0  0  0  0  0  0  0  0  0
    0.2739   -1.1410   -3.6172 C   0  0  0  0  0  0  0  0  0  0  0  0
    1.4984   -1.3980   -1.3916 C   0  0  0  0  0  0  0  0  0  0  0  0
    1.9815   -0.0119   -1.2776 C   0  0  0  0  0  0  0  0  0  0  0  0
    1.1404    1.0953   -1.5041 C   0  0  0  0  0  0  0  0  0  0  0  0
    1.6198    2.3979   -1.3953 C   0  0  0  0  0  0  0  0  0  0  0  0
    2.9631    2.6297   -1.0458 C   0  0  0  0  0  0  0  0  0  0  0  0
    3.4597    3.9717   -0.9284 C   0  0  0  0  0  0  0  0  0  0  0  0
    3.8586    5.0581   -0.8313 N   0  0  0  0  0  0  0  0  0  0  0  0
    3.8127    1.5308   -0.8133 C   0  0  0  0  0  0  0  0  0  0  0  0
    3.3254    0.2330   -0.9310 C   0  0  0  0  0  0  0  0  0  0  0  0
    2.4804   -1.8687    1.8402 C   0  0  0  0  0  0  0  0  0  0  0  0
   -0.2655    0.7643    3.1397 H   0  0  0  0  0  0  0  0  0  0  0  0
   -0.3823    1.4220    1.4621 H   0  0  0  0  0  0  0  0  0  0  0  0
    1.0286    1.8231    2.5129 H   0  0  0  0  0  0  0  0  0  0  0  0
    3.2778   -0.6643    5.3398 H   0  0  0  0  0  0  0  0  0  0  0  0
    5.7173   -4.0952    2.9927 H   0  0  0  0  0  0  0  0  0  0  0  0
    4.9832   -5.4072    2.0153 H   0  0  0  0  0  0  0  0  0  0  0  0
    4.3590   -5.0208    3.6519 H   0  0  0  0  0  0  0  0  0  0  0  0
    1.0453   -4.6249   -0.9441 H   0  0  0  0  0  0  0  0  0  0  0  0
    0.1774   -1.8692   -4.4317 H   0  0  0  0  0  0  0  0  0  0  0  0
    0.9883   -0.3588   -3.9059 H   0  0  0  0  0  0  0  0  0  0  0  0
   -0.7115   -0.6800   -3.4383 H   0  0  0  0  0  0  0  0  0  0  0  0
    0.0879    0.9368   -1.7444 H   0  0  0  0  0  0  0  0  0  0  0  0
    0.9547    3.2457   -1.5714 H   0  0  0  0  0  0  0  0  0  0  0  0
    4.8581    1.7037   -0.5503 H   0  0  0  0  0  0  0  0  0  0  0  0
    3.9965   -0.6118   -0.7670 H   0  0  0  0  0  0  0  0  0  0  0  0
  1  2  1  0
  1 27  1  0
  1 28  1  0
  1 29  1  0
  2  3  1  0
  3  4  2  0
  3 26  1  0
  4  5  1  0
  5  6  2  0
  5 30  1  0
  6  7  1  0
  7  8  1  0
  7 26  1  0
  8  9  1  0
  8 10  2  0
  9 31  1  0
  9 32  1  0
  9 33  1  0
 10 11  1  0
 11 12  1  0
 11 26  2  0
 12 13  1  0
 12 17  2  0
 13 14  2  0
 13 34  1  0
 14 15  1  0
 15 16  1  0
 15 17  1  0
 16 35  1  0
 16 36  1  0
 16 37  1  0
 17 18  1  0
 18 19  2  0
 18 25  1  0
 19 20  1  0
 19 38  1  0
 20 21  2  0
 20 39  1  0
 21 22  1  0
 21 24  1  0
 22 23  3  0
 24 25  2  0
 24 40  1  0
 25 41  1  0
M  END

