
     RDKit          3D

 33 34  0  0  0  0  0  0  0  0999 V2000
    0.8737    1.0840    0.5692 C   0  0  0  0  0  0  0  0  0  0  0  0
    2.3915    0.9677    0.4294 C   0  0  0  0  0  0  0  0  0  0  0  0
    2.8415    0.5944   -0.9966 C   0  0  0  0  0  0  0  0  0  0  0  0
    4.3337    0.5274   -1.1633 C   0  0  0  0  0  0  0  0  0  0  0  0
    5.2481    1.6213   -1.0448 C   0  0  0  0  0  0  0  0  0  0  0  0
    4.9203    2.9524   -0.7909 N   0  0  0  0  0  0  0  0  0  0  0  0
    6.5146    1.2308   -1.1350 N   0  0  0  0  0  0  0  0  0  0  0  0
    6.4441   -0.1081   -1.2757 N   0  0  0  0  0  0  0  0  0  0  0  0
    7.2876   -0.6321   -1.4694 H   0  0  0  0  0  0  0  0  0  0  0  0
    5.1653   -0.5836   -1.3258 C   0  0  0  0  0  0  0  0  0  0  0  0
    4.8930   -2.0202   -1.4948 C   0  0  0  0  0  0  0  0  0  0  0  0
    5.6684   -2.9814   -0.8207 C   0  0  0  0  0  0  0  0  0  0  0  0
    5.4337   -4.3467   -0.9955 C   0  0  0  0  0  0  0  0  0  0  0  0
    4.4121   -4.8087   -1.8379 C   0  0  0  0  0  0  0  0  0  0  0  0
    4.1379   -6.2823   -2.0130 C   0  0  0  0  0  0  0  0  0  0  0  0
    3.6387   -3.8473   -2.5108 C   0  0  0  0  0  0  0  0  0  0  0  0
    3.8739   -2.4830   -2.3500 C   0  0  0  0  0  0  0  0  0  0  0  0
    0.5820    1.3459    1.5989 H   0  0  0  0  0  0  0  0  0  0  0  0
    0.3706    0.1362    0.3124 H   0  0  0  0  0  0  0  0  0  0  0  0
    0.4657    1.8622   -0.0984 H   0  0  0  0  0  0  0  0  0  0  0  0
    2.7767    0.2067    1.1300 H   0  0  0  0  0  0  0  0  0  0  0  0
    2.8728    1.9169    0.7192 H   0  0  0  0  0  0  0  0  0  0  0  0
    2.4166    1.3318   -1.7060 H   0  0  0  0  0  0  0  0  0  0  0  0
    2.3896   -0.3713   -1.2731 H   0  0  0  0  0  0  0  0  0  0  0  0
    4.1164    3.2867   -1.3153 H   0  0  0  0  0  0  0  0  0  0  0  0
    5.7168    3.5729   -0.9104 H   0  0  0  0  0  0  0  0  0  0  0  0
    6.4522   -2.6542   -0.1327 H   0  0  0  0  0  0  0  0  0  0  0  0
    6.0525   -5.0689   -0.4550 H   0  0  0  0  0  0  0  0  0  0  0  0
    4.9213   -6.8984   -1.5475 H   0  0  0  0  0  0  0  0  0  0  0  0
    4.0788   -6.5569   -3.0789 H   0  0  0  0  0  0  0  0  0  0  0  0
    3.1747   -6.5665   -1.5550 H   0  0  0  0  0  0  0  0  0  0  0  0
    2.8428   -4.1756   -3.1861 H   0  0  0  0  0  0  0  0  0  0  0  0
    3.2784   -1.7624   -2.9142 H   0  0  0  0  0  0  0  0  0  0  0  0
  1  2  1  0
  1 18  1  0
  1 19  1  0
  1 20  1  0
  2  3  1  0
  2 21  1  0
  2 22  1  0
  3  4  1  0
  3 23  1  0
  3 24  1  0
  4  5  1  0
  4 10  2  0
  5  6  1  0
  5  7  2  0
  6 25  1  0
  6 26  1  0
  7  8  1  0
  8  9  1  0
  8 10  1  0
 10 11  1  0
 11 12  2  0
 11 17  1  0
 12 13  1  0
 12 27  1  0
 13 14  2  0
 13 28  1  0
 14 15  1  0
 14 16  1  0
 15 29  1  0
 15 30  1  0
 15 31  1  0
 16 17  2  0
 16 32  1  0
 17 33  1  0
M  END

