
     RDKit          3D

 40 43  0  0  0  0  0  0  0  0999 V2000
    0.7118   -0.4259    0.2575 C   0  0  0  0  0  0  0  0  0  0  0  0
    2.1909   -0.2064    0.1029 C   0  0  0  0  0  0  0  0  0  0  0  0
    2.8314    1.0082    0.0257 C   0  0  0  0  0  0  0  0  0  0  0  0
    2.2638    2.3999    0.1028 C   0  0  0  0  0  0  0  0  0  0  0  0
    2.4369    3.2584   -1.1454 C   0  0  0  0  0  0  0  0  0  0  0  0
    2.2417    2.7213   -2.4248 C   0  0  0  0  0  0  0  0  0  0  0  0
    2.3467    3.5072   -3.5887 C   0  0  0  0  0  0  0  0  0  0  0  0
    2.6499    4.8461   -3.4190 C   0  0  0  0  0  0  0  0  0  0  0  0
    2.8491    5.3927   -2.1494 C   0  0  0  0  0  0  0  0  0  0  0  0
    2.7535    4.6290   -1.0000 C   0  0  0  0  0  0  0  0  0  0  0  0
    3.1684    6.7169   -2.2723 O   0  0  0  0  0  0  0  0  0  0  0  0
    2.9932    7.0388   -3.6499 C   0  0  0  0  0  0  0  0  0  0  0  0
    2.8410    5.8163   -4.3646 O   0  0  0  0  0  0  0  0  0  0  0  0
    4.5627    0.8070   -0.1621 S   0  0  0  0  0  0  0  0  0  0  0  0
    4.4375   -0.9264   -0.0869 C   0  0  0  0  0  0  0  0  0  0  0  0
    5.5815   -1.7149   -0.1958 N   0  0  0  0  0  0  0  0  0  0  0  0
    5.7191   -2.7554   -1.1015 C   0  0  0  0  0  0  0  0  0  0  0  0
    4.8314   -3.0822   -1.8622 O   0  0  0  0  0  0  0  0  0  0  0  0
    7.0327   -3.4854   -1.1062 C   0  0  0  0  0  0  0  0  0  0  0  0
    7.1728   -4.5857   -2.0210 C   0  0  0  0  0  0  0  0  0  0  0  0
    8.3962   -5.1851   -1.9598 C   0  0  0  0  0  0  0  0  0  0  0  0
    8.9594   -6.5271   -2.8793 Cl  0  0  0  0  0  0  0  0  0  0  0  0
    9.4422   -4.4343   -0.7795 S   0  0  0  0  0  0  0  0  0  0  0  0
    8.1902   -3.2972   -0.3741 C   0  0  0  0  0  0  0  0  0  0  0  0
    8.5496   -2.1198    0.8491 Cl  0  0  0  0  0  0  0  0  0  0  0  0
    3.1177   -1.3195    0.0476 C   0  0  0  0  0  0  0  0  0  0  0  0
    2.6972   -2.6741    0.1995 C   0  0  0  0  0  0  0  0  0  0  0  0
    2.3128   -3.7576    0.3674 N   0  0  0  0  0  0  0  0  0  0  0  0
    0.1479    0.5161    0.2411 H   0  0  0  0  0  0  0  0  0  0  0  0
    0.4849   -0.9428    1.2045 H   0  0  0  0  0  0  0  0  0  0  0  0
    0.3252   -1.0669   -0.5512 H   0  0  0  0  0  0  0  0  0  0  0  0
    2.7102    2.9305    0.9608 H   0  0  0  0  0  0  0  0  0  0  0  0
    1.1903    2.3128    0.3389 H   0  0  0  0  0  0  0  0  0  0  0  0
    2.0065    1.6594   -2.5269 H   0  0  0  0  0  0  0  0  0  0  0  0
    2.2011    3.0811   -4.5825 H   0  0  0  0  0  0  0  0  0  0  0  0
    2.9196    5.0764   -0.0179 H   0  0  0  0  0  0  0  0  0  0  0  0
    3.8790    7.5797   -4.0210 H   0  0  0  0  0  0  0  0  0  0  0  0
    2.0838    7.6603   -3.7742 H   0  0  0  0  0  0  0  0  0  0  0  0
    6.3983   -1.4320    0.3369 H   0  0  0  0  0  0  0  0  0  0  0  0
    6.3613   -4.8876   -2.6813 H   0  0  0  0  0  0  0  0  0  0  0  0
  1  2  1  0
  1 29  1  0
  1 30  1  0
  1 31  1  0
  2  3  2  0
  2 26  1  0
  3  4  1  0
  3 14  1  0
  4  5  1  0
  4 32  1  0
  4 33  1  0
  5  6  2  0
  5 10  1  0
  6  7  1  0
  6 34  1  0
  7  8  2  0
  7 35  1  0
  8  9  1  0
  8 13  1  0
  9 10  2  0
  9 11  1  0
 10 36  1  0
 11 12  1  0
 12 13  1  0
 12 37  1  0
 12 38  1  0
 14 15  1  0
 15 16  1  0
 15 26  2  0
 16 17  1  0
 16 39  1  0
 17 18  2  0
 17 19  1  0
 19 20  1  0
 19 24  2  0
 20 21  2  0
 20 40  1  0
 21 22  1  0
 21 23  1  0
 23 24  1  0
 24 25  1  0
 26 27  1  0
 27 28  3  0
M  END

