
     RDKit          3D

 55 58  0  0  0  0  0  0  0  0999 V2000
    2.2921   -0.2831   -1.2499 C   0  0  0  0  0  0  0  0  0  0  0  0
    1.9334   -1.5147   -0.4563 C   0  0  0  0  0  0  0  0  0  0  0  0
    1.2627   -2.4326   -0.8593 O   0  0  0  0  0  0  0  0  0  0  0  0
    2.4497   -1.4449    0.7923 O   0  0  0  0  0  0  0  0  0  0  0  0
    2.1101   -2.4862    1.7300 C   0  0  2  0  0  0  0  0  0  0  0  0
    1.2352   -3.0046    1.3179 H   0  0  0  0  0  0  0  0  0  0  0  0
    1.8822   -1.8925    3.1234 C   0  0  0  0  0  0  0  0  0  0  0  0
    1.0407   -0.8828    3.4407 C   0  0  0  0  0  0  0  0  0  0  0  0
    0.0984   -0.2724    2.4491 C   0  0  0  0  0  0  0  0  0  0  0  0
   -0.8157   -1.0517    1.7188 C   0  0  0  0  0  0  0  0  0  0  0  0
   -1.6949   -0.4630    0.8049 C   0  0  0  0  0  0  0  0  0  0  0  0
   -1.6811    0.9198    0.6062 C   0  0  0  0  0  0  0  0  0  0  0  0
   -0.7876    1.7113    1.3372 C   0  0  0  0  0  0  0  0  0  0  0  0
    0.0850    1.1224    2.2541 C   0  0  0  0  0  0  0  0  0  0  0  0
    0.9986   -0.2829    4.8134 C   0  0  0  0  0  0  0  0  0  0  0  0
    2.1422    0.2815    5.4067 C   0  0  0  0  0  0  0  0  0  0  0  0
    2.0828    0.8528    6.6814 C   0  0  0  0  0  0  0  0  0  0  0  0
    0.8771    0.8725    7.3879 C   0  0  0  0  0  0  0  0  0  0  0  0
   -0.2713    0.3262    6.8053 C   0  0  0  0  0  0  0  0  0  0  0  0
   -0.2126   -0.2363    5.5287 C   0  0  0  0  0  0  0  0  0  0  0  0
    2.8124   -2.6697    4.0401 C   0  0  1  0  0  0  0  0  0  0  0  0
    2.9807   -2.2115    5.0213 H   0  0  0  0  0  0  0  0  0  0  0  0
    2.2353   -4.1114    4.1177 C   0  0  0  0  0  0  0  0  0  0  0  0
    2.5449   -4.6861    2.7055 C   0  0  0  0  0  0  0  0  0  0  0  0
    3.2582   -3.5149    1.9708 C   0  0  1  0  0  0  0  0  0  0  0  0
    4.0081   -3.9301    0.7143 C   0  0  0  0  0  0  0  0  0  0  0  0
    4.0791   -2.8533    3.1439 C   0  0  2  0  0  0  0  0  0  0  0  0
    5.1530   -3.7666    3.7586 C   0  0  0  0  0  0  0  0  0  0  0  0
    4.7640   -1.5235    2.7866 C   0  0  0  0  0  0  0  0  0  0  0  0
    2.0324   -0.4356   -2.3043 H   0  0  0  0  0  0  0  0  0  0  0  0
    3.3614   -0.0494   -1.1438 H   0  0  0  0  0  0  0  0  0  0  0  0
    1.7249    0.5734   -0.8520 H   0  0  0  0  0  0  0  0  0  0  0  0
   -0.8476   -2.1317    1.8759 H   0  0  0  0  0  0  0  0  0  0  0  0
   -2.3945   -1.0912    0.2477 H   0  0  0  0  0  0  0  0  0  0  0  0
   -2.3681    1.3807   -0.1081 H   0  0  0  0  0  0  0  0  0  0  0  0
   -0.7741    2.7954    1.1955 H   0  0  0  0  0  0  0  0  0  0  0  0
    0.7734    1.7482    2.8272 H   0  0  0  0  0  0  0  0  0  0  0  0
    3.0840    0.2829    4.8533 H   0  0  0  0  0  0  0  0  0  0  0  0
    2.9831    1.2901    7.1214 H   0  0  0  0  0  0  0  0  0  0  0  0
    0.8301    1.3182    8.3849 H   0  0  0  0  0  0  0  0  0  0  0  0
   -1.2204    0.3413    7.3477 H   0  0  0  0  0  0  0  0  0  0  0  0
   -1.1164   -0.6519    5.0762 H   0  0  0  0  0  0  0  0  0  0  0  0
    1.1607   -4.1012    4.3518 H   0  0  0  0  0  0  0  0  0  0  0  0
    2.7312   -4.6878    4.9133 H   0  0  0  0  0  0  0  0  0  0  0  0
    1.6404   -5.0027    2.1635 H   0  0  0  0  0  0  0  0  0  0  0  0
    3.2026   -5.5665    2.7570 H   0  0  0  0  0  0  0  0  0  0  0  0
    3.3198   -4.3633   -0.0286 H   0  0  0  0  0  0  0  0  0  0  0  0
    4.7751   -4.6863    0.9457 H   0  0  0  0  0  0  0  0  0  0  0  0
    4.5111   -3.0735    0.2398 H   0  0  0  0  0  0  0  0  0  0  0  0
    4.7885   -4.7628    4.0425 H   0  0  0  0  0  0  0  0  0  0  0  0
    5.5733   -3.2994    4.6644 H   0  0  0  0  0  0  0  0  0  0  0  0
    5.9874   -3.9104    3.0531 H   0  0  0  0  0  0  0  0  0  0  0  0
    4.0760   -0.7811    2.3639 H   0  0  0  0  0  0  0  0  0  0  0  0
    5.5715   -1.6846    2.0537 H   0  0  0  0  0  0  0  0  0  0  0  0
    5.2280   -1.0873    3.6872 H   0  0  0  0  0  0  0  0  0  0  0  0
  1  2  1  0
  1 30  1  0
  1 31  1  0
  1 32  1  0
  2  3  2  0
  2  4  1  0
  4  5  1  0
  5  6  1  6
  5  7  1  0
  5 25  1  0
  7  8  2  0
  7 21  1  0
  8  9  1  0
  8 15  1  0
  9 10  2  0
  9 14  1  0
 10 11  1  0
 10 33  1  0
 11 12  2  0
 11 34  1  0
 12 13  1  0
 12 35  1  0
 13 14  2  0
 13 36  1  0
 14 37  1  0
 15 16  2  0
 15 20  1  0
 16 17  1  0
 16 38  1  0
 17 18  2  0
 17 39  1  0
 18 19  1  0
 18 40  1  0
 19 20  2  0
 19 41  1  0
 20 42  1  0
 21 22  1  1
 21 23  1  0
 21 27  1  0
 23 24  1  0
 23 43  1  0
 23 44  1  0
 24 25  1  0
 24 45  1  0
 24 46  1  0
 25 26  1  6
 25 27  1  0
 26 47  1  0
 26 48  1  0
 26 49  1  0
 27 28  1  1
 27 29  1  0
 28 50  1  0
 28 51  1  0
 28 52  1  0
 29 53  1  0
 29 54  1  0
 29 55  1  0
M  END

