
     RDKit          3D

 41 43  0  0  0  0  0  0  0  0999 V2000
    1.5144   -0.8008   -0.1568 O   0  0  0  0  0  0  0  0  0  0  0  0
    2.6392   -0.3166   -0.2141 C   0  0  0  0  0  0  0  0  0  0  0  0
    3.1759    0.0978   -1.4010 N   0  0  0  0  0  0  0  0  0  0  0  0
    2.4666   -0.0982   -2.6425 C   0  0  1  0  0  0  0  0  0  0  0  0
    1.3651    0.9633   -2.8988 C   0  0  0  0  0  0  0  0  0  0  0  0
    1.8665    2.3750   -3.1139 C   0  0  1  0  0  0  0  0  0  0  0  0
    0.9559    3.5491   -2.8477 C   0  0  0  0  0  0  0  0  0  0  0  0
    2.1352    3.2931   -1.9462 C   0  0  0  0  0  0  0  0  0  0  0  0
    3.4992   -0.1407   -3.7725 C   0  0  0  0  0  0  0  0  0  0  0  0
    4.6747    0.0510   -3.6070 O   0  0  0  0  0  0  0  0  0  0  0  0
    3.0084   -0.3937   -4.9998 O   0  0  0  0  0  0  0  0  0  0  0  0
    3.4956   -0.1434    1.0089 C   0  0  0  0  0  0  0  0  0  0  0  0
    4.6611    0.6395    1.0488 C   0  0  0  0  0  0  0  0  0  0  0  0
    5.3913    0.7420    2.2303 C   0  0  0  0  0  0  0  0  0  0  0  0
    4.9814    0.0850    3.3989 C   0  0  0  0  0  0  0  0  0  0  0  0
    3.8001   -0.6952    3.3695 C   0  0  0  0  0  0  0  0  0  0  0  0
    3.0804   -0.7958    2.1764 C   0  0  0  0  0  0  0  0  0  0  0  0
    3.2680   -1.2917    4.4773 O   0  0  0  0  0  0  0  0  0  0  0  0
    4.0654   -2.1949    5.2324 C   0  0  0  0  0  0  0  0  0  0  0  0
    5.1096   -1.4985    6.0939 C   0  0  0  0  0  0  0  0  0  0  0  0
    6.1911   -0.7964    5.2854 C   0  0  0  0  0  0  0  0  0  0  0  0
    5.7091    0.3100    4.5296 O   0  0  0  0  0  0  0  0  0  0  0  0
    4.1637    0.3138   -1.4923 H   0  0  0  0  0  0  0  0  0  0  0  0
    1.9584   -1.0808   -2.6017 H   0  0  0  0  0  0  0  0  0  0  0  0
    0.6830    0.9181   -2.0358 H   0  0  0  0  0  0  0  0  0  0  0  0
    0.7589    0.6466   -3.7699 H   0  0  0  0  0  0  0  0  0  0  0  0
    2.5391    2.4905   -3.9728 H   0  0  0  0  0  0  0  0  0  0  0  0
   -0.0440    3.3395   -2.4547 H   0  0  0  0  0  0  0  0  0  0  0  0
    0.9958    4.3999   -3.5337 H   0  0  0  0  0  0  0  0  0  0  0  0
    1.9373    2.9108   -0.9410 H   0  0  0  0  0  0  0  0  0  0  0  0
    2.9942    3.9672   -2.0064 H   0  0  0  0  0  0  0  0  0  0  0  0
    2.0496   -0.5263   -4.9649 H   0  0  0  0  0  0  0  0  0  0  0  0
    5.0014    1.1935    0.1714 H   0  0  0  0  0  0  0  0  0  0  0  0
    6.2930    1.3550    2.2871 H   0  0  0  0  0  0  0  0  0  0  0  0
    2.1610   -1.3826    2.1624 H   0  0  0  0  0  0  0  0  0  0  0  0
    4.5487   -2.9254    4.5542 H   0  0  0  0  0  0  0  0  0  0  0  0
    3.3545   -2.7454    5.8662 H   0  0  0  0  0  0  0  0  0  0  0  0
    5.5909   -2.2511    6.7438 H   0  0  0  0  0  0  0  0  0  0  0  0
    4.6111   -0.7669    6.7519 H   0  0  0  0  0  0  0  0  0  0  0  0
    6.6960   -1.5150    4.6105 H   0  0  0  0  0  0  0  0  0  0  0  0
    6.9537   -0.3726    5.9554 H   0  0  0  0  0  0  0  0  0  0  0  0
  1  2  2  0
  2  3  1  0
  2 12  1  0
  3  4  1  0
  3 23  1  0
  4  5  1  0
  4  9  1  0
  4 24  1  1
  5  6  1  0
  5 25  1  0
  5 26  1  0
  6  7  1  0
  6  8  1  0
  6 27  1  6
  7  8  1  0
  7 28  1  0
  7 29  1  0
  8 30  1  0
  8 31  1  0
  9 10  2  0
  9 11  1  0
 11 32  1  0
 12 13  2  0
 12 17  1  0
 13 14  1  0
 13 33  1  0
 14 15  2  0
 14 34  1  0
 15 16  1  0
 15 22  1  0
 16 17  2  0
 16 18  1  0
 17 35  1  0
 18 19  1  0
 19 20  1  0
 19 36  1  0
 19 37  1  0
 20 21  1  0
 20 38  1  0
 20 39  1  0
 21 22  1  0
 21 40  1  0
 21 41  1  0
M  END

