
     RDKit          3D

 37 38  0  0  0  0  0  0  0  0999 V2000
    0.9668    0.1975   -0.1454 C   0  0  0  0  0  0  0  0  0  0  0  0
    2.4120    0.0610   -0.1490 N   0  0  0  0  0  0  0  0  0  0  0  0
    2.8225   -1.2473   -0.6341 C   0  0  0  0  0  0  0  0  0  0  0  0
    4.3231   -1.5357   -0.5431 C   0  0  0  0  0  0  0  0  0  0  0  0
    5.1872   -0.7075   -1.5065 C   0  0  0  0  0  0  0  0  0  0  0  0
    5.5532    0.6553   -1.0747 N   0  0  0  0  0  0  0  0  0  0  0  0
    6.8436    0.7069   -0.3862 C   0  0  0  0  0  0  0  0  0  0  0  0
    8.0883    0.4237   -1.2448 C   0  0  0  0  0  0  0  0  0  0  0  0
    9.0423   -0.1469   -0.7505 O   0  0  0  0  0  0  0  0  0  0  0  0
    8.1299    0.9348   -2.6242 C   0  0  0  0  0  0  0  0  0  0  0  0
    9.1973    0.9619   -3.5157 C   0  0  0  0  0  0  0  0  0  0  0  0
    8.7065    1.5914   -4.6802 C   0  0  0  0  0  0  0  0  0  0  0  0
    9.4439    1.8562   -5.8892 N   0  0  0  0  0  0  0  0  0  0  0  0
   10.6142    1.5059   -5.9239 O   0  0  0  0  0  0  0  0  0  0  0  0
    8.8456    2.4140   -6.8016 O   0  0  0  0  0  0  0  0  0  0  0  0
    7.3650    1.9285   -4.4877 C   0  0  0  0  0  0  0  0  0  0  0  0
    7.0410    1.5303   -3.2423 N   0  0  0  0  0  0  0  0  0  0  0  0
    6.1357    1.5352   -2.7518 H   0  0  0  0  0  0  0  0  0  0  0  0
    4.5291    1.3908   -0.3152 C   0  0  0  0  0  0  0  0  0  0  0  0
    3.0807    1.1952   -0.7727 C   0  0  0  0  0  0  0  0  0  0  0  0
    0.5141   -0.6205    0.4369 H   0  0  0  0  0  0  0  0  0  0  0  0
    0.5148    0.1710   -1.1640 H   0  0  0  0  0  0  0  0  0  0  0  0
    0.6739    1.1481    0.3275 H   0  0  0  0  0  0  0  0  0  0  0  0
    2.5056   -1.4034   -1.6956 H   0  0  0  0  0  0  0  0  0  0  0  0
    2.2808   -2.0035   -0.0418 H   0  0  0  0  0  0  0  0  0  0  0  0
    4.4627   -2.5985   -0.8019 H   0  0  0  0  0  0  0  0  0  0  0  0
    4.6733   -1.4224    0.4966 H   0  0  0  0  0  0  0  0  0  0  0  0
    4.6626   -0.6500   -2.4777 H   0  0  0  0  0  0  0  0  0  0  0  0
    6.1259   -1.2445   -1.7105 H   0  0  0  0  0  0  0  0  0  0  0  0
    6.9054    0.0273    0.4870 H   0  0  0  0  0  0  0  0  0  0  0  0
    6.9821    1.7301    0.0081 H   0  0  0  0  0  0  0  0  0  0  0  0
   10.2013    0.5875   -3.3406 H   0  0  0  0  0  0  0  0  0  0  0  0
    6.6686    2.4087   -5.1695 H   0  0  0  0  0  0  0  0  0  0  0  0
    4.7795    2.4632   -0.3911 H   0  0  0  0  0  0  0  0  0  0  0  0
    4.5598    1.1339    0.7627 H   0  0  0  0  0  0  0  0  0  0  0  0
    3.0262    1.1741   -1.8871 H   0  0  0  0  0  0  0  0  0  0  0  0
    2.5315    2.0981   -0.4648 H   0  0  0  0  0  0  0  0  0  0  0  0
  1  2  1  0
  1 21  1  0
  1 22  1  0
  1 23  1  0
  2  3  1  0
  2 20  1  0
  3  4  1  0
  3 24  1  0
  3 25  1  0
  4  5  1  0
  4 26  1  0
  4 27  1  0
  5  6  1  0
  5 28  1  0
  5 29  1  0
  6  7  1  0
  6 19  1  0
  7  8  1  0
  7 30  1  0
  7 31  1  0
  8  9  2  0
  8 10  1  0
 10 11  2  0
 10 17  1  0
 11 12  1  0
 11 32  1  0
 12 13  1  0
 12 16  2  0
 13 14  2  0
 13 15  1  0
 16 17  1  0
 16 33  1  0
 17 18  1  0
 19 20  1  0
 19 34  1  0
 19 35  1  0
 20 36  1  0
 20 37  1  0
M  CHG  2  13   1  15  -1
M  END

