
     RDKit          3D

 50 52  0  0  0  0  0  0  0  0999 V2000
    0.6185   -0.1739    1.4415 C   0  0  0  0  0  0  0  0  0  0  0  0
    2.0234   -0.0333    0.8873 C   0  0  0  0  0  0  0  0  0  0  0  0
    2.9117   -0.7106    1.7614 O   0  0  0  0  0  0  0  0  0  0  0  0
    4.2398   -0.7340    1.4878 C   0  0  0  0  0  0  0  0  0  0  0  0
    4.8391   -0.1260    0.3756 C   0  0  0  0  0  0  0  0  0  0  0  0
    6.2236   -0.2183    0.1997 C   0  0  0  0  0  0  0  0  0  0  0  0
    7.0507   -0.9053    1.1033 C   0  0  0  0  0  0  0  0  0  0  0  0
    8.4986   -0.9682    0.8547 C   0  0  0  0  0  0  0  0  0  0  0  0
    9.4346   -1.6055    1.5797 C   0  0  0  0  0  0  0  0  0  0  0  0
   10.9075   -1.5783    1.2847 C   0  0  0  0  0  0  0  0  0  0  0  0
   11.5044   -2.9112    1.2331 N   0  0  0  0  0  0  0  0  0  0  0  0
   11.0509   -3.6881    0.0945 C   0  0  0  0  0  0  0  0  0  0  0  0
   12.9566   -2.8878    1.3496 C   0  0  0  0  0  0  0  0  0  0  0  0
   13.4567   -2.4641    2.7181 C   0  0  0  0  0  0  0  0  0  0  0  0
   12.8810   -2.9942    3.8860 C   0  0  0  0  0  0  0  0  0  0  0  0
   13.3795   -2.6534    5.1418 C   0  0  0  0  0  0  0  0  0  0  0  0
   14.4598   -1.7725    5.2622 C   0  0  0  0  0  0  0  0  0  0  0  0
   15.0297   -1.2184    4.1002 C   0  0  0  0  0  0  0  0  0  0  0  0
   14.5256   -1.5708    2.8437 C   0  0  0  0  0  0  0  0  0  0  0  0
   16.0702   -0.3311    4.1660 O   0  0  0  0  0  0  0  0  0  0  0  0
   16.2816    0.2294    5.4516 C   0  0  0  0  0  0  0  0  0  0  0  0
   16.2103   -0.8526    6.5169 C   0  0  0  0  0  0  0  0  0  0  0  0
   14.9318   -1.4658    6.5100 O   0  0  0  0  0  0  0  0  0  0  0  0
    6.4234   -1.5067    2.2180 C   0  0  0  0  0  0  0  0  0  0  0  0
    5.0519   -1.4261    2.4078 C   0  0  0  0  0  0  0  0  0  0  0  0
   -0.1026    0.3413    0.7882 H   0  0  0  0  0  0  0  0  0  0  0  0
    0.5524    0.2651    2.4488 H   0  0  0  0  0  0  0  0  0  0  0  0
    0.3319   -1.2345    1.5096 H   0  0  0  0  0  0  0  0  0  0  0  0
    2.3090    1.0331    0.8093 H   0  0  0  0  0  0  0  0  0  0  0  0
    2.0889   -0.4664   -0.1290 H   0  0  0  0  0  0  0  0  0  0  0  0
    4.2444    0.4194   -0.3573 H   0  0  0  0  0  0  0  0  0  0  0  0
    6.6751    0.2613   -0.6736 H   0  0  0  0  0  0  0  0  0  0  0  0
    8.8324   -0.4198   -0.0355 H   0  0  0  0  0  0  0  0  0  0  0  0
    9.1553   -2.1825    2.4688 H   0  0  0  0  0  0  0  0  0  0  0  0
   11.4174   -1.0277    2.0948 H   0  0  0  0  0  0  0  0  0  0  0  0
   11.0958   -1.0037    0.3474 H   0  0  0  0  0  0  0  0  0  0  0  0
    9.9517   -3.7224    0.0741 H   0  0  0  0  0  0  0  0  0  0  0  0
   11.4240   -4.7221    0.1678 H   0  0  0  0  0  0  0  0  0  0  0  0
   11.3906   -3.2729   -0.8834 H   0  0  0  0  0  0  0  0  0  0  0  0
   13.4295   -2.2436    0.5720 H   0  0  0  0  0  0  0  0  0  0  0  0
   13.3142   -3.9128    1.1462 H   0  0  0  0  0  0  0  0  0  0  0  0
   12.0328   -3.6757    3.7961 H   0  0  0  0  0  0  0  0  0  0  0  0
   12.9496   -3.0653    6.0577 H   0  0  0  0  0  0  0  0  0  0  0  0
   14.9911   -1.1184    1.9644 H   0  0  0  0  0  0  0  0  0  0  0  0
   15.5201    1.0057    5.6573 H   0  0  0  0  0  0  0  0  0  0  0  0
   17.2728    0.7062    5.4359 H   0  0  0  0  0  0  0  0  0  0  0  0
   16.3598   -0.4305    7.5218 H   0  0  0  0  0  0  0  0  0  0  0  0
   16.9961   -1.6098    6.3322 H   0  0  0  0  0  0  0  0  0  0  0  0
    7.0239   -2.0468    2.9533 H   0  0  0  0  0  0  0  0  0  0  0  0
    4.5715   -1.8918    3.2709 H   0  0  0  0  0  0  0  0  0  0  0  0
  1  2  1  0
  1 26  1  0
  1 27  1  0
  1 28  1  0
  2  3  1  0
  2 29  1  0
  2 30  1  0
  3  4  1  0
  4  5  2  0
  4 25  1  0
  5  6  1  0
  5 31  1  0
  6  7  2  0
  6 32  1  0
  7  8  1  0
  7 24  1  0
  8  9  2  0
  8 33  1  0
  9 10  1  0
  9 34  1  0
 10 11  1  0
 10 35  1  0
 10 36  1  0
 11 12  1  0
 11 13  1  0
 12 37  1  0
 12 38  1  0
 12 39  1  0
 13 14  1  0
 13 40  1  0
 13 41  1  0
 14 15  2  0
 14 19  1  0
 15 16  1  0
 15 42  1  0
 16 17  2  0
 16 43  1  0
 17 18  1  0
 17 23  1  0
 18 19  2  0
 18 20  1  0
 19 44  1  0
 20 21  1  0
 21 22  1  0
 21 45  1  0
 21 46  1  0
 22 23  1  0
 22 47  1  0
 22 48  1  0
 24 25  2  0
 24 49  1  0
 25 50  1  0
M  END

