
     RDKit          3D

 38 40  0  0  0  0  0  0  0  0999 V2000
    4.7286   -1.7277    1.8082 C   0  0  0  0  0  0  0  0  0  0  0  0
    4.2777   -0.6640    0.9172 N   0  0  0  0  0  0  0  0  0  0  0  0
    4.9787    0.5003    0.7897 C   0  0  0  0  0  0  0  0  0  0  0  0
    4.5843    1.5155   -0.0425 C   0  0  0  0  0  0  0  0  0  0  0  0
    5.3864    2.7871   -0.1774 C   0  0  0  0  0  0  0  0  0  0  0  0
    4.6425    3.9773    0.2086 N   0  0  0  0  0  0  0  0  0  0  0  0
    4.2688    4.0697    1.6184 C   0  0  0  0  0  0  0  0  0  0  0  0
    3.7829    5.5239    1.7814 C   0  0  0  0  0  0  0  0  0  0  0  0
    4.3918    6.2890    0.5690 C   0  0  2  0  0  0  0  0  0  0  0  0
    3.3759    6.7982   -0.3530 N   0  0  0  0  0  0  0  0  0  0  0  0
    2.5007    6.0866   -1.1008 C   0  0  0  0  0  0  0  0  0  0  0  0
    1.7346    7.0169   -1.8036 C   0  0  0  0  0  0  0  0  0  0  0  0
    0.6854    6.7536   -2.7271 C   0  0  0  0  0  0  0  0  0  0  0  0
   -0.1721    6.5468   -3.4834 N   0  0  0  0  0  0  0  0  0  0  0  0
    2.2484    8.2790   -1.3861 C   0  0  0  0  0  0  0  0  0  0  0  0
    3.2328    8.1281   -0.5144 N   0  0  0  0  0  0  0  0  0  0  0  0
    5.3050    5.2402   -0.0881 C   0  0  0  0  0  0  0  0  0  0  0  0
    3.3785    1.3116   -0.7877 C   0  0  0  0  0  0  0  0  0  0  0  0
    2.6599    0.1566   -0.6711 C   0  0  0  0  0  0  0  0  0  0  0  0
    3.0740   -0.9255    0.2074 C   0  0  0  0  0  0  0  0  0  0  0  0
    2.4943   -1.9892    0.3713 O   0  0  0  0  0  0  0  0  0  0  0  0
    5.6600   -1.4218    2.3015 H   0  0  0  0  0  0  0  0  0  0  0  0
    4.8920   -2.6543    1.2386 H   0  0  0  0  0  0  0  0  0  0  0  0
    3.9568   -1.9431    2.5618 H   0  0  0  0  0  0  0  0  0  0  0  0
    5.8859    0.5761    1.3949 H   0  0  0  0  0  0  0  0  0  0  0  0
    5.6913    2.9209   -1.2304 H   0  0  0  0  0  0  0  0  0  0  0  0
    6.3291    2.6908    0.4100 H   0  0  0  0  0  0  0  0  0  0  0  0
    5.1477    3.8818    2.2772 H   0  0  0  0  0  0  0  0  0  0  0  0
    3.5027    3.3237    1.8756 H   0  0  0  0  0  0  0  0  0  0  0  0
    4.1135    5.9594    2.7349 H   0  0  0  0  0  0  0  0  0  0  0  0
    2.6866    5.5931    1.7553 H   0  0  0  0  0  0  0  0  0  0  0  0
    4.9478    7.1837    0.8718 H   0  0  0  0  0  0  0  0  0  0  0  0
    2.4897    4.9997   -1.0846 H   0  0  0  0  0  0  0  0  0  0  0  0
    1.9259    9.2710   -1.6991 H   0  0  0  0  0  0  0  0  0  0  0  0
    6.3162    5.2994    0.3778 H   0  0  0  0  0  0  0  0  0  0  0  0
    5.4274    5.3965   -1.1709 H   0  0  0  0  0  0  0  0  0  0  0  0
    3.0354    2.1020   -1.4617 H   0  0  0  0  0  0  0  0  0  0  0  0
    1.7413   -0.0161   -1.2340 H   0  0  0  0  0  0  0  0  0  0  0  0
  1  2  1  0
  1 22  1  0
  1 23  1  0
  1 24  1  0
  2  3  1  0
  2 20  1  0
  3  4  2  0
  3 25  1  0
  4  5  1  0
  4 18  1  0
  5  6  1  0
  5 26  1  0
  5 27  1  0
  6  7  1  0
  6 17  1  0
  7  8  1  0
  7 28  1  0
  7 29  1  0
  8  9  1  0
  8 30  1  0
  8 31  1  0
  9 10  1  0
  9 17  1  0
  9 32  1  1
 10 11  1  0
 10 16  1  0
 11 12  2  0
 11 33  1  0
 12 13  1  0
 12 15  1  0
 13 14  3  0
 15 16  2  0
 15 34  1  0
 17 35  1  0
 17 36  1  0
 18 19  2  0
 18 37  1  0
 19 20  1  0
 19 38  1  0
 20 21  2  0
M  END

