
     RDKit          3D

 26 27  0  0  0  0  0  0  0  0999 V2000
    2.9137   -0.0423    1.5019 C   0  0  0  0  0  0  0  0  0  0  0  0
    2.9129    0.0435   -0.0301 C   0  0  1  0  0  0  0  0  0  0  0  0
    1.6629   -0.3735   -0.6761 N   0  0  0  0  0  0  0  0  0  0  0  0
    3.2364    1.4383   -0.4892 C   0  0  0  0  0  0  0  0  0  0  0  0
    2.9603    2.5648    0.0952 N   0  0  0  0  0  0  0  0  0  0  0  0
    3.4021    3.5389   -0.7753 C   0  0  0  0  0  0  0  0  0  0  0  0
    3.9462    2.9454   -1.8866 C   0  0  0  0  0  0  0  0  0  0  0  0
    4.5665    3.4262   -3.1146 C   0  0  0  0  0  0  0  0  0  0  0  0
    4.7441    4.8056   -3.3378 C   0  0  0  0  0  0  0  0  0  0  0  0
    5.3336    5.2738   -4.5108 C   0  0  0  0  0  0  0  0  0  0  0  0
    5.7576    4.3603   -5.4827 C   0  0  0  0  0  0  0  0  0  0  0  0
    6.6582    5.0682   -7.2727 I   0  0  0  0  0  0  0  0  0  0  0  0
    5.5925    2.9866   -5.2832 C   0  0  0  0  0  0  0  0  0  0  0  0
    5.0003    2.5266   -4.1064 C   0  0  0  0  0  0  0  0  0  0  0  0
    3.8363    1.5935   -1.6946 O   0  0  0  0  0  0  0  0  0  0  0  0
    2.6530   -1.0642    1.8199 H   0  0  0  0  0  0  0  0  0  0  0  0
    2.1780    0.6589    1.9252 H   0  0  0  0  0  0  0  0  0  0  0  0
    3.8985    0.2116    1.9250 H   0  0  0  0  0  0  0  0  0  0  0  0
    3.7072   -0.6090   -0.4311 H   0  0  0  0  0  0  0  0  0  0  0  0
    0.8815    0.1525   -0.2800 H   0  0  0  0  0  0  0  0  0  0  0  0
    1.4813   -1.3579   -0.4770 H   0  0  0  0  0  0  0  0  0  0  0  0
    3.3036    4.5992   -0.5509 H   0  0  0  0  0  0  0  0  0  0  0  0
    4.4198    5.5278   -2.5852 H   0  0  0  0  0  0  0  0  0  0  0  0
    5.4618    6.3467   -4.6633 H   0  0  0  0  0  0  0  0  0  0  0  0
    5.9213    2.2722   -6.0399 H   0  0  0  0  0  0  0  0  0  0  0  0
    4.8685    1.4544   -3.9523 H   0  0  0  0  0  0  0  0  0  0  0  0
  1  2  1  0
  1 16  1  0
  1 17  1  0
  1 18  1  0
  2  3  1  0
  2  4  1  0
  2 19  1  6
  3 20  1  0
  3 21  1  0
  4  5  2  0
  4 15  1  0
  5  6  1  0
  6  7  2  0
  6 22  1  0
  7  8  1  0
  7 15  1  0
  8  9  2  0
  8 14  1  0
  9 10  1  0
  9 23  1  0
 10 11  2  0
 10 24  1  0
 11 12  1  0
 11 13  1  0
 13 14  2  0
 13 25  1  0
 14 26  1  0
M  END

