
     RDKit          3D

 44 45  0  0  0  0  0  0  0  0999 V2000
    0.5201    1.2617    3.6565 C   0  0  0  0  0  0  0  0  0  0  0  0
    2.2815    0.8329    3.8144 S   0  0  0  0  0  0  0  0  0  0  0  0
    3.0264    2.3105    3.0283 C   0  0  0  0  0  0  0  0  0  0  0  0
    4.5451    2.1654    2.9630 C   0  0  0  0  0  0  0  0  0  0  0  0
    5.2267    3.3619    2.2625 C   0  0  2  0  0  0  0  0  0  0  0  0
    4.9520    4.2817    2.8030 H   0  0  0  0  0  0  0  0  0  0  0  0
    4.7372    3.4893    0.8985 N   0  0  0  0  0  0  0  0  0  0  0  0
    6.7645    3.1572    2.2947 C   0  0  0  0  0  0  0  0  0  0  0  0
    7.3085    2.6947    1.2982 O   0  0  0  0  0  0  0  0  0  0  0  0
    7.4661    3.4640    3.4367 N   0  0  0  0  0  0  0  0  0  0  0  0
    6.8561    3.9855    4.6501 C   0  0  0  0  0  0  0  0  0  0  0  0
    8.9126    3.1418    3.4568 C   0  0  2  0  0  0  0  0  0  0  0  0
    9.2461    1.8973    4.3083 C   0  0  0  0  0  0  0  0  0  0  0  0
    9.5846    2.2174    5.7663 C   0  0  0  0  0  0  0  0  0  0  0  0
   10.7750    3.1756    5.8300 C   0  0  0  0  0  0  0  0  0  0  0  0
   10.6059    4.3906    4.9380 C   0  0  0  0  0  0  0  0  0  0  0  0
   11.3419    5.5597    5.2037 C   0  0  0  0  0  0  0  0  0  0  0  0
   11.2403    6.6845    4.3880 C   0  0  0  0  0  0  0  0  0  0  0  0
   10.3892    6.6584    3.2767 C   0  0  0  0  0  0  0  0  0  0  0  0
    9.6526    5.5082    3.0039 C   0  0  0  0  0  0  0  0  0  0  0  0
    9.7463    4.3675    3.8214 C   0  0  0  0  0  0  0  0  0  0  0  0
   -0.0540    0.4307    4.0911 H   0  0  0  0  0  0  0  0  0  0  0  0
    0.2296    1.3788    2.6007 H   0  0  0  0  0  0  0  0  0  0  0  0
    0.2769    2.1842    4.2073 H   0  0  0  0  0  0  0  0  0  0  0  0
    2.7519    3.2073    3.6115 H   0  0  0  0  0  0  0  0  0  0  0  0
    2.6277    2.4366    2.0110 H   0  0  0  0  0  0  0  0  0  0  0  0
    4.8070    1.2484    2.4069 H   0  0  0  0  0  0  0  0  0  0  0  0
    4.9521    2.0401    3.9799 H   0  0  0  0  0  0  0  0  0  0  0  0
    5.2372    2.8012    0.3290 H   0  0  0  0  0  0  0  0  0  0  0  0
    5.0191    4.3928    0.5168 H   0  0  0  0  0  0  0  0  0  0  0  0
    5.9712    4.5930    4.4246 H   0  0  0  0  0  0  0  0  0  0  0  0
    7.5748    4.6390    5.1649 H   0  0  0  0  0  0  0  0  0  0  0  0
    6.5517    3.1891    5.3524 H   0  0  0  0  0  0  0  0  0  0  0  0
    9.1227    2.8890    2.4097 H   0  0  0  0  0  0  0  0  0  0  0  0
   10.1203    1.4007    3.8514 H   0  0  0  0  0  0  0  0  0  0  0  0
    8.4138    1.1800    4.2331 H   0  0  0  0  0  0  0  0  0  0  0  0
    9.8177    1.2893    6.3132 H   0  0  0  0  0  0  0  0  0  0  0  0
    8.7172    2.6669    6.2776 H   0  0  0  0  0  0  0  0  0  0  0  0
   11.6877    2.6330    5.5167 H   0  0  0  0  0  0  0  0  0  0  0  0
   10.9631    3.5008    6.8665 H   0  0  0  0  0  0  0  0  0  0  0  0
   12.0054    5.5799    6.0737 H   0  0  0  0  0  0  0  0  0  0  0  0
   11.8221    7.5812    4.6168 H   0  0  0  0  0  0  0  0  0  0  0  0
   10.3045    7.5319    2.6251 H   0  0  0  0  0  0  0  0  0  0  0  0
    8.9880    5.4808    2.1357 H   0  0  0  0  0  0  0  0  0  0  0  0
  1  2  1  0
  1 22  1  0
  1 23  1  0
  1 24  1  0
  2  3  1  0
  3  4  1  0
  3 25  1  0
  3 26  1  0
  4  5  1  0
  4 27  1  0
  4 28  1  0
  5  6  1  1
  5  7  1  0
  5  8  1  0
  7 29  1  0
  7 30  1  0
  8  9  2  0
  8 10  1  0
 10 11  1  0
 10 12  1  0
 11 31  1  0
 11 32  1  0
 11 33  1  0
 12 13  1  0
 12 21  1  0
 12 34  1  6
 13 14  1  0
 13 35  1  0
 13 36  1  0
 14 15  1  0
 14 37  1  0
 14 38  1  0
 15 16  1  0
 15 39  1  0
 15 40  1  0
 16 17  1  0
 16 21  2  0
 17 18  2  0
 17 41  1  0
 18 19  1  0
 18 42  1  0
 19 20  2  0
 19 43  1  0
 20 21  1  0
 20 44  1  0
M  END

