
     RDKit          3D

 58 61  0  0  0  0  0  0  0  0999 V2000
    2.4004   -1.7295   -0.9990 C   0  0  0  0  0  0  0  0  0  0  0  0
    3.7346   -1.1657   -0.4752 C   0  0  1  0  0  0  0  0  0  0  0  0
    4.7725   -2.1696   -0.4104 N   0  0  0  0  0  0  0  0  0  0  0  0
    4.8254   -3.0920    0.5850 C   0  0  0  0  0  0  0  0  0  0  0  0
    3.9876   -3.1887    1.4740 O   0  0  0  0  0  0  0  0  0  0  0  0
    5.9913   -4.0102    0.5296 C   0  0  0  0  0  0  0  0  0  0  0  0
    6.3280   -5.0370    1.3628 C   0  0  0  0  0  0  0  0  0  0  0  0
    7.5561   -5.5848    0.8474 C   0  0  0  0  0  0  0  0  0  0  0  0
    8.4264   -6.6292    1.2118 C   0  0  0  0  0  0  0  0  0  0  0  0
    9.5561   -6.8545    0.4292 C   0  0  0  0  0  0  0  0  0  0  0  0
    9.8333   -6.0613   -0.7051 C   0  0  0  0  0  0  0  0  0  0  0  0
    8.9872   -5.0199   -1.0884 C   0  0  0  0  0  0  0  0  0  0  0  0
    7.8622   -4.8094   -0.2939 C   0  0  0  0  0  0  0  0  0  0  0  0
    6.9090   -3.8558   -0.4820 O   0  0  0  0  0  0  0  0  0  0  0  0
    4.2609   -0.0354   -1.3757 C   0  0  0  0  0  0  0  0  0  0  0  0
    5.2401   -0.1905   -2.0950 O   0  0  0  0  0  0  0  0  0  0  0  0
    3.5483    1.1163   -1.3400 N   0  0  0  0  0  0  0  0  0  0  0  0
    3.9099    2.2840   -2.1162 C   0  0  1  0  0  0  0  0  0  0  0  0
    4.9994    2.4529   -2.0493 H   0  0  0  0  0  0  0  0  0  0  0  0
    3.5403    2.1129   -3.6191 C   0  0  0  0  0  0  0  0  0  0  0  0
    4.2444    3.0596   -4.5947 C   0  0  0  0  0  0  0  0  0  0  0  0
    4.0048    4.5502   -4.3488 C   0  0  0  0  0  0  0  0  0  0  0  0
    4.4806    4.9810   -3.0308 N   0  0  0  0  0  0  0  0  0  0  0  0
    5.9749    5.7108   -2.8881 S   0  0  1  0  0  0  0  0  0  0  0  0
    6.3926    5.5688   -1.4939 O   0  0  0  0  0  0  0  0  0  0  0  0
    6.8065    5.2388   -3.9984 O   0  0  0  0  0  0  0  0  0  0  0  0
    5.6759    7.4808   -3.1860 C   0  0  0  0  0  0  0  0  0  0  0  0
    6.4892    8.1727   -4.0851 C   0  0  0  0  0  0  0  0  0  0  0  0
    6.2467    9.5416   -4.2329 C   0  0  0  0  0  0  0  0  0  0  0  0
    5.2205   10.1305   -3.4913 C   0  0  0  0  0  0  0  0  0  0  0  0
    4.4672    9.3258   -2.6271 C   0  0  0  0  0  0  0  0  0  0  0  0
    4.6942    8.0196   -2.4763 N   0  0  0  0  0  0  0  0  0  0  0  0
    3.6046    4.8909   -1.8821 C   0  0  0  0  0  0  0  0  0  0  0  0
    3.1836    3.4775   -1.4939 C   0  0  0  0  0  0  0  0  0  0  0  0
    2.2841    3.3185   -0.6967 O   0  0  0  0  0  0  0  0  0  0  0  0
    2.0721   -2.5437   -0.3380 H   0  0  0  0  0  0  0  0  0  0  0  0
    2.5235   -2.1233   -2.0199 H   0  0  0  0  0  0  0  0  0  0  0  0
    1.6175   -0.9556   -1.0130 H   0  0  0  0  0  0  0  0  0  0  0  0
    3.5624   -0.7703    0.5417 H   0  0  0  0  0  0  0  0  0  0  0  0
    5.5207   -2.0825   -1.0960 H   0  0  0  0  0  0  0  0  0  0  0  0
    5.7542   -5.3458    2.2328 H   0  0  0  0  0  0  0  0  0  0  0  0
    8.2198   -7.2476    2.0884 H   0  0  0  0  0  0  0  0  0  0  0  0
   10.2447   -7.6602    0.6952 H   0  0  0  0  0  0  0  0  0  0  0  0
   10.7296   -6.2666   -1.2954 H   0  0  0  0  0  0  0  0  0  0  0  0
    9.1882   -4.3973   -1.9619 H   0  0  0  0  0  0  0  0  0  0  0  0
    2.7813    1.2481   -0.6844 H   0  0  0  0  0  0  0  0  0  0  0  0
    2.4424    2.1806   -3.7242 H   0  0  0  0  0  0  0  0  0  0  0  0
    3.8238    1.0830   -3.8793 H   0  0  0  0  0  0  0  0  0  0  0  0
    3.9174    2.8156   -5.6201 H   0  0  0  0  0  0  0  0  0  0  0  0
    5.3322    2.8855   -4.5599 H   0  0  0  0  0  0  0  0  0  0  0  0
    2.9303    4.7994   -4.4159 H   0  0  0  0  0  0  0  0  0  0  0  0
    4.5198    5.1374   -5.1225 H   0  0  0  0  0  0  0  0  0  0  0  0
    7.2697    7.6488   -4.6379 H   0  0  0  0  0  0  0  0  0  0  0  0
    6.8521   10.1382   -4.9198 H   0  0  0  0  0  0  0  0  0  0  0  0
    5.0004   11.1966   -3.5789 H   0  0  0  0  0  0  0  0  0  0  0  0
    3.6509    9.7542   -2.0353 H   0  0  0  0  0  0  0  0  0  0  0  0
    2.6888    5.4947   -2.0128 H   0  0  0  0  0  0  0  0  0  0  0  0
    4.1287    5.3011   -1.0053 H   0  0  0  0  0  0  0  0  0  0  0  0
  1  2  1  0
  1 36  1  0
  1 37  1  0
  1 38  1  0
  2  3  1  0
  2 15  1  0
  2 39  1  1
  3  4  1  0
  3 40  1  0
  4  5  2  0
  4  6  1  0
  6  7  2  0
  6 14  1  0
  7  8  1  0
  7 41  1  0
  8  9  2  0
  8 13  1  0
  9 10  1  0
  9 42  1  0
 10 11  2  0
 10 43  1  0
 11 12  1  0
 11 44  1  0
 12 13  2  0
 12 45  1  0
 13 14  1  0
 15 16  2  0
 15 17  1  0
 17 18  1  0
 17 46  1  0
 18 19  1  6
 18 20  1  0
 18 34  1  0
 20 21  1  0
 20 47  1  0
 20 48  1  0
 21 22  1  0
 21 49  1  0
 21 50  1  0
 22 23  1  0
 22 51  1  0
 22 52  1  0
 23 24  1  0
 23 33  1  0
 24 25  2  0
 24 26  2  0
 24 27  1  6
 27 28  2  0
 27 32  1  0
 28 29  1  0
 28 53  1  0
 29 30  2  0
 29 54  1  0
 30 31  1  0
 30 55  1  0
 31 32  2  0
 31 56  1  0
 33 34  1  0
 33 57  1  0
 33 58  1  0
 34 35  2  0
M  END

