
     RDKit          3D

 38 39  0  0  0  0  0  0  0  0999 V2000
    1.1110    0.0550   -0.3076 N   0  0  0  0  0  0  0  0  0  0  0  0
    2.3268   -0.2855    0.2190 C   0  0  0  0  0  0  0  0  0  0  0  0
    2.7976   -1.4039    0.0909 O   0  0  0  0  0  0  0  0  0  0  0  0
    3.0659    0.8016    0.9589 C   0  0  0  0  0  0  0  0  0  0  0  0
    2.7622    2.1672    0.8546 C   0  0  0  0  0  0  0  0  0  0  0  0
    3.4978    3.1086    1.5812 C   0  0  0  0  0  0  0  0  0  0  0  0
    4.5413    2.6957    2.4090 C   0  0  0  0  0  0  0  0  0  0  0  0
    4.8790    1.3357    2.5004 C   0  0  0  0  0  0  0  0  0  0  0  0
    6.0235    0.9672    3.4162 C   0  0  0  0  0  0  0  0  0  0  0  0
    6.4303    1.7513    4.2639 O   0  0  0  0  0  0  0  0  0  0  0  0
    6.5675   -0.2701    3.2368 N   0  0  0  0  0  0  0  0  0  0  0  0
    7.6706   -0.7718    4.0520 C   0  0  1  0  0  0  0  0  0  0  0  0
    7.5938   -2.3042    4.0896 C   0  0  0  0  0  0  0  0  0  0  0  0
    8.7469   -3.0384    4.7918 C   0  0  0  0  0  0  0  0  0  0  0  0
   10.0872   -2.9551    4.0430 C   0  0  0  0  0  0  0  0  0  0  0  0
   10.9069   -1.6766    4.2965 C   0  0  0  0  0  0  0  0  0  0  0  0
   10.0822   -0.5037    4.5284 N   0  0  0  0  0  0  0  0  0  0  0  0
    9.0266   -0.2003    3.5783 C   0  0  0  0  0  0  0  0  0  0  0  0
    4.1321    0.4003    1.7759 C   0  0  0  0  0  0  0  0  0  0  0  0
    0.5786   -0.6902   -0.7416 H   0  0  0  0  0  0  0  0  0  0  0  0
    0.6111    0.8806   -0.0075 H   0  0  0  0  0  0  0  0  0  0  0  0
    1.9666    2.5111    0.1889 H   0  0  0  0  0  0  0  0  0  0  0  0
    3.2558    4.1708    1.4957 H   0  0  0  0  0  0  0  0  0  0  0  0
    5.1193    3.4095    2.9989 H   0  0  0  0  0  0  0  0  0  0  0  0
    6.2804   -0.8203    2.4365 H   0  0  0  0  0  0  0  0  0  0  0  0
    7.5246   -0.3715    5.0669 H   0  0  0  0  0  0  0  0  0  0  0  0
    7.5355   -2.6803    3.0487 H   0  0  0  0  0  0  0  0  0  0  0  0
    6.6378   -2.5805    4.5660 H   0  0  0  0  0  0  0  0  0  0  0  0
    8.4575   -4.0996    4.8716 H   0  0  0  0  0  0  0  0  0  0  0  0
    8.8618   -2.6685    5.8246 H   0  0  0  0  0  0  0  0  0  0  0  0
    9.8877   -3.0636    2.9623 H   0  0  0  0  0  0  0  0  0  0  0  0
   10.7207   -3.8175    4.3094 H   0  0  0  0  0  0  0  0  0  0  0  0
   11.6204   -1.5545    3.4488 H   0  0  0  0  0  0  0  0  0  0  0  0
   11.5270   -1.8187    5.1992 H   0  0  0  0  0  0  0  0  0  0  0  0
   10.6560    0.3107    4.7218 H   0  0  0  0  0  0  0  0  0  0  0  0
    9.2463   -0.5507    2.5458 H   0  0  0  0  0  0  0  0  0  0  0  0
    8.9043    0.8914    3.5232 H   0  0  0  0  0  0  0  0  0  0  0  0
    4.3333   -0.6715    1.8276 H   0  0  0  0  0  0  0  0  0  0  0  0
  1  2  1  0
  1 20  1  0
  1 21  1  0
  2  3  2  0
  2  4  1  0
  4  5  2  0
  4 19  1  0
  5  6  1  0
  5 22  1  0
  6  7  2  0
  6 23  1  0
  7  8  1  0
  7 24  1  0
  8  9  1  0
  8 19  2  0
  9 10  2  0
  9 11  1  0
 11 12  1  0
 11 25  1  0
 12 13  1  0
 12 18  1  0
 12 26  1  1
 13 14  1  0
 13 27  1  0
 13 28  1  0
 14 15  1  0
 14 29  1  0
 14 30  1  0
 15 16  1  0
 15 31  1  0
 15 32  1  0
 16 17  1  0
 16 33  1  0
 16 34  1  0
 17 18  1  0
 17 35  1  0
 18 36  1  0
 18 37  1  0
 19 38  1  0
M  END

