
     RDKit          3D

122128  0  0  0  0  0  0  0  0999 V2000
    8.3341    2.4438   -0.3297 C   0  0  0  0  0  0  0  0  0  0  0  0
    7.6113    1.5863   -1.3697 C   0  0  0  0  0  0  0  0  0  0  0  0
    7.3216    2.3356   -2.6738 C   0  0  0  0  0  0  0  0  0  0  0  0
    6.6329    1.4911   -3.7596 C   0  0  0  0  0  0  0  0  0  0  0  0
    5.3181    0.9682   -3.3859 N   0  0  0  0  0  0  0  0  0  0  0  0
    4.2845    1.9485   -3.0602 C   0  0  0  0  0  0  0  0  0  0  0  0
    4.0982    3.0484   -4.1146 C   0  0  0  0  0  0  0  0  0  0  0  0
    3.6795    2.5364   -5.4964 C   0  0  0  0  0  0  0  0  0  0  0  0
    3.4717    3.6556   -6.5176 C   0  0  0  0  0  0  0  0  0  0  0  0
    5.1422   -0.3710   -3.0502 C   0  0  0  0  0  0  0  0  0  0  0  0
    4.1707   -0.7832   -2.1005 C   0  0  0  0  0  0  0  0  0  0  0  0
    3.9796   -2.1241   -1.7920 C   0  0  0  0  0  0  0  0  0  0  0  0
    4.7419   -3.1445   -2.3888 C   0  0  0  0  0  0  0  0  0  0  0  0
    5.7335   -2.7490   -3.3470 C   0  0  0  0  0  0  0  0  0  0  0  0
    5.9087   -1.3919   -3.6577 C   0  0  0  0  0  0  0  0  0  0  0  0
    6.5362   -3.7275   -4.0026 C   0  0  0  0  0  0  0  0  0  0  0  0
    7.2187   -4.5855   -4.5540 C   0  0  0  0  0  0  0  0  0  0  0  0
    7.9378   -5.5963   -5.1242 C   0  0  0  0  0  0  0  0  0  0  0  0
    8.5471   -6.5507   -5.5973 C   0  0  0  0  0  0  0  0  0  0  0  0
    9.2402   -7.6729   -6.1317 C   0  0  0  0  0  0  0  0  0  0  0  0
   10.2490   -7.4847   -7.0986 C   0  0  0  0  0  0  0  0  0  0  0  0
   10.9380   -8.5699   -7.6333 C   0  0  0  0  0  0  0  0  0  0  0  0
   12.0176   -8.3693   -8.6676 C   0  0  1  0  0  0  0  0  0  0  0  0
   12.1978   -7.0749   -8.9743 F   0  0  0  0  0  0  0  0  0  0  0  0
   13.2008   -8.8510   -8.2414 F   0  0  0  0  0  0  0  0  0  0  0  0
   11.7274   -9.0179   -9.8117 F   0  0  0  0  0  0  0  0  0  0  0  0
   10.6345   -9.8753   -7.2129 C   0  0  0  0  0  0  0  0  0  0  0  0
    9.6446  -10.0848   -6.2613 C   0  0  0  0  0  0  0  0  0  0  0  0
    8.9297   -9.0052   -5.7018 C   0  0  0  0  0  0  0  0  0  0  0  0
    7.9156   -9.2071   -4.7286 C   0  0  0  0  0  0  0  0  0  0  0  0
    7.0277   -9.2462   -3.8910 C   0  0  0  0  0  0  0  0  0  0  0  0
    5.9955   -8.9658   -2.9523 C   0  0  0  0  0  0  0  0  0  0  0  0
    5.6779   -7.6063   -2.7954 C   0  0  0  0  0  0  0  0  0  0  0  0
    4.6875   -7.1335   -1.9176 C   0  0  0  0  0  0  0  0  0  0  0  0
    3.9704   -8.0940   -1.1467 C   0  0  0  0  0  0  0  0  0  0  0  0
    4.2884   -9.4534   -1.3031 C   0  0  0  0  0  0  0  0  0  0  0  0
    5.2786   -9.9265   -2.1813 C   0  0  0  0  0  0  0  0  0  0  0  0
    5.4595  -11.3361   -2.2054 C   0  0  0  0  0  0  0  0  0  0  0  0
    5.3994  -12.5436   -2.0246 C   0  0  0  0  0  0  0  0  0  0  0  0
    5.2167  -13.9150   -1.7130 C   0  0  0  0  0  0  0  0  0  0  0  0
    5.9737  -14.9383   -2.3144 C   0  0  0  0  0  0  0  0  0  0  0  0
    5.7889  -16.2772   -2.0023 C   0  0  0  0  0  0  0  0  0  0  0  0
    4.8137  -16.6922   -1.0530 C   0  0  0  0  0  0  0  0  0  0  0  0
    4.6228  -18.0254   -0.7398 N   0  0  0  0  0  0  0  0  0  0  0  0
    3.5582  -18.4391    0.1737 C   0  0  0  0  0  0  0  0  0  0  0  0
    2.1469  -18.4769   -0.4357 C   0  0  0  0  0  0  0  0  0  0  0  0
    1.9654  -19.4817   -1.5776 C   0  0  0  0  0  0  0  0  0  0  0  0
    0.5423  -19.5037   -2.1378 C   0  0  0  0  0  0  0  0  0  0  0  0
    5.4821  -19.0623   -1.3088 C   0  0  0  0  0  0  0  0  0  0  0  0
    6.8671  -19.2009   -0.6548 C   0  0  0  0  0  0  0  0  0  0  0  0
    6.8444  -19.6111    0.8210 C   0  0  0  0  0  0  0  0  0  0  0  0
    8.2420  -19.7604    1.4245 C   0  0  0  0  0  0  0  0  0  0  0  0
    4.0473  -15.6685   -0.4448 C   0  0  0  0  0  0  0  0  0  0  0  0
    4.2303  -14.3108   -0.7521 C   0  0  0  0  0  0  0  0  0  0  0  0
    3.4244  -13.3325   -0.0999 C   0  0  0  0  0  0  0  0  0  0  0  0
    2.7413  -12.4744    0.4506 C   0  0  0  0  0  0  0  0  0  0  0  0
    2.0218  -11.4632    1.0196 C   0  0  0  0  0  0  0  0  0  0  0  0
    1.4119  -10.5087    1.4918 C   0  0  0  0  0  0  0  0  0  0  0  0
    0.7189   -9.3864    2.0263 C   0  0  0  0  0  0  0  0  0  0  0  0
   -0.2920   -9.5742    2.9900 C   0  0  0  0  0  0  0  0  0  0  0  0
   -0.9830   -8.4885    3.5233 C   0  0  0  0  0  0  0  0  0  0  0  0
   -2.0309   -8.6983    4.5881 C   0  0  1  0  0  0  0  0  0  0  0  0
   -2.4724   -9.9665    4.6219 F   0  0  0  0  0  0  0  0  0  0  0  0
   -1.5523   -8.4125    5.8146 F   0  0  0  0  0  0  0  0  0  0  0  0
   -3.0979   -7.9017    4.3937 F   0  0  0  0  0  0  0  0  0  0  0  0
   -0.6811   -7.1841    3.1011 C   0  0  0  0  0  0  0  0  0  0  0  0
    0.3126   -6.9747    2.1525 C   0  0  0  0  0  0  0  0  0  0  0  0
    1.0307   -8.0535    1.5971 C   0  0  0  0  0  0  0  0  0  0  0  0
    2.0471   -7.8520    0.6263 C   0  0  0  0  0  0  0  0  0  0  0  0
    2.9370   -7.8138   -0.2093 C   0  0  0  0  0  0  0  0  0  0  0  0
    4.5052   -5.7238   -1.8944 C   0  0  0  0  0  0  0  0  0  0  0  0
    4.5623   -4.5164   -2.0757 C   0  0  0  0  0  0  0  0  0  0  0  0
    8.5265    1.8781    0.5956 H   0  0  0  0  0  0  0  0  0  0  0  0
    7.7396    3.3325   -0.0583 H   0  0  0  0  0  0  0  0  0  0  0  0
    9.3060    2.8021   -0.7086 H   0  0  0  0  0  0  0  0  0  0  0  0
    6.6651    1.2104   -0.9434 H   0  0  0  0  0  0  0  0  0  0  0  0
    8.2136    0.6875   -1.5932 H   0  0  0  0  0  0  0  0  0  0  0  0
    8.2691    2.7089   -3.1035 H   0  0  0  0  0  0  0  0  0  0  0  0
    6.7227    3.2378   -2.4566 H   0  0  0  0  0  0  0  0  0  0  0  0
    7.2869    0.6469   -4.0079 H   0  0  0  0  0  0  0  0  0  0  0  0
    6.5481    2.0882   -4.6834 H   0  0  0  0  0  0  0  0  0  0  0  0
    4.4661    2.4186   -2.0721 H   0  0  0  0  0  0  0  0  0  0  0  0
    3.3303    1.4103   -2.9756 H   0  0  0  0  0  0  0  0  0  0  0  0
    5.0093    3.6651   -4.2032 H   0  0  0  0  0  0  0  0  0  0  0  0
    3.3226    3.7324   -3.7265 H   0  0  0  0  0  0  0  0  0  0  0  0
    2.7492    1.9488   -5.3948 H   0  0  0  0  0  0  0  0  0  0  0  0
    4.4371    1.8268   -5.8711 H   0  0  0  0  0  0  0  0  0  0  0  0
    2.6898    4.3609   -6.1892 H   0  0  0  0  0  0  0  0  0  0  0  0
    3.1676    3.2554   -7.4977 H   0  0  0  0  0  0  0  0  0  0  0  0
    4.3963    4.2378   -6.6695 H   0  0  0  0  0  0  0  0  0  0  0  0
    3.5716   -0.0430   -1.5716 H   0  0  0  0  0  0  0  0  0  0  0  0
    3.2277   -2.4001   -1.0499 H   0  0  0  0  0  0  0  0  0  0  0  0
    6.6470   -1.1459   -4.4194 H   0  0  0  0  0  0  0  0  0  0  0  0
   10.4857   -6.4724   -7.4261 H   0  0  0  0  0  0  0  0  0  0  0  0
   11.1762  -10.7250   -7.6337 H   0  0  0  0  0  0  0  0  0  0  0  0
    9.4051  -11.0972   -5.9314 H   0  0  0  0  0  0  0  0  0  0  0  0
    6.2289   -6.8782   -3.3868 H   0  0  0  0  0  0  0  0  0  0  0  0
    3.7375  -10.1815   -0.7117 H   0  0  0  0  0  0  0  0  0  0  0  0
    6.7320  -14.6625   -3.0501 H   0  0  0  0  0  0  0  0  0  0  0  0
    6.4161  -17.0103   -2.5059 H   0  0  0  0  0  0  0  0  0  0  0  0
    3.5591  -17.7879    1.0638 H   0  0  0  0  0  0  0  0  0  0  0  0
    3.8167  -19.4418    0.5449 H   0  0  0  0  0  0  0  0  0  0  0  0
    1.8693  -17.4698   -0.7910 H   0  0  0  0  0  0  0  0  0  0  0  0
    1.4401  -18.7162    0.3800 H   0  0  0  0  0  0  0  0  0  0  0  0
    2.2373  -20.4932   -1.2226 H   0  0  0  0  0  0  0  0  0  0  0  0
    2.6734  -19.2421   -2.3902 H   0  0  0  0  0  0  0  0  0  0  0  0
   -0.1917  -19.7736   -1.3602 H   0  0  0  0  0  0  0  0  0  0  0  0
    0.4422  -20.2329   -2.9573 H   0  0  0  0  0  0  0  0  0  0  0  0
    0.2537  -18.5160   -2.5342 H   0  0  0  0  0  0  0  0  0  0  0  0
    5.6007  -18.8934   -2.3923 H   0  0  0  0  0  0  0  0  0  0  0  0
    4.9449  -20.0181   -1.2197 H   0  0  0  0  0  0  0  0  0  0  0  0
    7.4220  -18.2527   -0.7590 H   0  0  0  0  0  0  0  0  0  0  0  0
    7.4349  -19.9509   -1.2357 H   0  0  0  0  0  0  0  0  0  0  0  0
    6.2932  -20.5638    0.9279 H   0  0  0  0  0  0  0  0  0  0  0  0
    6.2759  -18.8620    1.3991 H   0  0  0  0  0  0  0  0  0  0  0  0
    8.8300  -20.5272    0.8926 H   0  0  0  0  0  0  0  0  0  0  0  0
    8.1943  -20.0541    2.4850 H   0  0  0  0  0  0  0  0  0  0  0  0
    8.8054  -18.8142    1.3666 H   0  0  0  0  0  0  0  0  0  0  0  0
    3.2814  -15.9098    0.2882 H   0  0  0  0  0  0  0  0  0  0  0  0
   -0.5327  -10.5873    3.3130 H   0  0  0  0  0  0  0  0  0  0  0  0
   -1.2311   -6.3363    3.5140 H   0  0  0  0  0  0  0  0  0  0  0  0
    0.5496   -5.9625    1.8202 H   0  0  0  0  0  0  0  0  0  0  0  0
  1  2  1  0
  1 73  1  0
  1 74  1  0
  1 75  1  0
  2  3  1  0
  2 76  1  0
  2 77  1  0
  3  4  1  0
  3 78  1  0
  3 79  1  0
  4  5  1  0
  4 80  1  0
  4 81  1  0
  5  6  1  0
  5 10  1  0
  6  7  1  0
  6 82  1  0
  6 83  1  0
  7  8  1  0
  7 84  1  0
  7 85  1  0
  8  9  1  0
  8 86  1  0
  8 87  1  0
  9 88  1  0
  9 89  1  0
  9 90  1  0
 10 11  2  0
 10 15  1  0
 11 12  1  0
 11 91  1  0
 12 13  2  0
 12 92  1  0
 13 14  1  0
 13 72  1  0
 14 15  2  0
 14 16  1  0
 15 93  1  0
 16 17  3  0
 17 18  1  0
 18 19  3  0
 19 20  1  0
 20 21  1  0
 20 29  2  0
 21 22  2  0
 21 94  1  0
 22 23  1  0
 22 27  1  0
 23 24  1  6
 23 25  1  0
 23 26  1  0
 27 28  2  0
 27 95  1  0
 28 29  1  0
 28 96  1  0
 29 30  1  0
 30 31  3  0
 31 32  1  0
 32 33  1  0
 32 37  2  0
 33 34  2  0
 33 97  1  0
 34 35  1  0
 34 71  1  0
 35 36  2  0
 35 70  1  0
 36 37  1  0
 36 98  1  0
 37 38  1  0
 38 39  3  0
 39 40  1  0
 40 41  1  0
 40 54  2  0
 41 42  2  0
 41 99  1  0
 42 43  1  0
 42100  1  0
 43 44  1  0
 43 53  2  0
 44 45  1  0
 44 49  1  0
 45 46  1  0
 45101  1  0
 45102  1  0
 46 47  1  0
 46103  1  0
 46104  1  0
 47 48  1  0
 47105  1  0
 47106  1  0
 48107  1  0
 48108  1  0
 48109  1  0
 49 50  1  0
 49110  1  0
 49111  1  0
 50 51  1  0
 50112  1  0
 50113  1  0
 51 52  1  0
 51114  1  0
 51115  1  0
 52116  1  0
 52117  1  0
 52118  1  0
 53 54  1  0
 53119  1  0
 54 55  1  0
 55 56  3  0
 56 57  1  0
 57 58  3  0
 58 59  1  0
 59 60  1  0
 59 68  2  0
 60 61  2  0
 60120  1  0
 61 62  1  0
 61 66  1  0
 62 63  1  1
 62 64  1  0
 62 65  1  0
 66 67  2  0
 66121  1  0
 67 68  1  0
 67122  1  0
 68 69  1  0
 69 70  3  0
 71 72  3  0
M  END

