
     RDKit          3D

 48 54  0  0  0  0  0  0  0  0999 V2000
    2.7346    1.1962   -2.4405 C   0  0  0  0  0  0  0  0  0  0  0  0
    2.8359   -0.1780   -2.6451 C   0  0  0  0  0  0  0  0  0  0  0  0
    2.0008   -1.0616   -1.9487 C   0  0  0  0  0  0  0  0  0  0  0  0
    1.0499   -0.5851   -1.0354 C   0  0  0  0  0  0  0  0  0  0  0  0
    0.9586    0.8106   -0.8397 C   0  0  0  0  0  0  0  0  0  0  0  0
    1.7880    1.6863   -1.5315 C   0  0  0  0  0  0  0  0  0  0  0  0
    0.0542    1.3580    0.0379 O   0  0  0  0  0  0  0  0  0  0  0  0
   -0.8005    0.5291    0.7235 C   0  0  0  0  0  0  0  0  0  0  0  0
   -1.7165    1.1254    1.5829 C   0  0  0  0  0  0  0  0  0  0  0  0
   -2.6162    0.3396    2.3150 C   0  0  0  0  0  0  0  0  0  0  0  0
   -2.5843   -1.0457    2.1724 C   0  0  0  0  0  0  0  0  0  0  0  0
   -1.6620   -1.6479    1.3066 C   0  0  0  0  0  0  0  0  0  0  0  0
   -0.7552   -0.8740    0.5687 C   0  0  0  0  0  0  0  0  0  0  0  0
    0.1918   -1.4349   -0.3103 N   0  0  0  0  0  0  0  0  0  0  0  0
    0.2500   -2.8516   -0.4998 C   0  0  0  0  0  0  0  0  0  0  0  0
   -0.5363   -3.4655   -1.4950 C   0  0  0  0  0  0  0  0  0  0  0  0
   -0.4743   -4.8387   -1.6720 C   0  0  0  0  0  0  0  0  0  0  0  0
    0.3701   -5.6245   -0.8625 C   0  0  0  0  0  0  0  0  0  0  0  0
    1.1689   -5.0231    0.1449 C   0  0  0  0  0  0  0  0  0  0  0  0
    1.0857   -3.6236    0.3023 C   0  0  0  0  0  0  0  0  0  0  0  0
    2.0400   -5.8699    0.9745 C   0  0  0  0  0  0  0  0  0  0  0  0
    2.8633   -5.3493    1.9964 C   0  0  0  0  0  0  0  0  0  0  0  0
    3.6789   -6.1653    2.7698 C   0  0  0  0  0  0  0  0  0  0  0  0
    3.6979   -7.5488    2.5433 C   0  0  0  0  0  0  0  0  0  0  0  0
    2.9018   -8.0994    1.5466 C   0  0  0  0  0  0  0  0  0  0  0  0
    2.0765   -7.2744    0.7636 C   0  0  0  0  0  0  0  0  0  0  0  0
    1.2688   -7.8192   -0.2453 N   0  0  0  0  0  0  0  0  0  0  0  0
    1.1102   -9.1293   -0.6592 C   0  0  0  0  0  0  0  0  0  0  0  0
    0.1903   -9.0809   -1.6858 C   0  0  0  0  0  0  0  0  0  0  0  0
   -0.2217   -7.8011   -1.9194 N   0  0  0  0  0  0  0  0  0  0  0  0
    0.4334   -7.0553   -1.0481 C   0  0  0  0  0  0  0  0  0  0  0  0
    3.3822    1.8907   -2.9798 H   0  0  0  0  0  0  0  0  0  0  0  0
    3.5667   -0.5801   -3.3506 H   0  0  0  0  0  0  0  0  0  0  0  0
    2.0880   -2.1352   -2.1167 H   0  0  0  0  0  0  0  0  0  0  0  0
    1.6745    2.7555   -1.3415 H   0  0  0  0  0  0  0  0  0  0  0  0
   -1.7076    2.2142    1.6640 H   0  0  0  0  0  0  0  0  0  0  0  0
   -3.3325    0.8159    2.9879 H   0  0  0  0  0  0  0  0  0  0  0  0
   -3.2781   -1.6759    2.7336 H   0  0  0  0  0  0  0  0  0  0  0  0
   -1.6459   -2.7329    1.2017 H   0  0  0  0  0  0  0  0  0  0  0  0
   -1.1878   -2.8489   -2.1175 H   0  0  0  0  0  0  0  0  0  0  0  0
   -1.0713   -5.3420   -2.4343 H   0  0  0  0  0  0  0  0  0  0  0  0
    1.6770   -3.1096    1.0598 H   0  0  0  0  0  0  0  0  0  0  0  0
    2.8632   -4.2762    2.1888 H   0  0  0  0  0  0  0  0  0  0  0  0
    4.3026   -5.7267    3.5517 H   0  0  0  0  0  0  0  0  0  0  0  0
    4.3360   -8.1987    3.1465 H   0  0  0  0  0  0  0  0  0  0  0  0
    2.9182   -9.1754    1.3725 H   0  0  0  0  0  0  0  0  0  0  0  0
    1.6428   -9.9604   -0.2096 H   0  0  0  0  0  0  0  0  0  0  0  0
   -0.1906   -9.9211   -2.2658 H   0  0  0  0  0  0  0  0  0  0  0  0
  1  2  2  0
  1  6  1  0
  1 32  1  0
  2  3  1  0
  2 33  1  0
  3  4  2  0
  3 34  1  0
  4  5  1  0
  4 14  1  0
  5  6  2  0
  5  7  1  0
  6 35  1  0
  7  8  1  0
  8  9  2  0
  8 13  1  0
  9 10  1  0
  9 36  1  0
 10 11  2  0
 10 37  1  0
 11 12  1  0
 11 38  1  0
 12 13  2  0
 12 39  1  0
 13 14  1  0
 14 15  1  0
 15 16  2  0
 15 20  1  0
 16 17  1  0
 16 40  1  0
 17 18  2  0
 17 41  1  0
 18 19  1  0
 18 31  1  0
 19 20  2  0
 19 21  1  0
 20 42  1  0
 21 22  2  0
 21 26  1  0
 22 23  1  0
 22 43  1  0
 23 24  2  0
 23 44  1  0
 24 25  1  0
 24 45  1  0
 25 26  2  0
 25 46  1  0
 26 27  1  0
 27 28  1  0
 27 31  1  0
 28 29  2  0
 28 47  1  0
 29 30  1  0
 29 48  1  0
 30 31  2  0
M  END

