
     RDKit          3D

 65 65  0  0  0  0  0  0  0  0999 V2000
    2.1444   -1.9280    2.4322 C   0  0  0  0  0  0  0  0  0  0  0  0
    3.3971   -1.4107    1.7242 C   0  0  0  0  0  0  0  0  0  0  0  0
    3.6948   -2.1313    0.4050 C   0  0  0  0  0  0  0  0  0  0  0  0
    4.9549   -1.6117   -0.2944 C   0  0  0  0  0  0  0  0  0  0  0  0
    5.2642   -2.3160   -1.6379 C   0  0  1  0  0  0  0  0  0  0  0  0
    4.3002   -1.9066   -2.7913 C   0  0  0  0  0  0  0  0  0  0  0  0
    4.6946   -0.7273   -3.5273 N   0  0  0  0  0  0  0  0  0  0  0  0
    4.9404    0.4315   -2.8100 O   0  0  0  0  0  0  0  0  0  0  0  0
    5.0336   -0.7418   -4.8476 C   0  0  0  0  0  0  0  0  0  0  0  0
    4.9699   -1.7186   -5.5715 O   0  0  0  0  0  0  0  0  0  0  0  0
    6.7210   -2.0644   -2.0299 C   0  0  0  0  0  0  0  0  0  0  0  0
    7.1629   -0.9213   -2.1726 O   0  0  0  0  0  0  0  0  0  0  0  0
    7.4908   -3.1648   -2.2054 N   0  0  0  0  0  0  0  0  0  0  0  0
    8.9201   -3.1163   -2.4751 C   0  0  1  0  0  0  0  0  0  0  0  0
    9.5960   -3.9824   -1.4104 C   0  0  0  0  0  0  0  0  0  0  0  0
    9.0924   -4.9871   -0.9586 O   0  0  0  0  0  0  0  0  0  0  0  0
   10.7876   -3.5045   -1.0442 O   0  0  0  0  0  0  0  0  0  0  0  0
   11.5589   -4.2544   -0.0556 C   0  0  1  0  0  0  0  0  0  0  0  0
   13.0308   -3.9266   -0.3071 C   0  0  0  0  0  0  0  0  0  0  0  0
   13.3572   -2.4703    0.0814 C   0  0  0  0  0  0  0  0  0  0  0  0
   12.9620   -2.1239    1.4419 N   0  0  0  0  0  0  0  0  0  0  0  0
   13.8523   -2.5978    2.4834 C   0  0  0  0  0  0  0  0  0  0  0  0
   11.5453   -2.3899    1.6673 C   0  0  0  0  0  0  0  0  0  0  0  0
   11.1306   -3.8413    1.3570 C   0  0  0  0  0  0  0  0  0  0  0  0
    9.2856   -3.5460   -3.9459 C   0  0  1  0  0  0  0  0  0  0  0  0
    8.5982   -2.5702   -4.9194 C   0  0  0  0  0  0  0  0  0  0  0  0
   10.8101   -3.4572   -4.1456 C   0  0  0  0  0  0  0  0  0  0  0  0
    8.8084   -4.9807   -4.2353 C   0  0  0  0  0  0  0  0  0  0  0  0
    1.9609   -1.3876    3.3744 H   0  0  0  0  0  0  0  0  0  0  0  0
    2.2341   -3.0001    2.6757 H   0  0  0  0  0  0  0  0  0  0  0  0
    1.2483   -1.8081    1.8005 H   0  0  0  0  0  0  0  0  0  0  0  0
    4.2693   -1.5094    2.3960 H   0  0  0  0  0  0  0  0  0  0  0  0
    3.2920   -0.3286    1.5277 H   0  0  0  0  0  0  0  0  0  0  0  0
    2.8199   -2.0297   -0.2620 H   0  0  0  0  0  0  0  0  0  0  0  0
    3.8020   -3.2155    0.5975 H   0  0  0  0  0  0  0  0  0  0  0  0
    5.8152   -1.7475    0.3840 H   0  0  0  0  0  0  0  0  0  0  0  0
    4.8658   -0.5292   -0.4715 H   0  0  0  0  0  0  0  0  0  0  0  0
    5.1232   -3.4001   -1.4880 H   0  0  0  0  0  0  0  0  0  0  0  0
    3.2887   -1.7652   -2.3748 H   0  0  0  0  0  0  0  0  0  0  0  0
    4.2462   -2.7014   -3.5485 H   0  0  0  0  0  0  0  0  0  0  0  0
    5.8517    0.2707   -2.4578 H   0  0  0  0  0  0  0  0  0  0  0  0
    5.3675    0.2688   -5.1769 H   0  0  0  0  0  0  0  0  0  0  0  0
    7.1173   -4.0742   -1.9533 H   0  0  0  0  0  0  0  0  0  0  0  0
    9.2387   -2.0742   -2.3385 H   0  0  0  0  0  0  0  0  0  0  0  0
   11.3467   -5.3203   -0.2210 H   0  0  0  0  0  0  0  0  0  0  0  0
   13.2807   -4.1131   -1.3643 H   0  0  0  0  0  0  0  0  0  0  0  0
   13.6371   -4.6265    0.2926 H   0  0  0  0  0  0  0  0  0  0  0  0
   12.8304   -1.7942   -0.6144 H   0  0  0  0  0  0  0  0  0  0  0  0
   14.4349   -2.2764   -0.0414 H   0  0  0  0  0  0  0  0  0  0  0  0
   14.8763   -2.2408    2.2863 H   0  0  0  0  0  0  0  0  0  0  0  0
   13.9085   -3.7038    2.6035 H   0  0  0  0  0  0  0  0  0  0  0  0
   13.5404   -2.1818    3.4552 H   0  0  0  0  0  0  0  0  0  0  0  0
   10.9604   -1.7078    1.0251 H   0  0  0  0  0  0  0  0  0  0  0  0
   11.2926   -2.1368    2.7096 H   0  0  0  0  0  0  0  0  0  0  0  0
   10.0442   -3.9803    1.4728 H   0  0  0  0  0  0  0  0  0  0  0  0
   11.6113   -4.5360    2.0672 H   0  0  0  0  0  0  0  0  0  0  0  0
    8.8919   -1.5283   -4.7176 H   0  0  0  0  0  0  0  0  0  0  0  0
    7.5015   -2.6307   -4.8687 H   0  0  0  0  0  0  0  0  0  0  0  0
    8.8885   -2.8106   -5.9547 H   0  0  0  0  0  0  0  0  0  0  0  0
   11.1930   -2.4555   -3.8931 H   0  0  0  0  0  0  0  0  0  0  0  0
   11.0578   -3.6554   -5.2003 H   0  0  0  0  0  0  0  0  0  0  0  0
   11.3569   -4.1901   -3.5336 H   0  0  0  0  0  0  0  0  0  0  0  0
    7.7148   -5.0683   -4.1387 H   0  0  0  0  0  0  0  0  0  0  0  0
    9.2707   -5.7175   -3.5605 H   0  0  0  0  0  0  0  0  0  0  0  0
    9.0654   -5.2601   -5.2693 H   0  0  0  0  0  0  0  0  0  0  0  0
  1  2  1  0
  1 29  1  0
  1 30  1  0
  1 31  1  0
  2  3  1  0
  2 32  1  0
  2 33  1  0
  3  4  1  0
  3 34  1  0
  3 35  1  0
  4  5  1  0
  4 36  1  0
  4 37  1  0
  5  6  1  0
  5 11  1  0
  5 38  1  1
  6  7  1  0
  6 39  1  0
  6 40  1  0
  7  8  1  0
  7  9  1  0
  8 41  1  0
  9 10  2  0
  9 42  1  0
 11 12  2  0
 11 13  1  0
 13 14  1  0
 13 43  1  0
 14 15  1  0
 14 25  1  0
 14 44  1  1
 15 16  2  0
 15 17  1  0
 17 18  1  0
 18 19  1  0
 18 24  1  0
 18 45  1  6
 19 20  1  0
 19 46  1  0
 19 47  1  0
 20 21  1  0
 20 48  1  0
 20 49  1  0
 21 22  1  0
 21 23  1  0
 22 50  1  0
 22 51  1  0
 22 52  1  0
 23 24  1  0
 23 53  1  0
 23 54  1  0
 24 55  1  0
 24 56  1  0
 25 26  1  6
 25 27  1  0
 25 28  1  0
 26 57  1  0
 26 58  1  0
 26 59  1  0
 27 60  1  0
 27 61  1  0
 27 62  1  0
 28 63  1  0
 28 64  1  0
 28 65  1  0
M  END

