
     RDKit          3D

 44 47  0  0  0  0  0  0  0  0999 V2000
    2.5760   -0.5308   -1.3605 C   0  0  0  0  0  0  0  0  0  0  0  0
    2.6215    0.7903   -0.8811 O   0  0  0  0  0  0  0  0  0  0  0  0
    2.9304    0.9078    0.4927 C   0  0  0  0  0  0  0  0  0  0  0  0
    4.3924    0.7229    0.7941 C   0  0  0  0  0  0  0  0  0  0  0  0
    5.2898    1.7509    0.7969 N   0  0  0  0  0  0  0  0  0  0  0  0
    6.4429    1.1554    1.0419 C   0  0  0  0  0  0  0  0  0  0  0  0
    6.2383   -0.1820    1.1911 N   0  0  0  0  0  0  0  0  0  0  0  0
    4.9314   -0.4703    1.0285 N   0  0  0  0  0  0  0  0  0  0  0  0
    7.2512   -1.2078    1.3977 C   0  0  0  0  0  0  0  0  0  0  0  0
    8.5243   -0.5690    1.9629 C   0  0  2  0  0  0  0  0  0  0  0  0
    8.3691   -0.2830    3.3850 N   0  0  0  0  0  0  0  0  0  0  0  0
    9.4224   -0.3611    4.2577 C   0  0  0  0  0  0  0  0  0  0  0  0
   10.5421   -0.6849    3.8890 O   0  0  0  0  0  0  0  0  0  0  0  0
    9.0750   -0.0719    5.7115 C   0  0  2  0  0  0  0  0  0  0  0  0
   10.2442    0.5170    6.5508 C   0  0  0  0  0  0  0  0  0  0  0  0
   10.2818   -0.4608    7.7488 C   0  0  2  0  0  0  0  0  0  0  0  0
   10.9480   -1.7878    7.3254 C   0  0  0  0  0  0  0  0  0  0  0  0
    9.8196   -2.4210    6.4610 C   0  0  0  0  0  0  0  0  0  0  0  0
    8.7243   -1.3373    6.5693 C   0  0  1  0  0  0  0  0  0  0  0  0
    8.9021   -0.8340    7.8903 O   0  0  0  0  0  0  0  0  0  0  0  0
    8.8990    0.6856    1.1453 C   0  0  0  0  0  0  0  0  0  0  0  0
    7.8028    1.7605    1.2125 C   0  0  0  0  0  0  0  0  0  0  0  0
    2.3284   -0.4830   -2.4313 H   0  0  0  0  0  0  0  0  0  0  0  0
    1.7962   -1.1273   -0.8435 H   0  0  0  0  0  0  0  0  0  0  0  0
    3.5392   -1.0609   -1.2395 H   0  0  0  0  0  0  0  0  0  0  0  0
    2.3418    0.1853    1.0911 H   0  0  0  0  0  0  0  0  0  0  0  0
    2.6461    1.9279    0.7874 H   0  0  0  0  0  0  0  0  0  0  0  0
    7.4719   -1.7012    0.4364 H   0  0  0  0  0  0  0  0  0  0  0  0
    6.8437   -1.9677    2.0801 H   0  0  0  0  0  0  0  0  0  0  0  0
    9.3475   -1.2938    1.8880 H   0  0  0  0  0  0  0  0  0  0  0  0
    7.4724    0.0429    3.7269 H   0  0  0  0  0  0  0  0  0  0  0  0
    8.2010    0.5966    5.7541 H   0  0  0  0  0  0  0  0  0  0  0  0
   10.0135    1.5387    6.8847 H   0  0  0  0  0  0  0  0  0  0  0  0
   11.1840    0.5314    5.9827 H   0  0  0  0  0  0  0  0  0  0  0  0
   10.6454   -0.0292    8.6905 H   0  0  0  0  0  0  0  0  0  0  0  0
   11.1772   -2.4040    8.2071 H   0  0  0  0  0  0  0  0  0  0  0  0
   11.8784   -1.6293    6.7615 H   0  0  0  0  0  0  0  0  0  0  0  0
    9.4507   -3.3590    6.9009 H   0  0  0  0  0  0  0  0  0  0  0  0
   10.1361   -2.6204    5.4292 H   0  0  0  0  0  0  0  0  0  0  0  0
    7.6941   -1.6949    6.4375 H   0  0  0  0  0  0  0  0  0  0  0  0
    9.0614    0.3780    0.0979 H   0  0  0  0  0  0  0  0  0  0  0  0
    9.8555    1.0828    1.5142 H   0  0  0  0  0  0  0  0  0  0  0  0
    7.9509    2.5389    0.4490 H   0  0  0  0  0  0  0  0  0  0  0  0
    7.8382    2.2818    2.1856 H   0  0  0  0  0  0  0  0  0  0  0  0
  1  2  1  0
  1 23  1  0
  1 24  1  0
  1 25  1  0
  2  3  1  0
  3  4  1  0
  3 26  1  0
  3 27  1  0
  4  5  1  0
  4  8  2  0
  5  6  2  0
  6  7  1  0
  6 22  1  0
  7  8  1  0
  7  9  1  0
  9 10  1  0
  9 28  1  0
  9 29  1  0
 10 11  1  0
 10 21  1  0
 10 30  1  1
 11 12  1  0
 11 31  1  0
 12 13  2  0
 12 14  1  0
 14 15  1  0
 14 19  1  0
 14 32  1  6
 15 16  1  0
 15 33  1  0
 15 34  1  0
 16 17  1  0
 16 20  1  0
 16 35  1  1
 17 18  1  0
 17 36  1  0
 17 37  1  0
 18 19  1  0
 18 38  1  0
 18 39  1  0
 19 20  1  0
 19 40  1  1
 21 22  1  0
 21 41  1  0
 21 42  1  0
 22 43  1  0
 22 44  1  0
M  END

