
     RDKit          3D

 40 42  0  0  0  0  0  0  0  0999 V2000
    0.8431    0.0113   -0.6220 C   0  0  0  0  0  0  0  0  0  0  0  0
    2.3290    0.0760   -0.3800 C   0  0  0  0  0  0  0  0  0  0  0  0
    2.9841    1.3030   -0.1386 C   0  0  0  0  0  0  0  0  0  0  0  0
    4.3599    1.3631    0.0913 C   0  0  0  0  0  0  0  0  0  0  0  0
    5.0254    2.6946    0.3364 C   0  0  0  0  0  0  0  0  0  0  0  0
    5.0643    0.1340    0.0734 C   0  0  0  0  0  0  0  0  0  0  0  0
    6.4734   -0.1720    0.2606 C   0  0  0  0  0  0  0  0  0  0  0  0
    7.4435    0.7597    0.4899 N   0  0  0  0  0  0  0  0  0  0  0  0
    6.7360   -1.5393    0.1349 C   0  0  0  0  0  0  0  0  0  0  0  0
    8.0683   -2.1168    0.3305 C   0  0  0  0  0  0  0  0  0  0  0  0
    9.0439   -1.3954    0.5794 O   0  0  0  0  0  0  0  0  0  0  0  0
    8.1618   -3.4913    0.2271 N   0  0  0  0  0  0  0  0  0  0  0  0
    9.2868   -4.3024    0.3613 C   0  0  0  0  0  0  0  0  0  0  0  0
   10.5424   -3.8021    0.7733 C   0  0  0  0  0  0  0  0  0  0  0  0
   11.6295   -4.6551    0.9350 C   0  0  0  0  0  0  0  0  0  0  0  0
   11.5108   -6.0293    0.7004 C   0  0  0  0  0  0  0  0  0  0  0  0
   10.2856   -6.5307    0.2743 C   0  0  0  0  0  0  0  0  0  0  0  0
    9.1684   -5.6984    0.0752 C   0  0  0  0  0  0  0  0  0  0  0  0
    7.8780   -6.2743   -0.4217 C   0  0  0  0  0  0  0  0  0  0  0  0
    7.9326   -7.5026   -1.0145 N   0  0  0  0  0  0  0  0  0  0  0  0
    6.7971   -5.6935   -0.3081 O   0  0  0  0  0  0  0  0  0  0  0  0
    5.2803   -2.4847   -0.2299 S   0  0  0  0  0  0  0  0  0  0  0  0
    4.3015   -1.0371   -0.1909 C   0  0  0  0  0  0  0  0  0  0  0  0
    2.9933   -1.0810   -0.4088 N   0  0  0  0  0  0  0  0  0  0  0  0
    0.3757    1.0059   -0.6009 H   0  0  0  0  0  0  0  0  0  0  0  0
    0.3618   -0.6221    0.1407 H   0  0  0  0  0  0  0  0  0  0  0  0
    0.6377   -0.4576   -1.5977 H   0  0  0  0  0  0  0  0  0  0  0  0
    2.4005    2.2266   -0.1361 H   0  0  0  0  0  0  0  0  0  0  0  0
    4.3125    3.5200    0.2007 H   0  0  0  0  0  0  0  0  0  0  0  0
    5.8698    2.8572   -0.3518 H   0  0  0  0  0  0  0  0  0  0  0  0
    5.4138    2.7678    1.3675 H   0  0  0  0  0  0  0  0  0  0  0  0
    7.1909    1.6430    0.9059 H   0  0  0  0  0  0  0  0  0  0  0  0
    8.3627    0.3615    0.6900 H   0  0  0  0  0  0  0  0  0  0  0  0
    7.3132   -4.0425    0.0440 H   0  0  0  0  0  0  0  0  0  0  0  0
   10.6318   -2.7369    0.9659 H   0  0  0  0  0  0  0  0  0  0  0  0
   12.5847   -4.2372    1.2641 H   0  0  0  0  0  0  0  0  0  0  0  0
   12.3587   -6.7001    0.8545 H   0  0  0  0  0  0  0  0  0  0  0  0
   10.1826   -7.6070    0.1200 H   0  0  0  0  0  0  0  0  0  0  0  0
    8.7990   -7.8946   -1.3552 H   0  0  0  0  0  0  0  0  0  0  0  0
    7.0645   -7.8493   -1.4062 H   0  0  0  0  0  0  0  0  0  0  0  0
  1  2  1  0
  1 25  1  0
  1 26  1  0
  1 27  1  0
  2  3  2  0
  2 24  1  0
  3  4  1  0
  3 28  1  0
  4  5  1  0
  4  6  2  0
  5 29  1  0
  5 30  1  0
  5 31  1  0
  6  7  1  0
  6 23  1  0
  7  8  1  0
  7  9  2  0
  8 32  1  0
  8 33  1  0
  9 10  1  0
  9 22  1  0
 10 11  2  0
 10 12  1  0
 12 13  1  0
 12 34  1  0
 13 14  2  0
 13 18  1  0
 14 15  1  0
 14 35  1  0
 15 16  2  0
 15 36  1  0
 16 17  1  0
 16 37  1  0
 17 18  2  0
 17 38  1  0
 18 19  1  0
 19 20  1  0
 19 21  2  0
 20 39  1  0
 20 40  1  0
 22 23  1  0
 23 24  2  0
M  END

