
     RDKit          3D

 33 33  0  0  0  0  0  0  0  0999 V2000
    8.9969    1.3364   -5.0403 C   0  0  0  0  0  0  0  0  0  0  0  0
    9.1056    0.4106   -3.8740 C   0  0  0  0  0  0  0  0  0  0  0  0
    8.0792   -0.0922   -3.1716 C   0  0  0  0  0  0  0  0  0  0  0  0
    8.3130   -1.0026   -2.0204 C   0  0  0  0  0  0  0  0  0  0  0  0
    9.4367   -1.3520   -1.6497 O   0  0  0  0  0  0  0  0  0  0  0  0
    7.1914   -1.4360   -1.3777 N   0  0  0  0  0  0  0  0  0  0  0  0
    7.2551   -2.2735   -0.1907 C   0  0  0  0  0  0  0  0  0  0  0  0
    7.4457   -3.7766   -0.4857 C   0  0  0  0  0  0  0  0  0  0  0  0
    6.5497   -4.5734   -0.2690 O   0  0  0  0  0  0  0  0  0  0  0  0
    8.6857   -4.0758   -0.9894 N   0  0  0  0  0  0  0  0  0  0  0  0
    9.1895   -5.3259   -1.4001 C   0  0  0  0  0  0  0  0  0  0  0  0
    8.4085   -6.4949   -1.3780 C   0  0  0  0  0  0  0  0  0  0  0  0
    8.9406   -7.7143   -1.7999 C   0  0  0  0  0  0  0  0  0  0  0  0
   10.2595   -7.7704   -2.2462 C   0  0  0  0  0  0  0  0  0  0  0  0
   11.0016   -9.4315   -2.8302 Br  0  0  0  0  0  0  0  0  0  0  0  0
   11.0477   -6.6182   -2.2676 C   0  0  0  0  0  0  0  0  0  0  0  0
   10.5352   -5.3856   -1.8463 C   0  0  0  0  0  0  0  0  0  0  0  0
   11.4143   -4.1586   -1.8598 C   0  0  0  0  0  0  0  0  0  0  0  0
    9.4748    0.8950   -5.9324 H   0  0  0  0  0  0  0  0  0  0  0  0
    9.5364    2.2788   -4.8402 H   0  0  0  0  0  0  0  0  0  0  0  0
    7.9528    1.5789   -5.2884 H   0  0  0  0  0  0  0  0  0  0  0  0
   10.1113    0.1113   -3.5545 H   0  0  0  0  0  0  0  0  0  0  0  0
    7.0451    0.1648   -3.4283 H   0  0  0  0  0  0  0  0  0  0  0  0
    6.2812   -1.2001   -1.7536 H   0  0  0  0  0  0  0  0  0  0  0  0
    6.3119   -2.1847    0.3620 H   0  0  0  0  0  0  0  0  0  0  0  0
    8.0809   -1.9124    0.4431 H   0  0  0  0  0  0  0  0  0  0  0  0
    9.2880   -3.2614   -1.1320 H   0  0  0  0  0  0  0  0  0  0  0  0
    7.3823   -6.4359   -1.0234 H   0  0  0  0  0  0  0  0  0  0  0  0
    8.3237   -8.6141   -1.7785 H   0  0  0  0  0  0  0  0  0  0  0  0
   12.0813   -6.6755   -2.6142 H   0  0  0  0  0  0  0  0  0  0  0  0
   12.4059   -4.3929   -2.2712 H   0  0  0  0  0  0  0  0  0  0  0  0
   11.5631   -3.7547   -0.8430 H   0  0  0  0  0  0  0  0  0  0  0  0
   10.9847   -3.3386   -2.4583 H   0  0  0  0  0  0  0  0  0  0  0  0
  1  2  1  0
  1 19  1  0
  1 20  1  0
  1 21  1  0
  2  3  2  0
  2 22  1  0
  3  4  1  0
  3 23  1  0
  4  5  2  0
  4  6  1  0
  6  7  1  0
  6 24  1  0
  7  8  1  0
  7 25  1  0
  7 26  1  0
  8  9  2  0
  8 10  1  0
 10 11  1  0
 10 27  1  0
 11 12  2  0
 11 17  1  0
 12 13  1  0
 12 28  1  0
 13 14  2  0
 13 29  1  0
 14 15  1  0
 14 16  1  0
 16 17  2  0
 16 30  1  0
 17 18  1  0
 18 31  1  0
 18 32  1  0
 18 33  1  0
M  END

