
     RDKit          3D

 29 31  0  0  0  0  0  0  0  0999 V2000
    6.4301    1.3333   -2.4089 F   0  0  0  0  0  0  0  0  0  0  0  0
    5.9653    0.0781   -2.4153 C   0  0  0  0  0  0  0  0  0  0  0  0
    5.7259   -0.5407   -3.6411 C   0  0  0  0  0  0  0  0  0  0  0  0
    5.2362   -1.8475   -3.6208 C   0  0  0  0  0  0  0  0  0  0  0  0
    4.8908   -2.7310   -5.2726 Br  0  0  0  0  0  0  0  0  0  0  0  0
    4.9931   -2.5218   -2.4200 C   0  0  0  0  0  0  0  0  0  0  0  0
    5.2450   -1.8758   -1.2031 C   0  0  0  0  0  0  0  0  0  0  0  0
    5.0451   -2.5872    0.1299 C   0  0  0  0  0  0  0  0  0  0  0  0
    4.1538   -3.7251    0.1006 N   0  0  0  0  0  0  0  0  0  0  0  0
    4.5411   -5.0571    0.0709 C   0  0  0  0  0  0  0  0  0  0  0  0
    3.4384   -5.8729    0.0351 C   0  0  0  0  0  0  0  0  0  0  0  0
    2.2856   -5.0142    0.0421 C   0  0  0  0  0  0  0  0  0  0  0  0
    0.8948   -5.2299    0.0271 C   0  0  0  0  0  0  0  0  0  0  0  0
    0.0310   -4.1402    0.0479 C   0  0  0  0  0  0  0  0  0  0  0  0
    0.5473   -2.8273    0.0814 C   0  0  0  0  0  0  0  0  0  0  0  0
   -0.6767   -1.3591    0.1043 Br  0  0  0  0  0  0  0  0  0  0  0  0
    1.9136   -2.5644    0.0948 C   0  0  0  0  0  0  0  0  0  0  0  0
    2.7713   -3.6742    0.0793 C   0  0  0  0  0  0  0  0  0  0  0  0
    5.7321   -0.5613   -1.2015 C   0  0  0  0  0  0  0  0  0  0  0  0
    5.9155   -0.0045   -4.5710 H   0  0  0  0  0  0  0  0  0  0  0  0
    4.6047   -3.5404   -2.4340 H   0  0  0  0  0  0  0  0  0  0  0  0
    4.6822   -1.8634    0.8784 H   0  0  0  0  0  0  0  0  0  0  0  0
    6.0220   -2.9414    0.4989 H   0  0  0  0  0  0  0  0  0  0  0  0
    5.5992   -5.3143    0.0840 H   0  0  0  0  0  0  0  0  0  0  0  0
    3.4470   -6.9605    0.0139 H   0  0  0  0  0  0  0  0  0  0  0  0
    0.4910   -6.2451   -0.0003 H   0  0  0  0  0  0  0  0  0  0  0  0
   -1.0493   -4.2908    0.0361 H   0  0  0  0  0  0  0  0  0  0  0  0
    2.2869   -1.5401    0.1078 H   0  0  0  0  0  0  0  0  0  0  0  0
    5.9317   -0.0232   -0.2720 H   0  0  0  0  0  0  0  0  0  0  0  0
  1  2  1  0
  2  3  2  0
  2 19  1  0
  3  4  1  0
  3 20  1  0
  4  5  1  0
  4  6  2  0
  6  7  1  0
  6 21  1  0
  7  8  1  0
  7 19  2  0
  8  9  1  0
  8 22  1  0
  8 23  1  0
  9 10  1  0
  9 18  1  0
 10 11  2  0
 10 24  1  0
 11 12  1  0
 11 25  1  0
 12 13  1  0
 12 18  2  0
 13 14  2  0
 13 26  1  0
 14 15  1  0
 14 27  1  0
 15 16  1  0
 15 17  2  0
 17 18  1  0
 17 28  1  0
 19 29  1  0
M  END

