
     RDKit          3D

 61 65  0  0  0  0  0  0  0  0999 V2000
    5.7461    1.7778   -1.7848 N   0  0  0  0  0  0  0  0  0  0  0  0
    5.3596    0.4510   -1.3312 C   0  0  1  0  0  0  0  0  0  0  0  0
    5.7223   -0.2845   -2.0648 H   0  0  0  0  0  0  0  0  0  0  0  0
    5.8078    0.0524    0.1139 C   0  0  0  0  0  0  0  0  0  0  0  0
    4.5739    0.2930    1.0291 C   0  0  1  0  0  0  0  0  0  0  0  0
    4.1720   -0.6660    1.3824 H   0  0  0  0  0  0  0  0  0  0  0  0
    4.8319    1.0836    2.2303 N   0  0  0  0  0  0  0  0  0  0  0  0
    4.5648    0.7348    3.5375 C   0  0  0  0  0  0  0  0  0  0  0  0
    4.8849    1.6575    4.4157 N   0  0  0  0  0  0  0  0  0  0  0  0
    5.3887    2.6812    3.6533 C   0  0  0  0  0  0  0  0  0  0  0  0
    5.9085    3.9608    3.9855 C   0  0  0  0  0  0  0  0  0  0  0  0
    5.9956    4.3701    5.2691 N   0  0  0  0  0  0  0  0  0  0  0  0
    6.4741    5.6693    5.6983 C   0  0  0  0  0  0  0  0  0  0  0  0
    5.3522    6.7347    5.8128 C   0  0  1  0  0  0  0  0  0  0  0  0
    4.3165    6.3250    6.8598 C   0  0  0  0  0  0  0  0  0  0  0  0
    4.5503    6.5080    8.2333 C   0  0  0  0  0  0  0  0  0  0  0  0
    3.6181    6.0813    9.1821 C   0  0  0  0  0  0  0  0  0  0  0  0
    2.4306    5.4635    8.7757 C   0  0  0  0  0  0  0  0  0  0  0  0
    2.1840    5.2776    7.4135 C   0  0  0  0  0  0  0  0  0  0  0  0
    3.1201    5.7053    6.4662 C   0  0  0  0  0  0  0  0  0  0  0  0
    5.8924    8.1453    6.0269 C   0  0  0  0  0  0  0  0  0  0  0  0
    7.1088    8.4105    6.6762 C   0  0  0  0  0  0  0  0  0  0  0  0
    7.5531    9.7249    6.8633 C   0  0  0  0  0  0  0  0  0  0  0  0
    6.7895   10.7990    6.4036 C   0  0  0  0  0  0  0  0  0  0  0  0
    5.5766   10.5499    5.7525 C   0  0  0  0  0  0  0  0  0  0  0  0
    5.1373    9.2384    5.5673 C   0  0  0  0  0  0  0  0  0  0  0  0
    6.3223    4.7434    2.9721 N   0  0  0  0  0  0  0  0  0  0  0  0
    6.2393    4.2969    1.7017 C   0  0  0  0  0  0  0  0  0  0  0  0
    6.7502    5.2670    0.6441 C   0  0  0  0  0  0  0  0  0  0  0  0
    6.7724    5.0179   -0.5316 O   0  0  0  0  0  0  0  0  0  0  0  0
    7.1735    6.4221    1.1649 O   0  0  0  0  0  0  0  0  0  0  0  0
    5.7738    3.1301    1.2817 N   0  0  0  0  0  0  0  0  0  0  0  0
    5.3634    2.3516    2.2897 C   0  0  0  0  0  0  0  0  0  0  0  0
    3.4919    0.9133    0.1187 C   0  0  2  0  0  0  0  0  0  0  0  0
    3.6076    2.0099    0.0952 H   0  0  0  0  0  0  0  0  0  0  0  0
    2.2082    0.5385    0.5950 O   0  0  0  0  0  0  0  0  0  0  0  0
    3.8277    0.3254   -1.2582 C   0  0  2  0  0  0  0  0  0  0  0  0
    3.3530    0.8800   -2.0886 H   0  0  0  0  0  0  0  0  0  0  0  0
    3.4728   -1.0446   -1.2630 O   0  0  0  0  0  0  0  0  0  0  0  0
    6.7000    1.7743   -2.1411 H   0  0  0  0  0  0  0  0  0  0  0  0
    5.7340    2.4709   -1.0320 H   0  0  0  0  0  0  0  0  0  0  0  0
    6.6717    0.6528    0.4273 H   0  0  0  0  0  0  0  0  0  0  0  0
    6.0968   -1.0070    0.1624 H   0  0  0  0  0  0  0  0  0  0  0  0
    4.1248   -0.2349    3.7743 H   0  0  0  0  0  0  0  0  0  0  0  0
    5.5949    3.7404    5.9561 H   0  0  0  0  0  0  0  0  0  0  0  0
    7.2299    6.0109    4.9779 H   0  0  0  0  0  0  0  0  0  0  0  0
    6.9740    5.5360    6.6698 H   0  0  0  0  0  0  0  0  0  0  0  0
    4.8404    6.7359    4.8371 H   0  0  0  0  0  0  0  0  0  0  0  0
    5.4657    7.0044    8.5655 H   0  0  0  0  0  0  0  0  0  0  0  0
    3.8175    6.2378   10.2455 H   0  0  0  0  0  0  0  0  0  0  0  0
    1.6999    5.1330    9.5182 H   0  0  0  0  0  0  0  0  0  0  0  0
    1.2580    4.7997    7.0833 H   0  0  0  0  0  0  0  0  0  0  0  0
    2.9157    5.5582    5.4018 H   0  0  0  0  0  0  0  0  0  0  0  0
    7.7308    7.5918    7.0443 H   0  0  0  0  0  0  0  0  0  0  0  0
    8.5049    9.9057    7.3695 H   0  0  0  0  0  0  0  0  0  0  0  0
    7.1378   11.8249    6.5471 H   0  0  0  0  0  0  0  0  0  0  0  0
    4.9717   11.3819    5.3826 H   0  0  0  0  0  0  0  0  0  0  0  0
    4.1878    9.0548    5.0562 H   0  0  0  0  0  0  0  0  0  0  0  0
    7.0439    6.3396    2.1345 H   0  0  0  0  0  0  0  0  0  0  0  0
    1.5530    1.1460    0.2277 H   0  0  0  0  0  0  0  0  0  0  0  0
    2.6197   -1.1035   -0.8044 H   0  0  0  0  0  0  0  0  0  0  0  0
  1  2  1  0
  1 40  1  0
  1 41  1  0
  2  3  1  6
  2  4  1  0
  2 37  1  0
  4  5  1  0
  4 42  1  0
  4 43  1  0
  5  6  1  1
  5  7  1  0
  5 34  1  0
  7  8  1  0
  7 33  1  0
  8  9  2  0
  8 44  1  0
  9 10  1  0
 10 11  1  0
 10 33  2  0
 11 12  1  0
 11 27  2  0
 12 13  1  0
 12 45  1  0
 13 14  1  0
 13 46  1  0
 13 47  1  0
 14 15  1  0
 14 21  1  0
 14 48  1  6
 15 16  2  0
 15 20  1  0
 16 17  1  0
 16 49  1  0
 17 18  2  0
 17 50  1  0
 18 19  1  0
 18 51  1  0
 19 20  2  0
 19 52  1  0
 20 53  1  0
 21 22  2  0
 21 26  1  0
 22 23  1  0
 22 54  1  0
 23 24  2  0
 23 55  1  0
 24 25  1  0
 24 56  1  0
 25 26  2  0
 25 57  1  0
 26 58  1  0
 27 28  1  0
 28 29  1  0
 28 32  2  0
 29 30  2  0
 29 31  1  0
 31 59  1  0
 32 33  1  0
 34 35  1  6
 34 36  1  0
 34 37  1  0
 36 60  1  0
 37 38  1  6
 37 39  1  0
 39 61  1  0
M  END

