
     RDKit          3D

 78 85  0  0  0  0  0  0  0  0999 V2000
    2.1686   -1.5376    0.4585 O   0  0  0  0  0  0  0  0  0  0  0  0
    2.9682   -0.6457    0.2229 C   0  0  0  0  0  0  0  0  0  0  0  0
    3.5278   -0.4863   -1.1602 C   0  0  0  0  0  0  0  0  0  0  0  0
    3.9273    0.7485   -1.7009 C   0  0  0  0  0  0  0  0  0  0  0  0
    4.3600    0.8381   -3.0238 C   0  0  0  0  0  0  0  0  0  0  0  0
    4.4443   -0.3045   -3.8420 C   0  0  0  0  0  0  0  0  0  0  0  0
    4.8998   -0.1923   -5.2610 C   0  0  0  0  0  0  0  0  0  0  0  0
    5.8245   -1.0423   -5.8072 C   0  0  0  0  0  0  0  0  0  0  0  0
    6.1023   -1.0962   -7.2756 C   0  0  0  0  0  0  0  0  0  0  0  0
    7.4276   -1.0886   -7.7524 C   0  0  0  0  0  0  0  0  0  0  0  0
    7.6993   -1.1568   -9.1202 C   0  0  0  0  0  0  0  0  0  0  0  0
    6.6519   -1.2583  -10.0413 C   0  0  0  0  0  0  0  0  0  0  0  0
    5.3317   -1.2902   -9.5817 C   0  0  0  0  0  0  0  0  0  0  0  0
    5.0598   -1.2075   -8.2147 C   0  0  0  0  0  0  0  0  0  0  0  0
    6.6390   -1.9844   -4.9789 C   0  0  0  0  0  0  0  0  0  0  0  0
    6.7595   -3.3387   -5.3461 C   0  0  0  0  0  0  0  0  0  0  0  0
    7.5283   -4.2226   -4.5865 C   0  0  0  0  0  0  0  0  0  0  0  0
    8.2142   -3.7666   -3.4561 C   0  0  0  0  0  0  0  0  0  0  0  0
    8.1244   -2.4194   -3.0933 C   0  0  0  0  0  0  0  0  0  0  0  0
    7.3439   -1.5387   -3.8452 C   0  0  0  0  0  0  0  0  0  0  0  0
    4.2686    0.9218   -6.0354 C   0  0  0  0  0  0  0  0  0  0  0  0
    2.8728    1.1076   -6.0125 C   0  0  0  0  0  0  0  0  0  0  0  0
    2.2761    2.1552   -6.7171 C   0  0  0  0  0  0  0  0  0  0  0  0
    3.0643    3.0535   -7.4433 C   0  0  0  0  0  0  0  0  0  0  0  0
    4.4534    2.8944   -7.4581 C   0  0  0  0  0  0  0  0  0  0  0  0
    5.0487    1.8395   -6.7633 C   0  0  0  0  0  0  0  0  0  0  0  0
    4.0247   -1.5361   -3.2985 C   0  0  0  0  0  0  0  0  0  0  0  0
    3.5611   -1.6216   -1.9904 C   0  0  0  0  0  0  0  0  0  0  0  0
    3.3849    0.2839    1.3296 C   0  0  0  0  0  0  0  0  0  0  0  0
    4.6425    0.9080    1.3901 C   0  0  0  0  0  0  0  0  0  0  0  0
    4.9993    1.6904    2.4889 C   0  0  0  0  0  0  0  0  0  0  0  0
    4.0926    1.8870    3.5421 C   0  0  0  0  0  0  0  0  0  0  0  0
    4.4463    2.6958    4.6490 N   0  0  0  0  0  0  0  0  0  0  0  0
    4.9153    4.0144    4.5844 C   0  0  0  0  0  0  0  0  0  0  0  0
    5.1070    4.8415    3.4701 C   0  0  0  0  0  0  0  0  0  0  0  0
    5.5657    6.1408    3.6927 C   0  0  0  0  0  0  0  0  0  0  0  0
    5.8246    6.6153    4.9920 C   0  0  0  0  0  0  0  0  0  0  0  0
    5.6179    5.7942    6.0996 C   0  0  0  0  0  0  0  0  0  0  0  0
    5.1569    4.4845    5.9034 C   0  0  0  0  0  0  0  0  0  0  0  0
    4.8217    3.3986    6.8038 C   0  0  0  0  0  0  0  0  0  0  0  0
    4.8677    3.2509    8.1976 C   0  0  0  0  0  0  0  0  0  0  0  0
    4.4900    2.0348    8.7649 C   0  0  0  0  0  0  0  0  0  0  0  0
    4.0765    0.9643    7.9504 C   0  0  0  0  0  0  0  0  0  0  0  0
    4.0212    1.0852    6.5611 C   0  0  0  0  0  0  0  0  0  0  0  0
    4.3861    2.3140    5.9960 C   0  0  0  0  0  0  0  0  0  0  0  0
    2.8324    1.2652    3.4887 C   0  0  0  0  0  0  0  0  0  0  0  0
    2.4964    0.4595    2.4056 C   0  0  0  0  0  0  0  0  0  0  0  0
    3.8692    1.6564   -1.0978 H   0  0  0  0  0  0  0  0  0  0  0  0
    4.6418    1.8113   -3.4319 H   0  0  0  0  0  0  0  0  0  0  0  0
    8.2528   -1.0210   -7.0394 H   0  0  0  0  0  0  0  0  0  0  0  0
    8.7353   -1.1356   -9.4685 H   0  0  0  0  0  0  0  0  0  0  0  0
    6.8640   -1.3198  -11.1118 H   0  0  0  0  0  0  0  0  0  0  0  0
    4.5061   -1.3829  -10.2922 H   0  0  0  0  0  0  0  0  0  0  0  0
    4.0260   -1.2361   -7.8654 H   0  0  0  0  0  0  0  0  0  0  0  0
    6.2357   -3.7014   -6.2338 H   0  0  0  0  0  0  0  0  0  0  0  0
    7.5956   -5.2730   -4.8814 H   0  0  0  0  0  0  0  0  0  0  0  0
    8.8221   -4.4566   -2.8654 H   0  0  0  0  0  0  0  0  0  0  0  0
    8.6686   -2.0498   -2.2202 H   0  0  0  0  0  0  0  0  0  0  0  0
    7.2832   -0.4871   -3.5580 H   0  0  0  0  0  0  0  0  0  0  0  0
    2.2489    0.4162   -5.4408 H   0  0  0  0  0  0  0  0  0  0  0  0
    1.1894    2.2724   -6.6958 H   0  0  0  0  0  0  0  0  0  0  0  0
    2.5985    3.8777   -7.9896 H   0  0  0  0  0  0  0  0  0  0  0  0
    5.0797    3.5981   -8.0125 H   0  0  0  0  0  0  0  0  0  0  0  0
    6.1342    1.7243   -6.7788 H   0  0  0  0  0  0  0  0  0  0  0  0
    4.0521   -2.4318   -3.9214 H   0  0  0  0  0  0  0  0  0  0  0  0
    3.2090   -2.5719   -1.5845 H   0  0  0  0  0  0  0  0  0  0  0  0
    5.3706    0.7509    0.5925 H   0  0  0  0  0  0  0  0  0  0  0  0
    5.9928    2.1388    2.5444 H   0  0  0  0  0  0  0  0  0  0  0  0
    4.8998    4.4896    2.4586 H   0  0  0  0  0  0  0  0  0  0  0  0
    5.7232    6.8025    2.8372 H   0  0  0  0  0  0  0  0  0  0  0  0
    6.1846    7.6374    5.1315 H   0  0  0  0  0  0  0  0  0  0  0  0
    5.8080    6.1670    7.1092 H   0  0  0  0  0  0  0  0  0  0  0  0
    5.2003    4.0781    8.8297 H   0  0  0  0  0  0  0  0  0  0  0  0
    4.5202    1.9073    9.8496 H   0  0  0  0  0  0  0  0  0  0  0  0
    3.7945    0.0146    8.4123 H   0  0  0  0  0  0  0  0  0  0  0  0
    3.7097    0.2435    5.9411 H   0  0  0  0  0  0  0  0  0  0  0  0
    2.1190    1.4264    4.2988 H   0  0  0  0  0  0  0  0  0  0  0  0
    1.5289   -0.0446    2.3663 H   0  0  0  0  0  0  0  0  0  0  0  0
  1  2  2  0
  2  3  1  0
  2 29  1  0
  3  4  2  0
  3 28  1  0
  4  5  1  0
  4 48  1  0
  5  6  2  0
  5 49  1  0
  6  7  1  0
  6 27  1  0
  7  8  2  0
  7 21  1  0
  8  9  1  0
  8 15  1  0
  9 10  2  0
  9 14  1  0
 10 11  1  0
 10 50  1  0
 11 12  2  0
 11 51  1  0
 12 13  1  0
 12 52  1  0
 13 14  2  0
 13 53  1  0
 14 54  1  0
 15 16  2  0
 15 20  1  0
 16 17  1  0
 16 55  1  0
 17 18  2  0
 17 56  1  0
 18 19  1  0
 18 57  1  0
 19 20  2  0
 19 58  1  0
 20 59  1  0
 21 22  2  0
 21 26  1  0
 22 23  1  0
 22 60  1  0
 23 24  2  0
 23 61  1  0
 24 25  1  0
 24 62  1  0
 25 26  2  0
 25 63  1  0
 26 64  1  0
 27 28  2  0
 27 65  1  0
 28 66  1  0
 29 30  2  0
 29 47  1  0
 30 31  1  0
 30 67  1  0
 31 32  2  0
 31 68  1  0
 32 33  1  0
 32 46  1  0
 33 34  1  0
 33 45  1  0
 34 35  2  0
 34 39  1  0
 35 36  1  0
 35 69  1  0
 36 37  2  0
 36 70  1  0
 37 38  1  0
 37 71  1  0
 38 39  2  0
 38 72  1  0
 39 40  1  0
 40 41  1  0
 40 45  2  0
 41 42  2  0
 41 73  1  0
 42 43  1  0
 42 74  1  0
 43 44  2  0
 43 75  1  0
 44 45  1  0
 44 76  1  0
 46 47  2  0
 46 77  1  0
 47 78  1  0
M  END

