
     RDKit          3D

 21 22  0  0  0  0  0  0  0  0999 V2000
    1.0088   -0.2936    0.3034 N   0  0  0  0  0  0  0  0  0  0  0  0
    2.3517   -0.0911    0.2666 C   0  0  0  0  0  0  0  0  0  0  0  0
    2.9219    1.0633    0.4243 N   0  0  0  0  0  0  0  0  0  0  0  0
    4.3258    0.8747    0.3752 N   0  0  0  0  0  0  0  0  0  0  0  0
    4.5989   -0.3647    0.1830 C   0  0  0  0  0  0  0  0  0  0  0  0
    3.3550   -1.2207    0.0946 C   0  0  2  0  0  0  0  0  0  0  0  0
    3.1848   -2.0596   -1.1570 C   0  0  0  0  0  0  0  0  0  0  0  0
    2.9099   -3.4325   -1.0766 C   0  0  0  0  0  0  0  0  0  0  0  0
    2.7413   -4.1966   -2.2368 C   0  0  0  0  0  0  0  0  0  0  0  0
    2.8455   -3.5952   -3.4928 C   0  0  0  0  0  0  0  0  0  0  0  0
    3.1193   -2.2253   -3.5838 C   0  0  0  0  0  0  0  0  0  0  0  0
    3.2876   -1.4638   -2.4265 C   0  0  0  0  0  0  0  0  0  0  0  0
    0.4260    0.5365    0.2820 H   0  0  0  0  0  0  0  0  0  0  0  0
    0.6345   -1.1187   -0.1490 H   0  0  0  0  0  0  0  0  0  0  0  0
    5.6266   -0.7283    0.1024 H   0  0  0  0  0  0  0  0  0  0  0  0
    3.2977   -1.8761    0.9824 H   0  0  0  0  0  0  0  0  0  0  0  0
    2.8328   -3.9117   -0.0963 H   0  0  0  0  0  0  0  0  0  0  0  0
    2.5308   -5.2661   -2.1558 H   0  0  0  0  0  0  0  0  0  0  0  0
    2.7160   -4.1908   -4.3999 H   0  0  0  0  0  0  0  0  0  0  0  0
    3.2045   -1.7482   -4.5635 H   0  0  0  0  0  0  0  0  0  0  0  0
    3.5047   -0.3946   -2.5023 H   0  0  0  0  0  0  0  0  0  0  0  0
  1  2  1  0
  1 13  1  0
  1 14  1  0
  2  3  2  0
  2  6  1  0
  3  4  1  0
  4  5  2  0
  5  6  1  0
  5 15  1  0
  6  7  1  0
  6 16  1  1
  7  8  2  0
  7 12  1  0
  8  9  1  0
  8 17  1  0
  9 10  2  0
  9 18  1  0
 10 11  1  0
 10 19  1  0
 11 12  2  0
 11 20  1  0
 12 21  1  0
M  END

