
     RDKit          3D

 24 25  0  0  0  0  0  0  0  0999 V2000
    0.8631    0.4531    0.7276 C   0  0  0  0  0  0  0  0  0  0  0  0
    2.2891    0.2123    0.3339 C   0  0  0  0  0  0  0  0  0  0  0  0
    3.2427    1.1464   -0.0234 C   0  0  0  0  0  0  0  0  0  0  0  0
    4.5012    0.5755   -0.3367 C   0  0  0  0  0  0  0  0  0  0  0  0
    4.5168   -0.8024   -0.2293 C   0  0  0  0  0  0  0  0  0  0  0  0
    5.7050   -1.6543   -0.4457 C   0  0  0  0  0  0  0  0  0  0  0  0
    6.7926   -1.1600   -0.6760 O   0  0  0  0  0  0  0  0  0  0  0  0
    5.5316   -3.1572   -0.3990 C   0  0  0  0  0  0  0  0  0  0  0  0
    4.6469   -3.7822   -1.2940 C   0  0  0  0  0  0  0  0  0  0  0  0
    4.5282   -5.1724   -1.3457 C   0  0  0  0  0  0  0  0  0  0  0  0
    5.2886   -5.9628   -0.4810 C   0  0  0  0  0  0  0  0  0  0  0  0
    6.1654   -5.3643    0.4264 C   0  0  0  0  0  0  0  0  0  0  0  0
    6.2914   -3.9725    0.4603 C   0  0  0  0  0  0  0  0  0  0  0  0
    7.3849   -3.2736    1.6308 Cl  0  0  0  0  0  0  0  0  0  0  0  0
    2.9491   -1.3929    0.2793 S   0  0  0  0  0  0  0  0  0  0  0  0
    0.6459    1.5311    0.7118 H   0  0  0  0  0  0  0  0  0  0  0  0
    0.6500    0.0789    1.7426 H   0  0  0  0  0  0  0  0  0  0  0  0
    0.1586   -0.0448    0.0408 H   0  0  0  0  0  0  0  0  0  0  0  0
    3.0330    2.2173   -0.0536 H   0  0  0  0  0  0  0  0  0  0  0  0
    5.3917    1.1319   -0.6308 H   0  0  0  0  0  0  0  0  0  0  0  0
    4.0557   -3.1623   -1.9722 H   0  0  0  0  0  0  0  0  0  0  0  0
    3.8434   -5.6352   -2.0599 H   0  0  0  0  0  0  0  0  0  0  0  0
    5.2012   -7.0518   -0.5068 H   0  0  0  0  0  0  0  0  0  0  0  0
    6.7587   -5.9681    1.1151 H   0  0  0  0  0  0  0  0  0  0  0  0
  1  2  1  0
  1 16  1  0
  1 17  1  0
  1 18  1  0
  2  3  2  0
  2 15  1  0
  3  4  1  0
  3 19  1  0
  4  5  2  0
  4 20  1  0
  5  6  1  0
  5 15  1  0
  6  7  2  0
  6  8  1  0
  8  9  2  0
  8 13  1  0
  9 10  1  0
  9 21  1  0
 10 11  2  0
 10 22  1  0
 11 12  1  0
 11 23  1  0
 12 13  2  0
 12 24  1  0
 13 14  1  0
M  END

