
     RDKit          3D

 42 43  0  0  0  0  0  0  0  0999 V2000
    1.6840   -0.7611    1.0048 C   0  0  0  0  0  0  0  0  0  0  0  0
    2.2943   -0.0798   -0.0650 O   0  0  0  0  0  0  0  0  0  0  0  0
    2.7859   -0.7900   -1.1128 C   0  0  0  0  0  0  0  0  0  0  0  0
    3.3758   -0.0515   -2.1525 C   0  0  0  0  0  0  0  0  0  0  0  0
    3.9164   -0.6977   -3.2528 C   0  0  0  0  0  0  0  0  0  0  0  0
    3.8800   -2.1034   -3.3817 C   0  0  0  0  0  0  0  0  0  0  0  0
    4.4268   -2.7616   -4.4970 N   0  0  0  0  0  0  0  0  0  0  0  0
    4.5886   -2.2545   -5.7649 C   0  0  0  0  0  0  0  0  0  0  0  0
    5.2891   -3.2068   -6.7242 C   0  0  0  0  0  0  0  0  0  0  0  0
    4.2234   -1.1461   -6.1165 O   0  0  0  0  0  0  0  0  0  0  0  0
    3.2714   -2.8412   -2.3441 C   0  0  0  0  0  0  0  0  0  0  0  0
    3.0644   -4.2544   -2.3790 N   0  0  0  0  0  0  0  0  0  0  0  0
    3.8956   -5.2703   -2.7544 C   0  0  0  0  0  0  0  0  0  0  0  0
    5.0135   -5.1048   -3.2330 O   0  0  0  0  0  0  0  0  0  0  0  0
    3.3142   -6.6705   -2.5759 C   0  0  0  0  0  0  0  0  0  0  0  0
    4.3939   -7.7058   -2.2199 C   0  0  0  0  0  0  0  0  0  0  0  0
    3.8660   -9.1205   -2.1926 C   0  0  0  0  0  0  0  0  0  0  0  0
    3.7908   -9.9072   -3.3510 C   0  0  0  0  0  0  0  0  0  0  0  0
    3.2655  -11.1973   -3.2719 C   0  0  0  0  0  0  0  0  0  0  0  0
    2.8274  -11.6641   -2.0283 C   0  0  0  0  0  0  0  0  0  0  0  0
    2.8944  -10.9342   -0.9128 N   0  0  0  0  0  0  0  0  0  0  0  0
    3.4003   -9.7035   -1.0020 C   0  0  0  0  0  0  0  0  0  0  0  0
    2.7458   -2.1822   -1.2147 C   0  0  0  0  0  0  0  0  0  0  0  0
    1.3644    0.0044    1.7247 H   0  0  0  0  0  0  0  0  0  0  0  0
    2.3852   -1.4520    1.5083 H   0  0  0  0  0  0  0  0  0  0  0  0
    0.7963   -1.3336    0.6775 H   0  0  0  0  0  0  0  0  0  0  0  0
    3.4006    1.0368   -2.0716 H   0  0  0  0  0  0  0  0  0  0  0  0
    4.3531   -0.1211   -4.0653 H   0  0  0  0  0  0  0  0  0  0  0  0
    4.8368   -3.6756   -4.2819 H   0  0  0  0  0  0  0  0  0  0  0  0
    5.3725   -4.2350   -6.3436 H   0  0  0  0  0  0  0  0  0  0  0  0
    6.3009   -2.8219   -6.9302 H   0  0  0  0  0  0  0  0  0  0  0  0
    4.7420   -3.2051   -7.6779 H   0  0  0  0  0  0  0  0  0  0  0  0
    2.2009   -4.5491   -1.9364 H   0  0  0  0  0  0  0  0  0  0  0  0
    2.8429   -6.9474   -3.5365 H   0  0  0  0  0  0  0  0  0  0  0  0
    2.5068   -6.6755   -1.8250 H   0  0  0  0  0  0  0  0  0  0  0  0
    4.8274   -7.4511   -1.2389 H   0  0  0  0  0  0  0  0  0  0  0  0
    5.2084   -7.6108   -2.9534 H   0  0  0  0  0  0  0  0  0  0  0  0
    4.1496   -9.5129   -4.3069 H   0  0  0  0  0  0  0  0  0  0  0  0
    3.1996  -11.8350   -4.1566 H   0  0  0  0  0  0  0  0  0  0  0  0
    2.4083  -12.6728   -1.9319 H   0  0  0  0  0  0  0  0  0  0  0  0
    3.4529   -9.1311   -0.0659 H   0  0  0  0  0  0  0  0  0  0  0  0
    2.3060   -2.7893   -0.4228 H   0  0  0  0  0  0  0  0  0  0  0  0
  1  2  1  0
  1 24  1  0
  1 25  1  0
  1 26  1  0
  2  3  1  0
  3  4  2  0
  3 23  1  0
  4  5  1  0
  4 27  1  0
  5  6  2  0
  5 28  1  0
  6  7  1  0
  6 11  1  0
  7  8  1  0
  7 29  1  0
  8  9  1  0
  8 10  2  0
  9 30  1  0
  9 31  1  0
  9 32  1  0
 11 12  1  0
 11 23  2  0
 12 13  1  0
 12 33  1  0
 13 14  2  0
 13 15  1  0
 15 16  1  0
 15 34  1  0
 15 35  1  0
 16 17  1  0
 16 36  1  0
 16 37  1  0
 17 18  2  0
 17 22  1  0
 18 19  1  0
 18 38  1  0
 19 20  2  0
 19 39  1  0
 20 21  1  0
 20 40  1  0
 21 22  2  0
 22 41  1  0
 23 42  1  0
M  END

