
     RDKit          3D

 39 39  0  0  0  0  0  0  0  0999 V2000
    0.9500    3.3272    2.1971 C   0  0  0  0  0  0  0  0  0  0  0  0
    2.3381    3.4520    2.3713 O   0  0  0  0  0  0  0  0  0  0  0  0
    3.0209    3.9589    1.2469 C   0  0  0  0  0  0  0  0  0  0  0  0
    4.5039    3.9843    1.5719 C   0  0  0  0  0  0  0  0  0  0  0  0
    4.9457    2.6568    1.9551 N   0  0  0  0  0  0  0  0  0  0  0  0
    6.2284    2.2421    1.8224 C   0  0  0  0  0  0  0  0  0  0  0  0
    7.1559    2.9229    1.2013 N   0  0  0  0  0  0  0  0  0  0  0  0
    8.3469    2.2440    1.1880 C   0  0  0  0  0  0  0  0  0  0  0  0
    9.4177    2.7911    0.5718 N   0  0  0  0  0  0  0  0  0  0  0  0
    8.3589    0.9963    1.8230 C   0  0  0  0  0  0  0  0  0  0  0  0
    9.5327    0.1522    1.9522 C   0  0  0  0  0  0  0  0  0  0  0  0
   10.6359    0.5082    1.5041 O   0  0  0  0  0  0  0  0  0  0  0  0
    9.3977   -1.0540    2.5965 N   0  0  0  0  0  0  0  0  0  0  0  0
   10.5162   -1.9717    2.7105 C   0  0  0  0  0  0  0  0  0  0  0  0
   10.7783   -2.7989    1.4447 C   0  0  0  0  0  0  0  0  0  0  0  0
   12.0911   -3.5889    1.5025 C   0  0  1  0  0  0  0  0  0  0  0  0
   12.3363   -4.4024    0.2312 C   0  0  0  0  0  0  0  0  0  0  0  0
   13.1933   -2.7370    1.7870 O   0  0  0  0  0  0  0  0  0  0  0  0
    6.7364    0.6827    2.4747 S   0  0  0  0  0  0  0  0  0  0  0  0
    0.5288    2.9208    3.1280 H   0  0  0  0  0  0  0  0  0  0  0  0
    0.6972    2.6410    1.3638 H   0  0  0  0  0  0  0  0  0  0  0  0
    0.4713    4.3054    1.9910 H   0  0  0  0  0  0  0  0  0  0  0  0
    2.6755    4.9837    0.9996 H   0  0  0  0  0  0  0  0  0  0  0  0
    2.8353    3.3188    0.3596 H   0  0  0  0  0  0  0  0  0  0  0  0
    4.6912    4.7162    2.3810 H   0  0  0  0  0  0  0  0  0  0  0  0
    5.0844    4.3083    0.6968 H   0  0  0  0  0  0  0  0  0  0  0  0
    4.3234    2.1496    2.5741 H   0  0  0  0  0  0  0  0  0  0  0  0
    9.3659    3.7541    0.2719 H   0  0  0  0  0  0  0  0  0  0  0  0
   10.3000    2.2945    0.6871 H   0  0  0  0  0  0  0  0  0  0  0  0
    8.4686   -1.3939    2.8113 H   0  0  0  0  0  0  0  0  0  0  0  0
   10.3368   -2.6339    3.5741 H   0  0  0  0  0  0  0  0  0  0  0  0
   11.4167   -1.3840    2.9320 H   0  0  0  0  0  0  0  0  0  0  0  0
   10.8211   -2.1064    0.5849 H   0  0  0  0  0  0  0  0  0  0  0  0
    9.9368   -3.4888    1.2545 H   0  0  0  0  0  0  0  0  0  0  0  0
   12.0517   -4.2846    2.3609 H   0  0  0  0  0  0  0  0  0  0  0  0
   12.3710   -3.7415   -0.6523 H   0  0  0  0  0  0  0  0  0  0  0  0
   11.5383   -5.1442    0.0645 H   0  0  0  0  0  0  0  0  0  0  0  0
   13.2986   -4.9321    0.2992 H   0  0  0  0  0  0  0  0  0  0  0  0
   13.1794   -2.0090    1.1486 H   0  0  0  0  0  0  0  0  0  0  0  0
  1  2  1  0
  1 20  1  0
  1 21  1  0
  1 22  1  0
  2  3  1  0
  3  4  1  0
  3 23  1  0
  3 24  1  0
  4  5  1  0
  4 25  1  0
  4 26  1  0
  5  6  1  0
  5 27  1  0
  6  7  2  0
  6 19  1  0
  7  8  1  0
  8  9  1  0
  8 10  2  0
  9 28  1  0
  9 29  1  0
 10 11  1  0
 10 19  1  0
 11 12  2  0
 11 13  1  0
 13 14  1  0
 13 30  1  0
 14 15  1  0
 14 31  1  0
 14 32  1  0
 15 16  1  0
 15 33  1  0
 15 34  1  0
 16 17  1  0
 16 18  1  0
 16 35  1  1
 17 36  1  0
 17 37  1  0
 17 38  1  0
 18 39  1  0
M  END

