
     RDKit          3D

 56 56  0  0  0  0  0  0  0  0999 V2000
    6.6964    1.8025    1.6942 C   0  0  0  0  0  0  0  0  0  0  0  0
    5.9449    1.1549    0.7969 C   0  0  0  0  0  0  0  0  0  0  0  0
    4.5576    0.5669    0.9859 C   0  0  1  0  0  0  0  0  0  0  0  0
    4.0316    0.7806    2.4165 C   0  0  0  0  0  0  0  0  0  0  0  0
    3.6216    1.3619    0.0336 C   0  0  0  0  0  0  0  0  0  0  0  0
    4.4556   -0.9229    0.5013 C   0  0  0  0  0  0  0  0  0  0  0  0
    5.3414   -2.0980    1.0168 C   0  0  1  0  0  0  0  0  0  0  0  0
    5.2526   -2.3291    2.5583 C   0  0  0  0  0  0  0  0  0  0  0  0
    3.8726   -2.6820    3.1242 C   0  0  0  0  0  0  0  0  0  0  0  0
    3.8942   -2.8657    4.6461 C   0  0  0  0  0  0  0  0  0  0  0  0
    2.5351   -3.2517    5.2316 C   0  0  0  0  0  0  0  0  0  0  0  0
    4.7769   -3.3908    0.3433 C   0  0  0  0  0  0  0  0  0  0  0  0
    3.6873   -3.4531   -0.1663 O   0  0  0  0  0  0  0  0  0  0  0  0
    5.5642   -4.4751    0.4090 O   0  0  0  0  0  0  0  0  0  0  0  0
    6.8454   -1.9122    0.6319 C   0  0  1  0  0  0  0  0  0  0  0  0
    7.5777   -3.0150    1.2085 O   0  0  0  0  0  0  0  0  0  0  0  0
    7.1274   -1.8296   -0.8749 C   0  0  0  0  0  0  0  0  0  0  0  0
    8.6130   -1.5931   -1.2127 C   0  0  0  0  0  0  0  0  0  0  0  0
    8.8663   -1.4387   -2.6974 C   0  0  0  0  0  0  0  0  0  0  0  0
    8.9317   -0.1674   -3.2885 C   0  0  0  0  0  0  0  0  0  0  0  0
    9.1267   -0.0240   -4.6655 C   0  0  0  0  0  0  0  0  0  0  0  0
    9.2594   -1.1544   -5.4766 C   0  0  0  0  0  0  0  0  0  0  0  0
    9.1975   -2.4271   -4.9006 C   0  0  0  0  0  0  0  0  0  0  0  0
    9.0031   -2.5658   -3.5240 C   0  0  0  0  0  0  0  0  0  0  0  0
    7.6670    2.2228    1.4157 H   0  0  0  0  0  0  0  0  0  0  0  0
    6.3857    1.9435    2.7327 H   0  0  0  0  0  0  0  0  0  0  0  0
    6.3309    1.0720   -0.2278 H   0  0  0  0  0  0  0  0  0  0  0  0
    3.9714    1.8561    2.6456 H   0  0  0  0  0  0  0  0  0  0  0  0
    4.6636    0.3157    3.1846 H   0  0  0  0  0  0  0  0  0  0  0  0
    3.0172    0.3664    2.5169 H   0  0  0  0  0  0  0  0  0  0  0  0
    3.5946    2.4266    0.3125 H   0  0  0  0  0  0  0  0  0  0  0  0
    2.5943    0.9660    0.0806 H   0  0  0  0  0  0  0  0  0  0  0  0
    3.9579    1.2937   -1.0133 H   0  0  0  0  0  0  0  0  0  0  0  0
    4.5533   -0.9111   -0.5950 H   0  0  0  0  0  0  0  0  0  0  0  0
    3.4141   -1.2350    0.6587 H   0  0  0  0  0  0  0  0  0  0  0  0
    5.6494   -1.4331    3.0626 H   0  0  0  0  0  0  0  0  0  0  0  0
    5.9488   -3.1374    2.8233 H   0  0  0  0  0  0  0  0  0  0  0  0
    3.5041   -3.6107    2.6553 H   0  0  0  0  0  0  0  0  0  0  0  0
    3.1326   -1.9071    2.8670 H   0  0  0  0  0  0  0  0  0  0  0  0
    4.2493   -1.9327    5.1217 H   0  0  0  0  0  0  0  0  0  0  0  0
    4.6418   -3.6366    4.9080 H   0  0  0  0  0  0  0  0  0  0  0  0
    1.7734   -2.4832    5.0178 H   0  0  0  0  0  0  0  0  0  0  0  0
    2.5853   -3.3750    6.3253 H   0  0  0  0  0  0  0  0  0  0  0  0
    2.1711   -4.2013    4.8050 H   0  0  0  0  0  0  0  0  0  0  0  0
    6.4403   -4.2265    0.7806 H   0  0  0  0  0  0  0  0  0  0  0  0
    7.1931   -0.9854    1.1158 H   0  0  0  0  0  0  0  0  0  0  0  0
    8.5139   -2.9274    0.9887 H   0  0  0  0  0  0  0  0  0  0  0  0
    6.5395   -1.0110   -1.3135 H   0  0  0  0  0  0  0  0  0  0  0  0
    6.7855   -2.7565   -1.3650 H   0  0  0  0  0  0  0  0  0  0  0  0
    9.2194   -2.4392   -0.8412 H   0  0  0  0  0  0  0  0  0  0  0  0
    8.9671   -0.6916   -0.6833 H   0  0  0  0  0  0  0  0  0  0  0  0
    8.8342    0.7238   -2.6610 H   0  0  0  0  0  0  0  0  0  0  0  0
    9.1784    0.9754   -5.1053 H   0  0  0  0  0  0  0  0  0  0  0  0
    9.4137   -1.0445   -6.5529 H   0  0  0  0  0  0  0  0  0  0  0  0
    9.3039   -3.3173   -5.5260 H   0  0  0  0  0  0  0  0  0  0  0  0
    8.9594   -3.5665   -3.0834 H   0  0  0  0  0  0  0  0  0  0  0  0
  1  2  2  0
  1 25  1  0
  1 26  1  0
  3  2  1  1
  2 27  1  0
  3  4  1  0
  3  5  1  0
  3  6  1  0
  4 28  1  0
  4 29  1  0
  4 30  1  0
  5 31  1  0
  5 32  1  0
  5 33  1  0
  6  7  1  0
  6 34  1  0
  6 35  1  0
  7  8  1  0
  7 12  1  6
  7 15  1  0
  8  9  1  0
  8 36  1  0
  8 37  1  0
  9 10  1  0
  9 38  1  0
  9 39  1  0
 10 11  1  0
 10 40  1  0
 10 41  1  0
 11 42  1  0
 11 43  1  0
 11 44  1  0
 12 13  2  0
 12 14  1  0
 14 45  1  0
 15 16  1  0
 15 17  1  0
 15 46  1  1
 16 47  1  0
 17 18  1  0
 17 48  1  0
 17 49  1  0
 18 19  1  0
 18 50  1  0
 18 51  1  0
 19 20  2  0
 19 24  1  0
 20 21  1  0
 20 52  1  0
 21 22  2  0
 21 53  1  0
 22 23  1  0
 22 54  1  0
 23 24  2  0
 23 55  1  0
 24 56  1  0
M  END

