
     RDKit          3D

 38 39  0  0  0  0  0  0  0  0999 V2000
    0.8853    0.4234    0.2376 C   0  0  0  0  0  0  0  0  0  0  0  0
    2.4025    0.3304    0.3623 C   0  0  1  0  0  0  0  0  0  0  0  0
    2.9946   -0.1939   -0.8232 O   0  0  0  0  0  0  0  0  0  0  0  0
    3.0544    1.6650    0.7333 C   0  0  0  0  0  0  0  0  0  0  0  0
    4.4821    1.4978    0.9022 N   0  0  0  0  0  0  0  0  0  0  0  0
    5.2311    2.7253    1.0858 C   0  0  0  0  0  0  0  0  0  0  0  0
    6.7040    2.4714    1.3397 C   0  0  0  0  0  0  0  0  0  0  0  0
    7.6688    3.4298    0.9237 C   0  0  0  0  0  0  0  0  0  0  0  0
    8.9774    3.3355    1.1244 N   0  0  0  0  0  0  0  0  0  0  0  0
    9.3662    2.2322    1.7660 C   0  0  0  0  0  0  0  0  0  0  0  0
    8.5207    1.1870    2.2292 C   0  0  0  0  0  0  0  0  0  0  0  0
    9.4264    0.2576    2.8272 C   0  0  0  0  0  0  0  0  0  0  0  0
   10.6724    0.6908    2.7372 N   0  0  0  0  0  0  0  0  0  0  0  0
   10.6467    1.8787    2.0989 N   0  0  0  0  0  0  0  0  0  0  0  0
   11.8750    2.6313    1.8326 C   0  0  1  0  0  0  0  0  0  0  0  0
   12.5528    3.0394    3.1436 C   0  0  0  0  0  0  0  0  0  0  0  0
   12.8035    1.8392    0.9078 C   0  0  0  0  0  0  0  0  0  0  0  0
    7.1411    1.3252    2.0025 C   0  0  0  0  0  0  0  0  0  0  0  0
    0.4677   -0.5530   -0.0505 H   0  0  0  0  0  0  0  0  0  0  0  0
    0.5961    1.1606   -0.5324 H   0  0  0  0  0  0  0  0  0  0  0  0
    0.4208    0.7339    1.1870 H   0  0  0  0  0  0  0  0  0  0  0  0
    2.6651   -0.3974    1.1481 H   0  0  0  0  0  0  0  0  0  0  0  0
    2.7009    0.3526   -1.5665 H   0  0  0  0  0  0  0  0  0  0  0  0
    2.6128    2.0463    1.6721 H   0  0  0  0  0  0  0  0  0  0  0  0
    2.7916    2.4136   -0.0558 H   0  0  0  0  0  0  0  0  0  0  0  0
    4.8446    0.9660    0.1099 H   0  0  0  0  0  0  0  0  0  0  0  0
    4.7992    3.2567    1.9563 H   0  0  0  0  0  0  0  0  0  0  0  0
    5.1289    3.4360    0.2331 H   0  0  0  0  0  0  0  0  0  0  0  0
    7.3253    4.3246    0.3889 H   0  0  0  0  0  0  0  0  0  0  0  0
    9.2123   -0.6947    3.3124 H   0  0  0  0  0  0  0  0  0  0  0  0
   11.5226    3.5333    1.3087 H   0  0  0  0  0  0  0  0  0  0  0  0
   12.8542    2.1487    3.7157 H   0  0  0  0  0  0  0  0  0  0  0  0
   11.8724    3.6377    3.7690 H   0  0  0  0  0  0  0  0  0  0  0  0
   13.4506    3.6427    2.9373 H   0  0  0  0  0  0  0  0  0  0  0  0
   13.1159    0.8991    1.3875 H   0  0  0  0  0  0  0  0  0  0  0  0
   13.7039    2.4289    0.6751 H   0  0  0  0  0  0  0  0  0  0  0  0
   12.2993    1.5927   -0.0392 H   0  0  0  0  0  0  0  0  0  0  0  0
    6.4145    0.5726    2.3161 H   0  0  0  0  0  0  0  0  0  0  0  0
  1  2  1  0
  1 19  1  0
  1 20  1  0
  1 21  1  0
  2  3  1  0
  2  4  1  0
  2 22  1  1
  3 23  1  0
  4  5  1  0
  4 24  1  0
  4 25  1  0
  5  6  1  0
  5 26  1  0
  6  7  1  0
  6 27  1  0
  6 28  1  0
  7  8  2  0
  7 18  1  0
  8  9  1  0
  8 29  1  0
  9 10  2  0
 10 11  1  0
 10 14  1  0
 11 12  1  0
 11 18  2  0
 12 13  2  0
 12 30  1  0
 13 14  1  0
 14 15  1  0
 15 16  1  0
 15 17  1  0
 15 31  1  6
 16 32  1  0
 16 33  1  0
 16 34  1  0
 17 35  1  0
 17 36  1  0
 17 37  1  0
 18 38  1  0
M  END

