
     RDKit          3D

 52 55  0  0  0  0  0  0  0  0999 V2000
    2.9509   -0.7487    2.6115 C   0  0  0  0  0  0  0  0  0  0  0  0
    2.2429    0.4483    2.3780 O   0  0  0  0  0  0  0  0  0  0  0  0
    2.8940    1.5125    1.8632 C   0  0  0  0  0  0  0  0  0  0  0  0
    4.2522    1.5351    1.5228 C   0  0  0  0  0  0  0  0  0  0  0  0
    4.8481    2.6829    0.9931 C   0  0  0  0  0  0  0  0  0  0  0  0
    4.1022    3.8540    0.7853 C   0  0  0  0  0  0  0  0  0  0  0  0
    4.7174    5.0218    0.2642 N   0  0  0  0  0  0  0  0  0  0  0  0
    4.1292    6.2755    0.1460 C   0  0  0  0  0  0  0  0  0  0  0  0
    2.9867    6.5863    0.3946 O   0  0  0  0  0  0  0  0  0  0  0  0
    5.2242    7.2455   -0.3373 C   0  0  0  0  0  0  0  0  0  0  0  0
    5.0155    8.4159   -0.5553 O   0  0  0  0  0  0  0  0  0  0  0  0
    6.4590    6.4579   -0.4252 C   0  0  0  0  0  0  0  0  0  0  0  0
    7.7166    6.9434   -0.6305 C   0  0  0  0  0  0  0  0  0  0  0  0
    8.8169    6.1793   -0.7297 O   0  0  0  0  0  0  0  0  0  0  0  0
    8.0372    8.3855   -0.8177 C   0  0  0  0  0  0  0  0  0  0  0  0
    8.6160    8.7543   -2.0433 C   0  0  0  0  0  0  0  0  0  0  0  0
    8.8809   10.0926   -2.3182 C   0  0  0  0  0  0  0  0  0  0  0  0
    9.5755   10.5435   -3.8575 Cl  0  0  0  0  0  0  0  0  0  0  0  0
    8.5946   11.0817   -1.3745 C   0  0  0  0  0  0  0  0  0  0  0  0
    8.0611   10.7104   -0.1418 C   0  0  0  0  0  0  0  0  0  0  0  0
    7.7505   11.9347    1.0549 Cl  0  0  0  0  0  0  0  0  0  0  0  0
    7.7825    9.3618    0.1687 C   0  0  0  0  0  0  0  0  0  0  0  0
    7.2664    9.0929    1.3857 O   0  0  0  0  0  0  0  0  0  0  0  0
    7.8461    8.1020    2.2217 C   0  0  0  0  0  0  0  0  0  0  0  0
    6.1009    4.9894   -0.2299 C   0  0  2  0  0  0  0  0  0  0  0  0
    6.2279    4.1716   -1.5211 C   0  0  0  0  0  0  0  0  0  0  0  0
    5.2374    4.1738   -2.5149 C   0  0  0  0  0  0  0  0  0  0  0  0
    5.3953    3.4402   -3.6923 C   0  0  0  0  0  0  0  0  0  0  0  0
    6.5531    2.6832   -3.9036 C   0  0  0  0  0  0  0  0  0  0  0  0
    7.5576    2.6631   -2.9337 C   0  0  0  0  0  0  0  0  0  0  0  0
    7.3647    3.4050   -1.7754 C   0  0  0  0  0  0  0  0  0  0  0  0
    8.3552    3.4005   -0.8294 F   0  0  0  0  0  0  0  0  0  0  0  0
    2.7318    3.8402    1.1215 C   0  0  0  0  0  0  0  0  0  0  0  0
    2.1495    2.6938    1.6485 C   0  0  0  0  0  0  0  0  0  0  0  0
    0.4547    2.7087    2.0559 Cl  0  0  0  0  0  0  0  0  0  0  0  0
    2.2268   -1.4614    3.0276 H   0  0  0  0  0  0  0  0  0  0  0  0
    3.7709   -0.6056    3.3382 H   0  0  0  0  0  0  0  0  0  0  0  0
    3.3696   -1.1670    1.6784 H   0  0  0  0  0  0  0  0  0  0  0  0
    4.8687    0.6479    1.6666 H   0  0  0  0  0  0  0  0  0  0  0  0
    5.9069    2.6345    0.7442 H   0  0  0  0  0  0  0  0  0  0  0  0
    8.6376    5.2257   -0.6627 H   0  0  0  0  0  0  0  0  0  0  0  0
    8.8324    7.9914   -2.7915 H   0  0  0  0  0  0  0  0  0  0  0  0
    8.8010   12.1309   -1.5843 H   0  0  0  0  0  0  0  0  0  0  0  0
    7.9900    8.5459    3.2192 H   0  0  0  0  0  0  0  0  0  0  0  0
    8.8215    7.7628    1.8370 H   0  0  0  0  0  0  0  0  0  0  0  0
    7.1749    7.2333    2.3141 H   0  0  0  0  0  0  0  0  0  0  0  0
    6.7498    4.5380    0.5382 H   0  0  0  0  0  0  0  0  0  0  0  0
    4.3238    4.7507   -2.3554 H   0  0  0  0  0  0  0  0  0  0  0  0
    4.6075    3.4571   -4.4483 H   0  0  0  0  0  0  0  0  0  0  0  0
    6.6772    2.1080   -4.8238 H   0  0  0  0  0  0  0  0  0  0  0  0
    8.4775    2.0889   -3.0578 H   0  0  0  0  0  0  0  0  0  0  0  0
    2.1285    4.7321    0.9778 H   0  0  0  0  0  0  0  0  0  0  0  0
  1  2  1  0
  1 36  1  0
  1 37  1  0
  1 38  1  0
  2  3  1  0
  3  4  2  0
  3 34  1  0
  4  5  1  0
  4 39  1  0
  5  6  2  0
  5 40  1  0
  6  7  1  0
  6 33  1  0
  7  8  1  0
  7 25  1  0
  8  9  2  0
  8 10  1  0
 10 11  2  0
 10 12  1  0
 12 13  2  0
 12 25  1  0
 13 14  1  0
 13 15  1  0
 14 41  1  0
 15 16  2  0
 15 22  1  0
 16 17  1  0
 16 42  1  0
 17 18  1  0
 17 19  2  0
 19 20  1  0
 19 43  1  0
 20 21  1  0
 20 22  2  0
 22 23  1  0
 23 24  1  0
 24 44  1  0
 24 45  1  0
 24 46  1  0
 25 26  1  0
 25 47  1  1
 26 27  2  0
 26 31  1  0
 27 28  1  0
 27 48  1  0
 28 29  2  0
 28 49  1  0
 29 30  1  0
 29 50  1  0
 30 31  2  0
 30 51  1  0
 31 32  1  0
 33 34  2  0
 33 52  1  0
 34 35  1  0
M  END

