
     RDKit          3D

 42 43  0  0  0  0  0  0  0  0999 V2000
    0.9687   -0.2709    0.7317 C   0  0  0  0  0  0  0  0  0  0  0  0
    2.4567   -0.1539    0.4014 C   0  0  0  0  0  0  0  0  0  0  0  0
    2.9374   -1.2108   -0.5920 C   0  0  0  0  0  0  0  0  0  0  0  0
    4.3560   -1.0528   -0.8935 N   0  0  0  0  0  0  0  0  0  0  0  0
    4.9048   -2.0540   -1.8006 C   0  0  1  0  0  0  0  0  0  0  0  0
    4.3513   -1.8500   -3.2026 C   0  0  0  0  0  0  0  0  0  0  0  0
    4.0649   -0.6784   -3.8591 C   0  0  0  0  0  0  0  0  0  0  0  0
    3.6097   -0.8656   -5.2010 C   0  0  0  0  0  0  0  0  0  0  0  0
    3.5586   -2.1909   -5.5470 C   0  0  0  0  0  0  0  0  0  0  0  0
    3.0682   -2.8607   -7.0628 Cl  0  0  0  0  0  0  0  0  0  0  0  0
    4.0540   -3.2260   -4.2369 S   0  0  0  0  0  0  0  0  0  0  0  0
    6.4437   -2.1232   -1.8642 C   0  0  1  0  0  0  0  0  0  0  0  0
    7.4534   -1.0104   -2.0878 C   0  0  1  0  0  0  0  0  0  0  0  0
    8.5171   -1.2186   -3.1593 C   0  0  0  0  0  0  0  0  0  0  0  0
    7.0347    0.4534   -2.0094 C   0  0  0  0  0  0  0  0  0  0  0  0
    7.4995   -1.8455   -0.7971 C   0  0  1  0  0  0  0  0  0  0  0  0
    7.1996   -1.1795    0.5421 C   0  0  0  0  0  0  0  0  0  0  0  0
    8.5779   -2.9095   -0.6166 C   0  0  0  0  0  0  0  0  0  0  0  0
    0.6548    0.5039    1.4487 H   0  0  0  0  0  0  0  0  0  0  0  0
    0.7288   -1.2513    1.1761 H   0  0  0  0  0  0  0  0  0  0  0  0
    0.3475   -0.1581   -0.1724 H   0  0  0  0  0  0  0  0  0  0  0  0
    3.0480   -0.2350    1.3330 H   0  0  0  0  0  0  0  0  0  0  0  0
    2.6791    0.8437   -0.0142 H   0  0  0  0  0  0  0  0  0  0  0  0
    2.3659   -1.1180   -1.5304 H   0  0  0  0  0  0  0  0  0  0  0  0
    2.7056   -2.2263   -0.1942 H   0  0  0  0  0  0  0  0  0  0  0  0
    4.8793   -1.0780   -0.0231 H   0  0  0  0  0  0  0  0  0  0  0  0
    4.5865   -3.0751   -1.4833 H   0  0  0  0  0  0  0  0  0  0  0  0
    4.1718    0.2959   -3.3821 H   0  0  0  0  0  0  0  0  0  0  0  0
    3.3299   -0.0615   -5.8821 H   0  0  0  0  0  0  0  0  0  0  0  0
    6.6965   -3.0191   -2.4437 H   0  0  0  0  0  0  0  0  0  0  0  0
    8.1361   -0.8916   -4.1411 H   0  0  0  0  0  0  0  0  0  0  0  0
    8.8272   -2.2673   -3.2630 H   0  0  0  0  0  0  0  0  0  0  0  0
    9.4197   -0.6217   -2.9405 H   0  0  0  0  0  0  0  0  0  0  0  0
    6.7989    0.8276   -3.0189 H   0  0  0  0  0  0  0  0  0  0  0  0
    7.8591    1.0735   -1.6162 H   0  0  0  0  0  0  0  0  0  0  0  0
    6.1420    0.6133   -1.3941 H   0  0  0  0  0  0  0  0  0  0  0  0
    6.5706   -0.2840    0.4703 H   0  0  0  0  0  0  0  0  0  0  0  0
    8.1448   -0.8612    1.0140 H   0  0  0  0  0  0  0  0  0  0  0  0
    6.7207   -1.8870    1.2418 H   0  0  0  0  0  0  0  0  0  0  0  0
    8.7719   -3.4862   -1.5310 H   0  0  0  0  0  0  0  0  0  0  0  0
    8.2761   -3.6293    0.1639 H   0  0  0  0  0  0  0  0  0  0  0  0
    9.5320   -2.4578   -0.2939 H   0  0  0  0  0  0  0  0  0  0  0  0
  1  2  1  0
  1 19  1  0
  1 20  1  0
  1 21  1  0
  2  3  1  0
  2 22  1  0
  2 23  1  0
  3  4  1  0
  3 24  1  0
  3 25  1  0
  4  5  1  0
  4 26  1  0
  5  6  1  0
  5 12  1  0
  5 27  1  1
  6  7  2  0
  6 11  1  0
  7  8  1  0
  7 28  1  0
  8  9  2  0
  8 29  1  0
  9 10  1  0
  9 11  1  0
 12 13  1  0
 12 16  1  0
 12 30  1  6
 13 14  1  6
 13 15  1  0
 13 16  1  0
 14 31  1  0
 14 32  1  0
 14 33  1  0
 15 34  1  0
 15 35  1  0
 15 36  1  0
 16 17  1  1
 16 18  1  0
 17 37  1  0
 17 38  1  0
 17 39  1  0
 18 40  1  0
 18 41  1  0
 18 42  1  0
M  END

