
     RDKit          3D

 43 47  0  0  0  0  0  0  0  0999 V2000
    2.1131   -0.0611   -1.1967 C   0  0  0  0  0  0  0  0  0  0  0  0
    3.2319   -0.3265   -0.1765 C   0  0  1  0  0  0  0  0  0  0  0  0
    3.9459    1.0069    0.0878 C   0  0  0  0  0  0  0  0  0  0  0  0
    2.7244   -1.0494    1.1233 C   0  0  2  0  0  0  0  0  0  0  0  0
    1.9612   -0.5298    1.7183 H   0  0  0  0  0  0  0  0  0  0  0  0
    4.0563   -1.3533    1.8765 C   0  0  0  0  0  0  0  0  0  0  0  0
    5.0522   -1.6765    0.7234 C   0  0  0  0  0  0  0  0  0  0  0  0
    4.1993   -1.5196   -0.5832 C   0  0  2  0  0  0  0  0  0  0  0  0
    4.9989   -1.4187   -1.8692 C   0  0  0  0  0  0  0  0  0  0  0  0
    3.2187   -2.6759   -0.5093 C   0  0  0  0  0  0  0  0  0  0  0  0
    3.1768   -3.7686   -1.2142 N   0  0  0  0  0  0  0  0  0  0  0  0
    2.1628   -4.6378   -0.8794 C   0  0  0  0  0  0  0  0  0  0  0  0
    2.0305   -5.8507   -1.5923 C   0  0  0  0  0  0  0  0  0  0  0  0
    1.0244   -6.7669   -1.2940 C   0  0  0  0  0  0  0  0  0  0  0  0
    0.8850   -8.0315   -2.0292 C   0  0  0  0  0  0  0  0  0  0  0  0
    0.2319   -9.1872   -1.6430 C   0  0  0  0  0  0  0  0  0  0  0  0
    0.3017  -10.2316   -2.6091 C   0  0  0  0  0  0  0  0  0  0  0  0
    1.0043   -9.8674   -3.7306 C   0  0  0  0  0  0  0  0  0  0  0  0
    1.5850   -8.2440   -3.6193 S   0  0  0  0  0  0  0  0  0  0  0  0
    0.1151   -6.4525   -0.2391 C   0  0  0  0  0  0  0  0  0  0  0  0
    0.2249   -5.2801    0.4770 C   0  0  0  0  0  0  0  0  0  0  0  0
    1.2446   -4.3406    0.1830 C   0  0  0  0  0  0  0  0  0  0  0  0
    1.3295   -3.1780    0.9098 N   0  0  0  0  0  0  0  0  0  0  0  0
    2.2927   -2.3778    0.5526 C   0  0  0  0  0  0  0  0  0  0  0  0
    1.3995    0.6776   -0.7968 H   0  0  0  0  0  0  0  0  0  0  0  0
    1.5407   -0.9623   -1.4610 H   0  0  0  0  0  0  0  0  0  0  0  0
    2.5267    0.3545   -2.1295 H   0  0  0  0  0  0  0  0  0  0  0  0
    3.2334    1.7417    0.4973 H   0  0  0  0  0  0  0  0  0  0  0  0
    4.3392    1.4254   -0.8526 H   0  0  0  0  0  0  0  0  0  0  0  0
    4.7852    0.9349    0.7921 H   0  0  0  0  0  0  0  0  0  0  0  0
    3.9333   -2.1876    2.5823 H   0  0  0  0  0  0  0  0  0  0  0  0
    4.3784   -0.4803    2.4627 H   0  0  0  0  0  0  0  0  0  0  0  0
    5.4774   -2.6887    0.7944 H   0  0  0  0  0  0  0  0  0  0  0  0
    5.8997   -0.9745    0.7053 H   0  0  0  0  0  0  0  0  0  0  0  0
    5.7022   -0.5715   -1.8407 H   0  0  0  0  0  0  0  0  0  0  0  0
    4.3413   -1.2955   -2.7437 H   0  0  0  0  0  0  0  0  0  0  0  0
    5.5793   -2.3404   -2.0309 H   0  0  0  0  0  0  0  0  0  0  0  0
    2.7642   -6.0443   -2.3776 H   0  0  0  0  0  0  0  0  0  0  0  0
   -0.2655   -9.2944   -0.6784 H   0  0  0  0  0  0  0  0  0  0  0  0
   -0.1484  -11.2165   -2.4746 H   0  0  0  0  0  0  0  0  0  0  0  0
    1.2109  -10.4609   -4.6201 H   0  0  0  0  0  0  0  0  0  0  0  0
   -0.6948   -7.1470   -0.0083 H   0  0  0  0  0  0  0  0  0  0  0  0
   -0.4727   -5.0358    1.2810 H   0  0  0  0  0  0  0  0  0  0  0  0
  2  1  1  6
  1 25  1  0
  1 26  1  0
  1 27  1  0
  2  3  1  0
  2  4  1  0
  2  8  1  0
  3 28  1  0
  3 29  1  0
  3 30  1  0
  4  5  1  1
  4  6  1  0
  4 24  1  0
  6  7  1  0
  6 31  1  0
  6 32  1  0
  7  8  1  0
  7 33  1  0
  7 34  1  0
  8  9  1  6
  8 10  1  0
  9 35  1  0
  9 36  1  0
  9 37  1  0
 10 11  1  0
 10 24  2  0
 11 12  2  0
 12 13  1  0
 12 22  1  0
 13 14  2  0
 13 38  1  0
 14 15  1  0
 14 20  1  0
 15 16  2  0
 15 19  1  0
 16 17  1  0
 16 39  1  0
 17 18  2  0
 17 40  1  0
 18 19  1  0
 18 41  1  0
 20 21  2  0
 20 42  1  0
 21 22  1  0
 21 43  1  0
 22 23  2  0
 23 24  1  0
M  END

