
     RDKit          3D

 39 41  0  0  0  0  0  0  0  0999 V2000
    1.5282    1.6443    0.3470 N   0  0  0  0  0  0  0  0  0  0  0  0
    2.7345    0.9724    0.2198 C   0  0  0  0  0  0  0  0  0  0  0  0
    3.9354    1.6801   -0.0054 C   0  0  0  0  0  0  0  0  0  0  0  0
    5.1426    0.9995   -0.0870 C   0  0  0  0  0  0  0  0  0  0  0  0
    5.2155   -0.3978    0.0581 C   0  0  0  0  0  0  0  0  0  0  0  0
    4.0242   -1.1160    0.2797 C   0  0  0  0  0  0  0  0  0  0  0  0
    2.8069   -0.4240    0.3555 C   0  0  0  0  0  0  0  0  0  0  0  0
    4.0358   -2.6214    0.4776 C   0  0  0  0  0  0  0  0  0  0  0  0
    5.3147   -3.2907   -0.0316 C   0  0  0  0  0  0  0  0  0  0  0  0
    6.5422   -2.5288    0.4679 C   0  0  0  0  0  0  0  0  0  0  0  0
    6.5648   -1.0917   -0.0747 C   0  0  1  0  0  0  0  0  0  0  0  0
    7.0228   -1.0664   -1.4836 N   0  0  0  0  0  0  0  0  0  0  0  0
    8.2899   -0.1232   -2.0023 S   0  0  1  0  0  0  0  0  0  0  0  0
    7.9767    0.2979   -3.3659 O   0  0  0  0  0  0  0  0  0  0  0  0
    8.6133    0.8586   -0.9575 O   0  0  0  0  0  0  0  0  0  0  0  0
    9.7153   -1.2428   -2.0707 C   0  0  0  0  0  0  0  0  0  0  0  0
   10.8136   -0.9063   -1.2693 C   0  0  0  0  0  0  0  0  0  0  0  0
   11.9710   -1.6859   -1.2875 C   0  0  0  0  0  0  0  0  0  0  0  0
   12.0353   -2.8097   -2.1138 C   0  0  0  0  0  0  0  0  0  0  0  0
   10.9469   -3.1525   -2.9196 C   0  0  0  0  0  0  0  0  0  0  0  0
    9.7870   -2.3709   -2.9051 C   0  0  0  0  0  0  0  0  0  0  0  0
    8.3557   -2.9147   -4.0377 Br  0  0  0  0  0  0  0  0  0  0  0  0
    1.4791    2.5701   -0.0617 H   0  0  0  0  0  0  0  0  0  0  0  0
    0.6858    1.0996    0.2053 H   0  0  0  0  0  0  0  0  0  0  0  0
    3.9110    2.7680   -0.1149 H   0  0  0  0  0  0  0  0  0  0  0  0
    6.0642    1.5575   -0.2765 H   0  0  0  0  0  0  0  0  0  0  0  0
    1.8854   -0.9898    0.5282 H   0  0  0  0  0  0  0  0  0  0  0  0
    3.1452   -3.0651    0.0020 H   0  0  0  0  0  0  0  0  0  0  0  0
    3.9308   -2.8297    1.5595 H   0  0  0  0  0  0  0  0  0  0  0  0
    5.3224   -3.3094   -1.1363 H   0  0  0  0  0  0  0  0  0  0  0  0
    5.3479   -4.3425    0.2954 H   0  0  0  0  0  0  0  0  0  0  0  0
    7.4753   -3.0360    0.1784 H   0  0  0  0  0  0  0  0  0  0  0  0
    6.5226   -2.4866    1.5718 H   0  0  0  0  0  0  0  0  0  0  0  0
    7.3140   -0.5115    0.4834 H   0  0  0  0  0  0  0  0  0  0  0  0
    6.3149   -1.1282   -2.2117 H   0  0  0  0  0  0  0  0  0  0  0  0
   10.7368   -0.0215   -0.6360 H   0  0  0  0  0  0  0  0  0  0  0  0
   12.8200   -1.4118   -0.6574 H   0  0  0  0  0  0  0  0  0  0  0  0
   12.9357   -3.4284   -2.1375 H   0  0  0  0  0  0  0  0  0  0  0  0
   10.9912   -4.0291   -3.5680 H   0  0  0  0  0  0  0  0  0  0  0  0
  1  2  1  0
  1 23  1  0
  1 24  1  0
  2  3  2  0
  2  7  1  0
  3  4  1  0
  3 25  1  0
  4  5  2  0
  4 26  1  0
  5  6  1  0
  5 11  1  0
  6  7  2  0
  6  8  1  0
  7 27  1  0
  8  9  1  0
  8 28  1  0
  8 29  1  0
  9 10  1  0
  9 30  1  0
  9 31  1  0
 10 11  1  0
 10 32  1  0
 10 33  1  0
 11 12  1  0
 11 34  1  1
 13 12  1  1
 12 35  1  0
 13 14  2  0
 13 15  2  0
 13 16  1  0
 16 17  2  0
 16 21  1  0
 17 18  1  0
 17 36  1  0
 18 19  2  0
 18 37  1  0
 19 20  1  0
 19 38  1  0
 20 21  2  0
 20 39  1  0
 21 22  1  0
M  END

