
     RDKit          3D

 31 31  0  0  0  0  0  0  0  0999 V2000
    3.9305    1.2208   -3.7235 C   0  0  0  0  0  0  0  0  0  0  0  0
    3.9856    2.0549   -2.4488 C   0  0  0  0  0  0  0  0  0  0  0  0
    4.1907    1.2271   -1.1921 C   0  0  0  0  0  0  0  0  0  0  0  0
    4.3438    0.0262   -1.2192 O   0  0  0  0  0  0  0  0  0  0  0  0
    4.1465    1.9541    0.1676 C   0  0  0  0  0  0  0  0  0  0  0  0
    4.5832    3.3310    0.1844 N   0  0  0  0  0  0  0  0  0  0  0  0
    3.6728    4.4437    0.4602 C   0  0  0  0  0  0  0  0  0  0  0  0
    2.1955    4.0914    0.5894 C   0  0  0  0  0  0  0  0  0  0  0  0
    5.9500    3.6041    0.0889 C   0  0  0  0  0  0  0  0  0  0  0  0
    6.8976    2.5692   -0.1151 C   0  0  0  0  0  0  0  0  0  0  0  0
    8.2624    2.8424   -0.2129 C   0  0  0  0  0  0  0  0  0  0  0  0
    8.7159    4.1532   -0.1096 C   0  0  0  0  0  0  0  0  0  0  0  0
   10.0323    4.4149   -0.2052 F   0  0  0  0  0  0  0  0  0  0  0  0
    7.8171    5.1947    0.0901 C   0  0  0  0  0  0  0  0  0  0  0  0
    6.4509    4.9258    0.1892 C   0  0  0  0  0  0  0  0  0  0  0  0
    3.7942    1.8627   -4.6071 H   0  0  0  0  0  0  0  0  0  0  0  0
    3.1029    0.4961   -3.6896 H   0  0  0  0  0  0  0  0  0  0  0  0
    4.8582    0.6442   -3.8537 H   0  0  0  0  0  0  0  0  0  0  0  0
    3.0660    2.6543   -2.3134 H   0  0  0  0  0  0  0  0  0  0  0  0
    4.7991    2.8008   -2.4886 H   0  0  0  0  0  0  0  0  0  0  0  0
    4.7071    1.3244    0.8812 H   0  0  0  0  0  0  0  0  0  0  0  0
    3.0968    1.8981    0.4876 H   0  0  0  0  0  0  0  0  0  0  0  0
    3.7769    5.1961   -0.3442 H   0  0  0  0  0  0  0  0  0  0  0  0
    3.9885    4.9554    1.3905 H   0  0  0  0  0  0  0  0  0  0  0  0
    1.7906    3.6209   -0.3203 H   0  0  0  0  0  0  0  0  0  0  0  0
    1.6298    5.0211    0.7554 H   0  0  0  0  0  0  0  0  0  0  0  0
    1.9889    3.4302    1.4451 H   0  0  0  0  0  0  0  0  0  0  0  0
    6.5818    1.5308   -0.2043 H   0  0  0  0  0  0  0  0  0  0  0  0
    8.9815    2.0359   -0.3708 H   0  0  0  0  0  0  0  0  0  0  0  0
    8.1912    6.2177    0.1698 H   0  0  0  0  0  0  0  0  0  0  0  0
    5.7783    5.7663    0.3478 H   0  0  0  0  0  0  0  0  0  0  0  0
  1  2  1  0
  1 16  1  0
  1 17  1  0
  1 18  1  0
  2  3  1  0
  2 19  1  0
  2 20  1  0
  3  4  2  0
  3  5  1  0
  5  6  1  0
  5 21  1  0
  5 22  1  0
  6  7  1  0
  6  9  1  0
  7  8  1  0
  7 23  1  0
  7 24  1  0
  8 25  1  0
  8 26  1  0
  8 27  1  0
  9 10  2  0
  9 15  1  0
 10 11  1  0
 10 28  1  0
 11 12  2  0
 11 29  1  0
 12 13  1  0
 12 14  1  0
 14 15  2  0
 14 30  1  0
 15 31  1  0
M  END

