
     RDKit          3D

 26 26  0  0  0  0  0  0  0  0999 V2000
    1.9641    0.2493    0.4331 C   0  0  0  0  0  0  0  0  0  0  0  0
    2.0204    0.4122    1.7603 C   0  0  0  0  0  0  0  0  0  0  0  0
    2.4473   -0.6718    2.7035 C   0  0  0  0  0  0  0  0  0  0  0  0
    2.5350   -0.5278    3.8975 O   0  0  0  0  0  0  0  0  0  0  0  0
    2.7235   -1.8191    2.0557 O   0  0  0  0  0  0  0  0  0  0  0  0
    3.1699   -2.9374    2.8400 C   0  0  0  0  0  0  0  0  0  0  0  0
    1.9946   -3.7721    3.3412 C   0  0  1  0  0  0  0  0  0  0  0  0
    1.1015   -4.3884    2.2567 C   0  0  0  0  0  0  0  0  0  0  0  0
    0.6115   -5.6654    2.9506 C   0  0  0  0  0  0  0  0  0  0  0  0
    1.8512   -6.0803    3.7508 C   0  0  0  0  0  0  0  0  0  0  0  0
    2.5423   -4.8724    4.0638 O   0  0  0  0  0  0  0  0  0  0  0  0
    1.6513    1.7344    2.4050 C   0  0  1  0  0  0  0  0  0  0  0  0
    2.6844    2.2642    3.0720 F   0  0  0  0  0  0  0  0  0  0  0  0
    1.2704    2.6351    1.4791 F   0  0  0  0  0  0  0  0  0  0  0  0
    0.6321    1.5936    3.2636 F   0  0  0  0  0  0  0  0  0  0  0  0
    2.2333   -0.7079   -0.0152 H   0  0  0  0  0  0  0  0  0  0  0  0
    1.6508    1.0650   -0.2209 H   0  0  0  0  0  0  0  0  0  0  0  0
    3.7671   -2.5825    3.6910 H   0  0  0  0  0  0  0  0  0  0  0  0
    3.7995   -3.5407    2.1708 H   0  0  0  0  0  0  0  0  0  0  0  0
    1.3880   -3.1474    4.0260 H   0  0  0  0  0  0  0  0  0  0  0  0
    1.7037   -4.6400    1.3663 H   0  0  0  0  0  0  0  0  0  0  0  0
    0.2907   -3.7182    1.9372 H   0  0  0  0  0  0  0  0  0  0  0  0
    0.2713   -6.4433    2.2507 H   0  0  0  0  0  0  0  0  0  0  0  0
   -0.2254   -5.4334    3.6295 H   0  0  0  0  0  0  0  0  0  0  0  0
    2.5102   -6.7419    3.1560 H   0  0  0  0  0  0  0  0  0  0  0  0
    1.6046   -6.6083    4.6871 H   0  0  0  0  0  0  0  0  0  0  0  0
  1  2  2  0
  1 16  1  0
  1 17  1  0
  2  3  1  0
  2 12  1  0
  3  4  2  0
  3  5  1  0
  5  6  1  0
  6  7  1  0
  6 18  1  0
  6 19  1  0
  7  8  1  0
  7 11  1  0
  7 20  1  1
  8  9  1  0
  8 21  1  0
  8 22  1  0
  9 10  1  0
  9 23  1  0
  9 24  1  0
 10 11  1  0
 10 25  1  0
 10 26  1  0
 12 13  1  1
 12 14  1  0
 12 15  1  0
M  END

