
     RDKit          3D

 48 49  0  0  0  0  0  0  0  0999 V2000
    1.2069    1.6034    1.8920 C   0  0  0  0  0  0  0  0  0  0  0  0
    2.6424    1.0954    2.0351 C   0  0  0  0  0  0  0  0  0  0  0  0
    2.9113   -0.1548    1.1915 C   0  0  0  0  0  0  0  0  0  0  0  0
    4.2943   -0.6104    1.2203 N   0  0  0  0  0  0  0  0  0  0  0  0
    4.6879   -1.2268    2.4823 C   0  0  0  0  0  0  0  0  0  0  0  0
    6.1968   -1.4768    2.5244 C   0  0  0  0  0  0  0  0  0  0  0  0
    6.7492   -2.3082    1.3397 C   0  0  1  0  0  0  0  0  0  0  0  0
    6.1406   -1.7571    0.0355 C   0  0  0  0  0  0  0  0  0  0  0  0
    4.6393   -1.4523    0.0816 C   0  0  0  0  0  0  0  0  0  0  0  0
    8.3148   -2.2438    1.3021 C   0  0  0  0  0  0  0  0  0  0  0  0
    8.8203   -3.4662    1.9036 N   0  0  0  0  0  0  0  0  0  0  0  0
    7.8186   -4.2706    1.9504 C   0  0  0  0  0  0  0  0  0  0  0  0
    7.9249   -5.5994    2.3194 N   0  0  0  0  0  0  0  0  0  0  0  0
    6.5872   -3.7719    1.5439 N   0  0  0  0  0  0  0  0  0  0  0  0
    5.3833   -4.5737    1.4539 C   0  0  0  0  0  0  0  0  0  0  0  0
    5.3462   -5.4906    0.2166 C   0  0  0  0  0  0  0  0  0  0  0  0
    4.2105   -6.3997    0.2224 N   0  0  0  0  0  0  0  0  0  0  0  0
    2.9450   -5.7558   -0.0743 C   0  0  0  0  0  0  0  0  0  0  0  0
    4.4223   -7.5745   -0.6020 C   0  0  0  0  0  0  0  0  0  0  0  0
    1.0355    2.5004    2.5075 H   0  0  0  0  0  0  0  0  0  0  0  0
    0.4749    0.8407    2.2072 H   0  0  0  0  0  0  0  0  0  0  0  0
    0.9754    1.8693    0.8467 H   0  0  0  0  0  0  0  0  0  0  0  0
    2.8478    0.8889    3.0992 H   0  0  0  0  0  0  0  0  0  0  0  0
    3.3595    1.8762    1.7293 H   0  0  0  0  0  0  0  0  0  0  0  0
    2.6619    0.0798    0.1424 H   0  0  0  0  0  0  0  0  0  0  0  0
    2.2059   -0.9662    1.4962 H   0  0  0  0  0  0  0  0  0  0  0  0
    4.1227   -2.1710    2.6673 H   0  0  0  0  0  0  0  0  0  0  0  0
    4.4205   -0.5517    3.3093 H   0  0  0  0  0  0  0  0  0  0  0  0
    6.4837   -1.9558    3.4746 H   0  0  0  0  0  0  0  0  0  0  0  0
    6.6915   -0.4915    2.4947 H   0  0  0  0  0  0  0  0  0  0  0  0
    6.3645   -2.4417   -0.7981 H   0  0  0  0  0  0  0  0  0  0  0  0
    6.6609   -0.8079   -0.1793 H   0  0  0  0  0  0  0  0  0  0  0  0
    4.0463   -2.3967    0.0746 H   0  0  0  0  0  0  0  0  0  0  0  0
    4.3595   -0.9190   -0.8420 H   0  0  0  0  0  0  0  0  0  0  0  0
    8.6847   -1.3490    1.8305 H   0  0  0  0  0  0  0  0  0  0  0  0
    8.6678   -2.1581    0.2540 H   0  0  0  0  0  0  0  0  0  0  0  0
    8.8387   -5.8081    2.7089 H   0  0  0  0  0  0  0  0  0  0  0  0
    7.1618   -5.9799    2.8702 H   0  0  0  0  0  0  0  0  0  0  0  0
    4.5158   -3.9047    1.4610 H   0  0  0  0  0  0  0  0  0  0  0  0
    5.2610   -5.2136    2.3484 H   0  0  0  0  0  0  0  0  0  0  0  0
    6.2687   -6.0901    0.2272 H   0  0  0  0  0  0  0  0  0  0  0  0
    5.3848   -4.8644   -0.7055 H   0  0  0  0  0  0  0  0  0  0  0  0
    2.7518   -4.9238    0.6196 H   0  0  0  0  0  0  0  0  0  0  0  0
    2.1187   -6.4753    0.0414 H   0  0  0  0  0  0  0  0  0  0  0  0
    2.8943   -5.3473   -1.1114 H   0  0  0  0  0  0  0  0  0  0  0  0
    5.3433   -8.0950   -0.2959 H   0  0  0  0  0  0  0  0  0  0  0  0
    4.5099   -7.3433   -1.6895 H   0  0  0  0  0  0  0  0  0  0  0  0
    3.5818   -8.2772   -0.4810 H   0  0  0  0  0  0  0  0  0  0  0  0
  1  2  1  0
  1 20  1  0
  1 21  1  0
  1 22  1  0
  2  3  1  0
  2 23  1  0
  2 24  1  0
  3  4  1  0
  3 25  1  0
  3 26  1  0
  4  5  1  0
  4  9  1  0
  5  6  1  0
  5 27  1  0
  5 28  1  0
  6  7  1  0
  6 29  1  0
  6 30  1  0
  7  8  1  0
  7 10  1  0
  7 14  1  1
  8  9  1  0
  8 31  1  0
  8 32  1  0
  9 33  1  0
  9 34  1  0
 10 11  1  0
 10 35  1  0
 10 36  1  0
 11 12  2  0
 12 13  1  0
 12 14  1  0
 13 37  1  0
 13 38  1  0
 14 15  1  0
 15 16  1  0
 15 39  1  0
 15 40  1  0
 16 17  1  0
 16 41  1  0
 16 42  1  0
 17 18  1  0
 17 19  1  0
 18 43  1  0
 18 44  1  0
 18 45  1  0
 19 46  1  0
 19 47  1  0
 19 48  1  0
M  END

