
     RDKit          3D

 38 39  0  0  0  0  0  0  0  0999 V2000
    2.7992    2.9091   -3.5313 C   0  0  0  0  0  0  0  0  0  0  0  0
    2.8127    1.5537   -3.9166 O   0  0  0  0  0  0  0  0  0  0  0  0
    3.4303    0.6435   -3.1189 C   0  0  0  0  0  0  0  0  0  0  0  0
    4.0742    0.9508   -1.9108 C   0  0  0  0  0  0  0  0  0  0  0  0
    4.6728   -0.0848   -1.1841 C   0  0  0  0  0  0  0  0  0  0  0  0
    4.6509   -1.4082   -1.6194 C   0  0  0  0  0  0  0  0  0  0  0  0
    4.0022   -1.7080   -2.8337 C   0  0  0  0  0  0  0  0  0  0  0  0
    3.9247   -3.0110   -3.3598 N   0  0  0  0  0  0  0  0  0  0  0  0
    4.4190   -4.1768   -2.8512 C   0  0  0  0  0  0  0  0  0  0  0  0
    5.0394   -4.3113   -1.8127 O   0  0  0  0  0  0  0  0  0  0  0  0
    4.1373   -5.4123   -3.7115 C   0  0  0  0  0  0  0  0  0  0  0  0
    3.4118   -5.0778   -4.8754 O   0  0  0  0  0  0  0  0  0  0  0  0
    3.0687   -6.0536   -5.7698 C   0  0  0  0  0  0  0  0  0  0  0  0
    3.3910   -7.4045   -5.6102 C   0  0  0  0  0  0  0  0  0  0  0  0
    2.9815   -8.3118   -6.6001 C   0  0  0  0  0  0  0  0  0  0  0  0
    2.2722   -7.8972   -7.7188 C   0  0  0  0  0  0  0  0  0  0  0  0
    1.9530   -6.5328   -7.8692 C   0  0  0  0  0  0  0  0  0  0  0  0
    1.2594   -6.2030   -8.9861 O   0  0  0  0  0  0  0  0  0  0  0  0
    0.9028   -4.8576   -9.2089 C   0  0  0  0  0  0  0  0  0  0  0  0
    2.3510   -5.6114   -6.8954 C   0  0  0  0  0  0  0  0  0  0  0  0
    3.3981   -0.6826   -3.5727 C   0  0  0  0  0  0  0  0  0  0  0  0
    2.2534    3.4522   -4.3149 H   0  0  0  0  0  0  0  0  0  0  0  0
    3.8196    3.3262   -3.4532 H   0  0  0  0  0  0  0  0  0  0  0  0
    2.2813    3.0589   -2.5666 H   0  0  0  0  0  0  0  0  0  0  0  0
    4.1150    1.9721   -1.5333 H   0  0  0  0  0  0  0  0  0  0  0  0
    5.1750    0.1526   -0.2424 H   0  0  0  0  0  0  0  0  0  0  0  0
    5.1188   -2.2055   -1.0478 H   0  0  0  0  0  0  0  0  0  0  0  0
    3.4350   -3.1148   -4.2434 H   0  0  0  0  0  0  0  0  0  0  0  0
    3.5838   -6.1308   -3.0805 H   0  0  0  0  0  0  0  0  0  0  0  0
    5.1128   -5.8685   -3.9583 H   0  0  0  0  0  0  0  0  0  0  0  0
    3.9464   -7.7607   -4.7437 H   0  0  0  0  0  0  0  0  0  0  0  0
    3.2292   -9.3700   -6.4834 H   0  0  0  0  0  0  0  0  0  0  0  0
    1.9513   -8.5975   -8.4914 H   0  0  0  0  0  0  0  0  0  0  0  0
    0.3550   -4.8321  -10.1605 H   0  0  0  0  0  0  0  0  0  0  0  0
    1.7906   -4.2046   -9.2900 H   0  0  0  0  0  0  0  0  0  0  0  0
    0.2475   -4.4677   -8.4090 H   0  0  0  0  0  0  0  0  0  0  0  0
    2.1248   -4.5491   -6.9738 H   0  0  0  0  0  0  0  0  0  0  0  0
    2.8892   -0.8906   -4.5169 H   0  0  0  0  0  0  0  0  0  0  0  0
  1  2  1  0
  1 22  1  0
  1 23  1  0
  1 24  1  0
  2  3  1  0
  3  4  2  0
  3 21  1  0
  4  5  1  0
  4 25  1  0
  5  6  2  0
  5 26  1  0
  6  7  1  0
  6 27  1  0
  7  8  1  0
  7 21  2  0
  8  9  1  0
  8 28  1  0
  9 10  2  0
  9 11  1  0
 11 12  1  0
 11 29  1  0
 11 30  1  0
 12 13  1  0
 13 14  2  0
 13 20  1  0
 14 15  1  0
 14 31  1  0
 15 16  2  0
 15 32  1  0
 16 17  1  0
 16 33  1  0
 17 18  1  0
 17 20  2  0
 18 19  1  0
 19 34  1  0
 19 35  1  0
 19 36  1  0
 20 37  1  0
 21 38  1  0
M  END

