
     RDKit          3D

 42 43  0  0  0  0  0  0  0  0999 V2000
    1.1743   -1.7308   -0.1176 C   0  0  0  0  0  0  0  0  0  0  0  0
    2.5252   -2.0298   -0.7523 C   0  0  0  0  0  0  0  0  0  0  0  0
    2.6152   -2.6706   -1.7824 O   0  0  0  0  0  0  0  0  0  0  0  0
    3.6055   -1.5194   -0.0637 N   0  0  0  0  0  0  0  0  0  0  0  0
    4.9770   -1.6149   -0.3697 C   0  0  0  0  0  0  0  0  0  0  0  0
    5.4788   -2.2875   -1.4977 C   0  0  0  0  0  0  0  0  0  0  0  0
    6.8520   -2.3422   -1.7405 C   0  0  0  0  0  0  0  0  0  0  0  0
    7.7590   -1.7275   -0.8620 C   0  0  0  0  0  0  0  0  0  0  0  0
    9.1580   -1.7451   -1.0498 N   0  0  0  0  0  0  0  0  0  0  0  0
    9.8879   -2.3472   -2.0338 C   0  0  0  0  0  0  0  0  0  0  0  0
    9.4452   -2.9916   -2.9681 O   0  0  0  0  0  0  0  0  0  0  0  0
   11.4069   -2.0993   -1.9250 C   0  0  1  0  0  0  0  0  0  0  0  0
   11.8961   -2.9868   -2.3545 H   0  0  0  0  0  0  0  0  0  0  0  0
   11.8214   -0.8575   -2.7051 C   0  0  0  0  0  0  0  0  0  0  0  0
   11.8316   -1.9063   -0.5699 O   0  0  0  0  0  0  0  0  0  0  0  0
   12.0162   -2.9572    0.2515 C   0  0  0  0  0  0  0  0  0  0  0  0
   11.6522   -4.2721   -0.0838 C   0  0  0  0  0  0  0  0  0  0  0  0
   11.8454   -5.2984    0.8379 C   0  0  0  0  0  0  0  0  0  0  0  0
   11.4947   -6.5354    0.4850 F   0  0  0  0  0  0  0  0  0  0  0  0
   12.3751   -5.0797    2.1084 C   0  0  0  0  0  0  0  0  0  0  0  0
   12.7191   -3.7765    2.4510 C   0  0  0  0  0  0  0  0  0  0  0  0
   12.5612   -2.7283    1.5408 C   0  0  0  0  0  0  0  0  0  0  0  0
   12.9892   -1.3906    1.9821 N   0  0  0  0  0  0  0  0  0  0  0  0
   13.3660   -0.5946    1.1402 O   0  0  0  0  0  0  0  0  0  0  0  0
   12.9595   -1.1731    3.1860 O   0  0  0  0  0  0  0  0  0  0  0  0
    7.2576   -1.0558    0.2655 C   0  0  0  0  0  0  0  0  0  0  0  0
    5.8894   -1.0002    0.5067 C   0  0  0  0  0  0  0  0  0  0  0  0
    0.5497   -1.2081   -0.8576 H   0  0  0  0  0  0  0  0  0  0  0  0
    1.2245   -1.1277    0.8009 H   0  0  0  0  0  0  0  0  0  0  0  0
    0.6752   -2.6858    0.1069 H   0  0  0  0  0  0  0  0  0  0  0  0
    3.3924   -1.0036    0.7811 H   0  0  0  0  0  0  0  0  0  0  0  0
    4.7816   -2.7658   -2.1815 H   0  0  0  0  0  0  0  0  0  0  0  0
    7.2300   -2.8653   -2.6162 H   0  0  0  0  0  0  0  0  0  0  0  0
    9.7043   -1.2582   -0.3458 H   0  0  0  0  0  0  0  0  0  0  0  0
   11.5073   -0.9626   -3.7534 H   0  0  0  0  0  0  0  0  0  0  0  0
   12.9131   -0.7336   -2.6639 H   0  0  0  0  0  0  0  0  0  0  0  0
   11.3519    0.0433   -2.2823 H   0  0  0  0  0  0  0  0  0  0  0  0
   11.1961   -4.5201   -1.0413 H   0  0  0  0  0  0  0  0  0  0  0  0
   12.5042   -5.9137    2.7989 H   0  0  0  0  0  0  0  0  0  0  0  0
   13.1235   -3.5394    3.4349 H   0  0  0  0  0  0  0  0  0  0  0  0
    7.9457   -0.5699    0.9635 H   0  0  0  0  0  0  0  0  0  0  0  0
    5.5244   -0.4703    1.3916 H   0  0  0  0  0  0  0  0  0  0  0  0
  1  2  1  0
  1 28  1  0
  1 29  1  0
  1 30  1  0
  2  3  2  0
  2  4  1  0
  4  5  1  0
  4 31  1  0
  5  6  2  0
  5 27  1  0
  6  7  1  0
  6 32  1  0
  7  8  2  0
  7 33  1  0
  8  9  1  0
  8 26  1  0
  9 10  1  0
  9 34  1  0
 10 11  2  0
 10 12  1  0
 12 13  1  6
 12 14  1  0
 12 15  1  0
 14 35  1  0
 14 36  1  0
 14 37  1  0
 15 16  1  0
 16 17  2  0
 16 22  1  0
 17 18  1  0
 17 38  1  0
 18 19  1  0
 18 20  2  0
 20 21  1  0
 20 39  1  0
 21 22  2  0
 21 40  1  0
 22 23  1  0
 23 24  2  0
 23 25  1  0
 26 27  2  0
 26 41  1  0
 27 42  1  0
M  CHG  2  23   1  25  -1
M  END

