
     RDKit          3D

 26 27  0  0  0  0  0  0  0  0999 V2000
    1.0401   -0.4743    0.0744 C   0  0  0  0  0  0  0  0  0  0  0  0
    2.4901   -0.0944    0.0854 C   0  0  0  0  0  0  0  0  0  0  0  0
    2.9977    1.1743    0.2042 C   0  0  0  0  0  0  0  0  0  0  0  0
    4.7313    1.1425    0.1545 S   0  0  0  0  0  0  0  0  0  0  0  0
    4.6572   -0.5969   -0.0135 C   0  0  0  0  0  0  0  0  0  0  0  0
    5.8943   -1.4544   -0.0895 C   0  0  0  0  0  0  0  0  0  0  0  0
    5.5323   -2.7532   -0.6175 N   0  0  0  0  0  0  0  0  0  0  0  0
    6.3370   -3.8699   -0.5423 C   0  0  0  0  0  0  0  0  0  0  0  0
    7.7451   -3.8621   -0.4923 C   0  0  0  0  0  0  0  0  0  0  0  0
    8.3836   -2.6698   -0.4972 F   0  0  0  0  0  0  0  0  0  0  0  0
    8.5081   -5.0246   -0.4492 C   0  0  0  0  0  0  0  0  0  0  0  0
    7.8783   -6.2707   -0.4683 C   0  0  0  0  0  0  0  0  0  0  0  0
    6.4814   -6.3339   -0.5268 C   0  0  0  0  0  0  0  0  0  0  0  0
    5.7518   -5.1556   -0.5575 C   0  0  0  0  0  0  0  0  0  0  0  0
    4.4035   -5.2025   -0.6047 F   0  0  0  0  0  0  0  0  0  0  0  0
    3.4509   -1.0775   -0.0342 N   0  0  0  0  0  0  0  0  0  0  0  0
    0.3925    0.4071    0.1820 H   0  0  0  0  0  0  0  0  0  0  0  0
    0.8171   -1.1759    0.8946 H   0  0  0  0  0  0  0  0  0  0  0  0
    0.7815   -0.9864   -0.8668 H   0  0  0  0  0  0  0  0  0  0  0  0
    2.4541    2.1113    0.3107 H   0  0  0  0  0  0  0  0  0  0  0  0
    6.3355   -1.5262    0.9268 H   0  0  0  0  0  0  0  0  0  0  0  0
    6.6548   -0.9587   -0.7140 H   0  0  0  0  0  0  0  0  0  0  0  0
    4.5347   -2.9402   -0.5456 H   0  0  0  0  0  0  0  0  0  0  0  0
    9.5946   -4.9269   -0.4105 H   0  0  0  0  0  0  0  0  0  0  0  0
    8.4703   -7.1872   -0.4397 H   0  0  0  0  0  0  0  0  0  0  0  0
    5.9434   -7.2835   -0.5416 H   0  0  0  0  0  0  0  0  0  0  0  0
  1  2  1  0
  1 17  1  0
  1 18  1  0
  1 19  1  0
  2  3  2  0
  2 16  1  0
  3  4  1  0
  3 20  1  0
  4  5  1  0
  5  6  1  0
  5 16  2  0
  6  7  1  0
  6 21  1  0
  6 22  1  0
  7  8  1  0
  7 23  1  0
  8  9  2  0
  8 14  1  0
  9 10  1  0
  9 11  1  0
 11 12  2  0
 11 24  1  0
 12 13  1  0
 12 25  1  0
 13 14  2  0
 13 26  1  0
 14 15  1  0
M  END

