
     RDKit          3D

 45 45  0  0  0  0  0  0  0  0999 V2000
    2.1207    3.5361    1.6117 C   0  0  0  0  0  0  0  0  0  0  0  0
    3.2557    3.6580    0.8000 O   0  0  0  0  0  0  0  0  0  0  0  0
    2.9673    3.9321   -0.5493 C   0  0  0  0  0  0  0  0  0  0  0  0
    4.2641    3.9893   -1.3469 C   0  0  0  0  0  0  0  0  0  0  0  0
    4.8942    2.6861   -1.5409 N   0  0  0  0  0  0  0  0  0  0  0  0
    4.4358    2.0708   -2.7723 C   0  0  0  0  0  0  0  0  0  0  0  0
    6.3513    2.6801   -1.3107 C   0  0  1  0  0  0  0  0  0  0  0  0
    6.6779    2.9532    0.1738 C   0  0  0  0  0  0  0  0  0  0  0  0
    6.2707    1.7922    1.0910 C   0  0  0  0  0  0  0  0  0  0  0  0
    6.8999    0.4214    0.7215 C   0  0  2  0  0  0  0  0  0  0  0  0
    6.1979   -0.6773    1.5412 C   0  0  0  0  0  0  0  0  0  0  0  0
    8.4506    0.4211    0.9967 C   0  0  1  0  0  0  0  0  0  0  0  0
    8.8131    0.5519    2.4866 C   0  0  0  0  0  0  0  0  0  0  0  0
    9.1996   -0.7842    0.4027 C   0  0  0  0  0  0  0  0  0  0  0  0
    6.5866    0.1858   -0.7808 C   0  0  0  0  0  0  0  0  0  0  0  0
    7.0142    1.3427   -1.6940 C   0  0  0  0  0  0  0  0  0  0  0  0
    2.4588    3.3245    2.6368 H   0  0  0  0  0  0  0  0  0  0  0  0
    1.4589    2.7089    1.2819 H   0  0  0  0  0  0  0  0  0  0  0  0
    1.5160    4.4667    1.6256 H   0  0  0  0  0  0  0  0  0  0  0  0
    2.4376    4.9057   -0.6402 H   0  0  0  0  0  0  0  0  0  0  0  0
    2.2904    3.1581   -0.9687 H   0  0  0  0  0  0  0  0  0  0  0  0
    4.9451    4.6667   -0.8124 H   0  0  0  0  0  0  0  0  0  0  0  0
    4.0524    4.4818   -2.3208 H   0  0  0  0  0  0  0  0  0  0  0  0
    3.3391    2.1505   -2.8343 H   0  0  0  0  0  0  0  0  0  0  0  0
    4.6721    0.9984   -2.8102 H   0  0  0  0  0  0  0  0  0  0  0  0
    4.8517    2.5481   -3.6911 H   0  0  0  0  0  0  0  0  0  0  0  0
    6.8307    3.4757   -1.9290 H   0  0  0  0  0  0  0  0  0  0  0  0
    6.1777    3.8680    0.5242 H   0  0  0  0  0  0  0  0  0  0  0  0
    7.7599    3.1561    0.2490 H   0  0  0  0  0  0  0  0  0  0  0  0
    5.1748    1.6995    1.0345 H   0  0  0  0  0  0  0  0  0  0  0  0
    6.5002    2.0524    2.1370 H   0  0  0  0  0  0  0  0  0  0  0  0
    6.2886   -0.5038    2.6247 H   0  0  0  0  0  0  0  0  0  0  0  0
    6.6032   -1.6790    1.3247 H   0  0  0  0  0  0  0  0  0  0  0  0
    5.1221   -0.7002    1.3044 H   0  0  0  0  0  0  0  0  0  0  0  0
    8.8605    1.3166    0.4993 H   0  0  0  0  0  0  0  0  0  0  0  0
    8.5618   -0.3611    3.0505 H   0  0  0  0  0  0  0  0  0  0  0  0
    8.3057    1.3968    2.9754 H   0  0  0  0  0  0  0  0  0  0  0  0
    9.8975    0.7128    2.6007 H   0  0  0  0  0  0  0  0  0  0  0  0
    8.8190   -1.7408    0.7975 H   0  0  0  0  0  0  0  0  0  0  0  0
   10.2696   -0.7311    0.6622 H   0  0  0  0  0  0  0  0  0  0  0  0
    9.1365   -0.8269   -0.6947 H   0  0  0  0  0  0  0  0  0  0  0  0
    5.4959    0.0516   -0.8717 H   0  0  0  0  0  0  0  0  0  0  0  0
    7.0367   -0.7573   -1.1291 H   0  0  0  0  0  0  0  0  0  0  0  0
    6.8191    1.0907   -2.7477 H   0  0  0  0  0  0  0  0  0  0  0  0
    8.1048    1.4925   -1.6313 H   0  0  0  0  0  0  0  0  0  0  0  0
  1  2  1  0
  1 17  1  0
  1 18  1  0
  1 19  1  0
  2  3  1  0
  3  4  1  0
  3 20  1  0
  3 21  1  0
  4  5  1  0
  4 22  1  0
  4 23  1  0
  5  6  1  0
  5  7  1  0
  6 24  1  0
  6 25  1  0
  6 26  1  0
  7  8  1  0
  7 16  1  0
  7 27  1  6
  8  9  1  0
  8 28  1  0
  8 29  1  0
  9 10  1  0
  9 30  1  0
  9 31  1  0
 10 11  1  1
 10 12  1  0
 10 15  1  0
 11 32  1  0
 11 33  1  0
 11 34  1  0
 12 13  1  0
 12 14  1  0
 12 35  1  6
 13 36  1  0
 13 37  1  0
 13 38  1  0
 14 39  1  0
 14 40  1  0
 14 41  1  0
 15 16  1  0
 15 42  1  0
 15 43  1  0
 16 44  1  0
 16 45  1  0
M  END

