
     RDKit          3D

 38 39  0  0  0  0  0  0  0  0999 V2000
    0.8526   -0.1813   -0.2710 C   0  0  0  0  0  0  0  0  0  0  0  0
    2.2497   -0.1018   -0.2007 O   0  0  0  0  0  0  0  0  0  0  0  0
    2.9153   -1.0613   -0.9794 C   0  0  0  0  0  0  0  0  0  0  0  0
    4.4106   -0.8561   -0.8057 C   0  0  0  0  0  0  0  0  0  0  0  0
    5.0776   -1.8162   -1.5854 O   0  0  0  0  0  0  0  0  0  0  0  0
    6.4803   -1.7441   -1.5207 C   0  0  0  0  0  0  0  0  0  0  0  0
    7.0659   -2.8346   -2.4067 C   0  0  0  0  0  0  0  0  0  0  0  0
    8.5838   -2.8320   -2.3999 C   0  0  0  0  0  0  0  0  0  0  0  0
    9.0289   -3.8879   -3.2591 O   0  0  0  0  0  0  0  0  0  0  0  0
   10.3495   -4.0386   -3.3659 C   0  0  0  0  0  0  0  0  0  0  0  0
   11.2806   -3.3400   -2.7875 N   0  0  0  0  0  0  0  0  0  0  0  0
   12.4708   -3.9110   -3.2355 C   0  0  0  0  0  0  0  0  0  0  0  0
   13.8021   -3.5861   -2.9570 C   0  0  0  0  0  0  0  0  0  0  0  0
   14.8171   -4.3340   -3.5528 C   0  0  0  0  0  0  0  0  0  0  0  0
   14.5402   -5.4118   -4.4313 C   0  0  0  0  0  0  0  0  0  0  0  0
   15.5899   -6.1678   -4.9599 N   0  0  0  0  0  0  0  0  0  0  0  0
   13.2045   -5.7485   -4.7204 C   0  0  0  0  0  0  0  0  0  0  0  0
   12.2019   -4.9910   -4.1151 C   0  0  0  0  0  0  0  0  0  0  0  0
   10.8166   -5.0481   -4.1794 N   0  0  0  0  0  0  0  0  0  0  0  0
   10.2409   -5.6933   -4.7040 H   0  0  0  0  0  0  0  0  0  0  0  0
    0.4361    0.6090    0.3708 H   0  0  0  0  0  0  0  0  0  0  0  0
    0.4726   -1.1609    0.0851 H   0  0  0  0  0  0  0  0  0  0  0  0
    0.4782   -0.0295   -1.3043 H   0  0  0  0  0  0  0  0  0  0  0  0
    2.6531   -0.9668   -2.0539 H   0  0  0  0  0  0  0  0  0  0  0  0
    2.6470   -2.0934   -0.6710 H   0  0  0  0  0  0  0  0  0  0  0  0
    4.6732   -0.9517    0.2680 H   0  0  0  0  0  0  0  0  0  0  0  0
    4.6792    0.1752   -1.1144 H   0  0  0  0  0  0  0  0  0  0  0  0
    6.8280   -1.8683   -0.4726 H   0  0  0  0  0  0  0  0  0  0  0  0
    6.8338   -0.7441   -1.8526 H   0  0  0  0  0  0  0  0  0  0  0  0
    6.6990   -2.6958   -3.4369 H   0  0  0  0  0  0  0  0  0  0  0  0
    6.6949   -3.8141   -2.0634 H   0  0  0  0  0  0  0  0  0  0  0  0
    8.9940   -2.9938   -1.3886 H   0  0  0  0  0  0  0  0  0  0  0  0
    8.9978   -1.8752   -2.7612 H   0  0  0  0  0  0  0  0  0  0  0  0
   14.0371   -2.7584   -2.2846 H   0  0  0  0  0  0  0  0  0  0  0  0
   15.8614   -4.0909   -3.3371 H   0  0  0  0  0  0  0  0  0  0  0  0
   16.4830   -5.6893   -5.0075 H   0  0  0  0  0  0  0  0  0  0  0  0
   15.3820   -6.6565   -5.8242 H   0  0  0  0  0  0  0  0  0  0  0  0
   12.9721   -6.5798   -5.3911 H   0  0  0  0  0  0  0  0  0  0  0  0
  1  2  1  0
  1 21  1  0
  1 22  1  0
  1 23  1  0
  2  3  1  0
  3  4  1  0
  3 24  1  0
  3 25  1  0
  4  5  1  0
  4 26  1  0
  4 27  1  0
  5  6  1  0
  6  7  1  0
  6 28  1  0
  6 29  1  0
  7  8  1  0
  7 30  1  0
  7 31  1  0
  8  9  1  0
  8 32  1  0
  8 33  1  0
  9 10  1  0
 10 11  2  0
 10 19  1  0
 11 12  1  0
 12 13  2  0
 12 18  1  0
 13 14  1  0
 13 34  1  0
 14 15  2  0
 14 35  1  0
 15 16  1  0
 15 17  1  0
 16 36  1  0
 16 37  1  0
 17 18  2  0
 17 38  1  0
 18 19  1  0
 19 20  1  0
M  END

