
     RDKit          3D

 48 51  0  0  0  0  0  0  0  0999 V2000
   -3.6976    1.9126   -1.8931 O   0  0  0  0  0  0  0  0  0  0  0  0
   -2.6341    1.7200   -1.3675 C   0  0  0  0  0  0  0  0  0  0  0  0
   -2.0097    0.5023   -1.4231 O   0  0  0  0  0  0  0  0  0  0  0  0
   -2.6187   -0.5080   -2.1424 C   0  0  0  0  0  0  0  0  0  0  0  0
   -2.2382   -0.7502   -3.4705 C   0  0  0  0  0  0  0  0  0  0  0  0
   -0.9244    0.3386   -4.3008 Br  0  0  0  0  0  0  0  0  0  0  0  0
   -2.8233   -1.7871   -4.1999 C   0  0  0  0  0  0  0  0  0  0  0  0
   -3.8059   -2.5714   -3.5911 C   0  0  0  0  0  0  0  0  0  0  0  0
   -4.6183   -3.9789   -4.5815 Br  0  0  0  0  0  0  0  0  0  0  0  0
   -4.1982   -2.3378   -2.2739 C   0  0  0  0  0  0  0  0  0  0  0  0
   -3.5964   -1.3112   -1.5278 C   0  0  0  0  0  0  0  0  0  0  0  0
   -4.0667   -1.0788   -0.1313 C   0  0  0  0  0  0  0  0  0  0  0  0
   -3.3931   -1.0782    0.9593 N   0  0  0  0  0  0  0  0  0  0  0  0
   -2.0692   -1.3084    0.9451 N   0  0  0  0  0  0  0  0  0  0  0  0
   -1.3516   -1.3441    2.1235 C   0  0  0  0  0  0  0  0  0  0  0  0
   -1.8005   -1.1320    3.2250 O   0  0  0  0  0  0  0  0  0  0  0  0
    0.1526   -1.6307    1.9211 C   0  0  1  0  0  0  0  0  0  0  0  0
    0.6622   -0.6590    2.0287 H   0  0  0  0  0  0  0  0  0  0  0  0
    0.6764   -2.5915    2.9819 C   0  0  0  0  0  0  0  0  0  0  0  0
    0.1634   -3.8973    2.7766 O   0  0  0  0  0  0  0  0  0  0  0  0
    0.2786   -4.3492    1.4941 C   0  0  0  0  0  0  0  0  0  0  0  0
    0.2219   -5.7246    1.2452 C   0  0  0  0  0  0  0  0  0  0  0  0
    0.3332   -6.2088   -0.0590 C   0  0  0  0  0  0  0  0  0  0  0  0
    0.5139   -5.3188   -1.1246 C   0  0  0  0  0  0  0  0  0  0  0  0
    0.5656   -3.9444   -0.8845 C   0  0  0  0  0  0  0  0  0  0  0  0
    0.4399   -3.4557    0.4189 C   0  0  0  0  0  0  0  0  0  0  0  0
    0.4662   -2.0926    0.6103 O   0  0  0  0  0  0  0  0  0  0  0  0
   -1.8991    2.7509   -0.5678 C   0  0  0  0  0  0  0  0  0  0  0  0
   -2.6846    3.8759   -0.2388 C   0  0  0  0  0  0  0  0  0  0  0  0
   -2.1811    4.9343    0.5085 C   0  0  0  0  0  0  0  0  0  0  0  0
   -0.8536    4.8949    0.9424 C   0  0  0  0  0  0  0  0  0  0  0  0
   -0.0475    3.8036    0.6208 C   0  0  0  0  0  0  0  0  0  0  0  0
   -0.5564    2.7334   -0.1268 C   0  0  0  0  0  0  0  0  0  0  0  0
    0.6977    1.3443   -0.5058 Br  0  0  0  0  0  0  0  0  0  0  0  0
   -2.5201   -1.9699   -5.2305 H   0  0  0  0  0  0  0  0  0  0  0  0
   -4.9692   -2.9564   -1.8120 H   0  0  0  0  0  0  0  0  0  0  0  0
   -5.1475   -0.9364   -0.0051 H   0  0  0  0  0  0  0  0  0  0  0  0
   -1.5536   -1.4591    0.0766 H   0  0  0  0  0  0  0  0  0  0  0  0
    0.3390   -2.2613    3.9719 H   0  0  0  0  0  0  0  0  0  0  0  0
    1.7811   -2.6085    2.9486 H   0  0  0  0  0  0  0  0  0  0  0  0
    0.0906   -6.3940    2.0980 H   0  0  0  0  0  0  0  0  0  0  0  0
    0.2863   -7.2846   -0.2422 H   0  0  0  0  0  0  0  0  0  0  0  0
    0.6111   -5.6933   -2.1461 H   0  0  0  0  0  0  0  0  0  0  0  0
    0.6994   -3.2259   -1.6964 H   0  0  0  0  0  0  0  0  0  0  0  0
   -3.7158    3.8837   -0.5947 H   0  0  0  0  0  0  0  0  0  0  0  0
   -2.8208    5.7853    0.7513 H   0  0  0  0  0  0  0  0  0  0  0  0
   -0.4363    5.7158    1.5308 H   0  0  0  0  0  0  0  0  0  0  0  0
    0.9929    3.7741    0.9471 H   0  0  0  0  0  0  0  0  0  0  0  0
  1  2  2  0
  2  3  1  0
  2 28  1  0
  3  4  1  0
  4  5  2  0
  4 11  1  0
  5  6  1  0
  5  7  1  0
  7  8  2  0
  7 35  1  0
  8  9  1  0
  8 10  1  0
 10 11  2  0
 10 36  1  0
 11 12  1  0
 12 13  2  0
 12 37  1  0
 13 14  1  0
 14 15  1  0
 14 38  1  0
 15 16  2  0
 15 17  1  0
 17 18  1  1
 17 19  1  0
 17 27  1  0
 19 20  1  0
 19 39  1  0
 19 40  1  0
 20 21  1  0
 21 22  2  0
 21 26  1  0
 22 23  1  0
 22 41  1  0
 23 24  2  0
 23 42  1  0
 24 25  1  0
 24 43  1  0
 25 26  2  0
 25 44  1  0
 26 27  1  0
 28 29  2  0
 28 33  1  0
 29 30  1  0
 29 45  1  0
 30 31  2  0
 30 46  1  0
 31 32  1  0
 31 47  1  0
 32 33  2  0
 32 48  1  0
 33 34  1  0
M  END

