
     RDKit          3D

148158  0  0  0  0  0  0  0  0999 V2000
    0.3296    9.1694    4.6857 C   0  0  0  0  0  0  0  0  0  0  0  0
   -0.1579    8.1190    3.8824 O   0  0  0  0  0  0  0  0  0  0  0  0
    0.6967    7.1461    3.4778 C   0  0  0  0  0  0  0  0  0  0  0  0
    2.0712    7.1349    3.7535 C   0  0  0  0  0  0  0  0  0  0  0  0
    2.8811    6.0908    3.2699 C   0  0  0  0  0  0  0  0  0  0  0  0
    4.3385    6.1064    3.5042 C   0  0  0  0  0  0  0  0  0  0  0  0
    5.1018    6.2436    4.6747 C   0  0  0  0  0  0  0  0  0  0  0  0
    6.4865    6.3006    4.2779 C   0  0  0  0  0  0  0  0  0  0  0  0
    7.5292    6.5060    5.2561 C   0  0  0  0  0  0  0  0  0  0  0  0
    8.9082    6.5569    4.9347 C   0  0  0  0  0  0  0  0  0  0  0  0
    9.8648    6.8329    5.8923 C   0  0  0  0  0  0  0  0  0  0  0  0
    9.5106    7.0765    7.2378 C   0  0  0  0  0  0  0  0  0  0  0  0
   10.6004    7.4122    8.2713 C   0  0  1  0  0  0  0  0  0  0  0  0
   11.3379    8.6987    7.8305 C   0  0  0  0  0  0  0  0  0  0  0  0
   10.0250    7.6455    9.6796 C   0  0  0  0  0  0  0  0  0  0  0  0
   11.6089    6.2418    8.3478 C   0  0  0  0  0  0  0  0  0  0  0  0
    8.1582    6.9868    7.5633 C   0  0  0  0  0  0  0  0  0  0  0  0
    7.1468    6.6873    6.6237 C   0  0  0  0  0  0  0  0  0  0  0  0
    5.7441    6.5262    7.0477 C   0  0  0  0  0  0  0  0  0  0  0  0
    5.3737    6.5672    8.4133 C   0  0  0  0  0  0  0  0  0  0  0  0
    4.0736    6.3445    8.8618 C   0  0  0  0  0  0  0  0  0  0  0  0
    3.6791    6.3892   10.3502 C   0  0  1  0  0  0  0  0  0  0  0  0
    4.8709    6.7277   11.2635 C   0  0  0  0  0  0  0  0  0  0  0  0
    2.5910    7.4687   10.5573 C   0  0  0  0  0  0  0  0  0  0  0  0
    3.1215    5.0105   10.7749 C   0  0  0  0  0  0  0  0  0  0  0  0
    3.1005    6.0480    7.8820 C   0  0  0  0  0  0  0  0  0  0  0  0
    3.4227    6.0123    6.5357 C   0  0  0  0  0  0  0  0  0  0  0  0
    4.7350    6.2708    6.0812 C   0  0  0  0  0  0  0  0  0  0  0  0
    6.5832    6.1778    2.9197 N   0  0  0  0  0  0  0  0  0  0  0  0
    5.2855    6.0572    2.4274 C   0  0  0  0  0  0  0  0  0  0  0  0
    4.9720    5.9424    1.1502 N   0  0  0  0  0  0  0  0  0  0  0  0
    5.9128    5.9280    0.2245 C   0  0  0  0  0  0  0  0  0  0  0  0
    5.7018    5.6974   -1.1780 C   0  0  0  0  0  0  0  0  0  0  0  0
    4.3592    5.4500   -1.7352 C   0  0  0  0  0  0  0  0  0  0  0  0
    3.3057    6.3315   -1.4218 C   0  0  0  0  0  0  0  0  0  0  0  0
    2.0083    6.0866   -1.8815 C   0  0  0  0  0  0  0  0  0  0  0  0
    0.9438    6.8907   -1.6257 O   0  0  0  0  0  0  0  0  0  0  0  0
    1.1403    8.0630   -0.8595 C   0  0  0  0  0  0  0  0  0  0  0  0
    1.7400    4.9431   -2.6711 C   0  0  0  0  0  0  0  0  0  0  0  0
    0.4769    4.6677   -3.1090 O   0  0  0  0  0  0  0  0  0  0  0  0
   -0.0209    5.4838   -4.1623 C   0  0  0  0  0  0  0  0  0  0  0  0
    2.7925    4.0592   -2.9766 C   0  0  0  0  0  0  0  0  0  0  0  0
    2.5906    2.9710   -3.7766 O   0  0  0  0  0  0  0  0  0  0  0  0
    1.7461    1.9414   -3.2803 C   0  0  0  0  0  0  0  0  0  0  0  0
    4.0873    4.3095   -2.5062 C   0  0  0  0  0  0  0  0  0  0  0  0
    6.9836    5.6803   -1.7604 C   0  0  0  0  0  0  0  0  0  0  0  0
    7.4399    5.5247   -3.1298 C   0  0  0  0  0  0  0  0  0  0  0  0
    6.5961    5.4908   -4.2611 C   0  0  0  0  0  0  0  0  0  0  0  0
    7.1036    5.2886   -5.5358 C   0  0  0  0  0  0  0  0  0  0  0  0
    8.4858    5.0831   -5.7760 C   0  0  0  0  0  0  0  0  0  0  0  0
    8.9859    4.8097   -7.2063 C   0  0  1  0  0  0  0  0  0  0  0  0
    8.6285    6.0110   -8.1122 C   0  0  0  0  0  0  0  0  0  0  0  0
   10.5097    4.6014   -7.2582 C   0  0  0  0  0  0  0  0  0  0  0  0
    8.3039    3.5334   -7.7523 C   0  0  0  0  0  0  0  0  0  0  0  0
    9.3277    5.1397   -4.6714 C   0  0  0  0  0  0  0  0  0  0  0  0
    8.8443    5.3990   -3.3634 C   0  0  0  0  0  0  0  0  0  0  0  0
    9.7497    5.5399   -2.2675 C   0  0  0  0  0  0  0  0  0  0  0  0
   11.2076    5.4714   -2.1553 C   0  0  0  0  0  0  0  0  0  0  0  0
   11.8875    6.6971   -1.9472 C   0  0  0  0  0  0  0  0  0  0  0  0
   12.3563    7.7257   -2.9744 C   0  0  1  0  0  0  0  0  0  0  0  0
   11.1379    8.4329   -3.6167 C   0  0  0  0  0  0  0  0  0  0  0  0
   13.2525    8.7849   -2.3024 C   0  0  0  0  0  0  0  0  0  0  0  0
   13.1702    7.0083   -4.0724 C   0  0  0  0  0  0  0  0  0  0  0  0
   11.6025    7.0205   -0.5751 C   0  0  0  0  0  0  0  0  0  0  0  0
   10.3534    6.5817   -0.1104 C   0  0  0  0  0  0  0  0  0  0  0  0
    9.3386    5.9440   -0.9565 C   0  0  0  0  0  0  0  0  0  0  0  0
    7.9332    5.9093   -0.6875 C   0  0  0  0  0  0  0  0  0  0  0  0
    7.2668    6.0564    0.4943 N   0  0  0  0  0  0  0  0  0  0  0  0
    7.8167    6.2591    1.9456 B   0  0  1  0  0  0  0  0  0  0  0  0
    8.4075    7.5174    2.0698 F   0  0  0  0  0  0  0  0  0  0  0  0
    8.7400    5.2554    2.2161 F   0  0  0  0  0  0  0  0  0  0  0  0
    2.3094    5.0622    2.5037 C   0  0  0  0  0  0  0  0  0  0  0  0
    0.9340    5.0655    2.2327 C   0  0  0  0  0  0  0  0  0  0  0  0
    0.2952    4.1178    1.5056 O   0  0  0  0  0  0  0  0  0  0  0  0
    1.0411    3.0555    0.9513 C   0  0  0  0  0  0  0  0  0  0  0  0
    0.1137    6.0988    2.7316 C   0  0  0  0  0  0  0  0  0  0  0  0
   -1.2306    6.0740    2.5221 O   0  0  0  0  0  0  0  0  0  0  0  0
   -1.6732    6.5811    1.2721 C   0  0  0  0  0  0  0  0  0  0  0  0
   -0.5319    9.8101    4.9181 H   0  0  0  0  0  0  0  0  0  0  0  0
    1.0920    9.7735    4.1605 H   0  0  0  0  0  0  0  0  0  0  0  0
    0.7650    8.7974    5.6304 H   0  0  0  0  0  0  0  0  0  0  0  0
    2.5298    7.9403    4.3245 H   0  0  0  0  0  0  0  0  0  0  0  0
    9.2314    6.3596    3.9197 H   0  0  0  0  0  0  0  0  0  0  0  0
   10.9119    6.8613    5.5843 H   0  0  0  0  0  0  0  0  0  0  0  0
   10.6436    9.5520    7.7723 H   0  0  0  0  0  0  0  0  0  0  0  0
   11.8107    8.5843    6.8435 H   0  0  0  0  0  0  0  0  0  0  0  0
   12.1306    8.9525    8.5534 H   0  0  0  0  0  0  0  0  0  0  0  0
    9.3142    8.4865    9.6999 H   0  0  0  0  0  0  0  0  0  0  0  0
   10.8406    7.8867   10.3792 H   0  0  0  0  0  0  0  0  0  0  0  0
    9.5120    6.7520   10.0685 H   0  0  0  0  0  0  0  0  0  0  0  0
   12.0930    6.0506    7.3783 H   0  0  0  0  0  0  0  0  0  0  0  0
   11.1110    5.3111    8.6630 H   0  0  0  0  0  0  0  0  0  0  0  0
   12.4031    6.4680    9.0783 H   0  0  0  0  0  0  0  0  0  0  0  0
    7.8659    7.1549    8.5952 H   0  0  0  0  0  0  0  0  0  0  0  0
    6.1452    6.7639    9.1518 H   0  0  0  0  0  0  0  0  0  0  0  0
    5.3037    7.7125   11.0272 H   0  0  0  0  0  0  0  0  0  0  0  0
    5.6713    5.9746   11.1924 H   0  0  0  0  0  0  0  0  0  0  0  0
    4.5394    6.7565   12.3133 H   0  0  0  0  0  0  0  0  0  0  0  0
    2.9636    8.4650   10.2700 H   0  0  0  0  0  0  0  0  0  0  0  0
    2.2870    7.5110   11.6162 H   0  0  0  0  0  0  0  0  0  0  0  0
    1.6892    7.2633    9.9607 H   0  0  0  0  0  0  0  0  0  0  0  0
    3.8783    4.2210   10.6423 H   0  0  0  0  0  0  0  0  0  0  0  0
    2.2353    4.7259   10.1876 H   0  0  0  0  0  0  0  0  0  0  0  0
    2.8263    5.0252   11.8371 H   0  0  0  0  0  0  0  0  0  0  0  0
    2.0708    5.8331    8.1764 H   0  0  0  0  0  0  0  0  0  0  0  0
    2.6463    5.7656    5.8145 H   0  0  0  0  0  0  0  0  0  0  0  0
    3.5150    7.1997   -0.8024 H   0  0  0  0  0  0  0  0  0  0  0  0
    0.1605    8.5529   -0.7872 H   0  0  0  0  0  0  0  0  0  0  0  0
    1.8525    8.7525   -1.3466 H   0  0  0  0  0  0  0  0  0  0  0  0
    1.5008    7.8295    0.1567 H   0  0  0  0  0  0  0  0  0  0  0  0
   -1.0212    5.1027   -4.4114 H   0  0  0  0  0  0  0  0  0  0  0  0
    0.6235    5.4138   -5.0564 H   0  0  0  0  0  0  0  0  0  0  0  0
   -0.1031    6.5370   -3.8497 H   0  0  0  0  0  0  0  0  0  0  0  0
    1.7185    1.1584   -4.0513 H   0  0  0  0  0  0  0  0  0  0  0  0
    0.7247    2.3065   -3.0924 H   0  0  0  0  0  0  0  0  0  0  0  0
    2.1574    1.5072   -2.3502 H   0  0  0  0  0  0  0  0  0  0  0  0
    4.8696    3.5910   -2.7527 H   0  0  0  0  0  0  0  0  0  0  0  0
    5.5234    5.6294   -4.1382 H   0  0  0  0  0  0  0  0  0  0  0  0
    6.4002    5.2723   -6.3714 H   0  0  0  0  0  0  0  0  0  0  0  0
    9.1088    6.9345   -7.7514 H   0  0  0  0  0  0  0  0  0  0  0  0
    7.5431    6.1906   -8.1497 H   0  0  0  0  0  0  0  0  0  0  0  0
    8.9713    5.8295   -9.1441 H   0  0  0  0  0  0  0  0  0  0  0  0
   11.0588    5.4886   -6.9061 H   0  0  0  0  0  0  0  0  0  0  0  0
   10.8248    4.4087   -8.2958 H   0  0  0  0  0  0  0  0  0  0  0  0
   10.8273    3.7395   -6.6508 H   0  0  0  0  0  0  0  0  0  0  0  0
    7.2080    3.6313   -7.7811 H   0  0  0  0  0  0  0  0  0  0  0  0
    8.5457    2.6588   -7.1277 H   0  0  0  0  0  0  0  0  0  0  0  0
    8.6467    3.3241   -8.7790 H   0  0  0  0  0  0  0  0  0  0  0  0
   10.4014    4.9822   -4.7728 H   0  0  0  0  0  0  0  0  0  0  0  0
   11.3922    4.8469   -1.2698 H   0  0  0  0  0  0  0  0  0  0  0  0
   10.5294    8.9428   -2.8539 H   0  0  0  0  0  0  0  0  0  0  0  0
   10.4894    7.7228   -4.1501 H   0  0  0  0  0  0  0  0  0  0  0  0
   11.4797    9.1893   -4.3434 H   0  0  0  0  0  0  0  0  0  0  0  0
   12.6955    9.3939   -1.5742 H   0  0  0  0  0  0  0  0  0  0  0  0
   13.6586    9.4704   -3.0632 H   0  0  0  0  0  0  0  0  0  0  0  0
   14.1031    8.3188   -1.7798 H   0  0  0  0  0  0  0  0  0  0  0  0
   12.5617    6.2448   -4.5797 H   0  0  0  0  0  0  0  0  0  0  0  0
   14.0507    6.5014   -3.6468 H   0  0  0  0  0  0  0  0  0  0  0  0
   13.5208    7.7304   -4.8278 H   0  0  0  0  0  0  0  0  0  0  0  0
   12.1314    7.7850    0.0049 H   0  0  0  0  0  0  0  0  0  0  0  0
   10.0335    6.9233    0.8733 H   0  0  0  0  0  0  0  0  0  0  0  0
    2.9487    4.2719    2.1184 H   0  0  0  0  0  0  0  0  0  0  0  0
    0.3256    2.4298    0.4011 H   0  0  0  0  0  0  0  0  0  0  0  0
    1.5243    2.4434    1.7339 H   0  0  0  0  0  0  0  0  0  0  0  0
    1.8133    3.4181    0.2506 H   0  0  0  0  0  0  0  0  0  0  0  0
   -2.7513    6.3762    1.2066 H   0  0  0  0  0  0  0  0  0  0  0  0
   -1.1608    6.0899    0.4277 H   0  0  0  0  0  0  0  0  0  0  0  0
   -1.5153    7.6734    1.2103 H   0  0  0  0  0  0  0  0  0  0  0  0
  1  2  1  0
  1 79  1  0
  1 80  1  0
  1 81  1  0
  2  3  1  0
  3  4  2  0
  3 76  1  0
  4  5  1  0
  4 82  1  0
  5  6  2  0
  5 72  1  0
  6  7  1  0
  6 30  1  0
  7  8  2  0
  7 28  1  0
  8  9  1  0
  8 29  1  0
  9 10  2  0
  9 18  1  0
 10 11  1  0
 10 83  1  0
 11 12  2  0
 11 84  1  0
 12 13  1  0
 12 17  1  0
 13 14  1  6
 13 15  1  0
 13 16  1  0
 14 85  1  0
 14 86  1  0
 14 87  1  0
 15 88  1  0
 15 89  1  0
 15 90  1  0
 16 91  1  0
 16 92  1  0
 16 93  1  0
 17 18  2  0
 17 94  1  0
 18 19  1  0
 19 20  2  0
 19 28  1  0
 20 21  1  0
 20 95  1  0
 21 22  1  0
 21 26  2  0
 22 23  1  1
 22 24  1  0
 22 25  1  0
 23 96  1  0
 23 97  1  0
 23 98  1  0
 24 99  1  0
 24100  1  0
 24101  1  0
 25102  1  0
 25103  1  0
 25104  1  0
 26 27  1  0
 26105  1  0
 27 28  2  0
 27106  1  0
 29 30  1  0
 29 69  1  0
 30 31  2  0
 31 32  1  0
 32 33  2  0
 32 68  1  0
 33 34  1  0
 33 46  1  0
 34 35  2  0
 34 45  1  0
 35 36  1  0
 35107  1  0
 36 37  1  0
 36 39  2  0
 37 38  1  0
 38108  1  0
 38109  1  0
 38110  1  0
 39 40  1  0
 39 42  1  0
 40 41  1  0
 41111  1  0
 41112  1  0
 41113  1  0
 42 43  1  0
 42 45  2  0
 43 44  1  0
 44114  1  0
 44115  1  0
 44116  1  0
 45117  1  0
 46 47  2  0
 46 67  1  0
 47 48  1  0
 47 56  1  0
 48 49  2  0
 48118  1  0
 49 50  1  0
 49119  1  0
 50 51  1  0
 50 55  2  0
 51 52  1  6
 51 53  1  0
 51 54  1  0
 52120  1  0
 52121  1  0
 52122  1  0
 53123  1  0
 53124  1  0
 53125  1  0
 54126  1  0
 54127  1  0
 54128  1  0
 55 56  1  0
 55129  1  0
 56 57  2  0
 57 58  1  0
 57 66  1  0
 58 59  2  0
 58130  1  0
 59 60  1  0
 59 64  1  0
 60 61  1  6
 60 62  1  0
 60 63  1  0
 61131  1  0
 61132  1  0
 61133  1  0
 62134  1  0
 62135  1  0
 62136  1  0
 63137  1  0
 63138  1  0
 63139  1  0
 64 65  2  0
 64140  1  0
 65 66  1  0
 65141  1  0
 66 67  2  0
 67 68  1  0
 68 69  1  0
 69 70  1  6
 69 71  1  0
 72 73  2  0
 72142  1  0
 73 74  1  0
 73 76  1  0
 74 75  1  0
 75143  1  0
 75144  1  0
 75145  1  0
 76 77  2  0
 77 78  1  0
 78146  1  0
 78147  1  0
 78148  1  0
M  CHG  2  69  -1  77   1
M  END

