
     RDKit          3D

 42 43  0  0  0  0  0  0  0  0999 V2000
    0.2944   -0.0435   -0.4954 C   0  0  0  0  0  0  0  0  0  0  0  0
    1.7956   -0.1123   -0.1869 C   0  0  1  0  0  0  0  0  0  0  0  0
    2.4264   -1.4721   -0.5479 C   0  0  0  0  0  0  0  0  0  0  0  0
    2.5981   -1.6560   -2.0609 C   0  0  2  0  0  0  0  0  0  0  0  0
    3.3130   -2.9670   -2.3925 C   0  0  0  0  0  0  0  0  0  0  0  0
    3.7921   -3.7048   -1.5762 O   0  0  0  0  0  0  0  0  0  0  0  0
    3.3981   -3.2603   -3.7114 O   0  0  0  0  0  0  0  0  0  0  0  0
    3.3554   -0.4507   -2.6621 C   0  0  0  0  0  0  0  0  0  0  0  0
    2.6904    0.7999   -2.3166 N   0  0  0  0  0  0  0  0  0  0  0  0
    2.2135    1.5914   -3.3399 C   0  0  0  0  0  0  0  0  0  0  0  0
    2.3431    1.2626   -4.5094 O   0  0  0  0  0  0  0  0  0  0  0  0
    1.5691    2.9362   -2.9505 C   0  0  1  0  0  0  0  0  0  0  0  0
    2.6527    4.0164   -2.8132 C   0  0  0  0  0  0  0  0  0  0  0  0
    0.3624    3.5342   -4.2134 S   0  0  0  0  0  0  0  0  0  0  0  0
   -0.9192    2.2830   -4.1241 C   0  0  0  0  0  0  0  0  0  0  0  0
   -2.0543    2.4929   -3.3259 C   0  0  0  0  0  0  0  0  0  0  0  0
   -3.0874    1.5523   -3.2923 C   0  0  0  0  0  0  0  0  0  0  0  0
   -2.9810    0.3950   -4.0688 C   0  0  0  0  0  0  0  0  0  0  0  0
   -4.3850   -0.8947   -4.0299 Br  0  0  0  0  0  0  0  0  0  0  0  0
   -1.8619    0.1719   -4.8775 C   0  0  0  0  0  0  0  0  0  0  0  0
   -0.8354    1.1194   -4.9065 C   0  0  0  0  0  0  0  0  0  0  0  0
    2.5820    1.0226   -0.8762 C   0  0  0  0  0  0  0  0  0  0  0  0
   -0.2462   -0.8641    0.0018 H   0  0  0  0  0  0  0  0  0  0  0  0
    0.0846   -0.1132   -1.5745 H   0  0  0  0  0  0  0  0  0  0  0  0
   -0.1413    0.9039   -0.1385 H   0  0  0  0  0  0  0  0  0  0  0  0
    1.9232    0.0328    0.9001 H   0  0  0  0  0  0  0  0  0  0  0  0
    1.8291   -2.2985   -0.1327 H   0  0  0  0  0  0  0  0  0  0  0  0
    3.4221   -1.5568   -0.0818 H   0  0  0  0  0  0  0  0  0  0  0  0
    1.6071   -1.6974   -2.5499 H   0  0  0  0  0  0  0  0  0  0  0  0
    2.9505   -2.5884   -4.2458 H   0  0  0  0  0  0  0  0  0  0  0  0
    3.4141   -0.4935   -3.7563 H   0  0  0  0  0  0  0  0  0  0  0  0
    4.3871   -0.4379   -2.2633 H   0  0  0  0  0  0  0  0  0  0  0  0
    1.0112    2.8459   -2.0098 H   0  0  0  0  0  0  0  0  0  0  0  0
    3.2049    4.1242   -3.7592 H   0  0  0  0  0  0  0  0  0  0  0  0
    3.3752    3.7500   -2.0258 H   0  0  0  0  0  0  0  0  0  0  0  0
    2.2032    4.9874   -2.5570 H   0  0  0  0  0  0  0  0  0  0  0  0
   -2.1306    3.4060   -2.7310 H   0  0  0  0  0  0  0  0  0  0  0  0
   -3.9691    1.7196   -2.6713 H   0  0  0  0  0  0  0  0  0  0  0  0
   -1.7972   -0.7315   -5.4866 H   0  0  0  0  0  0  0  0  0  0  0  0
    0.0480    0.9608   -5.5271 H   0  0  0  0  0  0  0  0  0  0  0  0
    2.1140    1.9918   -0.6715 H   0  0  0  0  0  0  0  0  0  0  0  0
    3.6036    1.0649   -0.4537 H   0  0  0  0  0  0  0  0  0  0  0  0
  1  2  1  0
  1 23  1  0
  1 24  1  0
  1 25  1  0
  2  3  1  0
  2 22  1  0
  2 26  1  1
  3  4  1  0
  3 27  1  0
  3 28  1  0
  4  5  1  0
  4  8  1  0
  4 29  1  6
  5  6  2  0
  5  7  1  0
  7 30  1  0
  8  9  1  0
  8 31  1  0
  8 32  1  0
  9 10  1  0
  9 22  1  0
 10 11  2  0
 10 12  1  0
 12 13  1  0
 12 14  1  0
 12 33  1  1
 13 34  1  0
 13 35  1  0
 13 36  1  0
 14 15  1  0
 15 16  2  0
 15 21  1  0
 16 17  1  0
 16 37  1  0
 17 18  2  0
 17 38  1  0
 18 19  1  0
 18 20  1  0
 20 21  2  0
 20 39  1  0
 21 40  1  0
 22 41  1  0
 22 42  1  0
M  END

