
     RDKit          3D

 52 54  0  0  0  0  0  0  0  0999 V2000
    2.0363   -4.9380    5.5061 C   0  0  0  0  0  0  0  0  0  0  0  0
    3.0793   -5.0380    4.3918 C   0  0  0  0  0  0  0  0  0  0  0  0
    4.3523   -4.1678    4.5682 C   0  0  1  0  0  0  0  0  0  0  0  0
    4.0160   -2.6711    4.6003 C   0  0  0  0  0  0  0  0  0  0  0  0
    5.1327   -4.5409    5.8395 C   0  0  0  0  0  0  0  0  0  0  0  0
    5.2317   -4.4662    3.3904 N   0  0  0  0  0  0  0  0  0  0  0  0
    6.0602   -5.5288    3.4621 N   0  0  0  0  0  0  0  0  0  0  0  0
    6.6387   -5.6513    2.3208 N   0  0  0  0  0  0  0  0  0  0  0  0
    6.2138   -4.7011    1.4700 N   0  0  0  0  0  0  0  0  0  0  0  0
    5.3339   -3.9634    2.1279 C   0  0  0  0  0  0  0  0  0  0  0  0
    4.6248   -2.8127    1.4736 C   0  0  0  0  0  0  0  0  0  0  0  0
    3.1954   -3.0584    1.2826 N   0  0  0  0  0  0  0  0  0  0  0  0
    2.4123   -1.8736    0.9469 C   0  0  0  0  0  0  0  0  0  0  0  0
    2.5408   -1.4198   -0.5150 C   0  0  0  0  0  0  0  0  0  0  0  0
    2.2474   -2.5214   -1.4224 N   0  0  0  0  0  0  0  0  0  0  0  0
    1.9112   -2.2351   -2.7525 C   0  0  0  0  0  0  0  0  0  0  0  0
    1.4980   -3.2600   -3.6372 C   0  0  0  0  0  0  0  0  0  0  0  0
    1.1311   -2.9760   -4.9493 C   0  0  0  0  0  0  0  0  0  0  0  0
    1.1510   -1.6666   -5.4386 C   0  0  0  0  0  0  0  0  0  0  0  0
    1.5554   -0.6453   -4.5769 C   0  0  0  0  0  0  0  0  0  0  0  0
    1.5391    0.7875   -5.0499 C   0  0  1  0  0  0  0  0  0  0  0  0
    1.7438    0.8842   -6.3748 F   0  0  0  0  0  0  0  0  0  0  0  0
    0.3550    1.3802   -4.7934 F   0  0  0  0  0  0  0  0  0  0  0  0
    2.4824    1.5324   -4.4415 F   0  0  0  0  0  0  0  0  0  0  0  0
    1.9415   -0.9191   -3.2604 C   0  0  0  0  0  0  0  0  0  0  0  0
    3.0164   -3.7337   -1.1256 C   0  0  0  0  0  0  0  0  0  0  0  0
    2.8729   -4.1370    0.3463 C   0  0  0  0  0  0  0  0  0  0  0  0
    1.1779   -5.5875    5.2738 H   0  0  0  0  0  0  0  0  0  0  0  0
    1.6451   -3.9148    5.6225 H   0  0  0  0  0  0  0  0  0  0  0  0
    2.4331   -5.2618    6.4808 H   0  0  0  0  0  0  0  0  0  0  0  0
    2.6209   -4.7501    3.4316 H   0  0  0  0  0  0  0  0  0  0  0  0
    3.4094   -6.0849    4.2884 H   0  0  0  0  0  0  0  0  0  0  0  0
    3.5049   -2.4364    5.5445 H   0  0  0  0  0  0  0  0  0  0  0  0
    3.3461   -2.3889    3.7779 H   0  0  0  0  0  0  0  0  0  0  0  0
    4.9297   -2.0582    4.5606 H   0  0  0  0  0  0  0  0  0  0  0  0
    4.5404   -4.2660    6.7239 H   0  0  0  0  0  0  0  0  0  0  0  0
    6.0862   -3.9935    5.8844 H   0  0  0  0  0  0  0  0  0  0  0  0
    5.3570   -5.6138    5.8791 H   0  0  0  0  0  0  0  0  0  0  0  0
    5.1859   -2.6376    0.5358 H   0  0  0  0  0  0  0  0  0  0  0  0
    4.7342   -1.9020    2.0798 H   0  0  0  0  0  0  0  0  0  0  0  0
    2.6959   -1.0429    1.6133 H   0  0  0  0  0  0  0  0  0  0  0  0
    1.3507   -2.1054    1.1421 H   0  0  0  0  0  0  0  0  0  0  0  0
    3.5507   -0.9926   -0.7020 H   0  0  0  0  0  0  0  0  0  0  0  0
    1.8161   -0.6098   -0.6819 H   0  0  0  0  0  0  0  0  0  0  0  0
    1.4419   -4.2920   -3.2897 H   0  0  0  0  0  0  0  0  0  0  0  0
    0.8152   -3.7938   -5.6019 H   0  0  0  0  0  0  0  0  0  0  0  0
    0.8640   -1.4450   -6.4671 H   0  0  0  0  0  0  0  0  0  0  0  0
    2.2864   -0.0918   -2.6439 H   0  0  0  0  0  0  0  0  0  0  0  0
    4.0875   -3.5844   -1.3782 H   0  0  0  0  0  0  0  0  0  0  0  0
    2.6640   -4.5663   -1.7461 H   0  0  0  0  0  0  0  0  0  0  0  0
    3.5153   -5.0073    0.5472 H   0  0  0  0  0  0  0  0  0  0  0  0
    1.8282   -4.4423    0.5304 H   0  0  0  0  0  0  0  0  0  0  0  0
  1  2  1  0
  1 28  1  0
  1 29  1  0
  1 30  1  0
  3  2  1  6
  2 31  1  0
  2 32  1  0
  3  4  1  0
  3  5  1  0
  3  6  1  0
  4 33  1  0
  4 34  1  0
  4 35  1  0
  5 36  1  0
  5 37  1  0
  5 38  1  0
  6  7  1  0
  6 10  1  0
  7  8  2  0
  8  9  1  0
  9 10  2  0
 10 11  1  0
 11 12  1  0
 11 39  1  0
 11 40  1  0
 12 13  1  0
 12 27  1  0
 13 14  1  0
 13 41  1  0
 13 42  1  0
 14 15  1  0
 14 43  1  0
 14 44  1  0
 15 16  1  0
 15 26  1  0
 16 17  2  0
 16 25  1  0
 17 18  1  0
 17 45  1  0
 18 19  2  0
 18 46  1  0
 19 20  1  0
 19 47  1  0
 20 21  1  0
 20 25  2  0
 21 22  1  6
 21 23  1  0
 21 24  1  0
 25 48  1  0
 26 27  1  0
 26 49  1  0
 26 50  1  0
 27 51  1  0
 27 52  1  0
M  END

