
     RDKit          3D

 47 49  0  0  0  0  0  0  0  0999 V2000
    2.5163    2.8301   -1.1846 O   0  0  0  0  0  0  0  0  0  0  0  0
    1.6748    2.1805   -0.5994 N   0  0  0  0  0  0  0  0  0  0  0  0
    1.6672    1.9667    0.6051 O   0  0  0  0  0  0  0  0  0  0  0  0
    0.5395    1.6682   -1.3971 C   0  0  0  0  0  0  0  0  0  0  0  0
    0.0786    2.5103   -2.4090 C   0  0  0  0  0  0  0  0  0  0  0  0
   -1.0345    2.1397   -3.1659 C   0  0  0  0  0  0  0  0  0  0  0  0
   -1.6653    0.9192   -2.9219 C   0  0  0  0  0  0  0  0  0  0  0  0
   -1.1794    0.0636   -1.9279 C   0  0  0  0  0  0  0  0  0  0  0  0
   -0.0803    0.4305   -1.1468 C   0  0  0  0  0  0  0  0  0  0  0  0
    0.5402   -0.8325    0.0159 S   0  0  1  0  0  0  0  0  0  0  0  0
   -0.2662   -2.0261   -0.2273 O   0  0  0  0  0  0  0  0  0  0  0  0
    1.9912   -0.8393   -0.0959 O   0  0  0  0  0  0  0  0  0  0  0  0
    0.1910   -0.2922    1.5721 N   0  0  0  0  0  0  0  0  0  0  0  0
   -1.1177   -0.1669    2.0960 C   0  0  0  0  0  0  0  0  0  0  0  0
   -2.0202   -1.2451    2.0876 C   0  0  0  0  0  0  0  0  0  0  0  0
   -3.2894   -1.0914    2.6434 C   0  0  0  0  0  0  0  0  0  0  0  0
   -3.6515    0.1218    3.2394 C   0  0  0  0  0  0  0  0  0  0  0  0
   -5.2774    0.2992    3.9958 S   0  0  1  0  0  0  0  0  0  0  0  0
   -5.5689    1.7349    4.0173 O   0  0  0  0  0  0  0  0  0  0  0  0
   -6.1527   -0.6686    3.3303 O   0  0  0  0  0  0  0  0  0  0  0  0
   -5.1491   -0.1861    5.5844 N   0  0  0  0  0  0  0  0  0  0  0  0
   -5.2807   -1.5914    5.9702 C   0  0  0  0  0  0  0  0  0  0  0  0
   -3.9905   -2.1178    6.6098 C   0  0  0  0  0  0  0  0  0  0  0  0
   -3.5310   -1.2044    7.7548 C   0  0  0  0  0  0  0  0  0  0  0  0
   -3.4058    0.2519    7.2855 C   0  0  0  0  0  0  0  0  0  0  0  0
   -4.7071    0.7335    6.6330 C   0  0  0  0  0  0  0  0  0  0  0  0
   -2.7624    1.2012    3.2497 C   0  0  0  0  0  0  0  0  0  0  0  0
   -1.5023    1.0572    2.6718 C   0  0  0  0  0  0  0  0  0  0  0  0
    0.5998    3.4516   -2.5851 H   0  0  0  0  0  0  0  0  0  0  0  0
   -1.4023    2.8073   -3.9479 H   0  0  0  0  0  0  0  0  0  0  0  0
   -2.5324    0.6184   -3.5140 H   0  0  0  0  0  0  0  0  0  0  0  0
   -1.6340   -0.9127   -1.7557 H   0  0  0  0  0  0  0  0  0  0  0  0
    0.8170    0.4865    1.7788 H   0  0  0  0  0  0  0  0  0  0  0  0
   -1.7214   -2.1904    1.6367 H   0  0  0  0  0  0  0  0  0  0  0  0
   -4.0068   -1.9132    2.6111 H   0  0  0  0  0  0  0  0  0  0  0  0
   -5.5760   -2.1737    5.0879 H   0  0  0  0  0  0  0  0  0  0  0  0
   -6.1152   -1.6714    6.6939 H   0  0  0  0  0  0  0  0  0  0  0  0
   -3.2015   -2.1730    5.8392 H   0  0  0  0  0  0  0  0  0  0  0  0
   -4.1562   -3.1455    6.9743 H   0  0  0  0  0  0  0  0  0  0  0  0
   -2.5736   -1.5590    8.1701 H   0  0  0  0  0  0  0  0  0  0  0  0
   -4.2669   -1.2577    8.5790 H   0  0  0  0  0  0  0  0  0  0  0  0
   -2.5823    0.3371    6.5547 H   0  0  0  0  0  0  0  0  0  0  0  0
   -3.1547    0.9133    8.1316 H   0  0  0  0  0  0  0  0  0  0  0  0
   -4.6102    1.7388    6.2035 H   0  0  0  0  0  0  0  0  0  0  0  0
   -5.5070    0.7932    7.3966 H   0  0  0  0  0  0  0  0  0  0  0  0
   -3.0730    2.1560    3.6771 H   0  0  0  0  0  0  0  0  0  0  0  0
   -0.8090    1.9020    2.6530 H   0  0  0  0  0  0  0  0  0  0  0  0
  1  2  2  0
  2  3  1  0
  2  4  1  0
  4  5  2  0
  4  9  1  0
  5  6  1  0
  5 29  1  0
  6  7  2  0
  6 30  1  0
  7  8  1  0
  7 31  1  0
  8  9  2  0
  8 32  1  0
  9 10  1  0
 10 11  2  0
 10 12  2  0
 10 13  1  1
 13 14  1  0
 13 33  1  0
 14 15  2  0
 14 28  1  0
 15 16  1  0
 15 34  1  0
 16 17  2  0
 16 35  1  0
 18 17  1  6
 17 27  1  0
 18 19  2  0
 18 20  2  0
 18 21  1  0
 21 22  1  0
 21 26  1  0
 22 23  1  0
 22 36  1  0
 22 37  1  0
 23 24  1  0
 23 38  1  0
 23 39  1  0
 24 25  1  0
 24 40  1  0
 24 41  1  0
 25 26  1  0
 25 42  1  0
 25 43  1  0
 26 44  1  0
 26 45  1  0
 27 28  2  0
 27 46  1  0
 28 47  1  0
M  CHG  2   2   1   3  -1
M  END

