
     RDKit          3D

 33 34  0  0  0  0  0  0  0  0999 V2000
    1.2395   -0.0370    0.5214 C   0  0  0  0  0  0  0  0  0  0  0  0
    2.3368    0.0354   -0.3570 O   0  0  0  0  0  0  0  0  0  0  0  0
    2.8958   -1.1100   -0.8310 C   0  0  0  0  0  0  0  0  0  0  0  0
    3.9874   -0.9479   -1.6971 C   0  0  0  0  0  0  0  0  0  0  0  0
    4.6126   -2.0780   -2.2250 C   0  0  0  0  0  0  0  0  0  0  0  0
    4.1510   -3.3525   -1.9097 C   0  0  0  0  0  0  0  0  0  0  0  0
    4.7491   -4.5167   -2.3989 O   0  0  0  0  0  0  0  0  0  0  0  0
    4.9668   -4.6082   -3.7410 C   0  0  1  0  0  0  0  0  0  0  0  0
    6.1692   -4.0670   -4.0734 F   0  0  0  0  0  0  0  0  0  0  0  0
    5.0209   -5.9135   -4.0539 F   0  0  0  0  0  0  0  0  0  0  0  0
    3.0620   -3.5424   -1.0248 C   0  0  0  0  0  0  0  0  0  0  0  0
    2.6776   -4.8205   -0.7028 N   0  0  0  0  0  0  0  0  0  0  0  0
    1.4772   -5.1535    0.0353 C   0  0  0  0  0  0  0  0  0  0  0  0
    1.4044   -6.6288    0.3183 C   0  0  0  0  0  0  0  0  0  0  0  0
    0.2351   -7.4496    0.2876 C   0  0  0  0  0  0  0  0  0  0  0  0
    0.6152   -8.7309    0.6399 C   0  0  0  0  0  0  0  0  0  0  0  0
    1.9655   -8.7142    0.8783 N   0  0  0  0  0  0  0  0  0  0  0  0
    2.5201   -9.5188    1.1393 H   0  0  0  0  0  0  0  0  0  0  0  0
    2.4601   -7.4484    0.6891 C   0  0  0  0  0  0  0  0  0  0  0  0
    2.4346   -2.3928   -0.4972 C   0  0  0  0  0  0  0  0  0  0  0  0
    0.9683    0.9980    0.7708 H   0  0  0  0  0  0  0  0  0  0  0  0
    1.4907   -0.5733    1.4548 H   0  0  0  0  0  0  0  0  0  0  0  0
    0.3670   -0.5301    0.0548 H   0  0  0  0  0  0  0  0  0  0  0  0
    4.3310    0.0591   -1.9359 H   0  0  0  0  0  0  0  0  0  0  0  0
    5.4760   -1.9738   -2.8844 H   0  0  0  0  0  0  0  0  0  0  0  0
    4.1853   -4.1037   -4.3384 H   0  0  0  0  0  0  0  0  0  0  0  0
    3.0831   -5.5573   -1.2676 H   0  0  0  0  0  0  0  0  0  0  0  0
    0.5587   -4.8396   -0.5032 H   0  0  0  0  0  0  0  0  0  0  0  0
    1.4757   -4.5880    0.9868 H   0  0  0  0  0  0  0  0  0  0  0  0
   -0.7734   -7.1304    0.0297 H   0  0  0  0  0  0  0  0  0  0  0  0
    0.0345   -9.6463    0.7287 H   0  0  0  0  0  0  0  0  0  0  0  0
    3.5138   -7.2207    0.8338 H   0  0  0  0  0  0  0  0  0  0  0  0
    1.5857   -2.5160    0.1707 H   0  0  0  0  0  0  0  0  0  0  0  0
  1  2  1  0
  1 21  1  0
  1 22  1  0
  1 23  1  0
  2  3  1  0
  3  4  2  0
  3 20  1  0
  4  5  1  0
  4 24  1  0
  5  6  2  0
  5 25  1  0
  6  7  1  0
  6 11  1  0
  7  8  1  0
  8  9  1  0
  8 10  1  0
  8 26  1  6
 11 12  1  0
 11 20  2  0
 12 13  1  0
 12 27  1  0
 13 14  1  0
 13 28  1  0
 13 29  1  0
 14 15  1  0
 14 19  2  0
 15 16  2  0
 15 30  1  0
 16 17  1  0
 16 31  1  0
 17 18  1  0
 17 19  1  0
 19 32  1  0
 20 33  1  0
M  END

