
     RDKit          3D

 28 29  0  0  0  0  0  0  0  0999 V2000
    3.4468    1.3218   -0.4092 C   0  0  0  0  0  0  0  0  0  0  0  0
    2.5341    0.1262   -0.0821 C   0  0  1  0  0  0  0  0  0  0  0  0
    1.0538    0.4612   -0.3288 C   0  0  0  0  0  0  0  0  0  0  0  0
    2.9556   -1.0862   -0.8796 C   0  0  0  0  0  0  0  0  0  0  0  0
    3.4654   -2.1064   -0.2738 N   0  0  0  0  0  0  0  0  0  0  0  0
    3.8374   -3.2208   -1.0350 C   0  0  0  0  0  0  0  0  0  0  0  0
    4.6814   -4.0028   -0.6744 O   0  0  0  0  0  0  0  0  0  0  0  0
    3.0627   -3.3852   -2.3470 C   0  0  2  0  0  0  0  0  0  0  0  0
    3.9140   -4.5891   -3.4379 S   0  0  0  0  0  0  0  0  0  0  0  0
    2.8157   -4.4976   -4.9241 C   0  0  0  0  0  0  0  0  0  0  0  0
    1.9644   -3.2218   -5.0202 C   0  0  0  0  0  0  0  0  0  0  0  0
    2.6676   -1.9709   -4.4780 C   0  0  0  0  0  0  0  0  0  0  0  0
    2.8412   -2.0272   -2.9849 C   0  0  0  0  0  0  0  0  0  0  0  0
    2.7820   -0.9579   -2.2761 N   0  0  0  0  0  0  0  0  0  0  0  0
    3.1540    2.1970    0.1923 H   0  0  0  0  0  0  0  0  0  0  0  0
    3.3708    1.5910   -1.4739 H   0  0  0  0  0  0  0  0  0  0  0  0
    4.5002    1.0925   -0.1851 H   0  0  0  0  0  0  0  0  0  0  0  0
    2.6736   -0.1515    0.9736 H   0  0  0  0  0  0  0  0  0  0  0  0
    0.8779    0.7074   -1.3874 H   0  0  0  0  0  0  0  0  0  0  0  0
    0.7561    1.3292    0.2805 H   0  0  0  0  0  0  0  0  0  0  0  0
    0.3978   -0.3812   -0.0567 H   0  0  0  0  0  0  0  0  0  0  0  0
    2.0646   -3.7796   -2.0655 H   0  0  0  0  0  0  0  0  0  0  0  0
    2.1725   -5.3905   -4.9569 H   0  0  0  0  0  0  0  0  0  0  0  0
    3.5087   -4.5608   -5.7774 H   0  0  0  0  0  0  0  0  0  0  0  0
    1.0156   -3.3640   -4.4756 H   0  0  0  0  0  0  0  0  0  0  0  0
    1.6854   -3.0620   -6.0742 H   0  0  0  0  0  0  0  0  0  0  0  0
    2.1262   -1.0470   -4.7267 H   0  0  0  0  0  0  0  0  0  0  0  0
    3.6747   -1.8854   -4.9286 H   0  0  0  0  0  0  0  0  0  0  0  0
  1  2  1  0
  1 15  1  0
  1 16  1  0
  1 17  1  0
  2  3  1  0
  2  4  1  0
  2 18  1  1
  3 19  1  0
  3 20  1  0
  3 21  1  0
  4  5  2  0
  4 14  1  0
  5  6  1  0
  6  7  2  0
  6  8  1  0
  8  9  1  0
  8 13  1  0
  8 22  1  1
  9 10  1  0
 10 11  1  0
 10 23  1  0
 10 24  1  0
 11 12  1  0
 11 25  1  0
 11 26  1  0
 12 13  1  0
 12 27  1  0
 12 28  1  0
 13 14  2  0
M  END

