
     RDKit          3D

 35 36  0  0  0  0  0  0  0  0999 V2000
    3.1311   -1.8025   -2.0907 C   0  0  0  0  0  0  0  0  0  0  0  0
    3.3831   -0.7259   -1.0801 C   0  0  0  0  0  0  0  0  0  0  0  0
    4.4479    0.0199   -1.0411 N   0  0  0  0  0  0  0  0  0  0  0  0
    4.4191    0.9274   -0.0044 C   0  0  0  0  0  0  0  0  0  0  0  0
    5.5803    1.8700    0.1549 C   0  0  0  0  0  0  0  0  0  0  0  0
    6.8343    1.1309    0.1634 N   0  0  0  0  0  0  0  0  0  0  0  0
    8.0403    1.9476    0.1015 C   0  0  1  0  0  0  0  0  0  0  0  0
    8.1827    2.7185    1.3993 C   0  0  0  0  0  0  0  0  0  0  0  0
    8.0468    2.2461    2.6839 C   0  0  0  0  0  0  0  0  0  0  0  0
    8.2635    3.2472    3.6799 C   0  0  0  0  0  0  0  0  0  0  0  0
    8.5561    4.4754    3.1425 C   0  0  0  0  0  0  0  0  0  0  0  0
    8.5643    4.4186    1.4124 S   0  0  0  0  0  0  0  0  0  0  0  0
    9.2788    1.0505   -0.1957 C   0  0  1  0  0  0  0  0  0  0  0  0
    9.1249    0.2812   -1.5170 C   0  0  0  0  0  0  0  0  0  0  0  0
   10.5820    1.8582   -0.2098 C   0  0  0  0  0  0  0  0  0  0  0  0
    3.2946    0.8715    0.7761 C   0  0  0  0  0  0  0  0  0  0  0  0
    2.2226   -0.3571    0.1893 S   0  0  0  0  0  0  0  0  0  0  0  0
    3.9831   -1.8370   -2.7830 H   0  0  0  0  0  0  0  0  0  0  0  0
    2.2127   -1.6103   -2.6686 H   0  0  0  0  0  0  0  0  0  0  0  0
    3.0228   -2.7899   -1.6132 H   0  0  0  0  0  0  0  0  0  0  0  0
    5.4697    2.4379    1.0917 H   0  0  0  0  0  0  0  0  0  0  0  0
    5.5400    2.6191   -0.6711 H   0  0  0  0  0  0  0  0  0  0  0  0
    6.8104    0.4704   -0.6106 H   0  0  0  0  0  0  0  0  0  0  0  0
    7.9851    2.6969   -0.7252 H   0  0  0  0  0  0  0  0  0  0  0  0
    7.7810    1.2096    2.8958 H   0  0  0  0  0  0  0  0  0  0  0  0
    8.2010    3.0629    4.7540 H   0  0  0  0  0  0  0  0  0  0  0  0
    8.7630    5.4097    3.6625 H   0  0  0  0  0  0  0  0  0  0  0  0
    9.3337    0.3161    0.6276 H   0  0  0  0  0  0  0  0  0  0  0  0
    8.9665    0.9721   -2.3632 H   0  0  0  0  0  0  0  0  0  0  0  0
    8.2917   -0.4384   -1.5046 H   0  0  0  0  0  0  0  0  0  0  0  0
   10.0373   -0.2979   -1.7313 H   0  0  0  0  0  0  0  0  0  0  0  0
   10.5660    2.6278   -1.0011 H   0  0  0  0  0  0  0  0  0  0  0  0
   11.4406    1.1977   -0.4101 H   0  0  0  0  0  0  0  0  0  0  0  0
   10.7649    2.3667    0.7474 H   0  0  0  0  0  0  0  0  0  0  0  0
    3.0485    1.4732    1.6491 H   0  0  0  0  0  0  0  0  0  0  0  0
  1  2  1  0
  1 18  1  0
  1 19  1  0
  1 20  1  0
  2  3  2  0
  2 17  1  0
  3  4  1  0
  4  5  1  0
  4 16  2  0
  5  6  1  0
  5 21  1  0
  5 22  1  0
  6  7  1  0
  6 23  1  0
  7  8  1  0
  7 13  1  0
  7 24  1  6
  8  9  2  0
  8 12  1  0
  9 10  1  0
  9 25  1  0
 10 11  2  0
 10 26  1  0
 11 12  1  0
 11 27  1  0
 13 14  1  0
 13 15  1  0
 13 28  1  1
 14 29  1  0
 14 30  1  0
 14 31  1  0
 15 32  1  0
 15 33  1  0
 15 34  1  0
 16 17  1  0
 16 35  1  0
M  END

