
     RDKit          3D

 39 40  0  0  0  0  0  0  0  0999 V2000
    1.5474    0.1499    1.6048 C   0  0  0  0  0  0  0  0  0  0  0  0
    2.4099    0.0532    0.4444 N   0  0  0  0  0  0  0  0  0  0  0  0
    2.6484   -1.2383   -0.1686 C   0  0  0  0  0  0  0  0  0  0  0  0
    3.0011    1.1865   -0.0732 C   0  0  0  0  0  0  0  0  0  0  0  0
    2.7880    2.4658    0.5017 C   0  0  0  0  0  0  0  0  0  0  0  0
    3.3910    3.5977   -0.0319 C   0  0  0  0  0  0  0  0  0  0  0  0
    4.2379    3.5449   -1.1592 C   0  0  0  0  0  0  0  0  0  0  0  0
    4.8384    4.7683   -1.6685 C   0  0  0  0  0  0  0  0  0  0  0  0
    5.6714    4.9159   -2.7344 C   0  0  0  0  0  0  0  0  0  0  0  0
    6.2103    6.1834   -3.1515 C   0  0  0  0  0  0  0  0  0  0  0  0
    7.0436    6.3540   -4.2124 C   0  0  0  0  0  0  0  0  0  0  0  0
    7.6243    7.6047   -4.6885 C   0  0  0  0  0  0  0  0  0  0  0  0
    7.3892    8.8591   -4.0772 C   0  0  0  0  0  0  0  0  0  0  0  0
    7.9653   10.0223   -4.5687 C   0  0  0  0  0  0  0  0  0  0  0  0
    8.8071    9.9807   -5.7002 C   0  0  0  0  0  0  0  0  0  0  0  0
    9.4024   11.1821   -6.2082 C   0  0  0  0  0  0  0  0  0  0  0  0
    9.8846   12.1562   -6.6195 N   0  0  0  0  0  0  0  0  0  0  0  0
    9.0528    8.7413   -6.3215 C   0  0  0  0  0  0  0  0  0  0  0  0
    8.4705    7.5828   -5.8206 C   0  0  0  0  0  0  0  0  0  0  0  0
    4.4462    2.2681   -1.7269 C   0  0  0  0  0  0  0  0  0  0  0  0
    3.8536    1.1261   -1.2094 C   0  0  0  0  0  0  0  0  0  0  0  0
    1.1756   -0.8486    1.8672 H   0  0  0  0  0  0  0  0  0  0  0  0
    0.6704    0.7976    1.4199 H   0  0  0  0  0  0  0  0  0  0  0  0
    2.0785    0.5535    2.4866 H   0  0  0  0  0  0  0  0  0  0  0  0
    2.0940   -2.0099    0.3803 H   0  0  0  0  0  0  0  0  0  0  0  0
    3.7181   -1.5175   -0.1520 H   0  0  0  0  0  0  0  0  0  0  0  0
    2.3129   -1.2690   -1.2217 H   0  0  0  0  0  0  0  0  0  0  0  0
    2.1455    2.5793    1.3739 H   0  0  0  0  0  0  0  0  0  0  0  0
    3.2007    4.5655    0.4415 H   0  0  0  0  0  0  0  0  0  0  0  0
    4.5761    5.6764   -1.1115 H   0  0  0  0  0  0  0  0  0  0  0  0
    5.9644    4.0407   -3.3250 H   0  0  0  0  0  0  0  0  0  0  0  0
    5.9109    7.0525   -2.5543 H   0  0  0  0  0  0  0  0  0  0  0  0
    7.3215    5.4633   -4.7875 H   0  0  0  0  0  0  0  0  0  0  0  0
    6.7431    8.9248   -3.1999 H   0  0  0  0  0  0  0  0  0  0  0  0
    7.7698   10.9793   -4.0808 H   0  0  0  0  0  0  0  0  0  0  0  0
    9.7027    8.6969   -7.1977 H   0  0  0  0  0  0  0  0  0  0  0  0
    8.6705    6.6279   -6.3136 H   0  0  0  0  0  0  0  0  0  0  0  0
    5.0924    2.1619   -2.6013 H   0  0  0  0  0  0  0  0  0  0  0  0
    4.0556    0.1717   -1.6941 H   0  0  0  0  0  0  0  0  0  0  0  0
  1  2  1  0
  1 22  1  0
  1 23  1  0
  1 24  1  0
  2  3  1  0
  2  4  1  0
  3 25  1  0
  3 26  1  0
  3 27  1  0
  4  5  2  0
  4 21  1  0
  5  6  1  0
  5 28  1  0
  6  7  2  0
  6 29  1  0
  7  8  1  0
  7 20  1  0
  8  9  2  0
  8 30  1  0
  9 10  1  0
  9 31  1  0
 10 11  2  0
 10 32  1  0
 11 12  1  0
 11 33  1  0
 12 13  2  0
 12 19  1  0
 13 14  1  0
 13 34  1  0
 14 15  2  0
 14 35  1  0
 15 16  1  0
 15 18  1  0
 16 17  3  0
 18 19  2  0
 18 36  1  0
 19 37  1  0
 20 21  2  0
 20 38  1  0
 21 39  1  0
M  END

