
     RDKit          3D

 42 44  0  0  0  0  0  0  0  0999 V2000
    1.6598   -1.4299   -0.5203 O   0  0  0  0  0  0  0  0  0  0  0  0
    2.6216   -0.9387    0.0336 C   0  0  0  0  0  0  0  0  0  0  0  0
    2.5539    0.2936    0.7183 N   0  0  0  0  0  0  0  0  0  0  0  0
    1.3570    0.9257    1.0275 C   0  0  0  0  0  0  0  0  0  0  0  0
    0.3341    0.3572    1.5867 N   0  0  0  0  0  0  0  0  0  0  0  0
   -0.6915    1.2480    1.7633 C   0  0  0  0  0  0  0  0  0  0  0  0
   -0.4537    2.5345    1.3618 C   0  0  0  0  0  0  0  0  0  0  0  0
    1.1327    2.6420    0.6658 S   0  0  0  0  0  0  0  0  0  0  0  0
    3.8767   -1.5127    0.0444 N   0  0  0  0  0  0  0  0  0  0  0  0
    4.0251   -2.7928   -0.6574 C   0  0  0  0  0  0  0  0  0  0  0  0
    3.6431   -4.0191    0.1816 C   0  0  0  0  0  0  0  0  0  0  0  0
    4.2567   -4.0769    1.5971 C   0  0  0  0  0  0  0  0  0  0  0  0
    3.8449   -3.0234    2.5172 N   0  0  0  0  0  0  0  0  0  0  0  0
    2.4227   -2.9660    2.8375 C   0  0  0  0  0  0  0  0  0  0  0  0
    1.9242   -4.1863    3.5965 C   0  0  0  0  0  0  0  0  0  0  0  0
    2.6865   -4.7570    4.6281 C   0  0  0  0  0  0  0  0  0  0  0  0
    2.2024   -5.8468    5.3550 C   0  0  0  0  0  0  0  0  0  0  0  0
    0.9445   -6.3860    5.0620 C   0  0  0  0  0  0  0  0  0  0  0  0
    0.1790   -5.8285    4.0347 C   0  0  0  0  0  0  0  0  0  0  0  0
    0.6692   -4.7396    3.3058 C   0  0  0  0  0  0  0  0  0  0  0  0
    4.5825   -1.7786    2.4689 C   0  0  0  0  0  0  0  0  0  0  0  0
    4.8912   -1.2213    1.0486 C   0  0  0  0  0  0  0  0  0  0  0  0
    3.3982    0.8479    0.7887 H   0  0  0  0  0  0  0  0  0  0  0  0
   -1.6201    0.9101    2.2273 H   0  0  0  0  0  0  0  0  0  0  0  0
   -1.0988    3.4070    1.4467 H   0  0  0  0  0  0  0  0  0  0  0  0
    5.0783   -2.8624   -0.9793 H   0  0  0  0  0  0  0  0  0  0  0  0
    3.4016   -2.7549   -1.5603 H   0  0  0  0  0  0  0  0  0  0  0  0
    3.9471   -4.9256   -0.3714 H   0  0  0  0  0  0  0  0  0  0  0  0
    2.5456   -4.0633    0.2604 H   0  0  0  0  0  0  0  0  0  0  0  0
    5.3602   -4.0647    1.5353 H   0  0  0  0  0  0  0  0  0  0  0  0
    3.9923   -5.0517    2.0413 H   0  0  0  0  0  0  0  0  0  0  0  0
    1.7696   -2.8098    1.9559 H   0  0  0  0  0  0  0  0  0  0  0  0
    2.2649   -2.0777    3.4717 H   0  0  0  0  0  0  0  0  0  0  0  0
    3.6721   -4.3380    4.8465 H   0  0  0  0  0  0  0  0  0  0  0  0
    2.8090   -6.2792    6.1557 H   0  0  0  0  0  0  0  0  0  0  0  0
    0.5656   -7.2397    5.6301 H   0  0  0  0  0  0  0  0  0  0  0  0
   -0.8025   -6.2458    3.7937 H   0  0  0  0  0  0  0  0  0  0  0  0
    0.0681   -4.3095    2.4991 H   0  0  0  0  0  0  0  0  0  0  0  0
    5.5592   -1.8797    2.9856 H   0  0  0  0  0  0  0  0  0  0  0  0
    4.0095   -1.0298    3.0350 H   0  0  0  0  0  0  0  0  0  0  0  0
    5.8261   -1.6658    0.6761 H   0  0  0  0  0  0  0  0  0  0  0  0
    5.1012   -0.1392    1.1167 H   0  0  0  0  0  0  0  0  0  0  0  0
  1  2  2  0
  2  3  1  0
  2  9  1  0
  3  4  1  0
  3 23  1  0
  4  5  2  0
  4  8  1  0
  5  6  1  0
  6  7  2  0
  6 24  1  0
  7  8  1  0
  7 25  1  0
  9 10  1  0
  9 22  1  0
 10 11  1  0
 10 26  1  0
 10 27  1  0
 11 12  1  0
 11 28  1  0
 11 29  1  0
 12 13  1  0
 12 30  1  0
 12 31  1  0
 13 14  1  0
 13 21  1  0
 14 15  1  0
 14 32  1  0
 14 33  1  0
 15 16  2  0
 15 20  1  0
 16 17  1  0
 16 34  1  0
 17 18  2  0
 17 35  1  0
 18 19  1  0
 18 36  1  0
 19 20  2  0
 19 37  1  0
 20 38  1  0
 21 22  1  0
 21 39  1  0
 21 40  1  0
 22 41  1  0
 22 42  1  0
M  END

