
     RDKit          3D

 49 51  0  0  0  0  0  0  0  0999 V2000
    1.4471   -1.3309   -0.0733 C   0  0  0  0  0  0  0  0  0  0  0  0
    2.9426   -0.2904    0.4024 Si  0  0  1  0  0  4  0  0  0  0  0  0
    4.3960   -1.3860    0.8865 C   0  0  0  0  0  0  0  0  0  0  0  0
    3.4599    0.6906   -1.1388 C   0  0  0  0  0  0  0  0  0  0  0  0
    3.4561    2.0073   -1.4258 C   0  0  0  0  0  0  0  0  0  0  0  0
    3.9076    2.3797   -2.7888 C   0  0  0  0  0  0  0  0  0  0  0  0
    4.2746    1.3632   -3.5943 C   0  0  0  0  0  0  0  0  0  0  0  0
    4.8413    1.3054   -5.4085 Si  0  0  1  0  0  4  0  0  0  0  0  0
    5.9770    2.7817   -5.7083 C   0  0  0  0  0  0  0  0  0  0  0  0
    5.7456   -0.3242   -5.6679 C   0  0  0  0  0  0  0  0  0  0  0  0
    3.2933    1.4039   -6.4905 C   0  0  0  0  0  0  0  0  0  0  0  0
    3.2439    2.2231   -7.6346 C   0  0  0  0  0  0  0  0  0  0  0  0
    2.1084    2.2600   -8.4508 C   0  0  0  0  0  0  0  0  0  0  0  0
    0.9959    1.4756   -8.1348 C   0  0  0  0  0  0  0  0  0  0  0  0
    1.0237    0.6576   -7.0003 C   0  0  0  0  0  0  0  0  0  0  0  0
    2.1590    0.6226   -6.1861 C   0  0  0  0  0  0  0  0  0  0  0  0
    4.0749   -0.1537   -2.6224 S   0  0  1  0  0  0  0  0  0  0  0  0
    5.3868   -0.7640   -2.3499 O   0  0  0  0  0  0  0  0  0  0  0  0
    3.0143   -1.0004   -3.2060 O   0  0  0  0  0  0  0  0  0  0  0  0
    2.5334    0.9688    1.7539 C   0  0  0  0  0  0  0  0  0  0  0  0
    3.5469    1.7704    2.3189 C   0  0  0  0  0  0  0  0  0  0  0  0
    3.2629    2.7017    3.3213 C   0  0  0  0  0  0  0  0  0  0  0  0
    1.9520    2.8506    3.7863 C   0  0  0  0  0  0  0  0  0  0  0  0
    0.9315    2.0658    3.2430 C   0  0  0  0  0  0  0  0  0  0  0  0
    1.2217    1.1372    2.2377 C   0  0  0  0  0  0  0  0  0  0  0  0
    1.6909   -1.9318   -0.9636 H   0  0  0  0  0  0  0  0  0  0  0  0
    0.5785   -0.7039   -0.3302 H   0  0  0  0  0  0  0  0  0  0  0  0
    1.1565   -2.0120    0.7433 H   0  0  0  0  0  0  0  0  0  0  0  0
    4.7451   -1.9656    0.0176 H   0  0  0  0  0  0  0  0  0  0  0  0
    4.1061   -2.0841    1.6887 H   0  0  0  0  0  0  0  0  0  0  0  0
    5.2493   -0.7887    1.2447 H   0  0  0  0  0  0  0  0  0  0  0  0
    3.1379    2.7712   -0.7113 H   0  0  0  0  0  0  0  0  0  0  0  0
    3.9225    3.4278   -3.1004 H   0  0  0  0  0  0  0  0  0  0  0  0
    6.8442    2.7398   -5.0301 H   0  0  0  0  0  0  0  0  0  0  0  0
    5.4600    3.7411   -5.5461 H   0  0  0  0  0  0  0  0  0  0  0  0
    6.3614    2.7778   -6.7417 H   0  0  0  0  0  0  0  0  0  0  0  0
    6.6128   -0.4126   -4.9951 H   0  0  0  0  0  0  0  0  0  0  0  0
    6.0933   -0.4042   -6.7108 H   0  0  0  0  0  0  0  0  0  0  0  0
    5.0791   -1.1768   -5.4638 H   0  0  0  0  0  0  0  0  0  0  0  0
    4.1018    2.8476   -7.9010 H   0  0  0  0  0  0  0  0  0  0  0  0
    2.0927    2.9037   -9.3346 H   0  0  0  0  0  0  0  0  0  0  0  0
    0.1068    1.5030   -8.7706 H   0  0  0  0  0  0  0  0  0  0  0  0
    0.1551    0.0440   -6.7464 H   0  0  0  0  0  0  0  0  0  0  0  0
    2.1595   -0.0172   -5.2979 H   0  0  0  0  0  0  0  0  0  0  0  0
    4.5805    1.6683    1.9731 H   0  0  0  0  0  0  0  0  0  0  0  0
    4.0665    3.3109    3.7439 H   0  0  0  0  0  0  0  0  0  0  0  0
    1.7276    3.5766    4.5723 H   0  0  0  0  0  0  0  0  0  0  0  0
   -0.0949    2.1756    3.6031 H   0  0  0  0  0  0  0  0  0  0  0  0
    0.4071    0.5334    1.8282 H   0  0  0  0  0  0  0  0  0  0  0  0
  2  1  1  6
  1 26  1  0
  1 27  1  0
  1 28  1  0
  2  3  1  0
  2  4  1  0
  2 20  1  0
  3 29  1  0
  3 30  1  0
  3 31  1  0
  4  5  2  0
 17  4  1  1
  5  6  1  0
  5 32  1  0
  6  7  2  0
  6 33  1  0
  7  8  1  0
  7 17  1  0
  8  9  1  6
  8 10  1  0
  8 11  1  0
  9 34  1  0
  9 35  1  0
  9 36  1  0
 10 37  1  0
 10 38  1  0
 10 39  1  0
 11 12  2  0
 11 16  1  0
 12 13  1  0
 12 40  1  0
 13 14  2  0
 13 41  1  0
 14 15  1  0
 14 42  1  0
 15 16  2  0
 15 43  1  0
 16 44  1  0
 17 18  2  0
 17 19  2  0
 20 21  2  0
 20 25  1  0
 21 22  1  0
 21 45  1  0
 22 23  2  0
 22 46  1  0
 23 24  1  0
 23 47  1  0
 24 25  2  0
 24 48  1  0
 25 49  1  0
M  END

