
     RDKit          3D

 33 34  0  0  0  0  0  0  0  0999 V2000
    0.6355    0.5688    0.1354 C   0  0  0  0  0  0  0  0  0  0  0  0
    2.1666    0.6542    0.0728 C   0  0  1  0  0  0  0  0  0  0  0  0
    2.7751   -0.7396    0.3005 C   0  0  0  0  0  0  0  0  0  0  0  0
    4.2358   -0.7706    0.3083 N   0  0  0  0  0  0  0  0  0  0  0  0
    5.0646   -1.0405    1.7364 S   0  0  1  0  0  0  0  0  0  0  0  0
    6.4374   -0.5992    1.4933 O   0  0  0  0  0  0  0  0  0  0  0  0
    4.2279   -0.5380    2.8229 O   0  0  0  0  0  0  0  0  0  0  0  0
    5.1369   -2.8041    1.9560 C   0  0  0  0  0  0  0  0  0  0  0  0
    4.2944   -3.5583    2.7386 C   0  0  0  0  0  0  0  0  0  0  0  0
    4.5895   -4.9501    2.6762 C   0  0  0  0  0  0  0  0  0  0  0  0
    5.6538   -5.2146    1.8463 C   0  0  0  0  0  0  0  0  0  0  0  0
    6.4017   -6.8966    1.4733 Br  0  0  0  0  0  0  0  0  0  0  0  0
    6.3293   -3.7776    1.1412 S   0  0  0  0  0  0  0  0  0  0  0  0
    4.9782   -0.6907   -0.9450 C   0  0  0  0  0  0  0  0  0  0  0  0
    5.5057    0.7015   -1.2869 C   0  0  0  0  0  0  0  0  0  0  0  0
    4.2713    2.0634   -1.2444 S   0  0  2  0  0  0  0  0  0  0  0  0
    4.3861    2.7908   -2.5174 O   0  0  0  0  0  0  0  0  0  0  0  0
    4.4171    2.7644    0.0397 O   0  0  0  0  0  0  0  0  0  0  0  0
    2.6092    1.3000   -1.2447 C   0  0  0  0  0  0  0  0  0  0  0  0
    0.3047    0.1359    1.0927 H   0  0  0  0  0  0  0  0  0  0  0  0
    0.2304   -0.0600   -0.6758 H   0  0  0  0  0  0  0  0  0  0  0  0
    0.1797    1.5666    0.0454 H   0  0  0  0  0  0  0  0  0  0  0  0
    2.5232    1.3049    0.8879 H   0  0  0  0  0  0  0  0  0  0  0  0
    2.4096   -1.4415   -0.4739 H   0  0  0  0  0  0  0  0  0  0  0  0
    2.4217   -1.1167    1.2695 H   0  0  0  0  0  0  0  0  0  0  0  0
    3.5066   -3.1161    3.3491 H   0  0  0  0  0  0  0  0  0  0  0  0
    4.0511   -5.7221    3.2259 H   0  0  0  0  0  0  0  0  0  0  0  0
    4.3184   -1.0673   -1.7432 H   0  0  0  0  0  0  0  0  0  0  0  0
    5.8438   -1.3715   -0.9154 H   0  0  0  0  0  0  0  0  0  0  0  0
    5.9283    0.7293   -2.3012 H   0  0  0  0  0  0  0  0  0  0  0  0
    6.2585    1.0187   -0.5520 H   0  0  0  0  0  0  0  0  0  0  0  0
    2.5503    0.6300   -2.1180 H   0  0  0  0  0  0  0  0  0  0  0  0
    2.0009    2.1886   -1.4764 H   0  0  0  0  0  0  0  0  0  0  0  0
  1  2  1  0
  1 20  1  0
  1 21  1  0
  1 22  1  0
  2  3  1  0
  2 19  1  0
  2 23  1  1
  3  4  1  0
  3 24  1  0
  3 25  1  0
  4  5  1  0
  4 14  1  0
  5  6  2  0
  5  7  2  0
  5  8  1  1
  8  9  2  0
  8 13  1  0
  9 10  1  0
  9 26  1  0
 10 11  2  0
 10 27  1  0
 11 12  1  0
 11 13  1  0
 14 15  1  0
 14 28  1  0
 14 29  1  0
 16 15  1  6
 15 30  1  0
 15 31  1  0
 16 17  2  0
 16 18  2  0
 16 19  1  0
 19 32  1  0
 19 33  1  0
M  END

