
     RDKit          3D

106116  0  0  0  0  0  0  0  0999 V2000
    8.1366   18.1263   -1.7588 C   0  0  0  0  0  0  0  0  0  0  0  0
    7.3451   18.4416   -0.6353 O   0  0  0  0  0  0  0  0  0  0  0  0
    6.8965   17.4402    0.1649 C   0  0  0  0  0  0  0  0  0  0  0  0
    7.1915   16.0834   -0.0235 C   0  0  0  0  0  0  0  0  0  0  0  0
    6.6636   15.1117    0.8351 C   0  0  0  0  0  0  0  0  0  0  0  0
    5.8374   15.4873    1.9038 C   0  0  0  0  0  0  0  0  0  0  0  0
    5.5510   16.8477    2.0998 C   0  0  0  0  0  0  0  0  0  0  0  0
    6.0669   17.8247    1.2504 C   0  0  0  0  0  0  0  0  0  0  0  0
    5.7116   19.1262    1.4567 O   0  0  0  0  0  0  0  0  0  0  0  0
    6.7365   20.0383    1.8234 C   0  0  0  0  0  0  0  0  0  0  0  0
    5.2700   14.4057    2.7465 C   0  0  0  0  0  0  0  0  0  0  0  0
    4.0001   14.4059    3.1875 C   0  0  0  0  0  0  0  0  0  0  0  0
    3.3854   13.2403    3.9018 C   0  0  2  0  0  0  0  0  0  0  0  0
    3.7729   12.3237    3.4278 H   0  0  0  0  0  0  0  0  0  0  0  0
    1.8702   13.2118    3.7364 C   0  0  0  0  0  0  0  0  0  0  0  0
    1.0639   14.3328    3.9976 C   0  0  0  0  0  0  0  0  0  0  0  0
   -0.3201   14.2823    3.8094 C   0  0  0  0  0  0  0  0  0  0  0  0
   -0.9284   13.1112    3.3497 C   0  0  0  0  0  0  0  0  0  0  0  0
   -0.1390   11.9907    3.0777 C   0  0  0  0  0  0  0  0  0  0  0  0
    1.2438   12.0451    3.2691 C   0  0  0  0  0  0  0  0  0  0  0  0
    3.9109   13.1469    5.4026 C   0  0  2  0  0  0  0  0  0  0  0  0
    5.4207   12.8545    5.4013 C   0  0  0  0  0  0  0  0  0  0  0  0
    6.0196   12.4312    6.7006 C   0  0  0  0  0  0  0  0  0  0  0  0
    7.0569   11.8049    6.8289 O   0  0  0  0  0  0  0  0  0  0  0  0
    5.3091   12.8415    7.7656 O   0  0  0  0  0  0  0  0  0  0  0  0
    5.7973   12.4777    9.0748 C   0  0  2  0  0  0  0  0  0  0  0  0
    6.1757   11.4484    9.0168 H   0  0  0  0  0  0  0  0  0  0  0  0
    4.6491   12.6771   10.0991 C   0  0  0  0  0  0  0  0  0  0  0  0
    5.2139   13.7390   11.0712 C   0  0  1  0  0  0  0  0  0  0  0  0
    4.4391   14.2488   11.6625 H   0  0  0  0  0  0  0  0  0  0  0  0
    6.3257   13.0830   11.9199 C   0  0  0  0  0  0  0  0  0  0  0  0
    7.4680   12.8595   10.8783 C   0  0  0  0  0  0  0  0  0  0  0  0
    6.8846   13.4533    9.5740 C   0  0  2  0  0  0  0  0  0  0  0  0
    7.6389   13.6791    8.8090 H   0  0  0  0  0  0  0  0  0  0  0  0
    6.0344   14.6244   10.1092 C   0  0  0  0  0  0  0  0  0  0  0  0
    6.2888   12.8102    4.3277 C   0  0  0  0  0  0  0  0  0  0  0  0
    7.6183   12.0628    4.4943 C   0  0  0  0  0  0  0  0  0  0  0  0
    7.7578   10.9131    4.1592 O   0  0  0  0  0  0  0  0  0  0  0  0
    8.6051   12.8801    4.8812 O   0  0  0  0  0  0  0  0  0  0  0  0
    9.8485   12.2510    5.2705 C   0  0  1  0  0  0  0  0  0  0  0  0
    9.5843   11.3479    5.8360 H   0  0  0  0  0  0  0  0  0  0  0  0
   10.7820   11.9656    4.0582 C   0  0  0  0  0  0  0  0  0  0  0  0
   12.0185   12.8490    4.3461 C   0  0  2  0  0  0  0  0  0  0  0  0
   12.6395   13.0421    3.4587 H   0  0  0  0  0  0  0  0  0  0  0  0
   12.7921   12.2313    5.5322 C   0  0  0  0  0  0  0  0  0  0  0  0
   11.8372   12.4921    6.7405 C   0  0  0  0  0  0  0  0  0  0  0  0
   10.6548   13.2602    6.1029 C   0  0  1  0  0  0  0  0  0  0  0  0
   10.0277   13.8079    6.8192 H   0  0  0  0  0  0  0  0  0  0  0  0
   11.3661   14.0826    5.0073 C   0  0  0  0  0  0  0  0  0  0  0  0
    6.1565   13.3318    3.0487 N   0  0  0  0  0  0  0  0  0  0  0  0
    7.1864   12.9964    2.0351 C   0  0  0  0  0  0  0  0  0  0  0  0
    6.8907   13.6326    0.6786 C   0  0  0  0  0  0  0  0  0  0  0  0
    3.1302   12.0262    6.1001 C   0  0  0  0  0  0  0  0  0  0  0  0
    3.2131   10.6531    5.8913 C   0  0  0  0  0  0  0  0  0  0  0  0
    2.3486    9.8060    6.6001 C   0  0  0  0  0  0  0  0  0  0  0  0
    1.4130   10.3349    7.4984 C   0  0  0  0  0  0  0  0  0  0  0  0
    1.3352   11.7157    7.7157 C   0  0  0  0  0  0  0  0  0  0  0  0
    2.2041   12.5598    7.0182 C   0  0  0  0  0  0  0  0  0  0  0  0
    2.4032   14.0133    7.0850 C   0  0  0  0  0  0  0  0  0  0  0  0
    1.7792   14.9845    7.8737 C   0  0  0  0  0  0  0  0  0  0  0  0
    2.2185   16.3111    7.7916 C   0  0  0  0  0  0  0  0  0  0  0  0
    3.2744   16.6571    6.9389 C   0  0  0  0  0  0  0  0  0  0  0  0
    3.8956   15.6844    6.1401 C   0  0  0  0  0  0  0  0  0  0  0  0
    3.4491   14.3671    6.2041 C   0  0  0  0  0  0  0  0  0  0  0  0
    8.3632   19.0776   -2.2585 H   0  0  0  0  0  0  0  0  0  0  0  0
    7.5991   17.4697   -2.4662 H   0  0  0  0  0  0  0  0  0  0  0  0
    9.0855   17.6381   -1.4714 H   0  0  0  0  0  0  0  0  0  0  0  0
    7.8220   15.7676   -0.8555 H   0  0  0  0  0  0  0  0  0  0  0  0
    4.9204   17.1805    2.9261 H   0  0  0  0  0  0  0  0  0  0  0  0
    6.2455   21.0044    2.0066 H   0  0  0  0  0  0  0  0  0  0  0  0
    7.4851   20.1588    1.0249 H   0  0  0  0  0  0  0  0  0  0  0  0
    7.2435   19.7153    2.7513 H   0  0  0  0  0  0  0  0  0  0  0  0
    3.3804   15.2748    2.9655 H   0  0  0  0  0  0  0  0  0  0  0  0
    1.5158   15.2592    4.3569 H   0  0  0  0  0  0  0  0  0  0  0  0
   -0.9256   15.1673    4.0225 H   0  0  0  0  0  0  0  0  0  0  0  0
   -2.0106   13.0735    3.2002 H   0  0  0  0  0  0  0  0  0  0  0  0
   -0.5999   11.0690    2.7128 H   0  0  0  0  0  0  0  0  0  0  0  0
    1.8511   11.1624    3.0524 H   0  0  0  0  0  0  0  0  0  0  0  0
    4.3701   11.7396   10.6037 H   0  0  0  0  0  0  0  0  0  0  0  0
    3.7604   13.0524    9.5734 H   0  0  0  0  0  0  0  0  0  0  0  0
    5.9883   12.1473   12.3931 H   0  0  0  0  0  0  0  0  0  0  0  0
    6.6496   13.7567   12.7291 H   0  0  0  0  0  0  0  0  0  0  0  0
    7.7434   11.7992   10.7630 H   0  0  0  0  0  0  0  0  0  0  0  0
    8.3837   13.3989   11.1657 H   0  0  0  0  0  0  0  0  0  0  0  0
    5.4244   15.1080    9.3312 H   0  0  0  0  0  0  0  0  0  0  0  0
    6.6325   15.3933   10.6249 H   0  0  0  0  0  0  0  0  0  0  0  0
   11.0239   10.8968    3.9615 H   0  0  0  0  0  0  0  0  0  0  0  0
   10.2860   12.2728    3.1259 H   0  0  0  0  0  0  0  0  0  0  0  0
   13.7610   12.7363    5.6724 H   0  0  0  0  0  0  0  0  0  0  0  0
   13.0036   11.1618    5.3765 H   0  0  0  0  0  0  0  0  0  0  0  0
   12.3233   13.1126    7.5089 H   0  0  0  0  0  0  0  0  0  0  0  0
   11.5088   11.5651    7.2358 H   0  0  0  0  0  0  0  0  0  0  0  0
   12.0969   14.8027    5.4092 H   0  0  0  0  0  0  0  0  0  0  0  0
   10.6653   14.6177    4.3478 H   0  0  0  0  0  0  0  0  0  0  0  0
    7.2363   11.9038    1.9392 H   0  0  0  0  0  0  0  0  0  0  0  0
    8.1708   13.3472    2.3841 H   0  0  0  0  0  0  0  0  0  0  0  0
    5.9936   13.1600    0.2379 H   0  0  0  0  0  0  0  0  0  0  0  0
    7.7304   13.4166    0.0005 H   0  0  0  0  0  0  0  0  0  0  0  0
    3.9490   10.2374    5.1972 H   0  0  0  0  0  0  0  0  0  0  0  0
    2.4067    8.7246    6.4519 H   0  0  0  0  0  0  0  0  0  0  0  0
    0.7425    9.6626    8.0402 H   0  0  0  0  0  0  0  0  0  0  0  0
    0.6110   12.1209    8.4273 H   0  0  0  0  0  0  0  0  0  0  0  0
    0.9652   14.7147    8.5516 H   0  0  0  0  0  0  0  0  0  0  0  0
    1.7423   17.0801    8.4056 H   0  0  0  0  0  0  0  0  0  0  0  0
    3.6214   17.6930    6.8987 H   0  0  0  0  0  0  0  0  0  0  0  0
    4.7277   15.9575    5.4886 H   0  0  0  0  0  0  0  0  0  0  0  0
  1  2  1  0
  1 65  1  0
  1 66  1  0
  1 67  1  0
  2  3  1  0
  3  4  2  0
  3  8  1  0
  4  5  1  0
  4 68  1  0
  5  6  2  0
  5 52  1  0
  6  7  1  0
  6 11  1  0
  7  8  2  0
  7 69  1  0
  8  9  1  0
  9 10  1  0
 10 70  1  0
 10 71  1  0
 10 72  1  0
 11 12  2  0
 11 50  1  0
 12 13  1  0
 12 73  1  0
 13 14  1  6
 13 15  1  0
 13 21  1  0
 15 16  2  0
 15 20  1  0
 16 17  1  0
 16 74  1  0
 17 18  2  0
 17 75  1  0
 18 19  1  0
 18 76  1  0
 19 20  2  0
 19 77  1  0
 20 78  1  0
 21 22  1  6
 21 53  1  0
 21 64  1  0
 22 23  1  0
 22 36  2  0
 23 24  2  0
 23 25  1  0
 25 26  1  0
 26 27  1  6
 26 28  1  0
 26 33  1  0
 28 29  1  0
 28 79  1  0
 28 80  1  0
 29 30  1  1
 29 31  1  0
 29 35  1  0
 31 32  1  0
 31 81  1  0
 31 82  1  0
 32 33  1  0
 32 83  1  0
 32 84  1  0
 33 34  1  6
 33 35  1  0
 35 85  1  0
 35 86  1  0
 36 37  1  0
 36 50  1  0
 37 38  2  0
 37 39  1  0
 39 40  1  0
 40 41  1  1
 40 42  1  0
 40 47  1  0
 42 43  1  0
 42 87  1  0
 42 88  1  0
 43 44  1  6
 43 45  1  0
 43 49  1  0
 45 46  1  0
 45 89  1  0
 45 90  1  0
 46 47  1  0
 46 91  1  0
 46 92  1  0
 47 48  1  1
 47 49  1  0
 49 93  1  0
 49 94  1  0
 50 51  1  0
 51 52  1  0
 51 95  1  0
 51 96  1  0
 52 97  1  0
 52 98  1  0
 53 54  2  0
 53 58  1  0
 54 55  1  0
 54 99  1  0
 55 56  2  0
 55100  1  0
 56 57  1  0
 56101  1  0
 57 58  2  0
 57102  1  0
 58 59  1  0
 59 60  2  0
 59 64  1  0
 60 61  1  0
 60103  1  0
 61 62  2  0
 61104  1  0
 62 63  1  0
 62105  1  0
 63 64  2  0
 63106  1  0
M  END

