
     RDKit          3D

 54 57  0  0  0  0  0  0  0  0999 V2000
    2.2731   -0.2317    3.4432 F   0  0  0  0  0  0  0  0  0  0  0  0
    3.4260   -0.3264    2.7600 C   0  0  0  0  0  0  0  0  0  0  0  0
    4.3971    0.6639    2.9177 C   0  0  0  0  0  0  0  0  0  0  0  0
    5.5908    0.5652    2.2086 C   0  0  0  0  0  0  0  0  0  0  0  0
    5.8198   -0.5183    1.3421 C   0  0  0  0  0  0  0  0  0  0  0  0
    7.0196   -0.5241    0.6965 O   0  0  0  0  0  0  0  0  0  0  0  0
    7.3097   -1.5630   -0.2305 C   0  0  0  0  0  0  0  0  0  0  0  0
    8.6556   -1.3086   -0.8215 C   0  0  0  0  0  0  0  0  0  0  0  0
    9.6828   -2.1809   -1.1031 C   0  0  0  0  0  0  0  0  0  0  0  0
   10.7187   -1.4134   -1.7343 C   0  0  0  0  0  0  0  0  0  0  0  0
   12.0003   -1.7364   -2.2407 C   0  0  0  0  0  0  0  0  0  0  0  0
   12.3668   -3.0417   -2.1510 O   0  0  0  0  0  0  0  0  0  0  0  0
   13.6426   -3.4454   -2.6206 C   0  0  0  0  0  0  0  0  0  0  0  0
   13.7891   -4.9433   -2.4050 C   0  0  0  0  0  0  0  0  0  0  0  0
   12.8092   -5.7883   -3.2180 C   0  0  0  0  0  0  0  0  0  0  0  0
   13.0326   -7.2090   -2.9951 N   0  0  0  0  0  0  0  0  0  0  0  0
   12.1501   -8.0846   -3.7480 C   0  0  0  0  0  0  0  0  0  0  0  0
   12.4715   -9.5472   -3.5300 C   0  0  0  0  0  0  0  0  0  0  0  0
   13.7927   -9.9985   -3.4033 C   0  0  0  0  0  0  0  0  0  0  0  0
   14.0318  -11.3626   -3.2372 C   0  0  0  0  0  0  0  0  0  0  0  0
   12.9385  -12.2351   -3.2039 C   0  0  0  0  0  0  0  0  0  0  0  0
   11.6742  -11.8225   -3.3145 N   0  0  0  0  0  0  0  0  0  0  0  0
   11.4569  -10.5149   -3.4687 C   0  0  0  0  0  0  0  0  0  0  0  0
   12.7843   -0.7157   -2.7818 C   0  0  0  0  0  0  0  0  0  0  0  0
   12.3056    0.6151   -2.8237 C   0  0  0  0  0  0  0  0  0  0  0  0
   11.0525    0.9663   -2.3396 C   0  0  0  0  0  0  0  0  0  0  0  0
   10.2678   -0.0679   -1.8002 C   0  0  0  0  0  0  0  0  0  0  0  0
    9.0031   -0.0424   -1.2553 N   0  0  0  0  0  0  0  0  0  0  0  0
    8.4600    0.7877   -1.0569 H   0  0  0  0  0  0  0  0  0  0  0  0
    4.8348   -1.5067    1.1975 C   0  0  0  0  0  0  0  0  0  0  0  0
    3.6333   -1.4060    1.9108 C   0  0  0  0  0  0  0  0  0  0  0  0
    4.2065    1.4992    3.5944 H   0  0  0  0  0  0  0  0  0  0  0  0
    6.3705    1.3222    2.3133 H   0  0  0  0  0  0  0  0  0  0  0  0
    6.5275   -1.5771   -1.0167 H   0  0  0  0  0  0  0  0  0  0  0  0
    7.3058   -2.5520    0.2607 H   0  0  0  0  0  0  0  0  0  0  0  0
    9.6977   -3.2469   -0.8905 H   0  0  0  0  0  0  0  0  0  0  0  0
   14.4353   -2.9006   -2.0749 H   0  0  0  0  0  0  0  0  0  0  0  0
   13.7473   -3.1948   -3.6940 H   0  0  0  0  0  0  0  0  0  0  0  0
   13.6599   -5.1547   -1.3283 H   0  0  0  0  0  0  0  0  0  0  0  0
   14.8193   -5.2383   -2.6649 H   0  0  0  0  0  0  0  0  0  0  0  0
   12.9581   -5.5834   -4.2945 H   0  0  0  0  0  0  0  0  0  0  0  0
   11.7705   -5.4684   -2.9865 H   0  0  0  0  0  0  0  0  0  0  0  0
   12.9554   -7.4214   -1.9997 H   0  0  0  0  0  0  0  0  0  0  0  0
   12.2791   -7.8445   -4.8210 H   0  0  0  0  0  0  0  0  0  0  0  0
   11.0699   -7.9156   -3.5372 H   0  0  0  0  0  0  0  0  0  0  0  0
   14.6088   -9.2726   -3.4259 H   0  0  0  0  0  0  0  0  0  0  0  0
   15.0491  -11.7485   -3.1348 H   0  0  0  0  0  0  0  0  0  0  0  0
   13.0944  -13.3134   -3.0773 H   0  0  0  0  0  0  0  0  0  0  0  0
   10.4070  -10.2022   -3.5471 H   0  0  0  0  0  0  0  0  0  0  0  0
   13.7765   -0.9277   -3.1793 H   0  0  0  0  0  0  0  0  0  0  0  0
   12.9494    1.3862   -3.2545 H   0  0  0  0  0  0  0  0  0  0  0  0
   10.6942    1.9971   -2.3796 H   0  0  0  0  0  0  0  0  0  0  0  0
    4.9847   -2.3617    0.5386 H   0  0  0  0  0  0  0  0  0  0  0  0
    2.8557   -2.1658    1.8104 H   0  0  0  0  0  0  0  0  0  0  0  0
  1  2  1  0
  2  3  2  0
  2 31  1  0
  3  4  1  0
  3 32  1  0
  4  5  2  0
  4 33  1  0
  5  6  1  0
  5 30  1  0
  6  7  1  0
  7  8  1  0
  7 34  1  0
  7 35  1  0
  8  9  2  0
  8 28  1  0
  9 10  1  0
  9 36  1  0
 10 11  2  0
 10 27  1  0
 11 12  1  0
 11 24  1  0
 12 13  1  0
 13 14  1  0
 13 37  1  0
 13 38  1  0
 14 15  1  0
 14 39  1  0
 14 40  1  0
 15 16  1  0
 15 41  1  0
 15 42  1  0
 16 17  1  0
 16 43  1  0
 17 18  1  0
 17 44  1  0
 17 45  1  0
 18 19  2  0
 18 23  1  0
 19 20  1  0
 19 46  1  0
 20 21  2  0
 20 47  1  0
 21 22  1  0
 21 48  1  0
 22 23  2  0
 23 49  1  0
 24 25  2  0
 24 50  1  0
 25 26  1  0
 25 51  1  0
 26 27  2  0
 26 52  1  0
 27 28  1  0
 28 29  1  0
 30 31  2  0
 30 53  1  0
 31 54  1  0
M  END

