
     RDKit          3D

 28 27  0  0  0  0  0  0  0  0999 V2000
    0.8573   -0.0265   -0.0679 C   0  0  0  0  0  0  0  0  0  0  0  0
    2.3863   -0.0417   -0.0796 C   0  0  0  0  0  0  0  0  0  0  0  0
    2.9837   -1.2105   -0.8694 C   0  0  0  0  0  0  0  0  0  0  0  0
    4.5128   -1.2299   -0.8837 C   0  0  0  0  0  0  0  0  0  0  0  0
    5.1082   -2.3964   -1.6718 C   0  0  0  0  0  0  0  0  0  0  0  0
    6.5592   -2.3559   -1.6454 N   0  0  0  0  0  0  0  0  0  0  0  0
    7.2080   -3.2663   -2.2566 C   0  0  0  0  0  0  0  0  0  0  0  0
    8.5772   -3.3371   -2.3054 N   0  0  0  0  0  0  0  0  0  0  0  0
    9.3931   -2.3446   -1.6403 C   0  0  0  0  0  0  0  0  0  0  0  0
    9.2551   -4.3946   -3.0128 C   0  0  0  0  0  0  0  0  0  0  0  0
    0.4635    0.8262    0.5084 H   0  0  0  0  0  0  0  0  0  0  0  0
    0.4502   -0.9478    0.3821 H   0  0  0  0  0  0  0  0  0  0  0  0
    0.4488    0.0465   -1.0901 H   0  0  0  0  0  0  0  0  0  0  0  0
    2.7634   -0.0769    0.9588 H   0  0  0  0  0  0  0  0  0  0  0  0
    2.7620    0.9087   -0.5005 H   0  0  0  0  0  0  0  0  0  0  0  0
    2.6054   -1.1755   -1.9090 H   0  0  0  0  0  0  0  0  0  0  0  0
    2.6066   -2.1620   -0.4483 H   0  0  0  0  0  0  0  0  0  0  0  0
    4.9021   -1.2736    0.1491 H   0  0  0  0  0  0  0  0  0  0  0  0
    4.9009   -0.2880   -1.3107 H   0  0  0  0  0  0  0  0  0  0  0  0
    4.7254   -2.3569   -2.7133 H   0  0  0  0  0  0  0  0  0  0  0  0
    4.7261   -3.3479   -1.2457 H   0  0  0  0  0  0  0  0  0  0  0  0
    6.7220   -4.0953   -2.8119 H   0  0  0  0  0  0  0  0  0  0  0  0
    8.7266   -1.6198   -1.1563 H   0  0  0  0  0  0  0  0  0  0  0  0
   10.0444   -1.8160   -2.3612 H   0  0  0  0  0  0  0  0  0  0  0  0
   10.0426   -2.8097   -0.8754 H   0  0  0  0  0  0  0  0  0  0  0  0
    8.5216   -5.0754   -3.4691 H   0  0  0  0  0  0  0  0  0  0  0  0
    9.8997   -4.9905   -2.3382 H   0  0  0  0  0  0  0  0  0  0  0  0
    9.9006   -3.9983   -3.8202 H   0  0  0  0  0  0  0  0  0  0  0  0
  1  2  1  0
  1 11  1  0
  1 12  1  0
  1 13  1  0
  2  3  1  0
  2 14  1  0
  2 15  1  0
  3  4  1  0
  3 16  1  0
  3 17  1  0
  4  5  1  0
  4 18  1  0
  4 19  1  0
  5  6  1  0
  5 20  1  0
  5 21  1  0
  6  7  2  0
  7  8  1  0
  7 22  1  0
  8  9  1  0
  8 10  1  0
  9 23  1  0
  9 24  1  0
  9 25  1  0
 10 26  1  0
 10 27  1  0
 10 28  1  0
M  END

