
     RDKit          3D

 40 41  0  0  0  0  0  0  0  0999 V2000
    1.0377    0.1250    0.2928 C   0  0  0  0  0  0  0  0  0  0  0  0
    2.5444    0.0594    0.0067 C   0  0  1  0  0  0  0  0  0  0  0  0
    3.0230   -1.3530   -0.3873 C   0  0  0  0  0  0  0  0  0  0  0  0
    2.5855   -1.7633   -1.7998 C   0  0  0  0  0  0  0  0  0  0  0  0
    3.0184   -0.7278   -2.8452 C   0  0  0  0  0  0  0  0  0  0  0  0
    2.5407    0.6925   -2.4882 C   0  0  2  0  0  0  0  0  0  0  0  0
    2.9258    1.7259   -3.5510 C   0  0  0  0  0  0  0  0  0  0  0  0
    2.9931    1.1005   -1.0622 C   0  0  2  0  0  0  0  0  0  0  0  0
    4.4293    1.3363   -1.0340 N   0  0  0  0  0  0  0  0  0  0  0  0
    5.1063    2.1172   -0.1246 C   0  0  0  0  0  0  0  0  0  0  0  0
    6.5223    2.1563   -0.1502 C   0  0  0  0  0  0  0  0  0  0  0  0
    7.2336    2.9610    0.7299 C   0  0  0  0  0  0  0  0  0  0  0  0
    6.5740    3.7590    1.6710 C   0  0  0  0  0  0  0  0  0  0  0  0
    7.2923    4.6012    2.5025 O   0  0  0  0  0  0  0  0  0  0  0  0
    7.6975    4.0788    3.7011 C   0  0  1  0  0  0  0  0  0  0  0  0
    8.7390    3.2233    3.5203 F   0  0  0  0  0  0  0  0  0  0  0  0
    8.1337    5.0981    4.4494 F   0  0  0  0  0  0  0  0  0  0  0  0
    5.1747    3.7192    1.7116 C   0  0  0  0  0  0  0  0  0  0  0  0
    4.3203    4.6879    2.8895 Cl  0  0  0  0  0  0  0  0  0  0  0  0
    4.4443    2.9141    0.8353 C   0  0  0  0  0  0  0  0  0  0  0  0
    0.7706   -0.5508    1.1211 H   0  0  0  0  0  0  0  0  0  0  0  0
    0.4219   -0.1627   -0.5736 H   0  0  0  0  0  0  0  0  0  0  0  0
    0.7333    1.1431    0.5871 H   0  0  0  0  0  0  0  0  0  0  0  0
    3.0586    0.3342    0.9435 H   0  0  0  0  0  0  0  0  0  0  0  0
    2.6665   -2.0872    0.3548 H   0  0  0  0  0  0  0  0  0  0  0  0
    4.1260   -1.3791   -0.3338 H   0  0  0  0  0  0  0  0  0  0  0  0
    1.4878   -1.8766   -1.8362 H   0  0  0  0  0  0  0  0  0  0  0  0
    3.0007   -2.7538   -2.0502 H   0  0  0  0  0  0  0  0  0  0  0  0
    2.6327   -1.0021   -3.8417 H   0  0  0  0  0  0  0  0  0  0  0  0
    4.1215   -0.7413   -2.9463 H   0  0  0  0  0  0  0  0  0  0  0  0
    1.4381    0.6568   -2.4493 H   0  0  0  0  0  0  0  0  0  0  0  0
    4.0180    1.8060   -3.6665 H   0  0  0  0  0  0  0  0  0  0  0  0
    2.5491    2.7281   -3.2902 H   0  0  0  0  0  0  0  0  0  0  0  0
    2.5042    1.4523   -4.5316 H   0  0  0  0  0  0  0  0  0  0  0  0
    2.5021    2.0617   -0.8321 H   0  0  0  0  0  0  0  0  0  0  0  0
    5.0050    0.7377   -1.6113 H   0  0  0  0  0  0  0  0  0  0  0  0
    7.0620    1.5486   -0.8816 H   0  0  0  0  0  0  0  0  0  0  0  0
    8.3243    2.9925    0.7012 H   0  0  0  0  0  0  0  0  0  0  0  0
    6.8944    3.5339    4.2286 H   0  0  0  0  0  0  0  0  0  0  0  0
    3.3589    2.9209    0.9159 H   0  0  0  0  0  0  0  0  0  0  0  0
  1  2  1  0
  1 21  1  0
  1 22  1  0
  1 23  1  0
  2  3  1  0
  2  8  1  0
  2 24  1  1
  3  4  1  0
  3 25  1  0
  3 26  1  0
  4  5  1  0
  4 27  1  0
  4 28  1  0
  5  6  1  0
  5 29  1  0
  5 30  1  0
  6  7  1  0
  6  8  1  0
  6 31  1  1
  7 32  1  0
  7 33  1  0
  7 34  1  0
  8  9  1  0
  8 35  1  1
  9 10  1  0
  9 36  1  0
 10 11  2  0
 10 20  1  0
 11 12  1  0
 11 37  1  0
 12 13  2  0
 12 38  1  0
 13 14  1  0
 13 18  1  0
 14 15  1  0
 15 16  1  0
 15 17  1  0
 15 39  1  1
 18 19  1  0
 18 20  2  0
 20 40  1  0
M  END

