
     RDKit          3D

 51 55  0  0  0  0  0  0  0  0999 V2000
    1.3875    0.1162    0.6169 O   0  0  0  0  0  0  0  0  0  0  0  0
    2.5786   -0.1103    0.4620 C   0  0  0  0  0  0  0  0  0  0  0  0
    3.5676    0.8539    0.6201 N   0  0  0  0  0  0  0  0  0  0  0  0
    4.8428    0.3508    0.3893 C   0  0  0  0  0  0  0  0  0  0  0  0
    6.0711    1.0021    0.4496 C   0  0  0  0  0  0  0  0  0  0  0  0
    7.2248    0.2556    0.1682 C   0  0  0  0  0  0  0  0  0  0  0  0
    7.1381   -1.1014   -0.1624 C   0  0  0  0  0  0  0  0  0  0  0  0
    5.8962   -1.7496   -0.2208 C   0  0  0  0  0  0  0  0  0  0  0  0
    4.7316   -1.0248    0.0561 C   0  0  0  0  0  0  0  0  0  0  0  0
    3.3051   -1.3605    0.0905 C   0  0  0  0  0  0  0  0  0  0  0  0
    2.7414   -2.5856   -0.1676 C   0  0  0  0  0  0  0  0  0  0  0  0
    3.5765   -3.6097   -0.4911 O   0  0  0  0  0  0  0  0  0  0  0  0
    2.8588   -4.8235   -0.7345 C   0  0  0  0  0  0  0  0  0  0  0  0
    1.4228   -4.4550   -0.5225 C   0  0  0  0  0  0  0  0  0  0  0  0
    0.2748   -5.2321   -0.6243 C   0  0  0  0  0  0  0  0  0  0  0  0
   -0.9796   -4.6446   -0.3813 C   0  0  0  0  0  0  0  0  0  0  0  0
   -2.2389   -5.4720   -0.4290 C   0  0  0  0  0  0  0  0  0  0  0  0
   -2.5904   -6.0844    0.9586 C   0  0  0  0  0  0  0  0  0  0  0  0
   -3.7860   -6.8987    1.0295 N   0  0  0  0  0  0  0  0  0  0  0  0
   -3.7340   -8.1667    0.3166 C   0  0  0  0  0  0  0  0  0  0  0  0
   -4.8672   -9.0947    0.7652 C   0  0  0  0  0  0  0  0  0  0  0  0
   -6.2288   -8.4076    0.6150 C   0  0  0  0  0  0  0  0  0  0  0  0
   -6.2251   -7.0514    1.3288 C   0  0  0  0  0  0  0  0  0  0  0  0
   -5.0472   -6.1908    0.8615 C   0  0  0  0  0  0  0  0  0  0  0  0
   -1.0281   -3.2784   -0.0362 C   0  0  0  0  0  0  0  0  0  0  0  0
    0.1185   -2.4918    0.0681 C   0  0  0  0  0  0  0  0  0  0  0  0
    1.3645   -3.0917   -0.1790 C   0  0  0  0  0  0  0  0  0  0  0  0
    3.3394    1.8062    0.8758 H   0  0  0  0  0  0  0  0  0  0  0  0
    6.1354    2.0618    0.7081 H   0  0  0  0  0  0  0  0  0  0  0  0
    8.2016    0.7443    0.2088 H   0  0  0  0  0  0  0  0  0  0  0  0
    8.0493   -1.6648   -0.3782 H   0  0  0  0  0  0  0  0  0  0  0  0
    5.8334   -2.8059   -0.4785 H   0  0  0  0  0  0  0  0  0  0  0  0
    3.2232   -5.5960   -0.0342 H   0  0  0  0  0  0  0  0  0  0  0  0
    3.0785   -5.1643   -1.7619 H   0  0  0  0  0  0  0  0  0  0  0  0
    0.3382   -6.2896   -0.8982 H   0  0  0  0  0  0  0  0  0  0  0  0
   -2.1222   -6.2845   -1.1645 H   0  0  0  0  0  0  0  0  0  0  0  0
   -3.0791   -4.8468   -0.7718 H   0  0  0  0  0  0  0  0  0  0  0  0
   -2.6870   -5.2603    1.6868 H   0  0  0  0  0  0  0  0  0  0  0  0
   -1.7338   -6.6946    1.2952 H   0  0  0  0  0  0  0  0  0  0  0  0
   -2.7573   -8.6391    0.5157 H   0  0  0  0  0  0  0  0  0  0  0  0
   -3.8018   -8.0318   -0.7898 H   0  0  0  0  0  0  0  0  0  0  0  0
   -4.7042   -9.3644    1.8231 H   0  0  0  0  0  0  0  0  0  0  0  0
   -4.8331  -10.0293    0.1804 H   0  0  0  0  0  0  0  0  0  0  0  0
   -7.0351   -9.0510    1.0048 H   0  0  0  0  0  0  0  0  0  0  0  0
   -6.4429   -8.2536   -0.4592 H   0  0  0  0  0  0  0  0  0  0  0  0
   -6.1379   -7.2073    2.4180 H   0  0  0  0  0  0  0  0  0  0  0  0
   -7.1705   -6.5120    1.1504 H   0  0  0  0  0  0  0  0  0  0  0  0
   -5.0042   -5.2577    1.4479 H   0  0  0  0  0  0  0  0  0  0  0  0
   -5.2241   -5.8912   -0.1993 H   0  0  0  0  0  0  0  0  0  0  0  0
   -2.0019   -2.8159    0.1491 H   0  0  0  0  0  0  0  0  0  0  0  0
    0.0728   -1.4355    0.3300 H   0  0  0  0  0  0  0  0  0  0  0  0
  1  2  2  0
  2  3  1  0
  2 10  1  0
  3  4  1  0
  3 28  1  0
  4  5  2  0
  4  9  1  0
  5  6  1  0
  5 29  1  0
  6  7  2  0
  6 30  1  0
  7  8  1  0
  7 31  1  0
  8  9  2  0
  8 32  1  0
  9 10  1  0
 10 11  2  0
 11 12  1  0
 11 27  1  0
 12 13  1  0
 13 14  1  0
 13 33  1  0
 13 34  1  0
 14 15  1  0
 14 27  2  0
 15 16  2  0
 15 35  1  0
 16 17  1  0
 16 25  1  0
 17 18  1  0
 17 36  1  0
 17 37  1  0
 18 19  1  0
 18 38  1  0
 18 39  1  0
 19 20  1  0
 19 24  1  0
 20 21  1  0
 20 40  1  0
 20 41  1  0
 21 22  1  0
 21 42  1  0
 21 43  1  0
 22 23  1  0
 22 44  1  0
 22 45  1  0
 23 24  1  0
 23 46  1  0
 23 47  1  0
 24 48  1  0
 24 49  1  0
 25 26  2  0
 25 50  1  0
 26 27  1  0
 26 51  1  0
M  END

