
     RDKit          3D

 28 28  0  0  0  0  0  0  0  0999 V2000
    1.8183    0.6832   -1.4912 C   0  0  0  0  0  0  0  0  0  0  0  0
    3.0190    0.2510   -0.6415 C   0  0  1  0  0  0  0  0  0  0  0  0
    4.1215   -0.3877   -1.4931 C   0  0  0  0  0  0  0  0  0  0  0  0
    3.5434    1.4403    0.1623 C   0  0  0  0  0  0  0  0  0  0  0  0
    4.5657    0.9907    1.0365 O   0  0  0  0  0  0  0  0  0  0  0  0
    5.2006    1.8712    1.8495 C   0  0  0  0  0  0  0  0  0  0  0  0
    4.9205    3.2454    1.9066 C   0  0  0  0  0  0  0  0  0  0  0  0
    5.6418    4.0569    2.7914 C   0  0  0  0  0  0  0  0  0  0  0  0
    6.6304    3.5239    3.6143 C   0  0  0  0  0  0  0  0  0  0  0  0
    6.9137    2.1463    3.5624 C   0  0  0  0  0  0  0  0  0  0  0  0
    7.9708    1.5542    4.4404 C   0  0  0  0  0  0  0  0  0  0  0  0
    9.7843    1.6256    3.6091 Br  0  0  0  0  0  0  0  0  0  0  0  0
    6.1978    1.3327    2.6803 C   0  0  0  0  0  0  0  0  0  0  0  0
    1.4053   -0.1718   -2.0489 H   0  0  0  0  0  0  0  0  0  0  0  0
    2.1073    1.4500   -2.2306 H   0  0  0  0  0  0  0  0  0  0  0  0
    1.0071    1.1015   -0.8729 H   0  0  0  0  0  0  0  0  0  0  0  0
    2.6736   -0.4976    0.0947 H   0  0  0  0  0  0  0  0  0  0  0  0
    4.4888    0.3195   -2.2571 H   0  0  0  0  0  0  0  0  0  0  0  0
    3.7466   -1.2809   -2.0177 H   0  0  0  0  0  0  0  0  0  0  0  0
    4.9773   -0.6881   -0.8714 H   0  0  0  0  0  0  0  0  0  0  0  0
    2.7232    1.8989    0.7467 H   0  0  0  0  0  0  0  0  0  0  0  0
    3.9411    2.2165   -0.5211 H   0  0  0  0  0  0  0  0  0  0  0  0
    4.1513    3.6897    1.2753 H   0  0  0  0  0  0  0  0  0  0  0  0
    5.4186    5.1262    2.8328 H   0  0  0  0  0  0  0  0  0  0  0  0
    7.1887    4.1701    4.2960 H   0  0  0  0  0  0  0  0  0  0  0  0
    7.8017    0.4906    4.6425 H   0  0  0  0  0  0  0  0  0  0  0  0
    8.0823    2.0983    5.3852 H   0  0  0  0  0  0  0  0  0  0  0  0
    6.3982    0.2609    2.6144 H   0  0  0  0  0  0  0  0  0  0  0  0
  1  2  1  0
  1 14  1  0
  1 15  1  0
  1 16  1  0
  2  3  1  0
  2  4  1  0
  2 17  1  1
  3 18  1  0
  3 19  1  0
  3 20  1  0
  4  5  1  0
  4 21  1  0
  4 22  1  0
  5  6  1  0
  6  7  2  0
  6 13  1  0
  7  8  1  0
  7 23  1  0
  8  9  2  0
  8 24  1  0
  9 10  1  0
  9 25  1  0
 10 11  1  0
 10 13  2  0
 11 12  1  0
 11 26  1  0
 11 27  1  0
 13 28  1  0
M  END

