
     RDKit          3D

 53 55  0  0  0  0  0  0  0  0999 V2000
    0.6824   -0.1058    0.7208 C   0  0  0  0  0  0  0  0  0  0  0  0
    1.9266    0.2888   -0.0788 C   0  0  1  0  0  0  0  0  0  0  0  0
    1.6107    1.1778   -1.1296 O   0  0  0  0  0  0  0  0  0  0  0  0
    3.0207    0.8742    0.8217 C   0  0  2  0  0  0  0  0  0  0  0  0
    4.4158    1.1216    0.1921 C   0  0  0  0  0  0  0  0  0  0  0  0
    4.8457    1.6072   -0.8134 O   0  0  0  0  0  0  0  0  0  0  0  0
    5.0571    0.4597    1.2614 N   0  0  0  0  0  0  0  0  0  0  0  0
    6.0112   -0.5997    1.1897 C   0  0  0  0  0  0  0  0  0  0  0  0
    7.3917   -0.2966    0.7744 C   0  0  0  0  0  0  0  0  0  0  0  0
    8.2051   -1.0927    0.3615 O   0  0  0  0  0  0  0  0  0  0  0  0
    7.6438    1.0324    0.8852 O   0  0  0  0  0  0  0  0  0  0  0  0
    8.9089    1.4926    0.4579 C   0  0  0  0  0  0  0  0  0  0  0  0
    9.8518    1.3771    1.5047 O   0  0  0  0  0  0  0  0  0  0  0  0
   10.0206    2.4457    2.3383 C   0  0  0  0  0  0  0  0  0  0  0  0
    9.4499    3.4931    2.1838 O   0  0  0  0  0  0  0  0  0  0  0  0
   11.0188    2.1236    3.4551 C   0  0  1  0  0  0  0  0  0  0  0  0
   12.3682    1.7184    2.8233 C   0  0  0  0  0  0  0  0  0  0  0  0
   11.1929    3.3711    4.3329 C   0  0  0  0  0  0  0  0  0  0  0  0
   10.4601    0.9524    4.2927 C   0  0  0  0  0  0  0  0  0  0  0  0
    5.4038   -1.7848    1.5128 C   0  0  0  0  0  0  0  0  0  0  0  0
    5.8605   -3.4441    1.7894 S   0  0  0  0  0  0  0  0  0  0  0  0
    7.6584   -3.6582    1.6289 C   0  0  1  0  0  0  0  0  0  0  0  0
    8.5880   -3.2619    2.8007 C   0  0  0  0  0  0  0  0  0  0  0  0
    9.2351   -4.5828    2.6814 N   0  0  0  0  0  0  0  0  0  0  0  0
    8.1049   -5.1169    1.9027 C   0  0  0  0  0  0  0  0  0  0  0  0
    3.8952   -1.5558    1.7126 C   0  0  0  0  0  0  0  0  0  0  0  0
    3.7913   -0.0223    1.8452 C   0  0  2  0  0  0  0  0  0  0  0  0
    3.6660    0.2763    2.8987 H   0  0  0  0  0  0  0  0  0  0  0  0
   -0.0879   -0.4995    0.0408 H   0  0  0  0  0  0  0  0  0  0  0  0
    0.2623    0.7713    1.2427 H   0  0  0  0  0  0  0  0  0  0  0  0
    0.9032   -0.8742    1.4792 H   0  0  0  0  0  0  0  0  0  0  0  0
    2.3220   -0.6070   -0.5869 H   0  0  0  0  0  0  0  0  0  0  0  0
    1.3544    2.0291   -0.7484 H   0  0  0  0  0  0  0  0  0  0  0  0
    2.6295    1.7846    1.3108 H   0  0  0  0  0  0  0  0  0  0  0  0
    8.7693    2.5439    0.1830 H   0  0  0  0  0  0  0  0  0  0  0  0
    9.2835    0.8721   -0.3642 H   0  0  0  0  0  0  0  0  0  0  0  0
   12.7804    2.5327    2.2060 H   0  0  0  0  0  0  0  0  0  0  0  0
   12.2622    0.8260    2.1904 H   0  0  0  0  0  0  0  0  0  0  0  0
   13.0986    1.4960    3.6176 H   0  0  0  0  0  0  0  0  0  0  0  0
   11.5745    4.2208    3.7475 H   0  0  0  0  0  0  0  0  0  0  0  0
   11.9051    3.1617    5.1464 H   0  0  0  0  0  0  0  0  0  0  0  0
   10.2367    3.6823    4.7787 H   0  0  0  0  0  0  0  0  0  0  0  0
   10.3282    0.0494    3.6794 H   0  0  0  0  0  0  0  0  0  0  0  0
    9.4874    1.2112    4.7410 H   0  0  0  0  0  0  0  0  0  0  0  0
   11.1573    0.7160    5.1125 H   0  0  0  0  0  0  0  0  0  0  0  0
    7.9977   -3.2583    0.6698 H   0  0  0  0  0  0  0  0  0  0  0  0
    8.0283   -3.0971    3.7417 H   0  0  0  0  0  0  0  0  0  0  0  0
    9.2467   -2.3976    2.6137 H   0  0  0  0  0  0  0  0  0  0  0  0
    9.4434   -5.0633    3.5548 H   0  0  0  0  0  0  0  0  0  0  0  0
    7.3552   -5.6829    2.4922 H   0  0  0  0  0  0  0  0  0  0  0  0
    8.3798   -5.7197    1.0207 H   0  0  0  0  0  0  0  0  0  0  0  0
    3.5108   -2.0814    2.5989 H   0  0  0  0  0  0  0  0  0  0  0  0
    3.3594   -1.9656    0.8382 H   0  0  0  0  0  0  0  0  0  0  0  0
  1  2  1  0
  1 29  1  0
  1 30  1  0
  1 31  1  0
  2  3  1  0
  2  4  1  0
  2 32  1  6
  3 33  1  0
  4  5  1  0
  4 27  1  0
  4 34  1  1
  5  6  2  0
  5  7  1  0
  7  8  1  0
  7 27  1  0
  8  9  1  0
  8 20  2  0
  9 10  2  0
  9 11  1  0
 11 12  1  0
 12 13  1  0
 12 35  1  0
 12 36  1  0
 13 14  1  0
 14 15  2  0
 16 14  1  6
 16 17  1  0
 16 18  1  0
 16 19  1  0
 17 37  1  0
 17 38  1  0
 17 39  1  0
 18 40  1  0
 18 41  1  0
 18 42  1  0
 19 43  1  0
 19 44  1  0
 19 45  1  0
 20 21  1  0
 20 26  1  0
 21 22  1  0
 22 23  1  0
 22 25  1  0
 22 46  1  6
 23 24  1  0
 23 47  1  0
 23 48  1  0
 24 25  1  0
 24 49  1  0
 25 50  1  0
 25 51  1  0
 26 27  1  0
 26 52  1  0
 26 53  1  0
 27 28  1  1
M  END

