
     RDKit          3D

 42 43  0  0  0  0  0  0  0  0999 V2000
    2.8560   -0.2768    2.0907 C   0  0  0  0  0  0  0  0  0  0  0  0
    3.3032   -0.1256    0.6605 C   0  0  0  0  0  0  0  0  0  0  0  0
    3.7858    1.1017    0.0975 C   0  0  0  0  0  0  0  0  0  0  0  0
    4.1510    0.9949   -1.2198 C   0  0  0  0  0  0  0  0  0  0  0  0
    3.9127   -0.6113   -1.8064 S   0  0  0  0  0  0  0  0  0  0  0  0
    3.3187   -1.1551   -0.2605 C   0  0  0  0  0  0  0  0  0  0  0  0
    2.8739   -2.5815   -0.0796 C   0  0  0  0  0  0  0  0  0  0  0  0
    1.4255   -2.6816    0.0922 N   0  0  0  0  0  0  0  0  0  0  0  0
    0.8812   -4.0418    0.0649 C   0  0  1  0  0  0  0  0  0  0  0  0
    1.2722   -4.8213    1.3323 C   0  0  0  0  0  0  0  0  0  0  0  0
   -0.6313   -3.9957   -0.0967 C   0  0  0  0  0  0  0  0  0  0  0  0
   -1.2924   -4.9210   -0.9148 C   0  0  0  0  0  0  0  0  0  0  0  0
   -2.6852   -4.9113   -1.0341 C   0  0  0  0  0  0  0  0  0  0  0  0
   -3.4694   -3.9750   -0.3452 C   0  0  0  0  0  0  0  0  0  0  0  0
   -4.9865   -3.9698   -0.4861 C   0  0  1  0  0  0  0  0  0  0  0  0
   -5.6907   -4.2544    0.8520 C   0  0  0  0  0  0  0  0  0  0  0  0
   -5.5021   -2.6667   -1.1214 C   0  0  0  0  0  0  0  0  0  0  0  0
   -2.8016   -3.0456    0.4706 C   0  0  0  0  0  0  0  0  0  0  0  0
   -1.4114   -3.0550    0.5956 C   0  0  0  0  0  0  0  0  0  0  0  0
    2.4088    0.6570    2.4659 H   0  0  0  0  0  0  0  0  0  0  0  0
    3.7041   -0.5192    2.7556 H   0  0  0  0  0  0  0  0  0  0  0  0
    2.1084   -1.0768    2.1846 H   0  0  0  0  0  0  0  0  0  0  0  0
    3.8550    2.0335    0.6632 H   0  0  0  0  0  0  0  0  0  0  0  0
    4.5469    1.7695   -1.8751 H   0  0  0  0  0  0  0  0  0  0  0  0
    3.3686   -2.9996    0.8137 H   0  0  0  0  0  0  0  0  0  0  0  0
    3.2400   -3.1891   -0.9375 H   0  0  0  0  0  0  0  0  0  0  0  0
    0.9703   -2.1223   -0.6283 H   0  0  0  0  0  0  0  0  0  0  0  0
    1.2859   -4.6102   -0.8039 H   0  0  0  0  0  0  0  0  0  0  0  0
    0.8899   -4.3100    2.2296 H   0  0  0  0  0  0  0  0  0  0  0  0
    2.3648   -4.9211    1.4288 H   0  0  0  0  0  0  0  0  0  0  0  0
    0.8466   -5.8358    1.3030 H   0  0  0  0  0  0  0  0  0  0  0  0
   -0.7099   -5.6609   -1.4724 H   0  0  0  0  0  0  0  0  0  0  0  0
   -3.1728   -5.6453   -1.6828 H   0  0  0  0  0  0  0  0  0  0  0  0
   -5.2437   -4.7942   -1.1739 H   0  0  0  0  0  0  0  0  0  0  0  0
   -5.4904   -3.4594    1.5891 H   0  0  0  0  0  0  0  0  0  0  0  0
   -5.3512   -5.2068    1.2884 H   0  0  0  0  0  0  0  0  0  0  0  0
   -6.7831   -4.3116    0.7148 H   0  0  0  0  0  0  0  0  0  0  0  0
   -5.2920   -1.7956   -0.4789 H   0  0  0  0  0  0  0  0  0  0  0  0
   -6.5930   -2.7107   -1.2742 H   0  0  0  0  0  0  0  0  0  0  0  0
   -5.0279   -2.4825   -2.0981 H   0  0  0  0  0  0  0  0  0  0  0  0
   -3.3752   -2.2957    1.0228 H   0  0  0  0  0  0  0  0  0  0  0  0
   -0.9157   -2.3187    1.2320 H   0  0  0  0  0  0  0  0  0  0  0  0
  1  2  1  0
  1 20  1  0
  1 21  1  0
  1 22  1  0
  2  3  1  0
  2  6  2  0
  3  4  2  0
  3 23  1  0
  4  5  1  0
  4 24  1  0
  5  6  1  0
  6  7  1  0
  7  8  1  0
  7 25  1  0
  7 26  1  0
  8  9  1  0
  8 27  1  0
  9 10  1  0
  9 11  1  0
  9 28  1  6
 10 29  1  0
 10 30  1  0
 10 31  1  0
 11 12  2  0
 11 19  1  0
 12 13  1  0
 12 32  1  0
 13 14  2  0
 13 33  1  0
 14 15  1  0
 14 18  1  0
 15 16  1  0
 15 17  1  0
 15 34  1  6
 16 35  1  0
 16 36  1  0
 16 37  1  0
 17 38  1  0
 17 39  1  0
 17 40  1  0
 18 19  2  0
 18 41  1  0
 19 42  1  0
M  END

