
     RDKit          3D

 56 59  0  0  0  0  0  0  0  0999 V2000
    1.2926    6.3551   -6.9932 O   0  0  0  0  0  0  0  0  0  0  0  0
    1.7470    6.3168   -5.8644 C   0  0  0  0  0  0  0  0  0  0  0  0
    1.3280    5.2216   -4.8787 C   0  0  0  0  0  0  0  0  0  0  0  0
    2.5643    3.8913   -4.6237 S   0  0  0  0  0  0  0  0  0  0  0  0
    3.5351    4.5263   -3.2689 C   0  0  0  0  0  0  0  0  0  0  0  0
    3.4000    5.7916   -2.9077 N   0  0  0  0  0  0  0  0  0  0  0  0
    3.9956    6.2260   -1.7842 C   0  0  0  0  0  0  0  0  0  0  0  0
    4.7086    5.3392   -0.9903 C   0  0  0  0  0  0  0  0  0  0  0  0
    4.9063    4.0714   -1.3668 N   0  0  0  0  0  0  0  0  0  0  0  0
    4.3841    3.6372   -2.5129 C   0  0  0  0  0  0  0  0  0  0  0  0
    4.6178    2.3264   -2.8944 N   0  0  0  0  0  0  0  0  0  0  0  0
    5.1304    1.4035   -1.8784 C   0  0  0  0  0  0  0  0  0  0  0  0
    4.7656   -0.0391   -2.2425 C   0  0  0  0  0  0  0  0  0  0  0  0
    5.2385   -0.4563   -3.6488 C   0  0  2  0  0  0  0  0  0  0  0  0
    6.7641   -0.7308   -3.6950 C   0  0  0  0  0  0  0  0  0  0  0  0
    7.2575   -1.3129   -5.0029 C   0  0  0  0  0  0  0  0  0  0  0  0
    7.9836   -0.5380   -5.9213 C   0  0  0  0  0  0  0  0  0  0  0  0
    8.4218   -1.0772   -7.1354 C   0  0  0  0  0  0  0  0  0  0  0  0
    8.1412   -2.4082   -7.4535 C   0  0  0  0  0  0  0  0  0  0  0  0
    7.4229   -3.1953   -6.5472 C   0  0  0  0  0  0  0  0  0  0  0  0
    6.9881   -2.6517   -5.3363 C   0  0  0  0  0  0  0  0  0  0  0  0
    4.7664    0.6023   -4.6640 C   0  0  0  0  0  0  0  0  0  0  0  0
    5.1286    2.0258   -4.2406 C   0  0  0  0  0  0  0  0  0  0  0  0
    2.6365    7.2179   -5.3373 N   0  0  0  0  0  0  0  0  0  0  0  0
    3.2017    8.3288   -5.9663 C   0  0  0  0  0  0  0  0  0  0  0  0
    2.9564    8.7046   -7.2982 C   0  0  0  0  0  0  0  0  0  0  0  0
    3.5812    9.8405   -7.8080 C   0  0  0  0  0  0  0  0  0  0  0  0
    3.3352   10.1831   -9.0819 F   0  0  0  0  0  0  0  0  0  0  0  0
    4.4454   10.6305   -7.0551 C   0  0  0  0  0  0  0  0  0  0  0  0
    4.6907   10.2605   -5.7285 C   0  0  0  0  0  0  0  0  0  0  0  0
    4.0757    9.1333   -5.2075 C   0  0  0  0  0  0  0  0  0  0  0  0
    4.3100    8.7781   -3.9235 F   0  0  0  0  0  0  0  0  0  0  0  0
    0.4613    4.7116   -5.3179 H   0  0  0  0  0  0  0  0  0  0  0  0
    1.0617    5.6348   -3.8951 H   0  0  0  0  0  0  0  0  0  0  0  0
    3.8746    7.2812   -1.5258 H   0  0  0  0  0  0  0  0  0  0  0  0
    5.1429    5.6541   -0.0354 H   0  0  0  0  0  0  0  0  0  0  0  0
    4.6962    1.6781   -0.9088 H   0  0  0  0  0  0  0  0  0  0  0  0
    6.2266    1.5218   -1.7647 H   0  0  0  0  0  0  0  0  0  0  0  0
    3.6678   -0.1370   -2.1934 H   0  0  0  0  0  0  0  0  0  0  0  0
    5.1822   -0.7168   -1.4783 H   0  0  0  0  0  0  0  0  0  0  0  0
    4.7408   -1.4082   -3.9018 H   0  0  0  0  0  0  0  0  0  0  0  0
    7.0007   -1.4340   -2.8778 H   0  0  0  0  0  0  0  0  0  0  0  0
    7.3273    0.1901   -3.4745 H   0  0  0  0  0  0  0  0  0  0  0  0
    8.2159    0.5034   -5.6794 H   0  0  0  0  0  0  0  0  0  0  0  0
    8.9872   -0.4540   -7.8333 H   0  0  0  0  0  0  0  0  0  0  0  0
    8.4840   -2.8327   -8.4006 H   0  0  0  0  0  0  0  0  0  0  0  0
    7.2048   -4.2403   -6.7830 H   0  0  0  0  0  0  0  0  0  0  0  0
    6.4351   -3.2808   -4.6320 H   0  0  0  0  0  0  0  0  0  0  0  0
    3.6695    0.5430   -4.7610 H   0  0  0  0  0  0  0  0  0  0  0  0
    5.1889    0.4021   -5.6614 H   0  0  0  0  0  0  0  0  0  0  0  0
    4.7263    2.7443   -4.9660 H   0  0  0  0  0  0  0  0  0  0  0  0
    6.2300    2.1630   -4.2454 H   0  0  0  0  0  0  0  0  0  0  0  0
    2.9508    7.0107   -4.3804 H   0  0  0  0  0  0  0  0  0  0  0  0
    2.2858    8.1133   -7.9167 H   0  0  0  0  0  0  0  0  0  0  0  0
    4.9096   11.5107   -7.5017 H   0  0  0  0  0  0  0  0  0  0  0  0
    5.3574   10.8407   -5.0878 H   0  0  0  0  0  0  0  0  0  0  0  0
  1  2  2  0
  2  3  1  0
  2 24  1  0
  3  4  1  0
  3 33  1  0
  3 34  1  0
  4  5  1  0
  5  6  2  0
  5 10  1  0
  6  7  1  0
  7  8  2  0
  7 35  1  0
  8  9  1  0
  8 36  1  0
  9 10  2  0
 10 11  1  0
 11 12  1  0
 11 23  1  0
 12 13  1  0
 12 37  1  0
 12 38  1  0
 13 14  1  0
 13 39  1  0
 13 40  1  0
 14 15  1  0
 14 22  1  0
 14 41  1  6
 15 16  1  0
 15 42  1  0
 15 43  1  0
 16 17  2  0
 16 21  1  0
 17 18  1  0
 17 44  1  0
 18 19  2  0
 18 45  1  0
 19 20  1  0
 19 46  1  0
 20 21  2  0
 20 47  1  0
 21 48  1  0
 22 23  1  0
 22 49  1  0
 22 50  1  0
 23 51  1  0
 23 52  1  0
 24 25  1  0
 24 53  1  0
 25 26  2  0
 25 31  1  0
 26 27  1  0
 26 54  1  0
 27 28  1  0
 27 29  2  0
 29 30  1  0
 29 55  1  0
 30 31  2  0
 30 56  1  0
 31 32  1  0
M  END

