
     RDKit          3D

 35 36  0  0  0  0  0  0  0  0999 V2000
    0.1284   -0.0964    0.5021 N   0  0  0  0  0  0  0  0  0  0  0  0
    1.4813    0.1426    0.0114 C   0  0  0  0  0  0  0  0  0  0  0  0
    2.4901   -0.8386    0.6400 C   0  0  1  0  0  0  0  0  0  0  0  0
    2.1460   -2.3164    0.3564 C   0  0  0  0  0  0  0  0  0  0  0  0
    2.5207   -2.7308   -1.0759 C   0  0  0  0  0  0  0  0  0  0  0  0
    3.9111   -2.4501   -1.4360 N   0  0  0  0  0  0  0  0  0  0  0  0
    4.8927   -3.3897   -0.9229 C   0  0  0  0  0  0  0  0  0  0  0  0
    6.1210   -3.4577   -1.8004 C   0  0  0  0  0  0  0  0  0  0  0  0
    6.2038   -3.2961   -3.1635 C   0  0  0  0  0  0  0  0  0  0  0  0
    7.5214   -3.4873   -3.6706 C   0  0  0  0  0  0  0  0  0  0  0  0
    8.4287   -3.7912   -2.6854 C   0  0  0  0  0  0  0  0  0  0  0  0
    9.8912   -4.0483   -2.8546 C   0  0  1  0  0  0  0  0  0  0  0  0
   10.2409   -3.9788   -4.1496 F   0  0  0  0  0  0  0  0  0  0  0  0
   10.6472   -3.1568   -2.1836 F   0  0  0  0  0  0  0  0  0  0  0  0
   10.2500   -5.2654   -2.4019 F   0  0  0  0  0  0  0  0  0  0  0  0
    7.6756   -3.8385   -1.1187 S   0  0  0  0  0  0  0  0  0  0  0  0
    4.2392   -1.0388   -1.2256 C   0  0  0  0  0  0  0  0  0  0  0  0
    3.9403   -0.5427    0.2017 C   0  0  0  0  0  0  0  0  0  0  0  0
   -0.5453    0.4868    0.0073 H   0  0  0  0  0  0  0  0  0  0  0  0
    0.0574    0.1561    1.4889 H   0  0  0  0  0  0  0  0  0  0  0  0
    1.8526    1.1748    0.1959 H   0  0  0  0  0  0  0  0  0  0  0  0
    1.4650    0.0223   -1.0853 H   0  0  0  0  0  0  0  0  0  0  0  0
    2.4298   -0.6804    1.7336 H   0  0  0  0  0  0  0  0  0  0  0  0
    1.0699   -2.4769    0.5250 H   0  0  0  0  0  0  0  0  0  0  0  0
    2.6878   -2.9572    1.0747 H   0  0  0  0  0  0  0  0  0  0  0  0
    1.8749   -2.1963   -1.7957 H   0  0  0  0  0  0  0  0  0  0  0  0
    2.3240   -3.8046   -1.2289 H   0  0  0  0  0  0  0  0  0  0  0  0
    4.4226   -4.3888   -0.9057 H   0  0  0  0  0  0  0  0  0  0  0  0
    5.2107   -3.1962    0.1256 H   0  0  0  0  0  0  0  0  0  0  0  0
    5.3337   -3.0429   -3.7690 H   0  0  0  0  0  0  0  0  0  0  0  0
    7.7977   -3.4053   -4.7222 H   0  0  0  0  0  0  0  0  0  0  0  0
    3.6615   -0.4451   -1.9567 H   0  0  0  0  0  0  0  0  0  0  0  0
    5.3005   -0.8796   -1.4730 H   0  0  0  0  0  0  0  0  0  0  0  0
    4.1534    0.5386    0.2684 H   0  0  0  0  0  0  0  0  0  0  0  0
    4.6327   -1.0328    0.9082 H   0  0  0  0  0  0  0  0  0  0  0  0
  1  2  1  0
  1 19  1  0
  1 20  1  0
  2  3  1  0
  2 21  1  0
  2 22  1  0
  3  4  1  0
  3 18  1  0
  3 23  1  1
  4  5  1  0
  4 24  1  0
  4 25  1  0
  5  6  1  0
  5 26  1  0
  5 27  1  0
  6  7  1  0
  6 17  1  0
  7  8  1  0
  7 28  1  0
  7 29  1  0
  8  9  2  0
  8 16  1  0
  9 10  1  0
  9 30  1  0
 10 11  2  0
 10 31  1  0
 11 12  1  0
 11 16  1  0
 12 13  1  6
 12 14  1  0
 12 15  1  0
 17 18  1  0
 17 32  1  0
 17 33  1  0
 18 34  1  0
 18 35  1  0
M  END

