
     RDKit          3D

 26 27  0  0  0  0  0  0  0  0999 V2000
    1.1355   -0.1073   -0.3012 C   0  0  0  0  0  0  0  0  0  0  0  0
    2.6219    0.0021   -0.1074 C   0  0  0  0  0  0  0  0  0  0  0  0
    3.1523    1.2187    0.0774 N   0  0  0  0  0  0  0  0  0  0  0  0
    4.4793    1.2824    0.2481 C   0  0  0  0  0  0  0  0  0  0  0  0
    5.0519    2.6727    0.4550 C   0  0  0  0  0  0  0  0  0  0  0  0
    6.2260    2.8809    0.6196 O   0  0  0  0  0  0  0  0  0  0  0  0
    4.1187    3.6231    0.4337 O   0  0  0  0  0  0  0  0  0  0  0  0
    5.2957    0.1617    0.2396 C   0  0  0  0  0  0  0  0  0  0  0  0
    4.6625   -1.0818    0.0403 C   0  0  0  0  0  0  0  0  0  0  0  0
    5.4039   -2.3694    0.0066 C   0  0  0  0  0  0  0  0  0  0  0  0
    6.8006   -2.4282    0.1703 C   0  0  0  0  0  0  0  0  0  0  0  0
    7.4703   -3.6518    0.1341 C   0  0  0  0  0  0  0  0  0  0  0  0
    6.7574   -4.8380   -0.0661 C   0  0  0  0  0  0  0  0  0  0  0  0
    5.3687   -4.7923   -0.2300 C   0  0  0  0  0  0  0  0  0  0  0  0
    4.6979   -3.5707   -0.1943 C   0  0  0  0  0  0  0  0  0  0  0  0
    3.3315   -1.1290   -0.1295 N   0  0  0  0  0  0  0  0  0  0  0  0
    0.6647    0.8833   -0.2783 H   0  0  0  0  0  0  0  0  0  0  0  0
    0.6983   -0.7398    0.4876 H   0  0  0  0  0  0  0  0  0  0  0  0
    0.9156   -0.5983   -1.2622 H   0  0  0  0  0  0  0  0  0  0  0  0
    3.2645    3.1590    0.2836 H   0  0  0  0  0  0  0  0  0  0  0  0
    6.3673    0.2872    0.3840 H   0  0  0  0  0  0  0  0  0  0  0  0
    7.3802   -1.5173    0.3279 H   0  0  0  0  0  0  0  0  0  0  0  0
    8.5551   -3.6782    0.2628 H   0  0  0  0  0  0  0  0  0  0  0  0
    7.2834   -5.7957   -0.0942 H   0  0  0  0  0  0  0  0  0  0  0  0
    4.8053   -5.7156   -0.3866 H   0  0  0  0  0  0  0  0  0  0  0  0
    3.6161   -3.5196   -0.3208 H   0  0  0  0  0  0  0  0  0  0  0  0
  1  2  1  0
  1 17  1  0
  1 18  1  0
  1 19  1  0
  2  3  2  0
  2 16  1  0
  3  4  1  0
  4  5  1  0
  4  8  2  0
  5  6  2  0
  5  7  1  0
  7 20  1  0
  8  9  1  0
  8 21  1  0
  9 10  1  0
  9 16  2  0
 10 11  2  0
 10 15  1  0
 11 12  1  0
 11 22  1  0
 12 13  2  0
 12 23  1  0
 13 14  1  0
 13 24  1  0
 14 15  2  0
 14 25  1  0
 15 26  1  0
M  END

