
     RDKit          3D

 48 49  0  0  0  0  0  0  0  0999 V2000
   11.1305    2.1072    1.8352 C   0  0  0  0  0  0  0  0  0  0  0  0
   10.1953    2.3865    0.8304 O   0  0  0  0  0  0  0  0  0  0  0  0
    8.9374    2.7959    1.3151 C   0  0  0  0  0  0  0  0  0  0  0  0
    8.0106    3.0710    0.1391 C   0  0  0  0  0  0  0  0  0  0  0  0
    7.7691    1.8425   -0.7411 C   0  0  0  0  0  0  0  0  0  0  0  0
    6.8477    2.0994   -1.9535 C   0  0  0  0  0  0  0  0  0  0  0  0
    7.3798    3.0658   -2.9893 C   0  0  0  0  0  0  0  0  0  0  0  0
    6.8977    4.3679   -3.0891 C   0  0  0  0  0  0  0  0  0  0  0  0
    7.3957    5.2528   -4.0562 C   0  0  0  0  0  0  0  0  0  0  0  0
    8.3822    4.7726   -4.9117 C   0  0  0  0  0  0  0  0  0  0  0  0
    8.8669    3.5302   -4.8528 N   0  0  0  0  0  0  0  0  0  0  0  0
    8.3959    2.6886   -3.9242 C   0  0  0  0  0  0  0  0  0  0  0  0
    8.9191    1.4145   -3.9172 N   0  0  0  0  0  0  0  0  0  0  0  0
   10.0416    1.0065   -4.7639 C   0  0  1  0  0  0  0  0  0  0  0  0
   10.7752   -0.1815   -4.1195 C   0  0  0  0  0  0  0  0  0  0  0  0
    9.9543   -1.4796   -4.1611 C   0  0  0  0  0  0  0  0  0  0  0  0
    9.5032   -1.8429   -5.5962 C   0  0  2  0  0  0  0  0  0  0  0  0
   10.6554   -2.3569   -6.4719 C   0  0  0  0  0  0  0  0  0  0  0  0
   10.9323   -1.9347   -7.5611 O   0  0  0  0  0  0  0  0  0  0  0  0
   11.3694   -3.3855   -5.9495 O   0  0  0  0  0  0  0  0  0  0  0  0
    8.7777   -0.6530   -6.2488 C   0  0  0  0  0  0  0  0  0  0  0  0
    9.5972    0.6418   -6.1942 C   0  0  0  0  0  0  0  0  0  0  0  0
   12.0700    1.8044    1.3497 H   0  0  0  0  0  0  0  0  0  0  0  0
   10.7960    1.2839    2.5000 H   0  0  0  0  0  0  0  0  0  0  0  0
   11.3342    2.9924    2.4723 H   0  0  0  0  0  0  0  0  0  0  0  0
    9.0424    3.7090    1.9386 H   0  0  0  0  0  0  0  0  0  0  0  0
    8.5049    2.0095    1.9727 H   0  0  0  0  0  0  0  0  0  0  0  0
    8.4443    3.8853   -0.4649 H   0  0  0  0  0  0  0  0  0  0  0  0
    7.0510    3.4478    0.5367 H   0  0  0  0  0  0  0  0  0  0  0  0
    7.3222    1.0390   -0.1276 H   0  0  0  0  0  0  0  0  0  0  0  0
    8.7509    1.4648   -1.0712 H   0  0  0  0  0  0  0  0  0  0  0  0
    5.8785    2.4767   -1.5863 H   0  0  0  0  0  0  0  0  0  0  0  0
    6.6248    1.1316   -2.4396 H   0  0  0  0  0  0  0  0  0  0  0  0
    6.1122    4.6955   -2.4008 H   0  0  0  0  0  0  0  0  0  0  0  0
    7.0221    6.2747   -4.1428 H   0  0  0  0  0  0  0  0  0  0  0  0
    8.8053    5.4185   -5.6908 H   0  0  0  0  0  0  0  0  0  0  0  0
    8.7120    0.8441   -3.1107 H   0  0  0  0  0  0  0  0  0  0  0  0
   10.7311    1.8628   -4.8339 H   0  0  0  0  0  0  0  0  0  0  0  0
   11.0518    0.0619   -3.0795 H   0  0  0  0  0  0  0  0  0  0  0  0
   11.7222   -0.3329   -4.6645 H   0  0  0  0  0  0  0  0  0  0  0  0
    9.0479   -1.3789   -3.5396 H   0  0  0  0  0  0  0  0  0  0  0  0
   10.5304   -2.2975   -3.6930 H   0  0  0  0  0  0  0  0  0  0  0  0
    8.8003   -2.6953   -5.5257 H   0  0  0  0  0  0  0  0  0  0  0  0
   11.0214   -3.6321   -5.0811 H   0  0  0  0  0  0  0  0  0  0  0  0
    7.8218   -0.5035   -5.7188 H   0  0  0  0  0  0  0  0  0  0  0  0
    8.5349   -0.9000   -7.2927 H   0  0  0  0  0  0  0  0  0  0  0  0
    9.0215    1.4817   -6.6092 H   0  0  0  0  0  0  0  0  0  0  0  0
   10.4959    0.5296   -6.8215 H   0  0  0  0  0  0  0  0  0  0  0  0
  1  2  1  0
  1 23  1  0
  1 24  1  0
  1 25  1  0
  2  3  1  0
  3  4  1  0
  3 26  1  0
  3 27  1  0
  4  5  1  0
  4 28  1  0
  4 29  1  0
  5  6  1  0
  5 30  1  0
  5 31  1  0
  6  7  1  0
  6 32  1  0
  6 33  1  0
  7  8  2  0
  7 12  1  0
  8  9  1  0
  8 34  1  0
  9 10  2  0
  9 35  1  0
 10 11  1  0
 10 36  1  0
 11 12  2  0
 12 13  1  0
 13 14  1  0
 13 37  1  0
 14 15  1  0
 14 22  1  0
 14 38  1  6
 15 16  1  0
 15 39  1  0
 15 40  1  0
 16 17  1  0
 16 41  1  0
 16 42  1  0
 17 18  1  0
 17 21  1  0
 17 43  1  1
 18 19  2  0
 18 20  1  0
 20 44  1  0
 21 22  1  0
 21 45  1  0
 21 46  1  0
 22 47  1  0
 22 48  1  0
M  END

