
     RDKit          3D

 31 32  0  0  0  0  0  0  0  0999 V2000
    2.8439    0.1873   -1.2898 O   0  0  0  0  0  0  0  0  0  0  0  0
    2.4032    0.0378    0.0394 C   0  0  0  0  0  0  0  0  0  0  0  0
    2.9175    1.2496    0.8399 C   0  0  1  0  0  0  0  0  0  0  0  0
    2.3749    1.2555    2.1886 N   0  0  0  0  0  0  0  0  0  0  0  0
    1.1628    1.8034    2.5475 C   0  0  0  0  0  0  0  0  0  0  0  0
    0.2160    2.2730    1.6096 C   0  0  0  0  0  0  0  0  0  0  0  0
   -1.0050    2.8113    2.0182 C   0  0  0  0  0  0  0  0  0  0  0  0
   -1.3329    2.9029    3.3725 C   0  0  0  0  0  0  0  0  0  0  0  0
   -0.4135    2.4488    4.3230 C   0  0  0  0  0  0  0  0  0  0  0  0
    0.8047    1.9129    3.9163 C   0  0  0  0  0  0  0  0  0  0  0  0
    1.9477    1.3583    5.1372 Cl  0  0  0  0  0  0  0  0  0  0  0  0
    4.4351    1.2777    0.8787 C   0  0  0  0  0  0  0  0  0  0  0  0
    5.1784    0.3385    1.6098 C   0  0  0  0  0  0  0  0  0  0  0  0
    6.5746    0.3538    1.6337 C   0  0  0  0  0  0  0  0  0  0  0  0
    7.2528    1.3290    0.8973 C   0  0  0  0  0  0  0  0  0  0  0  0
    9.1572    1.3681    0.9073 Br  0  0  0  0  0  0  0  0  0  0  0  0
    6.5532    2.2780    0.1509 C   0  0  0  0  0  0  0  0  0  0  0  0
    5.1602    2.2330    0.1577 C   0  0  0  0  0  0  0  0  0  0  0  0
    4.5031    3.1568   -0.5573 F   0  0  0  0  0  0  0  0  0  0  0  0
    2.6114   -0.6039   -1.7901 H   0  0  0  0  0  0  0  0  0  0  0  0
    2.7832   -0.8905    0.5111 H   0  0  0  0  0  0  0  0  0  0  0  0
    1.2984    0.0107    0.1117 H   0  0  0  0  0  0  0  0  0  0  0  0
    2.5845    2.1497    0.2986 H   0  0  0  0  0  0  0  0  0  0  0  0
    3.0275    1.1200    2.9512 H   0  0  0  0  0  0  0  0  0  0  0  0
    0.4412    2.2156    0.5442 H   0  0  0  0  0  0  0  0  0  0  0  0
   -1.7083    3.1635    1.2593 H   0  0  0  0  0  0  0  0  0  0  0  0
   -2.2891    3.3218    3.6921 H   0  0  0  0  0  0  0  0  0  0  0  0
   -0.6320    2.5082    5.3908 H   0  0  0  0  0  0  0  0  0  0  0  0
    4.6536   -0.4351    2.1777 H   0  0  0  0  0  0  0  0  0  0  0  0
    7.1290   -0.3856    2.2128 H   0  0  0  0  0  0  0  0  0  0  0  0
    7.0618    3.0474   -0.4303 H   0  0  0  0  0  0  0  0  0  0  0  0
  1  2  1  0
  1 20  1  0
  2  3  1  0
  2 21  1  0
  2 22  1  0
  3  4  1  0
  3 12  1  0
  3 23  1  6
  4  5  1  0
  4 24  1  0
  5  6  2  0
  5 10  1  0
  6  7  1  0
  6 25  1  0
  7  8  2  0
  7 26  1  0
  8  9  1  0
  8 27  1  0
  9 10  2  0
  9 28  1  0
 10 11  1  0
 12 13  2  0
 12 18  1  0
 13 14  1  0
 13 29  1  0
 14 15  2  0
 14 30  1  0
 15 16  1  0
 15 17  1  0
 17 18  2  0
 17 31  1  0
 18 19  1  0
M  END

