
     RDKit          3D

 41 42  0  0  0  0  0  0  0  0999 V2000
    1.2348    0.3507    0.3213 C   0  0  0  0  0  0  0  0  0  0  0  0
    2.6714   -0.1336    0.1202 C   0  0  0  0  0  0  0  0  0  0  0  0
    3.2706   -0.8349    1.3710 C   0  0  1  0  0  0  0  0  0  0  0  0
    2.6046   -2.1929    1.5610 C   0  0  0  0  0  0  0  0  0  0  0  0
    1.4970   -2.3004    2.0612 O   0  0  0  0  0  0  0  0  0  0  0  0
    3.3020   -3.2573    1.0833 N   0  0  0  0  0  0  0  0  0  0  0  0
    4.6206   -3.2718    0.4452 C   0  0  2  0  0  0  0  0  0  0  0  0
    4.4918   -3.3442   -1.0907 C   0  0  0  0  0  0  0  0  0  0  0  0
    5.3494   -4.5295    1.0117 C   0  0  0  0  0  0  0  0  0  0  0  0
    6.6433   -4.9854    0.3378 C   0  0  0  0  0  0  0  0  0  0  0  0
    5.4218   -2.0062    0.8278 C   0  0  0  0  0  0  0  0  0  0  0  0
    6.6372   -1.9993    0.6852 O   0  0  0  0  0  0  0  0  0  0  0  0
    4.7365   -0.9362    1.3443 N   0  0  0  0  0  0  0  0  0  0  0  0
    5.5430    0.1379    1.9734 C   0  0  1  0  0  0  0  0  0  0  0  0
    5.3076    1.5363    1.3970 C   0  0  0  0  0  0  0  0  0  0  0  0
    5.3384    0.1169    3.4736 C   0  0  0  0  0  0  0  0  0  0  0  0
    4.3795    0.7352    4.1031 N   0  0  0  0  0  0  0  0  0  0  0  0
    4.4176    0.4924    5.4511 C   0  0  0  0  0  0  0  0  0  0  0  0
    5.4275   -0.3309    5.8758 C   0  0  0  0  0  0  0  0  0  0  0  0
    6.3819   -0.8280    4.5232 S   0  0  0  0  0  0  0  0  0  0  0  0
    0.8500    0.8149   -0.6005 H   0  0  0  0  0  0  0  0  0  0  0  0
    1.1824    1.1043    1.1243 H   0  0  0  0  0  0  0  0  0  0  0  0
    0.5662   -0.4749    0.6036 H   0  0  0  0  0  0  0  0  0  0  0  0
    3.3180    0.7169   -0.1373 H   0  0  0  0  0  0  0  0  0  0  0  0
    2.7220   -0.8240   -0.7390 H   0  0  0  0  0  0  0  0  0  0  0  0
    3.0022   -0.2475    2.2611 H   0  0  0  0  0  0  0  0  0  0  0  0
    2.8212   -4.1484    1.1769 H   0  0  0  0  0  0  0  0  0  0  0  0
    4.0062   -4.2882   -1.3863 H   0  0  0  0  0  0  0  0  0  0  0  0
    5.4805   -3.2935   -1.5671 H   0  0  0  0  0  0  0  0  0  0  0  0
    3.8807   -2.5140   -1.4733 H   0  0  0  0  0  0  0  0  0  0  0  0
    4.6143   -5.3537    0.9556 H   0  0  0  0  0  0  0  0  0  0  0  0
    5.5239   -4.3547    2.0864 H   0  0  0  0  0  0  0  0  0  0  0  0
    6.4823   -5.2648   -0.7152 H   0  0  0  0  0  0  0  0  0  0  0  0
    7.0314   -5.8781    0.8540 H   0  0  0  0  0  0  0  0  0  0  0  0
    7.4071   -4.1990    0.3742 H   0  0  0  0  0  0  0  0  0  0  0  0
    6.5781   -0.1564    1.7606 H   0  0  0  0  0  0  0  0  0  0  0  0
    4.2984    1.9100    1.6184 H   0  0  0  0  0  0  0  0  0  0  0  0
    5.4707    1.5356    0.3092 H   0  0  0  0  0  0  0  0  0  0  0  0
    6.0230    2.2384    1.8513 H   0  0  0  0  0  0  0  0  0  0  0  0
    3.6707    0.9482    6.1036 H   0  0  0  0  0  0  0  0  0  0  0  0
    5.6572   -0.6550    6.8893 H   0  0  0  0  0  0  0  0  0  0  0  0
  1  2  1  0
  1 21  1  0
  1 22  1  0
  1 23  1  0
  2  3  1  0
  2 24  1  0
  2 25  1  0
  3  4  1  0
  3 13  1  0
  3 26  1  1
  4  5  2  0
  4  6  1  0
  6  7  1  0
  6 27  1  0
  7  8  1  6
  7  9  1  0
  7 11  1  0
  8 28  1  0
  8 29  1  0
  8 30  1  0
  9 10  1  0
  9 31  1  0
  9 32  1  0
 10 33  1  0
 10 34  1  0
 10 35  1  0
 11 12  2  0
 11 13  1  0
 13 14  1  0
 14 15  1  0
 14 16  1  0
 14 36  1  1
 15 37  1  0
 15 38  1  0
 15 39  1  0
 16 17  2  0
 16 20  1  0
 17 18  1  0
 18 19  2  0
 18 40  1  0
 19 20  1  0
 19 41  1  0
M  END

