
     RDKit          3D

 43 45  0  0  0  0  0  0  0  0999 V2000
    6.2129    2.2651   -2.4776 O   0  0  0  0  0  0  0  0  0  0  0  0
    5.7332    2.3150   -3.8088 C   0  0  0  0  0  0  0  0  0  0  0  0
    4.7773    1.2370   -4.0558 C   0  0  0  0  0  0  0  0  0  0  0  0
    3.9776    0.3486   -4.2789 C   0  0  0  0  0  0  0  0  0  0  0  0
    3.0487   -0.7008   -4.5487 C   0  0  0  0  0  0  0  0  0  0  0  0
    1.6953   -0.6264   -4.2731 C   0  0  0  0  0  0  0  0  0  0  0  0
    0.8700   -2.0751   -4.7111 S   0  0  0  0  0  0  0  0  0  0  0  0
    2.3394   -2.8148   -5.2943 C   0  0  0  0  0  0  0  0  0  0  0  0
    2.3209   -4.1958   -5.8981 C   0  0  0  0  0  0  0  0  0  0  0  0
    3.6168   -4.8397   -5.7549 N   0  0  0  0  0  0  0  0  0  0  0  0
    3.8129   -6.0795   -6.4981 C   0  0  1  0  0  0  0  0  0  0  0  0
    3.5812   -5.8598   -7.5559 H   0  0  0  0  0  0  0  0  0  0  0  0
    5.2813   -6.5334   -6.4041 C   0  0  0  0  0  0  0  0  0  0  0  0
    5.6247   -7.1056   -5.0205 C   0  0  0  0  0  0  0  0  0  0  0  0
    4.6277   -8.1925   -4.5978 C   0  0  0  0  0  0  0  0  0  0  0  0
    3.2561   -7.7102   -4.7254 N   0  0  0  0  0  0  0  0  0  0  0  0
    2.3824   -7.6835   -3.6714 C   0  0  0  0  0  0  0  0  0  0  0  0
    2.8152   -8.1611   -2.4845 N   0  0  0  0  0  0  0  0  0  0  0  0
    1.9557   -8.1359   -1.4733 C   0  0  0  0  0  0  0  0  0  0  0  0
    0.6518   -7.6469   -1.5941 C   0  0  0  0  0  0  0  0  0  0  0  0
    0.3074   -7.1711   -2.8617 C   0  0  0  0  0  0  0  0  0  0  0  0
    1.1469   -7.1806   -3.8912 N   0  0  0  0  0  0  0  0  0  0  0  0
    2.8947   -7.2463   -6.0577 C   0  0  0  0  0  0  0  0  0  0  0  0
    3.4042   -1.9675   -5.1378 C   0  0  0  0  0  0  0  0  0  0  0  0
    6.8360    2.9949   -2.3660 H   0  0  0  0  0  0  0  0  0  0  0  0
    6.5602    2.2214   -4.5443 H   0  0  0  0  0  0  0  0  0  0  0  0
    5.2312    3.2820   -4.0249 H   0  0  0  0  0  0  0  0  0  0  0  0
    1.1582    0.2085   -3.8268 H   0  0  0  0  0  0  0  0  0  0  0  0
    2.1031   -4.1172   -6.9805 H   0  0  0  0  0  0  0  0  0  0  0  0
    1.4789   -4.7716   -5.4591 H   0  0  0  0  0  0  0  0  0  0  0  0
    3.8283   -4.9699   -4.7664 H   0  0  0  0  0  0  0  0  0  0  0  0
    5.9391   -5.6860   -6.6518 H   0  0  0  0  0  0  0  0  0  0  0  0
    5.4524   -7.3136   -7.1669 H   0  0  0  0  0  0  0  0  0  0  0  0
    5.6263   -6.3020   -4.2633 H   0  0  0  0  0  0  0  0  0  0  0  0
    6.6441   -7.5263   -5.0242 H   0  0  0  0  0  0  0  0  0  0  0  0
    4.7870   -8.5097   -3.5615 H   0  0  0  0  0  0  0  0  0  0  0  0
    4.7519   -9.0810   -5.2485 H   0  0  0  0  0  0  0  0  0  0  0  0
    2.3215   -8.5250   -0.5145 H   0  0  0  0  0  0  0  0  0  0  0  0
   -0.0460   -7.6326   -0.7565 H   0  0  0  0  0  0  0  0  0  0  0  0
   -0.6918   -6.7600   -3.0536 H   0  0  0  0  0  0  0  0  0  0  0  0
    1.8399   -6.9528   -6.0505 H   0  0  0  0  0  0  0  0  0  0  0  0
    3.0078   -8.0836   -6.7740 H   0  0  0  0  0  0  0  0  0  0  0  0
    4.4178   -2.2384   -5.4305 H   0  0  0  0  0  0  0  0  0  0  0  0
  1  2  1  0
  1 25  1  0
  2  3  1  0
  2 26  1  0
  2 27  1  0
  3  4  3  0
  4  5  1  0
  5  6  2  0
  5 24  1  0
  6  7  1  0
  6 28  1  0
  7  8  1  0
  8  9  1  0
  8 24  2  0
  9 10  1  0
  9 29  1  0
  9 30  1  0
 10 11  1  0
 10 31  1  0
 11 12  1  6
 11 13  1  0
 11 23  1  0
 13 14  1  0
 13 32  1  0
 13 33  1  0
 14 15  1  0
 14 34  1  0
 14 35  1  0
 15 16  1  0
 15 36  1  0
 15 37  1  0
 16 17  1  0
 16 23  1  0
 17 18  2  0
 17 22  1  0
 18 19  1  0
 19 20  2  0
 19 38  1  0
 20 21  1  0
 20 39  1  0
 21 22  2  0
 21 40  1  0
 23 41  1  0
 23 42  1  0
 24 43  1  0
M  END

