
     RDKit          3D

 35 35  0  0  0  0  0  0  0  0999 V2000
    0.7195    0.8909   -1.8920 C   0  0  0  0  0  0  0  0  0  0  0  0
    2.1879    1.3346   -1.9795 C   0  0  1  0  0  0  0  0  0  0  0  0
    2.2862    2.6018   -2.8416 C   0  0  0  0  0  0  0  0  0  0  0  0
    2.8344    1.5090   -0.5699 C   0  0  1  0  0  0  0  0  0  0  0  0
    2.4909    0.4663    0.4024 N   0  0  0  0  0  0  0  0  0  0  0  0
    4.3839    1.5625   -0.5799 C   0  0  0  0  0  0  0  0  0  0  0  0
    5.0020    2.7246   -1.2113 N   0  0  0  0  0  0  0  0  0  0  0  0
    4.9564    3.9414   -0.4023 C   0  0  0  0  0  0  0  0  0  0  0  0
    5.9639    3.9970    0.7555 C   0  0  0  0  0  0  0  0  0  0  0  0
    7.6969    3.8568    0.1692 S   0  0  0  0  0  0  0  0  0  0  0  0
    7.4641    2.3492   -0.8512 C   0  0  0  0  0  0  0  0  0  0  0  0
    6.3001    2.4720   -1.8603 C   0  0  2  0  0  0  0  0  0  0  0  0
    6.5980    3.4867   -2.9703 C   0  0  0  0  0  0  0  0  0  0  0  0
    0.2834    0.7969   -2.8994 H   0  0  0  0  0  0  0  0  0  0  0  0
    0.1127    1.6327   -1.3424 H   0  0  0  0  0  0  0  0  0  0  0  0
    0.5993   -0.0814   -1.3908 H   0  0  0  0  0  0  0  0  0  0  0  0
    2.7488    0.5258   -2.4898 H   0  0  0  0  0  0  0  0  0  0  0  0
    1.7045    3.4231   -2.3866 H   0  0  0  0  0  0  0  0  0  0  0  0
    1.8707    2.4247   -3.8473 H   0  0  0  0  0  0  0  0  0  0  0  0
    3.3240    2.9439   -2.9375 H   0  0  0  0  0  0  0  0  0  0  0  0
    2.4542    2.4583   -0.1476 H   0  0  0  0  0  0  0  0  0  0  0  0
    2.7325   -0.4569    0.0360 H   0  0  0  0  0  0  0  0  0  0  0  0
    1.4896    0.4468    0.5841 H   0  0  0  0  0  0  0  0  0  0  0  0
    4.7397    0.6626   -1.1120 H   0  0  0  0  0  0  0  0  0  0  0  0
    4.6904    1.4285    0.4767 H   0  0  0  0  0  0  0  0  0  0  0  0
    3.9379    4.0470    0.0068 H   0  0  0  0  0  0  0  0  0  0  0  0
    5.1181    4.8148   -1.0551 H   0  0  0  0  0  0  0  0  0  0  0  0
    5.7671    3.2075    1.4994 H   0  0  0  0  0  0  0  0  0  0  0  0
    5.8971    4.9648    1.2763 H   0  0  0  0  0  0  0  0  0  0  0  0
    7.3020    1.4878   -0.1825 H   0  0  0  0  0  0  0  0  0  0  0  0
    8.4211    2.1872   -1.3713 H   0  0  0  0  0  0  0  0  0  0  0  0
    6.2037    1.4842   -2.3439 H   0  0  0  0  0  0  0  0  0  0  0  0
    6.8156    4.4863   -2.5671 H   0  0  0  0  0  0  0  0  0  0  0  0
    5.7450    3.5613   -3.6612 H   0  0  0  0  0  0  0  0  0  0  0  0
    7.4821    3.1683   -3.5457 H   0  0  0  0  0  0  0  0  0  0  0  0
  1  2  1  0
  1 14  1  0
  1 15  1  0
  1 16  1  0
  2  3  1  0
  2  4  1  0
  2 17  1  6
  3 18  1  0
  3 19  1  0
  3 20  1  0
  4  5  1  0
  4  6  1  0
  4 21  1  1
  5 22  1  0
  5 23  1  0
  6  7  1  0
  6 24  1  0
  6 25  1  0
  7  8  1  0
  7 12  1  0
  8  9  1  0
  8 26  1  0
  8 27  1  0
  9 10  1  0
  9 28  1  0
  9 29  1  0
 10 11  1  0
 11 12  1  0
 11 30  1  0
 11 31  1  0
 12 13  1  0
 12 32  1  6
 13 33  1  0
 13 34  1  0
 13 35  1  0
M  END

