
     RDKit          3D

 46 48  0  0  0  0  0  0  0  0999 V2000
    0.8896   -0.4809   -0.7852 O   0  0  0  0  0  0  0  0  0  0  0  0
    1.2574    0.0155    0.2459 C   0  0  0  0  0  0  0  0  0  0  0  0
    0.4655    0.8991    0.8970 O   0  0  0  0  0  0  0  0  0  0  0  0
    2.5606   -0.3149    0.9570 C   0  0  2  0  0  0  0  0  0  0  0  0
    3.6574   -0.9570    0.0635 C   0  0  0  0  0  0  0  0  0  0  0  0
    4.0108   -2.2528    0.8345 C   0  0  2  0  0  0  0  0  0  0  0  0
    2.8752   -3.2800    0.6560 C   0  0  0  0  0  0  0  0  0  0  0  0
    1.7343   -2.6699    1.5285 C   0  0  0  0  0  0  0  0  0  0  0  0
    2.3940   -1.3932    2.0889 C   0  0  1  0  0  0  0  0  0  0  0  0
    3.7810   -1.8847    2.2640 N   0  0  0  0  0  0  0  0  0  0  0  0
    4.9108   -0.9163    3.0834 S   0  0  1  0  0  0  0  0  0  0  0  0
    6.0968   -0.7522    2.2318 O   0  0  0  0  0  0  0  0  0  0  0  0
    4.2089    0.2597    3.6258 O   0  0  0  0  0  0  0  0  0  0  0  0
    5.3710   -1.9751    4.4760 C   0  0  0  0  0  0  0  0  0  0  0  0
    6.4021   -1.2802    5.3639 C   0  0  0  0  0  0  0  0  0  0  0  0
    6.7856   -2.0918    6.6200 C   0  0  1  0  0  0  0  0  0  0  0  0
    7.4980   -3.4275    6.3106 C   0  0  0  0  0  0  0  0  0  0  0  0
    8.9334   -3.2389    5.7970 C   0  0  0  0  0  0  0  0  0  0  0  0
    9.7707   -2.3957    6.7683 C   0  0  0  0  0  0  0  0  0  0  0  0
    9.0929   -1.0545    7.0787 C   0  0  0  0  0  0  0  0  0  0  0  0
    7.6557   -1.2539    7.5826 C   0  0  0  0  0  0  0  0  0  0  0  0
    0.9164    1.2374    1.6845 H   0  0  0  0  0  0  0  0  0  0  0  0
    2.9450    0.5964    1.4412 H   0  0  0  0  0  0  0  0  0  0  0  0
    4.5370   -0.3035   -0.0076 H   0  0  0  0  0  0  0  0  0  0  0  0
    3.2811   -1.1616   -0.9480 H   0  0  0  0  0  0  0  0  0  0  0  0
    5.0244   -2.6297    0.6570 H   0  0  0  0  0  0  0  0  0  0  0  0
    3.1808   -4.2671    1.0319 H   0  0  0  0  0  0  0  0  0  0  0  0
    2.5923   -3.3856   -0.4008 H   0  0  0  0  0  0  0  0  0  0  0  0
    1.4611   -3.3398    2.3562 H   0  0  0  0  0  0  0  0  0  0  0  0
    0.8253   -2.4523    0.9522 H   0  0  0  0  0  0  0  0  0  0  0  0
    1.9601   -1.0052    3.0179 H   0  0  0  0  0  0  0  0  0  0  0  0
    5.7434   -2.9027    4.0188 H   0  0  0  0  0  0  0  0  0  0  0  0
    4.4324   -2.1936    5.0076 H   0  0  0  0  0  0  0  0  0  0  0  0
    5.9824   -0.3118    5.6812 H   0  0  0  0  0  0  0  0  0  0  0  0
    7.2878   -1.0492    4.7518 H   0  0  0  0  0  0  0  0  0  0  0  0
    5.8420   -2.3275    7.1457 H   0  0  0  0  0  0  0  0  0  0  0  0
    6.9115   -4.0295    5.5960 H   0  0  0  0  0  0  0  0  0  0  0  0
    7.5306   -4.0203    7.2424 H   0  0  0  0  0  0  0  0  0  0  0  0
    8.9187   -2.7498    4.8063 H   0  0  0  0  0  0  0  0  0  0  0  0
    9.4050   -4.2236    5.6408 H   0  0  0  0  0  0  0  0  0  0  0  0
   10.7818   -2.2304    6.3599 H   0  0  0  0  0  0  0  0  0  0  0  0
    9.9051   -2.9593    7.7106 H   0  0  0  0  0  0  0  0  0  0  0  0
    9.0895   -0.4264    6.1699 H   0  0  0  0  0  0  0  0  0  0  0  0
    9.6763   -0.4960    7.8298 H   0  0  0  0  0  0  0  0  0  0  0  0
    7.1753   -0.2784    7.7697 H   0  0  0  0  0  0  0  0  0  0  0  0
    7.6913   -1.7730    8.5574 H   0  0  0  0  0  0  0  0  0  0  0  0
  1  2  2  0
  2  3  1  0
  2  4  1  0
  3 22  1  0
  4  5  1  0
  4  9  1  0
  4 23  1  1
  5  6  1  0
  5 24  1  0
  5 25  1  0
  6  7  1  0
  6 10  1  0
  6 26  1  1
  7  8  1  0
  7 27  1  0
  7 28  1  0
  8  9  1  0
  8 29  1  0
  8 30  1  0
  9 10  1  0
  9 31  1  1
 10 11  1  0
 11 12  2  0
 11 13  2  0
 11 14  1  1
 14 15  1  0
 14 32  1  0
 14 33  1  0
 15 16  1  0
 15 34  1  0
 15 35  1  0
 16 17  1  0
 16 21  1  0
 16 36  1  1
 17 18  1  0
 17 37  1  0
 17 38  1  0
 18 19  1  0
 18 39  1  0
 18 40  1  0
 19 20  1  0
 19 41  1  0
 19 42  1  0
 20 21  1  0
 20 43  1  0
 20 44  1  0
 21 45  1  0
 21 46  1  0
M  END

