
     RDKit          3D

 42 45  0  0  0  0  0  0  0  0999 V2000
    7.8611   -7.7189   -3.6662 N   0  0  0  0  0  0  0  0  0  0  0  0
    6.6056   -7.4630   -3.1805 C   0  0  0  0  0  0  0  0  0  0  0  0
    5.9147   -8.3420   -2.6912 O   0  0  0  0  0  0  0  0  0  0  0  0
    6.1248   -6.0388   -3.2950 C   0  0  0  0  0  0  0  0  0  0  0  0
    6.7198   -5.0904   -4.1390 C   0  0  0  0  0  0  0  0  0  0  0  0
    6.2014   -3.7901   -4.1812 C   0  0  0  0  0  0  0  0  0  0  0  0
    5.1117   -3.4662   -3.3941 C   0  0  0  0  0  0  0  0  0  0  0  0
    4.6062   -2.2117   -3.4263 F   0  0  0  0  0  0  0  0  0  0  0  0
    4.4675   -4.3958   -2.5433 C   0  0  0  0  0  0  0  0  0  0  0  0
    3.3678   -3.9905   -1.8290 N   0  0  0  0  0  0  0  0  0  0  0  0
    2.6367   -4.8016   -0.8737 C   0  0  1  0  0  0  0  0  0  0  0  0
    3.3096   -4.8929    0.5258 C   0  0  1  0  0  0  0  0  0  0  0  0
    3.3140   -3.5063    1.1979 C   0  0  0  0  0  0  0  0  0  0  0  0
    1.8659   -3.0069    1.3776 C   0  0  2  0  0  0  0  0  0  0  0  0
    1.0800   -4.0085    2.2476 C   0  0  0  0  0  0  0  0  0  0  0  0
    1.0679   -5.3915    1.5656 C   0  0  2  0  0  0  0  0  0  0  0  0
    2.5162   -5.8898    1.3932 C   0  0  0  0  0  0  0  0  0  0  0  0
    0.4045   -5.2727    0.1790 C   0  0  0  0  0  0  0  0  0  0  0  0
    1.1912   -4.2764   -0.6967 C   0  0  1  0  0  0  0  0  0  0  0  0
    1.1943   -2.8957   -0.0059 C   0  0  0  0  0  0  0  0  0  0  0  0
    5.0097   -5.6932   -2.5172 C   0  0  0  0  0  0  0  0  0  0  0  0
    8.2213   -8.6543   -3.5178 H   0  0  0  0  0  0  0  0  0  0  0  0
    8.5268   -6.9757   -3.8276 H   0  0  0  0  0  0  0  0  0  0  0  0
    7.5557   -5.3525   -4.7897 H   0  0  0  0  0  0  0  0  0  0  0  0
    6.6283   -3.0206   -4.8277 H   0  0  0  0  0  0  0  0  0  0  0  0
    3.1219   -3.0137   -1.9170 H   0  0  0  0  0  0  0  0  0  0  0  0
    2.5717   -5.8219   -1.2899 H   0  0  0  0  0  0  0  0  0  0  0  0
    4.3449   -5.2500    0.4000 H   0  0  0  0  0  0  0  0  0  0  0  0
    3.8923   -2.7915    0.5884 H   0  0  0  0  0  0  0  0  0  0  0  0
    3.8204   -3.5672    2.1765 H   0  0  0  0  0  0  0  0  0  0  0  0
    1.8722   -2.0172    1.8652 H   0  0  0  0  0  0  0  0  0  0  0  0
    0.0466   -3.6505    2.3990 H   0  0  0  0  0  0  0  0  0  0  0  0
    1.5404   -4.0833    3.2481 H   0  0  0  0  0  0  0  0  0  0  0  0
    0.5007   -6.1065    2.1853 H   0  0  0  0  0  0  0  0  0  0  0  0
    2.5217   -6.8897    0.9255 H   0  0  0  0  0  0  0  0  0  0  0  0
    3.0016   -5.9993    2.3782 H   0  0  0  0  0  0  0  0  0  0  0  0
   -0.6391   -4.9295    0.2839 H   0  0  0  0  0  0  0  0  0  0  0  0
    0.3664   -6.2605   -0.3113 H   0  0  0  0  0  0  0  0  0  0  0  0
    0.7219   -4.2003   -1.6921 H   0  0  0  0  0  0  0  0  0  0  0  0
    0.1565   -2.5356    0.0986 H   0  0  0  0  0  0  0  0  0  0  0  0
    1.7144   -2.1397   -0.6208 H   0  0  0  0  0  0  0  0  0  0  0  0
    4.5753   -6.4735   -1.8934 H   0  0  0  0  0  0  0  0  0  0  0  0
  1  2  1  0
  1 22  1  0
  1 23  1  0
  2  3  2  0
  2  4  1  0
  4  5  2  0
  4 21  1  0
  5  6  1  0
  5 24  1  0
  6  7  2  0
  6 25  1  0
  7  8  1  0
  7  9  1  0
  9 10  1  0
  9 21  2  0
 10 11  1  0
 10 26  1  0
 11 12  1  0
 11 19  1  0
 11 27  1  6
 12 13  1  0
 12 17  1  0
 12 28  1  6
 13 14  1  0
 13 29  1  0
 13 30  1  0
 14 15  1  0
 14 20  1  0
 14 31  1  1
 15 16  1  0
 15 32  1  0
 15 33  1  0
 16 17  1  0
 16 18  1  0
 16 34  1  1
 17 35  1  0
 17 36  1  0
 18 19  1  0
 18 37  1  0
 18 38  1  0
 19 20  1  0
 19 39  1  6
 20 40  1  0
 20 41  1  0
 21 42  1  0
M  END

