
     RDKit          3D

 43 44  0  0  0  0  0  0  0  0999 V2000
    6.1979   -1.2656    2.4576 C   0  0  0  0  0  0  0  0  0  0  0  0
    5.5138   -0.6362    1.2443 C   0  0  0  0  0  0  0  0  0  0  0  0
    6.1082   -1.1073   -0.0746 C   0  0  0  0  0  0  0  0  0  0  0  0
    5.4099   -0.4704   -1.1296 O   0  0  0  0  0  0  0  0  0  0  0  0
    5.7503   -0.7259   -2.4189 C   0  0  0  0  0  0  0  0  0  0  0  0
    6.7754   -1.5997   -2.8155 C   0  0  0  0  0  0  0  0  0  0  0  0
    7.0418   -1.7882   -4.1757 C   0  0  0  0  0  0  0  0  0  0  0  0
    6.3070   -1.1259   -5.1673 C   0  0  0  0  0  0  0  0  0  0  0  0
    6.6285   -1.3144   -6.6357 C   0  0  0  0  0  0  0  0  0  0  0  0
    6.8553   -2.7153   -6.9699 N   0  0  0  0  0  0  0  0  0  0  0  0
    7.0829   -3.0080   -8.3859 C   0  0  1  0  0  0  0  0  0  0  0  0
    8.4383   -2.4548   -8.8597 C   0  0  0  0  0  0  0  0  0  0  0  0
    7.0034   -4.5100   -8.6227 C   0  0  0  0  0  0  0  0  0  0  0  0
    6.3866   -5.0205   -9.7748 C   0  0  0  0  0  0  0  0  0  0  0  0
    6.3453   -6.3939  -10.0293 C   0  0  0  0  0  0  0  0  0  0  0  0
    6.9283   -7.2637   -9.1114 C   0  0  0  0  0  0  0  0  0  0  0  0
    6.8903   -8.5854   -9.3443 F   0  0  0  0  0  0  0  0  0  0  0  0
    7.5450   -6.7931   -7.9544 C   0  0  0  0  0  0  0  0  0  0  0  0
    7.5803   -5.4168   -7.7182 C   0  0  0  0  0  0  0  0  0  0  0  0
    5.2801   -0.2612   -4.7529 C   0  0  0  0  0  0  0  0  0  0  0  0
    5.0035   -0.0575   -3.4038 C   0  0  0  0  0  0  0  0  0  0  0  0
    5.7478   -0.9068    3.3958 H   0  0  0  0  0  0  0  0  0  0  0  0
    7.2724   -1.0191    2.4911 H   0  0  0  0  0  0  0  0  0  0  0  0
    6.1101   -2.3650    2.4482 H   0  0  0  0  0  0  0  0  0  0  0  0
    5.5899    0.4635    1.2865 H   0  0  0  0  0  0  0  0  0  0  0  0
    4.4363   -0.8724    1.2438 H   0  0  0  0  0  0  0  0  0  0  0  0
    6.0214   -2.2077   -0.1673 H   0  0  0  0  0  0  0  0  0  0  0  0
    7.1864   -0.8586   -0.1239 H   0  0  0  0  0  0  0  0  0  0  0  0
    7.3715   -2.1365   -2.0772 H   0  0  0  0  0  0  0  0  0  0  0  0
    7.8365   -2.4742   -4.4776 H   0  0  0  0  0  0  0  0  0  0  0  0
    7.5431   -0.7458   -6.8810 H   0  0  0  0  0  0  0  0  0  0  0  0
    5.8178   -0.8534   -7.2442 H   0  0  0  0  0  0  0  0  0  0  0  0
    6.0636   -3.2656   -6.6376 H   0  0  0  0  0  0  0  0  0  0  0  0
    6.2992   -2.5357   -9.0218 H   0  0  0  0  0  0  0  0  0  0  0  0
    9.2564   -2.8796   -8.2571 H   0  0  0  0  0  0  0  0  0  0  0  0
    8.4823   -1.3576   -8.7791 H   0  0  0  0  0  0  0  0  0  0  0  0
    8.6099   -2.7179   -9.9144 H   0  0  0  0  0  0  0  0  0  0  0  0
    5.9244   -4.3325  -10.4886 H   0  0  0  0  0  0  0  0  0  0  0  0
    5.8640   -6.7985  -10.9218 H   0  0  0  0  0  0  0  0  0  0  0  0
    7.9878   -7.5061   -7.2558 H   0  0  0  0  0  0  0  0  0  0  0  0
    8.0547   -5.0329   -6.8128 H   0  0  0  0  0  0  0  0  0  0  0  0
    4.6822    0.2640   -5.5039 H   0  0  0  0  0  0  0  0  0  0  0  0
    4.2042    0.6135   -3.0824 H   0  0  0  0  0  0  0  0  0  0  0  0
  1  2  1  0
  1 22  1  0
  1 23  1  0
  1 24  1  0
  2  3  1  0
  2 25  1  0
  2 26  1  0
  3  4  1  0
  3 27  1  0
  3 28  1  0
  4  5  1  0
  5  6  2  0
  5 21  1  0
  6  7  1  0
  6 29  1  0
  7  8  2  0
  7 30  1  0
  8  9  1  0
  8 20  1  0
  9 10  1  0
  9 31  1  0
  9 32  1  0
 10 11  1  0
 10 33  1  0
 11 12  1  0
 11 13  1  0
 11 34  1  6
 12 35  1  0
 12 36  1  0
 12 37  1  0
 13 14  2  0
 13 19  1  0
 14 15  1  0
 14 38  1  0
 15 16  2  0
 15 39  1  0
 16 17  1  0
 16 18  1  0
 18 19  2  0
 18 40  1  0
 19 41  1  0
 20 21  2  0
 20 42  1  0
 21 43  1  0
M  END

