
     RDKit          3D

 45 47  0  0  0  0  0  0  0  0999 V2000
    1.2124    1.7863   -0.9500 C   0  0  0  0  0  0  0  0  0  0  0  0
    2.5758    1.9997   -0.6958 O   0  0  0  0  0  0  0  0  0  0  0  0
    3.4334    1.2310   -1.4935 C   0  0  0  0  0  0  0  0  0  0  0  0
    4.8792    1.5363   -1.1700 C   0  0  0  0  0  0  0  0  0  0  0  0
    5.9061    0.8319   -1.8167 C   0  0  0  0  0  0  0  0  0  0  0  0
    7.2450    1.1188   -1.5431 C   0  0  0  0  0  0  0  0  0  0  0  0
    7.5758    2.1084   -0.6162 C   0  0  0  0  0  0  0  0  0  0  0  0
    6.5602    2.8099    0.0478 C   0  0  0  0  0  0  0  0  0  0  0  0
    6.9830    3.8546    1.0343 C   0  0  0  0  0  0  0  0  0  0  0  0
    8.1300    4.2825    1.1131 O   0  0  0  0  0  0  0  0  0  0  0  0
    6.0109    4.3215    1.8721 N   0  0  0  0  0  0  0  0  0  0  0  0
    6.3593    5.2632    2.8111 N   0  0  0  0  0  0  0  0  0  0  0  0
    5.4419    5.6700    3.7105 C   0  0  0  0  0  0  0  0  0  0  0  0
    4.3003    5.2324    3.7478 O   0  0  0  0  0  0  0  0  0  0  0  0
    5.9273    6.6663    4.7717 C   0  0  0  0  0  0  0  0  0  0  0  0
    7.0065    7.5592    4.3798 N   0  0  0  0  0  0  0  0  0  0  0  0
    6.9768    8.8626    4.6198 N   0  0  0  0  0  0  0  0  0  0  0  0
    8.1033    9.3426    4.1841 N   0  0  0  0  0  0  0  0  0  0  0  0
    8.8118    8.2979    3.6729 C   0  0  0  0  0  0  0  0  0  0  0  0
   10.1361    8.4146    3.0518 C   0  0  0  0  0  0  0  0  0  0  0  0
   10.8416    9.6269    3.1403 C   0  0  0  0  0  0  0  0  0  0  0  0
   12.1018    9.7462    2.5533 C   0  0  0  0  0  0  0  0  0  0  0  0
   12.6658    8.6621    1.8724 C   0  0  0  0  0  0  0  0  0  0  0  0
   11.9624    7.4564    1.7760 C   0  0  0  0  0  0  0  0  0  0  0  0
   10.7020    7.3283    2.3609 C   0  0  0  0  0  0  0  0  0  0  0  0
    8.1307    7.1580    3.8023 N   0  0  0  0  0  0  0  0  0  0  0  0
    5.2152    2.5241   -0.2405 C   0  0  0  0  0  0  0  0  0  0  0  0
    0.6397    2.4358   -0.2729 H   0  0  0  0  0  0  0  0  0  0  0  0
    0.9170    0.7337   -0.7650 H   0  0  0  0  0  0  0  0  0  0  0  0
    0.9422    2.0378   -1.9956 H   0  0  0  0  0  0  0  0  0  0  0  0
    3.2468    1.4287   -2.5721 H   0  0  0  0  0  0  0  0  0  0  0  0
    3.2432    0.1458   -1.3430 H   0  0  0  0  0  0  0  0  0  0  0  0
    5.6555    0.0546   -2.5454 H   0  0  0  0  0  0  0  0  0  0  0  0
    8.0357    0.5667   -2.0571 H   0  0  0  0  0  0  0  0  0  0  0  0
    8.6142    2.3556   -0.3896 H   0  0  0  0  0  0  0  0  0  0  0  0
    5.0699    3.9554    1.9798 H   0  0  0  0  0  0  0  0  0  0  0  0
    7.3331    5.5796    2.7857 H   0  0  0  0  0  0  0  0  0  0  0  0
    6.2354    6.0935    5.6629 H   0  0  0  0  0  0  0  0  0  0  0  0
    5.0760    7.2986    5.0490 H   0  0  0  0  0  0  0  0  0  0  0  0
   10.3899   10.4660    3.6725 H   0  0  0  0  0  0  0  0  0  0  0  0
   12.6469   10.6905    2.6273 H   0  0  0  0  0  0  0  0  0  0  0  0
   13.6528    8.7582    1.4125 H   0  0  0  0  0  0  0  0  0  0  0  0
   12.3953    6.6104    1.2367 H   0  0  0  0  0  0  0  0  0  0  0  0
   10.1460    6.3927    2.2679 H   0  0  0  0  0  0  0  0  0  0  0  0
    4.3966    3.0716    0.2280 H   0  0  0  0  0  0  0  0  0  0  0  0
  1  2  1  0
  1 28  1  0
  1 29  1  0
  1 30  1  0
  2  3  1  0
  3  4  1  0
  3 31  1  0
  3 32  1  0
  4  5  2  0
  4 27  1  0
  5  6  1  0
  5 33  1  0
  6  7  2  0
  6 34  1  0
  7  8  1  0
  7 35  1  0
  8  9  1  0
  8 27  2  0
  9 10  2  0
  9 11  1  0
 11 12  1  0
 11 36  1  0
 12 13  1  0
 12 37  1  0
 13 14  2  0
 13 15  1  0
 15 16  1  0
 15 38  1  0
 15 39  1  0
 16 17  1  0
 16 26  1  0
 17 18  2  0
 18 19  1  0
 19 20  1  0
 19 26  2  0
 20 21  2  0
 20 25  1  0
 21 22  1  0
 21 40  1  0
 22 23  2  0
 22 41  1  0
 23 24  1  0
 23 42  1  0
 24 25  2  0
 24 43  1  0
 25 44  1  0
 27 45  1  0
M  END

