
     RDKit          3D

 32 34  0  0  0  0  0  0  0  0999 V2000
    2.1548   -0.9507   -0.4367 C   0  0  0  0  0  0  0  0  0  0  0  0
    3.0453    0.0575    0.2907 C   0  0  0  0  0  0  0  0  0  0  0  0
    3.1397    1.3424   -0.3921 N   0  0  0  0  0  0  0  0  0  0  0  0
    2.3556    2.4743   -0.2131 C   0  0  0  0  0  0  0  0  0  0  0  0
    1.3432    2.6250    0.8608 C   0  0  0  0  0  0  0  0  0  0  0  0
    0.0189    2.8900    0.4709 C   0  0  0  0  0  0  0  0  0  0  0  0
   -0.9950    3.0891    1.4131 C   0  0  0  0  0  0  0  0  0  0  0  0
   -2.2803    3.3425    1.0639 O   0  0  0  0  0  0  0  0  0  0  0  0
   -0.6873    3.0250    2.7804 C   0  0  0  0  0  0  0  0  0  0  0  0
    0.6229    2.7863    3.1836 C   0  0  0  0  0  0  0  0  0  0  0  0
    1.6349    2.5949    2.2363 C   0  0  0  0  0  0  0  0  0  0  0  0
    3.2805    2.3845    2.8103 Cl  0  0  0  0  0  0  0  0  0  0  0  0
    2.5605    3.3964   -1.1256 N   0  0  0  0  0  0  0  0  0  0  0  0
    3.5353    2.8836   -1.9556 C   0  0  0  0  0  0  0  0  0  0  0  0
    4.1496    3.4465   -3.0860 C   0  0  0  0  0  0  0  0  0  0  0  0
    5.1162    2.6952   -3.7497 C   0  0  0  0  0  0  0  0  0  0  0  0
    5.4752    1.4038   -3.3043 C   0  0  0  0  0  0  0  0  0  0  0  0
    4.8797    0.8265   -2.1831 C   0  0  0  0  0  0  0  0  0  0  0  0
    3.9103    1.5878   -1.5167 C   0  0  0  0  0  0  0  0  0  0  0  0
    2.1383   -1.9052    0.1131 H   0  0  0  0  0  0  0  0  0  0  0  0
    2.5192   -1.1497   -1.4562 H   0  0  0  0  0  0  0  0  0  0  0  0
    1.1199   -0.5813   -0.5090 H   0  0  0  0  0  0  0  0  0  0  0  0
    4.0687   -0.3363    0.4005 H   0  0  0  0  0  0  0  0  0  0  0  0
    2.6767    0.2366    1.3079 H   0  0  0  0  0  0  0  0  0  0  0  0
   -0.2015    2.9507   -0.5982 H   0  0  0  0  0  0  0  0  0  0  0  0
   -2.3540    3.3874    0.1013 H   0  0  0  0  0  0  0  0  0  0  0  0
   -1.4829    3.1790    3.5117 H   0  0  0  0  0  0  0  0  0  0  0  0
    0.8769    2.7617    4.2446 H   0  0  0  0  0  0  0  0  0  0  0  0
    3.8665    4.4463   -3.4219 H   0  0  0  0  0  0  0  0  0  0  0  0
    5.6099    3.1086   -4.6327 H   0  0  0  0  0  0  0  0  0  0  0  0
    6.2387    0.8440   -3.8505 H   0  0  0  0  0  0  0  0  0  0  0  0
    5.1654   -0.1726   -1.8469 H   0  0  0  0  0  0  0  0  0  0  0  0
  1  2  1  0
  1 20  1  0
  1 21  1  0
  1 22  1  0
  2  3  1  0
  2 23  1  0
  2 24  1  0
  3  4  1  0
  3 19  1  0
  4  5  1  0
  4 13  2  0
  5  6  2  0
  5 11  1  0
  6  7  1  0
  6 25  1  0
  7  8  1  0
  7  9  2  0
  8 26  1  0
  9 10  1  0
  9 27  1  0
 10 11  2  0
 10 28  1  0
 11 12  1  0
 13 14  1  0
 14 15  1  0
 14 19  2  0
 15 16  2  0
 15 29  1  0
 16 17  1  0
 16 30  1  0
 17 18  2  0
 17 31  1  0
 18 19  1  0
 18 32  1  0
M  END

