
     RDKit          3D

 49 52  0  0  0  0  0  0  0  0999 V2000
   11.3672    9.5855    0.1334 C   0  0  0  0  0  0  0  0  0  0  0  0
   10.9171    8.2370    0.6791 C   0  0  0  0  0  0  0  0  0  0  0  0
   10.6414    8.0645    1.8509 O   0  0  0  0  0  0  0  0  0  0  0  0
   10.8523    7.2461   -0.2808 N   0  0  0  0  0  0  0  0  0  0  0  0
   10.4760    5.8976   -0.1416 C   0  0  0  0  0  0  0  0  0  0  0  0
   10.0850    5.3213    1.0810 C   0  0  0  0  0  0  0  0  0  0  0  0
    9.7289    3.9772    1.1260 C   0  0  0  0  0  0  0  0  0  0  0  0
    9.7458    3.1622   -0.0223 C   0  0  0  0  0  0  0  0  0  0  0  0
    9.3624    1.8200    0.1667 N   0  0  0  0  0  0  0  0  0  0  0  0
    9.2627    0.7801   -0.6854 C   0  0  0  0  0  0  0  0  0  0  0  0
    9.5662    0.9696   -1.9828 N   0  0  0  0  0  0  0  0  0  0  0  0
    9.4600   -0.0665   -2.7997 C   0  0  0  0  0  0  0  0  0  0  0  0
    9.0856   -1.3015   -2.5101 N   0  0  0  0  0  0  0  0  0  0  0  0
    8.7640   -1.5780   -1.2327 C   0  0  0  0  0  0  0  0  0  0  0  0
    8.3796   -2.8292   -0.9127 N   0  0  0  0  0  0  0  0  0  0  0  0
    8.2270   -3.9984   -1.6851 C   0  0  0  0  0  0  0  0  0  0  0  0
    7.7941   -5.1434   -0.9835 C   0  0  0  0  0  0  0  0  0  0  0  0
    7.6000   -6.3490   -1.6486 C   0  0  0  0  0  0  0  0  0  0  0  0
    7.8374   -6.4489   -3.0226 C   0  0  0  0  0  0  0  0  0  0  0  0
    8.2903   -5.3120   -3.7212 C   0  0  0  0  0  0  0  0  0  0  0  0
    8.4780   -4.0950   -3.0618 C   0  0  0  0  0  0  0  0  0  0  0  0
    8.5563   -5.3627   -5.0612 O   0  0  0  0  0  0  0  0  0  0  0  0
    8.6792   -6.6742   -5.5890 C   0  0  0  0  0  0  0  0  0  0  0  0
    7.5621   -7.5608   -5.0648 C   0  0  0  0  0  0  0  0  0  0  0  0
    7.6249   -7.6445   -3.6494 O   0  0  0  0  0  0  0  0  0  0  0  0
    8.8364   -0.5308   -0.2288 C   0  0  0  0  0  0  0  0  0  0  0  0
    8.5066   -0.7773    1.1340 N   0  0  0  0  0  0  0  0  0  0  0  0
    8.5788    0.1412    1.9653 O   0  0  0  0  0  0  0  0  0  0  0  0
    8.1478   -1.9108    1.4894 O   0  0  0  0  0  0  0  0  0  0  0  0
   10.1366    3.7399   -1.2434 C   0  0  0  0  0  0  0  0  0  0  0  0
   10.4931    5.0852   -1.2885 C   0  0  0  0  0  0  0  0  0  0  0  0
   11.4172   10.2971    0.9660 H   0  0  0  0  0  0  0  0  0  0  0  0
   10.6574    9.9627   -0.6213 H   0  0  0  0  0  0  0  0  0  0  0  0
   12.3593    9.5128   -0.3417 H   0  0  0  0  0  0  0  0  0  0  0  0
   11.1089    7.5193   -1.2224 H   0  0  0  0  0  0  0  0  0  0  0  0
   10.0653    5.9335    1.9793 H   0  0  0  0  0  0  0  0  0  0  0  0
    9.4275    3.5455    2.0848 H   0  0  0  0  0  0  0  0  0  0  0  0
    9.1071    1.5552    1.1224 H   0  0  0  0  0  0  0  0  0  0  0  0
    9.7147    0.1232   -3.8508 H   0  0  0  0  0  0  0  0  0  0  0  0
    8.1633   -2.9179    0.0840 H   0  0  0  0  0  0  0  0  0  0  0  0
    7.6015   -5.0818    0.0905 H   0  0  0  0  0  0  0  0  0  0  0  0
    7.2532   -7.2371   -1.1168 H   0  0  0  0  0  0  0  0  0  0  0  0
    8.8245   -3.2346   -3.6258 H   0  0  0  0  0  0  0  0  0  0  0  0
    9.6600   -7.1042   -5.3106 H   0  0  0  0  0  0  0  0  0  0  0  0
    8.6338   -6.5847   -6.6843 H   0  0  0  0  0  0  0  0  0  0  0  0
    7.6538   -8.5863   -5.4518 H   0  0  0  0  0  0  0  0  0  0  0  0
    6.5822   -7.1521   -5.3766 H   0  0  0  0  0  0  0  0  0  0  0  0
   10.1562    3.1298   -2.1416 H   0  0  0  0  0  0  0  0  0  0  0  0
   10.7944    5.5152   -2.2490 H   0  0  0  0  0  0  0  0  0  0  0  0
  1  2  1  0
  1 32  1  0
  1 33  1  0
  1 34  1  0
  2  3  2  0
  2  4  1  0
  4  5  1  0
  4 35  1  0
  5  6  2  0
  5 31  1  0
  6  7  1  0
  6 36  1  0
  7  8  2  0
  7 37  1  0
  8  9  1  0
  8 30  1  0
  9 10  1  0
  9 38  1  0
 10 11  2  0
 10 26  1  0
 11 12  1  0
 12 13  2  0
 12 39  1  0
 13 14  1  0
 14 15  1  0
 14 26  2  0
 15 16  1  0
 15 40  1  0
 16 17  2  0
 16 21  1  0
 17 18  1  0
 17 41  1  0
 18 19  2  0
 18 42  1  0
 19 20  1  0
 19 25  1  0
 20 21  2  0
 20 22  1  0
 21 43  1  0
 22 23  1  0
 23 24  1  0
 23 44  1  0
 23 45  1  0
 24 25  1  0
 24 46  1  0
 24 47  1  0
 26 27  1  0
 27 28  2  0
 27 29  1  0
 30 31  2  0
 30 48  1  0
 31 49  1  0
M  CHG  2  27   1  29  -1
M  END

