
     RDKit          3D

 29 30  0  0  0  0  0  0  0  0999 V2000
    1.0425    0.1713    0.1470 C   0  0  0  0  0  0  0  0  0  0  0  0
    2.5201   -0.0845   -0.1300 C   0  0  1  0  0  0  0  0  0  0  0  0
    2.7692   -0.3342   -1.6202 C   0  0  0  0  0  0  0  0  0  0  0  0
    3.2020    1.1390    0.2629 O   0  0  0  0  0  0  0  0  0  0  0  0
    4.5127    1.1228    0.5820 C   0  0  0  0  0  0  0  0  0  0  0  0
    5.1425    2.3710    0.7410 C   0  0  0  0  0  0  0  0  0  0  0  0
    6.4813    2.4430    1.0978 C   0  0  0  0  0  0  0  0  0  0  0  0
    7.2271    1.2633    1.3047 C   0  0  0  0  0  0  0  0  0  0  0  0
    8.6105    1.3312    1.6775 C   0  0  0  0  0  0  0  0  0  0  0  0
    9.7307    1.3869    1.9809 N   0  0  0  0  0  0  0  0  0  0  0  0
    6.5945    0.0190    1.1440 C   0  0  0  0  0  0  0  0  0  0  0  0
    5.2482   -0.0662    0.7840 C   0  0  0  0  0  0  0  0  0  0  0  0
    4.5583   -1.4018    0.6204 C   0  0  1  0  0  0  0  0  0  0  0  0
    4.7608   -1.8137   -0.3830 H   0  0  0  0  0  0  0  0  0  0  0  0
    5.0249   -2.4078    1.5070 O   0  0  0  0  0  0  0  0  0  0  0  0
    3.0454   -1.2278    0.7611 C   0  0  2  0  0  0  0  0  0  0  0  0
    2.8451   -0.9280    1.8142 H   0  0  0  0  0  0  0  0  0  0  0  0
    2.3720   -2.4185    0.4428 O   0  0  0  0  0  0  0  0  0  0  0  0
    0.6878    1.0282   -0.4446 H   0  0  0  0  0  0  0  0  0  0  0  0
    0.8838    0.3951    1.2126 H   0  0  0  0  0  0  0  0  0  0  0  0
    0.4545   -0.7185   -0.1164 H   0  0  0  0  0  0  0  0  0  0  0  0
    2.3154    0.4708   -2.2168 H   0  0  0  0  0  0  0  0  0  0  0  0
    2.3227   -1.2941   -1.9158 H   0  0  0  0  0  0  0  0  0  0  0  0
    3.8431   -0.3637   -1.8579 H   0  0  0  0  0  0  0  0  0  0  0  0
    4.5495    3.2731    0.5804 H   0  0  0  0  0  0  0  0  0  0  0  0
    6.9634    3.4148    1.2199 H   0  0  0  0  0  0  0  0  0  0  0  0
    7.1545   -0.9036    1.3091 H   0  0  0  0  0  0  0  0  0  0  0  0
    4.9999   -2.0517    2.4082 H   0  0  0  0  0  0  0  0  0  0  0  0
    2.8765   -3.1379    0.8531 H   0  0  0  0  0  0  0  0  0  0  0  0
  2  1  1  6
  1 19  1  0
  1 20  1  0
  1 21  1  0
  2  3  1  0
  2  4  1  0
  2 16  1  0
  3 22  1  0
  3 23  1  0
  3 24  1  0
  4  5  1  0
  5  6  1  0
  5 12  2  0
  6  7  2  0
  6 25  1  0
  7  8  1  0
  7 26  1  0
  8  9  1  0
  8 11  2  0
  9 10  3  0
 11 12  1  0
 11 27  1  0
 12 13  1  0
 13 14  1  6
 13 15  1  0
 13 16  1  0
 15 28  1  0
 16 17  1  1
 16 18  1  0
 18 29  1  0
M  END

