
     RDKit          3D

 33 35  0  0  0  0  0  0  0  0999 V2000
    3.4127   -0.0052   -0.8924 C   0  0  0  0  0  0  0  0  0  0  0  0
    2.6398   -0.3692    0.2281 O   0  0  0  0  0  0  0  0  0  0  0  0
    2.8194    0.4350    1.3592 C   0  0  1  0  0  0  0  0  0  0  0  0
    2.1165    1.8044    1.3242 C   0  0  0  0  0  0  0  0  0  0  0  0
    1.9863    2.1614    2.8128 C   0  0  2  0  0  0  0  0  0  0  0  0
    3.2138    2.9690    3.2909 C   0  0  0  0  0  0  0  0  0  0  0  0
    3.4834    4.0448    2.8296 O   0  0  0  0  0  0  0  0  0  0  0  0
    3.9518    2.3745    4.2352 O   0  0  0  0  0  0  0  0  0  0  0  0
    1.8682    0.8511    3.4971 N   0  0  0  0  0  0  0  0  0  0  0  0
    0.9487    0.6359    4.5120 C   0  0  0  0  0  0  0  0  0  0  0  0
    0.1619   -0.9016    4.7207 S   0  0  0  0  0  0  0  0  0  0  0  0
   -0.7357   -0.4803    6.0470 N   0  0  0  0  0  0  0  0  0  0  0  0
   -0.4851    0.7950    6.3483 C   0  0  0  0  0  0  0  0  0  0  0  0
   -1.1036    1.4787    7.4445 C   0  0  0  0  0  0  0  0  0  0  0  0
   -0.7568    2.7789    7.7077 C   0  0  0  0  0  0  0  0  0  0  0  0
    0.2161    3.4653    6.9133 C   0  0  0  0  0  0  0  0  0  0  0  0
    0.8263    2.8502    5.8475 C   0  0  0  0  0  0  0  0  0  0  0  0
    0.4830    1.4985    5.5226 C   0  0  0  0  0  0  0  0  0  0  0  0
    2.1522   -0.2440    2.5584 C   0  0  0  0  0  0  0  0  0  0  0  0
    3.2159   -0.7454   -1.6806 H   0  0  0  0  0  0  0  0  0  0  0  0
    4.4961   -0.0119   -0.6616 H   0  0  0  0  0  0  0  0  0  0  0  0
    3.1483    0.9972   -1.2793 H   0  0  0  0  0  0  0  0  0  0  0  0
    3.9025    0.5784    1.5577 H   0  0  0  0  0  0  0  0  0  0  0  0
    1.1207    1.6698    0.8730 H   0  0  0  0  0  0  0  0  0  0  0  0
    2.6530    2.5868    0.7714 H   0  0  0  0  0  0  0  0  0  0  0  0
    1.1013    2.7864    3.0021 H   0  0  0  0  0  0  0  0  0  0  0  0
    3.5249    1.5163    4.4303 H   0  0  0  0  0  0  0  0  0  0  0  0
   -1.8353    0.9381    8.0475 H   0  0  0  0  0  0  0  0  0  0  0  0
   -1.2228    3.3059    8.5444 H   0  0  0  0  0  0  0  0  0  0  0  0
    0.4805    4.4947    7.1656 H   0  0  0  0  0  0  0  0  0  0  0  0
    1.5745    3.3984    5.2754 H   0  0  0  0  0  0  0  0  0  0  0  0
    1.2181   -0.7213    2.2041 H   0  0  0  0  0  0  0  0  0  0  0  0
    2.7770   -1.0219    3.0247 H   0  0  0  0  0  0  0  0  0  0  0  0
  1  2  1  0
  1 20  1  0
  1 21  1  0
  1 22  1  0
  2  3  1  0
  3  4  1  0
  3 19  1  0
  3 23  1  1
  4  5  1  0
  4 24  1  0
  4 25  1  0
  5  6  1  0
  5  9  1  0
  5 26  1  6
  6  7  2  0
  6  8  1  0
  8 27  1  0
  9 10  1  0
  9 19  1  0
 10 11  1  0
 10 18  2  0
 11 12  1  0
 12 13  2  0
 13 14  1  0
 13 18  1  0
 14 15  2  0
 14 28  1  0
 15 16  1  0
 15 29  1  0
 16 17  2  0
 16 30  1  0
 17 18  1  0
 17 31  1  0
 19 32  1  0
 19 33  1  0
M  END

