
     RDKit          3D

 25 26  0  0  0  0  0  0  0  0999 V2000
    3.0444   -1.0243    1.6749 N   0  0  0  0  0  0  0  0  0  0  0  0
    2.5221   -0.6412    0.4750 C   0  0  0  0  0  0  0  0  0  0  0  0
    1.4691   -0.0394    0.3724 O   0  0  0  0  0  0  0  0  0  0  0  0
    3.3382   -1.0721   -0.7563 C   0  0  0  0  0  0  0  0  0  0  0  0
    4.8301   -0.8408   -0.6672 C   0  0  0  0  0  0  0  0  0  0  0  0
    5.7004   -1.9152   -0.5803 C   0  0  0  0  0  0  0  0  0  0  0  0
    7.1036   -1.7338   -0.4945 C   0  0  0  0  0  0  0  0  0  0  0  0
    7.6371   -0.4652   -0.5009 C   0  0  0  0  0  0  0  0  0  0  0  0
    6.7898    0.6756   -0.5895 C   0  0  0  0  0  0  0  0  0  0  0  0
    7.3218    1.9953   -0.5995 C   0  0  0  0  0  0  0  0  0  0  0  0
    6.4936    3.0947   -0.6812 C   0  0  0  0  0  0  0  0  0  0  0  0
    5.0905    2.9190   -0.7546 C   0  0  0  0  0  0  0  0  0  0  0  0
    4.5403    1.6526   -0.7489 C   0  0  0  0  0  0  0  0  0  0  0  0
    5.3662    0.4938   -0.6695 C   0  0  0  0  0  0  0  0  0  0  0  0
    2.5749   -0.7155    2.5182 H   0  0  0  0  0  0  0  0  0  0  0  0
    3.9831   -1.3968    1.7452 H   0  0  0  0  0  0  0  0  0  0  0  0
    2.8904   -0.5428   -1.6089 H   0  0  0  0  0  0  0  0  0  0  0  0
    3.1465   -2.1468   -0.9116 H   0  0  0  0  0  0  0  0  0  0  0  0
    5.2963   -2.9319   -0.5916 H   0  0  0  0  0  0  0  0  0  0  0  0
    7.7565   -2.6080   -0.4308 H   0  0  0  0  0  0  0  0  0  0  0  0
    8.7185   -0.3153   -0.4398 H   0  0  0  0  0  0  0  0  0  0  0  0
    8.4063    2.1226   -0.5408 H   0  0  0  0  0  0  0  0  0  0  0  0
    6.9164    4.1025   -0.6882 H   0  0  0  0  0  0  0  0  0  0  0  0
    4.4373    3.7932   -0.8152 H   0  0  0  0  0  0  0  0  0  0  0  0
    3.4555    1.5434   -0.7947 H   0  0  0  0  0  0  0  0  0  0  0  0
  1  2  1  0
  1 15  1  0
  1 16  1  0
  2  3  2  0
  2  4  1  0
  4  5  1  0
  4 17  1  0
  4 18  1  0
  5  6  2  0
  5 14  1  0
  6  7  1  0
  6 19  1  0
  7  8  2  0
  7 20  1  0
  8  9  1  0
  8 21  1  0
  9 10  1  0
  9 14  2  0
 10 11  2  0
 10 22  1  0
 11 12  1  0
 11 23  1  0
 12 13  2  0
 12 24  1  0
 13 14  1  0
 13 25  1  0
M  END

