
     RDKit          3D

 43 44  0  0  0  0  0  0  0  0999 V2000
    1.0976    0.8548   -0.0350 C   0  0  0  0  0  0  0  0  0  0  0  0
    2.6151    0.8938    0.0966 C   0  0  0  0  0  0  0  0  0  0  0  0
    3.3737    1.3155   -1.5085 S   0  0  1  0  0  0  0  0  0  0  0  0
    3.0175    0.2068   -2.4213 O   0  0  0  0  0  0  0  0  0  0  0  0
    2.9663    2.6822   -1.8680 O   0  0  0  0  0  0  0  0  0  0  0  0
    5.1328    1.2360   -1.2408 C   0  0  0  0  0  0  0  0  0  0  0  0
    6.0149    2.3272   -1.1666 C   0  0  0  0  0  0  0  0  0  0  0  0
    5.7772    3.6692   -1.0699 N   0  0  0  0  0  0  0  0  0  0  0  0
    4.8141    4.1989   -0.0969 C   0  0  0  0  0  0  0  0  0  0  0  0
    3.9523    5.3735   -0.5707 C   0  0  0  0  0  0  0  0  0  0  0  0
    4.7119    6.6923   -0.7741 C   0  0  0  0  0  0  0  0  0  0  0  0
    5.4545    6.8405   -2.1137 C   0  0  0  0  0  0  0  0  0  0  0  0
    6.1581    5.5758   -2.6440 C   0  0  0  0  0  0  0  0  0  0  0  0
    6.7602    4.6267   -1.5922 C   0  0  0  0  0  0  0  0  0  0  0  0
    7.6788    1.7472   -1.1001 S   0  0  0  0  0  0  0  0  0  0  0  0
    7.1920    0.0619   -1.2194 C   0  0  0  0  0  0  0  0  0  0  0  0
    8.1193   -1.0396   -1.3847 C   0  0  0  0  0  0  0  0  0  0  0  0
    9.6054   -0.7312   -1.4566 C   0  0  0  0  0  0  0  0  0  0  0  0
    7.7217   -2.2065   -1.4608 O   0  0  0  0  0  0  0  0  0  0  0  0
    5.7944   -0.0536   -1.2674 C   0  0  0  0  0  0  0  0  0  0  0  0
    5.1583   -1.2482   -1.3404 N   0  0  0  0  0  0  0  0  0  0  0  0
    0.6442    0.5858    0.9315 H   0  0  0  0  0  0  0  0  0  0  0  0
    0.7924    0.1098   -0.7838 H   0  0  0  0  0  0  0  0  0  0  0  0
    0.7076    1.8361   -0.3429 H   0  0  0  0  0  0  0  0  0  0  0  0
    3.0457   -0.0817    0.3702 H   0  0  0  0  0  0  0  0  0  0  0  0
    2.9587    1.6483    0.8198 H   0  0  0  0  0  0  0  0  0  0  0  0
    5.3815    4.5121    0.8055 H   0  0  0  0  0  0  0  0  0  0  0  0
    4.1584    3.3803    0.2095 H   0  0  0  0  0  0  0  0  0  0  0  0
    3.1947    5.5254    0.2174 H   0  0  0  0  0  0  0  0  0  0  0  0
    3.4012    5.0723   -1.4743 H   0  0  0  0  0  0  0  0  0  0  0  0
    5.4241    6.8162    0.0621 H   0  0  0  0  0  0  0  0  0  0  0  0
    4.0067    7.5346   -0.6788 H   0  0  0  0  0  0  0  0  0  0  0  0
    6.1915    7.6554   -2.0086 H   0  0  0  0  0  0  0  0  0  0  0  0
    4.7468    7.1817   -2.8882 H   0  0  0  0  0  0  0  0  0  0  0  0
    6.9655    5.8850   -3.3289 H   0  0  0  0  0  0  0  0  0  0  0  0
    5.4605    4.9751   -3.2494 H   0  0  0  0  0  0  0  0  0  0  0  0
    7.2185    5.1920   -0.7578 H   0  0  0  0  0  0  0  0  0  0  0  0
    7.5665    4.0539   -2.0672 H   0  0  0  0  0  0  0  0  0  0  0  0
    9.8233    0.0078   -2.2451 H   0  0  0  0  0  0  0  0  0  0  0  0
   10.1514   -1.6611   -1.6616 H   0  0  0  0  0  0  0  0  0  0  0  0
    9.9610   -0.3074   -0.5023 H   0  0  0  0  0  0  0  0  0  0  0  0
    5.7941   -2.0390   -1.4653 H   0  0  0  0  0  0  0  0  0  0  0  0
    4.2472   -1.2488   -1.7949 H   0  0  0  0  0  0  0  0  0  0  0  0
  1  2  1  0
  1 22  1  0
  1 23  1  0
  1 24  1  0
  3  2  1  1
  2 25  1  0
  2 26  1  0
  3  4  2  0
  3  5  2  0
  3  6  1  0
  6  7  1  0
  6 20  2  0
  7  8  1  0
  7 15  2  0
  8  9  1  0
  8 14  1  0
  9 10  1  0
  9 27  1  0
  9 28  1  0
 10 11  1  0
 10 29  1  0
 10 30  1  0
 11 12  1  0
 11 31  1  0
 11 32  1  0
 12 13  1  0
 12 33  1  0
 12 34  1  0
 13 14  1  0
 13 35  1  0
 13 36  1  0
 14 37  1  0
 14 38  1  0
 15 16  1  0
 16 17  2  0
 16 20  1  0
 17 18  1  0
 17 19  1  0
 18 39  1  0
 18 40  1  0
 18 41  1  0
 20 21  1  0
 21 42  1  0
 21 43  1  0
M  CHG  2  15   1  19  -1
M  END

