
     RDKit          3D

 46 47  0  0  0  0  0  0  0  0999 V2000
    0.7424   -0.2109    0.4978 C   0  0  0  0  0  0  0  0  0  0  0  0
    2.1842   -0.0797    0.3108 N   0  0  0  0  0  0  0  0  0  0  0  0
    2.7629    1.2135    0.6249 C   0  0  0  0  0  0  0  0  0  0  0  0
    2.7843    2.2695   -0.4996 C   0  0  0  0  0  0  0  0  0  0  0  0
    3.1157    3.4112   -0.2418 O   0  0  0  0  0  0  0  0  0  0  0  0
    2.4361    1.7968   -1.7360 N   0  0  0  0  0  0  0  0  0  0  0  0
    2.3671    2.4818   -2.9668 C   0  0  0  0  0  0  0  0  0  0  0  0
    2.6922    3.8428   -3.1055 C   0  0  0  0  0  0  0  0  0  0  0  0
    2.5983    4.4452   -4.3628 C   0  0  0  0  0  0  0  0  0  0  0  0
    2.1876    3.7208   -5.4852 C   0  0  0  0  0  0  0  0  0  0  0  0
    1.8649    2.3676   -5.3433 C   0  0  0  0  0  0  0  0  0  0  0  0
    1.9531    1.7514   -4.0956 C   0  0  0  0  0  0  0  0  0  0  0  0
    2.9266   -1.2172    0.0289 C   0  0  0  0  0  0  0  0  0  0  0  0
    2.3941   -2.3011   -0.1459 O   0  0  0  0  0  0  0  0  0  0  0  0
    4.4383   -1.0535   -0.0901 C   0  0  0  0  0  0  0  0  0  0  0  0
    5.1187   -2.3797   -0.4502 C   0  0  0  0  0  0  0  0  0  0  0  0
    6.5551   -2.2507   -0.6378 N   0  0  0  0  0  0  0  0  0  0  0  0
    7.4007   -2.0696    0.4202 C   0  0  0  0  0  0  0  0  0  0  0  0
    6.9893   -1.9782    1.5696 O   0  0  0  0  0  0  0  0  0  0  0  0
    8.8704   -1.9814    0.1007 C   0  0  0  0  0  0  0  0  0  0  0  0
    9.7049   -1.3876    1.0599 C   0  0  0  0  0  0  0  0  0  0  0  0
   11.0775   -1.2736    0.8442 C   0  0  0  0  0  0  0  0  0  0  0  0
   11.6268   -1.7750   -0.3408 C   0  0  0  0  0  0  0  0  0  0  0  0
   13.5014   -1.6277   -0.6456 Br  0  0  0  0  0  0  0  0  0  0  0  0
   10.8196   -2.3908   -1.3014 C   0  0  0  0  0  0  0  0  0  0  0  0
    9.4454   -2.4911   -1.0739 C   0  0  0  0  0  0  0  0  0  0  0  0
    0.2047    0.5594   -0.0788 H   0  0  0  0  0  0  0  0  0  0  0  0
    0.4707   -0.0968    1.5620 H   0  0  0  0  0  0  0  0  0  0  0  0
    0.4350   -1.2065    0.1582 H   0  0  0  0  0  0  0  0  0  0  0  0
    3.7999    1.1136    0.9725 H   0  0  0  0  0  0  0  0  0  0  0  0
    2.2133    1.6753    1.4609 H   0  0  0  0  0  0  0  0  0  0  0  0
    2.1746    0.8161   -1.7592 H   0  0  0  0  0  0  0  0  0  0  0  0
    3.0107    4.4059   -2.2313 H   0  0  0  0  0  0  0  0  0  0  0  0
    2.8527    5.5038   -4.4608 H   0  0  0  0  0  0  0  0  0  0  0  0
    2.1186    4.2053   -6.4620 H   0  0  0  0  0  0  0  0  0  0  0  0
    1.5407    1.7843   -6.2089 H   0  0  0  0  0  0  0  0  0  0  0  0
    1.6979    0.6922   -3.9913 H   0  0  0  0  0  0  0  0  0  0  0  0
    4.8601   -0.6984    0.8641 H   0  0  0  0  0  0  0  0  0  0  0  0
    4.6739   -0.2822   -0.8441 H   0  0  0  0  0  0  0  0  0  0  0  0
    4.6815   -2.7989   -1.3669 H   0  0  0  0  0  0  0  0  0  0  0  0
    4.9302   -3.1051    0.3536 H   0  0  0  0  0  0  0  0  0  0  0  0
    6.9137   -2.1475   -1.5781 H   0  0  0  0  0  0  0  0  0  0  0  0
    9.2520   -1.0193    1.9824 H   0  0  0  0  0  0  0  0  0  0  0  0
   11.7198   -0.8028    1.5902 H   0  0  0  0  0  0  0  0  0  0  0  0
   11.2617   -2.7962   -2.2128 H   0  0  0  0  0  0  0  0  0  0  0  0
    8.8310   -3.0047   -1.8176 H   0  0  0  0  0  0  0  0  0  0  0  0
  1  2  1  0
  1 27  1  0
  1 28  1  0
  1 29  1  0
  2  3  1  0
  2 13  1  0
  3  4  1  0
  3 30  1  0
  3 31  1  0
  4  5  2  0
  4  6  1  0
  6  7  1  0
  6 32  1  0
  7  8  2  0
  7 12  1  0
  8  9  1  0
  8 33  1  0
  9 10  2  0
  9 34  1  0
 10 11  1  0
 10 35  1  0
 11 12  2  0
 11 36  1  0
 12 37  1  0
 13 14  2  0
 13 15  1  0
 15 16  1  0
 15 38  1  0
 15 39  1  0
 16 17  1  0
 16 40  1  0
 16 41  1  0
 17 18  1  0
 17 42  1  0
 18 19  2  0
 18 20  1  0
 20 21  2  0
 20 26  1  0
 21 22  1  0
 21 43  1  0
 22 23  2  0
 22 44  1  0
 23 24  1  0
 23 25  1  0
 25 26  2  0
 25 45  1  0
 26 46  1  0
M  END

