
     RDKit          3D

 63 67  0  0  0  0  0  0  0  0999 V2000
    0.8897   -3.0207    3.3954 O   0  0  0  0  0  0  0  0  0  0  0  0
    1.9094   -3.3512    2.8053 C   0  0  0  0  0  0  0  0  0  0  0  0
    3.1467   -2.9931    3.2512 N   0  0  0  0  0  0  0  0  0  0  0  0
    3.3269   -2.1858    4.4489 C   0  0  0  0  0  0  0  0  0  0  0  0
    3.0771   -0.6912    4.2024 C   0  0  0  0  0  0  0  0  0  0  0  0
    3.2005    0.1951    5.4448 C   0  0  0  0  0  0  0  0  0  0  0  0
    4.5682    0.2406    6.0179 N   0  0  0  0  0  0  0  0  0  0  0  0
    5.6242    0.9243    5.4221 C   0  0  0  0  0  0  0  0  0  0  0  0
    6.7829    0.6784    5.7289 O   0  0  0  0  0  0  0  0  0  0  0  0
    5.3381    1.9724    4.4056 C   0  0  0  0  0  0  0  0  0  0  0  0
    4.4151    3.0002    4.3673 C   0  0  0  0  0  0  0  0  0  0  0  0
    4.6163    3.8885    3.2742 C   0  0  0  0  0  0  0  0  0  0  0  0
    5.6898    3.5256    2.4954 C   0  0  0  0  0  0  0  0  0  0  0  0
    6.4861    2.1254    3.1013 S   0  0  0  0  0  0  0  0  0  0  0  0
    4.8259   -0.6083    7.1041 C   0  0  0  0  0  0  0  0  0  0  0  0
    3.8702   -1.2412    7.7220 N   0  0  0  0  0  0  0  0  0  0  0  0
    4.3544   -1.9903    8.7689 C   0  0  0  0  0  0  0  0  0  0  0  0
    3.4237   -2.7696    9.5713 C   0  0  0  0  0  0  0  0  0  0  0  0
    2.0686   -2.9499    9.5092 C   0  0  0  0  0  0  0  0  0  0  0  0
    1.7924   -3.8436   10.5926 C   0  0  0  0  0  0  0  0  0  0  0  0
    0.4927   -4.3975   11.0209 C   0  0  0  0  0  0  0  0  0  0  0  0
   -0.6849   -4.1002   10.3150 C   0  0  0  0  0  0  0  0  0  0  0  0
   -1.9119   -4.6279   10.7244 C   0  0  0  0  0  0  0  0  0  0  0  0
   -1.9796   -5.4602   11.8448 C   0  0  0  0  0  0  0  0  0  0  0  0
   -0.8113   -5.7623   12.5541 C   0  0  0  0  0  0  0  0  0  0  0  0
    0.4147   -5.2371   12.1479 C   0  0  0  0  0  0  0  0  0  0  0  0
    2.9028   -4.1577   11.2350 N   0  0  0  0  0  0  0  0  0  0  0  0
    3.9231   -3.4872   10.5978 O   0  0  0  0  0  0  0  0  0  0  0  0
    5.7137   -1.9262    8.9526 C   0  0  0  0  0  0  0  0  0  0  0  0
    6.4389   -0.9011    7.7591 S   0  0  0  0  0  0  0  0  0  0  0  0
    1.8269   -4.1375    1.4666 C   0  0  1  0  0  0  0  0  0  0  0  0
    2.9582   -5.1496    1.2072 C   0  0  0  0  0  0  0  0  0  0  0  0
    2.8260   -6.3949    2.0914 C   0  0  0  0  0  0  0  0  0  0  0  0
    1.4280   -7.0053    1.9360 C   0  0  0  0  0  0  0  0  0  0  0  0
    0.3524   -5.9508    2.1986 C   0  0  0  0  0  0  0  0  0  0  0  0
    0.5385   -4.7978    1.3135 N   0  0  0  0  0  0  0  0  0  0  0  0
    3.9619   -3.2626    2.7168 H   0  0  0  0  0  0  0  0  0  0  0  0
    4.3479   -2.3593    4.8218 H   0  0  0  0  0  0  0  0  0  0  0  0
    2.6299   -2.5498    5.2182 H   0  0  0  0  0  0  0  0  0  0  0  0
    2.0490   -0.5794    3.8214 H   0  0  0  0  0  0  0  0  0  0  0  0
    3.7535   -0.3247    3.4107 H   0  0  0  0  0  0  0  0  0  0  0  0
    2.5473   -0.1689    6.2457 H   0  0  0  0  0  0  0  0  0  0  0  0
    2.8860    1.2131    5.2009 H   0  0  0  0  0  0  0  0  0  0  0  0
    3.6388    3.1455    5.1189 H   0  0  0  0  0  0  0  0  0  0  0  0
    3.9926    4.7612    3.0757 H   0  0  0  0  0  0  0  0  0  0  0  0
    6.0562    4.0135    1.5928 H   0  0  0  0  0  0  0  0  0  0  0  0
    1.3864   -2.5042    8.7932 H   0  0  0  0  0  0  0  0  0  0  0  0
   -0.6473   -3.4538    9.4357 H   0  0  0  0  0  0  0  0  0  0  0  0
   -2.8185   -4.3874   10.1635 H   0  0  0  0  0  0  0  0  0  0  0  0
   -2.9396   -5.8730   12.1651 H   0  0  0  0  0  0  0  0  0  0  0  0
   -0.8569   -6.4127   13.4314 H   0  0  0  0  0  0  0  0  0  0  0  0
    1.3290   -5.4686   12.6967 H   0  0  0  0  0  0  0  0  0  0  0  0
    6.3056   -2.4311    9.7133 H   0  0  0  0  0  0  0  0  0  0  0  0
    1.8924   -3.3529    0.6882 H   0  0  0  0  0  0  0  0  0  0  0  0
    3.9510   -4.6823    1.3227 H   0  0  0  0  0  0  0  0  0  0  0  0
    2.8888   -5.4477    0.1480 H   0  0  0  0  0  0  0  0  0  0  0  0
    2.9914   -6.1173    3.1485 H   0  0  0  0  0  0  0  0  0  0  0  0
    3.6069   -7.1295    1.8338 H   0  0  0  0  0  0  0  0  0  0  0  0
    1.2955   -7.8564    2.6242 H   0  0  0  0  0  0  0  0  0  0  0  0
    1.3096   -7.3930    0.9089 H   0  0  0  0  0  0  0  0  0  0  0  0
    0.3760   -5.6682    3.2729 H   0  0  0  0  0  0  0  0  0  0  0  0
   -0.6473   -6.3718    2.0028 H   0  0  0  0  0  0  0  0  0  0  0  0
   -0.1919   -4.1142    1.5063 H   0  0  0  0  0  0  0  0  0  0  0  0
  1  2  2  0
  2  3  1  0
  2 31  1  0
  3  4  1  0
  3 37  1  0
  4  5  1  0
  4 38  1  0
  4 39  1  0
  5  6  1  0
  5 40  1  0
  5 41  1  0
  6  7  1  0
  6 42  1  0
  6 43  1  0
  7  8  1  0
  7 15  1  0
  8  9  2  0
  8 10  1  0
 10 11  2  0
 10 14  1  0
 11 12  1  0
 11 44  1  0
 12 13  2  0
 12 45  1  0
 13 14  1  0
 13 46  1  0
 15 16  2  0
 15 30  1  0
 16 17  1  0
 17 18  1  0
 17 29  2  0
 18 19  2  0
 18 28  1  0
 19 20  1  0
 19 47  1  0
 20 21  1  0
 20 27  2  0
 21 22  2  0
 21 26  1  0
 22 23  1  0
 22 48  1  0
 23 24  2  0
 23 49  1  0
 24 25  1  0
 24 50  1  0
 25 26  2  0
 25 51  1  0
 26 52  1  0
 27 28  1  0
 29 30  1  0
 29 53  1  0
 31 32  1  0
 31 36  1  0
 31 54  1  6
 32 33  1  0
 32 55  1  0
 32 56  1  0
 33 34  1  0
 33 57  1  0
 33 58  1  0
 34 35  1  0
 34 59  1  0
 34 60  1  0
 35 36  1  0
 35 61  1  0
 35 62  1  0
 36 63  1  0
M  END

