
     RDKit          3D

 70 73  0  0  0  0  0  0  0  0999 V2000
    4.4824    1.2862    7.0741 C   0  0  0  0  0  0  0  0  0  0  0  0
    3.3508    0.3982    6.5744 C   0  0  1  0  0  0  0  0  0  0  0  0
    2.0456    1.3123    5.6138 S   0  0  0  0  0  0  0  0  0  0  0  0
    2.9767    2.0655    4.2727 C   0  0  0  0  0  0  0  0  0  0  0  0
    3.4000    1.3291    3.1557 C   0  0  0  0  0  0  0  0  0  0  0  0
    4.0747    1.9865    2.1252 C   0  0  0  0  0  0  0  0  0  0  0  0
    4.3231    3.3601    2.1705 C   0  0  0  0  0  0  0  0  0  0  0  0
    3.8911    4.1026    3.2844 C   0  0  0  0  0  0  0  0  0  0  0  0
    4.1032    5.4852    3.4301 N   0  0  0  0  0  0  0  0  0  0  0  0
    4.6245    6.3887    2.5194 C   0  0  0  0  0  0  0  0  0  0  0  0
    4.9969    6.0669    1.4035 O   0  0  0  0  0  0  0  0  0  0  0  0
    4.7009    7.7927    3.0632 C   0  0  0  0  0  0  0  0  0  0  0  0
    4.4050    8.9385    2.3916 C   0  0  0  0  0  0  0  0  0  0  0  0
    3.9155    9.2447    1.0428 C   0  0  0  0  0  0  0  0  0  0  0  0
    3.3053   10.5095    0.8818 C   0  0  0  0  0  0  0  0  0  0  0  0
    2.7914   10.9215   -0.3455 C   0  0  0  0  0  0  0  0  0  0  0  0
    2.8765   10.1010   -1.4808 C   0  0  0  0  0  0  0  0  0  0  0  0
    2.3207   10.5602   -2.8215 C   0  0  1  0  0  0  0  0  0  0  0  0
    3.4274   10.7150   -3.8797 C   0  0  0  0  0  0  0  0  0  0  0  0
    1.1940    9.6398   -3.3226 C   0  0  0  0  0  0  0  0  0  0  0  0
    3.5051    8.8527   -1.3296 C   0  0  0  0  0  0  0  0  0  0  0  0
    4.0171    8.4278   -0.1053 C   0  0  0  0  0  0  0  0  0  0  0  0
    5.0602    7.8139    4.4428 N   0  0  0  0  0  0  0  0  0  0  0  0
    4.7949    8.7756    5.4005 C   0  0  0  0  0  0  0  0  0  0  0  0
    4.1692    9.7977    5.1756 O   0  0  0  0  0  0  0  0  0  0  0  0
    5.3460    8.4793    6.7738 C   0  0  0  0  0  0  0  0  0  0  0  0
    5.4176    9.5562    7.6723 C   0  0  0  0  0  0  0  0  0  0  0  0
    5.9078    9.3700    8.9648 C   0  0  0  0  0  0  0  0  0  0  0  0
    6.3220    8.1006    9.3825 C   0  0  0  0  0  0  0  0  0  0  0  0
    6.2390    7.0177    8.5023 C   0  0  0  0  0  0  0  0  0  0  0  0
    5.7529    7.2052    7.2061 C   0  0  0  0  0  0  0  0  0  0  0  0
    3.2198    3.4418    4.3306 C   0  0  0  0  0  0  0  0  0  0  0  0
    3.8897   -0.8708    5.8743 C   0  0  0  0  0  0  0  0  0  0  0  0
    5.0454   -1.2055    5.9714 O   0  0  0  0  0  0  0  0  0  0  0  0
    2.9130   -1.5922    5.1982 N   0  0  0  0  0  0  0  0  0  0  0  0
    3.0760   -2.8112    4.5557 C   0  0  0  0  0  0  0  0  0  0  0  0
    3.9359   -3.7313    4.8569 N   0  0  0  0  0  0  0  0  0  0  0  0
    3.8255   -4.8032    4.0089 C   0  0  0  0  0  0  0  0  0  0  0  0
    2.8587   -4.7204    3.0452 C   0  0  0  0  0  0  0  0  0  0  0  0
    2.0361   -3.1951    3.1720 S   0  0  0  0  0  0  0  0  0  0  0  0
    4.0817    2.1163    7.6734 H   0  0  0  0  0  0  0  0  0  0  0  0
    5.0612    1.6989    6.2347 H   0  0  0  0  0  0  0  0  0  0  0  0
    5.1741    0.6939    7.6899 H   0  0  0  0  0  0  0  0  0  0  0  0
    2.7549    0.0384    7.4329 H   0  0  0  0  0  0  0  0  0  0  0  0
    3.2004    0.2591    3.0879 H   0  0  0  0  0  0  0  0  0  0  0  0
    4.4097    1.4173    1.2544 H   0  0  0  0  0  0  0  0  0  0  0  0
    4.8354    3.8665    1.3566 H   0  0  0  0  0  0  0  0  0  0  0  0
    3.7337    5.8915    4.2828 H   0  0  0  0  0  0  0  0  0  0  0  0
    4.4603    9.8248    3.0253 H   0  0  0  0  0  0  0  0  0  0  0  0
    3.2246   11.1740    1.7464 H   0  0  0  0  0  0  0  0  0  0  0  0
    2.3172   11.9041   -0.4260 H   0  0  0  0  0  0  0  0  0  0  0  0
    1.8808   11.5594   -2.6575 H   0  0  0  0  0  0  0  0  0  0  0  0
    3.9045    9.7475   -4.1069 H   0  0  0  0  0  0  0  0  0  0  0  0
    4.2156   11.4036   -3.5374 H   0  0  0  0  0  0  0  0  0  0  0  0
    3.0134   11.1108   -4.8217 H   0  0  0  0  0  0  0  0  0  0  0  0
    1.5658    8.6219   -3.5249 H   0  0  0  0  0  0  0  0  0  0  0  0
    0.7618   10.0278   -4.2596 H   0  0  0  0  0  0  0  0  0  0  0  0
    0.3837    9.5581   -2.5813 H   0  0  0  0  0  0  0  0  0  0  0  0
    3.6102    8.1905   -2.1935 H   0  0  0  0  0  0  0  0  0  0  0  0
    4.5173    7.4649   -0.0309 H   0  0  0  0  0  0  0  0  0  0  0  0
    5.7232    7.0996    4.7203 H   0  0  0  0  0  0  0  0  0  0  0  0
    5.0790   10.5355    7.3296 H   0  0  0  0  0  0  0  0  0  0  0  0
    5.9659   10.2181    9.6515 H   0  0  0  0  0  0  0  0  0  0  0  0
    6.7046    7.9534   10.3956 H   0  0  0  0  0  0  0  0  0  0  0  0
    6.5472    6.0209    8.8269 H   0  0  0  0  0  0  0  0  0  0  0  0
    5.6741    6.3339    6.5501 H   0  0  0  0  0  0  0  0  0  0  0  0
    2.8772    4.0051    5.2027 H   0  0  0  0  0  0  0  0  0  0  0  0
    2.0360   -1.0953    5.0529 H   0  0  0  0  0  0  0  0  0  0  0  0
    4.4861   -5.6616    4.1449 H   0  0  0  0  0  0  0  0  0  0  0  0
    2.5769   -5.4547    2.2931 H   0  0  0  0  0  0  0  0  0  0  0  0
  1  2  1  0
  1 41  1  0
  1 42  1  0
  1 43  1  0
  2  3  1  0
  2 33  1  0
  2 44  1  1
  3  4  1  0
  4  5  2  0
  4 32  1  0
  5  6  1  0
  5 45  1  0
  6  7  2  0
  6 46  1  0
  7  8  1  0
  7 47  1  0
  8  9  1  0
  8 32  2  0
  9 10  1  0
  9 48  1  0
 10 11  2  0
 10 12  1  0
 12 13  2  0
 12 23  1  0
 13 14  1  0
 13 49  1  0
 14 15  2  0
 14 22  1  0
 15 16  1  0
 15 50  1  0
 16 17  2  0
 16 51  1  0
 17 18  1  0
 17 21  1  0
 18 19  1  0
 18 20  1  0
 18 52  1  1
 19 53  1  0
 19 54  1  0
 19 55  1  0
 20 56  1  0
 20 57  1  0
 20 58  1  0
 21 22  2  0
 21 59  1  0
 22 60  1  0
 23 24  1  0
 23 61  1  0
 24 25  2  0
 24 26  1  0
 26 27  2  0
 26 31  1  0
 27 28  1  0
 27 62  1  0
 28 29  2  0
 28 63  1  0
 29 30  1  0
 29 64  1  0
 30 31  2  0
 30 65  1  0
 31 66  1  0
 32 67  1  0
 33 34  2  0
 33 35  1  0
 35 36  1  0
 35 68  1  0
 36 37  2  0
 36 40  1  0
 37 38  1  0
 38 39  2  0
 38 69  1  0
 39 40  1  0
 39 70  1  0
M  END

