
     RDKit          3D

 57 61  0  0  0  0  0  0  0  0999 V2000
    1.8586    1.4545    0.7175 C   0  0  0  0  0  0  0  0  0  0  0  0
    2.8380    0.3457    0.5012 C   0  0  0  0  0  0  0  0  0  0  0  0
    2.6301   -0.6139   -0.4433 N   0  0  0  0  0  0  0  0  0  0  0  0
    1.8361   -0.6846   -1.0701 H   0  0  0  0  0  0  0  0  0  0  0  0
    3.6133   -1.5020   -0.5299 N   0  0  0  0  0  0  0  0  0  0  0  0
    4.5123   -1.1253    0.3842 C   0  0  0  0  0  0  0  0  0  0  0  0
    5.7458   -1.9649    0.5438 C   0  0  0  0  0  0  0  0  0  0  0  0
    6.7160   -1.6235    1.2060 O   0  0  0  0  0  0  0  0  0  0  0  0
    5.6574   -3.1501   -0.1458 N   0  0  0  0  0  0  0  0  0  0  0  0
    6.6007   -4.1768   -0.2765 C   0  0  0  0  0  0  0  0  0  0  0  0
    7.8354   -4.1954    0.4016 C   0  0  0  0  0  0  0  0  0  0  0  0
    8.7057   -5.2677    0.2199 C   0  0  0  0  0  0  0  0  0  0  0  0
    8.4058   -6.3254   -0.6530 C   0  0  0  0  0  0  0  0  0  0  0  0
    9.3740   -7.4759   -0.7282 C   0  0  0  0  0  0  0  0  0  0  0  0
    9.9177   -7.8874    0.2892 O   0  0  0  0  0  0  0  0  0  0  0  0
    9.6212   -8.0383   -1.9593 N   0  0  0  0  0  0  0  0  0  0  0  0
   10.6094   -9.1236   -2.0592 C   0  0  0  0  0  0  0  0  0  0  0  0
   11.3271   -8.8456   -3.3820 C   0  0  0  0  0  0  0  0  0  0  0  0
   10.2128   -8.2486   -4.2508 C   0  0  0  0  0  0  0  0  0  0  0  0
    9.4003   -7.3905   -3.2663 C   0  0  0  0  0  0  0  0  0  0  0  0
    7.1667   -6.3068   -1.3118 C   0  0  0  0  0  0  0  0  0  0  0  0
    6.2753   -5.2541   -1.1233 C   0  0  0  0  0  0  0  0  0  0  0  0
    4.0731    0.0477    1.0894 C   0  0  0  0  0  0  0  0  0  0  0  0
    4.7071    0.8051    2.1889 C   0  0  0  0  0  0  0  0  0  0  0  0
    3.9223    1.3201    3.2624 C   0  0  0  0  0  0  0  0  0  0  0  0
    4.4869    2.0702    4.2738 C   0  0  0  0  0  0  0  0  0  0  0  0
    5.8843    2.3269    4.3027 C   0  0  0  0  0  0  0  0  0  0  0  0
    6.5301    3.1071    5.3025 C   0  0  0  0  0  0  0  0  0  0  0  0
    7.8953    3.2753    5.2216 C   0  0  0  0  0  0  0  0  0  0  0  0
    8.6829    2.6998    4.2836 N   0  0  0  0  0  0  0  0  0  0  0  0
    8.1189    1.9546    3.3487 C   0  0  0  0  0  0  0  0  0  0  0  0
    8.9432    1.3610    2.4249 N   0  0  0  0  0  0  0  0  0  0  0  0
    6.6851    1.7654    3.2628 C   0  0  0  0  0  0  0  0  0  0  0  0
    6.0747    1.0518    2.2095 C   0  0  0  0  0  0  0  0  0  0  0  0
    1.3418    1.7105   -0.2213 H   0  0  0  0  0  0  0  0  0  0  0  0
    2.3710    2.3564    1.0796 H   0  0  0  0  0  0  0  0  0  0  0  0
    1.0863    1.1914    1.4604 H   0  0  0  0  0  0  0  0  0  0  0  0
    4.7926   -3.2555   -0.6712 H   0  0  0  0  0  0  0  0  0  0  0  0
    8.0883   -3.3757    1.0690 H   0  0  0  0  0  0  0  0  0  0  0  0
    9.6468   -5.2999    0.7730 H   0  0  0  0  0  0  0  0  0  0  0  0
   10.1014  -10.1060   -2.0784 H   0  0  0  0  0  0  0  0  0  0  0  0
   11.2593   -9.1062   -1.1745 H   0  0  0  0  0  0  0  0  0  0  0  0
   11.7841   -9.7463   -3.8185 H   0  0  0  0  0  0  0  0  0  0  0  0
   12.1292   -8.1043   -3.2266 H   0  0  0  0  0  0  0  0  0  0  0  0
    9.5798   -9.0561   -4.6556 H   0  0  0  0  0  0  0  0  0  0  0  0
   10.5824   -7.6615   -5.1049 H   0  0  0  0  0  0  0  0  0  0  0  0
    8.3373   -7.3601   -3.5466 H   0  0  0  0  0  0  0  0  0  0  0  0
    9.7597   -6.3467   -3.2453 H   0  0  0  0  0  0  0  0  0  0  0  0
    6.8744   -7.1379   -1.9565 H   0  0  0  0  0  0  0  0  0  0  0  0
    5.3075   -5.2649   -1.6332 H   0  0  0  0  0  0  0  0  0  0  0  0
    2.8524    1.1042    3.2959 H   0  0  0  0  0  0  0  0  0  0  0  0
    3.8603    2.4651    5.0780 H   0  0  0  0  0  0  0  0  0  0  0  0
    5.9527    3.5655    6.1082 H   0  0  0  0  0  0  0  0  0  0  0  0
    8.4184    3.8920    5.9620 H   0  0  0  0  0  0  0  0  0  0  0  0
    9.9303    1.4229    2.6491 H   0  0  0  0  0  0  0  0  0  0  0  0
    8.6437    0.4891    2.0030 H   0  0  0  0  0  0  0  0  0  0  0  0
    6.6831    0.6752    1.3920 H   0  0  0  0  0  0  0  0  0  0  0  0
  1  2  1  0
  1 35  1  0
  1 36  1  0
  1 37  1  0
  2  3  1  0
  2 23  2  0
  3  4  1  0
  3  5  1  0
  5  6  2  0
  6  7  1  0
  6 23  1  0
  7  8  2  0
  7  9  1  0
  9 10  1  0
  9 38  1  0
 10 11  2  0
 10 22  1  0
 11 12  1  0
 11 39  1  0
 12 13  2  0
 12 40  1  0
 13 14  1  0
 13 21  1  0
 14 15  2  0
 14 16  1  0
 16 17  1  0
 16 20  1  0
 17 18  1  0
 17 41  1  0
 17 42  1  0
 18 19  1  0
 18 43  1  0
 18 44  1  0
 19 20  1  0
 19 45  1  0
 19 46  1  0
 20 47  1  0
 20 48  1  0
 21 22  2  0
 21 49  1  0
 22 50  1  0
 23 24  1  0
 24 25  2  0
 24 34  1  0
 25 26  1  0
 25 51  1  0
 26 27  2  0
 26 52  1  0
 27 28  1  0
 27 33  1  0
 28 29  2  0
 28 53  1  0
 29 30  1  0
 29 54  1  0
 30 31  2  0
 31 32  1  0
 31 33  1  0
 32 55  1  0
 32 56  1  0
 33 34  2  0
 34 57  1  0
M  END

