
     RDKit          3D

 59 60  0  0  0  0  0  0  0  0999 V2000
    1.5100   -0.4397   -3.0161 C   0  0  0  0  0  0  0  0  0  0  0  0
    1.8108   -0.1176   -1.5521 C   0  0  0  0  0  0  0  0  0  0  0  0
    3.0022   -0.8938   -0.9823 C   0  0  0  0  0  0  0  0  0  0  0  0
    4.3475   -0.4452   -1.5510 C   0  0  0  0  0  0  0  0  0  0  0  0
    4.5850    0.7415   -1.7711 O   0  0  0  0  0  0  0  0  0  0  0  0
    5.2484   -1.4424   -1.7591 N   0  0  0  0  0  0  0  0  0  0  0  0
    6.6805   -1.3155   -2.0545 C   0  0  1  0  0  0  0  0  0  0  0  0
    7.2138   -2.6800   -2.5288 C   0  0  0  0  0  0  0  0  0  0  0  0
    6.7268   -3.0277   -3.9443 C   0  0  0  0  0  0  0  0  0  0  0  0
    7.0251   -1.8964   -4.9362 C   0  0  0  0  0  0  0  0  0  0  0  0
    6.5039   -0.6323   -4.4299 N   0  0  0  0  0  0  0  0  0  0  0  0
    5.7634    0.1897   -5.2566 C   0  0  0  0  0  0  0  0  0  0  0  0
    5.6627   -0.0517   -6.4698 O   0  0  0  0  0  0  0  0  0  0  0  0
    5.1593    1.2665   -4.6818 N   0  0  0  0  0  0  0  0  0  0  0  0
    4.4876    2.2827   -5.4900 C   0  0  1  0  0  0  0  0  0  0  0  0
    3.2341    1.7388   -6.2379 C   0  0  0  0  0  0  0  0  0  0  0  0
    3.3643    1.6972   -7.7821 C   0  0  0  0  0  0  0  0  0  0  0  0
    2.8599    0.3892   -8.3881 C   0  0  0  0  0  0  0  0  0  0  0  0
    1.9094    0.3146   -9.1255 O   0  0  0  0  0  0  0  0  0  0  0  0
    3.5526   -0.6992   -8.0241 O   0  0  0  0  0  0  0  0  0  0  0  0
    4.1466    3.4927   -4.5941 C   0  0  0  0  0  0  0  0  0  0  0  0
    5.3408    4.1763   -3.9614 C   0  0  0  0  0  0  0  0  0  0  0  0
    6.1329    5.0606   -4.7127 C   0  0  0  0  0  0  0  0  0  0  0  0
    7.2473    5.6861   -4.1485 C   0  0  0  0  0  0  0  0  0  0  0  0
    7.5897    5.4395   -2.8150 C   0  0  0  0  0  0  0  0  0  0  0  0
    6.8084    4.5651   -2.0548 C   0  0  0  0  0  0  0  0  0  0  0  0
    5.6937    3.9389   -2.6229 C   0  0  0  0  0  0  0  0  0  0  0  0
    7.0143   -0.2587   -3.1234 C   0  0  0  0  0  0  0  0  0  0  0  0
    0.6414    0.1316   -3.3790 H   0  0  0  0  0  0  0  0  0  0  0  0
    1.2834   -1.5098   -3.1574 H   0  0  0  0  0  0  0  0  0  0  0  0
    2.3617   -0.1889   -3.6686 H   0  0  0  0  0  0  0  0  0  0  0  0
    0.9249   -0.3353   -0.9326 H   0  0  0  0  0  0  0  0  0  0  0  0
    2.0185    0.9585   -1.4371 H   0  0  0  0  0  0  0  0  0  0  0  0
    2.8634   -1.9799   -1.1214 H   0  0  0  0  0  0  0  0  0  0  0  0
    3.0667   -0.7234    0.1078 H   0  0  0  0  0  0  0  0  0  0  0  0
    4.9369   -2.3771   -1.5206 H   0  0  0  0  0  0  0  0  0  0  0  0
    7.2099   -1.0188   -1.1295 H   0  0  0  0  0  0  0  0  0  0  0  0
    6.9385   -3.4711   -1.8090 H   0  0  0  0  0  0  0  0  0  0  0  0
    8.3157   -2.6293   -2.5177 H   0  0  0  0  0  0  0  0  0  0  0  0
    5.6394   -3.2133   -3.9346 H   0  0  0  0  0  0  0  0  0  0  0  0
    7.2061   -3.9582   -4.2895 H   0  0  0  0  0  0  0  0  0  0  0  0
    6.5760   -2.0863   -5.9180 H   0  0  0  0  0  0  0  0  0  0  0  0
    8.1204   -1.8113   -5.0870 H   0  0  0  0  0  0  0  0  0  0  0  0
    5.0167    1.2792   -3.6721 H   0  0  0  0  0  0  0  0  0  0  0  0
    5.2145    2.6193   -6.2484 H   0  0  0  0  0  0  0  0  0  0  0  0
    2.3507    2.3396   -5.9683 H   0  0  0  0  0  0  0  0  0  0  0  0
    3.0295    0.7278   -5.8566 H   0  0  0  0  0  0  0  0  0  0  0  0
    4.4256    1.8004   -8.0628 H   0  0  0  0  0  0  0  0  0  0  0  0
    2.8071    2.5149   -8.2586 H   0  0  0  0  0  0  0  0  0  0  0  0
    4.3352   -0.4597   -7.4687 H   0  0  0  0  0  0  0  0  0  0  0  0
    3.4415    3.1663   -3.8105 H   0  0  0  0  0  0  0  0  0  0  0  0
    3.6012    4.2151   -5.2223 H   0  0  0  0  0  0  0  0  0  0  0  0
    5.8690    5.2678   -5.7545 H   0  0  0  0  0  0  0  0  0  0  0  0
    7.8473    6.3737   -4.7504 H   0  0  0  0  0  0  0  0  0  0  0  0
    8.4586    5.9314   -2.3701 H   0  0  0  0  0  0  0  0  0  0  0  0
    7.0642    4.3698   -1.0098 H   0  0  0  0  0  0  0  0  0  0  0  0
    5.0928    3.2533   -2.0193 H   0  0  0  0  0  0  0  0  0  0  0  0
    6.6536    0.7263   -2.8231 H   0  0  0  0  0  0  0  0  0  0  0  0
    8.1203   -0.1999   -3.1682 H   0  0  0  0  0  0  0  0  0  0  0  0
  1  2  1  0
  1 29  1  0
  1 30  1  0
  1 31  1  0
  2  3  1  0
  2 32  1  0
  2 33  1  0
  3  4  1  0
  3 34  1  0
  3 35  1  0
  4  5  2  0
  4  6  1  0
  6  7  1  0
  6 36  1  0
  7  8  1  0
  7 28  1  0
  7 37  1  1
  8  9  1  0
  8 38  1  0
  8 39  1  0
  9 10  1  0
  9 40  1  0
  9 41  1  0
 10 11  1  0
 10 42  1  0
 10 43  1  0
 11 12  1  0
 11 28  1  0
 12 13  2  0
 12 14  1  0
 14 15  1  0
 14 44  1  0
 15 16  1  0
 15 21  1  0
 15 45  1  6
 16 17  1  0
 16 46  1  0
 16 47  1  0
 17 18  1  0
 17 48  1  0
 17 49  1  0
 18 19  2  0
 18 20  1  0
 20 50  1  0
 21 22  1  0
 21 51  1  0
 21 52  1  0
 22 23  2  0
 22 27  1  0
 23 24  1  0
 23 53  1  0
 24 25  2  0
 24 54  1  0
 25 26  1  0
 25 55  1  0
 26 27  2  0
 26 56  1  0
 27 57  1  0
 28 58  1  0
 28 59  1  0
M  END

