
     RDKit          3D

 35 36  0  0  0  0  0  0  0  0999 V2000
    1.2487   -0.2439    0.9984 C   0  0  0  0  0  0  0  0  0  0  0  0
    2.3348   -0.0714   -0.0550 C   0  0  1  0  0  0  0  0  0  0  0  0
    1.8549   -0.3864   -1.4691 C   0  0  0  0  0  0  0  0  0  0  0  0
    2.8326    1.2608    0.0311 O   0  0  0  0  0  0  0  0  0  0  0  0
    4.2406    1.2214   -0.0546 C   0  0  0  0  0  0  0  0  0  0  0  0
    4.5780   -0.1241    0.5935 C   0  0  2  0  0  0  0  0  0  0  0  0
    5.8388   -0.8023    0.0823 C   0  0  0  0  0  0  0  0  0  0  0  0
    5.9154   -2.1419    0.6645 N   0  0  0  0  0  0  0  0  0  0  0  0
    7.1893   -3.1499    0.2420 S   0  0  1  0  0  0  0  0  0  0  0  0
    6.6655   -4.5122    0.3388 O   0  0  0  0  0  0  0  0  0  0  0  0
    7.8550   -2.6429   -0.9600 O   0  0  0  0  0  0  0  0  0  0  0  0
    8.3438   -2.9206    1.6036 C   0  0  0  0  0  0  0  0  0  0  0  0
    8.1346   -3.5877    2.8121 C   0  0  0  0  0  0  0  0  0  0  0  0
    9.0567   -3.3883    3.8355 C   0  0  0  0  0  0  0  0  0  0  0  0
   10.1453   -2.5301    3.5911 C   0  0  0  0  0  0  0  0  0  0  0  0
   11.1143   -2.2923    4.6393 C   0  0  0  0  0  0  0  0  0  0  0  0
   11.8738   -2.1170    5.4979 N   0  0  0  0  0  0  0  0  0  0  0  0
   10.3519   -1.9068    2.4240 N   0  0  0  0  0  0  0  0  0  0  0  0
    9.4705   -2.1043    1.4457 C   0  0  0  0  0  0  0  0  0  0  0  0
    3.4550   -0.9217    0.2432 O   0  0  0  0  0  0  0  0  0  0  0  0
    0.4237    0.4595    0.8118 H   0  0  0  0  0  0  0  0  0  0  0  0
    1.6627   -0.0407    1.9965 H   0  0  0  0  0  0  0  0  0  0  0  0
    0.8529   -1.2698    0.9768 H   0  0  0  0  0  0  0  0  0  0  0  0
    0.9933    0.2461   -1.7291 H   0  0  0  0  0  0  0  0  0  0  0  0
    1.5568   -1.4427   -1.5459 H   0  0  0  0  0  0  0  0  0  0  0  0
    2.6607   -0.2016   -2.1947 H   0  0  0  0  0  0  0  0  0  0  0  0
    4.6545    2.0865    0.4842 H   0  0  0  0  0  0  0  0  0  0  0  0
    4.5916    1.2552   -1.1056 H   0  0  0  0  0  0  0  0  0  0  0  0
    4.6383   -0.0198    1.6946 H   0  0  0  0  0  0  0  0  0  0  0  0
    6.7203   -0.2177    0.3929 H   0  0  0  0  0  0  0  0  0  0  0  0
    5.8262   -0.8323   -1.0210 H   0  0  0  0  0  0  0  0  0  0  0  0
    5.0412   -2.6654    0.5820 H   0  0  0  0  0  0  0  0  0  0  0  0
    7.2767   -4.2517    2.9358 H   0  0  0  0  0  0  0  0  0  0  0  0
    8.9497   -3.8824    4.8026 H   0  0  0  0  0  0  0  0  0  0  0  0
    9.6582   -1.6097    0.4877 H   0  0  0  0  0  0  0  0  0  0  0  0
  2  1  1  1
  1 21  1  0
  1 22  1  0
  1 23  1  0
  2  3  1  0
  2  4  1  0
  2 20  1  0
  3 24  1  0
  3 25  1  0
  3 26  1  0
  4  5  1  0
  5  6  1  0
  5 27  1  0
  5 28  1  0
  6  7  1  0
  6 20  1  0
  6 29  1  1
  7  8  1  0
  7 30  1  0
  7 31  1  0
  9  8  1  1
  8 32  1  0
  9 10  2  0
  9 11  2  0
  9 12  1  0
 12 13  2  0
 12 19  1  0
 13 14  1  0
 13 33  1  0
 14 15  2  0
 14 34  1  0
 15 16  1  0
 15 18  1  0
 16 17  3  0
 18 19  2  0
 19 35  1  0
M  END

