
     RDKit          3D

 48 50  0  0  0  0  0  0  0  0999 V2000
    2.3936   -0.0673    3.1381 C   0  0  0  0  0  0  0  0  0  0  0  0
    2.2286    1.3282    2.5269 C   0  0  0  0  0  0  0  0  0  0  0  0
    2.8563    1.5569    1.1324 C   0  0  2  0  0  0  0  0  0  0  0  0
    2.6850    2.6142    0.8772 H   0  0  0  0  0  0  0  0  0  0  0  0
    2.1858    0.7032    0.0474 C   0  0  0  0  0  0  0  0  0  0  0  0
    4.3962    1.3315    1.1326 C   0  0  1  0  0  0  0  0  0  0  0  0
    4.5843    0.2660    1.3219 H   0  0  0  0  0  0  0  0  0  0  0  0
    5.0255    1.6079   -0.1656 N   0  0  0  0  0  0  0  0  0  0  0  0
    4.9579    2.7766   -0.8640 C   0  0  0  0  0  0  0  0  0  0  0  0
    4.4559    3.7991   -0.3952 O   0  0  0  0  0  0  0  0  0  0  0  0
    5.5483    2.7702   -2.2458 C   0  0  0  0  0  0  0  0  0  0  0  0
    5.7285    1.6026   -3.0064 C   0  0  0  0  0  0  0  0  0  0  0  0
    6.2743    1.6736   -4.2901 C   0  0  0  0  0  0  0  0  0  0  0  0
    6.6431    2.9113   -4.8259 C   0  0  0  0  0  0  0  0  0  0  0  0
    6.4544    4.0795   -4.0792 C   0  0  0  0  0  0  0  0  0  0  0  0
    5.9035    4.0108   -2.7997 C   0  0  0  0  0  0  0  0  0  0  0  0
    5.1066    2.0258    2.3137 C   0  0  0  0  0  0  0  0  0  0  0  0
    5.5285    1.3635    3.2566 O   0  0  0  0  0  0  0  0  0  0  0  0
    5.1937    3.3865    2.2473 N   0  0  0  0  0  0  0  0  0  0  0  0
    5.7787    4.2005    3.2088 C   0  0  0  0  0  0  0  0  0  0  0  0
    5.8658    5.5018    3.0949 N   0  0  0  0  0  0  0  0  0  0  0  0
    6.5023    5.9067    4.2553 C   0  0  0  0  0  0  0  0  0  0  0  0
    6.8652    7.1914    4.6865 C   0  0  0  0  0  0  0  0  0  0  0  0
    7.5077    7.3165    5.9181 C   0  0  0  0  0  0  0  0  0  0  0  0
    7.7907    6.1901    6.7182 C   0  0  0  0  0  0  0  0  0  0  0  0
    7.4388    4.9014    6.3104 C   0  0  0  0  0  0  0  0  0  0  0  0
    6.7952    4.7816    5.0761 C   0  0  0  0  0  0  0  0  0  0  0  0
    6.3120    3.6957    4.3674 N   0  0  0  0  0  0  0  0  0  0  0  0
    6.3183    2.7013    4.5788 H   0  0  0  0  0  0  0  0  0  0  0  0
    1.8419   -0.1335    4.0892 H   0  0  0  0  0  0  0  0  0  0  0  0
    3.4482   -0.2914    3.3601 H   0  0  0  0  0  0  0  0  0  0  0  0
    2.0000   -0.8594    2.4808 H   0  0  0  0  0  0  0  0  0  0  0  0
    2.6283    2.0780    3.2303 H   0  0  0  0  0  0  0  0  0  0  0  0
    1.1538    1.5617    2.4351 H   0  0  0  0  0  0  0  0  0  0  0  0
    2.5562    0.9562   -0.9569 H   0  0  0  0  0  0  0  0  0  0  0  0
    1.0972    0.8701    0.0479 H   0  0  0  0  0  0  0  0  0  0  0  0
    2.3579   -0.3742    0.2059 H   0  0  0  0  0  0  0  0  0  0  0  0
    5.5895    0.8652   -0.5578 H   0  0  0  0  0  0  0  0  0  0  0  0
    5.4162    0.6299   -2.6174 H   0  0  0  0  0  0  0  0  0  0  0  0
    6.4033    0.7608   -4.8767 H   0  0  0  0  0  0  0  0  0  0  0  0
    7.0718    2.9658   -5.8298 H   0  0  0  0  0  0  0  0  0  0  0  0
    6.7363    5.0485   -4.4983 H   0  0  0  0  0  0  0  0  0  0  0  0
    5.7379    4.9107   -2.2048 H   0  0  0  0  0  0  0  0  0  0  0  0
    4.8453    3.8547    1.3975 H   0  0  0  0  0  0  0  0  0  0  0  0
    6.6439    8.0607    4.0638 H   0  0  0  0  0  0  0  0  0  0  0  0
    7.7996    8.3078    6.2744 H   0  0  0  0  0  0  0  0  0  0  0  0
    8.2956    6.3278    7.6776 H   0  0  0  0  0  0  0  0  0  0  0  0
    7.6582    4.0297    6.9312 H   0  0  0  0  0  0  0  0  0  0  0  0
  1  2  1  0
  1 30  1  0
  1 31  1  0
  1 32  1  0
  2  3  1  0
  2 33  1  0
  2 34  1  0
  3  4  1  6
  3  5  1  0
  3  6  1  0
  5 35  1  0
  5 36  1  0
  5 37  1  0
  6  7  1  1
  6  8  1  0
  6 17  1  0
  8  9  1  0
  8 38  1  0
  9 10  2  0
  9 11  1  0
 11 12  2  0
 11 16  1  0
 12 13  1  0
 12 39  1  0
 13 14  2  0
 13 40  1  0
 14 15  1  0
 14 41  1  0
 15 16  2  0
 15 42  1  0
 16 43  1  0
 17 18  2  0
 17 19  1  0
 19 20  1  0
 19 44  1  0
 20 21  2  0
 20 28  1  0
 21 22  1  0
 22 23  2  0
 22 27  1  0
 23 24  1  0
 23 45  1  0
 24 25  2  0
 24 46  1  0
 25 26  1  0
 25 47  1  0
 26 27  2  0
 26 48  1  0
 27 28  1  0
 28 29  1  0
M  END

