
     RDKit          3D

 26 27  0  0  0  0  0  0  0  0999 V2000
    2.7470    1.3360   -0.3202 O   0  0  0  0  0  0  0  0  0  0  0  0
    2.5826    0.1428   -0.1068 N   0  0  0  0  0  0  0  0  0  0  0  0
    2.0280   -0.6327   -0.8732 O   0  0  0  0  0  0  0  0  0  0  0  0
    3.0858   -0.3943    1.1568 C   0  0  0  0  0  0  0  0  0  0  0  0
    3.7240    0.4548    2.0629 C   0  0  0  0  0  0  0  0  0  0  0  0
    4.1896   -0.0691    3.2548 C   0  0  0  0  0  0  0  0  0  0  0  0
    4.9847    1.0137    4.3801 Cl  0  0  0  0  0  0  0  0  0  0  0  0
    4.0530   -1.4522    3.6193 C   0  0  0  0  0  0  0  0  0  0  0  0
    4.5467   -1.8518    4.8177 N   0  0  0  0  0  0  0  0  0  0  0  0
    4.4252   -3.1130    5.5184 C   0  0  0  0  0  0  0  0  0  0  0  0
    5.0244   -2.9279    6.8860 C   0  0  0  0  0  0  0  0  0  0  0  0
    5.5327   -1.8026    7.3335 N   0  0  0  0  0  0  0  0  0  0  0  0
    5.9678   -2.0604    8.6117 C   0  0  0  0  0  0  0  0  0  0  0  0
    5.7154   -3.3710    8.9407 C   0  0  0  0  0  0  0  0  0  0  0  0
    5.1104   -3.9154    7.8237 N   0  0  0  0  0  0  0  0  0  0  0  0
    4.7917   -4.8720    7.7251 H   0  0  0  0  0  0  0  0  0  0  0  0
    3.4041   -2.2644    2.6396 C   0  0  0  0  0  0  0  0  0  0  0  0
    3.1827   -3.9970    2.8656 Cl  0  0  0  0  0  0  0  0  0  0  0  0
    2.9275   -1.7480    1.4406 C   0  0  0  0  0  0  0  0  0  0  0  0
    3.8448    1.5108    1.8280 H   0  0  0  0  0  0  0  0  0  0  0  0
    4.9819   -1.1271    5.3928 H   0  0  0  0  0  0  0  0  0  0  0  0
    4.9475   -3.9292    4.9897 H   0  0  0  0  0  0  0  0  0  0  0  0
    3.3703   -3.4278    5.6106 H   0  0  0  0  0  0  0  0  0  0  0  0
    6.4375   -1.2930    9.2246 H   0  0  0  0  0  0  0  0  0  0  0  0
    5.9047   -3.9513    9.8399 H   0  0  0  0  0  0  0  0  0  0  0  0
    2.4365   -2.3960    0.7167 H   0  0  0  0  0  0  0  0  0  0  0  0
  1  2  2  0
  2  3  1  0
  2  4  1  0
  4  5  2  0
  4 19  1  0
  5  6  1  0
  5 20  1  0
  6  7  1  0
  6  8  2  0
  8  9  1  0
  8 17  1  0
  9 10  1  0
  9 21  1  0
 10 11  1  0
 10 22  1  0
 10 23  1  0
 11 12  2  0
 11 15  1  0
 12 13  1  0
 13 14  2  0
 13 24  1  0
 14 15  1  0
 14 25  1  0
 15 16  1  0
 17 18  1  0
 17 19  2  0
 19 26  1  0
M  CHG  2   2   1   3  -1
M  END

