
     RDKit          3D

 42 44  0  0  0  0  0  0  0  0999 V2000
    2.8373    1.3224   -0.8411 O   0  0  0  0  0  0  0  0  0  0  0  0
    2.4481    0.6914    0.1249 C   0  0  0  0  0  0  0  0  0  0  0  0
    1.1115    0.4785    0.4460 N   0  0  0  0  0  0  0  0  0  0  0  0
   -0.0251    0.8956   -0.2615 C   0  0  0  0  0  0  0  0  0  0  0  0
    0.0454    1.8144   -1.3255 C   0  0  0  0  0  0  0  0  0  0  0  0
   -1.1140    2.2200   -1.9854 C   0  0  0  0  0  0  0  0  0  0  0  0
   -2.3684    1.7349   -1.6087 C   0  0  0  0  0  0  0  0  0  0  0  0
   -2.4501    0.8185   -0.5622 C   0  0  0  0  0  0  0  0  0  0  0  0
   -1.2994    0.3897    0.1095 C   0  0  0  0  0  0  0  0  0  0  0  0
   -1.4331   -0.6605    1.1809 C   0  0  1  0  0  0  0  0  0  0  0  0
   -0.8349   -0.2768    2.3477 F   0  0  0  0  0  0  0  0  0  0  0  0
   -2.7039   -0.9446    1.4779 F   0  0  0  0  0  0  0  0  0  0  0  0
   -0.8321   -1.8184    0.8346 F   0  0  0  0  0  0  0  0  0  0  0  0
    3.3117    0.1092    1.0349 N   0  0  0  0  0  0  0  0  0  0  0  0
    4.7367    0.1923    0.8878 C   0  0  1  0  0  0  0  0  0  0  0  0
    5.5644    0.7183    2.1047 C   0  0  0  0  0  0  0  0  0  0  0  0
    6.2960   -0.5385    2.0905 N   0  0  0  0  0  0  0  0  0  0  0  0
    7.4626   -0.9323    2.6668 C   0  0  0  0  0  0  0  0  0  0  0  0
    8.1235   -0.1282    3.6353 C   0  0  0  0  0  0  0  0  0  0  0  0
    9.3080   -0.5990    4.1786 C   0  0  0  0  0  0  0  0  0  0  0  0
    9.8234   -1.8403    3.7711 C   0  0  0  0  0  0  0  0  0  0  0  0
    9.0916   -2.5441    2.8168 C   0  0  0  0  0  0  0  0  0  0  0  0
    9.5599   -3.8977    2.3087 C   0  0  1  0  0  0  0  0  0  0  0  0
   10.7172   -4.2702    2.8871 F   0  0  0  0  0  0  0  0  0  0  0  0
    8.6569   -4.8561    2.5657 F   0  0  0  0  0  0  0  0  0  0  0  0
    9.7618   -3.8801    0.9828 F   0  0  0  0  0  0  0  0  0  0  0  0
    7.9521   -2.1176    2.2760 N   0  0  0  0  0  0  0  0  0  0  0  0
    5.5548   -1.1336    0.9874 C   0  0  0  0  0  0  0  0  0  0  0  0
    0.9300   -0.0009    1.3186 H   0  0  0  0  0  0  0  0  0  0  0  0
    1.0201    2.1941   -1.6206 H   0  0  0  0  0  0  0  0  0  0  0  0
   -1.0284    2.9355   -2.8072 H   0  0  0  0  0  0  0  0  0  0  0  0
   -3.2732    2.0609   -2.1255 H   0  0  0  0  0  0  0  0  0  0  0  0
   -3.4173    0.4172   -0.2574 H   0  0  0  0  0  0  0  0  0  0  0  0
    2.9430   -0.4789    1.7739 H   0  0  0  0  0  0  0  0  0  0  0  0
    4.9243    0.7542   -0.0349 H   0  0  0  0  0  0  0  0  0  0  0  0
    4.9673    0.8947    3.0195 H   0  0  0  0  0  0  0  0  0  0  0  0
    6.1779    1.6167    1.9073 H   0  0  0  0  0  0  0  0  0  0  0  0
    7.7034    0.8314    3.9415 H   0  0  0  0  0  0  0  0  0  0  0  0
    9.8394   -0.0031    4.9250 H   0  0  0  0  0  0  0  0  0  0  0  0
   10.7507   -2.2404    4.1784 H   0  0  0  0  0  0  0  0  0  0  0  0
    4.9624   -2.0240    1.2669 H   0  0  0  0  0  0  0  0  0  0  0  0
    6.1704   -1.3916    0.1094 H   0  0  0  0  0  0  0  0  0  0  0  0
  1  2  2  0
  2  3  1  0
  2 14  1  0
  3  4  1  0
  3 29  1  0
  4  5  2  0
  4  9  1  0
  5  6  1  0
  5 30  1  0
  6  7  2  0
  6 31  1  0
  7  8  1  0
  7 32  1  0
  8  9  2  0
  8 33  1  0
  9 10  1  0
 10 11  1  1
 10 12  1  0
 10 13  1  0
 14 15  1  0
 14 34  1  0
 15 16  1  0
 15 28  1  0
 15 35  1  6
 16 17  1  0
 16 36  1  0
 16 37  1  0
 17 18  1  0
 17 28  1  0
 18 19  2  0
 18 27  1  0
 19 20  1  0
 19 38  1  0
 20 21  2  0
 20 39  1  0
 21 22  1  0
 21 40  1  0
 22 23  1  0
 22 27  2  0
 23 24  1  1
 23 25  1  0
 23 26  1  0
 28 41  1  0
 28 42  1  0
M  END

