
     RDKit          3D

 36 36  0  0  0  0  0  0  0  0999 V2000
    0.8768   -0.5026    0.0805 C   0  0  0  0  0  0  0  0  0  0  0  0
    2.3819   -0.2686   -0.1274 C   0  0  1  0  0  0  0  0  0  0  0  0
    3.0844   -1.4297   -0.8604 C   0  0  0  0  0  0  0  0  0  0  0  0
    3.1282   -2.9622    0.1111 S   0  0  1  0  0  0  0  0  0  0  0  0
    3.7582   -2.6586    1.4002 O   0  0  0  0  0  0  0  0  0  0  0  0
    1.8064   -3.6071    0.0380 O   0  0  0  0  0  0  0  0  0  0  0  0
    4.2040   -3.9261   -0.7705 N   0  0  0  0  0  0  0  0  0  0  0  0
    5.3637   -4.5166   -0.1095 C   0  0  0  0  0  0  0  0  0  0  0  0
    5.1233   -5.7864    0.6569 C   0  0  0  0  0  0  0  0  0  0  0  0
    3.9304   -6.2906    0.9986 C   0  0  0  0  0  0  0  0  0  0  0  0
    3.8430   -7.5611    1.7804 C   0  0  0  0  0  0  0  0  0  0  0  0
    4.7845   -8.2580    2.0562 O   0  0  0  0  0  0  0  0  0  0  0  0
    2.5957   -7.9029    2.1794 O   0  0  0  0  0  0  0  0  0  0  0  0
    2.6764    1.0353   -0.8619 C   0  0  0  0  0  0  0  0  0  0  0  0
    3.4635    2.0269   -0.2569 C   0  0  0  0  0  0  0  0  0  0  0  0
    3.7440    3.2269   -0.9180 C   0  0  0  0  0  0  0  0  0  0  0  0
    3.2420    3.4540   -2.2019 C   0  0  0  0  0  0  0  0  0  0  0  0
    2.4572    2.4739   -2.8177 C   0  0  0  0  0  0  0  0  0  0  0  0
    2.1773    1.2774   -2.1529 C   0  0  0  0  0  0  0  0  0  0  0  0
    0.6907   -1.4140    0.6655 H   0  0  0  0  0  0  0  0  0  0  0  0
    0.3497   -0.6152   -0.8807 H   0  0  0  0  0  0  0  0  0  0  0  0
    0.4313    0.3528    0.6102 H   0  0  0  0  0  0  0  0  0  0  0  0
    2.8595   -0.1998    0.8632 H   0  0  0  0  0  0  0  0  0  0  0  0
    4.1408   -1.1942   -1.0499 H   0  0  0  0  0  0  0  0  0  0  0  0
    2.6012   -1.6919   -1.8139 H   0  0  0  0  0  0  0  0  0  0  0  0
    3.6715   -4.5724   -1.3523 H   0  0  0  0  0  0  0  0  0  0  0  0
    5.7861   -3.7605    0.5740 H   0  0  0  0  0  0  0  0  0  0  0  0
    6.1390   -4.6944   -0.8760 H   0  0  0  0  0  0  0  0  0  0  0  0
    6.0152   -6.3425    0.9703 H   0  0  0  0  0  0  0  0  0  0  0  0
    3.0040   -5.7675    0.7373 H   0  0  0  0  0  0  0  0  0  0  0  0
    1.9554   -7.2293    1.9086 H   0  0  0  0  0  0  0  0  0  0  0  0
    3.8598    1.8574    0.7485 H   0  0  0  0  0  0  0  0  0  0  0  0
    4.3566    3.9867   -0.4259 H   0  0  0  0  0  0  0  0  0  0  0  0
    3.4594    4.3910   -2.7207 H   0  0  0  0  0  0  0  0  0  0  0  0
    2.0582    2.6427   -3.8214 H   0  0  0  0  0  0  0  0  0  0  0  0
    1.5568    0.5258   -2.6490 H   0  0  0  0  0  0  0  0  0  0  0  0
  1  2  1  0
  1 20  1  0
  1 21  1  0
  1 22  1  0
  2  3  1  0
  2 14  1  0
  2 23  1  1
  3  4  1  0
  3 24  1  0
  3 25  1  0
  4  5  2  0
  4  6  2  0
  4  7  1  6
  7  8  1  0
  7 26  1  0
  8  9  1  0
  8 27  1  0
  8 28  1  0
  9 10  2  0
  9 29  1  0
 10 11  1  0
 10 30  1  0
 11 12  2  0
 11 13  1  0
 13 31  1  0
 14 15  2  0
 14 19  1  0
 15 16  1  0
 15 32  1  0
 16 17  2  0
 16 33  1  0
 17 18  1  0
 17 34  1  0
 18 19  2  0
 18 35  1  0
 19 36  1  0
M  END

