
     RDKit          3D

 52 53  0  0  0  0  0  0  0  0999 V2000
    1.2050   -0.3319    0.7700 N   0  0  0  0  0  0  0  0  0  0  0  0
    2.5468   -0.4835    0.1830 C   0  0  1  0  0  0  0  0  0  0  0  0
    3.5991    0.0043    1.1908 C   0  0  0  0  0  0  0  0  0  0  0  0
    4.9980    0.1880    0.5980 C   0  0  0  0  0  0  0  0  0  0  0  0
    5.0429    1.1124   -0.4713 O   0  0  0  0  0  0  0  0  0  0  0  0
    5.1063    2.4685   -0.1030 C   0  0  0  0  0  0  0  0  0  0  0  0
    5.2437    3.3482   -1.3261 C   0  0  0  0  0  0  0  0  0  0  0  0
    5.0144    4.7285   -1.2186 C   0  0  0  0  0  0  0  0  0  0  0  0
    5.1709    5.5650   -2.3258 C   0  0  0  0  0  0  0  0  0  0  0  0
    5.5523    5.0293   -3.5606 C   0  0  0  0  0  0  0  0  0  0  0  0
    5.7757    3.6548   -3.6758 C   0  0  0  0  0  0  0  0  0  0  0  0
    5.6249    2.8179   -2.5653 C   0  0  0  0  0  0  0  0  0  0  0  0
    2.7268   -1.9893   -0.1332 C   0  0  1  0  0  0  0  0  0  0  0  0
    2.3188   -2.7519    0.9858 O   0  0  0  0  0  0  0  0  0  0  0  0
    1.9588   -2.4290   -1.3869 C   0  0  0  0  0  0  0  0  0  0  0  0
    2.0592   -3.8608   -1.5459 N   0  0  0  0  0  0  0  0  0  0  0  0
    2.2564   -4.4676   -2.7430 C   0  0  0  0  0  0  0  0  0  0  0  0
    2.3648   -3.8991   -3.8131 O   0  0  0  0  0  0  0  0  0  0  0  0
    2.3119   -5.8154   -2.5799 O   0  0  0  0  0  0  0  0  0  0  0  0
    2.5533   -6.6052   -3.7573 C   0  0  0  0  0  0  0  0  0  0  0  0
    4.0237   -6.8798   -3.9751 C   0  0  0  0  0  0  0  0  0  0  0  0
    4.5961   -8.0833   -3.5378 C   0  0  0  0  0  0  0  0  0  0  0  0
    5.9579   -8.3375   -3.7256 C   0  0  0  0  0  0  0  0  0  0  0  0
    6.7655   -7.3850   -4.3534 C   0  0  0  0  0  0  0  0  0  0  0  0
    6.2049   -6.1805   -4.7921 C   0  0  0  0  0  0  0  0  0  0  0  0
    4.8435   -5.9287   -4.6059 C   0  0  0  0  0  0  0  0  0  0  0  0
    0.4875   -0.2683    0.0488 H   0  0  0  0  0  0  0  0  0  0  0  0
    1.1379    0.5192    1.3259 H   0  0  0  0  0  0  0  0  0  0  0  0
    2.6751    0.0979   -0.7492 H   0  0  0  0  0  0  0  0  0  0  0  0
    3.6549   -0.7134    2.0263 H   0  0  0  0  0  0  0  0  0  0  0  0
    3.2625    0.9640    1.6224 H   0  0  0  0  0  0  0  0  0  0  0  0
    5.3677   -0.7653    0.1882 H   0  0  0  0  0  0  0  0  0  0  0  0
    5.7021    0.4895    1.3985 H   0  0  0  0  0  0  0  0  0  0  0  0
    5.9738    2.6345    0.5728 H   0  0  0  0  0  0  0  0  0  0  0  0
    4.2077    2.7796    0.4681 H   0  0  0  0  0  0  0  0  0  0  0  0
    4.7083    5.1545   -0.2577 H   0  0  0  0  0  0  0  0  0  0  0  0
    4.9889    6.6384   -2.2262 H   0  0  0  0  0  0  0  0  0  0  0  0
    5.6708    5.6816   -4.4296 H   0  0  0  0  0  0  0  0  0  0  0  0
    6.0696    3.2275   -4.6383 H   0  0  0  0  0  0  0  0  0  0  0  0
    5.7942    1.7437   -2.6501 H   0  0  0  0  0  0  0  0  0  0  0  0
    3.7935   -2.2106   -0.3073 H   0  0  0  0  0  0  0  0  0  0  0  0
    1.5765   -2.2296    1.3547 H   0  0  0  0  0  0  0  0  0  0  0  0
    2.3651   -1.9523   -2.2911 H   0  0  0  0  0  0  0  0  0  0  0  0
    0.8976   -2.1207   -1.2993 H   0  0  0  0  0  0  0  0  0  0  0  0
    1.9892   -4.4267   -0.7067 H   0  0  0  0  0  0  0  0  0  0  0  0
    2.1208   -6.0860   -4.6240 H   0  0  0  0  0  0  0  0  0  0  0  0
    2.0091   -7.5445   -3.5855 H   0  0  0  0  0  0  0  0  0  0  0  0
    3.9669   -8.8316   -3.0466 H   0  0  0  0  0  0  0  0  0  0  0  0
    6.3888   -9.2816   -3.3817 H   0  0  0  0  0  0  0  0  0  0  0  0
    7.8305   -7.5816   -4.5028 H   0  0  0  0  0  0  0  0  0  0  0  0
    6.8323   -5.4335   -5.2857 H   0  0  0  0  0  0  0  0  0  0  0  0
    4.4013   -4.9866   -4.9382 H   0  0  0  0  0  0  0  0  0  0  0  0
  1  2  1  0
  1 27  1  0
  1 28  1  0
  2  3  1  0
  2 13  1  0
  2 29  1  6
  3  4  1  0
  3 30  1  0
  3 31  1  0
  4  5  1  0
  4 32  1  0
  4 33  1  0
  5  6  1  0
  6  7  1  0
  6 34  1  0
  6 35  1  0
  7  8  2  0
  7 12  1  0
  8  9  1  0
  8 36  1  0
  9 10  2  0
  9 37  1  0
 10 11  1  0
 10 38  1  0
 11 12  2  0
 11 39  1  0
 12 40  1  0
 13 14  1  0
 13 15  1  0
 13 41  1  6
 14 42  1  0
 15 16  1  0
 15 43  1  0
 15 44  1  0
 16 17  1  0
 16 45  1  0
 17 18  2  0
 17 19  1  0
 19 20  1  0
 20 21  1  0
 20 46  1  0
 20 47  1  0
 21 22  2  0
 21 26  1  0
 22 23  1  0
 22 48  1  0
 23 24  2  0
 23 49  1  0
 24 25  1  0
 24 50  1  0
 25 26  2  0
 25 51  1  0
 26 52  1  0
M  END

