
     RDKit          3D

 54 55  0  0  0  0  0  0  0  0999 V2000
    1.0708   -0.0864   -0.0273 C   0  0  0  0  0  0  0  0  0  0  0  0
    0.5061    0.1380    1.3786 C   0  0  0  0  0  0  0  0  0  0  0  0
   -1.0242    0.1666    1.4362 C   0  0  0  0  0  0  0  0  0  0  0  0
   -1.5886    0.3917    2.8420 C   0  0  0  0  0  0  0  0  0  0  0  0
   -3.1187    0.4216    2.8992 C   0  0  0  0  0  0  0  0  0  0  0  0
   -3.6833    0.6457    4.3053 C   0  0  0  0  0  0  0  0  0  0  0  0
   -5.2159    0.6745    4.3507 C   0  0  0  0  0  0  0  0  0  0  0  0
   -5.8246    0.8212    5.7533 C   0  0  0  0  0  0  0  0  0  0  0  0
   -5.5447    2.1465    6.4261 C   0  0  1  0  0  0  0  0  0  0  0  0
   -4.4861    2.3699    6.6253 H   0  0  0  0  0  0  0  0  0  0  0  0
   -6.4597    3.2925    6.3034 C   0  0  0  0  0  0  0  0  0  0  0  0
   -6.4132    2.5163    7.4935 O   0  0  0  0  0  0  0  0  0  0  0  0
    2.6010   -0.1143   -0.0851 C   0  0  0  0  0  0  0  0  0  0  0  0
    3.1653   -0.3371   -1.4913 C   0  0  0  0  0  0  0  0  0  0  0  0
    4.6955   -0.3652   -1.5501 C   0  0  0  0  0  0  0  0  0  0  0  0
    5.2556   -0.5806   -2.9589 C   0  0  0  0  0  0  0  0  0  0  0  0
    6.7875   -0.6194   -3.0059 C   0  0  0  0  0  0  0  0  0  0  0  0
    7.3821   -0.8330   -4.4059 C   0  0  0  0  0  0  0  0  0  0  0  0
    7.1662    0.3260   -5.3512 C   0  0  1  0  0  0  0  0  0  0  0  0
    7.5726    1.2887   -5.0014 H   0  0  0  0  0  0  0  0  0  0  0  0
    7.0107    0.1498   -6.8027 C   0  0  0  0  0  0  0  0  0  0  0  0
    5.8895    0.4398   -5.9783 O   0  0  0  0  0  0  0  0  0  0  0  0
    0.6951    0.7055   -0.7018 H   0  0  0  0  0  0  0  0  0  0  0  0
    0.6733   -1.0356   -0.4326 H   0  0  0  0  0  0  0  0  0  0  0  0
    0.9037    1.0872    1.7840 H   0  0  0  0  0  0  0  0  0  0  0  0
    0.8815   -0.6540    2.0532 H   0  0  0  0  0  0  0  0  0  0  0  0
   -1.4221   -0.7827    1.0313 H   0  0  0  0  0  0  0  0  0  0  0  0
   -1.3997    0.9585    0.7614 H   0  0  0  0  0  0  0  0  0  0  0  0
   -1.1900    1.3407    3.2471 H   0  0  0  0  0  0  0  0  0  0  0  0
   -1.2139   -0.4006    3.5166 H   0  0  0  0  0  0  0  0  0  0  0  0
   -3.5180   -0.5268    2.4936 H   0  0  0  0  0  0  0  0  0  0  0  0
   -3.4936    1.2146    2.2256 H   0  0  0  0  0  0  0  0  0  0  0  0
   -3.2745    1.5902    4.7078 H   0  0  0  0  0  0  0  0  0  0  0  0
   -3.3152   -0.1512    4.9783 H   0  0  0  0  0  0  0  0  0  0  0  0
   -5.6004   -0.2583    3.9017 H   0  0  0  0  0  0  0  0  0  0  0  0
   -5.5862    1.4922    3.7052 H   0  0  0  0  0  0  0  0  0  0  0  0
   -5.4516    0.0111    6.4063 H   0  0  0  0  0  0  0  0  0  0  0  0
   -6.9190    0.6965    5.7032 H   0  0  0  0  0  0  0  0  0  0  0  0
   -7.3744    3.1885    5.7030 H   0  0  0  0  0  0  0  0  0  0  0  0
   -6.0741    4.3180    6.3850 H   0  0  0  0  0  0  0  0  0  0  0  0
    2.9769   -0.9068    0.5889 H   0  0  0  0  0  0  0  0  0  0  0  0
    2.9983    0.8348    0.3211 H   0  0  0  0  0  0  0  0  0  0  0  0
    2.7904    0.4554   -2.1654 H   0  0  0  0  0  0  0  0  0  0  0  0
    2.7677   -1.2856   -1.8979 H   0  0  0  0  0  0  0  0  0  0  0  0
    5.0718   -1.1600   -0.8785 H   0  0  0  0  0  0  0  0  0  0  0  0
    5.0923    0.5827   -1.1403 H   0  0  0  0  0  0  0  0  0  0  0  0
    4.8819    0.2098   -3.6313 H   0  0  0  0  0  0  0  0  0  0  0  0
    4.8587   -1.5272   -3.3704 H   0  0  0  0  0  0  0  0  0  0  0  0
    7.1499   -1.4245   -2.3417 H   0  0  0  0  0  0  0  0  0  0  0  0
    7.1917    0.3193   -2.5820 H   0  0  0  0  0  0  0  0  0  0  0  0
    6.9601   -1.7458   -4.8609 H   0  0  0  0  0  0  0  0  0  0  0  0
    8.4715   -0.9967   -4.3175 H   0  0  0  0  0  0  0  0  0  0  0  0
    7.0401   -0.8627   -7.2289 H   0  0  0  0  0  0  0  0  0  0  0  0
    7.3190    0.9499   -7.4896 H   0  0  0  0  0  0  0  0  0  0  0  0
  1  2  1  0
  1 13  1  0
  1 23  1  0
  1 24  1  0
  2  3  1  0
  2 25  1  0
  2 26  1  0
  3  4  1  0
  3 27  1  0
  3 28  1  0
  4  5  1  0
  4 29  1  0
  4 30  1  0
  5  6  1  0
  5 31  1  0
  5 32  1  0
  6  7  1  0
  6 33  1  0
  6 34  1  0
  7  8  1  0
  7 35  1  0
  7 36  1  0
  8  9  1  0
  8 37  1  0
  8 38  1  0
  9 10  1  1
  9 11  1  0
  9 12  1  0
 11 12  1  0
 11 39  1  0
 11 40  1  0
 13 14  1  0
 13 41  1  0
 13 42  1  0
 14 15  1  0
 14 43  1  0
 14 44  1  0
 15 16  1  0
 15 45  1  0
 15 46  1  0
 16 17  1  0
 16 47  1  0
 16 48  1  0
 17 18  1  0
 17 49  1  0
 17 50  1  0
 18 19  1  0
 18 51  1  0
 18 52  1  0
 19 20  1  6
 19 21  1  0
 19 22  1  0
 21 22  1  0
 21 53  1  0
 21 54  1  0
M  END

