
     RDKit          3D

 44 45  0  0  0  0  0  0  0  0999 V2000
    1.8280   -1.5100    0.3610 C   0  0  0  0  0  0  0  0  0  0  0  0
    2.4635   -0.1141    0.4626 C   0  0  1  0  0  0  0  0  0  0  0  0
    3.5018   -0.1083    1.5954 C   0  0  0  0  0  0  0  0  0  0  0  0
    3.0734    0.3496   -0.8929 C   0  0  1  0  0  0  0  0  0  0  0  0
    2.0497    0.3972   -2.0499 C   0  0  0  0  0  0  0  0  0  0  0  0
    1.0498    1.5610   -1.9271 C   0  0  0  0  0  0  0  0  0  0  0  0
    1.6975    2.9549   -1.7425 C   0  0  2  0  0  0  0  0  0  0  0  0
    2.1693    3.6549   -3.0431 C   0  0  1  0  0  0  0  0  0  0  0  0
    3.2608    3.0137   -3.6921 O   0  0  0  0  0  0  0  0  0  0  0  0
    1.0176    3.9259   -4.0405 C   0  0  0  0  0  0  0  0  0  0  0  0
    1.3464    4.9634   -5.0918 C   0  0  0  0  0  0  0  0  0  0  0  0
    0.8061    6.2568   -5.0130 C   0  0  0  0  0  0  0  0  0  0  0  0
    1.1246    7.2272   -5.9671 C   0  0  0  0  0  0  0  0  0  0  0  0
    1.9899    6.9290   -7.0214 C   0  0  0  0  0  0  0  0  0  0  0  0
    2.5292    5.6418   -7.0991 C   0  0  0  0  0  0  0  0  0  0  0  0
    3.6149    5.2431   -8.4155 Cl  0  0  0  0  0  0  0  0  0  0  0  0
    2.2183    4.6651   -6.1516 C   0  0  0  0  0  0  0  0  0  0  0  0
    2.8064    2.8940   -0.6664 C   0  0  0  0  0  0  0  0  0  0  0  0
    3.7836    1.7205   -0.8379 C   0  0  0  0  0  0  0  0  0  0  0  0
    1.4442   -1.8361    1.3411 H   0  0  0  0  0  0  0  0  0  0  0  0
    2.5699   -2.2585    0.0315 H   0  0  0  0  0  0  0  0  0  0  0  0
    0.9843   -1.5448   -0.3442 H   0  0  0  0  0  0  0  0  0  0  0  0
    1.6622    0.5907    0.7505 H   0  0  0  0  0  0  0  0  0  0  0  0
    4.3693   -0.7421    1.3405 H   0  0  0  0  0  0  0  0  0  0  0  0
    3.0650   -0.5061    2.5256 H   0  0  0  0  0  0  0  0  0  0  0  0
    3.8802    0.8998    1.8193 H   0  0  0  0  0  0  0  0  0  0  0  0
    3.8349   -0.4087   -1.1561 H   0  0  0  0  0  0  0  0  0  0  0  0
    1.4961   -0.5510   -2.1295 H   0  0  0  0  0  0  0  0  0  0  0  0
    2.6146    0.4764   -2.9957 H   0  0  0  0  0  0  0  0  0  0  0  0
    0.4026    1.3722   -1.0534 H   0  0  0  0  0  0  0  0  0  0  0  0
    0.3668    1.5610   -2.7933 H   0  0  0  0  0  0  0  0  0  0  0  0
    0.9093    3.6249   -1.3545 H   0  0  0  0  0  0  0  0  0  0  0  0
    2.5759    4.6339   -2.7376 H   0  0  0  0  0  0  0  0  0  0  0  0
    2.9699    2.1392   -3.9833 H   0  0  0  0  0  0  0  0  0  0  0  0
    0.1288    4.2536   -3.4783 H   0  0  0  0  0  0  0  0  0  0  0  0
    0.7421    2.9747   -4.5298 H   0  0  0  0  0  0  0  0  0  0  0  0
    0.1227    6.5062   -4.1965 H   0  0  0  0  0  0  0  0  0  0  0  0
    0.6919    8.2281   -5.8926 H   0  0  0  0  0  0  0  0  0  0  0  0
    2.2449    7.6750   -7.7756 H   0  0  0  0  0  0  0  0  0  0  0  0
    2.6672    3.6757   -6.2353 H   0  0  0  0  0  0  0  0  0  0  0  0
    2.3229    2.8243    0.3240 H   0  0  0  0  0  0  0  0  0  0  0  0
    3.3658    3.8450   -0.6609 H   0  0  0  0  0  0  0  0  0  0  0  0
    4.5335    1.7421   -0.0325 H   0  0  0  0  0  0  0  0  0  0  0  0
    4.3383    1.8620   -1.7778 H   0  0  0  0  0  0  0  0  0  0  0  0
  1  2  1  0
  1 20  1  0
  1 21  1  0
  1 22  1  0
  2  3  1  0
  2  4  1  0
  2 23  1  1
  3 24  1  0
  3 25  1  0
  3 26  1  0
  4  5  1  0
  4 19  1  0
  4 27  1  6
  5  6  1  0
  5 28  1  0
  5 29  1  0
  6  7  1  0
  6 30  1  0
  6 31  1  0
  7  8  1  0
  7 18  1  0
  7 32  1  1
  8  9  1  0
  8 10  1  0
  8 33  1  1
  9 34  1  0
 10 11  1  0
 10 35  1  0
 10 36  1  0
 11 12  2  0
 11 17  1  0
 12 13  1  0
 12 37  1  0
 13 14  2  0
 13 38  1  0
 14 15  1  0
 14 39  1  0
 15 16  1  0
 15 17  2  0
 17 40  1  0
 18 19  1  0
 18 41  1  0
 18 42  1  0
 19 43  1  0
 19 44  1  0
M  END

