
     RDKit          3D

 55 57  0  0  0  0  0  0  0  0999 V2000
    8.1219    1.9880   -0.5687 C   0  0  0  0  0  0  0  0  0  0  0  0
    8.5604    1.2739    0.6982 C   0  0  0  0  0  0  0  0  0  0  0  0
    8.3227   -0.1467    0.6161 O   0  0  0  0  0  0  0  0  0  0  0  0
    7.1069   -0.5957    0.9731 C   0  0  0  0  0  0  0  0  0  0  0  0
    6.2033    0.0880    1.3717 O   0  0  0  0  0  0  0  0  0  0  0  0
    7.0728   -2.1031    0.7968 C   0  0  0  0  0  0  0  0  0  0  0  0
    5.7758   -2.5593    1.1744 O   0  0  0  0  0  0  0  0  0  0  0  0
    5.6431   -3.9188    1.0928 N   0  0  0  0  0  0  0  0  0  0  0  0
    5.7155   -4.6435   -0.0640 C   0  0  0  0  0  0  0  0  0  0  0  0
    6.0355   -4.2677   -1.1669 O   0  0  0  0  0  0  0  0  0  0  0  0
    5.4320   -6.0112    0.3298 N   0  0  0  0  0  0  0  0  0  0  0  0
    4.6470   -5.8729    1.5821 C   0  0  0  0  0  0  0  0  0  0  0  0
    5.4378   -4.7615    2.2821 C   0  0  1  0  0  0  0  0  0  0  0  0
    4.8826   -4.1934    3.0411 H   0  0  0  0  0  0  0  0  0  0  0  0
    6.7758   -5.3389    2.8049 C   0  0  0  0  0  0  0  0  0  0  0  0
    7.1817   -6.6409    2.0633 C   0  0  0  0  0  0  0  0  0  0  0  0
    6.7188   -6.7251    0.5818 C   0  0  1  0  0  0  0  0  0  0  0  0
    7.4672   -6.2536   -0.0772 H   0  0  0  0  0  0  0  0  0  0  0  0
    6.6500   -8.1939    0.1213 C   0  0  0  0  0  0  0  0  0  0  0  0
    7.3857   -9.0486    0.5855 O   0  0  0  0  0  0  0  0  0  0  0  0
    5.7556   -8.3941   -0.8832 N   0  0  0  0  0  0  0  0  0  0  0  0
    5.4561   -9.6734   -1.2691 O   0  0  0  0  0  0  0  0  0  0  0  0
    6.0886  -10.0848   -2.4995 C   0  0  0  0  0  0  0  0  0  0  0  0
    6.6353  -11.5037   -2.2734 C   0  0  1  0  0  0  0  0  0  0  0  0
    5.7855  -12.0755   -1.8585 H   0  0  0  0  0  0  0  0  0  0  0  0
    7.0670  -12.1910   -3.5813 C   0  0  0  0  0  0  0  0  0  0  0  0
    8.4212  -11.6858   -4.0981 C   0  0  0  0  0  0  0  0  0  0  0  0
    9.4780  -11.7688   -2.9905 C   0  0  0  0  0  0  0  0  0  0  0  0
    8.9963  -11.0317   -1.7400 C   0  0  0  0  0  0  0  0  0  0  0  0
    7.7147  -11.5646   -1.2914 N   0  0  0  0  0  0  0  0  0  0  0  0
    8.3871    3.0556   -0.5063 H   0  0  0  0  0  0  0  0  0  0  0  0
    7.0324    1.9147   -0.7025 H   0  0  0  0  0  0  0  0  0  0  0  0
    8.6181    1.5612   -1.4540 H   0  0  0  0  0  0  0  0  0  0  0  0
    8.0338    1.6710    1.5786 H   0  0  0  0  0  0  0  0  0  0  0  0
    9.6446    1.3653    0.8558 H   0  0  0  0  0  0  0  0  0  0  0  0
    7.8631   -2.5517    1.4246 H   0  0  0  0  0  0  0  0  0  0  0  0
    7.2840   -2.3542   -0.2555 H   0  0  0  0  0  0  0  0  0  0  0  0
    4.5991   -6.8215    2.1312 H   0  0  0  0  0  0  0  0  0  0  0  0
    3.6236   -5.5534    1.3380 H   0  0  0  0  0  0  0  0  0  0  0  0
    6.6869   -5.5646    3.8798 H   0  0  0  0  0  0  0  0  0  0  0  0
    7.5530   -4.5637    2.7181 H   0  0  0  0  0  0  0  0  0  0  0  0
    6.7565   -7.5029    2.5973 H   0  0  0  0  0  0  0  0  0  0  0  0
    8.2687   -6.7940    2.1067 H   0  0  0  0  0  0  0  0  0  0  0  0
    5.0473   -7.6827   -1.0604 H   0  0  0  0  0  0  0  0  0  0  0  0
    6.8793   -9.3637   -2.7557 H   0  0  0  0  0  0  0  0  0  0  0  0
    5.3308  -10.0719   -3.3047 H   0  0  0  0  0  0  0  0  0  0  0  0
    6.2829  -12.0725   -4.3484 H   0  0  0  0  0  0  0  0  0  0  0  0
    7.1492  -13.2711   -3.3743 H   0  0  0  0  0  0  0  0  0  0  0  0
    8.3319  -10.6382   -4.4407 H   0  0  0  0  0  0  0  0  0  0  0  0
    8.7301  -12.2707   -4.9808 H   0  0  0  0  0  0  0  0  0  0  0  0
   10.4385  -11.3479   -3.3326 H   0  0  0  0  0  0  0  0  0  0  0  0
    9.6565  -12.8278   -2.7333 H   0  0  0  0  0  0  0  0  0  0  0  0
    8.9702   -9.9391   -1.9616 H   0  0  0  0  0  0  0  0  0  0  0  0
    9.7214  -11.1530   -0.9190 H   0  0  0  0  0  0  0  0  0  0  0  0
    7.4280  -11.0829   -0.4385 H   0  0  0  0  0  0  0  0  0  0  0  0
  1  2  1  0
  1 31  1  0
  1 32  1  0
  1 33  1  0
  2  3  1  0
  2 34  1  0
  2 35  1  0
  3  4  1  0
  4  5  2  0
  4  6  1  0
  6  7  1  0
  6 36  1  0
  6 37  1  0
  7  8  1  0
  8  9  1  0
  8 13  1  0
  9 10  2  0
  9 11  1  0
 11 12  1  0
 11 17  1  0
 12 13  1  0
 12 38  1  0
 12 39  1  0
 13 14  1  1
 13 15  1  0
 15 16  1  0
 15 40  1  0
 15 41  1  0
 16 17  1  0
 16 42  1  0
 16 43  1  0
 17 18  1  6
 17 19  1  0
 19 20  2  0
 19 21  1  0
 21 22  1  0
 21 44  1  0
 22 23  1  0
 23 24  1  0
 23 45  1  0
 23 46  1  0
 24 25  1  1
 24 26  1  0
 24 30  1  0
 26 27  1  0
 26 47  1  0
 26 48  1  0
 27 28  1  0
 27 49  1  0
 27 50  1  0
 28 29  1  0
 28 51  1  0
 28 52  1  0
 29 30  1  0
 29 53  1  0
 29 54  1  0
 30 55  1  0
M  END

