
     RDKit          3D

 49 53  0  0  0  0  0  0  0  0999 V2000
    1.2930   -0.3361   -0.4782 O   0  0  0  0  0  0  0  0  0  0  0  0
    2.3413   -0.0702    0.0697 C   0  0  0  0  0  0  0  0  0  0  0  0
    3.1054    0.9835   -0.2672 O   0  0  0  0  0  0  0  0  0  0  0  0
    2.5995    1.8974   -1.2668 C   0  0  0  0  0  0  0  0  0  0  0  0
    3.0981    1.5535   -2.6495 C   0  0  0  0  0  0  0  0  0  0  0  0
    2.4054    0.6326   -3.4526 C   0  0  0  0  0  0  0  0  0  0  0  0
    2.8796    0.3080   -4.7260 C   0  0  0  0  0  0  0  0  0  0  0  0
    4.0507    0.8983   -5.2124 C   0  0  0  0  0  0  0  0  0  0  0  0
    4.7471    1.8155   -4.4199 C   0  0  0  0  0  0  0  0  0  0  0  0
    4.2721    2.1393   -3.1462 C   0  0  0  0  0  0  0  0  0  0  0  0
    2.9619   -0.9390    1.1100 C   0  0  0  0  0  0  0  0  0  0  0  0
    2.6314   -2.3180    0.9886 C   0  0  0  0  0  0  0  0  0  0  0  0
    3.1959   -3.3137    1.7454 C   0  0  0  0  0  0  0  0  0  0  0  0
    2.8485   -4.7417    1.5367 C   0  0  0  0  0  0  0  0  0  0  0  0
    2.5062   -5.2026    0.2484 C   0  0  0  0  0  0  0  0  0  0  0  0
    2.1358   -6.5296    0.0295 C   0  0  0  0  0  0  0  0  0  0  0  0
    2.1016   -7.4346    1.0948 C   0  0  0  0  0  0  0  0  0  0  0  0
    2.4478   -6.9965    2.3760 C   0  0  0  0  0  0  0  0  0  0  0  0
    2.8227   -5.6699    2.5977 C   0  0  0  0  0  0  0  0  0  0  0  0
    4.1749   -2.9362    2.7625 C   0  0  0  0  0  0  0  0  0  0  0  0
    4.7451   -3.7100    3.5207 O   0  0  0  0  0  0  0  0  0  0  0  0
    4.4538   -1.5381    2.8689 N   0  0  0  0  0  0  0  0  0  0  0  0
    3.8450   -0.5459    2.1184 C   0  0  0  0  0  0  0  0  0  0  0  0
    4.1637    0.8245    2.5345 C   0  0  0  0  0  0  0  0  0  0  0  0
    3.1494    2.2337    2.3547 S   0  0  0  0  0  0  0  0  0  0  0  0
    4.2723    3.2165    3.2154 C   0  0  0  0  0  0  0  0  0  0  0  0
    5.3784    2.5098    3.6231 C   0  0  0  0  0  0  0  0  0  0  0  0
    5.3080    1.1392    3.2515 C   0  0  0  0  0  0  0  0  0  0  0  0
    6.2474    0.0243    3.6002 C   0  0  0  0  0  0  0  0  0  0  0  0
    5.4079   -1.1975    3.9446 C   0  0  0  0  0  0  0  0  0  0  0  0
    2.9720    2.8817   -0.9510 H   0  0  0  0  0  0  0  0  0  0  0  0
    1.5020    1.8889   -1.2292 H   0  0  0  0  0  0  0  0  0  0  0  0
    1.4971    0.1660   -3.0645 H   0  0  0  0  0  0  0  0  0  0  0  0
    2.3310   -0.4084   -5.3431 H   0  0  0  0  0  0  0  0  0  0  0  0
    4.4193    0.6449   -6.2099 H   0  0  0  0  0  0  0  0  0  0  0  0
    5.6617    2.2816   -4.7954 H   0  0  0  0  0  0  0  0  0  0  0  0
    4.8183    2.8589   -2.5292 H   0  0  0  0  0  0  0  0  0  0  0  0
    1.8799   -2.5650    0.2374 H   0  0  0  0  0  0  0  0  0  0  0  0
    2.5527   -4.5171   -0.6008 H   0  0  0  0  0  0  0  0  0  0  0  0
    1.8824   -6.8602   -0.9812 H   0  0  0  0  0  0  0  0  0  0  0  0
    1.8147   -8.4756    0.9253 H   0  0  0  0  0  0  0  0  0  0  0  0
    2.4285   -7.6955    3.2164 H   0  0  0  0  0  0  0  0  0  0  0  0
    3.1031   -5.3450    3.5980 H   0  0  0  0  0  0  0  0  0  0  0  0
    4.0566    4.2732    3.3701 H   0  0  0  0  0  0  0  0  0  0  0  0
    6.2066    2.9491    4.1813 H   0  0  0  0  0  0  0  0  0  0  0  0
    6.8799    0.2866    4.4616 H   0  0  0  0  0  0  0  0  0  0  0  0
    6.9262   -0.2018    2.7577 H   0  0  0  0  0  0  0  0  0  0  0  0
    4.8400   -1.0194    4.8754 H   0  0  0  0  0  0  0  0  0  0  0  0
    6.0158   -2.0941    4.1057 H   0  0  0  0  0  0  0  0  0  0  0  0
  1  2  2  0
  2  3  1  0
  2 11  1  0
  3  4  1  0
  4  5  1  0
  4 31  1  0
  4 32  1  0
  5  6  2  0
  5 10  1  0
  6  7  1  0
  6 33  1  0
  7  8  2  0
  7 34  1  0
  8  9  1  0
  8 35  1  0
  9 10  2  0
  9 36  1  0
 10 37  1  0
 11 12  1  0
 11 23  2  0
 12 13  2  0
 12 38  1  0
 13 14  1  0
 13 20  1  0
 14 15  2  0
 14 19  1  0
 15 16  1  0
 15 39  1  0
 16 17  2  0
 16 40  1  0
 17 18  1  0
 17 41  1  0
 18 19  2  0
 18 42  1  0
 19 43  1  0
 20 21  2  0
 20 22  1  0
 22 23  1  0
 22 30  1  0
 23 24  1  0
 24 25  1  0
 24 28  2  0
 25 26  1  0
 26 27  2  0
 26 44  1  0
 27 28  1  0
 27 45  1  0
 28 29  1  0
 29 30  1  0
 29 46  1  0
 29 47  1  0
 30 48  1  0
 30 49  1  0
M  END

