
     RDKit          3D

 41 41  0  0  0  0  0  0  0  0999 V2000
    1.2998    2.5595   -1.5941 C   0  0  0  0  0  0  0  0  0  0  0  0
    2.5091    2.4931   -1.6595 C   0  0  0  0  0  0  0  0  0  0  0  0
    3.9655    2.3851   -1.7215 C   0  0  0  0  0  0  0  0  0  0  0  0
    4.4867    1.0407   -1.1254 C   0  0  1  0  0  0  0  0  0  0  0  0
    3.8951   -0.1481   -1.7315 N   0  0  0  0  0  0  0  0  0  0  0  0
    3.9195   -0.2918   -3.1853 C   0  0  0  0  0  0  0  0  0  0  0  0
    3.3283   -1.6361   -3.5980 C   0  0  0  0  0  0  0  0  0  0  0  0
    6.0507    0.9988   -1.0835 C   0  0  1  0  0  0  0  0  0  0  0  0
    6.4537    1.4078   -2.4038 O   0  0  0  0  0  0  0  0  0  0  0  0
    7.7972    1.3019   -2.8023 C   0  0  0  0  0  0  0  0  0  0  0  0
    6.6096    1.9912   -0.0320 C   0  0  0  0  0  0  0  0  0  0  0  0
    6.3254    1.5834    1.4232 C   0  0  0  0  0  0  0  0  0  0  0  0
    6.7886    0.1499    1.7567 C   0  0  2  0  0  0  0  0  0  0  0  0
    8.3123    0.0494    1.9247 C   0  0  0  0  0  0  0  0  0  0  0  0
    6.2414   -0.8341    0.7019 C   0  0  0  0  0  0  0  0  0  0  0  0
    6.5645   -0.4147   -0.7395 C   0  0  0  0  0  0  0  0  0  0  0  0
    0.2302    2.6338   -1.5428 H   0  0  0  0  0  0  0  0  0  0  0  0
    4.4073    3.2349   -1.1770 H   0  0  0  0  0  0  0  0  0  0  0  0
    4.3099    2.4816   -2.7620 H   0  0  0  0  0  0  0  0  0  0  0  0
    4.1510    1.0186   -0.0783 H   0  0  0  0  0  0  0  0  0  0  0  0
    2.9351   -0.2377   -1.4028 H   0  0  0  0  0  0  0  0  0  0  0  0
    4.9634   -0.2173   -3.5231 H   0  0  0  0  0  0  0  0  0  0  0  0
    3.3690    0.5182   -3.7098 H   0  0  0  0  0  0  0  0  0  0  0  0
    3.8825   -2.4696   -3.1382 H   0  0  0  0  0  0  0  0  0  0  0  0
    3.3545   -1.7591   -4.6924 H   0  0  0  0  0  0  0  0  0  0  0  0
    2.2740   -1.7212   -3.2819 H   0  0  0  0  0  0  0  0  0  0  0  0
    7.8845    1.8350   -3.7614 H   0  0  0  0  0  0  0  0  0  0  0  0
    8.1176    0.2559   -2.9641 H   0  0  0  0  0  0  0  0  0  0  0  0
    8.5023    1.7712   -2.0910 H   0  0  0  0  0  0  0  0  0  0  0  0
    6.2237    3.0041   -0.2255 H   0  0  0  0  0  0  0  0  0  0  0  0
    7.6998    2.0573   -0.1776 H   0  0  0  0  0  0  0  0  0  0  0  0
    5.2434    1.6639    1.6251 H   0  0  0  0  0  0  0  0  0  0  0  0
    6.8086    2.3040    2.1051 H   0  0  0  0  0  0  0  0  0  0  0  0
    6.3433   -0.1232    2.7300 H   0  0  0  0  0  0  0  0  0  0  0  0
    8.8597    0.3147    1.0060 H   0  0  0  0  0  0  0  0  0  0  0  0
    8.6114   -0.9758    2.1980 H   0  0  0  0  0  0  0  0  0  0  0  0
    8.6664    0.7234    2.7218 H   0  0  0  0  0  0  0  0  0  0  0  0
    5.1480   -0.9253    0.8114 H   0  0  0  0  0  0  0  0  0  0  0  0
    6.6475   -1.8433    0.8875 H   0  0  0  0  0  0  0  0  0  0  0  0
    6.1354   -1.1409   -1.4427 H   0  0  0  0  0  0  0  0  0  0  0  0
    7.6576   -0.4285   -0.8780 H   0  0  0  0  0  0  0  0  0  0  0  0
  1  2  3  0
  1 17  1  0
  2  3  1  0
  3  4  1  0
  3 18  1  0
  3 19  1  0
  4  5  1  0
  4  8  1  0
  4 20  1  1
  5  6  1  0
  5 21  1  0
  6  7  1  0
  6 22  1  0
  6 23  1  0
  7 24  1  0
  7 25  1  0
  7 26  1  0
  8  9  1  6
  8 11  1  0
  8 16  1  0
  9 10  1  0
 10 27  1  0
 10 28  1  0
 10 29  1  0
 11 12  1  0
 11 30  1  0
 11 31  1  0
 12 13  1  0
 12 32  1  0
 12 33  1  0
 13 14  1  0
 13 15  1  0
 13 34  1  1
 14 35  1  0
 14 36  1  0
 14 37  1  0
 15 16  1  0
 15 38  1  0
 15 39  1  0
 16 40  1  0
 16 41  1  0
M  END

