
     RDKit          3D

 45 46  0  0  0  0  0  0  0  0999 V2000
    1.7745    0.2586    0.8656 C   0  0  0  0  0  0  0  0  0  0  0  0
    2.9317   -0.6316    0.9831 N   0  0  0  0  0  0  0  0  0  0  0  0
    3.1738   -1.1681    2.3224 C   0  0  0  0  0  0  0  0  0  0  0  0
    3.1033   -1.7438   -0.2774 S   0  0  1  0  0  0  0  0  0  0  0  0
    2.4798   -3.0306    0.0200 O   0  0  0  0  0  0  0  0  0  0  0  0
    2.7613   -1.0170   -1.4996 O   0  0  0  0  0  0  0  0  0  0  0  0
    4.7760   -2.0178   -0.1983 N   0  0  0  0  0  0  0  0  0  0  0  0
    5.6484   -0.9044   -0.5080 C   0  0  0  0  0  0  0  0  0  0  0  0
    6.7292   -0.7161    0.5702 C   0  0  0  0  0  0  0  0  0  0  0  0
    6.5774   -1.0783    1.7199 O   0  0  0  0  0  0  0  0  0  0  0  0
    7.8450   -0.0642    0.0969 N   0  0  0  0  0  0  0  0  0  0  0  0
    8.9878    0.3627    0.7957 C   0  0  0  0  0  0  0  0  0  0  0  0
    9.1771    0.1408    2.1721 C   0  0  0  0  0  0  0  0  0  0  0  0
   10.3403    0.5986    2.7896 C   0  0  0  0  0  0  0  0  0  0  0  0
   11.3264    1.2748    2.0630 C   0  0  0  0  0  0  0  0  0  0  0  0
   12.6020    1.7131    2.7330 C   0  0  1  0  0  0  0  0  0  0  0  0
   12.4120    2.0032    4.0324 F   0  0  0  0  0  0  0  0  0  0  0  0
   13.5491    0.7545    2.6828 F   0  0  0  0  0  0  0  0  0  0  0  0
   13.1254    2.8053    2.1456 F   0  0  0  0  0  0  0  0  0  0  0  0
   11.1368    1.4974    0.6939 C   0  0  0  0  0  0  0  0  0  0  0  0
    9.9797    1.0462    0.0674 C   0  0  0  0  0  0  0  0  0  0  0  0
    5.2572   -3.3523   -0.3605 C   0  0  0  0  0  0  0  0  0  0  0  0
    5.3688   -4.2247    0.7299 C   0  0  0  0  0  0  0  0  0  0  0  0
    5.8549   -5.5215    0.5586 C   0  0  0  0  0  0  0  0  0  0  0  0
    6.2510   -5.9596   -0.7095 C   0  0  0  0  0  0  0  0  0  0  0  0
    6.1547   -5.1050   -1.8102 C   0  0  0  0  0  0  0  0  0  0  0  0
    5.6516   -3.8214   -1.6234 C   0  0  0  0  0  0  0  0  0  0  0  0
    5.5527   -2.9987   -2.6803 F   0  0  0  0  0  0  0  0  0  0  0  0
    1.9411    1.1268    1.5217 H   0  0  0  0  0  0  0  0  0  0  0  0
    0.8280   -0.2307    1.1653 H   0  0  0  0  0  0  0  0  0  0  0  0
    1.6829    0.6091   -0.1690 H   0  0  0  0  0  0  0  0  0  0  0  0
    3.1699   -0.3243    3.0284 H   0  0  0  0  0  0  0  0  0  0  0  0
    4.1712   -1.6250    2.3615 H   0  0  0  0  0  0  0  0  0  0  0  0
    2.4047   -1.8988    2.6332 H   0  0  0  0  0  0  0  0  0  0  0  0
    5.0421    0.0151   -0.5237 H   0  0  0  0  0  0  0  0  0  0  0  0
    6.0982   -1.0067   -1.5111 H   0  0  0  0  0  0  0  0  0  0  0  0
    7.8473    0.1465   -0.8952 H   0  0  0  0  0  0  0  0  0  0  0  0
    8.4126   -0.3849    2.7386 H   0  0  0  0  0  0  0  0  0  0  0  0
   10.4777    0.4292    3.8593 H   0  0  0  0  0  0  0  0  0  0  0  0
   11.8935    2.0323    0.1171 H   0  0  0  0  0  0  0  0  0  0  0  0
    9.8393    1.2290   -1.0020 H   0  0  0  0  0  0  0  0  0  0  0  0
    5.0638   -3.8652    1.7126 H   0  0  0  0  0  0  0  0  0  0  0  0
    5.9308   -6.1903    1.4186 H   0  0  0  0  0  0  0  0  0  0  0  0
    6.6369   -6.9726   -0.8460 H   0  0  0  0  0  0  0  0  0  0  0  0
    6.4500   -5.4165   -2.8140 H   0  0  0  0  0  0  0  0  0  0  0  0
  1  2  1  0
  1 29  1  0
  1 30  1  0
  1 31  1  0
  2  3  1  0
  4  2  1  1
  3 32  1  0
  3 33  1  0
  3 34  1  0
  4  5  2  0
  4  6  2  0
  4  7  1  0
  7  8  1  0
  7 22  1  0
  8  9  1  0
  8 35  1  0
  8 36  1  0
  9 10  2  0
  9 11  1  0
 11 12  1  0
 11 37  1  0
 12 13  2  0
 12 21  1  0
 13 14  1  0
 13 38  1  0
 14 15  2  0
 14 39  1  0
 15 16  1  0
 15 20  1  0
 16 17  1  1
 16 18  1  0
 16 19  1  0
 20 21  2  0
 20 40  1  0
 21 41  1  0
 22 23  2  0
 22 27  1  0
 23 24  1  0
 23 42  1  0
 24 25  2  0
 24 43  1  0
 25 26  1  0
 25 44  1  0
 26 27  2  0
 26 45  1  0
 27 28  1  0
M  END

