
     RDKit          3D

 40 44  0  0  0  0  0  0  0  0999 V2000
    6.1920    1.4461    5.1199 C   0  0  0  0  0  0  0  0  0  0  0  0
    6.3610    1.0472    3.6739 C   0  0  0  0  0  0  0  0  0  0  0  0
    6.2158    1.9777    2.6337 C   0  0  0  0  0  0  0  0  0  0  0  0
    6.3594    1.6046    1.2961 C   0  0  0  0  0  0  0  0  0  0  0  0
    6.6451    0.2724    0.9592 C   0  0  0  0  0  0  0  0  0  0  0  0
    6.7585   -0.1106   -0.7888 S   0  0  0  0  0  0  0  0  0  0  0  0
    7.4827   -1.7490   -0.8372 C   0  0  0  0  0  0  0  0  0  0  0  0
    6.6350   -2.8273   -1.1274 C   0  0  0  0  0  0  0  0  0  0  0  0
    7.1310   -4.1237   -1.2447 C   0  0  0  0  0  0  0  0  0  0  0  0
    8.5001   -4.3876   -1.0687 C   0  0  0  0  0  0  0  0  0  0  0  0
    9.0415   -5.7169   -1.1714 C   0  0  0  0  0  0  0  0  0  0  0  0
   10.3727   -5.9556   -0.9970 C   0  0  0  0  0  0  0  0  0  0  0  0
   11.2907   -4.8866   -0.7057 C   0  0  0  0  0  0  0  0  0  0  0  0
   12.6675   -5.1104   -0.5237 C   0  0  0  0  0  0  0  0  0  0  0  0
   13.5335   -4.0514   -0.2446 C   0  0  0  0  0  0  0  0  0  0  0  0
   13.0465   -2.7479   -0.1420 C   0  0  0  0  0  0  0  0  0  0  0  0
   11.6768   -2.4753   -0.3159 C   0  0  0  0  0  0  0  0  0  0  0  0
   11.1385   -1.1459   -0.2252 C   0  0  0  0  0  0  0  0  0  0  0  0
    9.8071   -0.9003   -0.3943 C   0  0  0  0  0  0  0  0  0  0  0  0
    8.8764   -1.9628   -0.6697 C   0  0  0  0  0  0  0  0  0  0  0  0
    9.3841   -3.2996   -0.7780 C   0  0  0  0  0  0  0  0  0  0  0  0
   10.7813   -3.5531   -0.5998 C   0  0  0  0  0  0  0  0  0  0  0  0
    6.7910   -0.6707    1.9861 C   0  0  0  0  0  0  0  0  0  0  0  0
    6.6551   -0.2790    3.3193 C   0  0  0  0  0  0  0  0  0  0  0  0
    6.2062    2.5396    5.2421 H   0  0  0  0  0  0  0  0  0  0  0  0
    6.9903    1.0243    5.7519 H   0  0  0  0  0  0  0  0  0  0  0  0
    5.2329    1.0811    5.5273 H   0  0  0  0  0  0  0  0  0  0  0  0
    5.9939    3.0222    2.8721 H   0  0  0  0  0  0  0  0  0  0  0  0
    6.2539    2.3555    0.5083 H   0  0  0  0  0  0  0  0  0  0  0  0
    5.5683   -2.6344   -1.2583 H   0  0  0  0  0  0  0  0  0  0  0  0
    6.4506   -4.9491   -1.4703 H   0  0  0  0  0  0  0  0  0  0  0  0
    8.3562   -6.5392   -1.3938 H   0  0  0  0  0  0  0  0  0  0  0  0
   10.7673   -6.9721   -1.0776 H   0  0  0  0  0  0  0  0  0  0  0  0
   13.0553   -6.1294   -0.6044 H   0  0  0  0  0  0  0  0  0  0  0  0
   14.6003   -4.2449   -0.1066 H   0  0  0  0  0  0  0  0  0  0  0  0
   13.7291   -1.9219    0.0749 H   0  0  0  0  0  0  0  0  0  0  0  0
   11.8249   -0.3202   -0.0188 H   0  0  0  0  0  0  0  0  0  0  0  0
    9.4191    0.1170   -0.3305 H   0  0  0  0  0  0  0  0  0  0  0  0
    7.0137   -1.7123    1.7479 H   0  0  0  0  0  0  0  0  0  0  0  0
    6.7798   -1.0307    4.1048 H   0  0  0  0  0  0  0  0  0  0  0  0
  1  2  1  0
  1 25  1  0
  1 26  1  0
  1 27  1  0
  2  3  2  0
  2 24  1  0
  3  4  1  0
  3 28  1  0
  4  5  2  0
  4 29  1  0
  5  6  1  0
  5 23  1  0
  6  7  1  0
  7  8  2  0
  7 20  1  0
  8  9  1  0
  8 30  1  0
  9 10  2  0
  9 31  1  0
 10 11  1  0
 10 21  1  0
 11 12  2  0
 11 32  1  0
 12 13  1  0
 12 33  1  0
 13 14  2  0
 13 22  1  0
 14 15  1  0
 14 34  1  0
 15 16  2  0
 15 35  1  0
 16 17  1  0
 16 36  1  0
 17 18  2  0
 17 22  1  0
 18 19  1  0
 18 37  1  0
 19 20  2  0
 19 38  1  0
 20 21  1  0
 21 22  2  0
 23 24  2  0
 23 39  1  0
 24 40  1  0
M  END

