
     RDKit          3D

 40 41  0  0  0  0  0  0  0  0999 V2000
    0.8261    0.1167    0.6752 C   0  0  0  0  0  0  0  0  0  0  0  0
    2.3393    0.0347    0.6281 C   0  0  0  0  0  0  0  0  0  0  0  0
    2.8714    1.3331    0.8596 O   0  0  0  0  0  0  0  0  0  0  0  0
    4.2517    1.4076    0.8546 C   0  0  1  0  0  0  0  0  0  0  0  0
    4.8235    1.2891   -0.4318 O   0  0  0  0  0  0  0  0  0  0  0  0
    4.4066    2.2662   -1.3836 C   0  0  0  0  0  0  0  0  0  0  0  0
    4.9776    1.8886   -2.7369 C   0  0  0  0  0  0  0  0  0  0  0  0
    4.6852    2.7268    1.5457 C   0  0  0  0  0  0  0  0  0  0  0  0
    3.8870    3.4898    2.0296 O   0  0  0  0  0  0  0  0  0  0  0  0
    6.1968    2.9740    1.5921 C   0  0  0  0  0  0  0  0  0  0  0  0
    6.9477    2.0066    2.4897 C   0  0  0  0  0  0  0  0  0  0  0  0
    7.7047    0.9921    1.9269 C   0  0  0  0  0  0  0  0  0  0  0  0
    8.4295    0.0755    2.7264 C   0  0  0  0  0  0  0  0  0  0  0  0
    8.3973    0.1794    4.0990 C   0  0  0  0  0  0  0  0  0  0  0  0
    7.6316    1.1997    4.7293 C   0  0  0  0  0  0  0  0  0  0  0  0
    7.5863    1.3224    6.1465 C   0  0  0  0  0  0  0  0  0  0  0  0
    6.8369    2.3088    6.7512 C   0  0  0  0  0  0  0  0  0  0  0  0
    6.0939    3.2171    5.9586 C   0  0  0  0  0  0  0  0  0  0  0  0
    6.1161    3.1293    4.5812 C   0  0  0  0  0  0  0  0  0  0  0  0
    6.8848    2.1260    3.9208 C   0  0  0  0  0  0  0  0  0  0  0  0
    0.3829   -0.8793    0.5195 H   0  0  0  0  0  0  0  0  0  0  0  0
    0.4473    0.7918   -0.1077 H   0  0  0  0  0  0  0  0  0  0  0  0
    0.4899    0.5024    1.6497 H   0  0  0  0  0  0  0  0  0  0  0  0
    2.6852   -0.3492   -0.3493 H   0  0  0  0  0  0  0  0  0  0  0  0
    2.7187   -0.6618    1.4030 H   0  0  0  0  0  0  0  0  0  0  0  0
    4.7011    0.5694    1.4232 H   0  0  0  0  0  0  0  0  0  0  0  0
    4.7605    3.2729   -1.0818 H   0  0  0  0  0  0  0  0  0  0  0  0
    3.3048    2.3121   -1.4150 H   0  0  0  0  0  0  0  0  0  0  0  0
    6.0777    1.8524   -2.7037 H   0  0  0  0  0  0  0  0  0  0  0  0
    4.6776    2.6252   -3.4987 H   0  0  0  0  0  0  0  0  0  0  0  0
    4.6137    0.8974   -3.0491 H   0  0  0  0  0  0  0  0  0  0  0  0
    6.3381    4.0147    1.9170 H   0  0  0  0  0  0  0  0  0  0  0  0
    6.5894    2.8751    0.5697 H   0  0  0  0  0  0  0  0  0  0  0  0
    7.7422    0.8976    0.8384 H   0  0  0  0  0  0  0  0  0  0  0  0
    9.0180   -0.7095    2.2450 H   0  0  0  0  0  0  0  0  0  0  0  0
    8.9587   -0.5203    4.7241 H   0  0  0  0  0  0  0  0  0  0  0  0
    8.1604    0.6145    6.7508 H   0  0  0  0  0  0  0  0  0  0  0  0
    6.8115    2.3906    7.8408 H   0  0  0  0  0  0  0  0  0  0  0  0
    5.4943    3.9928    6.4417 H   0  0  0  0  0  0  0  0  0  0  0  0
    5.5165    3.8256    3.9934 H   0  0  0  0  0  0  0  0  0  0  0  0
  1  2  1  0
  1 21  1  0
  1 22  1  0
  1 23  1  0
  2  3  1  0
  2 24  1  0
  2 25  1  0
  3  4  1  0
  4  5  1  0
  4  8  1  0
  4 26  1  1
  5  6  1  0
  6  7  1  0
  6 27  1  0
  6 28  1  0
  7 29  1  0
  7 30  1  0
  7 31  1  0
  8  9  2  0
  8 10  1  0
 10 11  1  0
 10 32  1  0
 10 33  1  0
 11 12  2  0
 11 20  1  0
 12 13  1  0
 12 34  1  0
 13 14  2  0
 13 35  1  0
 14 15  1  0
 14 36  1  0
 15 16  1  0
 15 20  2  0
 16 17  2  0
 16 37  1  0
 17 18  1  0
 17 38  1  0
 18 19  2  0
 18 39  1  0
 19 20  1  0
 19 40  1  0
M  END

