
     RDKit          3D

 51 52  0  0  0  0  0  0  0  0999 V2000
    1.2948   -3.9147    5.9140 C   0  0  0  0  0  0  0  0  0  0  0  0
    2.3254   -3.2469    6.5906 O   0  0  0  0  0  0  0  0  0  0  0  0
    3.3914   -2.8554    5.7669 C   0  0  0  0  0  0  0  0  0  0  0  0
    4.4643   -2.1720    6.6225 C   0  0  1  0  0  0  0  0  0  0  0  0
    4.9794   -3.0979    7.7296 C   0  0  0  0  0  0  0  0  0  0  0  0
    5.5732   -1.6567    5.6942 C   0  0  0  0  0  0  0  0  0  0  0  0
    6.6477   -0.4264    6.4862 S   0  0  1  0  0  0  0  0  0  0  0  0
    5.7904    0.6916    6.8975 O   0  0  0  0  0  0  0  0  0  0  0  0
    7.5324   -1.1009    7.4456 O   0  0  0  0  0  0  0  0  0  0  0  0
    7.5832    0.1421    5.1906 N   0  0  0  0  0  0  0  0  0  0  0  0
    9.0438   -0.1107    5.1781 C   0  0  1  0  0  0  0  0  0  0  0  0
    9.3578   -1.5542    4.7464 C   0  0  0  0  0  0  0  0  0  0  0  0
    9.0387   -1.7966    3.2617 C   0  0  0  0  0  0  0  0  0  0  0  0
    9.6874   -0.8413    2.3617 N   0  0  0  0  0  0  0  0  0  0  0  0
   11.0922   -1.1087    2.0843 C   0  0  0  0  0  0  0  0  0  0  0  0
   11.3106   -2.3368    1.2149 C   0  0  0  0  0  0  0  0  0  0  0  0
   10.4669   -2.5996    0.1239 C   0  0  0  0  0  0  0  0  0  0  0  0
   10.6975   -3.6984   -0.7065 C   0  0  0  0  0  0  0  0  0  0  0  0
   11.7769   -4.5545   -0.4602 C   0  0  0  0  0  0  0  0  0  0  0  0
   12.6200   -4.3049    0.6255 C   0  0  0  0  0  0  0  0  0  0  0  0
   12.3840   -3.2052    1.4575 C   0  0  0  0  0  0  0  0  0  0  0  0
    9.3659    0.5328    2.7285 C   0  0  0  0  0  0  0  0  0  0  0  0
    9.6954    0.8769    4.1938 C   0  0  0  0  0  0  0  0  0  0  0  0
    0.5198   -4.1714    6.6508 H   0  0  0  0  0  0  0  0  0  0  0  0
    1.6497   -4.8499    5.4344 H   0  0  0  0  0  0  0  0  0  0  0  0
    0.8363   -3.2825    5.1262 H   0  0  0  0  0  0  0  0  0  0  0  0
    3.0357   -2.1591    4.9768 H   0  0  0  0  0  0  0  0  0  0  0  0
    3.8265   -3.7370    5.2445 H   0  0  0  0  0  0  0  0  0  0  0  0
    3.9866   -1.2909    7.0842 H   0  0  0  0  0  0  0  0  0  0  0  0
    5.4708   -3.9873    7.2978 H   0  0  0  0  0  0  0  0  0  0  0  0
    4.1384   -3.4416    8.3471 H   0  0  0  0  0  0  0  0  0  0  0  0
    5.7126   -2.5886    8.3695 H   0  0  0  0  0  0  0  0  0  0  0  0
    5.1603   -1.1210    4.8265 H   0  0  0  0  0  0  0  0  0  0  0  0
    6.2325   -2.4607    5.3321 H   0  0  0  0  0  0  0  0  0  0  0  0
    7.3399    1.1270    5.0816 H   0  0  0  0  0  0  0  0  0  0  0  0
    9.4549    0.0553    6.1880 H   0  0  0  0  0  0  0  0  0  0  0  0
    8.8140   -2.2633    5.3898 H   0  0  0  0  0  0  0  0  0  0  0  0
   10.4287   -1.7364    4.9392 H   0  0  0  0  0  0  0  0  0  0  0  0
    7.9481   -1.7199    3.1088 H   0  0  0  0  0  0  0  0  0  0  0  0
    9.3293   -2.8168    2.9681 H   0  0  0  0  0  0  0  0  0  0  0  0
   11.7227   -1.2089    2.9952 H   0  0  0  0  0  0  0  0  0  0  0  0
   11.4886   -0.2287    1.5466 H   0  0  0  0  0  0  0  0  0  0  0  0
    9.6199   -1.9332   -0.0549 H   0  0  0  0  0  0  0  0  0  0  0  0
   10.0313   -3.8892   -1.5524 H   0  0  0  0  0  0  0  0  0  0  0  0
   11.9564   -5.4151   -1.1099 H   0  0  0  0  0  0  0  0  0  0  0  0
   13.4618   -4.9714    0.8312 H   0  0  0  0  0  0  0  0  0  0  0  0
   13.0448   -3.0193    2.3099 H   0  0  0  0  0  0  0  0  0  0  0  0
    8.2857    0.6878    2.5575 H   0  0  0  0  0  0  0  0  0  0  0  0
    9.8956    1.2201    2.0494 H   0  0  0  0  0  0  0  0  0  0  0  0
    9.3861    1.9116    4.4273 H   0  0  0  0  0  0  0  0  0  0  0  0
   10.7863    0.8400    4.3518 H   0  0  0  0  0  0  0  0  0  0  0  0
  1  2  1  0
  1 24  1  0
  1 25  1  0
  1 26  1  0
  2  3  1  0
  3  4  1  0
  3 27  1  0
  3 28  1  0
  4  5  1  0
  4  6  1  0
  4 29  1  1
  5 30  1  0
  5 31  1  0
  5 32  1  0
  6  7  1  0
  6 33  1  0
  6 34  1  0
  7  8  2  0
  7  9  2  0
  7 10  1  6
 10 11  1  0
 10 35  1  0
 11 12  1  0
 11 23  1  0
 11 36  1  1
 12 13  1  0
 12 37  1  0
 12 38  1  0
 13 14  1  0
 13 39  1  0
 13 40  1  0
 14 15  1  0
 14 22  1  0
 15 16  1  0
 15 41  1  0
 15 42  1  0
 16 17  2  0
 16 21  1  0
 17 18  1  0
 17 43  1  0
 18 19  2  0
 18 44  1  0
 19 20  1  0
 19 45  1  0
 20 21  2  0
 20 46  1  0
 21 47  1  0
 22 23  1  0
 22 48  1  0
 22 49  1  0
 23 50  1  0
 23 51  1  0
M  END

