
     RDKit          3D

 22 22  0  0  0  0  0  0  0  0999 V2000
    1.1754    0.2007    0.0924 N   0  0  0  0  0  0  0  0  0  0  0  0
    2.3346    0.1565    0.0247 C   0  0  0  0  0  0  0  0  0  0  0  0
    3.7645    0.1055   -0.0628 C   0  0  0  0  0  0  0  0  0  0  0  0
    4.5349    1.2828    0.0453 C   0  0  0  0  0  0  0  0  0  0  0  0
    5.9163    1.2237   -0.0374 C   0  0  0  0  0  0  0  0  0  0  0  0
    6.5891   -0.0034   -0.2325 C   0  0  0  0  0  0  0  0  0  0  0  0
    7.9608   -0.0306   -0.3079 N   0  0  0  0  0  0  0  0  0  0  0  0
    5.8215   -1.2037   -0.3203 C   0  0  0  0  0  0  0  0  0  0  0  0
    6.5041   -2.4971   -0.4533 C   0  0  0  0  0  0  0  0  0  0  0  0
    6.0097   -3.6099   -1.0169 C   0  0  0  0  0  0  0  0  0  0  0  0
    6.7600   -4.9035   -1.0621 C   0  0  1  0  0  0  0  0  0  0  0  0
    6.0952   -5.8770   -0.4111 F   0  0  0  0  0  0  0  0  0  0  0  0
    6.9197   -5.3260   -2.3317 F   0  0  0  0  0  0  0  0  0  0  0  0
    7.9850   -4.8161   -0.5133 F   0  0  0  0  0  0  0  0  0  0  0  0
    4.4252   -1.1191   -0.2397 C   0  0  0  0  0  0  0  0  0  0  0  0
    4.0370    2.2431    0.1924 H   0  0  0  0  0  0  0  0  0  0  0  0
    6.5024    2.1435    0.0368 H   0  0  0  0  0  0  0  0  0  0  0  0
    8.4477    0.8543   -0.3711 H   0  0  0  0  0  0  0  0  0  0  0  0
    8.4144   -0.7956   -0.7893 H   0  0  0  0  0  0  0  0  0  0  0  0
    7.5138   -2.5576   -0.0328 H   0  0  0  0  0  0  0  0  0  0  0  0
    5.0246   -3.6489   -1.4899 H   0  0  0  0  0  0  0  0  0  0  0  0
    3.8344   -2.0356   -0.2819 H   0  0  0  0  0  0  0  0  0  0  0  0
  1  2  3  0
  2  3  1  0
  3  4  2  0
  3 15  1  0
  4  5  1  0
  4 16  1  0
  5  6  2  0
  5 17  1  0
  6  7  1  0
  6  8  1  0
  7 18  1  0
  7 19  1  0
  8  9  1  0
  8 15  2  0
  9 10  2  0
  9 20  1  0
 10 11  1  0
 10 21  1  0
 11 12  1  1
 11 13  1  0
 11 14  1  0
 15 22  1  0
M  END

