
     RDKit          3D

 32 32  0  0  0  0  0  0  0  0999 V2000
    1.1632    0.3563    0.2389 C   0  0  0  0  0  0  0  0  0  0  0  0
    2.6616    0.1309   -0.0153 C   0  0  1  0  0  0  0  0  0  0  0  0
    3.0040   -1.3498   -0.2832 C   0  0  0  0  0  0  0  0  0  0  0  0
    2.5611   -1.8201   -1.6750 C   0  0  0  0  0  0  0  0  0  0  0  0
    3.1297   -0.9199   -2.7800 C   0  0  0  0  0  0  0  0  0  0  0  0
    2.7718    0.5643   -2.5599 C   0  0  2  0  0  0  0  0  0  0  0  0
    3.3253    1.4838   -3.5534 N   0  0  0  0  0  0  0  0  0  0  0  0
    2.8522    1.3358   -4.9256 C   0  0  0  0  0  0  0  0  0  0  0  0
    3.2193    2.5479   -5.7485 C   0  0  0  0  0  0  0  0  0  0  0  0
    2.9600    3.7684   -5.1851 N   0  0  0  0  0  0  0  0  0  0  0  0
    3.6953    2.3488   -6.9293 N   0  0  0  0  0  0  0  0  0  0  0  0
    3.9458    3.5882   -7.5621 O   0  0  0  0  0  0  0  0  0  0  0  0
    3.2090    1.0136   -1.1563 C   0  0  0  0  0  0  0  0  0  0  0  0
    0.8168   -0.2403    1.0986 H   0  0  0  0  0  0  0  0  0  0  0  0
    0.5380    0.0779   -0.6244 H   0  0  0  0  0  0  0  0  0  0  0  0
    0.9570    1.4155    0.4634 H   0  0  0  0  0  0  0  0  0  0  0  0
    3.1878    0.4308    0.9084 H   0  0  0  0  0  0  0  0  0  0  0  0
    2.5567   -1.9877    0.4983 H   0  0  0  0  0  0  0  0  0  0  0  0
    4.0984   -1.4797   -0.1991 H   0  0  0  0  0  0  0  0  0  0  0  0
    1.4583   -1.8244   -1.7388 H   0  0  0  0  0  0  0  0  0  0  0  0
    2.8760   -2.8644   -1.8383 H   0  0  0  0  0  0  0  0  0  0  0  0
    2.7732   -1.2572   -3.7674 H   0  0  0  0  0  0  0  0  0  0  0  0
    4.2333   -1.0103   -2.7975 H   0  0  0  0  0  0  0  0  0  0  0  0
    1.6723    0.6618   -2.6316 H   0  0  0  0  0  0  0  0  0  0  0  0
    4.3455    1.4457   -3.5314 H   0  0  0  0  0  0  0  0  0  0  0  0
    1.7499    1.2603   -4.8889 H   0  0  0  0  0  0  0  0  0  0  0  0
    3.2220    0.4450   -5.4661 H   0  0  0  0  0  0  0  0  0  0  0  0
    2.9562    3.7606   -4.1696 H   0  0  0  0  0  0  0  0  0  0  0  0
    3.3881    4.5646   -5.6442 H   0  0  0  0  0  0  0  0  0  0  0  0
    4.3216    3.3176   -8.4076 H   0  0  0  0  0  0  0  0  0  0  0  0
    2.9148    2.0659   -1.0102 H   0  0  0  0  0  0  0  0  0  0  0  0
    4.3149    0.9919   -1.1217 H   0  0  0  0  0  0  0  0  0  0  0  0
  1  2  1  0
  1 14  1  0
  1 15  1  0
  1 16  1  0
  2  3  1  0
  2 13  1  0
  2 17  1  1
  3  4  1  0
  3 18  1  0
  3 19  1  0
  4  5  1  0
  4 20  1  0
  4 21  1  0
  5  6  1  0
  5 22  1  0
  5 23  1  0
  6  7  1  0
  6 13  1  0
  6 24  1  1
  7  8  1  0
  7 25  1  0
  8  9  1  0
  8 26  1  0
  8 27  1  0
  9 10  1  0
  9 11  2  0
 10 28  1  0
 10 29  1  0
 11 12  1  0
 12 30  1  0
 13 31  1  0
 13 32  1  0
M  END

