
     RDKit          3D

 41 43  0  0  0  0  0  0  0  0999 V2000
    1.3291   -0.5014   -0.1418 C   0  0  0  0  0  0  0  0  0  0  0  0
    2.7438   -0.2706    0.0224 N   0  0  0  0  0  0  0  0  0  0  0  0
    3.5733   -1.2690    0.5097 C   0  0  0  0  0  0  0  0  0  0  0  0
    3.2813   -2.4347    0.6889 O   0  0  0  0  0  0  0  0  0  0  0  0
    4.8030   -0.6773    0.7637 N   0  0  0  0  0  0  0  0  0  0  0  0
    4.8797    0.6313    0.1470 C   0  0  0  0  0  0  0  0  0  0  0  0
    3.3816    1.0534    0.0779 C   0  0  1  0  0  0  0  0  0  0  0  0
    3.0632    1.9053   -1.1638 C   0  0  0  0  0  0  0  0  0  0  0  0
    3.6300    3.3329   -1.0480 C   0  0  0  0  0  0  0  0  0  0  0  0
    3.1888    4.0404    0.1528 N   0  0  0  0  0  0  0  0  0  0  0  0
    1.8413    4.5877    0.0853 C   0  0  0  0  0  0  0  0  0  0  0  0
    1.7214    5.7878   -0.8412 C   0  0  0  0  0  0  0  0  0  0  0  0
    2.7600    6.7254   -0.9192 C   0  0  0  0  0  0  0  0  0  0  0  0
    2.6314    7.8632   -1.7272 C   0  0  0  0  0  0  0  0  0  0  0  0
    3.6122    8.7943   -1.8317 O   0  0  0  0  0  0  0  0  0  0  0  0
    1.4592    8.0766   -2.4677 C   0  0  0  0  0  0  0  0  0  0  0  0
    0.4456    7.1315   -2.3755 C   0  0  0  0  0  0  0  0  0  0  0  0
   -0.6769    7.3223   -3.0853 F   0  0  0  0  0  0  0  0  0  0  0  0
    0.5505    5.9888   -1.5825 C   0  0  0  0  0  0  0  0  0  0  0  0
    3.5038    3.2773    1.3554 C   0  0  0  0  0  0  0  0  0  0  0  0
    2.9609    1.8356    1.3497 C   0  0  0  0  0  0  0  0  0  0  0  0
    1.1617   -1.5805   -0.0188 H   0  0  0  0  0  0  0  0  0  0  0  0
    0.9776   -0.2047   -1.1441 H   0  0  0  0  0  0  0  0  0  0  0  0
    0.7185    0.0304    0.6113 H   0  0  0  0  0  0  0  0  0  0  0  0
    5.6072   -1.2918    0.8065 H   0  0  0  0  0  0  0  0  0  0  0  0
    5.3133    0.5926   -0.8721 H   0  0  0  0  0  0  0  0  0  0  0  0
    5.4841    1.3311    0.7437 H   0  0  0  0  0  0  0  0  0  0  0  0
    1.9686    1.9617   -1.2848 H   0  0  0  0  0  0  0  0  0  0  0  0
    3.4520    1.4084   -2.0681 H   0  0  0  0  0  0  0  0  0  0  0  0
    3.3523    3.9233   -1.9344 H   0  0  0  0  0  0  0  0  0  0  0  0
    4.7347    3.2927   -1.0368 H   0  0  0  0  0  0  0  0  0  0  0  0
    1.5714    4.9150    1.1050 H   0  0  0  0  0  0  0  0  0  0  0  0
    1.0662    3.8458   -0.2039 H   0  0  0  0  0  0  0  0  0  0  0  0
    3.6755    6.5467   -0.3485 H   0  0  0  0  0  0  0  0  0  0  0  0
    4.3575    8.5372   -1.2728 H   0  0  0  0  0  0  0  0  0  0  0  0
    1.3507    8.9572   -3.1013 H   0  0  0  0  0  0  0  0  0  0  0  0
   -0.2775    5.2777   -1.5556 H   0  0  0  0  0  0  0  0  0  0  0  0
    3.1244    3.8207    2.2355 H   0  0  0  0  0  0  0  0  0  0  0  0
    4.6040    3.2531    1.4609 H   0  0  0  0  0  0  0  0  0  0  0  0
    1.8595    1.8604    1.4007 H   0  0  0  0  0  0  0  0  0  0  0  0
    3.3094    1.2932    2.2442 H   0  0  0  0  0  0  0  0  0  0  0  0
  1  2  1  0
  1 22  1  0
  1 23  1  0
  1 24  1  0
  2  3  1  0
  7  2  1  6
  3  4  2  0
  3  5  1  0
  5  6  1  0
  5 25  1  0
  6  7  1  0
  6 26  1  0
  6 27  1  0
  7  8  1  0
  7 21  1  0
  8  9  1  0
  8 28  1  0
  8 29  1  0
  9 10  1  0
  9 30  1  0
  9 31  1  0
 10 11  1  0
 10 20  1  0
 11 12  1  0
 11 32  1  0
 11 33  1  0
 12 13  2  0
 12 19  1  0
 13 14  1  0
 13 34  1  0
 14 15  1  0
 14 16  2  0
 15 35  1  0
 16 17  1  0
 16 36  1  0
 17 18  1  0
 17 19  2  0
 19 37  1  0
 20 21  1  0
 20 38  1  0
 20 39  1  0
 21 40  1  0
 21 41  1  0
M  END

