
     RDKit          3D

 51 55  0  0  0  0  0  0  0  0999 V2000
    1.7999    0.0387    1.1675 C   0  0  0  0  0  0  0  0  0  0  0  0
    3.0667   -0.1337    0.3958 C   0  0  0  0  0  0  0  0  0  0  0  0
    3.9552    0.8038    0.2009 N   0  0  0  0  0  0  0  0  0  0  0  0
    4.9701    0.2148   -0.5291 C   0  0  0  0  0  0  0  0  0  0  0  0
    6.1722    0.7350   -1.0318 C   0  0  0  0  0  0  0  0  0  0  0  0
    7.0198   -0.0218   -1.7236 N   0  0  0  0  0  0  0  0  0  0  0  0
    6.7148   -1.3128   -1.9486 C   0  0  0  0  0  0  0  0  0  0  0  0
    5.5530   -1.9488   -1.5044 C   0  0  0  0  0  0  0  0  0  0  0  0
    4.6730   -1.1461   -0.7737 C   0  0  0  0  0  0  0  0  0  0  0  0
    3.4385   -1.3592   -0.1787 N   0  0  0  0  0  0  0  0  0  0  0  0
    2.7295   -2.5932   -0.1298 C   0  0  0  0  0  0  0  0  0  0  0  0
    3.3016   -3.7058    0.5013 C   0  0  0  0  0  0  0  0  0  0  0  0
    2.6134   -4.9186    0.5391 C   0  0  0  0  0  0  0  0  0  0  0  0
    1.3348   -5.0479   -0.0342 C   0  0  0  0  0  0  0  0  0  0  0  0
    0.5940   -6.3450    0.0261 C   0  0  0  0  0  0  0  0  0  0  0  0
   -0.7539   -6.3311    0.2529 C   0  0  0  0  0  0  0  0  0  0  0  0
   -1.7671   -7.3976    0.2739 C   0  0  0  0  0  0  0  0  0  0  0  0
   -2.9275   -7.1361    0.5773 O   0  0  0  0  0  0  0  0  0  0  0  0
   -1.4384   -8.7015   -0.0449 N   0  0  0  0  0  0  0  0  0  0  0  0
   -0.2454   -9.2835   -0.6288 C   0  0  2  0  0  0  0  0  0  0  0  0
   -0.1257   -8.9851   -1.6913 H   0  0  0  0  0  0  0  0  0  0  0  0
   -0.4218  -10.8130   -0.5668 C   0  0  0  0  0  0  0  0  0  0  0  0
    0.8041  -11.5944   -1.0370 C   0  0  0  0  0  0  0  0  0  0  0  0
    2.0373  -11.1870   -0.2275 C   0  0  0  0  0  0  0  0  0  0  0  0
    2.2646   -9.6790   -0.3253 C   0  0  0  0  0  0  0  0  0  0  0  0
    1.0474   -8.8410    0.1053 C   0  0  1  0  0  0  0  0  0  0  0  0
    0.8601   -8.9986    1.1856 H   0  0  0  0  0  0  0  0  0  0  0  0
    1.3925   -7.4484   -0.1226 N   0  0  0  0  0  0  0  0  0  0  0  0
    0.7756   -3.9233   -0.6673 C   0  0  0  0  0  0  0  0  0  0  0  0
    1.4645   -2.7130   -0.7219 C   0  0  0  0  0  0  0  0  0  0  0  0
    1.8294    1.0201    1.6568 H   0  0  0  0  0  0  0  0  0  0  0  0
    1.6795   -0.7452    1.9319 H   0  0  0  0  0  0  0  0  0  0  0  0
    0.9111    0.0018    0.5170 H   0  0  0  0  0  0  0  0  0  0  0  0
    6.4365    1.7852   -0.8622 H   0  0  0  0  0  0  0  0  0  0  0  0
    7.4494   -1.8852   -2.5271 H   0  0  0  0  0  0  0  0  0  0  0  0
    5.3598   -3.0007   -1.7228 H   0  0  0  0  0  0  0  0  0  0  0  0
    4.2805   -3.6113    0.9761 H   0  0  0  0  0  0  0  0  0  0  0  0
    3.0612   -5.7696    1.0571 H   0  0  0  0  0  0  0  0  0  0  0  0
   -1.2071   -5.3667    0.4789 H   0  0  0  0  0  0  0  0  0  0  0  0
   -2.2642   -9.2929   -0.0253 H   0  0  0  0  0  0  0  0  0  0  0  0
   -1.3096  -11.0869   -1.1616 H   0  0  0  0  0  0  0  0  0  0  0  0
   -0.6492  -11.0842    0.4800 H   0  0  0  0  0  0  0  0  0  0  0  0
    0.9858  -11.4005   -2.1097 H   0  0  0  0  0  0  0  0  0  0  0  0
    0.6162  -12.6761   -0.9429 H   0  0  0  0  0  0  0  0  0  0  0  0
    2.9339  -11.7216   -0.5809 H   0  0  0  0  0  0  0  0  0  0  0  0
    1.8964  -11.4755    0.8296 H   0  0  0  0  0  0  0  0  0  0  0  0
    2.5055   -9.4204   -1.3736 H   0  0  0  0  0  0  0  0  0  0  0  0
    3.1332   -9.3747    0.2831 H   0  0  0  0  0  0  0  0  0  0  0  0
    2.3008   -7.2815   -0.5372 H   0  0  0  0  0  0  0  0  0  0  0  0
   -0.2006   -4.0103   -1.1477 H   0  0  0  0  0  0  0  0  0  0  0  0
    1.0312   -1.8589   -1.2460 H   0  0  0  0  0  0  0  0  0  0  0  0
  1  2  1  0
  1 31  1  0
  1 32  1  0
  1 33  1  0
  2  3  2  0
  2 10  1  0
  3  4  1  0
  4  5  2  0
  4  9  1  0
  5  6  1  0
  5 34  1  0
  6  7  2  0
  7  8  1  0
  7 35  1  0
  8  9  2  0
  8 36  1  0
  9 10  1  0
 10 11  1  0
 11 12  2  0
 11 30  1  0
 12 13  1  0
 12 37  1  0
 13 14  2  0
 13 38  1  0
 14 15  1  0
 14 29  1  0
 15 16  2  0
 15 28  1  0
 16 17  1  0
 16 39  1  0
 17 18  2  0
 17 19  1  0
 19 20  1  0
 19 40  1  0
 20 21  1  6
 20 22  1  0
 20 26  1  0
 22 23  1  0
 22 41  1  0
 22 42  1  0
 23 24  1  0
 23 43  1  0
 23 44  1  0
 24 25  1  0
 24 45  1  0
 24 46  1  0
 25 26  1  0
 25 47  1  0
 25 48  1  0
 26 27  1  1
 26 28  1  0
 28 49  1  0
 29 30  2  0
 29 50  1  0
 30 51  1  0
M  END

