
     RDKit          3D

 49 50  0  0  0  0  0  0  0  0999 V2000
    2.7834    1.1355   -0.2667 C   0  0  0  0  0  0  0  0  0  0  0  0
    2.4067    1.6159    1.1360 C   0  0  1  0  0  0  0  0  0  0  0  0
    2.9179    0.7298    2.1760 N   0  0  0  0  0  0  0  0  0  0  0  0
    2.3755   -0.6154    2.2030 C   0  0  0  0  0  0  0  0  0  0  0  0
    2.7983   -1.3241    3.4921 C   0  0  0  0  0  0  0  0  0  0  0  0
    2.3552   -0.6298    4.7038 N   0  0  0  0  0  0  0  0  0  0  0  0
    0.9374   -0.8559    4.9606 C   0  0  0  0  0  0  0  0  0  0  0  0
    0.3149    0.0056    6.0609 C   0  0  0  0  0  0  0  0  0  0  0  0
    0.6674   -0.5270    7.7751 S   0  0  0  0  0  0  0  0  0  0  0  0
    2.3535    0.1932    8.1369 C   0  0  2  0  0  0  0  0  0  0  0  0
    2.9848   -0.7735    9.1520 C   0  0  0  0  0  0  0  0  0  0  0  0
    2.1854    1.5818    8.7716 C   0  0  0  0  0  0  0  0  0  0  0  0
    3.2265    0.3147    6.8688 C   0  0  0  0  0  0  0  0  0  0  0  0
    3.2349   -0.8471    5.8576 C   0  0  0  0  0  0  0  0  0  0  0  0
    2.9080    3.0388    1.4393 C   0  0  1  0  0  0  0  0  0  0  0  0
    4.4198    3.2889    1.3792 C   0  0  0  0  0  0  0  0  0  0  0  0
    4.4703    4.7946    1.0930 C   0  0  0  0  0  0  0  0  0  0  0  0
    3.2635    4.9776    0.1629 C   0  0  0  0  0  0  0  0  0  0  0  0
    2.3329    3.9554    0.5094 O   0  0  0  0  0  0  0  0  0  0  0  0
    2.2410    0.2151   -0.5319 H   0  0  0  0  0  0  0  0  0  0  0  0
    3.8614    0.9214   -0.3400 H   0  0  0  0  0  0  0  0  0  0  0  0
    2.5154    1.9054   -1.0049 H   0  0  0  0  0  0  0  0  0  0  0  0
    1.2936    1.6820    1.1647 H   0  0  0  0  0  0  0  0  0  0  0  0
    2.7461    1.1360    3.0975 H   0  0  0  0  0  0  0  0  0  0  0  0
    2.7651   -1.2048    1.3553 H   0  0  0  0  0  0  0  0  0  0  0  0
    1.2655   -0.6341    2.0956 H   0  0  0  0  0  0  0  0  0  0  0  0
    3.8983   -1.3507    3.5028 H   0  0  0  0  0  0  0  0  0  0  0  0
    2.4465   -2.3794    3.4635 H   0  0  0  0  0  0  0  0  0  0  0  0
    0.7356   -1.9244    5.2026 H   0  0  0  0  0  0  0  0  0  0  0  0
    0.3923   -0.6390    4.0272 H   0  0  0  0  0  0  0  0  0  0  0  0
   -0.7808   -0.0789    5.9889 H   0  0  0  0  0  0  0  0  0  0  0  0
    0.5595    1.0706    5.9253 H   0  0  0  0  0  0  0  0  0  0  0  0
    2.3253   -0.9235   10.0219 H   0  0  0  0  0  0  0  0  0  0  0  0
    3.9394   -0.3621    9.5217 H   0  0  0  0  0  0  0  0  0  0  0  0
    3.1811   -1.7599    8.7060 H   0  0  0  0  0  0  0  0  0  0  0  0
    1.6123    1.5229    9.7092 H   0  0  0  0  0  0  0  0  0  0  0  0
    1.6550    2.2685    8.0937 H   0  0  0  0  0  0  0  0  0  0  0  0
    3.1717    2.0250    8.9976 H   0  0  0  0  0  0  0  0  0  0  0  0
    4.2588    0.4840    7.2242 H   0  0  0  0  0  0  0  0  0  0  0  0
    2.9534    1.2268    6.3156 H   0  0  0  0  0  0  0  0  0  0  0  0
    3.0169   -1.8098    6.3683 H   0  0  0  0  0  0  0  0  0  0  0  0
    4.2553   -0.9355    5.4574 H   0  0  0  0  0  0  0  0  0  0  0  0
    2.5471    3.2962    2.4598 H   0  0  0  0  0  0  0  0  0  0  0  0
    4.8712    2.7240    0.5484 H   0  0  0  0  0  0  0  0  0  0  0  0
    4.9335    2.9900    2.3033 H   0  0  0  0  0  0  0  0  0  0  0  0
    5.4154    5.1274    0.6378 H   0  0  0  0  0  0  0  0  0  0  0  0
    4.3277    5.3664    2.0252 H   0  0  0  0  0  0  0  0  0  0  0  0
    3.5555    4.8653   -0.8993 H   0  0  0  0  0  0  0  0  0  0  0  0
    2.7815    5.9645    0.2726 H   0  0  0  0  0  0  0  0  0  0  0  0
  1  2  1  0
  1 20  1  0
  1 21  1  0
  1 22  1  0
  2  3  1  0
  2 15  1  0
  2 23  1  6
  3  4  1  0
  3 24  1  0
  4  5  1  0
  4 25  1  0
  4 26  1  0
  5  6  1  0
  5 27  1  0
  5 28  1  0
  6  7  1  0
  6 14  1  0
  7  8  1  0
  7 29  1  0
  7 30  1  0
  8  9  1  0
  8 31  1  0
  8 32  1  0
  9 10  1  0
 10 11  1  1
 10 12  1  0
 10 13  1  0
 11 33  1  0
 11 34  1  0
 11 35  1  0
 12 36  1  0
 12 37  1  0
 12 38  1  0
 13 14  1  0
 13 39  1  0
 13 40  1  0
 14 41  1  0
 14 42  1  0
 15 16  1  0
 15 19  1  0
 15 43  1  1
 16 17  1  0
 16 44  1  0
 16 45  1  0
 17 18  1  0
 17 46  1  0
 17 47  1  0
 18 19  1  0
 18 48  1  0
 18 49  1  0
M  END

