
     RDKit          3D

 39 38  0  0  0  0  0  0  0  0999 V2000
    5.5455    0.0253    5.9009 C   0  0  0  0  0  0  0  0  0  0  0  0
    4.3056   -0.5085    5.1812 C   0  0  0  0  0  0  0  0  0  0  0  0
    4.6185   -1.4187    4.0935 N   0  0  0  0  0  0  0  0  0  0  0  0
    4.5763   -1.0455    2.7868 C   0  0  0  0  0  0  0  0  0  0  0  0
    4.2035    0.0479    2.3851 O   0  0  0  0  0  0  0  0  0  0  0  0
    5.0744   -2.1305    1.8153 C   0  0  0  0  0  0  0  0  0  0  0  0
    6.5301   -2.2596    1.8214 N   0  0  0  0  0  0  0  0  0  0  0  0
    7.2970   -1.3344    1.0025 C   0  0  0  0  0  0  0  0  0  0  0  0
    7.0890   -3.1426    2.7170 C   0  0  0  0  0  0  0  0  0  0  0  0
    6.4161   -3.7000    3.5913 O   0  0  0  0  0  0  0  0  0  0  0  0
    8.4376   -3.3739    2.5993 N   0  0  0  0  0  0  0  0  0  0  0  0
    9.1321   -4.2374    3.5385 C   0  0  0  0  0  0  0  0  0  0  0  0
    8.8249   -5.7386    3.3694 C   0  0  1  0  0  0  0  0  0  0  0  0
    9.0854   -6.2857    1.9434 C   0  0  0  0  0  0  0  0  0  0  0  0
   10.5363   -6.2062    1.4628 C   0  0  0  0  0  0  0  0  0  0  0  0
    9.6228   -6.5375    4.3971 C   0  0  0  0  0  0  0  0  0  0  0  0
   10.6346   -6.1516    4.9192 O   0  0  0  0  0  0  0  0  0  0  0  0
    9.1440   -7.7736    4.6737 O   0  0  0  0  0  0  0  0  0  0  0  0
    5.2564    0.6904    6.7308 H   0  0  0  0  0  0  0  0  0  0  0  0
    6.1830    0.5990    5.2099 H   0  0  0  0  0  0  0  0  0  0  0  0
    6.1494   -0.7955    6.3220 H   0  0  0  0  0  0  0  0  0  0  0  0
    3.7311    0.3212    4.7447 H   0  0  0  0  0  0  0  0  0  0  0  0
    3.6457   -1.0256    5.8996 H   0  0  0  0  0  0  0  0  0  0  0  0
    5.0589   -2.3182    4.2955 H   0  0  0  0  0  0  0  0  0  0  0  0
    4.7429   -1.8429    0.8084 H   0  0  0  0  0  0  0  0  0  0  0  0
    4.6392   -3.1049    2.0765 H   0  0  0  0  0  0  0  0  0  0  0  0
    6.7257   -0.4025    0.8810 H   0  0  0  0  0  0  0  0  0  0  0  0
    7.5175   -1.7346   -0.0059 H   0  0  0  0  0  0  0  0  0  0  0  0
    8.2453   -1.0718    1.4947 H   0  0  0  0  0  0  0  0  0  0  0  0
    8.9243   -3.0851    1.7618 H   0  0  0  0  0  0  0  0  0  0  0  0
    8.8529   -3.9416    4.5600 H   0  0  0  0  0  0  0  0  0  0  0  0
   10.2121   -4.0608    3.4435 H   0  0  0  0  0  0  0  0  0  0  0  0
    7.7507   -5.8676    3.5868 H   0  0  0  0  0  0  0  0  0  0  0  0
    8.4278   -5.7370    1.2486 H   0  0  0  0  0  0  0  0  0  0  0  0
    8.7468   -7.3357    1.9009 H   0  0  0  0  0  0  0  0  0  0  0  0
   10.8968   -5.1664    1.4046 H   0  0  0  0  0  0  0  0  0  0  0  0
   10.6345   -6.6420    0.4563 H   0  0  0  0  0  0  0  0  0  0  0  0
   11.2221   -6.7497    2.1316 H   0  0  0  0  0  0  0  0  0  0  0  0
    8.3022   -7.9170    4.2178 H   0  0  0  0  0  0  0  0  0  0  0  0
  1  2  1  0
  1 19  1  0
  1 20  1  0
  1 21  1  0
  2  3  1  0
  2 22  1  0
  2 23  1  0
  3  4  1  0
  3 24  1  0
  4  5  2  0
  4  6  1  0
  6  7  1  0
  6 25  1  0
  6 26  1  0
  7  8  1  0
  7  9  1  0
  8 27  1  0
  8 28  1  0
  8 29  1  0
  9 10  2  0
  9 11  1  0
 11 12  1  0
 11 30  1  0
 12 13  1  0
 12 31  1  0
 12 32  1  0
 13 14  1  0
 13 16  1  0
 13 33  1  1
 14 15  1  0
 14 34  1  0
 14 35  1  0
 15 36  1  0
 15 37  1  0
 15 38  1  0
 16 17  2  0
 16 18  1  0
 18 39  1  0
M  END

