
     RDKit          3D

 79 83  0  0  0  0  0  0  0  0999 V2000
    2.4516   -7.0603    2.1615 C   0  0  0  0  0  0  0  0  0  0  0  0
    1.3656   -6.1609    2.6966 C   0  0  0  0  0  0  0  0  0  0  0  0
    0.8785   -6.2790    4.0058 C   0  0  0  0  0  0  0  0  0  0  0  0
   -0.1086   -5.4199    4.4903 C   0  0  0  0  0  0  0  0  0  0  0  0
   -0.6594   -4.4004    3.6982 C   0  0  0  0  0  0  0  0  0  0  0  0
   -1.7683   -3.5073    4.2432 C   0  0  1  0  0  0  0  0  0  0  0  0
   -3.0644   -4.3086    4.4668 C   0  0  0  0  0  0  0  0  0  0  0  0
   -1.3383   -2.7540    5.5131 C   0  0  0  0  0  0  0  0  0  0  0  0
   -0.1585   -4.2881    2.3862 C   0  0  0  0  0  0  0  0  0  0  0  0
   -0.7012   -3.2918    1.4901 N   0  0  0  0  0  0  0  0  0  0  0  0
   -1.8824   -3.5794    0.7951 C   0  0  0  0  0  0  0  0  0  0  0  0
   -2.4482   -4.6430    0.8293 O   0  0  0  0  0  0  0  0  0  0  0  0
   -2.3772   -2.3768    0.0030 C   0  0  0  0  0  0  0  0  0  0  0  0
   -1.2882   -0.9726    0.3936 S   0  0  0  0  0  0  0  0  0  0  0  0
   -0.2058   -1.9846    1.3956 C   0  0  0  0  0  0  0  0  0  0  0  0
    0.8131   -1.4434    1.9150 N   0  0  0  0  0  0  0  0  0  0  0  0
    1.9990   -2.0013    2.4101 C   0  0  0  0  0  0  0  0  0  0  0  0
    2.6508   -2.8475    1.8196 O   0  0  0  0  0  0  0  0  0  0  0  0
    2.4027   -1.3990    3.5735 N   0  0  0  0  0  0  0  0  0  0  0  0
    3.7294   -1.5858    4.1226 C   0  0  0  0  0  0  0  0  0  0  0  0
    3.7563   -1.8773    5.6492 C   0  0  1  0  0  0  0  0  0  0  0  0
    3.0906   -3.2384    5.9082 C   0  0  0  0  0  0  0  0  0  0  0  0
    5.2371   -1.9655    6.0830 C   0  0  0  0  0  0  0  0  0  0  0  0
    3.0676   -0.7269    6.4081 C   0  0  0  0  0  0  0  0  0  0  0  0
    1.9673   -0.9246    7.2587 C   0  0  0  0  0  0  0  0  0  0  0  0
    1.3658    0.1383    7.9373 C   0  0  0  0  0  0  0  0  0  0  0  0
    1.8445    1.4466    7.7849 C   0  0  0  0  0  0  0  0  0  0  0  0
    1.2048    2.5584    8.5020 C   0  0  0  0  0  0  0  0  0  0  0  0
    0.1396    2.3887    9.3498 N   0  0  0  0  0  0  0  0  0  0  0  0
   -0.1123    3.6036    9.7717 C   0  0  0  0  0  0  0  0  0  0  0  0
    0.7617    4.4911    9.2131 N   0  0  0  0  0  0  0  0  0  0  0  0
    0.8456    5.8976    9.3696 C   0  0  0  0  0  0  0  0  0  0  0  0
    0.2375    6.5294   10.4640 C   0  0  0  0  0  0  0  0  0  0  0  0
    0.3092    7.9161   10.5943 C   0  0  0  0  0  0  0  0  0  0  0  0
    1.0017    8.6613    9.6400 C   0  0  0  0  0  0  0  0  0  0  0  0
    1.0270   10.0528    9.7430 O   0  0  0  0  0  0  0  0  0  0  0  0
    2.0426   10.6294   10.4272 C   0  0  1  0  0  0  0  0  0  0  0  0
    2.0791   10.2323   11.7084 F   0  0  0  0  0  0  0  0  0  0  0  0
    3.2395   10.3448    9.8931 F   0  0  0  0  0  0  0  0  0  0  0  0
    1.8624   11.9412   10.3936 F   0  0  0  0  0  0  0  0  0  0  0  0
    1.6208    8.0397    8.5549 C   0  0  0  0  0  0  0  0  0  0  0  0
    1.5412    6.6551    8.4166 C   0  0  0  0  0  0  0  0  0  0  0  0
    1.6029    3.8206    8.3942 N   0  0  0  0  0  0  0  0  0  0  0  0
    2.9428    1.6620    6.9346 C   0  0  0  0  0  0  0  0  0  0  0  0
    3.5363    0.5956    6.2649 C   0  0  0  0  0  0  0  0  0  0  0  0
    0.8227   -5.1508    1.8956 C   0  0  0  0  0  0  0  0  0  0  0  0
    2.7188   -7.8467    2.8828 H   0  0  0  0  0  0  0  0  0  0  0  0
    3.3621   -6.4796    1.9375 H   0  0  0  0  0  0  0  0  0  0  0  0
    2.1425   -7.5507    1.2239 H   0  0  0  0  0  0  0  0  0  0  0  0
    1.2779   -7.0593    4.6602 H   0  0  0  0  0  0  0  0  0  0  0  0
   -0.4675   -5.5530    5.5140 H   0  0  0  0  0  0  0  0  0  0  0  0
   -1.9890   -2.7431    3.4820 H   0  0  0  0  0  0  0  0  0  0  0  0
   -2.9285   -5.0796    5.2429 H   0  0  0  0  0  0  0  0  0  0  0  0
   -3.3802   -4.8134    3.5413 H   0  0  0  0  0  0  0  0  0  0  0  0
   -3.8799   -3.6438    4.7964 H   0  0  0  0  0  0  0  0  0  0  0  0
   -1.1320   -3.4456    6.3464 H   0  0  0  0  0  0  0  0  0  0  0  0
   -2.1352   -2.0686    5.8442 H   0  0  0  0  0  0  0  0  0  0  0  0
   -0.4297   -2.1583    5.3361 H   0  0  0  0  0  0  0  0  0  0  0  0
   -3.4224   -2.1768    0.2809 H   0  0  0  0  0  0  0  0  0  0  0  0
   -2.3487   -2.6176   -1.0710 H   0  0  0  0  0  0  0  0  0  0  0  0
    1.8600   -0.5995    3.8809 H   0  0  0  0  0  0  0  0  0  0  0  0
    4.3565   -0.7005    3.9087 H   0  0  0  0  0  0  0  0  0  0  0  0
    4.1773   -2.4294    3.5789 H   0  0  0  0  0  0  0  0  0  0  0  0
    3.6269   -4.0254    5.3562 H   0  0  0  0  0  0  0  0  0  0  0  0
    2.0455   -3.2584    5.5685 H   0  0  0  0  0  0  0  0  0  0  0  0
    3.1157   -3.5050    6.9762 H   0  0  0  0  0  0  0  0  0  0  0  0
    5.7508   -2.7731    5.5361 H   0  0  0  0  0  0  0  0  0  0  0  0
    5.3151   -2.1800    7.1601 H   0  0  0  0  0  0  0  0  0  0  0  0
    5.7832   -1.0299    5.8880 H   0  0  0  0  0  0  0  0  0  0  0  0
    1.5605   -1.9252    7.4040 H   0  0  0  0  0  0  0  0  0  0  0  0
    0.5129   -0.0379    8.5952 H   0  0  0  0  0  0  0  0  0  0  0  0
   -0.9095    3.8975   10.4520 H   0  0  0  0  0  0  0  0  0  0  0  0
   -0.2807    5.9481   11.2278 H   0  0  0  0  0  0  0  0  0  0  0  0
   -0.1612    8.4236   11.4375 H   0  0  0  0  0  0  0  0  0  0  0  0
    2.1540    8.6449    7.8202 H   0  0  0  0  0  0  0  0  0  0  0  0
    2.0126    6.1444    7.5777 H   0  0  0  0  0  0  0  0  0  0  0  0
    3.3288    2.6751    6.8068 H   0  0  0  0  0  0  0  0  0  0  0  0
    4.3904    0.8030    5.6159 H   0  0  0  0  0  0  0  0  0  0  0  0
    1.1835   -5.0050    0.8766 H   0  0  0  0  0  0  0  0  0  0  0  0
  1  2  1  0
  1 47  1  0
  1 48  1  0
  1 49  1  0
  2  3  2  0
  2 46  1  0
  3  4  1  0
  3 50  1  0
  4  5  2  0
  4 51  1  0
  5  6  1  0
  5  9  1  0
  6  7  1  0
  6  8  1  0
  6 52  1  6
  7 53  1  0
  7 54  1  0
  7 55  1  0
  8 56  1  0
  8 57  1  0
  8 58  1  0
  9 10  1  0
  9 46  2  0
 10 11  1  0
 10 15  1  0
 11 12  2  0
 11 13  1  0
 13 14  1  0
 13 59  1  0
 13 60  1  0
 14 15  2  0
 15 16  1  0
 16 17  2  0
 17 18  1  0
 17 19  1  0
 19 20  1  0
 19 61  1  0
 21 20  1  6
 20 62  1  0
 20 63  1  0
 21 22  1  0
 21 23  1  0
 21 24  1  0
 22 64  1  0
 22 65  1  0
 22 66  1  0
 23 67  1  0
 23 68  1  0
 23 69  1  0
 24 25  2  0
 24 45  1  0
 25 26  1  0
 25 70  1  0
 26 27  2  0
 26 71  1  0
 27 28  1  0
 27 44  1  0
 28 29  1  0
 28 43  2  0
 29 30  2  0
 30 31  1  0
 30 72  1  0
 31 32  1  0
 31 43  1  0
 32 33  2  0
 32 42  1  0
 33 34  1  0
 33 73  1  0
 34 35  2  0
 34 74  1  0
 35 36  1  0
 35 41  1  0
 36 37  1  0
 37 38  1  1
 37 39  1  0
 37 40  1  0
 41 42  2  0
 41 75  1  0
 42 76  1  0
 44 45  2  0
 44 77  1  0
 45 78  1  0
 46 79  1  0
M  CHG  2  14   1  18  -1
M  END

