
     RDKit          3D

 45 48  0  0  0  0  0  0  0  0999 V2000
    2.6693    1.2211   -0.0812 O   0  0  0  0  0  0  0  0  0  0  0  0
    2.3318    0.0420   -0.1057 C   0  0  0  0  0  0  0  0  0  0  0  0
    1.2988   -0.4357   -0.8502 N   0  0  0  0  0  0  0  0  0  0  0  0
    0.4820    0.4209   -1.6830 C   0  0  0  0  0  0  0  0  0  0  0  0
    0.5711    0.1046   -3.1662 C   0  0  0  0  0  0  0  0  0  0  0  0
   -0.5889   -0.0327   -3.9415 C   0  0  0  0  0  0  0  0  0  0  0  0
   -0.5037   -0.2934   -5.3135 C   0  0  0  0  0  0  0  0  0  0  0  0
    0.7399   -0.4278   -5.9335 C   0  0  0  0  0  0  0  0  0  0  0  0
    1.8857   -0.2928   -5.1500 C   0  0  0  0  0  0  0  0  0  0  0  0
    3.0890   -0.4184   -5.7330 F   0  0  0  0  0  0  0  0  0  0  0  0
    1.8229   -0.0299   -3.7859 C   0  0  0  0  0  0  0  0  0  0  0  0
    3.0670   -0.9854    0.7170 C   0  0  0  0  0  0  0  0  0  0  0  0
    4.1287   -0.5514    1.4828 C   0  0  0  0  0  0  0  0  0  0  0  0
    4.8893   -1.4208    2.2978 C   0  0  0  0  0  0  0  0  0  0  0  0
    4.5675   -2.7640    2.3273 C   0  0  0  0  0  0  0  0  0  0  0  0
    5.2716   -3.7755    3.1452 C   0  0  0  0  0  0  0  0  0  0  0  0
    4.5593   -4.8742    3.7164 C   0  0  0  0  0  0  0  0  0  0  0  0
    5.2093   -5.8165    4.4804 C   0  0  0  0  0  0  0  0  0  0  0  0
    6.6085   -5.7300    4.7237 C   0  0  0  0  0  0  0  0  0  0  0  0
    7.3096   -6.6884    5.5061 C   0  0  0  0  0  0  0  0  0  0  0  0
    8.6677   -6.5682    5.7158 C   0  0  0  0  0  0  0  0  0  0  0  0
    9.3875   -5.4835    5.1515 C   0  0  0  0  0  0  0  0  0  0  0  0
    8.7369   -4.5374    4.3884 C   0  0  0  0  0  0  0  0  0  0  0  0
    7.3348   -4.6300    4.1554 C   0  0  0  0  0  0  0  0  0  0  0  0
    6.6371   -3.6730    3.3731 C   0  0  0  0  0  0  0  0  0  0  0  0
    3.5154   -3.1843    1.5614 N   0  0  0  0  0  0  0  0  0  0  0  0
    3.2866   -4.1748    1.5244 H   0  0  0  0  0  0  0  0  0  0  0  0
    2.7047   -2.3964    0.7308 C   0  0  0  0  0  0  0  0  0  0  0  0
    1.7982   -2.9471    0.1027 O   0  0  0  0  0  0  0  0  0  0  0  0
    1.1203   -1.4420   -0.7959 H   0  0  0  0  0  0  0  0  0  0  0  0
    0.8257    1.4506   -1.4973 H   0  0  0  0  0  0  0  0  0  0  0  0
   -0.5735    0.3633   -1.3653 H   0  0  0  0  0  0  0  0  0  0  0  0
   -1.5690    0.0633   -3.4668 H   0  0  0  0  0  0  0  0  0  0  0  0
   -1.4160   -0.4000   -5.9058 H   0  0  0  0  0  0  0  0  0  0  0  0
    0.8382   -0.6361   -7.0005 H   0  0  0  0  0  0  0  0  0  0  0  0
    2.7498    0.0701   -3.2176 H   0  0  0  0  0  0  0  0  0  0  0  0
    4.3564    0.5170    1.4421 H   0  0  0  0  0  0  0  0  0  0  0  0
    5.6937   -1.0393    2.9246 H   0  0  0  0  0  0  0  0  0  0  0  0
    3.4782   -4.9527    3.5777 H   0  0  0  0  0  0  0  0  0  0  0  0
    4.6469   -6.6437    4.9215 H   0  0  0  0  0  0  0  0  0  0  0  0
    6.7540   -7.5244    5.9394 H   0  0  0  0  0  0  0  0  0  0  0  0
    9.1963   -7.3108    6.3185 H   0  0  0  0  0  0  0  0  0  0  0  0
   10.4632   -5.4013    5.3249 H   0  0  0  0  0  0  0  0  0  0  0  0
    9.2903   -3.7013    3.9526 H   0  0  0  0  0  0  0  0  0  0  0  0
    7.2042   -2.8557    2.9220 H   0  0  0  0  0  0  0  0  0  0  0  0
  1  2  2  0
  2  3  1  0
  2 12  1  0
  3  4  1  0
  3 30  1  0
  4  5  1  0
  4 31  1  0
  4 32  1  0
  5  6  2  0
  5 11  1  0
  6  7  1  0
  6 33  1  0
  7  8  2  0
  7 34  1  0
  8  9  1  0
  8 35  1  0
  9 10  1  0
  9 11  2  0
 11 36  1  0
 12 13  2  0
 12 28  1  0
 13 14  1  0
 13 37  1  0
 14 15  2  0
 14 38  1  0
 15 16  1  0
 15 26  1  0
 16 17  2  0
 16 25  1  0
 17 18  1  0
 17 39  1  0
 18 19  2  0
 18 40  1  0
 19 20  1  0
 19 24  1  0
 20 21  2  0
 20 41  1  0
 21 22  1  0
 21 42  1  0
 22 23  2  0
 22 43  1  0
 23 24  1  0
 23 44  1  0
 24 25  2  0
 25 45  1  0
 26 27  1  0
 26 28  1  0
 28 29  2  0
M  END

