
     RDKit          3D

 31 31  0  0  0  0  0  0  0  0999 V2000
    0.8331    0.5016   -0.4381 C   0  0  0  0  0  0  0  0  0  0  0  0
    2.2598    0.2344    0.0307 C   0  0  0  0  0  0  0  0  0  0  0  0
    3.1580    1.2906   -0.4096 N   0  0  0  0  0  0  0  0  0  0  0  0
    4.5628    1.1639   -0.0192 C   0  0  1  0  0  0  0  0  0  0  0  0
    4.8133    0.0908   -0.0441 H   0  0  0  0  0  0  0  0  0  0  0  0
    5.4244    1.8644   -1.0868 C   0  0  0  0  0  0  0  0  0  0  0  0
    6.9604    1.7597   -0.9401 C   0  0  0  0  0  0  0  0  0  0  0  0
    7.4761    0.3754   -0.6086 C   0  0  0  0  0  0  0  0  0  0  0  0
    7.4124   -0.2807    0.5611 C   0  0  0  0  0  0  0  0  0  0  0  0
    6.8506    0.1309    1.9019 C   0  0  0  0  0  0  0  0  0  0  0  0
    6.1745    1.5004    2.0583 C   0  0  0  0  0  0  0  0  0  0  0  0
    4.7751    1.6547    1.4371 C   0  0  1  0  0  0  0  0  0  0  0  0
    4.0809    1.0614    2.0569 H   0  0  0  0  0  0  0  0  0  0  0  0
    4.3146    2.9965    1.5845 O   0  0  0  0  0  0  0  0  0  0  0  0
    0.1588   -0.3199   -0.1487 H   0  0  0  0  0  0  0  0  0  0  0  0
    0.8015    0.6157   -1.5330 H   0  0  0  0  0  0  0  0  0  0  0  0
    0.4367    1.4296    0.0082 H   0  0  0  0  0  0  0  0  0  0  0  0
    2.6142   -0.7194   -0.4006 H   0  0  0  0  0  0  0  0  0  0  0  0
    2.2525    0.0825    1.1350 H   0  0  0  0  0  0  0  0  0  0  0  0
    2.8178    2.1963   -0.0827 H   0  0  0  0  0  0  0  0  0  0  0  0
    5.1399    2.9315   -1.1400 H   0  0  0  0  0  0  0  0  0  0  0  0
    5.1128    1.4343   -2.0514 H   0  0  0  0  0  0  0  0  0  0  0  0
    7.3191    2.4860   -0.1958 H   0  0  0  0  0  0  0  0  0  0  0  0
    7.4099    2.0830   -1.8925 H   0  0  0  0  0  0  0  0  0  0  0  0
    7.9368   -0.1689   -1.4417 H   0  0  0  0  0  0  0  0  0  0  0  0
    7.8408   -1.2915    0.5732 H   0  0  0  0  0  0  0  0  0  0  0  0
    7.6785    0.0718    2.6335 H   0  0  0  0  0  0  0  0  0  0  0  0
    6.1479   -0.6594    2.2329 H   0  0  0  0  0  0  0  0  0  0  0  0
    6.8401    2.2935    1.6833 H   0  0  0  0  0  0  0  0  0  0  0  0
    6.0600    1.7094    3.1347 H   0  0  0  0  0  0  0  0  0  0  0  0
    4.9492    3.5806    1.1472 H   0  0  0  0  0  0  0  0  0  0  0  0
  1  2  1  0
  1 15  1  0
  1 16  1  0
  1 17  1  0
  2  3  1  0
  2 18  1  0
  2 19  1  0
  3  4  1  0
  3 20  1  0
  4  5  1  1
  4  6  1  0
  4 12  1  0
  6  7  1  0
  6 21  1  0
  6 22  1  0
  7  8  1  0
  7 23  1  0
  7 24  1  0
  8  9  2  0
  8 25  1  0
  9 10  1  0
  9 26  1  0
 10 11  1  0
 10 27  1  0
 10 28  1  0
 11 12  1  0
 11 29  1  0
 11 30  1  0
 12 13  1  1
 12 14  1  0
 14 31  1  0
M  END

