
     RDKit          3D

 45 47  0  0  0  0  0  0  0  0999 V2000
    1.3432    0.4558    0.4910 C   0  0  0  0  0  0  0  0  0  0  0  0
    2.8133    0.2779    0.1963 C   0  0  0  0  0  0  0  0  0  0  0  0
    3.7216    1.3375    0.3343 C   0  0  0  0  0  0  0  0  0  0  0  0
    5.0807    1.1659    0.0484 C   0  0  0  0  0  0  0  0  0  0  0  0
    5.5583   -0.0709   -0.3775 C   0  0  0  0  0  0  0  0  0  0  0  0
    4.6725   -1.1534   -0.5040 C   0  0  0  0  0  0  0  0  0  0  0  0
    5.2497   -2.4568   -0.9803 C   0  0  0  0  0  0  0  0  0  0  0  0
    6.2970   -2.5369   -1.5745 O   0  0  0  0  0  0  0  0  0  0  0  0
    4.4759   -3.5860   -0.6435 N   0  0  0  0  0  0  0  0  0  0  0  0
    4.7299   -4.8856   -1.0300 C   0  0  0  0  0  0  0  0  0  0  0  0
    5.2946   -5.2472   -2.1478 N   0  0  0  0  0  0  0  0  0  0  0  0
    5.4156   -6.5905   -2.2588 N   0  0  0  0  0  0  0  0  0  0  0  0
    4.9422   -7.2462   -1.2479 C   0  0  0  0  0  0  0  0  0  0  0  0
    4.8786   -9.0576   -1.1949 S   0  0  1  0  0  0  0  0  0  0  0  0
    5.3921   -9.4185    0.1249 O   0  0  0  0  0  0  0  0  0  0  0  0
    3.5285   -9.4328   -1.6064 O   0  0  0  0  0  0  0  0  0  0  0  0
    5.9469   -9.5492   -2.3502 N   0  0  0  0  0  0  0  0  0  0  0  0
    5.5137   -9.6094   -3.7515 C   0  0  0  0  0  0  0  0  0  0  0  0
    6.0035  -10.8637   -4.4820 C   0  0  0  0  0  0  0  0  0  0  0  0
    7.5242  -10.9313   -4.6924 C   0  0  0  0  0  0  0  0  0  0  0  0
    8.3632  -11.4505   -3.5108 C   0  0  0  0  0  0  0  0  0  0  0  0
    8.0317  -10.8966   -2.1052 C   0  0  0  0  0  0  0  0  0  0  0  0
    7.3842   -9.5080   -2.0387 C   0  0  0  0  0  0  0  0  0  0  0  0
    4.2947   -6.2379    0.0254 S   0  0  0  0  0  0  0  0  0  0  0  0
    3.3101   -0.9654   -0.2263 C   0  0  0  0  0  0  0  0  0  0  0  0
    1.0867    1.5143    0.6419 H   0  0  0  0  0  0  0  0  0  0  0  0
    1.0498   -0.0906    1.4037 H   0  0  0  0  0  0  0  0  0  0  0  0
    0.7190    0.0698   -0.3311 H   0  0  0  0  0  0  0  0  0  0  0  0
    3.3576    2.3154    0.6618 H   0  0  0  0  0  0  0  0  0  0  0  0
    5.7683    2.0086    0.1550 H   0  0  0  0  0  0  0  0  0  0  0  0
    6.6111   -0.2245   -0.6204 H   0  0  0  0  0  0  0  0  0  0  0  0
    3.7602   -3.4538    0.0608 H   0  0  0  0  0  0  0  0  0  0  0  0
    5.8675   -8.7042   -4.2790 H   0  0  0  0  0  0  0  0  0  0  0  0
    4.4169   -9.5872   -3.7536 H   0  0  0  0  0  0  0  0  0  0  0  0
    5.5098  -10.8571   -5.4689 H   0  0  0  0  0  0  0  0  0  0  0  0
    5.6372  -11.7637   -3.9577 H   0  0  0  0  0  0  0  0  0  0  0  0
    7.8756   -9.9255   -4.9853 H   0  0  0  0  0  0  0  0  0  0  0  0
    7.7393  -11.5761   -5.5609 H   0  0  0  0  0  0  0  0  0  0  0  0
    9.4218  -11.2434   -3.7432 H   0  0  0  0  0  0  0  0  0  0  0  0
    8.2838  -12.5504   -3.4705 H   0  0  0  0  0  0  0  0  0  0  0  0
    8.9592  -10.8685   -1.5090 H   0  0  0  0  0  0  0  0  0  0  0  0
    7.3525  -11.5797   -1.5705 H   0  0  0  0  0  0  0  0  0  0  0  0
    7.8760   -8.7852   -2.7140 H   0  0  0  0  0  0  0  0  0  0  0  0
    7.4905   -9.1205   -1.0174 H   0  0  0  0  0  0  0  0  0  0  0  0
    2.5992   -1.7839   -0.3755 H   0  0  0  0  0  0  0  0  0  0  0  0
  1  2  1  0
  1 26  1  0
  1 27  1  0
  1 28  1  0
  2  3  2  0
  2 25  1  0
  3  4  1  0
  3 29  1  0
  4  5  2  0
  4 30  1  0
  5  6  1  0
  5 31  1  0
  6  7  1  0
  6 25  2  0
  7  8  2  0
  7  9  1  0
  9 10  1  0
  9 32  1  0
 10 11  2  0
 10 24  1  0
 11 12  1  0
 12 13  2  0
 14 13  1  1
 13 24  1  0
 14 15  2  0
 14 16  2  0
 14 17  1  0
 17 18  1  0
 17 23  1  0
 18 19  1  0
 18 33  1  0
 18 34  1  0
 19 20  1  0
 19 35  1  0
 19 36  1  0
 20 21  1  0
 20 37  1  0
 20 38  1  0
 21 22  1  0
 21 39  1  0
 21 40  1  0
 22 23  1  0
 22 41  1  0
 22 42  1  0
 23 43  1  0
 23 44  1  0
 25 45  1  0
M  END

