
     RDKit          3D

 40 40  0  0  0  0  0  0  0  0999 V2000
    3.2223    3.9402    0.1401 C   0  0  0  0  0  0  0  0  0  0  0  0
    3.3382    2.8729   -0.9513 C   0  0  0  0  0  0  0  0  0  0  0  0
    4.5302    1.9372   -0.7381 C   0  0  0  0  0  0  0  0  0  0  0  0
    4.6937    0.5959   -1.9786 S   0  0  0  0  0  0  0  0  0  0  0  0
    5.4461    1.4896   -3.3935 C   0  0  0  0  0  0  0  0  0  0  0  0
    6.9720    1.7465   -3.3095 C   0  0  1  0  0  0  0  0  0  0  0  0
    7.7412    0.4204   -3.3981 C   0  0  0  0  0  0  0  0  0  0  0  0
    9.1919    0.4120   -2.9571 C   0  0  0  0  0  0  0  0  0  0  0  0
    9.9928    1.5571   -2.8948 C   0  0  0  0  0  0  0  0  0  0  0  0
   11.3239    1.5023   -2.4607 C   0  0  0  0  0  0  0  0  0  0  0  0
   11.8767    0.2801   -2.0864 C   0  0  0  0  0  0  0  0  0  0  0  0
   11.1067   -0.8875   -2.1478 C   0  0  0  0  0  0  0  0  0  0  0  0
    9.7763   -0.8246   -2.5837 C   0  0  0  0  0  0  0  0  0  0  0  0
    8.9647   -1.9160   -2.6814 O   0  0  0  0  0  0  0  0  0  0  0  0
    9.4454   -3.1792   -2.2893 C   0  0  0  0  0  0  0  0  0  0  0  0
    7.4345    2.6872   -4.3281 N   0  0  0  0  0  0  0  0  0  0  0  0
    6.9959    4.0647   -4.2252 C   0  0  0  0  0  0  0  0  0  0  0  0
    2.3557    4.5976   -0.0343 H   0  0  0  0  0  0  0  0  0  0  0  0
    4.1212    4.5782    0.1789 H   0  0  0  0  0  0  0  0  0  0  0  0
    3.0984    3.4842    1.1367 H   0  0  0  0  0  0  0  0  0  0  0  0
    3.4244    3.3616   -1.9375 H   0  0  0  0  0  0  0  0  0  0  0  0
    2.4164    2.2683   -0.9926 H   0  0  0  0  0  0  0  0  0  0  0  0
    4.4352    1.4096    0.2253 H   0  0  0  0  0  0  0  0  0  0  0  0
    5.4759    2.5024   -0.6891 H   0  0  0  0  0  0  0  0  0  0  0  0
    4.9010    2.4344   -3.5358 H   0  0  0  0  0  0  0  0  0  0  0  0
    5.2254    0.8620   -4.2735 H   0  0  0  0  0  0  0  0  0  0  0  0
    7.1877    2.2104   -2.3296 H   0  0  0  0  0  0  0  0  0  0  0  0
    7.6702    0.0464   -4.4394 H   0  0  0  0  0  0  0  0  0  0  0  0
    7.2024   -0.3243   -2.7942 H   0  0  0  0  0  0  0  0  0  0  0  0
    9.5606    2.5036   -3.2211 H   0  0  0  0  0  0  0  0  0  0  0  0
   11.9231    2.4154   -2.4229 H   0  0  0  0  0  0  0  0  0  0  0  0
   12.9141    0.2208   -1.7465 H   0  0  0  0  0  0  0  0  0  0  0  0
   11.5515   -1.8390   -1.8558 H   0  0  0  0  0  0  0  0  0  0  0  0
    9.7457   -3.1952   -1.2256 H   0  0  0  0  0  0  0  0  0  0  0  0
   10.3060   -3.5029   -2.9030 H   0  0  0  0  0  0  0  0  0  0  0  0
    8.6194   -3.8887   -2.4353 H   0  0  0  0  0  0  0  0  0  0  0  0
    7.2801    2.3110   -5.2626 H   0  0  0  0  0  0  0  0  0  0  0  0
    7.3438    4.4950   -3.2704 H   0  0  0  0  0  0  0  0  0  0  0  0
    5.8978    4.2309   -4.2765 H   0  0  0  0  0  0  0  0  0  0  0  0
    7.4538    4.6578   -5.0327 H   0  0  0  0  0  0  0  0  0  0  0  0
  1  2  1  0
  1 18  1  0
  1 19  1  0
  1 20  1  0
  2  3  1  0
  2 21  1  0
  2 22  1  0
  3  4  1  0
  3 23  1  0
  3 24  1  0
  4  5  1  0
  5  6  1  0
  5 25  1  0
  5 26  1  0
  6  7  1  0
  6 16  1  0
  6 27  1  1
  7  8  1  0
  7 28  1  0
  7 29  1  0
  8  9  2  0
  8 13  1  0
  9 10  1  0
  9 30  1  0
 10 11  2  0
 10 31  1  0
 11 12  1  0
 11 32  1  0
 12 13  2  0
 12 33  1  0
 13 14  1  0
 14 15  1  0
 15 34  1  0
 15 35  1  0
 15 36  1  0
 16 17  1  0
 16 37  1  0
 17 38  1  0
 17 39  1  0
 17 40  1  0
M  END

