
     RDKit          3D

 58 60  0  0  0  0  0  0  0  0999 V2000
    5.2361   -8.5219    3.1667 C   0  0  0  0  0  0  0  0  0  0  0  0
    4.1453   -9.5279    2.8886 C   0  0  0  0  0  0  0  0  0  0  0  0
    2.7943   -9.1348    2.8896 C   0  0  0  0  0  0  0  0  0  0  0  0
    1.7794  -10.0579    2.6323 C   0  0  0  0  0  0  0  0  0  0  0  0
    2.0875  -11.3931    2.3672 C   0  0  0  0  0  0  0  0  0  0  0  0
    3.4301  -11.8068    2.3607 C   0  0  0  0  0  0  0  0  0  0  0  0
    3.7828  -13.1987    2.0846 C   0  0  0  0  0  0  0  0  0  0  0  0
    4.9646  -13.7450    1.9956 N   0  0  0  0  0  0  0  0  0  0  0  0
    4.7365  -15.0906    1.7321 C   0  0  0  0  0  0  0  0  0  0  0  0
    5.8398  -16.0534    1.5107 C   0  0  0  0  0  0  0  0  0  0  0  0
    6.2111  -16.3122   -0.3227 S   0  0  0  0  0  0  0  0  0  0  0  0
    4.8602  -16.5179   -0.9707 O   0  0  0  0  0  0  0  0  0  0  0  0
    6.6907  -14.5643   -0.7532 C   0  0  0  0  0  0  0  0  0  0  0  0
    8.0104  -14.1125   -0.1249 C   0  0  0  0  0  0  0  0  0  0  0  0
    9.0751  -14.4140   -0.6434 O   0  0  0  0  0  0  0  0  0  0  0  0
    7.8641  -13.3959    1.0232 N   0  0  0  0  0  0  0  0  0  0  0  0
    8.9287  -12.7949    1.8344 C   0  0  2  0  0  0  0  0  0  0  0  0
    8.4129  -11.9965    2.3987 H   0  0  0  0  0  0  0  0  0  0  0  0
   10.0256  -12.0999    1.0108 C   0  0  0  0  0  0  0  0  0  0  0  0
   10.9782  -11.3279    1.9320 C   0  0  0  0  0  0  0  0  0  0  0  0
   11.5552  -12.2185    3.0387 C   0  0  0  0  0  0  0  0  0  0  0  0
   10.4509  -12.9279    3.8430 C   0  0  2  0  0  0  0  0  0  0  0  0
    9.8203  -12.1322    4.2857 H   0  0  0  0  0  0  0  0  0  0  0  0
   11.0231  -13.7419    5.0079 C   0  0  0  0  0  0  0  0  0  0  0  0
    9.5102  -13.7502    2.9165 C   0  0  2  0  0  0  0  0  0  0  0  0
    8.6520  -14.0702    3.5374 H   0  0  0  0  0  0  0  0  0  0  0  0
   10.1566  -15.0221    2.3496 C   0  0  0  0  0  0  0  0  0  0  0  0
    3.3840  -15.2977    1.6406 C   0  0  0  0  0  0  0  0  0  0  0  0
    2.5218  -16.4701    1.3528 C   0  0  0  0  0  0  0  0  0  0  0  0
    2.7836  -14.0931    1.8826 O   0  0  0  0  0  0  0  0  0  0  0  0
    4.4449  -10.8675    2.6238 C   0  0  0  0  0  0  0  0  0  0  0  0
    5.0961   -8.0424    4.1497 H   0  0  0  0  0  0  0  0  0  0  0  0
    5.2365   -7.7163    2.4136 H   0  0  0  0  0  0  0  0  0  0  0  0
    6.2313   -8.9897    3.1583 H   0  0  0  0  0  0  0  0  0  0  0  0
    2.5379   -8.0916    3.0956 H   0  0  0  0  0  0  0  0  0  0  0  0
    0.7356   -9.7343    2.6373 H   0  0  0  0  0  0  0  0  0  0  0  0
    1.2960  -12.1159    2.1642 H   0  0  0  0  0  0  0  0  0  0  0  0
    5.5798  -17.0690    1.8409 H   0  0  0  0  0  0  0  0  0  0  0  0
    6.7730  -15.7452    2.0012 H   0  0  0  0  0  0  0  0  0  0  0  0
    5.8207  -13.9383   -0.5127 H   0  0  0  0  0  0  0  0  0  0  0  0
    6.8231  -14.6178   -1.8419 H   0  0  0  0  0  0  0  0  0  0  0  0
    6.9128  -13.2910    1.3853 H   0  0  0  0  0  0  0  0  0  0  0  0
    9.5513  -11.4154    0.2880 H   0  0  0  0  0  0  0  0  0  0  0  0
   10.5739  -12.8433    0.4158 H   0  0  0  0  0  0  0  0  0  0  0  0
   10.4356  -10.4834    2.3971 H   0  0  0  0  0  0  0  0  0  0  0  0
   11.7921  -10.8799    1.3379 H   0  0  0  0  0  0  0  0  0  0  0  0
   12.1785  -11.6168    3.7225 H   0  0  0  0  0  0  0  0  0  0  0  0
   12.2304  -12.9717    2.5946 H   0  0  0  0  0  0  0  0  0  0  0  0
   11.5471  -13.0851    5.7212 H   0  0  0  0  0  0  0  0  0  0  0  0
   11.7499  -14.4957    4.6649 H   0  0  0  0  0  0  0  0  0  0  0  0
   10.2288  -14.2697    5.5616 H   0  0  0  0  0  0  0  0  0  0  0  0
   10.4581  -15.7009    3.1620 H   0  0  0  0  0  0  0  0  0  0  0  0
   11.0467  -14.8107    1.7393 H   0  0  0  0  0  0  0  0  0  0  0  0
    9.4594  -15.5714    1.7022 H   0  0  0  0  0  0  0  0  0  0  0  0
    3.1285  -17.2772    0.9246 H   0  0  0  0  0  0  0  0  0  0  0  0
    1.7578  -16.2050    0.6056 H   0  0  0  0  0  0  0  0  0  0  0  0
    2.0001  -16.8293    2.2568 H   0  0  0  0  0  0  0  0  0  0  0  0
    5.4843  -11.2018    2.6210 H   0  0  0  0  0  0  0  0  0  0  0  0
  1  2  1  0
  1 32  1  0
  1 33  1  0
  1 34  1  0
  2  3  2  0
  2 31  1  0
  3  4  1  0
  3 35  1  0
  4  5  2  0
  4 36  1  0
  5  6  1  0
  5 37  1  0
  6  7  1  0
  6 31  2  0
  7  8  2  0
  7 30  1  0
  8  9  1  0
  9 10  1  0
  9 28  2  0
 10 11  1  0
 10 38  1  0
 10 39  1  0
 11 12  1  6
 11 13  1  0
 13 14  1  0
 13 40  1  0
 13 41  1  0
 14 15  2  0
 14 16  1  0
 16 17  1  0
 16 42  1  0
 17 18  1  1
 17 19  1  0
 17 25  1  0
 19 20  1  0
 19 43  1  0
 19 44  1  0
 20 21  1  0
 20 45  1  0
 20 46  1  0
 21 22  1  0
 21 47  1  0
 21 48  1  0
 22 23  1  1
 22 24  1  0
 22 25  1  0
 24 49  1  0
 24 50  1  0
 24 51  1  0
 25 26  1  1
 25 27  1  0
 27 52  1  0
 27 53  1  0
 27 54  1  0
 28 29  1  0
 28 30  1  0
 29 55  1  0
 29 56  1  0
 29 57  1  0
 31 58  1  0
M  CHG  2  11   1  12  -1
M  END

