
     RDKit          3D

 39 40  0  0  0  0  0  0  0  0999 V2000
    3.4527   -0.4913    2.4411 C   0  0  0  0  0  0  0  0  0  0  0  0
    3.6108   -0.1159    0.9872 C   0  0  0  0  0  0  0  0  0  0  0  0
    4.1228    1.1383    0.6315 C   0  0  0  0  0  0  0  0  0  0  0  0
    4.2631    1.4898   -0.7114 C   0  0  0  0  0  0  0  0  0  0  0  0
    3.8729    0.5571   -1.6715 C   0  0  0  0  0  0  0  0  0  0  0  0
    3.3903   -0.6464   -1.3573 N   0  0  0  0  0  0  0  0  0  0  0  0
    3.2611   -0.9971   -0.0673 C   0  0  0  0  0  0  0  0  0  0  0  0
    2.6851   -2.3714    0.1887 C   0  0  0  0  0  0  0  0  0  0  0  0
    1.1578   -2.4685   -0.1107 C   0  0  1  0  0  0  0  0  0  0  0  0
    0.8239   -2.3257   -1.5250 N   0  0  0  0  0  0  0  0  0  0  0  0
    0.5506   -3.7807    0.4099 C   0  0  0  0  0  0  0  0  0  0  0  0
    0.5166   -3.9386    1.9316 C   0  0  0  0  0  0  0  0  0  0  0  0
   -0.2510   -5.1699    2.4028 C   0  0  1  0  0  0  0  0  0  0  0  0
    0.3530   -6.5335    2.0398 C   0  0  0  0  0  0  0  0  0  0  0  0
   -0.1975   -7.4289    3.1556 C   0  0  0  0  0  0  0  0  0  0  0  0
   -0.1854   -6.4760    4.3594 C   0  0  0  0  0  0  0  0  0  0  0  0
   -0.3061   -5.1599    3.8321 O   0  0  0  0  0  0  0  0  0  0  0  0
    3.7431    0.3444    3.0947 H   0  0  0  0  0  0  0  0  0  0  0  0
    4.0797   -1.3576    2.7108 H   0  0  0  0  0  0  0  0  0  0  0  0
    2.4131   -0.7612    2.6871 H   0  0  0  0  0  0  0  0  0  0  0  0
    4.4115    1.8435    1.4167 H   0  0  0  0  0  0  0  0  0  0  0  0
    4.6623    2.4630   -1.0058 H   0  0  0  0  0  0  0  0  0  0  0  0
    3.9540    0.7886   -2.7403 H   0  0  0  0  0  0  0  0  0  0  0  0
    2.8798   -2.6756    1.2259 H   0  0  0  0  0  0  0  0  0  0  0  0
    3.2008   -3.0941   -0.4666 H   0  0  0  0  0  0  0  0  0  0  0  0
    0.6627   -1.6375    0.4272 H   0  0  0  0  0  0  0  0  0  0  0  0
    1.1747   -3.1441   -2.0291 H   0  0  0  0  0  0  0  0  0  0  0  0
    1.3505   -1.5413   -1.9153 H   0  0  0  0  0  0  0  0  0  0  0  0
    1.0987   -4.6273   -0.0461 H   0  0  0  0  0  0  0  0  0  0  0  0
   -0.4768   -3.8303    0.0106 H   0  0  0  0  0  0  0  0  0  0  0  0
    0.0391   -3.0540    2.3875 H   0  0  0  0  0  0  0  0  0  0  0  0
    1.5337   -3.9957    2.3563 H   0  0  0  0  0  0  0  0  0  0  0  0
   -1.2862   -5.1158    2.0024 H   0  0  0  0  0  0  0  0  0  0  0  0
    1.4548   -6.4813    2.0922 H   0  0  0  0  0  0  0  0  0  0  0  0
    0.0772   -6.8724    1.0302 H   0  0  0  0  0  0  0  0  0  0  0  0
    0.3957   -8.3404    3.3241 H   0  0  0  0  0  0  0  0  0  0  0  0
   -1.2286   -7.7396    2.9191 H   0  0  0  0  0  0  0  0  0  0  0  0
    0.7614   -6.5593    4.9276 H   0  0  0  0  0  0  0  0  0  0  0  0
   -1.0124   -6.6711    5.0647 H   0  0  0  0  0  0  0  0  0  0  0  0
  1  2  1  0
  1 18  1  0
  1 19  1  0
  1 20  1  0
  2  3  2  0
  2  7  1  0
  3  4  1  0
  3 21  1  0
  4  5  2  0
  4 22  1  0
  5  6  1  0
  5 23  1  0
  6  7  2  0
  7  8  1  0
  8  9  1  0
  8 24  1  0
  8 25  1  0
  9 10  1  0
  9 11  1  0
  9 26  1  1
 10 27  1  0
 10 28  1  0
 11 12  1  0
 11 29  1  0
 11 30  1  0
 12 13  1  0
 12 31  1  0
 12 32  1  0
 13 14  1  0
 13 17  1  0
 13 33  1  6
 14 15  1  0
 14 34  1  0
 14 35  1  0
 15 16  1  0
 15 36  1  0
 15 37  1  0
 16 17  1  0
 16 38  1  0
 16 39  1  0
M  END

