
     RDKit          3D

 66 71  0  0  0  0  0  0  0  0999 V2000
    1.2305   -0.8795    0.8927 C   0  0  0  0  0  0  0  0  0  0  0  0
    2.5077   -0.2117    1.0518 N   0  0  0  0  0  0  0  0  0  0  0  0
    2.7758    1.1329    1.0695 C   0  0  0  0  0  0  0  0  0  0  0  0
    1.9509    2.2388    0.9465 C   0  0  0  0  0  0  0  0  0  0  0  0
    0.5814    2.5036    0.7610 C   0  0  0  0  0  0  0  0  0  0  0  0
   -0.7665    1.9176    0.5861 C   0  0  0  0  0  0  0  0  0  0  0  0
   -1.2693    0.7982    0.5297 O   0  0  0  0  0  0  0  0  0  0  0  0
   -1.3395    3.2708    0.4963 C   0  0  0  0  0  0  0  0  0  0  0  0
   -2.6665    3.6622    0.3172 C   0  0  0  0  0  0  0  0  0  0  0  0
   -3.0902    4.9822    0.2482 C   0  0  0  0  0  0  0  0  0  0  0  0
   -2.2549    6.0282    0.3465 O   0  0  0  0  0  0  0  0  0  0  0  0
   -2.9678    7.2030    0.2447 C   0  0  0  0  0  0  0  0  0  0  0  0
   -2.2076    8.4393    0.3327 C   0  0  0  0  0  0  0  0  0  0  0  0
   -0.8117    8.3838    0.5199 C   0  0  0  0  0  0  0  0  0  0  0  0
   -0.0744    9.5626    0.6052 C   0  0  0  0  0  0  0  0  0  0  0  0
   -0.6859   10.8276    0.5098 C   0  0  0  0  0  0  0  0  0  0  0  0
    0.1107   12.0787    0.6006 C   0  0  0  0  0  0  0  0  0  0  0  0
    1.4103   12.1513    0.0625 C   0  0  0  0  0  0  0  0  0  0  0  0
    2.1592   13.3265    0.1466 C   0  0  0  0  0  0  0  0  0  0  0  0
    1.6278   14.4585    0.7721 C   0  0  0  0  0  0  0  0  0  0  0  0
    0.3396   14.4031    1.3124 C   0  0  0  0  0  0  0  0  0  0  0  0
   -0.4095   13.2280    1.2271 C   0  0  0  0  0  0  0  0  0  0  0  0
   -2.0832   10.8660    0.3229 C   0  0  0  0  0  0  0  0  0  0  0  0
   -2.8318    9.6974    0.2351 C   0  0  0  0  0  0  0  0  0  0  0  0
   -4.2761    6.8713    0.0786 C   0  0  0  0  0  0  0  0  0  0  0  0
   -4.3524    5.4777    0.0794 N   0  0  0  0  0  0  0  0  0  0  0  0
   -5.5448    4.6681   -0.0642 C   0  0  0  0  0  0  0  0  0  0  0  0
    0.0097    3.8655    0.6709 C   0  0  0  0  0  0  0  0  0  0  0  0
    0.5060    4.9818    0.7264 O   0  0  0  0  0  0  0  0  0  0  0  0
    4.2995    1.3229    1.2681 C   0  0  1  0  0  0  0  0  0  0  0  0
    4.9276    2.0537    0.0610 C   0  0  0  0  0  0  0  0  0  0  0  0
    4.5965    2.0903    2.5751 C   0  0  0  0  0  0  0  0  0  0  0  0
    4.7849   -0.1120    1.3527 C   0  0  0  0  0  0  0  0  0  0  0  0
    6.0561   -0.6430    1.5291 C   0  0  0  0  0  0  0  0  0  0  0  0
    6.2142   -2.0390    1.5700 C   0  0  0  0  0  0  0  0  0  0  0  0
    5.1039   -2.8782    1.4347 C   0  0  0  0  0  0  0  0  0  0  0  0
    3.8153   -2.3548    1.2561 C   0  0  0  0  0  0  0  0  0  0  0  0
    3.6808   -0.9648    1.2182 C   0  0  0  0  0  0  0  0  0  0  0  0
    0.3930   -0.1807    0.7670 H   0  0  0  0  0  0  0  0  0  0  0  0
    1.0257   -1.5066    1.7770 H   0  0  0  0  0  0  0  0  0  0  0  0
    1.2635   -1.5387    0.0088 H   0  0  0  0  0  0  0  0  0  0  0  0
    2.5039    3.1836    1.0091 H   0  0  0  0  0  0  0  0  0  0  0  0
   -3.4178    2.8741    0.2264 H   0  0  0  0  0  0  0  0  0  0  0  0
   -0.3156    7.4122    0.6044 H   0  0  0  0  0  0  0  0  0  0  0  0
    1.0023    9.4959    0.7750 H   0  0  0  0  0  0  0  0  0  0  0  0
    1.8302   11.2831   -0.4504 H   0  0  0  0  0  0  0  0  0  0  0  0
    3.1623   13.3600   -0.2865 H   0  0  0  0  0  0  0  0  0  0  0  0
    2.2145   15.3782    0.8385 H   0  0  0  0  0  0  0  0  0  0  0  0
   -0.0830   15.2786    1.8123 H   0  0  0  0  0  0  0  0  0  0  0  0
   -1.4043   13.1927    1.6773 H   0  0  0  0  0  0  0  0  0  0  0  0
   -2.5874   11.8291    0.2187 H   0  0  0  0  0  0  0  0  0  0  0  0
   -3.9116    9.7660    0.0792 H   0  0  0  0  0  0  0  0  0  0  0  0
   -5.1572    7.4942   -0.0401 H   0  0  0  0  0  0  0  0  0  0  0  0
   -6.4128    5.3271   -0.1918 H   0  0  0  0  0  0  0  0  0  0  0  0
   -5.7007    4.0416    0.8287 H   0  0  0  0  0  0  0  0  0  0  0  0
   -5.4647    4.0101   -0.9442 H   0  0  0  0  0  0  0  0  0  0  0  0
    4.5335    3.0772   -0.0289 H   0  0  0  0  0  0  0  0  0  0  0  0
    4.7190    1.5206   -0.8787 H   0  0  0  0  0  0  0  0  0  0  0  0
    6.0207    2.1166    0.1838 H   0  0  0  0  0  0  0  0  0  0  0  0
    4.1970    3.1147    2.5305 H   0  0  0  0  0  0  0  0  0  0  0  0
    5.6843    2.1533    2.7379 H   0  0  0  0  0  0  0  0  0  0  0  0
    4.1493    1.5840    3.4436 H   0  0  0  0  0  0  0  0  0  0  0  0
    6.9260    0.0109    1.6354 H   0  0  0  0  0  0  0  0  0  0  0  0
    7.2086   -2.4699    1.7083 H   0  0  0  0  0  0  0  0  0  0  0  0
    5.2380   -3.9624    1.4681 H   0  0  0  0  0  0  0  0  0  0  0  0
    2.9551   -3.0169    1.1514 H   0  0  0  0  0  0  0  0  0  0  0  0
  1  2  1  0
  1 39  1  0
  1 40  1  0
  1 41  1  0
  2  3  1  0
  2 38  1  0
  3  4  2  0
  3 30  1  0
  4  5  1  0
  4 42  1  0
  5  6  1  0
  5 28  2  0
  6  7  2  0
  6  8  1  0
  8  9  2  0
  8 28  1  0
  9 10  1  0
  9 43  1  0
 10 11  1  0
 10 26  2  0
 11 12  1  0
 12 13  1  0
 12 25  2  0
 13 14  2  0
 13 24  1  0
 14 15  1  0
 14 44  1  0
 15 16  2  0
 15 45  1  0
 16 17  1  0
 16 23  1  0
 17 18  2  0
 17 22  1  0
 18 19  1  0
 18 46  1  0
 19 20  2  0
 19 47  1  0
 20 21  1  0
 20 48  1  0
 21 22  2  0
 21 49  1  0
 22 50  1  0
 23 24  2  0
 23 51  1  0
 24 52  1  0
 25 26  1  0
 25 53  1  0
 26 27  1  0
 27 54  1  0
 27 55  1  0
 27 56  1  0
 28 29  1  0
 30 31  1  6
 30 32  1  0
 30 33  1  0
 31 57  1  0
 31 58  1  0
 31 59  1  0
 32 60  1  0
 32 61  1  0
 32 62  1  0
 33 34  2  0
 33 38  1  0
 34 35  1  0
 34 63  1  0
 35 36  2  0
 35 64  1  0
 36 37  1  0
 36 65  1  0
 37 38  2  0
 37 66  1  0
M  CHG  2  26   1  29  -1
M  END

