
     RDKit          3D

 40 42  0  0  0  0  0  0  0  0999 V2000
    0.9381    0.2893   -1.2017 C   0  0  0  0  0  0  0  0  0  0  0  0
    2.3636    0.7199   -1.5807 C   0  0  1  0  0  0  0  0  0  0  0  0
    2.7284    0.5642   -2.9941 N   0  0  0  0  0  0  0  0  0  0  0  0
    1.9627    1.3920   -3.9252 C   0  0  0  0  0  0  0  0  0  0  0  0
    2.1916    2.8734   -3.6062 C   0  0  0  0  0  0  0  0  0  0  0  0
    1.9311    3.1702   -2.1222 C   0  0  0  0  0  0  0  0  0  0  0  0
    2.6875    2.1875   -1.2099 C   0  0  2  0  0  0  0  0  0  0  0  0
    4.1399    2.4172   -1.3364 N   0  0  0  0  0  0  0  0  0  0  0  0
    5.1391    2.1628   -0.0138 S   0  0  1  0  0  0  0  0  0  0  0  0
    4.4545    1.3703    1.0156 O   0  0  0  0  0  0  0  0  0  0  0  0
    6.4303    1.7573   -0.5718 O   0  0  0  0  0  0  0  0  0  0  0  0
    5.3424    3.8075    0.6739 C   0  0  0  0  0  0  0  0  0  0  0  0
    6.1375    4.7524    0.0020 C   0  0  0  0  0  0  0  0  0  0  0  0
    6.3539    5.9774    0.4648 N   0  0  0  0  0  0  0  0  0  0  0  0
    5.7886    6.3107    1.6311 C   0  0  0  0  0  0  0  0  0  0  0  0
    6.0202    7.5847    2.0991 N   0  0  0  0  0  0  0  0  0  0  0  0
    6.6048    8.2004    1.5408 H   0  0  0  0  0  0  0  0  0  0  0  0
    5.5243    8.1009    3.2893 C   0  0  0  0  0  0  0  0  0  0  0  0
    5.7518    9.2258    3.6676 O   0  0  0  0  0  0  0  0  0  0  0  0
    4.7386    7.1991    4.0058 N   0  0  0  0  0  0  0  0  0  0  0  0
    4.3633    7.5549    4.8820 H   0  0  0  0  0  0  0  0  0  0  0  0
    4.4041    5.8831    3.6765 C   0  0  0  0  0  0  0  0  0  0  0  0
    3.7011    5.2053    4.3946 O   0  0  0  0  0  0  0  0  0  0  0  0
    4.9858    5.4330    2.3912 C   0  0  0  0  0  0  0  0  0  0  0  0
    4.7665    4.1463    1.8936 C   0  0  0  0  0  0  0  0  0  0  0  0
    0.7785   -0.7686   -1.4668 H   0  0  0  0  0  0  0  0  0  0  0  0
    0.1570    0.8792   -1.7044 H   0  0  0  0  0  0  0  0  0  0  0  0
    0.7834    0.3851   -0.1150 H   0  0  0  0  0  0  0  0  0  0  0  0
    3.0579    0.0941   -0.9970 H   0  0  0  0  0  0  0  0  0  0  0  0
    2.7193   -0.4150   -3.2702 H   0  0  0  0  0  0  0  0  0  0  0  0
    0.8716    1.1780   -3.9065 H   0  0  0  0  0  0  0  0  0  0  0  0
    2.3060    1.1698   -4.9484 H   0  0  0  0  0  0  0  0  0  0  0  0
    1.5467    3.5013   -4.2425 H   0  0  0  0  0  0  0  0  0  0  0  0
    3.2344    3.1360   -3.8528 H   0  0  0  0  0  0  0  0  0  0  0  0
    0.8517    3.0903   -1.9084 H   0  0  0  0  0  0  0  0  0  0  0  0
    2.2296    4.2008   -1.8731 H   0  0  0  0  0  0  0  0  0  0  0  0
    2.4113    2.3635   -0.1602 H   0  0  0  0  0  0  0  0  0  0  0  0
    4.5333    1.9028   -2.1310 H   0  0  0  0  0  0  0  0  0  0  0  0
    6.6168    4.4861   -0.9457 H   0  0  0  0  0  0  0  0  0  0  0  0
    4.1635    3.4344    2.4610 H   0  0  0  0  0  0  0  0  0  0  0  0
  1  2  1  0
  1 26  1  0
  1 27  1  0
  1 28  1  0
  2  3  1  0
  2  7  1  0
  2 29  1  1
  3  4  1  0
  3 30  1  0
  4  5  1  0
  4 31  1  0
  4 32  1  0
  5  6  1  0
  5 33  1  0
  5 34  1  0
  6  7  1  0
  6 35  1  0
  6 36  1  0
  7  8  1  0
  7 37  1  1
  9  8  1  6
  8 38  1  0
  9 10  2  0
  9 11  2  0
  9 12  1  0
 12 13  2  0
 12 25  1  0
 13 14  1  0
 13 39  1  0
 14 15  2  0
 15 16  1  0
 15 24  1  0
 16 17  1  0
 16 18  1  0
 18 19  2  0
 18 20  1  0
 20 21  1  0
 20 22  1  0
 22 23  2  0
 22 24  1  0
 24 25  2  0
 25 40  1  0
M  END

