
     RDKit          3D

 51 55  0  0  0  0  0  0  0  0999 V2000
    3.3132   -0.0026    3.2105 C   0  0  0  0  0  0  0  0  0  0  0  0
    3.9123   -0.0695    1.8433 C   0  0  0  0  0  0  0  0  0  0  0  0
    4.0046   -1.1272    0.9636 C   0  0  0  0  0  0  0  0  0  0  0  0
    4.6438   -0.6392   -0.2235 C   0  0  0  0  0  0  0  0  0  0  0  0
    4.9049   -1.2641   -1.3905 N   0  0  0  0  0  0  0  0  0  0  0  0
    5.4394   -0.4813   -2.3129 C   0  0  0  0  0  0  0  0  0  0  0  0
    5.7830    0.8136   -2.1977 N   0  0  0  0  0  0  0  0  0  0  0  0
    5.5728    1.4547   -1.0445 C   0  0  0  0  0  0  0  0  0  0  0  0
    5.9287    2.7947   -0.9526 N   0  0  0  0  0  0  0  0  0  0  0  0
    6.3564    3.4826   -2.1702 C   0  0  0  0  0  0  0  0  0  0  0  0
    6.0835    4.9859   -2.0550 C   0  0  0  0  0  0  0  0  0  0  0  0
    6.7062    5.6290   -0.7998 C   0  0  2  0  0  0  0  0  0  0  0  0
    8.2276    5.8137   -0.9760 C   0  0  0  0  0  0  0  0  0  0  0  0
    8.8765    6.5039    0.1428 N   0  0  0  0  0  0  0  0  0  0  0  0
    9.5424    5.7304    1.0074 N   0  0  0  0  0  0  0  0  0  0  0  0
   10.1649    6.2753    2.0224 C   0  0  0  0  0  0  0  0  0  0  0  0
   10.9159    5.3870    2.9570 C   0  0  1  0  0  0  0  0  0  0  0  0
   10.4624    3.9637    3.2100 C   0  0  0  0  0  0  0  0  0  0  0  0
   11.7124    4.2097    2.4243 C   0  0  0  0  0  0  0  0  0  0  0  0
   10.1401    7.6982    2.2215 C   0  0  0  0  0  0  0  0  0  0  0  0
    9.4635    8.4871    1.3447 C   0  0  0  0  0  0  0  0  0  0  0  0
    8.7598    7.9085    0.2088 C   0  0  0  0  0  0  0  0  0  0  0  0
    8.1203    8.5272   -0.6311 O   0  0  0  0  0  0  0  0  0  0  0  0
    6.3180    4.8000    0.4390 C   0  0  0  0  0  0  0  0  0  0  0  0
    6.5856    3.3047    0.2516 C   0  0  0  0  0  0  0  0  0  0  0  0
    4.9461    0.7302   -0.0017 C   0  0  0  0  0  0  0  0  0  0  0  0
    4.4935    1.0471    1.2667 N   0  0  0  0  0  0  0  0  0  0  0  0
    4.4249    1.9801    1.6490 H   0  0  0  0  0  0  0  0  0  0  0  0
    2.9077   -0.9822    3.4970 H   0  0  0  0  0  0  0  0  0  0  0  0
    2.4888    0.7303    3.2593 H   0  0  0  0  0  0  0  0  0  0  0  0
    4.0600    0.2907    3.9685 H   0  0  0  0  0  0  0  0  0  0  0  0
    3.6472   -2.1401    1.1328 H   0  0  0  0  0  0  0  0  0  0  0  0
    5.6422   -0.9361   -3.2909 H   0  0  0  0  0  0  0  0  0  0  0  0
    5.8141    3.0491   -3.0187 H   0  0  0  0  0  0  0  0  0  0  0  0
    7.4303    3.2860   -2.3683 H   0  0  0  0  0  0  0  0  0  0  0  0
    4.9916    5.1378   -2.0209 H   0  0  0  0  0  0  0  0  0  0  0  0
    6.4446    5.4924   -2.9658 H   0  0  0  0  0  0  0  0  0  0  0  0
    6.2904    6.6427   -0.6916 H   0  0  0  0  0  0  0  0  0  0  0  0
    8.3994    6.4245   -1.8737 H   0  0  0  0  0  0  0  0  0  0  0  0
    8.7548    4.8579   -1.0881 H   0  0  0  0  0  0  0  0  0  0  0  0
   11.3485    5.9205    3.8078 H   0  0  0  0  0  0  0  0  0  0  0  0
    9.5773    3.6345    2.6595 H   0  0  0  0  0  0  0  0  0  0  0  0
   10.5467    3.5769    4.2295 H   0  0  0  0  0  0  0  0  0  0  0  0
   11.6695    4.0504    1.3433 H   0  0  0  0  0  0  0  0  0  0  0  0
   12.6800    3.9965    2.8875 H   0  0  0  0  0  0  0  0  0  0  0  0
   10.6696    8.1294    3.0753 H   0  0  0  0  0  0  0  0  0  0  0  0
    9.4130    9.5731    1.4425 H   0  0  0  0  0  0  0  0  0  0  0  0
    5.2403    4.9440    0.6298 H   0  0  0  0  0  0  0  0  0  0  0  0
    6.8531    5.1564    1.3335 H   0  0  0  0  0  0  0  0  0  0  0  0
    6.2498    2.7427    1.1320 H   0  0  0  0  0  0  0  0  0  0  0  0
    7.6791    3.1242    0.1865 H   0  0  0  0  0  0  0  0  0  0  0  0
  1  2  1  0
  1 29  1  0
  1 30  1  0
  1 31  1  0
  2  3  2  0
  2 27  1  0
  3  4  1  0
  3 32  1  0
  4  5  2  0
  4 26  1  0
  5  6  1  0
  6  7  2  0
  6 33  1  0
  7  8  1  0
  8  9  1  0
  8 26  2  0
  9 10  1  0
  9 25  1  0
 10 11  1  0
 10 34  1  0
 10 35  1  0
 11 12  1  0
 11 36  1  0
 11 37  1  0
 12 13  1  0
 12 24  1  0
 12 38  1  1
 13 14  1  0
 13 39  1  0
 13 40  1  0
 14 15  1  0
 14 22  1  0
 15 16  2  0
 16 17  1  0
 16 20  1  0
 17 18  1  0
 17 19  1  0
 17 41  1  1
 18 19  1  0
 18 42  1  0
 18 43  1  0
 19 44  1  0
 19 45  1  0
 20 21  2  0
 20 46  1  0
 21 22  1  0
 21 47  1  0
 22 23  2  0
 24 25  1  0
 24 48  1  0
 24 49  1  0
 25 50  1  0
 25 51  1  0
 26 27  1  0
 27 28  1  0
M  END

