
     RDKit          3D

 24 25  0  0  0  0  0  0  0  0999 V2000
    1.6796    0.0091    2.0728 O   0  0  0  0  0  0  0  0  0  0  0  0
    2.6826    0.0731    1.4264 C   0  0  0  0  0  0  0  0  0  0  0  0
    3.5528   -1.1014    0.9503 C   0  0  0  0  0  0  0  0  0  0  0  0
    4.6874   -0.6520    0.2002 N   0  0  0  0  0  0  0  0  0  0  0  0
    4.7299    0.6172    0.0846 C   0  0  0  0  0  0  0  0  0  0  0  0
    5.7473    1.2593   -0.5836 N   0  0  0  0  0  0  0  0  0  0  0  0
    5.6979    2.5848   -0.7772 N   0  0  0  0  0  0  0  0  0  0  0  0
    6.5999    3.2098   -1.4503 C   0  0  0  0  0  0  0  0  0  0  0  0
    7.8296    2.7106   -2.1003 C   0  0  0  0  0  0  0  0  0  0  0  0
    8.2709    3.3592   -3.2714 C   0  0  0  0  0  0  0  0  0  0  0  0
    9.4282    2.9575   -3.9353 C   0  0  0  0  0  0  0  0  0  0  0  0
   10.1817    1.8980   -3.4188 C   0  0  0  0  0  0  0  0  0  0  0  0
   11.7639    1.3393   -4.3169 Br  0  0  0  0  0  0  0  0  0  0  0  0
    9.7883    1.2541   -2.2426 C   0  0  0  0  0  0  0  0  0  0  0  0
    8.6217    1.6601   -1.5916 C   0  0  0  0  0  0  0  0  0  0  0  0
    3.4484    1.6263    0.8259 S   0  0  0  0  0  0  0  0  0  0  0  0
    2.9092   -1.7758    0.3550 H   0  0  0  0  0  0  0  0  0  0  0  0
    3.8543   -1.6813    1.8427 H   0  0  0  0  0  0  0  0  0  0  0  0
    6.4143    0.6520   -1.0624 H   0  0  0  0  0  0  0  0  0  0  0  0
    6.3924    4.2796   -1.5748 H   0  0  0  0  0  0  0  0  0  0  0  0
    7.6878    4.1921   -3.6734 H   0  0  0  0  0  0  0  0  0  0  0  0
    9.7478    3.4650   -4.8470 H   0  0  0  0  0  0  0  0  0  0  0  0
   10.3943    0.4455   -1.8306 H   0  0  0  0  0  0  0  0  0  0  0  0
    8.3608    1.1744   -0.6491 H   0  0  0  0  0  0  0  0  0  0  0  0
  1  2  2  0
  2  3  1  0
  2 16  1  0
  3  4  1  0
  3 17  1  0
  3 18  1  0
  4  5  2  0
  5  6  1  0
  5 16  1  0
  6  7  1  0
  6 19  1  0
  7  8  2  0
  8  9  1  0
  8 20  1  0
  9 10  2  0
  9 15  1  0
 10 11  1  0
 10 21  1  0
 11 12  2  0
 11 22  1  0
 12 13  1  0
 12 14  1  0
 14 15  2  0
 14 23  1  0
 15 24  1  0
M  END

