
     RDKit          3D

 53 55  0  0  0  0  0  0  0  0999 V2000
    6.5544    2.0624   -4.7175 C   0  0  0  0  0  0  0  0  0  0  0  0
    6.6180    2.6494   -3.3462 C   0  0  0  0  0  0  0  0  0  0  0  0
    6.4990    1.8945   -2.2631 N   0  0  0  0  0  0  0  0  0  0  0  0
    6.6004    2.7264   -1.1901 N   0  0  0  0  0  0  0  0  0  0  0  0
    6.5061    2.1373    0.1362 C   0  0  0  0  0  0  0  0  0  0  0  0
    7.7167    1.2911    0.5828 C   0  0  0  0  0  0  0  0  0  0  0  0
    8.0646    1.3137    1.7503 O   0  0  0  0  0  0  0  0  0  0  0  0
    8.2789    0.5239   -0.3857 N   0  0  0  0  0  0  0  0  0  0  0  0
    9.3812   -0.3777   -0.1188 C   0  0  0  0  0  0  0  0  0  0  0  0
   10.6543   -0.0973   -0.9052 C   0  0  0  0  0  0  0  0  0  0  0  0
   10.7546    1.0105   -1.7559 C   0  0  0  0  0  0  0  0  0  0  0  0
   11.9169    1.2565   -2.4930 C   0  0  0  0  0  0  0  0  0  0  0  0
   12.9984    0.3826   -2.3866 C   0  0  0  0  0  0  0  0  0  0  0  0
   12.9123   -0.7241   -1.5373 C   0  0  0  0  0  0  0  0  0  0  0  0
   11.7578   -0.9760   -0.7862 C   0  0  0  0  0  0  0  0  0  0  0  0
   11.6797   -2.2007    0.1210 C   0  0  0  0  0  0  0  0  0  0  0  0
   12.9722   -2.8049    0.4071 N   0  0  0  0  0  0  0  0  0  0  0  0
   13.7528   -2.1292    1.4475 C   0  0  0  0  0  0  0  0  0  0  0  0
   13.3510   -2.5733    2.8575 C   0  0  0  0  0  0  0  0  0  0  0  0
   13.4255   -3.9822    2.9868 O   0  0  0  0  0  0  0  0  0  0  0  0
   12.6037   -4.6477    2.0462 C   0  0  0  0  0  0  0  0  0  0  0  0
   12.9867   -4.2509    0.6169 C   0  0  0  0  0  0  0  0  0  0  0  0
    6.7911    4.0215   -1.5403 C   0  0  0  0  0  0  0  0  0  0  0  0
    6.9436    5.1629   -0.5918 C   0  0  0  0  0  0  0  0  0  0  0  0
    6.8000    4.0025   -2.9422 C   0  0  0  0  0  0  0  0  0  0  0  0
    6.9585    5.1417   -3.7939 N   0  0  0  0  0  0  0  0  0  0  0  0
    6.9563    4.9506   -5.0043 O   0  0  0  0  0  0  0  0  0  0  0  0
    7.0870    6.2412   -3.2636 O   0  0  0  0  0  0  0  0  0  0  0  0
    6.3923    0.9783   -4.6461 H   0  0  0  0  0  0  0  0  0  0  0  0
    7.4823    2.2614   -5.2741 H   0  0  0  0  0  0  0  0  0  0  0  0
    5.7410    2.5182   -5.3014 H   0  0  0  0  0  0  0  0  0  0  0  0
    5.6079    1.4999    0.1585 H   0  0  0  0  0  0  0  0  0  0  0  0
    6.3833    2.9251    0.8854 H   0  0  0  0  0  0  0  0  0  0  0  0
    7.8522    0.5480   -1.3113 H   0  0  0  0  0  0  0  0  0  0  0  0
    9.0518   -1.4152   -0.3114 H   0  0  0  0  0  0  0  0  0  0  0  0
    9.5741   -0.3114    0.9639 H   0  0  0  0  0  0  0  0  0  0  0  0
    9.9098    1.6965   -1.8397 H   0  0  0  0  0  0  0  0  0  0  0  0
   11.9712    2.1297   -3.1482 H   0  0  0  0  0  0  0  0  0  0  0  0
   13.9107    0.5590   -2.9624 H   0  0  0  0  0  0  0  0  0  0  0  0
   13.7464   -1.4214   -1.4405 H   0  0  0  0  0  0  0  0  0  0  0  0
   11.0532   -2.9624   -0.3784 H   0  0  0  0  0  0  0  0  0  0  0  0
   11.1207   -1.9303    1.0408 H   0  0  0  0  0  0  0  0  0  0  0  0
   13.6485   -1.0382    1.3375 H   0  0  0  0  0  0  0  0  0  0  0  0
   14.8201   -2.3733    1.2966 H   0  0  0  0  0  0  0  0  0  0  0  0
   12.3242   -2.2235    3.0969 H   0  0  0  0  0  0  0  0  0  0  0  0
   14.0310   -2.1458    3.6111 H   0  0  0  0  0  0  0  0  0  0  0  0
   11.5339   -4.4140    2.2379 H   0  0  0  0  0  0  0  0  0  0  0  0
   12.7440   -5.7287    2.2058 H   0  0  0  0  0  0  0  0  0  0  0  0
   12.3220   -4.7389   -0.1146 H   0  0  0  0  0  0  0  0  0  0  0  0
   14.0121   -4.6162    0.4236 H   0  0  0  0  0  0  0  0  0  0  0  0
    6.9620    4.8335    0.4546 H   0  0  0  0  0  0  0  0  0  0  0  0
    6.1252    5.8857   -0.7286 H   0  0  0  0  0  0  0  0  0  0  0  0
    7.8714    5.7108   -0.8093 H   0  0  0  0  0  0  0  0  0  0  0  0
  1  2  1  0
  1 29  1  0
  1 30  1  0
  1 31  1  0
  2  3  2  0
  2 25  1  0
  3  4  1  0
  4  5  1  0
  4 23  1  0
  5  6  1  0
  5 32  1  0
  5 33  1  0
  6  7  2  0
  6  8  1  0
  8  9  1  0
  8 34  1  0
  9 10  1  0
  9 35  1  0
  9 36  1  0
 10 11  2  0
 10 15  1  0
 11 12  1  0
 11 37  1  0
 12 13  2  0
 12 38  1  0
 13 14  1  0
 13 39  1  0
 14 15  2  0
 14 40  1  0
 15 16  1  0
 16 17  1  0
 16 41  1  0
 16 42  1  0
 17 18  1  0
 17 22  1  0
 18 19  1  0
 18 43  1  0
 18 44  1  0
 19 20  1  0
 19 45  1  0
 19 46  1  0
 20 21  1  0
 21 22  1  0
 21 47  1  0
 21 48  1  0
 22 49  1  0
 22 50  1  0
 23 24  1  0
 23 25  2  0
 24 51  1  0
 24 52  1  0
 24 53  1  0
 25 26  1  0
 26 27  2  0
 26 28  1  0
M  CHG  2  26   1  28  -1
M  END

