
     RDKit          3D

 78 86  0  0  0  0  0  0  0  0999 V2000
    0.6555   -0.7012    0.8772 C   0  0  0  0  0  0  0  0  0  0  0  0
    1.8394   -0.0653    0.0943 C   0  0  1  0  0  0  0  0  0  0  0  0
    1.4125    0.1304   -1.3686 C   0  0  0  0  0  0  0  0  0  0  0  0
    2.2053    1.2605    0.7739 C   0  0  0  0  0  0  0  0  0  0  0  0
    1.7554    2.5129    0.3367 C   0  0  0  0  0  0  0  0  0  0  0  0
    2.0396    3.6753    1.0568 C   0  0  0  0  0  0  0  0  0  0  0  0
    2.7564    3.5938    2.2479 C   0  0  0  0  0  0  0  0  0  0  0  0
    3.2125    2.3585    2.7321 C   0  0  0  0  0  0  0  0  0  0  0  0
    3.8860    2.3217    4.0599 C   0  0  0  0  0  0  0  0  0  0  0  0
    3.5613    1.3420    4.9065 N   0  0  0  0  0  0  0  0  0  0  0  0
    4.1039    1.4185    6.1301 C   0  0  0  0  0  0  0  0  0  0  0  0
    3.7211    0.3855    7.1255 C   0  0  0  0  0  0  0  0  0  0  0  0
    2.8407   -0.6496    6.7653 C   0  0  0  0  0  0  0  0  0  0  0  0
    2.4666   -1.6127    7.7026 C   0  0  0  0  0  0  0  0  0  0  0  0
    2.9647   -1.5534    9.0086 C   0  0  0  0  0  0  0  0  0  0  0  0
    3.8436   -0.5271    9.3735 C   0  0  0  0  0  0  0  0  0  0  0  0
    4.2210    0.4369    8.4384 C   0  0  0  0  0  0  0  0  0  0  0  0
    4.9455    2.3894    6.5090 N   0  0  0  0  0  0  0  0  0  0  0  0
    5.2337    3.3188    5.5918 C   0  0  0  0  0  0  0  0  0  0  0  0
    6.1807    4.4043    5.9582 C   0  0  0  0  0  0  0  0  0  0  0  0
    6.7288    4.4669    7.2513 C   0  0  0  0  0  0  0  0  0  0  0  0
    7.6173    5.4874    7.5912 C   0  0  0  0  0  0  0  0  0  0  0  0
    7.9705    6.4558    6.6450 C   0  0  0  0  0  0  0  0  0  0  0  0
    7.4310    6.3985    5.3552 C   0  0  0  0  0  0  0  0  0  0  0  0
    6.5414    5.3800    5.0123 C   0  0  0  0  0  0  0  0  0  0  0  0
    4.7107    3.3317    4.3568 N   0  0  0  0  0  0  0  0  0  0  0  0
    2.9703    1.2088    1.9530 C   0  0  0  0  0  0  0  0  0  0  0  0
    3.5458    0.0281    2.3511 O   0  0  0  0  0  0  0  0  0  0  0  0
    3.8162   -0.9129    1.3987 C   0  0  0  0  0  0  0  0  0  0  0  0
    4.8949   -1.7862    1.6338 C   0  0  0  0  0  0  0  0  0  0  0  0
    5.6733   -1.6568    2.8274 N   0  0  0  0  0  0  0  0  0  0  0  0
    6.8362   -0.8486    2.7641 C   0  0  0  0  0  0  0  0  0  0  0  0
    7.3186   -0.3641    1.5332 C   0  0  0  0  0  0  0  0  0  0  0  0
    8.4683    0.4273    1.4626 C   0  0  0  0  0  0  0  0  0  0  0  0
    9.1868    0.7374    2.6161 C   0  0  0  0  0  0  0  0  0  0  0  0
    8.7277    0.2579    3.8453 C   0  0  0  0  0  0  0  0  0  0  0  0
    7.5578   -0.5036    3.9291 C   0  0  0  0  0  0  0  0  0  0  0  0
    6.9407   -0.9081    5.5444 S   0  0  0  0  0  0  0  0  0  0  0  0
    6.0175   -2.3762    5.1611 C   0  0  0  0  0  0  0  0  0  0  0  0
    5.8045   -3.3012    6.1874 C   0  0  0  0  0  0  0  0  0  0  0  0
    4.9544   -4.3947    6.0048 C   0  0  0  0  0  0  0  0  0  0  0  0
    4.3268   -4.5596    4.7711 C   0  0  0  0  0  0  0  0  0  0  0  0
    4.5637   -3.6603    3.7277 C   0  0  0  0  0  0  0  0  0  0  0  0
    5.4190   -2.5541    3.8930 C   0  0  0  0  0  0  0  0  0  0  0  0
    5.2077   -2.7518    0.6697 C   0  0  0  0  0  0  0  0  0  0  0  0
    4.4687   -2.8386   -0.5094 C   0  0  0  0  0  0  0  0  0  0  0  0
    3.4036   -1.9608   -0.7282 C   0  0  0  0  0  0  0  0  0  0  0  0
    3.0517   -0.9929    0.2207 C   0  0  0  0  0  0  0  0  0  0  0  0
   -0.2254   -0.0406    0.8424 H   0  0  0  0  0  0  0  0  0  0  0  0
    0.9158   -0.8651    1.9334 H   0  0  0  0  0  0  0  0  0  0  0  0
    0.3828   -1.6737    0.4372 H   0  0  0  0  0  0  0  0  0  0  0  0
    0.5268    0.7785   -1.4335 H   0  0  0  0  0  0  0  0  0  0  0  0
    1.1274   -0.8285   -1.8246 H   0  0  0  0  0  0  0  0  0  0  0  0
    2.2153    0.5779   -1.9743 H   0  0  0  0  0  0  0  0  0  0  0  0
    1.1672    2.5876   -0.5786 H   0  0  0  0  0  0  0  0  0  0  0  0
    1.6854    4.6429    0.6943 H   0  0  0  0  0  0  0  0  0  0  0  0
    2.9710    4.4876    2.8357 H   0  0  0  0  0  0  0  0  0  0  0  0
    2.4658   -0.6825    5.7419 H   0  0  0  0  0  0  0  0  0  0  0  0
    1.7862   -2.4170    7.4120 H   0  0  0  0  0  0  0  0  0  0  0  0
    2.6695   -2.3081    9.7426 H   0  0  0  0  0  0  0  0  0  0  0  0
    4.2355   -0.4786   10.3927 H   0  0  0  0  0  0  0  0  0  0  0  0
    4.9052    1.2417    8.7084 H   0  0  0  0  0  0  0  0  0  0  0  0
    6.4457    3.7049    7.9779 H   0  0  0  0  0  0  0  0  0  0  0  0
    8.0375    5.5287    8.5994 H   0  0  0  0  0  0  0  0  0  0  0  0
    8.6673    7.2546    6.9125 H   0  0  0  0  0  0  0  0  0  0  0  0
    7.7068    7.1519    4.6128 H   0  0  0  0  0  0  0  0  0  0  0  0
    6.1148    5.3191    4.0104 H   0  0  0  0  0  0  0  0  0  0  0  0
    6.7839   -0.6009    0.6148 H   0  0  0  0  0  0  0  0  0  0  0  0
    8.8012    0.7934    0.4882 H   0  0  0  0  0  0  0  0  0  0  0  0
   10.0913    1.3476    2.5676 H   0  0  0  0  0  0  0  0  0  0  0  0
    9.2690    0.4907    4.7658 H   0  0  0  0  0  0  0  0  0  0  0  0
    6.2967   -3.1393    7.1495 H   0  0  0  0  0  0  0  0  0  0  0  0
    4.7838   -5.1001    6.8210 H   0  0  0  0  0  0  0  0  0  0  0  0
    3.6493   -5.4005    4.6029 H   0  0  0  0  0  0  0  0  0  0  0  0
    4.0691   -3.8199    2.7710 H   0  0  0  0  0  0  0  0  0  0  0  0
    6.0491   -3.4225    0.8554 H   0  0  0  0  0  0  0  0  0  0  0  0
    4.7216   -3.5891   -1.2616 H   0  0  0  0  0  0  0  0  0  0  0  0
    2.8326   -2.0434   -1.6535 H   0  0  0  0  0  0  0  0  0  0  0  0
  2  1  1  1
  1 49  1  0
  1 50  1  0
  1 51  1  0
  2  3  1  0
  2  4  1  0
  2 48  1  0
  3 52  1  0
  3 53  1  0
  3 54  1  0
  4  5  1  0
  4 27  2  0
  5  6  2  0
  5 55  1  0
  6  7  1  0
  6 56  1  0
  7  8  2  0
  7 57  1  0
  8  9  1  0
  8 27  1  0
  9 10  2  0
  9 26  1  0
 10 11  1  0
 11 12  1  0
 11 18  2  0
 12 13  2  0
 12 17  1  0
 13 14  1  0
 13 58  1  0
 14 15  2  0
 14 59  1  0
 15 16  1  0
 15 60  1  0
 16 17  2  0
 16 61  1  0
 17 62  1  0
 18 19  1  0
 19 20  1  0
 19 26  2  0
 20 21  2  0
 20 25  1  0
 21 22  1  0
 21 63  1  0
 22 23  2  0
 22 64  1  0
 23 24  1  0
 23 65  1  0
 24 25  2  0
 24 66  1  0
 25 67  1  0
 27 28  1  0
 28 29  1  0
 29 30  1  0
 29 48  2  0
 30 31  1  0
 30 45  2  0
 31 32  1  0
 31 44  1  0
 32 33  2  0
 32 37  1  0
 33 34  1  0
 33 68  1  0
 34 35  2  0
 34 69  1  0
 35 36  1  0
 35 70  1  0
 36 37  2  0
 36 71  1  0
 37 38  1  0
 38 39  1  0
 39 40  2  0
 39 44  1  0
 40 41  1  0
 40 72  1  0
 41 42  2  0
 41 73  1  0
 42 43  1  0
 42 74  1  0
 43 44  2  0
 43 75  1  0
 45 46  1  0
 45 76  1  0
 46 47  2  0
 46 77  1  0
 47 48  1  0
 47 78  1  0
M  END

