
     RDKit          3D

 68 75  0  0  0  0  0  0  0  0999 V2000
    4.8845    2.3095    0.2808 O   0  0  0  0  0  0  0  0  0  0  0  0
    4.3144    1.1800    0.1083 N   0  0  0  0  0  0  0  0  0  0  0  0
    2.9399    1.0625   -0.0459 C   0  0  0  0  0  0  0  0  0  0  0  0
    2.1839    2.3032   -0.0333 C   0  0  0  0  0  0  0  0  0  0  0  0
    0.8373    2.3578   -0.1512 C   0  0  0  0  0  0  0  0  0  0  0  0
    0.0086    3.5627   -0.1537 C   0  0  0  0  0  0  0  0  0  0  0  0
   -1.3699    3.4401   -0.2784 C   0  0  0  0  0  0  0  0  0  0  0  0
   -2.2186    4.5746   -0.2857 C   0  0  0  0  0  0  0  0  0  0  0  0
   -3.6262    4.4311   -0.4136 C   0  0  0  0  0  0  0  0  0  0  0  0
   -4.4401    5.5442   -0.4190 C   0  0  0  0  0  0  0  0  0  0  0  0
   -3.8839    6.8318   -0.2983 C   0  0  0  0  0  0  0  0  0  0  0  0
   -2.5087    7.0327   -0.1702 C   0  0  0  0  0  0  0  0  0  0  0  0
   -1.9177    8.3817   -0.0439 C   0  0  0  0  0  0  0  0  0  0  0  0
   -2.6985    9.5361   -0.0475 C   0  0  0  0  0  0  0  0  0  0  0  0
   -2.1318   10.8201    0.0740 C   0  0  0  0  0  0  0  0  0  0  0  0
   -0.7676   10.9676    0.2018 C   0  0  0  0  0  0  0  0  0  0  0  0
    0.0798    9.8272    0.2117 C   0  0  0  0  0  0  0  0  0  0  0  0
    1.4872    9.9670    0.3429 C   0  0  0  0  0  0  0  0  0  0  0  0
    2.2992    8.8535    0.3513 C   0  0  0  0  0  0  0  0  0  0  0  0
    1.7406    7.5663    0.2293 C   0  0  0  0  0  0  0  0  0  0  0  0
    0.3674    7.3676    0.0972 C   0  0  0  0  0  0  0  0  0  0  0  0
   -0.2234    6.0169   -0.0321 C   0  0  0  0  0  0  0  0  0  0  0  0
    0.5570    4.8692   -0.0319 C   0  0  0  0  0  0  0  0  0  0  0  0
   -1.6493    5.8874   -0.1619 C   0  0  0  0  0  0  0  0  0  0  0  0
   -0.4945    8.5151    0.0873 C   0  0  0  0  0  0  0  0  0  0  0  0
    2.3602   -0.1238   -0.1844 N   0  0  0  0  0  0  0  0  0  0  0  0
    3.0637   -1.2534   -0.2206 C   0  0  0  0  0  0  0  0  0  0  0  0
    2.3694   -2.4492   -0.4096 N   0  0  0  0  0  0  0  0  0  0  0  0
    2.5706   -3.5969    0.4791 C   0  0  0  0  0  0  0  0  0  0  0  0
    1.4716   -3.6614    1.5460 C   0  0  0  0  0  0  0  0  0  0  0  0
    0.1856   -3.6669    0.9669 O   0  0  0  0  0  0  0  0  0  0  0  0
   -0.0383   -2.5130    0.1746 C   0  0  0  0  0  0  0  0  0  0  0  0
    1.0049   -2.4081   -0.9379 C   0  0  0  0  0  0  0  0  0  0  0  0
    4.4906   -1.2122   -0.1646 C   0  0  0  0  0  0  0  0  0  0  0  0
    5.0824    0.0313    0.0299 C   0  0  0  0  0  0  0  0  0  0  0  0
    6.5603    0.2734    0.0973 C   0  0  0  0  0  0  0  0  0  0  0  0
    7.3859   -1.0156    0.0703 C   0  0  0  0  0  0  0  0  0  0  0  0
    6.7758   -2.0360   -0.8925 C   0  0  0  0  0  0  0  0  0  0  0  0
    5.3668   -2.4204   -0.4287 C   0  0  0  0  0  0  0  0  0  0  0  0
    2.8017    3.1935    0.0830 H   0  0  0  0  0  0  0  0  0  0  0  0
    0.3006    1.4095   -0.2544 H   0  0  0  0  0  0  0  0  0  0  0  0
   -1.8203    2.4482   -0.3732 H   0  0  0  0  0  0  0  0  0  0  0  0
   -4.0493    3.4277   -0.5068 H   0  0  0  0  0  0  0  0  0  0  0  0
   -5.5231    5.4354   -0.5169 H   0  0  0  0  0  0  0  0  0  0  0  0
   -4.5624    7.6847   -0.3070 H   0  0  0  0  0  0  0  0  0  0  0  0
   -3.7816    9.4631   -0.1464 H   0  0  0  0  0  0  0  0  0  0  0  0
   -2.7841   11.6969    0.0661 H   0  0  0  0  0  0  0  0  0  0  0  0
   -0.3184   11.9595    0.2971 H   0  0  0  0  0  0  0  0  0  0  0  0
    1.9115   10.9699    0.4367 H   0  0  0  0  0  0  0  0  0  0  0  0
    3.3821    8.9593    0.4526 H   0  0  0  0  0  0  0  0  0  0  0  0
    2.4189    6.7133    0.2409 H   0  0  0  0  0  0  0  0  0  0  0  0
    1.6375    4.9558    0.0649 H   0  0  0  0  0  0  0  0  0  0  0  0
    3.5490   -3.5390    0.9702 H   0  0  0  0  0  0  0  0  0  0  0  0
    2.5459   -4.5255   -0.1197 H   0  0  0  0  0  0  0  0  0  0  0  0
    1.5813   -2.8005    2.2392 H   0  0  0  0  0  0  0  0  0  0  0  0
    1.5660   -4.5884    2.1341 H   0  0  0  0  0  0  0  0  0  0  0  0
   -0.0038   -1.6008    0.8023 H   0  0  0  0  0  0  0  0  0  0  0  0
   -1.0503   -2.6084   -0.2488 H   0  0  0  0  0  0  0  0  0  0  0  0
    0.8666   -1.4840   -1.5123 H   0  0  0  0  0  0  0  0  0  0  0  0
    0.8824   -3.2704   -1.6189 H   0  0  0  0  0  0  0  0  0  0  0  0
    6.7646    0.8876    0.9896 H   0  0  0  0  0  0  0  0  0  0  0  0
    6.8199    0.9424   -0.7435 H   0  0  0  0  0  0  0  0  0  0  0  0
    7.4253   -1.4564    1.0826 H   0  0  0  0  0  0  0  0  0  0  0  0
    8.4259   -0.7817   -0.2061 H   0  0  0  0  0  0  0  0  0  0  0  0
    7.4032   -2.9394   -0.9578 H   0  0  0  0  0  0  0  0  0  0  0  0
    6.7307   -1.6070   -1.9096 H   0  0  0  0  0  0  0  0  0  0  0  0
    5.4596   -3.0381    0.4835 H   0  0  0  0  0  0  0  0  0  0  0  0
    4.8617   -3.0585   -1.1724 H   0  0  0  0  0  0  0  0  0  0  0  0
  1  2  1  0
  2  3  1  0
  2 35  1  0
  3  4  1  0
  3 26  2  0
  4  5  2  0
  4 40  1  0
  5  6  1  0
  5 41  1  0
  6  7  2  0
  6 23  1  0
  7  8  1  0
  7 42  1  0
  8  9  2  0
  8 24  1  0
  9 10  1  0
  9 43  1  0
 10 11  2  0
 10 44  1  0
 11 12  1  0
 11 45  1  0
 12 13  1  0
 12 24  2  0
 13 14  2  0
 13 25  1  0
 14 15  1  0
 14 46  1  0
 15 16  2  0
 15 47  1  0
 16 17  1  0
 16 48  1  0
 17 18  1  0
 17 25  2  0
 18 19  2  0
 18 49  1  0
 19 20  1  0
 19 50  1  0
 20 21  2  0
 20 51  1  0
 21 22  1  0
 21 25  1  0
 22 23  2  0
 22 24  1  0
 23 52  1  0
 26 27  1  0
 27 28  2  0
 27 34  1  0
 28 29  1  0
 28 33  1  0
 29 30  1  0
 29 53  1  0
 29 54  1  0
 30 31  1  0
 30 55  1  0
 30 56  1  0
 31 32  1  0
 32 33  1  0
 32 57  1  0
 32 58  1  0
 33 59  1  0
 33 60  1  0
 34 35  2  0
 34 39  1  0
 35 36  1  0
 36 37  1  0
 36 61  1  0
 36 62  1  0
 37 38  1  0
 37 63  1  0
 37 64  1  0
 38 39  1  0
 38 65  1  0
 38 66  1  0
 39 67  1  0
 39 68  1  0
M  CHG  2   1  -1  28   1
M  END

