
     RDKit          3D

 47 48  0  0  0  0  0  0  0  0999 V2000
    1.8193   -0.1740   -1.1014 C   0  0  0  0  0  0  0  0  0  0  0  0
    3.1580   -0.6085   -1.1770 O   0  0  0  0  0  0  0  0  0  0  0  0
    3.6452   -1.4329   -0.2162 C   0  0  0  0  0  0  0  0  0  0  0  0
    4.9856   -1.8307   -0.3593 C   0  0  0  0  0  0  0  0  0  0  0  0
    5.5694   -2.6778    0.5770 C   0  0  0  0  0  0  0  0  0  0  0  0
    4.8487   -3.1510    1.6871 C   0  0  0  0  0  0  0  0  0  0  0  0
    5.4992   -4.0887    2.6920 C   0  0  1  0  0  0  0  0  0  0  0  0
    5.4319   -3.5845    4.1424 C   0  0  0  0  0  0  0  0  0  0  0  0
    4.9270   -5.4315    2.5705 N   0  0  0  0  0  0  0  0  0  0  0  0
    5.6303   -6.5579    2.7779 C   0  0  0  0  0  0  0  0  0  0  0  0
    6.8136   -6.6266    3.0914 O   0  0  0  0  0  0  0  0  0  0  0  0
    4.7686   -7.8270    2.5749 C   0  0  0  0  0  0  0  0  0  0  0  0
    3.5807   -7.7606    2.2916 O   0  0  0  0  0  0  0  0  0  0  0  0
    5.4926   -8.9506    2.7538 N   0  0  0  0  0  0  0  0  0  0  0  0
    4.9534  -10.2867    2.6443 C   0  0  0  0  0  0  0  0  0  0  0  0
    5.0282  -11.0969    3.9259 C   0  0  0  0  0  0  0  0  0  0  0  0
    5.3947  -10.5492    5.1556 C   0  0  0  0  0  0  0  0  0  0  0  0
    5.4482  -11.3326    6.3164 C   0  0  0  0  0  0  0  0  0  0  0  0
    5.1290  -12.6864    6.2450 C   0  0  0  0  0  0  0  0  0  0  0  0
    4.7557  -13.2630    5.0240 C   0  0  0  0  0  0  0  0  0  0  0  0
    4.7036  -12.4727    3.8693 C   0  0  0  0  0  0  0  0  0  0  0  0
    4.3490  -12.9362    2.6390 O   0  0  0  0  0  0  0  0  0  0  0  0
    4.0077  -14.2943    2.4784 C   0  0  0  0  0  0  0  0  0  0  0  0
    3.5151   -2.7434    1.8189 C   0  0  0  0  0  0  0  0  0  0  0  0
    2.9079   -1.8979    0.8837 C   0  0  0  0  0  0  0  0  0  0  0  0
    1.6494    0.4709   -1.9741 H   0  0  0  0  0  0  0  0  0  0  0  0
    1.6266    0.4103   -0.1833 H   0  0  0  0  0  0  0  0  0  0  0  0
    1.1087   -1.0196   -1.1389 H   0  0  0  0  0  0  0  0  0  0  0  0
    5.5473   -1.4612   -1.2197 H   0  0  0  0  0  0  0  0  0  0  0  0
    6.6118   -2.9811    0.4447 H   0  0  0  0  0  0  0  0  0  0  0  0
    6.5627   -4.1984    2.4297 H   0  0  0  0  0  0  0  0  0  0  0  0
    4.3916   -3.5037    4.4954 H   0  0  0  0  0  0  0  0  0  0  0  0
    5.9008   -2.5918    4.2255 H   0  0  0  0  0  0  0  0  0  0  0  0
    5.9682   -4.2799    4.8055 H   0  0  0  0  0  0  0  0  0  0  0  0
    3.9517   -5.5639    2.3106 H   0  0  0  0  0  0  0  0  0  0  0  0
    6.4745   -8.7953    2.9734 H   0  0  0  0  0  0  0  0  0  0  0  0
    5.4669  -10.8401    1.8393 H   0  0  0  0  0  0  0  0  0  0  0  0
    3.9055  -10.1821    2.3208 H   0  0  0  0  0  0  0  0  0  0  0  0
    5.6407   -9.4862    5.2065 H   0  0  0  0  0  0  0  0  0  0  0  0
    5.7378  -10.8805    7.2677 H   0  0  0  0  0  0  0  0  0  0  0  0
    5.1663  -13.3106    7.1415 H   0  0  0  0  0  0  0  0  0  0  0  0
    4.5068  -14.3236    4.9843 H   0  0  0  0  0  0  0  0  0  0  0  0
    3.7615  -14.4323    1.4170 H   0  0  0  0  0  0  0  0  0  0  0  0
    3.1291  -14.5714    3.0883 H   0  0  0  0  0  0  0  0  0  0  0  0
    4.8471  -14.9632    2.7412 H   0  0  0  0  0  0  0  0  0  0  0  0
    2.9191   -3.0847    2.6704 H   0  0  0  0  0  0  0  0  0  0  0  0
    1.8666   -1.6083    1.0257 H   0  0  0  0  0  0  0  0  0  0  0  0
  1  2  1  0
  1 26  1  0
  1 27  1  0
  1 28  1  0
  2  3  1  0
  3  4  2  0
  3 25  1  0
  4  5  1  0
  4 29  1  0
  5  6  2  0
  5 30  1  0
  6  7  1  0
  6 24  1  0
  7  8  1  0
  7  9  1  0
  7 31  1  6
  8 32  1  0
  8 33  1  0
  8 34  1  0
  9 10  1  0
  9 35  1  0
 10 11  2  0
 10 12  1  0
 12 13  2  0
 12 14  1  0
 14 15  1  0
 14 36  1  0
 15 16  1  0
 15 37  1  0
 15 38  1  0
 16 17  2  0
 16 21  1  0
 17 18  1  0
 17 39  1  0
 18 19  2  0
 18 40  1  0
 19 20  1  0
 19 41  1  0
 20 21  2  0
 20 42  1  0
 21 22  1  0
 22 23  1  0
 23 43  1  0
 23 44  1  0
 23 45  1  0
 24 25  2  0
 24 46  1  0
 25 47  1  0
M  END

