
     RDKit          3D

 32 32  0  0  0  0  0  0  0  0999 V2000
    1.7909    0.8187    0.9609 C   0  0  0  0  0  0  0  0  0  0  0  0
    2.3181   -0.1295   -0.1146 C   0  0  1  0  0  0  0  0  0  0  0  0
    3.6110   -0.8310    0.3535 C   0  0  0  0  0  0  0  0  0  0  0  0
    1.2514   -1.2516   -0.3748 C   0  0  0  0  0  0  0  0  0  0  0  0
    0.4757   -1.5672    0.4901 O   0  0  0  0  0  0  0  0  0  0  0  0
    1.3224   -1.8855   -1.5381 O   0  0  0  0  0  0  0  0  0  0  0  0
    2.6097    0.6285   -1.3580 N   0  0  0  0  0  0  0  0  0  0  0  0
    2.7087    1.9758   -1.5309 C   0  0  0  0  0  0  0  0  0  0  0  0
    3.0877    2.1745   -2.8566 C   0  0  0  0  0  0  0  0  0  0  0  0
    3.3131    3.3786   -3.5324 N   0  0  0  0  0  0  0  0  0  0  0  0
    3.2431    4.6218   -2.9587 C   0  0  0  0  0  0  0  0  0  0  0  0
    2.9331    4.8101   -1.7979 O   0  0  0  0  0  0  0  0  0  0  0  0
    3.5854    5.7720   -3.9048 C   0  0  0  0  0  0  0  0  0  0  0  0
    5.3077    6.3912   -3.7501 S   0  0  0  0  0  0  0  0  0  0  0  0
    6.2101    4.9786   -4.4653 C   0  0  1  0  0  0  0  0  0  0  0  0
    5.5820    4.4671   -5.5477 F   0  0  0  0  0  0  0  0  0  0  0  0
    7.4179    5.3943   -4.8382 F   0  0  0  0  0  0  0  0  0  0  0  0
    6.3686    3.9619   -3.6083 F   0  0  0  0  0  0  0  0  0  0  0  0
    3.1937    0.8770   -3.4051 C   0  0  0  0  0  0  0  0  0  0  0  0
    2.9122   -0.0401   -2.4819 N   0  0  0  0  0  0  0  0  0  0  0  0
    1.4922    0.2211    1.8300 H   0  0  0  0  0  0  0  0  0  0  0  0
    0.9021    1.3667    0.6161 H   0  0  0  0  0  0  0  0  0  0  0  0
    2.5629    1.5383    1.2704 H   0  0  0  0  0  0  0  0  0  0  0  0
    3.4069   -1.4150    1.2626 H   0  0  0  0  0  0  0  0  0  0  0  0
    4.3862   -0.0822    0.5783 H   0  0  0  0  0  0  0  0  0  0  0  0
    3.9927   -1.5105   -0.4215 H   0  0  0  0  0  0  0  0  0  0  0  0
    1.9804   -1.4318   -2.1321 H   0  0  0  0  0  0  0  0  0  0  0  0
    2.5213    2.7033   -0.7524 H   0  0  0  0  0  0  0  0  0  0  0  0
    3.6319    3.3081   -4.4917 H   0  0  0  0  0  0  0  0  0  0  0  0
    2.9792    6.6364   -3.6014 H   0  0  0  0  0  0  0  0  0  0  0  0
    3.3790    5.5464   -4.9605 H   0  0  0  0  0  0  0  0  0  0  0  0
    3.4556    0.5791   -4.4201 H   0  0  0  0  0  0  0  0  0  0  0  0
  1  2  1  0
  1 21  1  0
  1 22  1  0
  1 23  1  0
  2  3  1  0
  2  4  1  6
  2  7  1  0
  3 24  1  0
  3 25  1  0
  3 26  1  0
  4  5  2  0
  4  6  1  0
  6 27  1  0
  7  8  1  0
  7 20  1  0
  8  9  2  0
  8 28  1  0
  9 10  1  0
  9 19  1  0
 10 11  1  0
 10 29  1  0
 11 12  2  0
 11 13  1  0
 13 14  1  0
 13 30  1  0
 13 31  1  0
 14 15  1  0
 15 16  1  6
 15 17  1  0
 15 18  1  0
 19 20  2  0
 19 32  1  0
M  END

