
     RDKit          3D

 66 69  0  0  0  0  0  0  0  0999 V2000
    1.3900    2.3920    3.4426 C   0  0  0  0  0  0  0  0  0  0  0  0
    1.6029    1.0074    3.5864 O   0  0  0  0  0  0  0  0  0  0  0  0
    2.8116    0.4839    3.2489 C   0  0  0  0  0  0  0  0  0  0  0  0
    3.8901    1.2297    2.7521 C   0  0  0  0  0  0  0  0  0  0  0  0
    5.0914    0.5789    2.4459 C   0  0  0  0  0  0  0  0  0  0  0  0
    5.2074   -0.7898    2.6378 C   0  0  0  0  0  0  0  0  0  0  0  0
    6.3680   -1.3930    2.3120 F   0  0  0  0  0  0  0  0  0  0  0  0
    4.1444   -1.5681    3.1300 C   0  0  0  0  0  0  0  0  0  0  0  0
    4.3114   -3.0330    3.3610 C   0  0  0  0  0  0  0  0  0  0  0  0
    5.3414   -3.4597    4.2189 C   0  0  0  0  0  0  0  0  0  0  0  0
    5.5345   -4.8037    4.5267 C   0  0  0  0  0  0  0  0  0  0  0  0
    4.6842   -5.7729    3.9816 C   0  0  0  0  0  0  0  0  0  0  0  0
    4.8854   -7.2433    4.2583 C   0  0  0  0  0  0  0  0  0  0  0  0
    5.3864   -7.4172    5.5732 O   0  0  0  0  0  0  0  0  0  0  0  0
    5.6827   -8.6617    6.0197 C   0  0  0  0  0  0  0  0  0  0  0  0
    5.4939   -9.8303    5.2675 C   0  0  0  0  0  0  0  0  0  0  0  0
    5.8450  -11.0484    5.8506 C   0  0  0  0  0  0  0  0  0  0  0  0
    5.6695  -12.1660    5.1281 F   0  0  0  0  0  0  0  0  0  0  0  0
    6.3665  -11.1498    7.1332 C   0  0  0  0  0  0  0  0  0  0  0  0
    6.5513   -9.9743    7.8841 C   0  0  0  0  0  0  0  0  0  0  0  0
    7.0774  -10.0515    9.3007 C   0  0  0  0  0  0  0  0  0  0  0  0
    5.9630  -10.2660   10.3328 C   0  0  0  0  0  0  0  0  0  0  0  0
    6.4828  -10.3509   11.7627 C   0  0  0  0  0  0  0  0  0  0  0  0
    7.6382  -10.2650   12.0733 O   0  0  0  0  0  0  0  0  0  0  0  0
    5.5313  -10.5373   12.7093 O   0  0  0  0  0  0  0  0  0  0  0  0
    6.2089   -8.7421    7.3220 C   0  0  0  0  0  0  0  0  0  0  0  0
    3.6596   -5.3578    3.1256 C   0  0  0  0  0  0  0  0  0  0  0  0
    3.4570   -4.0067    2.7873 C   0  0  0  0  0  0  0  0  0  0  0  0
    2.3597   -3.6903    1.8263 C   0  0  0  0  0  0  0  0  0  0  0  0
    1.0491   -3.7055    2.1188 C   0  0  0  0  0  0  0  0  0  0  0  0
    0.1776   -3.4969    0.9068 C   0  0  0  0  0  0  0  0  0  0  0  0
    1.1877   -3.0169   -0.1565 C   0  0  0  0  0  0  0  0  0  0  0  0
    2.5859   -3.5243    0.3054 C   0  0  2  0  0  0  0  0  0  0  0  0
    2.9043   -4.9067   -0.3077 C   0  0  0  0  0  0  0  0  0  0  0  0
    3.7012   -2.5394   -0.0739 C   0  0  0  0  0  0  0  0  0  0  0  0
    2.9513   -0.9024    3.4313 C   0  0  0  0  0  0  0  0  0  0  0  0
    0.3611    2.5878    3.7737 H   0  0  0  0  0  0  0  0  0  0  0  0
    1.4943    2.7194    2.3918 H   0  0  0  0  0  0  0  0  0  0  0  0
    2.0839    2.9838    4.0675 H   0  0  0  0  0  0  0  0  0  0  0  0
    3.8146    2.3060    2.5995 H   0  0  0  0  0  0  0  0  0  0  0  0
    5.9460    1.1311    2.0498 H   0  0  0  0  0  0  0  0  0  0  0  0
    5.9989   -2.7102    4.6642 H   0  0  0  0  0  0  0  0  0  0  0  0
    6.3342   -5.1033    5.2061 H   0  0  0  0  0  0  0  0  0  0  0  0
    5.6029   -7.6718    3.5304 H   0  0  0  0  0  0  0  0  0  0  0  0
    3.9312   -7.7877    4.1339 H   0  0  0  0  0  0  0  0  0  0  0  0
    5.0929   -9.8314    4.2556 H   0  0  0  0  0  0  0  0  0  0  0  0
    6.6311  -12.1326    7.5280 H   0  0  0  0  0  0  0  0  0  0  0  0
    7.6213   -9.1300    9.5570 H   0  0  0  0  0  0  0  0  0  0  0  0
    7.8051  -10.8720    9.3939 H   0  0  0  0  0  0  0  0  0  0  0  0
    5.4012  -11.1916   10.1104 H   0  0  0  0  0  0  0  0  0  0  0  0
    5.2230   -9.4469   10.2778 H   0  0  0  0  0  0  0  0  0  0  0  0
    4.6532  -10.5854   12.3051 H   0  0  0  0  0  0  0  0  0  0  0  0
    6.3486   -7.8118    7.8766 H   0  0  0  0  0  0  0  0  0  0  0  0
    2.9839   -6.1019    2.6952 H   0  0  0  0  0  0  0  0  0  0  0  0
    0.6459   -3.8891    3.1191 H   0  0  0  0  0  0  0  0  0  0  0  0
   -0.6357   -2.7716    1.0793 H   0  0  0  0  0  0  0  0  0  0  0  0
   -0.3169   -4.4448    0.6187 H   0  0  0  0  0  0  0  0  0  0  0  0
    1.1981   -1.9149   -0.1687 H   0  0  0  0  0  0  0  0  0  0  0  0
    0.9394   -3.3511   -1.1763 H   0  0  0  0  0  0  0  0  0  0  0  0
    2.0966   -5.6305   -0.1132 H   0  0  0  0  0  0  0  0  0  0  0  0
    3.8373   -5.3219    0.1059 H   0  0  0  0  0  0  0  0  0  0  0  0
    3.0312   -4.8240   -1.3999 H   0  0  0  0  0  0  0  0  0  0  0  0
    3.4960   -1.5298    0.3110 H   0  0  0  0  0  0  0  0  0  0  0  0
    3.7877   -2.4715   -1.1713 H   0  0  0  0  0  0  0  0  0  0  0  0
    4.6805   -2.8584    0.3169 H   0  0  0  0  0  0  0  0  0  0  0  0
    2.0989   -1.4556    3.8250 H   0  0  0  0  0  0  0  0  0  0  0  0
  1  2  1  0
  1 37  1  0
  1 38  1  0
  1 39  1  0
  2  3  1  0
  3  4  2  0
  3 36  1  0
  4  5  1  0
  4 40  1  0
  5  6  2  0
  5 41  1  0
  6  7  1  0
  6  8  1  0
  8  9  1  0
  8 36  2  0
  9 10  2  0
  9 28  1  0
 10 11  1  0
 10 42  1  0
 11 12  2  0
 11 43  1  0
 12 13  1  0
 12 27  1  0
 13 14  1  0
 13 44  1  0
 13 45  1  0
 14 15  1  0
 15 16  2  0
 15 26  1  0
 16 17  1  0
 16 46  1  0
 17 18  1  0
 17 19  2  0
 19 20  1  0
 19 47  1  0
 20 21  1  0
 20 26  2  0
 21 22  1  0
 21 48  1  0
 21 49  1  0
 22 23  1  0
 22 50  1  0
 22 51  1  0
 23 24  2  0
 23 25  1  0
 25 52  1  0
 26 53  1  0
 27 28  2  0
 27 54  1  0
 28 29  1  0
 29 30  2  0
 29 33  1  0
 30 31  1  0
 30 55  1  0
 31 32  1  0
 31 56  1  0
 31 57  1  0
 32 33  1  0
 32 58  1  0
 32 59  1  0
 33 34  1  6
 33 35  1  0
 34 60  1  0
 34 61  1  0
 34 62  1  0
 35 63  1  0
 35 64  1  0
 35 65  1  0
 36 66  1  0
M  END

