
     RDKit          3D

 48 50  0  0  0  0  0  0  0  0999 V2000
    1.6332   -0.7113    3.2149 C   0  0  0  0  0  0  0  0  0  0  0  0
    2.9448   -0.5923    2.7130 O   0  0  0  0  0  0  0  0  0  0  0  0
    3.4298   -1.5539    1.8859 C   0  0  0  0  0  0  0  0  0  0  0  0
    4.7440   -1.3606    1.4195 C   0  0  0  0  0  0  0  0  0  0  0  0
    5.3148   -2.2942    0.5621 C   0  0  0  0  0  0  0  0  0  0  0  0
    4.5960   -3.4291    0.1574 C   0  0  0  0  0  0  0  0  0  0  0  0
    3.2917   -3.6311    0.6205 C   0  0  0  0  0  0  0  0  0  0  0  0
    2.5194   -4.8953    0.2555 C   0  0  1  0  0  0  0  0  0  0  0  0
    2.5970   -5.9183    1.4186 C   0  0  0  0  0  0  0  0  0  0  0  0
    3.9559   -6.2533    1.7893 N   0  0  0  0  0  0  0  0  0  0  0  0
    4.5173   -7.4648    1.4845 C   0  0  0  0  0  0  0  0  0  0  0  0
    3.9116   -8.3685    0.9365 O   0  0  0  0  0  0  0  0  0  0  0  0
    5.9536   -7.6133    1.9387 C   0  0  0  0  0  0  0  0  0  0  0  0
    6.2687   -7.3248    3.2790 C   0  0  0  0  0  0  0  0  0  0  0  0
    7.5571   -7.5102    3.7816 C   0  0  0  0  0  0  0  0  0  0  0  0
    8.5640   -7.9804    2.9367 C   0  0  0  0  0  0  0  0  0  0  0  0
    8.2782   -8.2623    1.5980 C   0  0  0  0  0  0  0  0  0  0  0  0
    6.9812   -8.0868    1.1036 C   0  0  0  0  0  0  0  0  0  0  0  0
    6.6724   -8.5020   -0.9650 I   0  0  0  0  0  0  0  0  0  0  0  0
    1.1302   -4.5899   -0.0638 N   0  0  0  0  0  0  0  0  0  0  0  0
    0.9525   -3.7168   -1.2252 C   0  0  0  0  0  0  0  0  0  0  0  0
   -0.5642   -3.7210   -1.4592 C   0  0  0  0  0  0  0  0  0  0  0  0
   -1.0278   -5.0969   -0.9120 C   0  0  0  0  0  0  0  0  0  0  0  0
    0.2476   -5.7307   -0.3221 C   0  0  0  0  0  0  0  0  0  0  0  0
    2.7103   -2.6882    1.4880 C   0  0  0  0  0  0  0  0  0  0  0  0
    1.4601    0.1676    3.8506 H   0  0  0  0  0  0  0  0  0  0  0  0
    1.5058   -1.6242    3.8245 H   0  0  0  0  0  0  0  0  0  0  0  0
    0.8810   -0.7213    2.4056 H   0  0  0  0  0  0  0  0  0  0  0  0
    5.2850   -0.4685    1.7414 H   0  0  0  0  0  0  0  0  0  0  0  0
    6.3328   -2.1373    0.1958 H   0  0  0  0  0  0  0  0  0  0  0  0
    5.0506   -4.1520   -0.5244 H   0  0  0  0  0  0  0  0  0  0  0  0
    3.0303   -5.3674   -0.6154 H   0  0  0  0  0  0  0  0  0  0  0  0
    2.1249   -6.8633    1.1229 H   0  0  0  0  0  0  0  0  0  0  0  0
    2.0525   -5.5122    2.2884 H   0  0  0  0  0  0  0  0  0  0  0  0
    4.5637   -5.5089    2.1126 H   0  0  0  0  0  0  0  0  0  0  0  0
    5.4742   -6.9692    3.9399 H   0  0  0  0  0  0  0  0  0  0  0  0
    7.7712   -7.2907    4.8302 H   0  0  0  0  0  0  0  0  0  0  0  0
    9.5791   -8.1297    3.3131 H   0  0  0  0  0  0  0  0  0  0  0  0
    9.0687   -8.6185    0.9354 H   0  0  0  0  0  0  0  0  0  0  0  0
    1.4825   -4.1275   -2.1161 H   0  0  0  0  0  0  0  0  0  0  0  0
    1.3628   -2.7140   -1.0376 H   0  0  0  0  0  0  0  0  0  0  0  0
   -0.8123   -3.5763   -2.5213 H   0  0  0  0  0  0  0  0  0  0  0  0
   -1.0393   -2.9019   -0.8982 H   0  0  0  0  0  0  0  0  0  0  0  0
   -1.4632   -5.7386   -1.6924 H   0  0  0  0  0  0  0  0  0  0  0  0
   -1.7949   -4.9689   -0.1337 H   0  0  0  0  0  0  0  0  0  0  0  0
    0.7039   -6.4345   -1.0552 H   0  0  0  0  0  0  0  0  0  0  0  0
    0.0430   -6.3029    0.5944 H   0  0  0  0  0  0  0  0  0  0  0  0
    1.6837   -2.8573    1.8134 H   0  0  0  0  0  0  0  0  0  0  0  0
  1  2  1  0
  1 26  1  0
  1 27  1  0
  1 28  1  0
  2  3  1  0
  3  4  2  0
  3 25  1  0
  4  5  1  0
  4 29  1  0
  5  6  2  0
  5 30  1  0
  6  7  1  0
  6 31  1  0
  7  8  1  0
  7 25  2  0
  8  9  1  0
  8 20  1  0
  8 32  1  6
  9 10  1  0
  9 33  1  0
  9 34  1  0
 10 11  1  0
 10 35  1  0
 11 12  2  0
 11 13  1  0
 13 14  2  0
 13 18  1  0
 14 15  1  0
 14 36  1  0
 15 16  2  0
 15 37  1  0
 16 17  1  0
 16 38  1  0
 17 18  2  0
 17 39  1  0
 18 19  1  0
 20 21  1  0
 20 24  1  0
 21 22  1  0
 21 40  1  0
 21 41  1  0
 22 23  1  0
 22 42  1  0
 22 43  1  0
 23 24  1  0
 23 44  1  0
 23 45  1  0
 24 46  1  0
 24 47  1  0
 25 48  1  0
M  END

