
     RDKit          3D

 43 44  0  0  0  0  0  0  0  0999 V2000
   10.3918   -5.1677    2.0984 C   0  0  0  0  0  0  0  0  0  0  0  0
   10.0092   -4.0912    2.4970 C   0  0  0  0  0  0  0  0  0  0  0  0
    9.5808   -2.7848    2.9906 C   0  0  0  0  0  0  0  0  0  0  0  0
    8.2103   -2.5877    2.6818 O   0  0  0  0  0  0  0  0  0  0  0  0
    7.6052   -1.4187    3.0556 C   0  0  0  0  0  0  0  0  0  0  0  0
    8.2454   -0.3813    3.7343 C   0  0  0  0  0  0  0  0  0  0  0  0
    7.5111    0.7621    4.0584 C   0  0  0  0  0  0  0  0  0  0  0  0
    8.1374    1.7554    4.7123 F   0  0  0  0  0  0  0  0  0  0  0  0
    6.1719    0.8882    3.7244 C   0  0  0  0  0  0  0  0  0  0  0  0
    5.5338   -0.1565    3.0433 C   0  0  0  0  0  0  0  0  0  0  0  0
    6.2339   -1.3194    2.6991 C   0  0  0  0  0  0  0  0  0  0  0  0
    5.6913   -2.4177    2.0174 N   0  0  0  0  0  0  0  0  0  0  0  0
    4.3881   -2.5870    1.5779 C   0  0  0  0  0  0  0  0  0  0  0  0
    3.4964   -1.7679    1.7423 O   0  0  0  0  0  0  0  0  0  0  0  0
    4.1763   -3.7936    0.9420 N   0  0  0  0  0  0  0  0  0  0  0  0
    2.8983   -4.0787    0.2813 C   0  0  1  0  0  0  0  0  0  0  0  0
    3.0719   -5.2377   -0.7120 C   0  0  0  0  0  0  0  0  0  0  0  0
    3.2885   -6.5983   -0.0293 C   0  0  0  0  0  0  0  0  0  0  0  0
    2.1950   -6.9154    1.0052 C   0  0  2  0  0  0  0  0  0  0  0  0
    0.8755   -7.2945    0.3166 C   0  0  0  0  0  0  0  0  0  0  0  0
    0.7431   -7.4400   -0.8688 O   0  0  0  0  0  0  0  0  0  0  0  0
   -0.1769   -7.5008    1.1418 O   0  0  0  0  0  0  0  0  0  0  0  0
    2.0471   -5.7472    2.0079 C   0  0  0  0  0  0  0  0  0  0  0  0
    1.7942   -4.4100    1.3054 C   0  0  0  0  0  0  0  0  0  0  0  0
   10.7319   -6.1232    1.7443 H   0  0  0  0  0  0  0  0  0  0  0  0
   10.1967   -1.9901    2.5274 H   0  0  0  0  0  0  0  0  0  0  0  0
    9.7401   -2.7277    4.0845 H   0  0  0  0  0  0  0  0  0  0  0  0
    9.2948   -0.4267    4.0215 H   0  0  0  0  0  0  0  0  0  0  0  0
    5.6305    1.7963    3.9947 H   0  0  0  0  0  0  0  0  0  0  0  0
    4.4833   -0.0859    2.7709 H   0  0  0  0  0  0  0  0  0  0  0  0
    6.3513   -3.1752    1.8819 H   0  0  0  0  0  0  0  0  0  0  0  0
    4.9839   -4.3227    0.6345 H   0  0  0  0  0  0  0  0  0  0  0  0
    2.5892   -3.1722   -0.2656 H   0  0  0  0  0  0  0  0  0  0  0  0
    3.9058   -5.0198   -1.4018 H   0  0  0  0  0  0  0  0  0  0  0  0
    2.1649   -5.2975   -1.3321 H   0  0  0  0  0  0  0  0  0  0  0  0
    4.2636   -6.6194    0.4881 H   0  0  0  0  0  0  0  0  0  0  0  0
    3.3156   -7.3904   -0.7916 H   0  0  0  0  0  0  0  0  0  0  0  0
    2.4919   -7.8207    1.5684 H   0  0  0  0  0  0  0  0  0  0  0  0
    0.0777   -7.3409    2.0617 H   0  0  0  0  0  0  0  0  0  0  0  0
    2.9798   -5.6790    2.5918 H   0  0  0  0  0  0  0  0  0  0  0  0
    1.2530   -5.9424    2.7508 H   0  0  0  0  0  0  0  0  0  0  0  0
    1.7282   -3.5900    2.0347 H   0  0  0  0  0  0  0  0  0  0  0  0
    0.8275   -4.4392    0.7719 H   0  0  0  0  0  0  0  0  0  0  0  0
  1  2  3  0
  1 25  1  0
  2  3  1  0
  3  4  1  0
  3 26  1  0
  3 27  1  0
  4  5  1  0
  5  6  2  0
  5 11  1  0
  6  7  1  0
  6 28  1  0
  7  8  1  0
  7  9  2  0
  9 10  1  0
  9 29  1  0
 10 11  2  0
 10 30  1  0
 11 12  1  0
 12 13  1  0
 12 31  1  0
 13 14  2  0
 13 15  1  0
 15 16  1  0
 15 32  1  0
 16 17  1  0
 16 24  1  0
 16 33  1  6
 17 18  1  0
 17 34  1  0
 17 35  1  0
 18 19  1  0
 18 36  1  0
 18 37  1  0
 19 20  1  0
 19 23  1  0
 19 38  1  1
 20 21  2  0
 20 22  1  0
 22 39  1  0
 23 24  1  0
 23 40  1  0
 23 41  1  0
 24 42  1  0
 24 43  1  0
M  END

