
     RDKit          3D

 45 46  0  0  0  0  0  0  0  0999 V2000
    4.5732   -3.9389    1.6803 C   0  0  0  0  0  0  0  0  0  0  0  0
    4.8688   -2.7103    2.5412 C   0  0  0  0  0  0  0  0  0  0  0  0
    5.5160   -1.5474    1.7771 C   0  0  0  0  0  0  0  0  0  0  0  0
    4.6972   -1.0252    0.6772 N   0  0  0  0  0  0  0  0  0  0  0  0
    5.1066   -1.2854   -0.6028 C   0  0  0  0  0  0  0  0  0  0  0  0
    6.1144   -1.9213   -0.8708 O   0  0  0  0  0  0  0  0  0  0  0  0
    4.2253   -0.7844   -1.7691 C   0  0  0  0  0  0  0  0  0  0  0  0
    5.0232   -0.5675   -2.9467 N   0  0  0  0  0  0  0  0  0  0  0  0
    5.8954    0.5080   -3.0930 C   0  0  0  0  0  0  0  0  0  0  0  0
    5.9703    1.4556   -2.3417 O   0  0  0  0  0  0  0  0  0  0  0  0
    6.6864    0.2454   -4.3483 C   0  0  0  0  0  0  0  0  0  0  0  0
    6.3340   -0.9835   -4.8129 C   0  0  0  0  0  0  0  0  0  0  0  0
    6.9555   -1.7158   -5.9568 C   0  0  0  0  0  0  0  0  0  0  0  0
    6.8550   -0.8566   -7.1977 C   0  0  0  0  0  0  0  0  0  0  0  0
    7.3535    0.3985   -7.3052 C   0  0  0  0  0  0  0  0  0  0  0  0
    7.9066    1.2365   -6.2563 C   0  0  0  0  0  0  0  0  0  0  0  0
    7.5945    1.1954   -4.9263 C   0  0  0  0  0  0  0  0  0  0  0  0
    5.2435   -1.5299   -3.9435 C   0  0  0  0  0  0  0  0  0  0  0  0
    4.6452   -2.5732   -4.0593 O   0  0  0  0  0  0  0  0  0  0  0  0
    3.6112   -0.0957    1.0319 C   0  0  1  0  0  0  0  0  0  0  0  0
    4.0801    1.3713    0.9875 C   0  0  0  0  0  0  0  0  0  0  0  0
    2.2057   -0.4036    0.3327 B   0  0  0  0  0  0  0  0  0  0  0  0
    1.8471   -1.7037    0.1542 O   0  0  0  0  0  0  0  0  0  0  0  0
    1.3197    0.5707   -0.0317 O   0  0  0  0  0  0  0  0  0  0  0  0
    4.1697   -4.7613    2.2925 H   0  0  0  0  0  0  0  0  0  0  0  0
    5.4821   -4.3025    1.1752 H   0  0  0  0  0  0  0  0  0  0  0  0
    3.8290   -3.7054    0.9033 H   0  0  0  0  0  0  0  0  0  0  0  0
    5.5547   -2.9788    3.3646 H   0  0  0  0  0  0  0  0  0  0  0  0
    3.9382   -2.3669    3.0296 H   0  0  0  0  0  0  0  0  0  0  0  0
    6.4693   -1.8713    1.3391 H   0  0  0  0  0  0  0  0  0  0  0  0
    5.7326   -0.7184    2.4738 H   0  0  0  0  0  0  0  0  0  0  0  0
    3.6748    0.1369   -1.5412 H   0  0  0  0  0  0  0  0  0  0  0  0
    3.4987   -1.5774   -1.9996 H   0  0  0  0  0  0  0  0  0  0  0  0
    6.4457   -2.6791   -6.0974 H   0  0  0  0  0  0  0  0  0  0  0  0
    8.0157   -1.9332   -5.7246 H   0  0  0  0  0  0  0  0  0  0  0  0
    6.3663   -1.2946   -8.0744 H   0  0  0  0  0  0  0  0  0  0  0  0
    7.3157    0.8650   -8.2965 H   0  0  0  0  0  0  0  0  0  0  0  0
    8.5321    2.0702   -6.5928 H   0  0  0  0  0  0  0  0  0  0  0  0
    7.9600    1.9891   -4.2686 H   0  0  0  0  0  0  0  0  0  0  0  0
    3.3716   -0.3279    2.0873 H   0  0  0  0  0  0  0  0  0  0  0  0
    4.3737    1.6801   -0.0286 H   0  0  0  0  0  0  0  0  0  0  0  0
    4.9596    1.5238    1.6328 H   0  0  0  0  0  0  0  0  0  0  0  0
    3.2965    2.0567    1.3562 H   0  0  0  0  0  0  0  0  0  0  0  0
    0.9646   -1.7932   -0.2317 H   0  0  0  0  0  0  0  0  0  0  0  0
    1.6474    1.4695    0.0915 H   0  0  0  0  0  0  0  0  0  0  0  0
  1  2  1  0
  1 25  1  0
  1 26  1  0
  1 27  1  0
  2  3  1  0
  2 28  1  0
  2 29  1  0
  3  4  1  0
  3 30  1  0
  3 31  1  0
  4  5  1  0
  4 20  1  0
  5  6  2  0
  5  7  1  0
  7  8  1  0
  7 32  1  0
  7 33  1  0
  8  9  1  0
  8 18  1  0
  9 10  2  0
  9 11  1  0
 11 12  2  0
 11 17  1  0
 12 13  1  0
 12 18  1  0
 13 14  1  0
 13 34  1  0
 13 35  1  0
 14 15  2  0
 14 36  1  0
 15 16  1  0
 15 37  1  0
 16 17  2  0
 16 38  1  0
 17 39  1  0
 18 19  2  0
 20 21  1  0
 20 22  1  0
 20 40  1  1
 21 41  1  0
 21 42  1  0
 21 43  1  0
 22 23  1  0
 22 24  1  0
 23 44  1  0
 24 45  1  0
M  END

