
     RDKit          3D

 42 44  0  0  0  0  0  0  0  0999 V2000
    0.9633   -0.5980    1.8414 N   0  0  0  0  0  0  0  0  0  0  0  0
    2.2514   -0.1726    0.8300 S   0  0  1  0  0  0  0  0  0  0  0  0
    3.2459   -1.2470    0.8796 O   0  0  0  0  0  0  0  0  0  0  0  0
    1.6413    0.2793   -0.4229 O   0  0  0  0  0  0  0  0  0  0  0  0
    2.9649    1.2562    1.6403 C   0  0  0  0  0  0  0  0  0  0  0  0
    4.0665    1.0959    2.4830 C   0  0  0  0  0  0  0  0  0  0  0  0
    4.6282    2.2042    3.1167 C   0  0  0  0  0  0  0  0  0  0  0  0
    4.0809    3.4816    2.8956 C   0  0  0  0  0  0  0  0  0  0  0  0
    4.5935    4.6382    3.4972 N   0  0  0  0  0  0  0  0  0  0  0  0
    5.6330    4.7754    4.3578 C   0  0  0  0  0  0  0  0  0  0  0  0
    6.3593    3.8981    4.8010 O   0  0  0  0  0  0  0  0  0  0  0  0
    5.8221    6.2604    4.7525 C   0  0  0  0  0  0  0  0  0  0  0  0
    5.0860    7.1290    4.3042 O   0  0  0  0  0  0  0  0  0  0  0  0
    6.8607    6.3970    5.6084 N   0  0  0  0  0  0  0  0  0  0  0  0
    7.3789    7.5542    6.2133 C   0  0  0  0  0  0  0  0  0  0  0  0
    6.8276    8.8051    5.9733 C   0  0  0  0  0  0  0  0  0  0  0  0
    7.3701    9.9492    6.5953 C   0  0  0  0  0  0  0  0  0  0  0  0
    8.4491    9.8461    7.4454 C   0  0  0  0  0  0  0  0  0  0  0  0
    9.0429    8.5832    7.7171 C   0  0  0  0  0  0  0  0  0  0  0  0
   10.1680    8.4492    8.5988 C   0  0  0  0  0  0  0  0  0  0  0  0
   10.7231    9.5190    9.2170 O   0  0  0  0  0  0  0  0  0  0  0  0
   10.7260    7.2070    8.8467 C   0  0  0  0  0  0  0  0  0  0  0  0
   10.1916    6.0584    8.2322 C   0  0  0  0  0  0  0  0  0  0  0  0
    9.1104    6.1428    7.3768 C   0  0  0  0  0  0  0  0  0  0  0  0
    8.5085    7.4004    7.0964 C   0  0  0  0  0  0  0  0  0  0  0  0
    2.9777    3.6294    2.0317 C   0  0  0  0  0  0  0  0  0  0  0  0
    2.4205    2.5222    1.4022 C   0  0  0  0  0  0  0  0  0  0  0  0
    1.1763   -1.4580    2.3472 H   0  0  0  0  0  0  0  0  0  0  0  0
    0.1163   -0.6897    1.2798 H   0  0  0  0  0  0  0  0  0  0  0  0
    4.4914    0.1015    2.6301 H   0  0  0  0  0  0  0  0  0  0  0  0
    5.4877    2.0950    3.7747 H   0  0  0  0  0  0  0  0  0  0  0  0
    4.1466    5.5304    3.2823 H   0  0  0  0  0  0  0  0  0  0  0  0
    7.3024    5.5038    5.8166 H   0  0  0  0  0  0  0  0  0  0  0  0
    5.9757    8.8905    5.3024 H   0  0  0  0  0  0  0  0  0  0  0  0
    6.9220   10.9249    6.3940 H   0  0  0  0  0  0  0  0  0  0  0  0
    8.8364   10.7598    7.9057 H   0  0  0  0  0  0  0  0  0  0  0  0
   10.2608   10.3291    8.9706 H   0  0  0  0  0  0  0  0  0  0  0  0
   11.5805    7.1439    9.5226 H   0  0  0  0  0  0  0  0  0  0  0  0
   10.6435    5.0850    8.4380 H   0  0  0  0  0  0  0  0  0  0  0  0
    8.7377    5.2203    6.9283 H   0  0  0  0  0  0  0  0  0  0  0  0
    2.5623    4.6244    1.8505 H   0  0  0  0  0  0  0  0  0  0  0  0
    1.5777    2.6337    0.7181 H   0  0  0  0  0  0  0  0  0  0  0  0
  2  1  1  1
  1 28  1  0
  1 29  1  0
  2  3  2  0
  2  4  2  0
  2  5  1  0
  5  6  2  0
  5 27  1  0
  6  7  1  0
  6 30  1  0
  7  8  2  0
  7 31  1  0
  8  9  1  0
  8 26  1  0
  9 10  1  0
  9 32  1  0
 10 11  2  0
 10 12  1  0
 12 13  2  0
 12 14  1  0
 14 15  1  0
 14 33  1  0
 15 16  2  0
 15 25  1  0
 16 17  1  0
 16 34  1  0
 17 18  2  0
 17 35  1  0
 18 19  1  0
 18 36  1  0
 19 20  1  0
 19 25  2  0
 20 21  1  0
 20 22  2  0
 21 37  1  0
 22 23  1  0
 22 38  1  0
 23 24  2  0
 23 39  1  0
 24 25  1  0
 24 40  1  0
 26 27  2  0
 26 41  1  0
 27 42  1  0
M  END

