
     RDKit          3D

 35 36  0  0  0  0  0  0  0  0999 V2000
    2.4048    1.0324   -0.0750 C   0  0  0  0  0  0  0  0  0  0  0  0
    1.9863   -0.3135   -0.0089 O   0  0  0  0  0  0  0  0  0  0  0  0
    2.9186   -1.3155   -0.0766 C   0  0  0  0  0  0  0  0  0  0  0  0
    4.2795   -1.0840   -0.2995 C   0  0  0  0  0  0  0  0  0  0  0  0
    5.1748   -2.1591   -0.3662 C   0  0  0  0  0  0  0  0  0  0  0  0
    4.7377   -3.4770   -0.2171 C   0  0  0  0  0  0  0  0  0  0  0  0
    5.6896   -4.6466   -0.2878 C   0  0  0  0  0  0  0  0  0  0  0  0
    3.3636   -3.6810    0.0025 C   0  0  0  0  0  0  0  0  0  0  0  0
    2.4370   -2.6383    0.0773 C   0  0  0  0  0  0  0  0  0  0  0  0
    0.9715   -2.9410    0.3657 C   0  0  1  0  0  0  0  0  0  0  0  0
    0.5528   -2.5640    1.8049 C   0  0  0  0  0  0  0  0  0  0  0  0
   -0.7972   -2.8832    2.0113 O   0  0  0  0  0  0  0  0  0  0  0  0
   -0.0165   -2.3468   -0.5446 N   0  0  0  0  0  0  0  0  0  0  0  0
   -0.1708   -2.9758   -1.8288 C   0  0  1  0  0  0  0  0  0  0  0  0
   -0.6777   -2.1767   -2.9919 C   0  0  0  0  0  0  0  0  0  0  0  0
    0.7420   -2.7034   -3.0085 C   0  0  0  0  0  0  0  0  0  0  0  0
    1.5023    1.6472    0.0426 H   0  0  0  0  0  0  0  0  0  0  0  0
    2.8761    1.2704   -1.0455 H   0  0  0  0  0  0  0  0  0  0  0  0
    3.1140    1.2789    0.7348 H   0  0  0  0  0  0  0  0  0  0  0  0
    4.6592   -0.0698   -0.4226 H   0  0  0  0  0  0  0  0  0  0  0  0
    6.2351   -1.9544   -0.5401 H   0  0  0  0  0  0  0  0  0  0  0  0
    6.7233   -4.3151   -0.4664 H   0  0  0  0  0  0  0  0  0  0  0  0
    5.4160   -5.3414   -1.0999 H   0  0  0  0  0  0  0  0  0  0  0  0
    5.6823   -5.2300    0.6484 H   0  0  0  0  0  0  0  0  0  0  0  0
    2.9941   -4.7051    0.1207 H   0  0  0  0  0  0  0  0  0  0  0  0
    0.8390   -4.0328    0.2874 H   0  0  0  0  0  0  0  0  0  0  0  0
    0.7575   -1.4862    1.9700 H   0  0  0  0  0  0  0  0  0  0  0  0
    1.1659   -3.1282    2.5273 H   0  0  0  0  0  0  0  0  0  0  0  0
   -1.2183   -2.6528    1.1620 H   0  0  0  0  0  0  0  0  0  0  0  0
    0.1625   -1.3481   -0.6374 H   0  0  0  0  0  0  0  0  0  0  0  0
   -0.5507   -4.0011   -1.7436 H   0  0  0  0  0  0  0  0  0  0  0  0
   -0.8195   -1.1010   -2.8425 H   0  0  0  0  0  0  0  0  0  0  0  0
   -1.4206   -2.6296   -3.6547 H   0  0  0  0  0  0  0  0  0  0  0  0
    1.5507   -1.9817   -2.8646 H   0  0  0  0  0  0  0  0  0  0  0  0
    0.9887   -3.5267   -3.6862 H   0  0  0  0  0  0  0  0  0  0  0  0
  1  2  1  0
  1 17  1  0
  1 18  1  0
  1 19  1  0
  2  3  1  0
  3  4  2  0
  3  9  1  0
  4  5  1  0
  4 20  1  0
  5  6  2  0
  5 21  1  0
  6  7  1  0
  6  8  1  0
  7 22  1  0
  7 23  1  0
  7 24  1  0
  8  9  2  0
  8 25  1  0
  9 10  1  0
 10 11  1  0
 10 13  1  0
 10 26  1  1
 11 12  1  0
 11 27  1  0
 11 28  1  0
 12 29  1  0
 13 14  1  0
 13 30  1  0
 14 15  1  0
 14 16  1  0
 14 31  1  1
 15 16  1  0
 15 32  1  0
 15 33  1  0
 16 34  1  0
 16 35  1  0
M  END

