
     RDKit          3D

 44 45  0  0  0  0  0  0  0  0999 V2000
    2.7623    0.7592   -1.9429 O   0  0  0  0  0  0  0  0  0  0  0  0
    2.2633   -0.2139   -1.4501 C   0  0  0  0  0  0  0  0  0  0  0  0
    0.9251   -0.4107   -1.5303 O   0  0  0  0  0  0  0  0  0  0  0  0
    3.0298   -1.2875   -0.6864 C   0  0  0  0  0  0  0  0  0  0  0  0
    4.5451   -1.1283   -0.7761 C   0  0  0  0  0  0  0  0  0  0  0  0
    5.2927   -2.1345    0.1031 C   0  0  0  0  0  0  0  0  0  0  0  0
    6.7322   -2.0049    0.0000 N   0  0  0  0  0  0  0  0  0  0  0  0
    7.5324   -3.0846   -0.3231 C   0  0  0  0  0  0  0  0  0  0  0  0
    7.0635   -4.1991   -0.5172 O   0  0  0  0  0  0  0  0  0  0  0  0
    8.8924   -2.8299   -0.4286 N   0  0  0  0  0  0  0  0  0  0  0  0
    9.8069   -3.9636   -0.4931 C   0  0  0  0  0  0  0  0  0  0  0  0
   10.8277   -3.7942   -1.6152 C   0  0  0  0  0  0  0  0  0  0  0  0
   11.6574   -2.4886   -1.4971 C   0  0  2  0  0  0  0  0  0  0  0  0
   12.2970   -2.1828   -2.7322 O   0  0  0  0  0  0  0  0  0  0  0  0
   12.7283   -2.5836   -0.3803 C   0  0  0  0  0  0  0  0  0  0  0  0
   12.6940   -1.7569    0.7572 C   0  0  0  0  0  0  0  0  0  0  0  0
   13.6515   -1.8193    1.7724 C   0  0  0  0  0  0  0  0  0  0  0  0
   14.7054   -2.7265    1.6802 C   0  0  0  0  0  0  0  0  0  0  0  0
   14.7932   -3.5522    0.5596 C   0  0  0  0  0  0  0  0  0  0  0  0
   13.8244   -3.4726   -0.4437 C   0  0  0  0  0  0  0  0  0  0  0  0
   14.0913   -4.5431   -1.8310 Cl  0  0  0  0  0  0  0  0  0  0  0  0
   10.6528   -1.3296   -1.3226 C   0  0  0  0  0  0  0  0  0  0  0  0
    9.5233   -1.5281   -0.2971 C   0  0  0  0  0  0  0  0  0  0  0  0
    0.6770   -1.2402   -1.0980 H   0  0  0  0  0  0  0  0  0  0  0  0
    2.7186   -2.2815   -1.0577 H   0  0  0  0  0  0  0  0  0  0  0  0
    2.6940   -1.2442    0.3676 H   0  0  0  0  0  0  0  0  0  0  0  0
    4.8085   -0.0957   -0.4921 H   0  0  0  0  0  0  0  0  0  0  0  0
    4.8685   -1.2461   -1.8228 H   0  0  0  0  0  0  0  0  0  0  0  0
    5.0562   -3.1671   -0.1910 H   0  0  0  0  0  0  0  0  0  0  0  0
    4.9694   -2.0211    1.1568 H   0  0  0  0  0  0  0  0  0  0  0  0
    7.1509   -1.1568    0.3552 H   0  0  0  0  0  0  0  0  0  0  0  0
    9.1995   -4.8619   -0.6538 H   0  0  0  0  0  0  0  0  0  0  0  0
   10.3279   -4.0818    0.4787 H   0  0  0  0  0  0  0  0  0  0  0  0
   10.3023   -3.7434   -2.5826 H   0  0  0  0  0  0  0  0  0  0  0  0
   11.4855   -4.6738   -1.6470 H   0  0  0  0  0  0  0  0  0  0  0  0
   12.9031   -2.9061   -2.9478 H   0  0  0  0  0  0  0  0  0  0  0  0
   11.8935   -1.0267    0.8580 H   0  0  0  0  0  0  0  0  0  0  0  0
   13.5695   -1.1515    2.6332 H   0  0  0  0  0  0  0  0  0  0  0  0
   15.4629   -2.7902    2.4648 H   0  0  0  0  0  0  0  0  0  0  0  0
   15.6159   -4.2601    0.4471 H   0  0  0  0  0  0  0  0  0  0  0  0
   10.1981   -1.2151   -2.3179 H   0  0  0  0  0  0  0  0  0  0  0  0
   11.1876   -0.3893   -1.1187 H   0  0  0  0  0  0  0  0  0  0  0  0
    8.7840   -0.7385   -0.4904 H   0  0  0  0  0  0  0  0  0  0  0  0
    9.8908   -1.3793    0.7376 H   0  0  0  0  0  0  0  0  0  0  0  0
  1  2  2  0
  2  3  1  0
  2  4  1  0
  3 24  1  0
  4  5  1  0
  4 25  1  0
  4 26  1  0
  5  6  1  0
  5 27  1  0
  5 28  1  0
  6  7  1  0
  6 29  1  0
  6 30  1  0
  7  8  1  0
  7 31  1  0
  8  9  2  0
  8 10  1  0
 10 11  1  0
 10 23  1  0
 11 12  1  0
 11 32  1  0
 11 33  1  0
 12 13  1  0
 12 34  1  0
 12 35  1  0
 13 14  1  6
 13 15  1  0
 13 22  1  0
 14 36  1  0
 15 16  2  0
 15 20  1  0
 16 17  1  0
 16 37  1  0
 17 18  2  0
 17 38  1  0
 18 19  1  0
 18 39  1  0
 19 20  2  0
 19 40  1  0
 20 21  1  0
 22 23  1  0
 22 41  1  0
 22 42  1  0
 23 43  1  0
 23 44  1  0
M  END

