
     RDKit          3D

 42 42  0  0  0  0  0  0  0  0999 V2000
    2.3747   -0.3956   -3.4253 C   0  0  0  0  0  0  0  0  0  0  0  0
    2.1406    0.0382   -1.9780 C   0  0  0  0  0  0  0  0  0  0  0  0
    2.8657   -0.8171   -0.9286 C   0  0  0  0  0  0  0  0  0  0  0  0
    4.3295   -0.7910   -1.0338 N   0  0  0  0  0  0  0  0  0  0  0  0
    5.0037    0.3628   -0.4505 C   0  0  0  0  0  0  0  0  0  0  0  0
    5.1030    0.3381    1.0682 C   0  0  1  0  0  0  0  0  0  0  0  0
    5.4773    1.6000    1.8065 C   0  0  0  0  0  0  0  0  0  0  0  0
    4.0855    1.0382    1.9358 C   0  0  0  0  0  0  0  0  0  0  0  0
    4.9595   -1.8935   -1.5750 C   0  0  0  0  0  0  0  0  0  0  0  0
    4.3072   -2.8369   -2.0033 O   0  0  0  0  0  0  0  0  0  0  0  0
    6.5080   -1.8844   -1.6452 C   0  0  1  0  0  0  0  0  0  0  0  0
    6.7974   -0.9472   -2.1588 H   0  0  0  0  0  0  0  0  0  0  0  0
    7.0754   -1.9411   -0.2850 N   0  0  0  0  0  0  0  0  0  0  0  0
    7.0884   -3.0364   -2.5069 C   0  0  1  0  0  0  0  0  0  0  0  0
    6.8657   -4.4334   -1.9045 C   0  0  0  0  0  0  0  0  0  0  0  0
    6.6562   -3.0013   -3.9866 C   0  0  0  0  0  0  0  0  0  0  0  0
    6.9753   -1.7100   -4.7445 C   0  0  0  0  0  0  0  0  0  0  0  0
    1.7978    0.2309   -4.1245 H   0  0  0  0  0  0  0  0  0  0  0  0
    2.0823   -1.4456   -3.5809 H   0  0  0  0  0  0  0  0  0  0  0  0
    3.4375   -0.3100   -3.7023 H   0  0  0  0  0  0  0  0  0  0  0  0
    1.0619   -0.0074   -1.7443 H   0  0  0  0  0  0  0  0  0  0  0  0
    2.4224    1.1007   -1.8575 H   0  0  0  0  0  0  0  0  0  0  0  0
    2.5582   -1.8659   -1.0288 H   0  0  0  0  0  0  0  0  0  0  0  0
    2.5862   -0.4792    0.0818 H   0  0  0  0  0  0  0  0  0  0  0  0
    4.4693    1.2778   -0.7624 H   0  0  0  0  0  0  0  0  0  0  0  0
    6.0080    0.4533   -0.8883 H   0  0  0  0  0  0  0  0  0  0  0  0
    5.5126   -0.5997    1.4568 H   0  0  0  0  0  0  0  0  0  0  0  0
    5.6036    2.5171    1.2215 H   0  0  0  0  0  0  0  0  0  0  0  0
    6.1572    1.5204    2.6592 H   0  0  0  0  0  0  0  0  0  0  0  0
    3.2730    1.5809    1.4423 H   0  0  0  0  0  0  0  0  0  0  0  0
    3.7968    0.5654    2.8787 H   0  0  0  0  0  0  0  0  0  0  0  0
    7.2560   -1.0084    0.0806 H   0  0  0  0  0  0  0  0  0  0  0  0
    7.9804   -2.4097   -0.3124 H   0  0  0  0  0  0  0  0  0  0  0  0
    8.1807   -2.8415   -2.4954 H   0  0  0  0  0  0  0  0  0  0  0  0
    5.8063   -4.7142   -1.9638 H   0  0  0  0  0  0  0  0  0  0  0  0
    7.1640   -4.4770   -0.8461 H   0  0  0  0  0  0  0  0  0  0  0  0
    7.4614   -5.1813   -2.4532 H   0  0  0  0  0  0  0  0  0  0  0  0
    5.5783   -3.2160   -4.0456 H   0  0  0  0  0  0  0  0  0  0  0  0
    7.1664   -3.8404   -4.4914 H   0  0  0  0  0  0  0  0  0  0  0  0
    6.3853   -0.8520   -4.3827 H   0  0  0  0  0  0  0  0  0  0  0  0
    6.7490   -1.8209   -5.8171 H   0  0  0  0  0  0  0  0  0  0  0  0
    8.0421   -1.4386   -4.6599 H   0  0  0  0  0  0  0  0  0  0  0  0
  1  2  1  0
  1 18  1  0
  1 19  1  0
  1 20  1  0
  2  3  1  0
  2 21  1  0
  2 22  1  0
  3  4  1  0
  3 23  1  0
  3 24  1  0
  4  5  1  0
  4  9  1  0
  5  6  1  0
  5 25  1  0
  5 26  1  0
  6  7  1  0
  6  8  1  0
  6 27  1  1
  7  8  1  0
  7 28  1  0
  7 29  1  0
  8 30  1  0
  8 31  1  0
  9 10  2  0
  9 11  1  0
 11 12  1  6
 11 13  1  0
 11 14  1  0
 13 32  1  0
 13 33  1  0
 14 15  1  0
 14 16  1  0
 14 34  1  6
 15 35  1  0
 15 36  1  0
 15 37  1  0
 16 17  1  0
 16 38  1  0
 16 39  1  0
 17 40  1  0
 17 41  1  0
 17 42  1  0
M  END

