
     RDKit          3D

 54 57  0  0  0  0  0  0  0  0999 V2000
    3.6300    2.6040    1.1721 C   0  0  0  0  0  0  0  0  0  0  0  0
    2.3048    2.0572    1.6777 C   0  0  1  0  0  0  0  0  0  0  0  0
    2.1230    2.4424    2.7057 H   0  0  0  0  0  0  0  0  0  0  0  0
    1.1010    2.4725    0.8111 C   0  0  0  0  0  0  0  0  0  0  0  0
   -0.1396    1.7189    1.2908 C   0  0  1  0  0  0  0  0  0  0  0  0
   -0.2617    1.9942    2.3571 H   0  0  0  0  0  0  0  0  0  0  0  0
   -1.4723    2.0659    0.6519 C   0  0  0  0  0  0  0  0  0  0  0  0
   -2.5226    1.3487    1.3190 O   0  0  0  0  0  0  0  0  0  0  0  0
   -2.2310    0.1494    1.8847 C   0  0  0  0  0  0  0  0  0  0  0  0
   -3.3693   -0.4131    2.3944 N   0  0  0  0  0  0  0  0  0  0  0  0
   -1.0930   -0.4369    1.9744 N   0  0  0  0  0  0  0  0  0  0  0  0
    0.0520    0.1839    1.3380 C   0  0  1  0  0  0  0  0  0  0  0  0
    0.2874   -0.6186   -0.0033 C   0  0  1  0  0  0  0  0  0  0  0  0
    0.5272   -1.6345    0.3454 H   0  0  0  0  0  0  0  0  0  0  0  0
   -1.2560   -0.8254   -1.0536 S   0  0  0  0  0  0  0  0  0  0  0  0
   -0.4897    0.0762   -2.3692 C   0  0  0  0  0  0  0  0  0  0  0  0
    0.8156    0.3225   -2.1281 C   0  0  0  0  0  0  0  0  0  0  0  0
    1.7066    1.0389   -2.9282 N   0  0  0  0  0  0  0  0  0  0  0  0
    1.4838    1.5108   -4.1906 C   0  0  0  0  0  0  0  0  0  0  0  0
    0.4447    1.3792   -4.8200 O   0  0  0  0  0  0  0  0  0  0  0  0
    2.6751    2.2409   -4.7613 C   0  0  0  0  0  0  0  0  0  0  0  0
    2.5987    2.7687   -6.0568 C   0  0  0  0  0  0  0  0  0  0  0  0
    3.7064    3.4368   -6.5654 C   0  0  0  0  0  0  0  0  0  0  0  0
    4.8476    3.5553   -5.7664 C   0  0  0  0  0  0  0  0  0  0  0  0
    5.9071    4.2301   -6.3361 O   0  0  0  0  0  0  0  0  0  0  0  0
    7.0831    4.4411   -5.6743 C   0  0  1  0  0  0  0  0  0  0  0  0
    6.8933    5.1447   -4.5359 F   0  0  0  0  0  0  0  0  0  0  0  0
    7.6730    3.2761   -5.3246 F   0  0  0  0  0  0  0  0  0  0  0  0
    4.8388    2.9962   -4.4774 C   0  0  0  0  0  0  0  0  0  0  0  0
    3.7708    2.3584   -4.0032 N   0  0  0  0  0  0  0  0  0  0  0  0
    1.3419   -0.1619   -0.9085 N   0  0  0  0  0  0  0  0  0  0  0  0
    2.5256   -1.0179   -0.9716 C   0  0  0  0  0  0  0  0  0  0  0  0
    1.2901   -0.0320    2.2416 C   0  0  0  0  0  0  0  0  0  0  0  0
    2.4347    0.6408    1.7584 O   0  0  0  0  0  0  0  0  0  0  0  0
    3.8319    2.2426    0.1513 H   0  0  0  0  0  0  0  0  0  0  0  0
    4.4537    2.2734    1.8224 H   0  0  0  0  0  0  0  0  0  0  0  0
    3.6163    3.7048    1.1542 H   0  0  0  0  0  0  0  0  0  0  0  0
    1.3150    2.2671   -0.2464 H   0  0  0  0  0  0  0  0  0  0  0  0
    0.9481    3.5613    0.9169 H   0  0  0  0  0  0  0  0  0  0  0  0
   -1.5021    1.8235   -0.4204 H   0  0  0  0  0  0  0  0  0  0  0  0
   -1.7130    3.1332    0.7791 H   0  0  0  0  0  0  0  0  0  0  0  0
   -4.1669    0.1906    2.5440 H   0  0  0  0  0  0  0  0  0  0  0  0
   -3.2367   -1.1953    3.0214 H   0  0  0  0  0  0  0  0  0  0  0  0
   -1.0427    0.4152   -3.2401 H   0  0  0  0  0  0  0  0  0  0  0  0
    2.6175    1.2827   -2.5437 H   0  0  0  0  0  0  0  0  0  0  0  0
    1.6785    2.6424   -6.6285 H   0  0  0  0  0  0  0  0  0  0  0  0
    3.7116    3.8705   -7.5676 H   0  0  0  0  0  0  0  0  0  0  0  0
    7.7455    5.0025   -6.3507 H   0  0  0  0  0  0  0  0  0  0  0  0
    5.7084    3.0656   -3.8212 H   0  0  0  0  0  0  0  0  0  0  0  0
    3.2335   -0.6306   -1.7183 H   0  0  0  0  0  0  0  0  0  0  0  0
    2.2767   -2.0608   -1.2536 H   0  0  0  0  0  0  0  0  0  0  0  0
    3.0351   -1.0074    0.0010 H   0  0  0  0  0  0  0  0  0  0  0  0
    1.5444   -1.1010    2.3072 H   0  0  0  0  0  0  0  0  0  0  0  0
    1.0281    0.3124    3.2623 H   0  0  0  0  0  0  0  0  0  0  0  0
  1  2  1  0
  1 35  1  0
  1 36  1  0
  1 37  1  0
  2  3  1  1
  2  4  1  0
  2 34  1  0
  4  5  1  0
  4 38  1  0
  4 39  1  0
  5  6  1  1
  5  7  1  0
  5 12  1  0
  7  8  1  0
  7 40  1  0
  7 41  1  0
  8  9  1  0
  9 10  1  0
  9 11  2  0
 10 42  1  0
 10 43  1  0
 12 11  1  1
 12 13  1  0
 12 33  1  0
 13 14  1  1
 13 15  1  0
 13 31  1  0
 15 16  1  0
 16 17  2  0
 16 44  1  0
 17 18  1  0
 17 31  1  0
 18 19  1  0
 18 45  1  0
 19 20  2  0
 19 21  1  0
 21 22  2  0
 21 30  1  0
 22 23  1  0
 22 46  1  0
 23 24  2  0
 23 47  1  0
 24 25  1  0
 24 29  1  0
 25 26  1  0
 26 27  1  0
 26 28  1  0
 26 48  1  6
 29 30  2  0
 29 49  1  0
 31 32  1  0
 32 50  1  0
 32 51  1  0
 32 52  1  0
 33 34  1  0
 33 53  1  0
 33 54  1  0
M  END

