
     RDKit          3D

 51 53  0  0  0  0  0  0  0  0999 V2000
    7.8901    2.6438    1.7644 C   0  0  0  0  0  0  0  0  0  0  0  0
    8.6010    1.4530    1.1291 C   0  0  0  0  0  0  0  0  0  0  0  0
    8.9562    1.8088   -0.6340 S   0  0  0  0  0  0  0  0  0  0  0  0
    9.9948    0.3714   -1.1516 C   0  0  2  0  0  0  0  0  0  0  0  0
   10.5703    0.0415   -0.2727 H   0  0  0  0  0  0  0  0  0  0  0  0
   10.9643    0.8932   -2.2285 C   0  0  0  0  0  0  0  0  0  0  0  0
   11.8371   -0.2132   -2.8293 C   0  0  0  0  0  0  0  0  0  0  0  0
   10.9750   -1.3469   -3.3884 C   0  0  0  0  0  0  0  0  0  0  0  0
   10.0476   -1.9055   -2.3048 C   0  0  0  0  0  0  0  0  0  0  0  0
    9.1506   -0.8164   -1.6794 C   0  0  1  0  0  0  0  0  0  0  0  0
    8.5276   -0.3969   -2.4891 H   0  0  0  0  0  0  0  0  0  0  0  0
    8.1883   -1.3281   -0.6782 N   0  0  0  0  0  0  0  0  0  0  0  0
    8.4531   -2.5569    0.0670 C   0  0  2  0  0  0  0  0  0  0  0  0
    8.8110   -3.3911   -0.5651 H   0  0  0  0  0  0  0  0  0  0  0  0
    7.2196   -2.9785    0.8833 C   0  0  0  0  0  0  0  0  0  0  0  0
    7.4018   -2.3091    2.2532 C   0  0  0  0  0  0  0  0  0  0  0  0
    8.8591   -2.2210    2.3780 N   0  0  0  0  0  0  0  0  0  0  0  0
    9.4688   -1.8180    3.5763 C   0  0  0  0  0  0  0  0  0  0  0  0
    9.1331   -0.7866    4.4438 C   0  0  0  0  0  0  0  0  0  0  0  0
   10.0735   -0.8904    5.5004 C   0  0  0  0  0  0  0  0  0  0  0  0
   10.2024   -0.0330    6.7224 C   0  0  0  0  0  0  0  0  0  0  0  0
   10.9107   -1.9047    5.2884 N   0  0  0  0  0  0  0  0  0  0  0  0
   10.5301   -2.4736    4.1307 N   0  0  0  0  0  0  0  0  0  0  0  0
   11.2551   -3.6178    3.6149 C   0  0  0  0  0  0  0  0  0  0  0  0
    9.5101   -2.2973    1.1603 C   0  0  0  0  0  0  0  0  0  0  0  0
   10.7061   -2.1587    0.9929 O   0  0  0  0  0  0  0  0  0  0  0  0
    7.6735    2.4415    2.8263 H   0  0  0  0  0  0  0  0  0  0  0  0
    6.9340    2.8578    1.2597 H   0  0  0  0  0  0  0  0  0  0  0  0
    8.5089    3.5537    1.7123 H   0  0  0  0  0  0  0  0  0  0  0  0
    7.9845    0.5445    1.1755 H   0  0  0  0  0  0  0  0  0  0  0  0
    9.5511    1.2457    1.6472 H   0  0  0  0  0  0  0  0  0  0  0  0
   11.5850    1.6914   -1.7926 H   0  0  0  0  0  0  0  0  0  0  0  0
   10.3763    1.3674   -3.0370 H   0  0  0  0  0  0  0  0  0  0  0  0
   12.5094   -0.6157   -2.0504 H   0  0  0  0  0  0  0  0  0  0  0  0
   12.4848    0.2082   -3.6166 H   0  0  0  0  0  0  0  0  0  0  0  0
   11.6083   -2.1545   -3.7925 H   0  0  0  0  0  0  0  0  0  0  0  0
   10.3745   -0.9676   -4.2363 H   0  0  0  0  0  0  0  0  0  0  0  0
   10.6611   -2.3637   -1.5120 H   0  0  0  0  0  0  0  0  0  0  0  0
    9.4081   -2.7021   -2.7242 H   0  0  0  0  0  0  0  0  0  0  0  0
    7.2666   -1.3928   -1.0985 H   0  0  0  0  0  0  0  0  0  0  0  0
    7.2179   -4.0728    1.0045 H   0  0  0  0  0  0  0  0  0  0  0  0
    6.2720   -2.6970    0.4000 H   0  0  0  0  0  0  0  0  0  0  0  0
    6.9816   -2.8979    3.0823 H   0  0  0  0  0  0  0  0  0  0  0  0
    6.9460   -1.3041    2.2847 H   0  0  0  0  0  0  0  0  0  0  0  0
    8.3312   -0.0626    4.3219 H   0  0  0  0  0  0  0  0  0  0  0  0
    9.2876   -0.0628    7.3373 H   0  0  0  0  0  0  0  0  0  0  0  0
   10.3859    1.0220    6.4597 H   0  0  0  0  0  0  0  0  0  0  0  0
   11.0431   -0.3876    7.3348 H   0  0  0  0  0  0  0  0  0  0  0  0
   11.8136   -4.0523    4.4525 H   0  0  0  0  0  0  0  0  0  0  0  0
   11.9383   -3.3198    2.8069 H   0  0  0  0  0  0  0  0  0  0  0  0
   10.5485   -4.3616    3.2174 H   0  0  0  0  0  0  0  0  0  0  0  0
  1  2  1  0
  1 27  1  0
  1 28  1  0
  1 29  1  0
  2  3  1  0
  2 30  1  0
  2 31  1  0
  3  4  1  0
  4  5  1  1
  4  6  1  0
  4 10  1  0
  6  7  1  0
  6 32  1  0
  6 33  1  0
  7  8  1  0
  7 34  1  0
  7 35  1  0
  8  9  1  0
  8 36  1  0
  8 37  1  0
  9 10  1  0
  9 38  1  0
  9 39  1  0
 10 11  1  6
 10 12  1  0
 12 13  1  0
 12 40  1  0
 13 14  1  6
 13 15  1  0
 13 25  1  0
 15 16  1  0
 15 41  1  0
 15 42  1  0
 16 17  1  0
 16 43  1  0
 16 44  1  0
 17 18  1  0
 17 25  1  0
 18 19  2  0
 18 23  1  0
 19 20  1  0
 19 45  1  0
 20 21  1  0
 20 22  2  0
 21 46  1  0
 21 47  1  0
 21 48  1  0
 22 23  1  0
 23 24  1  0
 24 49  1  0
 24 50  1  0
 24 51  1  0
 25 26  2  0
M  END

