
     RDKit          3D

 57 60  0  0  0  0  0  0  0  0999 V2000
    1.1460   -0.4758   -3.9435 C   0  0  0  0  0  0  0  0  0  0  0  0
    2.6276   -0.1319   -4.0694 C   0  0  2  0  0  0  0  0  0  0  0  0
    2.9932    0.4595   -5.4497 C   0  0  0  0  0  0  0  0  0  0  0  0
    4.3906   -0.0788   -5.7644 C   0  0  0  0  0  0  0  0  0  0  0  0
    4.5875   -1.2473   -4.8103 C   0  0  0  0  0  0  0  0  0  0  0  0
    5.5466   -1.9924   -4.7666 O   0  0  0  0  0  0  0  0  0  0  0  0
    3.5178   -1.2850   -3.9286 N   0  0  0  0  0  0  0  0  0  0  0  0
    3.7498   -1.7331   -2.5486 C   0  0  2  0  0  0  0  0  0  0  0  0
    2.8829   -2.9650   -2.1896 C   0  0  0  0  0  0  0  0  0  0  0  0
    1.7296   -2.8324   -1.7928 O   0  0  0  0  0  0  0  0  0  0  0  0
    3.4433   -4.1902   -2.3449 N   0  0  0  0  0  0  0  0  0  0  0  0
    4.8160   -4.5276   -2.7684 C   0  0  0  0  0  0  0  0  0  0  0  0
    4.7114   -6.0103   -3.1286 C   0  0  0  0  0  0  0  0  0  0  0  0
    3.6546   -6.5390   -2.1407 C   0  0  2  0  0  0  0  0  0  0  0  0
    2.9850   -7.7080   -2.5336 O   0  0  0  0  0  0  0  0  0  0  0  0
    3.7159   -8.9079   -2.3960 C   0  0  0  0  0  0  0  0  0  0  0  0
    2.8065  -10.0712   -2.7874 C   0  0  0  0  0  0  0  0  0  0  0  0
    3.4840  -11.3496   -2.6261 N   0  0  0  0  0  0  0  0  0  0  0  0
    3.3502  -11.9638   -1.3063 C   0  0  0  0  0  0  0  0  0  0  0  0
    2.0284  -12.7298   -1.1154 C   0  0  0  0  0  0  0  0  0  0  0  0
    1.8315  -13.7608   -2.2358 C   0  0  0  0  0  0  0  0  0  0  0  0
    1.9794  -13.1023   -3.6147 C   0  0  0  0  0  0  0  0  0  0  0  0
    3.3048  -12.3251   -3.6972 C   0  0  0  0  0  0  0  0  0  0  0  0
    2.6480   -5.3856   -2.0546 C   0  0  0  0  0  0  0  0  0  0  0  0
    3.4239   -0.5345   -1.6069 C   0  0  0  0  0  0  0  0  0  0  0  0
    3.1844    0.9615   -2.6470 S   0  0  0  0  0  0  0  0  0  0  0  0
    0.8590   -1.1809   -4.7418 H   0  0  0  0  0  0  0  0  0  0  0  0
    0.5460    0.4406   -4.0495 H   0  0  0  0  0  0  0  0  0  0  0  0
    0.9144   -0.9490   -2.9806 H   0  0  0  0  0  0  0  0  0  0  0  0
    2.9328    1.5569   -5.4468 H   0  0  0  0  0  0  0  0  0  0  0  0
    2.2618    0.0956   -6.1879 H   0  0  0  0  0  0  0  0  0  0  0  0
    5.1875    0.6445   -5.5267 H   0  0  0  0  0  0  0  0  0  0  0  0
    4.5382   -0.3921   -6.8079 H   0  0  0  0  0  0  0  0  0  0  0  0
    4.8156   -1.9902   -2.4915 H   0  0  0  0  0  0  0  0  0  0  0  0
    5.5246   -4.3794   -1.9309 H   0  0  0  0  0  0  0  0  0  0  0  0
    5.1528   -3.8998   -3.6040 H   0  0  0  0  0  0  0  0  0  0  0  0
    5.6806   -6.5259   -3.0662 H   0  0  0  0  0  0  0  0  0  0  0  0
    4.3181   -6.1345   -4.1514 H   0  0  0  0  0  0  0  0  0  0  0  0
    4.1313   -6.6950   -1.1497 H   0  0  0  0  0  0  0  0  0  0  0  0
    4.0666   -9.0283   -1.3500 H   0  0  0  0  0  0  0  0  0  0  0  0
    4.6160   -8.9173   -3.0406 H   0  0  0  0  0  0  0  0  0  0  0  0
    2.5198   -9.9355   -3.8424 H   0  0  0  0  0  0  0  0  0  0  0  0
    1.8667   -9.9863   -2.2043 H   0  0  0  0  0  0  0  0  0  0  0  0
    3.4632  -11.1870   -0.5330 H   0  0  0  0  0  0  0  0  0  0  0  0
    4.1942  -12.6655   -1.1647 H   0  0  0  0  0  0  0  0  0  0  0  0
    1.1848  -12.0160   -1.1191 H   0  0  0  0  0  0  0  0  0  0  0  0
    2.0185  -13.2189   -0.1261 H   0  0  0  0  0  0  0  0  0  0  0  0
    0.8509  -14.2568   -2.1414 H   0  0  0  0  0  0  0  0  0  0  0  0
    2.5935  -14.5566   -2.1332 H   0  0  0  0  0  0  0  0  0  0  0  0
    1.1357  -12.4097   -3.7889 H   0  0  0  0  0  0  0  0  0  0  0  0
    1.9358  -13.8593   -4.4167 H   0  0  0  0  0  0  0  0  0  0  0  0
    3.4004  -11.8117   -4.6673 H   0  0  0  0  0  0  0  0  0  0  0  0
    4.1418  -13.0478   -3.6431 H   0  0  0  0  0  0  0  0  0  0  0  0
    2.1528   -5.3011   -1.0762 H   0  0  0  0  0  0  0  0  0  0  0  0
    1.8573   -5.5328   -2.8106 H   0  0  0  0  0  0  0  0  0  0  0  0
    4.2499   -0.3404   -0.9087 H   0  0  0  0  0  0  0  0  0  0  0  0
    2.5113   -0.7491   -1.0361 H   0  0  0  0  0  0  0  0  0  0  0  0
  2  1  1  6
  1 27  1  0
  1 28  1  0
  1 29  1  0
  2  3  1  0
  2  7  1  0
  2 26  1  0
  3  4  1  0
  3 30  1  0
  3 31  1  0
  4  5  1  0
  4 32  1  0
  4 33  1  0
  5  6  2  0
  5  7  1  0
  7  8  1  0
  8  9  1  0
  8 25  1  0
  8 34  1  6
  9 10  2  0
  9 11  1  0
 11 12  1  0
 11 24  1  0
 12 13  1  0
 12 35  1  0
 12 36  1  0
 13 14  1  0
 13 37  1  0
 13 38  1  0
 14 15  1  0
 14 24  1  0
 14 39  1  1
 15 16  1  0
 16 17  1  0
 16 40  1  0
 16 41  1  0
 17 18  1  0
 17 42  1  0
 17 43  1  0
 18 19  1  0
 18 23  1  0
 19 20  1  0
 19 44  1  0
 19 45  1  0
 20 21  1  0
 20 46  1  0
 20 47  1  0
 21 22  1  0
 21 48  1  0
 21 49  1  0
 22 23  1  0
 22 50  1  0
 22 51  1  0
 23 52  1  0
 23 53  1  0
 24 54  1  0
 24 55  1  0
 25 26  1  0
 25 56  1  0
 25 57  1  0
M  END

