
     RDKit          3D

 41 41  0  0  0  0  0  0  0  0999 V2000
    1.3480   -0.3525   -0.5041 C   0  0  0  0  0  0  0  0  0  0  0  0
    2.8070   -0.1833   -0.0838 C   0  0  0  0  0  0  0  0  0  0  0  0
    3.0671   -0.2454    1.4487 C   0  0  1  0  0  0  0  0  0  0  0  0
    2.3520    0.8628    2.1048 C   0  0  0  0  0  0  0  0  0  0  0  0
    1.7972    1.7319    2.6365 N   0  0  0  0  0  0  0  0  0  0  0  0
    2.5748   -1.5792    2.1141 C   0  0  0  0  0  0  0  0  0  0  0  0
    3.0911   -2.8698    1.4785 C   0  0  0  0  0  0  0  0  0  0  0  0
    4.6037   -0.1178    1.6870 C   0  0  0  0  0  0  0  0  0  0  0  0
    5.3885   -0.7279    0.9780 O   0  0  0  0  0  0  0  0  0  0  0  0
    4.9962    0.6604    2.7290 N   0  0  0  0  0  0  0  0  0  0  0  0
    6.4008    0.8349    3.0808 C   0  0  0  0  0  0  0  0  0  0  0  0
    6.8854   -0.1243    4.1538 C   0  0  0  0  0  0  0  0  0  0  0  0
    7.1355   -1.4704    3.8319 C   0  0  0  0  0  0  0  0  0  0  0  0
    7.5565   -2.3682    4.8128 C   0  0  0  0  0  0  0  0  0  0  0  0
    7.7400   -1.9097    6.1212 C   0  0  0  0  0  0  0  0  0  0  0  0
    8.2716   -3.0684    7.3982 S   0  0  1  0  0  0  0  0  0  0  0  0
   10.0772   -2.9950    7.3445 C   0  0  0  0  0  0  0  0  0  0  0  0
    7.8549   -2.5258    8.6988 O   0  0  0  0  0  0  0  0  0  0  0  0
    7.8804   -4.4189    6.9710 O   0  0  0  0  0  0  0  0  0  0  0  0
    7.4883   -0.5814    6.4684 C   0  0  0  0  0  0  0  0  0  0  0  0
    7.0644    0.3068    5.4763 C   0  0  0  0  0  0  0  0  0  0  0  0
    1.2564   -0.2402   -1.5955 H   0  0  0  0  0  0  0  0  0  0  0  0
    0.6965    0.4043   -0.0382 H   0  0  0  0  0  0  0  0  0  0  0  0
    0.9506   -1.3458   -0.2442 H   0  0  0  0  0  0  0  0  0  0  0  0
    3.1877    0.7847   -0.4491 H   0  0  0  0  0  0  0  0  0  0  0  0
    3.4455   -0.9502   -0.5441 H   0  0  0  0  0  0  0  0  0  0  0  0
    1.4732   -1.5705    2.1031 H   0  0  0  0  0  0  0  0  0  0  0  0
    2.8643   -1.5439    3.1776 H   0  0  0  0  0  0  0  0  0  0  0  0
    2.7205   -2.9995    0.4502 H   0  0  0  0  0  0  0  0  0  0  0  0
    2.7409   -3.7331    2.0657 H   0  0  0  0  0  0  0  0  0  0  0  0
    4.1888   -2.8998    1.4422 H   0  0  0  0  0  0  0  0  0  0  0  0
    4.2924    1.1257    3.2921 H   0  0  0  0  0  0  0  0  0  0  0  0
    6.5460    1.8745    3.4115 H   0  0  0  0  0  0  0  0  0  0  0  0
    6.9802    0.6852    2.1586 H   0  0  0  0  0  0  0  0  0  0  0  0
    6.9878   -1.8076    2.8030 H   0  0  0  0  0  0  0  0  0  0  0  0
    7.7309   -3.4206    4.5793 H   0  0  0  0  0  0  0  0  0  0  0  0
   10.4068   -1.9754    7.5819 H   0  0  0  0  0  0  0  0  0  0  0  0
   10.4253   -3.3148    6.3540 H   0  0  0  0  0  0  0  0  0  0  0  0
   10.4121   -3.7002    8.1185 H   0  0  0  0  0  0  0  0  0  0  0  0
    7.6081   -0.2606    7.5051 H   0  0  0  0  0  0  0  0  0  0  0  0
    6.8658    1.3499    5.7388 H   0  0  0  0  0  0  0  0  0  0  0  0
  1  2  1  0
  1 22  1  0
  1 23  1  0
  1 24  1  0
  2  3  1  0
  2 25  1  0
  2 26  1  0
  3  4  1  1
  3  6  1  0
  3  8  1  0
  4  5  3  0
  6  7  1  0
  6 27  1  0
  6 28  1  0
  7 29  1  0
  7 30  1  0
  7 31  1  0
  8  9  2  0
  8 10  1  0
 10 11  1  0
 10 32  1  0
 11 12  1  0
 11 33  1  0
 11 34  1  0
 12 13  2  0
 12 21  1  0
 13 14  1  0
 13 35  1  0
 14 15  2  0
 14 36  1  0
 15 16  1  0
 15 20  1  0
 16 17  1  1
 16 18  2  0
 16 19  2  0
 17 37  1  0
 17 38  1  0
 17 39  1  0
 20 21  2  0
 20 40  1  0
 21 41  1  0
M  END

