
     RDKit          3D

 40 41  0  0  0  0  0  0  0  0999 V2000
    3.4397   -0.3230   -5.6204 C   0  0  0  0  0  0  0  0  0  0  0  0
    2.8937   -0.5064   -4.2049 C   0  0  0  0  0  0  0  0  0  0  0  0
    3.3727    0.5687   -3.2234 C   0  0  0  0  0  0  0  0  0  0  0  0
    4.8060    0.5190   -3.0464 N   0  0  0  0  0  0  0  0  0  0  0  0
    5.3726    1.2036   -2.1214 C   0  0  0  0  0  0  0  0  0  0  0  0
    4.7170    2.1428   -1.3323 N   0  0  0  0  0  0  0  0  0  0  0  0
    5.0622    2.4718   -0.0168 N   0  0  0  0  0  0  0  0  0  0  0  0
    6.7388    1.0328   -1.8274 N   0  0  0  0  0  0  0  0  0  0  0  0
    7.4082   -0.1737   -2.3393 C   0  0  0  0  0  0  0  0  0  0  0  0
    8.0168   -1.0493   -1.2426 C   0  0  0  0  0  0  0  0  0  0  0  0
    9.1562   -0.4020   -0.4516 C   0  0  0  0  0  0  0  0  0  0  0  0
    8.7689    0.9077    0.2603 C   0  0  0  0  0  0  0  0  0  0  0  0
    8.5923    2.1164   -0.6334 C   0  0  0  0  0  0  0  0  0  0  0  0
    9.4257    3.2357   -0.4832 C   0  0  0  0  0  0  0  0  0  0  0  0
    9.2508    4.3927   -1.2459 C   0  0  0  0  0  0  0  0  0  0  0  0
    8.2253    4.4419   -2.1936 C   0  0  0  0  0  0  0  0  0  0  0  0
    7.3983    3.3333   -2.3797 C   0  0  0  0  0  0  0  0  0  0  0  0
    7.5668    2.1715   -1.6063 C   0  0  0  0  0  0  0  0  0  0  0  0
    3.1190   -1.1398   -6.2869 H   0  0  0  0  0  0  0  0  0  0  0  0
    4.5398   -0.2986   -5.6067 H   0  0  0  0  0  0  0  0  0  0  0  0
    3.0900    0.6258   -6.0628 H   0  0  0  0  0  0  0  0  0  0  0  0
    3.1990   -1.4916   -3.8108 H   0  0  0  0  0  0  0  0  0  0  0  0
    1.7892   -0.5019   -4.2206 H   0  0  0  0  0  0  0  0  0  0  0  0
    2.8347    0.4374   -2.2581 H   0  0  0  0  0  0  0  0  0  0  0  0
    3.0536    1.5610   -3.6132 H   0  0  0  0  0  0  0  0  0  0  0  0
    3.7267    2.2412   -1.5161 H   0  0  0  0  0  0  0  0  0  0  0  0
    5.8388    3.1337   -0.0159 H   0  0  0  0  0  0  0  0  0  0  0  0
    5.3687    1.6413    0.4935 H   0  0  0  0  0  0  0  0  0  0  0  0
    8.1871    0.1262   -3.0632 H   0  0  0  0  0  0  0  0  0  0  0  0
    6.6486   -0.7324   -2.8997 H   0  0  0  0  0  0  0  0  0  0  0  0
    8.3840   -1.9781   -1.7134 H   0  0  0  0  0  0  0  0  0  0  0  0
    7.2118   -1.3507   -0.5482 H   0  0  0  0  0  0  0  0  0  0  0  0
   10.0151   -0.2088   -1.1192 H   0  0  0  0  0  0  0  0  0  0  0  0
    9.5114   -1.1193    0.3078 H   0  0  0  0  0  0  0  0  0  0  0  0
    9.5348    1.1464    1.0146 H   0  0  0  0  0  0  0  0  0  0  0  0
    7.8276    0.7354    0.8160 H   0  0  0  0  0  0  0  0  0  0  0  0
   10.2213    3.2001    0.2668 H   0  0  0  0  0  0  0  0  0  0  0  0
    9.9108    5.2510   -1.0987 H   0  0  0  0  0  0  0  0  0  0  0  0
    8.0783    5.3368   -2.8036 H   0  0  0  0  0  0  0  0  0  0  0  0
    6.6130    3.3561   -3.1375 H   0  0  0  0  0  0  0  0  0  0  0  0
  1  2  1  0
  1 19  1  0
  1 20  1  0
  1 21  1  0
  2  3  1  0
  2 22  1  0
  2 23  1  0
  3  4  1  0
  3 24  1  0
  3 25  1  0
  4  5  2  0
  5  6  1  0
  5  8  1  0
  6  7  1  0
  6 26  1  0
  7 27  1  0
  7 28  1  0
  8  9  1  0
  8 18  1  0
  9 10  1  0
  9 29  1  0
  9 30  1  0
 10 11  1  0
 10 31  1  0
 10 32  1  0
 11 12  1  0
 11 33  1  0
 11 34  1  0
 12 13  1  0
 12 35  1  0
 12 36  1  0
 13 14  2  0
 13 18  1  0
 14 15  1  0
 14 37  1  0
 15 16  2  0
 15 38  1  0
 16 17  1  0
 16 39  1  0
 17 18  2  0
 17 40  1  0
M  END

