
     RDKit          3D

 62 65  0  0  0  0  0  0  0  0999 V2000
    0.8936    1.0637   -2.4876 C   0  0  0  0  0  0  0  0  0  0  0  0
    2.2983    1.4262   -2.0647 C   0  0  0  0  0  0  0  0  0  0  0  0
    2.6853    2.7672   -2.0144 C   0  0  0  0  0  0  0  0  0  0  0  0
    3.9898    3.1004   -1.6216 C   0  0  0  0  0  0  0  0  0  0  0  0
    4.6023    4.3368   -1.4942 N   0  0  0  0  0  0  0  0  0  0  0  0
    5.8251    4.0731   -1.0998 C   0  0  0  0  0  0  0  0  0  0  0  0
    6.9030    5.0678   -0.8066 C   0  0  0  0  0  0  0  0  0  0  0  0
    7.3194    5.0626    0.6853 C   0  0  0  0  0  0  0  0  0  0  0  0
    8.7001    5.4820    0.9238 N   0  0  0  0  0  0  0  0  0  0  0  0
    9.6924    4.5328    0.8331 C   0  0  0  0  0  0  0  0  0  0  0  0
    9.4077    2.9022    0.4574 S   0  0  0  0  0  0  0  0  0  0  0  0
   10.9661    4.9547    1.0612 N   0  0  0  0  0  0  0  0  0  0  0  0
   12.1344    4.0865    1.0716 C   0  0  0  0  0  0  0  0  0  0  0  0
   13.4202    4.9226    1.1308 C   0  0  0  0  0  0  0  0  0  0  0  0
   14.6671    4.0654    1.1465 C   0  0  0  0  0  0  0  0  0  0  0  0
   15.2474    3.6229   -0.0531 C   0  0  0  0  0  0  0  0  0  0  0  0
   16.3774    2.8012   -0.0433 C   0  0  0  0  0  0  0  0  0  0  0  0
   16.9475    2.4061    1.1708 C   0  0  0  0  0  0  0  0  0  0  0  0
   16.3800    2.8393    2.3724 C   0  0  0  0  0  0  0  0  0  0  0  0
   15.2495    3.6613    2.3579 C   0  0  0  0  0  0  0  0  0  0  0  0
    9.0175    6.9070    1.0987 C   0  0  1  0  0  0  0  0  0  0  0  0
    9.5794    7.6309   -0.1512 C   0  0  0  0  0  0  0  0  0  0  0  0
    9.4359    9.1405    0.1645 C   0  0  0  0  0  0  0  0  0  0  0  0
    8.4883    9.2267    1.3949 C   0  0  0  0  0  0  0  0  0  0  0  0
    7.8609    7.8292    1.5186 C   0  0  0  0  0  0  0  0  0  0  0  0
    6.0654    2.7229   -0.9509 N   0  0  0  0  0  0  0  0  0  0  0  0
    6.9547    2.3337   -0.6424 H   0  0  0  0  0  0  0  0  0  0  0  0
    4.8968    2.0663   -1.2813 C   0  0  0  0  0  0  0  0  0  0  0  0
    4.5294    0.7182   -1.3257 C   0  0  0  0  0  0  0  0  0  0  0  0
    3.2263    0.3950   -1.7182 C   0  0  0  0  0  0  0  0  0  0  0  0
    2.8015   -1.0532   -1.7754 C   0  0  0  0  0  0  0  0  0  0  0  0
    0.3052    1.9632   -2.7203 H   0  0  0  0  0  0  0  0  0  0  0  0
    0.3559    0.5080   -1.6997 H   0  0  0  0  0  0  0  0  0  0  0  0
    0.8858    0.4191   -3.3837 H   0  0  0  0  0  0  0  0  0  0  0  0
    1.9823    3.5612   -2.2783 H   0  0  0  0  0  0  0  0  0  0  0  0
    6.5460    6.0578   -1.1241 H   0  0  0  0  0  0  0  0  0  0  0  0
    7.7921    4.8151   -1.4070 H   0  0  0  0  0  0  0  0  0  0  0  0
    7.2291    4.0449    1.0827 H   0  0  0  0  0  0  0  0  0  0  0  0
    6.6437    5.6977    1.2709 H   0  0  0  0  0  0  0  0  0  0  0  0
   11.1092    5.8950    1.4069 H   0  0  0  0  0  0  0  0  0  0  0  0
   12.1182    3.4601    0.1669 H   0  0  0  0  0  0  0  0  0  0  0  0
   12.0926    3.3851    1.9241 H   0  0  0  0  0  0  0  0  0  0  0  0
   13.4022    5.5574    2.0349 H   0  0  0  0  0  0  0  0  0  0  0  0
   13.4446    5.6026    0.2621 H   0  0  0  0  0  0  0  0  0  0  0  0
   14.8101    3.9296   -1.0080 H   0  0  0  0  0  0  0  0  0  0  0  0
   16.8162    2.4701   -0.9881 H   0  0  0  0  0  0  0  0  0  0  0  0
   17.8326    1.7651    1.1800 H   0  0  0  0  0  0  0  0  0  0  0  0
   16.8204    2.5384    3.3265 H   0  0  0  0  0  0  0  0  0  0  0  0
   14.8143    3.9983    3.3036 H   0  0  0  0  0  0  0  0  0  0  0  0
    9.7581    6.9869    1.9176 H   0  0  0  0  0  0  0  0  0  0  0  0
    8.9596    7.3482   -1.0166 H   0  0  0  0  0  0  0  0  0  0  0  0
   10.6103    7.3325   -0.3908 H   0  0  0  0  0  0  0  0  0  0  0  0
    9.0239    9.6815   -0.7007 H   0  0  0  0  0  0  0  0  0  0  0  0
   10.4096    9.6047    0.3839 H   0  0  0  0  0  0  0  0  0  0  0  0
    7.7277   10.0149    1.2949 H   0  0  0  0  0  0  0  0  0  0  0  0
    9.0649    9.4577    2.3057 H   0  0  0  0  0  0  0  0  0  0  0  0
    7.0228    7.7362    0.8097 H   0  0  0  0  0  0  0  0  0  0  0  0
    7.4745    7.6100    2.5257 H   0  0  0  0  0  0  0  0  0  0  0  0
    5.2372   -0.0719   -1.0617 H   0  0  0  0  0  0  0  0  0  0  0  0
    3.6228   -1.7230   -1.4811 H   0  0  0  0  0  0  0  0  0  0  0  0
    2.4784   -1.3464   -2.7892 H   0  0  0  0  0  0  0  0  0  0  0  0
    1.9478   -1.2574   -1.1062 H   0  0  0  0  0  0  0  0  0  0  0  0
  1  2  1  0
  1 32  1  0
  1 33  1  0
  1 34  1  0
  2  3  2  0
  2 30  1  0
  3  4  1  0
  3 35  1  0
  4  5  1  0
  4 28  2  0
  5  6  2  0
  6  7  1  0
  6 26  1  0
  7  8  1  0
  7 36  1  0
  7 37  1  0
  8  9  1  0
  8 38  1  0
  8 39  1  0
  9 10  1  0
  9 21  1  0
 10 11  2  0
 10 12  1  0
 12 13  1  0
 12 40  1  0
 13 14  1  0
 13 41  1  0
 13 42  1  0
 14 15  1  0
 14 43  1  0
 14 44  1  0
 15 16  2  0
 15 20  1  0
 16 17  1  0
 16 45  1  0
 17 18  2  0
 17 46  1  0
 18 19  1  0
 18 47  1  0
 19 20  2  0
 19 48  1  0
 20 49  1  0
 21 22  1  0
 21 25  1  0
 21 50  1  1
 22 23  1  0
 22 51  1  0
 22 52  1  0
 23 24  1  0
 23 53  1  0
 23 54  1  0
 24 25  1  0
 24 55  1  0
 24 56  1  0
 25 57  1  0
 25 58  1  0
 26 27  1  0
 26 28  1  0
 28 29  1  0
 29 30  2  0
 29 59  1  0
 30 31  1  0
 31 60  1  0
 31 61  1  0
 31 62  1  0
M  END

