
     RDKit          3D

 27 27  0  0  0  0  0  0  0  0999 V2000
    1.0384    0.0761    0.4914 C   0  0  0  0  0  0  0  0  0  0  0  0
    2.5633    0.1873    0.5279 C   0  0  1  0  0  0  0  0  0  0  0  0
    3.2349   -0.6589   -0.5704 C   0  0  0  0  0  0  0  0  0  0  0  0
    3.0064    1.6528    0.4800 C   0  0  0  0  0  0  0  0  0  0  0  0
    2.2157    2.5687    0.4304 O   0  0  0  0  0  0  0  0  0  0  0  0
    4.5041    1.9212    0.5223 C   0  0  0  0  0  0  0  0  0  0  0  0
    4.7891    3.7167    0.7032 S   0  0  0  0  0  0  0  0  0  0  0  0
    6.5472    3.6606    0.7635 C   0  0  0  0  0  0  0  0  0  0  0  0
    7.2937    2.5956    0.6875 N   0  0  0  0  0  0  0  0  0  0  0  0
    8.5780    3.0802    0.7822 N   0  0  0  0  0  0  0  0  0  0  0  0
    9.3705    2.4530    0.7490 H   0  0  0  0  0  0  0  0  0  0  0  0
    8.6529    4.4468    0.9148 C   0  0  0  0  0  0  0  0  0  0  0  0
    9.6172    5.1766    1.0204 O   0  0  0  0  0  0  0  0  0  0  0  0
    7.2910    4.8128    0.9015 N   0  0  0  0  0  0  0  0  0  0  0  0
    6.8330    6.1796    1.0171 C   0  0  0  0  0  0  0  0  0  0  0  0
    0.7275   -0.9730    0.6128 H   0  0  0  0  0  0  0  0  0  0  0  0
    0.6411    0.4458   -0.4667 H   0  0  0  0  0  0  0  0  0  0  0  0
    0.5738    0.6738    1.2883 H   0  0  0  0  0  0  0  0  0  0  0  0
    2.9267   -0.1901    1.5043 H   0  0  0  0  0  0  0  0  0  0  0  0
    2.9769   -0.2812   -1.5736 H   0  0  0  0  0  0  0  0  0  0  0  0
    2.8858   -1.7011   -0.5082 H   0  0  0  0  0  0  0  0  0  0  0  0
    4.3318   -0.6747   -0.4815 H   0  0  0  0  0  0  0  0  0  0  0  0
    4.9904    1.5672   -0.4002 H   0  0  0  0  0  0  0  0  0  0  0  0
    4.9864    1.3781    1.3502 H   0  0  0  0  0  0  0  0  0  0  0  0
    7.7286    6.8122    1.0869 H   0  0  0  0  0  0  0  0  0  0  0  0
    6.2185    6.3201    1.9207 H   0  0  0  0  0  0  0  0  0  0  0  0
    6.2448    6.4775    0.1346 H   0  0  0  0  0  0  0  0  0  0  0  0
  1  2  1  0
  1 16  1  0
  1 17  1  0
  1 18  1  0
  2  3  1  0
  2  4  1  0
  2 19  1  1
  3 20  1  0
  3 21  1  0
  3 22  1  0
  4  5  2  0
  4  6  1  0
  6  7  1  0
  6 23  1  0
  6 24  1  0
  7  8  1  0
  8  9  2  0
  8 14  1  0
  9 10  1  0
 10 11  1  0
 10 12  1  0
 12 13  2  0
 12 14  1  0
 14 15  1  0
 15 25  1  0
 15 26  1  0
 15 27  1  0
M  END

