
     RDKit          3D

 33 33  0  0  0  0  0  0  0  0999 V2000
    1.0501   -0.5952    2.3421 C   0  0  0  0  0  0  0  0  0  0  0  0
    1.6962   -1.8326    1.7241 C   0  0  1  0  0  0  0  0  0  0  0  0
    1.4672   -3.0625    2.5897 C   0  0  0  0  0  0  0  0  0  0  0  0
    1.1670   -2.0230    0.3724 O   0  0  0  0  0  0  0  0  0  0  0  0
    2.4359   -1.5636   -0.2196 O   0  0  0  0  0  0  0  0  0  0  0  0
    3.0983   -1.6170    1.0749 C   0  0  1  0  0  0  0  0  0  0  0  0
    3.8467   -0.3242    1.3650 C   0  0  0  0  0  0  0  0  0  0  0  0
    4.0923   -2.7966    1.1191 C   0  0  0  0  0  0  0  0  0  0  0  0
    3.6003   -4.0097    0.6411 O   0  0  0  0  0  0  0  0  0  0  0  0
    3.5536   -4.6462   -0.9318 Si  0  0  1  0  0  4  0  0  0  0  0  0
    1.7546   -4.9200   -1.3931 C   0  0  0  0  0  0  0  0  0  0  0  0
    4.4256   -3.4950   -2.1421 C   0  0  0  0  0  0  0  0  0  0  0  0
    4.4577   -6.2978   -0.8394 C   0  0  0  0  0  0  0  0  0  0  0  0
   -0.0068   -0.8098    2.5644 H   0  0  0  0  0  0  0  0  0  0  0  0
    1.0813    0.2580    1.6514 H   0  0  0  0  0  0  0  0  0  0  0  0
    1.5454   -0.3118    3.2847 H   0  0  0  0  0  0  0  0  0  0  0  0
    0.3840   -3.2295    2.7039 H   0  0  0  0  0  0  0  0  0  0  0  0
    1.8849   -2.9018    3.5972 H   0  0  0  0  0  0  0  0  0  0  0  0
    1.9218   -3.9559    2.1482 H   0  0  0  0  0  0  0  0  0  0  0  0
    3.1906    0.5523    1.3088 H   0  0  0  0  0  0  0  0  0  0  0  0
    4.6533   -0.1872    0.6277 H   0  0  0  0  0  0  0  0  0  0  0  0
    4.3080   -0.3556    2.3656 H   0  0  0  0  0  0  0  0  0  0  0  0
    4.4093   -2.9317    2.1708 H   0  0  0  0  0  0  0  0  0  0  0  0
    4.9938   -2.4807    0.5588 H   0  0  0  0  0  0  0  0  0  0  0  0
    1.1843   -3.9850   -1.2876 H   0  0  0  0  0  0  0  0  0  0  0  0
    1.2951   -5.6716   -0.7298 H   0  0  0  0  0  0  0  0  0  0  0  0
    1.6585   -5.2842   -2.4298 H   0  0  0  0  0  0  0  0  0  0  0  0
    3.9248   -2.5155   -2.1793 H   0  0  0  0  0  0  0  0  0  0  0  0
    4.4036   -3.9301   -3.1556 H   0  0  0  0  0  0  0  0  0  0  0  0
    5.4845   -3.3384   -1.8763 H   0  0  0  0  0  0  0  0  0  0  0  0
    4.0018   -6.9509   -0.0769 H   0  0  0  0  0  0  0  0  0  0  0  0
    5.5185   -6.1607   -0.5718 H   0  0  0  0  0  0  0  0  0  0  0  0
    4.4184   -6.8305   -1.8046 H   0  0  0  0  0  0  0  0  0  0  0  0
  2  1  1  1
  1 14  1  0
  1 15  1  0
  1 16  1  0
  2  3  1  0
  2  4  1  0
  2  6  1  0
  3 17  1  0
  3 18  1  0
  3 19  1  0
  4  5  1  0
  5  6  1  0
  6  7  1  1
  6  8  1  0
  7 20  1  0
  7 21  1  0
  7 22  1  0
  8  9  1  0
  8 23  1  0
  8 24  1  0
 10  9  1  1
 10 11  1  0
 10 12  1  0
 10 13  1  0
 11 25  1  0
 11 26  1  0
 11 27  1  0
 12 28  1  0
 12 29  1  0
 12 30  1  0
 13 31  1  0
 13 32  1  0
 13 33  1  0
M  END

