
     RDKit          3D

 43 45  0  0  0  0  0  0  0  0999 V2000
    0.9658    0.3900    0.0974 C   0  0  0  0  0  0  0  0  0  0  0  0
    2.4965    0.3670   -0.0626 C   0  0  1  0  0  0  0  0  0  0  0  0
    3.0419   -1.0340   -0.3601 C   0  0  0  0  0  0  0  0  0  0  0  0
    2.7637   -1.4665   -1.7287 N   0  0  0  0  0  0  0  0  0  0  0  0
    3.0708   -2.8810   -1.9027 C   0  0  0  0  0  0  0  0  0  0  0  0
    2.0914   -3.8055   -1.1941 C   0  0  0  0  0  0  0  0  0  0  0  0
    0.7059   -3.5805   -1.2711 C   0  0  0  0  0  0  0  0  0  0  0  0
   -0.1802   -4.4699   -0.6636 C   0  0  0  0  0  0  0  0  0  0  0  0
    0.2910   -5.5910    0.0279 C   0  0  0  0  0  0  0  0  0  0  0  0
    1.6704   -5.8184    0.1110 C   0  0  0  0  0  0  0  0  0  0  0  0
    2.2007   -6.8824    0.7721 O   0  0  0  0  0  0  0  0  0  0  0  0
    2.5623   -4.9224   -0.4977 C   0  0  0  0  0  0  0  0  0  0  0  0
    3.2628   -0.5373   -2.7832 C   0  0  2  0  0  0  0  0  0  0  0  0
    2.6763   -0.9371   -4.1469 C   0  0  0  0  0  0  0  0  0  0  0  0
    4.8003   -0.4375   -2.7996 C   0  0  1  0  0  0  0  0  0  0  0  0
    5.7140   -1.4581   -3.4304 C   0  0  0  0  0  0  0  0  0  0  0  0
    5.6049   -0.0769   -4.0255 C   0  0  0  0  0  0  0  0  0  0  0  0
    2.6875    0.8613   -2.4440 C   0  0  0  0  0  0  0  0  0  0  0  0
    3.0255    1.2643   -1.0895 N   0  0  0  0  0  0  0  0  0  0  0  0
    0.6550   -0.2193    0.9613 H   0  0  0  0  0  0  0  0  0  0  0  0
    0.4552   -0.0111   -0.7903 H   0  0  0  0  0  0  0  0  0  0  0  0
    0.6080    1.4195    0.2680 H   0  0  0  0  0  0  0  0  0  0  0  0
    2.9390    0.6816    0.8994 H   0  0  0  0  0  0  0  0  0  0  0  0
    2.5743   -1.7580    0.3249 H   0  0  0  0  0  0  0  0  0  0  0  0
    4.1312   -1.0481   -0.1385 H   0  0  0  0  0  0  0  0  0  0  0  0
    4.1001   -3.1336   -1.5703 H   0  0  0  0  0  0  0  0  0  0  0  0
    3.0326   -3.1204   -2.9757 H   0  0  0  0  0  0  0  0  0  0  0  0
    0.3384   -2.7005   -1.8016 H   0  0  0  0  0  0  0  0  0  0  0  0
   -1.2578   -4.2944   -0.7251 H   0  0  0  0  0  0  0  0  0  0  0  0
   -0.4087   -6.2848    0.5051 H   0  0  0  0  0  0  0  0  0  0  0  0
    1.4862   -7.4183    1.1403 H   0  0  0  0  0  0  0  0  0  0  0  0
    3.6337   -5.1201   -0.4121 H   0  0  0  0  0  0  0  0  0  0  0  0
    3.1625   -1.8167   -4.5927 H   0  0  0  0  0  0  0  0  0  0  0  0
    2.7773   -0.1108   -4.8662 H   0  0  0  0  0  0  0  0  0  0  0  0
    1.6055   -1.1621   -4.0360 H   0  0  0  0  0  0  0  0  0  0  0  0
    5.1773    0.0144   -1.8784 H   0  0  0  0  0  0  0  0  0  0  0  0
    5.2757   -2.2847   -3.9966 H   0  0  0  0  0  0  0  0  0  0  0  0
    6.6278   -1.7316   -2.8944 H   0  0  0  0  0  0  0  0  0  0  0  0
    5.0930    0.0185   -4.9869 H   0  0  0  0  0  0  0  0  0  0  0  0
    6.4434    0.6148   -3.9028 H   0  0  0  0  0  0  0  0  0  0  0  0
    1.5943    0.8317   -2.6390 H   0  0  0  0  0  0  0  0  0  0  0  0
    3.1224    1.5914   -3.1449 H   0  0  0  0  0  0  0  0  0  0  0  0
    2.7449    2.2274   -0.9171 H   0  0  0  0  0  0  0  0  0  0  0  0
  1  2  1  0
  1 20  1  0
  1 21  1  0
  1 22  1  0
  2  3  1  0
  2 19  1  0
  2 23  1  1
  3  4  1  0
  3 24  1  0
  3 25  1  0
  4  5  1  0
  4 13  1  0
  5  6  1  0
  5 26  1  0
  5 27  1  0
  6  7  2  0
  6 12  1  0
  7  8  1  0
  7 28  1  0
  8  9  2  0
  8 29  1  0
  9 10  1  0
  9 30  1  0
 10 11  1  0
 10 12  2  0
 11 31  1  0
 12 32  1  0
 13 14  1  6
 13 15  1  0
 13 18  1  0
 14 33  1  0
 14 34  1  0
 14 35  1  0
 15 16  1  0
 15 17  1  0
 15 36  1  1
 16 17  1  0
 16 37  1  0
 16 38  1  0
 17 39  1  0
 17 40  1  0
 18 19  1  0
 18 41  1  0
 18 42  1  0
 19 43  1  0
M  END

