
     RDKit          3D

 54 58  0  0  0  0  0  0  0  0999 V2000
    1.4644    1.2816    1.0912 C   0  0  0  0  0  0  0  0  0  0  0  0
    2.8963    0.9961    0.7133 C   0  0  0  0  0  0  0  0  0  0  0  0
    3.3846   -0.3158    0.6313 C   0  0  0  0  0  0  0  0  0  0  0  0
    4.7161   -0.5754    0.3007 C   0  0  0  0  0  0  0  0  0  0  0  0
    5.6141    0.4737    0.0387 C   0  0  0  0  0  0  0  0  0  0  0  0
    7.0418    0.2408   -0.3149 C   0  0  0  0  0  0  0  0  0  0  0  0
    7.5289   -1.0677   -0.6187 C   0  0  0  0  0  0  0  0  0  0  0  0
    8.8541   -1.2629   -0.9535 C   0  0  0  0  0  0  0  0  0  0  0  0
    9.2957   -2.6392   -1.2675 C   0  0  0  0  0  0  0  0  0  0  0  0
    9.1216   -3.6668   -0.4732 N   0  0  0  0  0  0  0  0  0  0  0  0
    9.5903   -4.7745   -1.1182 N   0  0  0  0  0  0  0  0  0  0  0  0
   10.0423   -4.4109   -2.2990 C   0  0  0  0  0  0  0  0  0  0  0  0
   10.7164   -5.4744   -3.5240 S   0  0  0  0  0  0  0  0  0  0  0  0
   11.0481   -6.9644   -2.4926 C   0  0  0  0  0  0  0  0  0  0  0  0
    9.8342   -7.8636   -2.1983 C   0  0  0  0  0  0  0  0  0  0  0  0
    9.7431   -8.9565   -2.6973 O   0  0  0  0  0  0  0  0  0  0  0  0
    8.9372   -7.3792   -1.3507 O   0  0  0  0  0  0  0  0  0  0  0  0
    9.8867   -3.0554   -2.4600 N   0  0  0  0  0  0  0  0  0  0  0  0
   10.1371   -2.2971   -3.6510 C   0  0  0  0  0  0  0  0  0  0  0  0
    9.0780   -1.6656   -4.3108 C   0  0  0  0  0  0  0  0  0  0  0  0
    9.3178   -0.9249   -5.4676 C   0  0  0  0  0  0  0  0  0  0  0  0
   10.6184   -0.8230   -5.9847 C   0  0  0  0  0  0  0  0  0  0  0  0
   10.9097   -0.1242   -7.1043 O   0  0  0  0  0  0  0  0  0  0  0  0
   11.6776   -1.4690   -5.3261 C   0  0  0  0  0  0  0  0  0  0  0  0
   11.4382   -2.1946   -4.1640 C   0  0  0  0  0  0  0  0  0  0  0  0
    9.7430   -0.1401   -0.9443 C   0  0  0  0  0  0  0  0  0  0  0  0
   11.1434   -0.2185   -1.1684 C   0  0  0  0  0  0  0  0  0  0  0  0
   11.9266    0.9178   -1.1380 C   0  0  0  0  0  0  0  0  0  0  0  0
   11.3438    2.1846   -0.8837 C   0  0  0  0  0  0  0  0  0  0  0  0
    9.9911    2.2916   -0.6425 C   0  0  0  0  0  0  0  0  0  0  0  0
    9.1567    1.1371   -0.6509 C   0  0  0  0  0  0  0  0  0  0  0  0
    7.8418    1.2928   -0.3597 N   0  0  0  0  0  0  0  0  0  0  0  0
    5.1259    1.7920    0.1257 C   0  0  0  0  0  0  0  0  0  0  0  0
    3.7971    2.0441    0.4517 C   0  0  0  0  0  0  0  0  0  0  0  0
    0.8373    0.3807    1.0187 H   0  0  0  0  0  0  0  0  0  0  0  0
    1.0245    2.0582    0.4452 H   0  0  0  0  0  0  0  0  0  0  0  0
    1.3951    1.6509    2.1294 H   0  0  0  0  0  0  0  0  0  0  0  0
    2.7121   -1.1542    0.8327 H   0  0  0  0  0  0  0  0  0  0  0  0
    5.0467   -1.6147    0.2648 H   0  0  0  0  0  0  0  0  0  0  0  0
    6.8600   -1.9268   -0.6098 H   0  0  0  0  0  0  0  0  0  0  0  0
   11.5368   -6.6332   -1.5638 H   0  0  0  0  0  0  0  0  0  0  0  0
   11.7540   -7.5500   -3.0944 H   0  0  0  0  0  0  0  0  0  0  0  0
    9.1572   -6.4458   -1.0678 H   0  0  0  0  0  0  0  0  0  0  0  0
    8.0628   -1.7522   -3.9197 H   0  0  0  0  0  0  0  0  0  0  0  0
    8.4863   -0.4290   -5.9768 H   0  0  0  0  0  0  0  0  0  0  0  0
   10.1062    0.2730   -7.4664 H   0  0  0  0  0  0  0  0  0  0  0  0
   12.6840   -1.3824   -5.7393 H   0  0  0  0  0  0  0  0  0  0  0  0
   12.2646   -2.6906   -3.6520 H   0  0  0  0  0  0  0  0  0  0  0  0
   11.6046   -1.1904   -1.3495 H   0  0  0  0  0  0  0  0  0  0  0  0
   13.0036    0.8412   -1.3057 H   0  0  0  0  0  0  0  0  0  0  0  0
   11.9757    3.0761   -0.8671 H   0  0  0  0  0  0  0  0  0  0  0  0
    9.5169    3.2503   -0.4244 H   0  0  0  0  0  0  0  0  0  0  0  0
    5.8182    2.6114   -0.0708 H   0  0  0  0  0  0  0  0  0  0  0  0
    3.4462    3.0791    0.5054 H   0  0  0  0  0  0  0  0  0  0  0  0
  1  2  1  0
  1 35  1  0
  1 36  1  0
  1 37  1  0
  2  3  2  0
  2 34  1  0
  3  4  1  0
  3 38  1  0
  4  5  2  0
  4 39  1  0
  5  6  1  0
  5 33  1  0
  6  7  2  0
  6 32  1  0
  7  8  1  0
  7 40  1  0
  8  9  1  0
  8 26  2  0
  9 10  2  0
  9 18  1  0
 10 11  1  0
 11 12  2  0
 12 13  1  0
 12 18  1  0
 13 14  1  0
 14 15  1  0
 14 41  1  0
 14 42  1  0
 15 16  2  0
 15 17  1  0
 17 43  1  0
 18 19  1  0
 19 20  2  0
 19 25  1  0
 20 21  1  0
 20 44  1  0
 21 22  2  0
 21 45  1  0
 22 23  1  0
 22 24  1  0
 23 46  1  0
 24 25  2  0
 24 47  1  0
 25 48  1  0
 26 27  1  0
 26 31  1  0
 27 28  2  0
 27 49  1  0
 28 29  1  0
 28 50  1  0
 29 30  2  0
 29 51  1  0
 30 31  1  0
 30 52  1  0
 31 32  2  0
 33 34  2  0
 33 53  1  0
 34 54  1  0
M  END

