
     RDKit          3D

 58 58  0  0  0  0  0  0  0  0999 V2000
    1.2192    0.0310    0.4056 C   0  0  0  0  0  0  0  0  0  0  0  0
    1.9589   -1.3045    0.3890 C   0  0  0  0  0  0  0  0  0  0  0  0
    2.6126   -1.7139    1.7257 C   0  0  1  0  0  0  0  0  0  0  0  0
    3.3475   -3.0639    1.5972 C   0  0  0  0  0  0  0  0  0  0  0  0
    4.5616   -2.9978    0.7867 N   0  0  0  0  0  0  0  0  0  0  0  0
    5.5054   -1.9090    1.0955 C   0  0  2  0  0  0  0  0  0  0  0  0
    6.7135   -2.4260    1.9669 C   0  0  1  0  0  0  0  0  0  0  0  0
    7.5191   -3.3900    1.0697 C   0  0  0  0  0  0  0  0  0  0  0  0
    7.6287   -1.2561    2.3729 C   0  0  0  0  0  0  0  0  0  0  0  0
    6.2887   -3.2051    3.2238 C   0  0  0  0  0  0  0  0  0  0  0  0
    4.7684   -0.5841    1.4974 C   0  0  0  0  0  0  0  0  0  0  0  0
    3.5257   -0.6941    2.2569 N   0  0  0  0  0  0  0  0  0  0  0  0
    3.6182   -0.5589    3.7076 C   0  0  0  0  0  0  0  0  0  0  0  0
    3.7546    0.9092    4.2038 C   0  0  1  0  0  0  0  0  0  0  0  0
    2.4692    1.6968    3.7992 C   0  0  1  0  0  0  0  0  0  0  0  0
    1.2763    1.4966    4.7470 C   0  0  0  0  0  0  0  0  0  0  0  0
    2.6960    3.1847    3.4858 C   0  0  0  0  0  0  0  0  0  0  0  0
    4.1608    0.9568    5.7078 C   0  0  1  0  0  0  0  0  0  0  0  0
    5.5035    0.2531    5.9830 C   0  0  0  0  0  0  0  0  0  0  0  0
    4.2529    2.3816    6.2787 C   0  0  0  0  0  0  0  0  0  0  0  0
    0.7105    0.2133   -0.5548 H   0  0  0  0  0  0  0  0  0  0  0  0
    1.9091    0.8682    0.5868 H   0  0  0  0  0  0  0  0  0  0  0  0
    0.4530    0.0570    1.1984 H   0  0  0  0  0  0  0  0  0  0  0  0
    2.7195   -1.2887   -0.4112 H   0  0  0  0  0  0  0  0  0  0  0  0
    1.2584   -2.1122    0.1112 H   0  0  0  0  0  0  0  0  0  0  0  0
    1.7986   -1.8319    2.4615 H   0  0  0  0  0  0  0  0  0  0  0  0
    2.6864   -3.8313    1.1597 H   0  0  0  0  0  0  0  0  0  0  0  0
    3.6049   -3.4166    2.6094 H   0  0  0  0  0  0  0  0  0  0  0  0
    4.3213   -2.9853   -0.1999 H   0  0  0  0  0  0  0  0  0  0  0  0
    5.9880   -1.6531    0.1373 H   0  0  0  0  0  0  0  0  0  0  0  0
    7.9599   -2.8603    0.2081 H   0  0  0  0  0  0  0  0  0  0  0  0
    6.8647   -4.1860    0.6847 H   0  0  0  0  0  0  0  0  0  0  0  0
    8.3441   -3.8575    1.6316 H   0  0  0  0  0  0  0  0  0  0  0  0
    7.8932   -0.6268    1.5060 H   0  0  0  0  0  0  0  0  0  0  0  0
    8.5700   -1.6385    2.8000 H   0  0  0  0  0  0  0  0  0  0  0  0
    7.1690   -0.6073    3.1345 H   0  0  0  0  0  0  0  0  0  0  0  0
    5.7005   -4.0947    2.9554 H   0  0  0  0  0  0  0  0  0  0  0  0
    5.6955   -2.5926    3.9186 H   0  0  0  0  0  0  0  0  0  0  0  0
    7.1800   -3.5489    3.7744 H   0  0  0  0  0  0  0  0  0  0  0  0
    4.5369   -0.0690    0.5464 H   0  0  0  0  0  0  0  0  0  0  0  0
    5.4483    0.0924    2.0318 H   0  0  0  0  0  0  0  0  0  0  0  0
    4.4431   -1.1604    4.1231 H   0  0  0  0  0  0  0  0  0  0  0  0
    2.6983   -0.9825    4.1435 H   0  0  0  0  0  0  0  0  0  0  0  0
    4.5934    1.3618    3.6411 H   0  0  0  0  0  0  0  0  0  0  0  0
    2.1857    1.2414    2.8379 H   0  0  0  0  0  0  0  0  0  0  0  0
    1.4188    1.9921    5.7206 H   0  0  0  0  0  0  0  0  0  0  0  0
    1.0794    0.4304    4.9456 H   0  0  0  0  0  0  0  0  0  0  0  0
    0.3592    1.9168    4.3021 H   0  0  0  0  0  0  0  0  0  0  0  0
    2.9166    3.7901    4.3772 H   0  0  0  0  0  0  0  0  0  0  0  0
    1.7969    3.6172    3.0151 H   0  0  0  0  0  0  0  0  0  0  0  0
    3.5319    3.3180    2.7794 H   0  0  0  0  0  0  0  0  0  0  0  0
    3.3828    0.4190    6.2824 H   0  0  0  0  0  0  0  0  0  0  0  0
    6.3141    0.7085    5.3876 H   0  0  0  0  0  0  0  0  0  0  0  0
    5.4906   -0.8228    5.7601 H   0  0  0  0  0  0  0  0  0  0  0  0
    5.7803    0.3576    7.0444 H   0  0  0  0  0  0  0  0  0  0  0  0
    4.9826    2.9881    5.7157 H   0  0  0  0  0  0  0  0  0  0  0  0
    4.5924    2.3502    7.3269 H   0  0  0  0  0  0  0  0  0  0  0  0
    3.2934    2.9143    6.2648 H   0  0  0  0  0  0  0  0  0  0  0  0
  1  2  1  0
  1 21  1  0
  1 22  1  0
  1 23  1  0
  2  3  1  0
  2 24  1  0
  2 25  1  0
  3  4  1  0
  3 12  1  0
  3 26  1  1
  4  5  1  0
  4 27  1  0
  4 28  1  0
  5  6  1  0
  5 29  1  0
  6  7  1  0
  6 11  1  0
  6 30  1  6
  7  8  1  6
  7  9  1  0
  7 10  1  0
  8 31  1  0
  8 32  1  0
  8 33  1  0
  9 34  1  0
  9 35  1  0
  9 36  1  0
 10 37  1  0
 10 38  1  0
 10 39  1  0
 11 12  1  0
 11 40  1  0
 11 41  1  0
 12 13  1  0
 13 14  1  0
 13 42  1  0
 13 43  1  0
 14 15  1  0
 14 18  1  0
 14 44  1  6
 15 16  1  0
 15 17  1  0
 15 45  1  6
 16 46  1  0
 16 47  1  0
 16 48  1  0
 17 49  1  0
 17 50  1  0
 17 51  1  0
 18 19  1  0
 18 20  1  0
 18 52  1  1
 19 53  1  0
 19 54  1  0
 19 55  1  0
 20 56  1  0
 20 57  1  0
 20 58  1  0
M  END

