
     RDKit          3D

 32 33  0  0  0  0  0  0  0  0999 V2000
    4.0393   -0.1167   -0.8921 N   0  0  0  0  0  0  0  0  0  0  0  0
    2.8241   -0.0006   -0.0843 C   0  0  0  0  0  0  0  0  0  0  0  0
    2.9080   -0.8715    1.1518 C   0  0  0  0  0  0  0  0  0  0  0  0
    3.3791   -0.3390    2.3615 C   0  0  0  0  0  0  0  0  0  0  0  0
    3.5088   -1.1201    3.5086 C   0  0  0  0  0  0  0  0  0  0  0  0
    3.1588   -2.4778    3.4957 C   0  0  0  0  0  0  0  0  0  0  0  0
    3.2250   -3.4358    4.9962 S   0  0  0  0  0  0  0  0  0  0  0  0
    4.3731   -4.7994    4.5244 C   0  0  0  0  0  0  0  0  0  0  0  0
    4.6410   -5.6894    5.7361 C   0  0  1  0  0  0  0  0  0  0  0  0
    3.4390   -6.5001    6.2482 C   0  0  0  0  0  0  0  0  0  0  0  0
    4.1131   -7.7687    6.7830 C   0  0  0  0  0  0  0  0  0  0  0  0
    5.2448   -7.9614    5.7702 C   0  0  0  0  0  0  0  0  0  0  0  0
    5.6292   -6.6520    5.3617 O   0  0  0  0  0  0  0  0  0  0  0  0
    2.6752   -3.0154    2.2941 C   0  0  0  0  0  0  0  0  0  0  0  0
    2.3164   -4.3011    2.2501 F   0  0  0  0  0  0  0  0  0  0  0  0
    2.5704   -2.2361    1.1370 C   0  0  0  0  0  0  0  0  0  0  0  0
    1.9399   -3.0956   -0.4477 Br  0  0  0  0  0  0  0  0  0  0  0  0
    3.9696    0.4990   -1.7036 H   0  0  0  0  0  0  0  0  0  0  0  0
    4.1130   -1.0646   -1.2655 H   0  0  0  0  0  0  0  0  0  0  0  0
    1.8882   -0.2477   -0.6251 H   0  0  0  0  0  0  0  0  0  0  0  0
    2.7320    1.0474    0.2431 H   0  0  0  0  0  0  0  0  0  0  0  0
    3.6636    0.7154    2.3932 H   0  0  0  0  0  0  0  0  0  0  0  0
    3.8912   -0.6866    4.4347 H   0  0  0  0  0  0  0  0  0  0  0  0
    5.3198   -4.3629    4.1742 H   0  0  0  0  0  0  0  0  0  0  0  0
    3.9315   -5.3942    3.7122 H   0  0  0  0  0  0  0  0  0  0  0  0
    5.0495   -5.0628    6.5546 H   0  0  0  0  0  0  0  0  0  0  0  0
    2.7646   -6.7435    5.4097 H   0  0  0  0  0  0  0  0  0  0  0  0
    2.8500   -5.9591    7.0030 H   0  0  0  0  0  0  0  0  0  0  0  0
    3.4357   -8.6339    6.8433 H   0  0  0  0  0  0  0  0  0  0  0  0
    4.5248   -7.5904    7.7903 H   0  0  0  0  0  0  0  0  0  0  0  0
    4.8994   -8.5461    4.8947 H   0  0  0  0  0  0  0  0  0  0  0  0
    6.1246   -8.4762    6.1906 H   0  0  0  0  0  0  0  0  0  0  0  0
  1  2  1  0
  1 18  1  0
  1 19  1  0
  2  3  1  0
  2 20  1  0
  2 21  1  0
  3  4  2  0
  3 16  1  0
  4  5  1  0
  4 22  1  0
  5  6  2  0
  5 23  1  0
  6  7  1  0
  6 14  1  0
  7  8  1  0
  8  9  1  0
  8 24  1  0
  8 25  1  0
  9 10  1  0
  9 13  1  0
  9 26  1  1
 10 11  1  0
 10 27  1  0
 10 28  1  0
 11 12  1  0
 11 29  1  0
 11 30  1  0
 12 13  1  0
 12 31  1  0
 12 32  1  0
 14 15  1  0
 14 16  2  0
 16 17  1  0
M  END

