
     RDKit          3D

 42 44  0  0  0  0  0  0  0  0999 V2000
    7.5062   -3.1105   -0.3896 C   0  0  0  0  0  0  0  0  0  0  0  0
    6.2686   -2.6908   -1.1566 C   0  0  0  0  0  0  0  0  0  0  0  0
    5.6676   -3.4188   -1.9267 O   0  0  0  0  0  0  0  0  0  0  0  0
    5.8292   -1.4004   -0.9391 N   0  0  0  0  0  0  0  0  0  0  0  0
    6.3845   -0.5742    0.0107 N   0  0  0  0  0  0  0  0  0  0  0  0
    5.6180    0.4411    0.1864 C   0  0  0  0  0  0  0  0  0  0  0  0
    5.9462    1.5343    1.1480 C   0  0  0  0  0  0  0  0  0  0  0  0
    4.3547    0.3923   -0.6491 C   0  0  0  0  0  0  0  0  0  0  0  0
    4.5992   -0.8532   -1.5454 C   0  0  1  0  0  0  0  0  0  0  0  0
    4.7681   -0.5089   -3.0181 C   0  0  0  0  0  0  0  0  0  0  0  0
    6.0187   -0.2018   -3.5643 C   0  0  0  0  0  0  0  0  0  0  0  0
    6.1534    0.1663   -4.9051 C   0  0  0  0  0  0  0  0  0  0  0  0
    5.0225    0.2339   -5.7198 C   0  0  0  0  0  0  0  0  0  0  0  0
    3.7581   -0.0661   -5.2052 C   0  0  0  0  0  0  0  0  0  0  0  0
    3.6419   -0.4342   -3.8602 C   0  0  0  0  0  0  0  0  0  0  0  0
    2.4315   -0.7009   -3.2238 O   0  0  0  0  0  0  0  0  0  0  0  0
    1.2915   -1.0932   -3.8352 C   0  0  0  0  0  0  0  0  0  0  0  0
    1.1584   -1.2184   -5.0276 O   0  0  0  0  0  0  0  0  0  0  0  0
    0.1767   -1.3495   -2.8670 C   0  0  0  0  0  0  0  0  0  0  0  0
   -1.0729   -1.6736   -3.4314 C   0  0  0  0  0  0  0  0  0  0  0  0
   -2.1878   -1.9340   -2.6404 C   0  0  0  0  0  0  0  0  0  0  0  0
   -2.0755   -1.8777   -1.2463 C   0  0  0  0  0  0  0  0  0  0  0  0
   -0.8510   -1.5638   -0.6573 C   0  0  0  0  0  0  0  0  0  0  0  0
    0.2561   -1.3037   -1.4639 C   0  0  0  0  0  0  0  0  0  0  0  0
    1.4056   -1.0164   -0.8378 F   0  0  0  0  0  0  0  0  0  0  0  0
    7.7729   -4.1260   -0.7071 H   0  0  0  0  0  0  0  0  0  0  0  0
    7.3168   -3.0936    0.6945 H   0  0  0  0  0  0  0  0  0  0  0  0
    8.3421   -2.4198   -0.5744 H   0  0  0  0  0  0  0  0  0  0  0  0
    6.8952    1.3227    1.6591 H   0  0  0  0  0  0  0  0  0  0  0  0
    5.1489    1.6452    1.9036 H   0  0  0  0  0  0  0  0  0  0  0  0
    6.0289    2.5053    0.6294 H   0  0  0  0  0  0  0  0  0  0  0  0
    4.2097    1.3118   -1.2376 H   0  0  0  0  0  0  0  0  0  0  0  0
    3.4638    0.2782   -0.0093 H   0  0  0  0  0  0  0  0  0  0  0  0
    3.7915   -1.5871   -1.4453 H   0  0  0  0  0  0  0  0  0  0  0  0
    6.9011   -0.2657   -2.9239 H   0  0  0  0  0  0  0  0  0  0  0  0
    7.1414    0.3959   -5.3112 H   0  0  0  0  0  0  0  0  0  0  0  0
    5.1154    0.5183   -6.7708 H   0  0  0  0  0  0  0  0  0  0  0  0
    2.8760   -0.0290   -5.8378 H   0  0  0  0  0  0  0  0  0  0  0  0
   -1.1310   -1.7138   -4.5204 H   0  0  0  0  0  0  0  0  0  0  0  0
   -3.1433   -2.1816   -3.1073 H   0  0  0  0  0  0  0  0  0  0  0  0
   -2.9424   -2.0814   -0.6130 H   0  0  0  0  0  0  0  0  0  0  0  0
   -0.7272   -1.5170    0.4263 H   0  0  0  0  0  0  0  0  0  0  0  0
  1  2  1  0
  1 26  1  0
  1 27  1  0
  1 28  1  0
  2  3  2  0
  2  4  1  0
  4  5  1  0
  4  9  1  0
  5  6  2  0
  6  7  1  0
  6  8  1  0
  7 29  1  0
  7 30  1  0
  7 31  1  0
  8  9  1  0
  8 32  1  0
  8 33  1  0
  9 10  1  0
  9 34  1  6
 10 11  2  0
 10 15  1  0
 11 12  1  0
 11 35  1  0
 12 13  2  0
 12 36  1  0
 13 14  1  0
 13 37  1  0
 14 15  2  0
 14 38  1  0
 15 16  1  0
 16 17  1  0
 17 18  2  0
 17 19  1  0
 19 20  2  0
 19 24  1  0
 20 21  1  0
 20 39  1  0
 21 22  2  0
 21 40  1  0
 22 23  1  0
 22 41  1  0
 23 24  2  0
 23 42  1  0
 24 25  1  0
M  END

