
     RDKit          3D

 36 36  0  0  0  0  0  0  0  0999 V2000
   12.0205    3.8090    0.6999 N   0  0  0  0  0  0  0  0  0  0  0  0
   11.1544    3.5572   -0.0252 C   0  0  0  0  0  0  0  0  0  0  0  0
   10.0422    3.1562   -0.8887 C   0  0  0  0  0  0  0  0  0  0  0  0
    8.8689    2.5416   -0.0970 C   0  0  0  0  0  0  0  0  0  0  0  0
    8.0877    3.5594    0.7409 C   0  0  0  0  0  0  0  0  0  0  0  0
    7.0502    2.9065    1.6559 C   0  0  0  0  0  0  0  0  0  0  0  0
    7.6512    2.0868    2.6494 O   0  0  0  0  0  0  0  0  0  0  0  0
    8.2348    2.6236    3.7478 C   0  0  0  0  0  0  0  0  0  0  0  0
    7.9855    3.9264    4.2076 C   0  0  0  0  0  0  0  0  0  0  0  0
    8.6264    4.4088    5.3517 C   0  0  0  0  0  0  0  0  0  0  0  0
    9.5442    3.6171    6.0425 C   0  0  0  0  0  0  0  0  0  0  0  0
    9.8174    2.3310    5.5738 C   0  0  0  0  0  0  0  0  0  0  0  0
    9.1665    1.8089    4.4445 C   0  0  0  0  0  0  0  0  0  0  0  0
    9.4590    0.4094    3.9799 C   0  0  0  0  0  0  0  0  0  0  0  0
    8.5984   -0.3602    3.6262 O   0  0  0  0  0  0  0  0  0  0  0  0
   10.9462    0.0026    3.9339 C   0  0  0  0  0  0  0  0  0  0  0  0
   11.7323    0.9673    3.0704 C   0  0  0  0  0  0  0  0  0  0  0  0
   11.5508    1.0877    1.8789 O   0  0  0  0  0  0  0  0  0  0  0  0
   12.8087    1.8322    3.7804 C   0  0  0  0  0  0  0  0  0  0  0  0
   13.1562    1.5799    4.9088 O   0  0  0  0  0  0  0  0  0  0  0  0
   13.3156    2.8159    3.0621 O   0  0  0  0  0  0  0  0  0  0  0  0
   10.4397    2.4237   -1.6104 H   0  0  0  0  0  0  0  0  0  0  0  0
    9.7142    4.0327   -1.4732 H   0  0  0  0  0  0  0  0  0  0  0  0
    9.2594    1.7402    0.5489 H   0  0  0  0  0  0  0  0  0  0  0  0
    8.1902    2.0629   -0.8227 H   0  0  0  0  0  0  0  0  0  0  0  0
    7.5657    4.2731    0.0786 H   0  0  0  0  0  0  0  0  0  0  0  0
    8.7805    4.1591    1.3568 H   0  0  0  0  0  0  0  0  0  0  0  0
    6.4081    2.2212    1.0815 H   0  0  0  0  0  0  0  0  0  0  0  0
    6.3892    3.6643    2.1077 H   0  0  0  0  0  0  0  0  0  0  0  0
    7.2864    4.5739    3.6789 H   0  0  0  0  0  0  0  0  0  0  0  0
    8.4076    5.4230    5.6959 H   0  0  0  0  0  0  0  0  0  0  0  0
   10.0533    3.9979    6.9299 H   0  0  0  0  0  0  0  0  0  0  0  0
   10.5526    1.7196    6.1002 H   0  0  0  0  0  0  0  0  0  0  0  0
   10.9801   -0.9972    3.4791 H   0  0  0  0  0  0  0  0  0  0  0  0
   11.3859   -0.0319    4.9400 H   0  0  0  0  0  0  0  0  0  0  0  0
   12.8667    2.9460    2.1929 H   0  0  0  0  0  0  0  0  0  0  0  0
  1  2  3  0
  2  3  1  0
  3  4  1  0
  3 22  1  0
  3 23  1  0
  4  5  1  0
  4 24  1  0
  4 25  1  0
  5  6  1  0
  5 26  1  0
  5 27  1  0
  6  7  1  0
  6 28  1  0
  6 29  1  0
  7  8  1  0
  8  9  2  0
  8 13  1  0
  9 10  1  0
  9 30  1  0
 10 11  2  0
 10 31  1  0
 11 12  1  0
 11 32  1  0
 12 13  2  0
 12 33  1  0
 13 14  1  0
 14 15  2  0
 14 16  1  0
 16 17  1  0
 16 34  1  0
 16 35  1  0
 17 18  2  0
 17 19  1  0
 19 20  2  0
 19 21  1  0
 21 36  1  0
M  END

