
     RDKit          3D

 46 50  0  0  0  0  0  0  0  0999 V2000
    0.9325   -0.5529   -0.1623 C   0  0  0  0  0  0  0  0  0  0  0  0
    2.8131   -0.3784   -0.1906 Si  0  0  1  0  0  4  0  0  0  0  0  0
    3.5869   -1.7980   -1.1671 C   0  0  0  0  0  0  0  0  0  0  0  0
    3.3069    1.2826   -0.9412 C   0  0  0  0  0  0  0  0  0  0  0  0
    3.4408   -0.4461    1.5479 C   0  0  0  0  0  0  0  0  0  0  0  0
    3.8564   -0.4801    2.7001 C   0  0  0  0  0  0  0  0  0  0  0  0
    4.3411   -0.4986    4.0419 C   0  0  0  0  0  0  0  0  0  0  0  0
    4.6186    0.6988    4.6968 C   0  0  0  0  0  0  0  0  0  0  0  0
    5.0957    0.7113    6.0131 C   0  0  0  0  0  0  0  0  0  0  0  0
    5.3175   -0.4625    6.7344 C   0  0  0  0  0  0  0  0  0  0  0  0
    5.8216   -0.4438    8.1208 C   0  0  0  0  0  0  0  0  0  0  0  0
    6.1087    0.7462    8.7898 C   0  0  0  0  0  0  0  0  0  0  0  0
    6.5888    0.7594   10.1134 C   0  0  0  0  0  0  0  0  0  0  0  0
    6.7905   -0.4238   10.7914 C   0  0  0  0  0  0  0  0  0  0  0  0
    6.5167   -1.6674   10.1618 C   0  0  0  0  0  0  0  0  0  0  0  0
    6.7208   -2.8934   10.8492 C   0  0  0  0  0  0  0  0  0  0  0  0
    6.4515   -4.0927   10.2255 C   0  0  0  0  0  0  0  0  0  0  0  0
    5.9717   -4.1131    8.9016 C   0  0  0  0  0  0  0  0  0  0  0  0
    5.7518   -2.9419    8.1772 C   0  0  0  0  0  0  0  0  0  0  0  0
    5.2485   -2.9590    6.7874 C   0  0  0  0  0  0  0  0  0  0  0  0
    4.9654   -4.1502    6.1216 C   0  0  0  0  0  0  0  0  0  0  0  0
    4.4871   -4.1642    4.7993 C   0  0  0  0  0  0  0  0  0  0  0  0
    4.2827   -2.9826    4.1184 C   0  0  0  0  0  0  0  0  0  0  0  0
    4.5523   -1.7387    4.7432 C   0  0  0  0  0  0  0  0  0  0  0  0
    5.0421   -1.7174    6.0948 C   0  0  0  0  0  0  0  0  0  0  0  0
    6.0265   -1.6850    8.8107 C   0  0  0  0  0  0  0  0  0  0  0  0
    0.5219   -0.5183   -1.1856 H   0  0  0  0  0  0  0  0  0  0  0  0
    0.4673    0.2597    0.4187 H   0  0  0  0  0  0  0  0  0  0  0  0
    0.6292   -1.5091    0.2937 H   0  0  0  0  0  0  0  0  0  0  0  0
    3.2379   -1.7873   -2.2134 H   0  0  0  0  0  0  0  0  0  0  0  0
    3.3185   -2.7737   -0.7306 H   0  0  0  0  0  0  0  0  0  0  0  0
    4.6862   -1.7224   -1.1743 H   0  0  0  0  0  0  0  0  0  0  0  0
    2.9486    1.3626   -1.9814 H   0  0  0  0  0  0  0  0  0  0  0  0
    4.4019    1.4052   -0.9484 H   0  0  0  0  0  0  0  0  0  0  0  0
    2.8769    2.1203   -0.3687 H   0  0  0  0  0  0  0  0  0  0  0  0
    4.4599    1.6422    4.1710 H   0  0  0  0  0  0  0  0  0  0  0  0
    5.2934    1.6806    6.4700 H   0  0  0  0  0  0  0  0  0  0  0  0
    5.9638    1.7038    8.2900 H   0  0  0  0  0  0  0  0  0  0  0  0
    6.7999    1.7162   10.5973 H   0  0  0  0  0  0  0  0  0  0  0  0
    7.1630   -0.4232   11.8191 H   0  0  0  0  0  0  0  0  0  0  0  0
    7.0936   -2.8675   11.8764 H   0  0  0  0  0  0  0  0  0  0  0  0
    6.6080   -5.0370   10.7529 H   0  0  0  0  0  0  0  0  0  0  0  0
    5.7724   -5.0833    8.4468 H   0  0  0  0  0  0  0  0  0  0  0  0
    5.1124   -5.1064    6.6233 H   0  0  0  0  0  0  0  0  0  0  0  0
    4.2779   -5.1208    4.3141 H   0  0  0  0  0  0  0  0  0  0  0  0
    3.9120   -2.9847    3.0923 H   0  0  0  0  0  0  0  0  0  0  0  0
  1  2  1  0
  1 27  1  0
  1 28  1  0
  1 29  1  0
  2  3  1  0
  2  4  1  0
  2  5  1  1
  3 30  1  0
  3 31  1  0
  3 32  1  0
  4 33  1  0
  4 34  1  0
  4 35  1  0
  5  6  3  0
  6  7  1  0
  7  8  2  0
  7 24  1  0
  8  9  1  0
  8 36  1  0
  9 10  2  0
  9 37  1  0
 10 11  1  0
 10 25  1  0
 11 12  2  0
 11 26  1  0
 12 13  1  0
 12 38  1  0
 13 14  2  0
 13 39  1  0
 14 15  1  0
 14 40  1  0
 15 16  1  0
 15 26  2  0
 16 17  2  0
 16 41  1  0
 17 18  1  0
 17 42  1  0
 18 19  2  0
 18 43  1  0
 19 20  1  0
 19 26  1  0
 20 21  1  0
 20 25  2  0
 21 22  2  0
 21 44  1  0
 22 23  1  0
 22 45  1  0
 23 24  2  0
 23 46  1  0
 24 25  1  0
M  END

