
     RDKit          3D

 61 63  0  0  0  0  0  0  0  0999 V2000
    0.4811   -1.7173   -2.3442 C   0  0  0  0  0  0  0  0  0  0  0  0
    1.4648   -1.8996   -1.1925 C   0  0  0  0  0  0  0  0  0  0  0  0
    2.7253   -1.1988   -1.4340 N   0  0  0  0  0  0  0  0  0  0  0  0
    3.9409   -1.5935   -0.8737 C   0  0  0  0  0  0  0  0  0  0  0  0
    4.7993   -0.8134   -0.3250 N   0  0  0  0  0  0  0  0  0  0  0  0
    4.4852    0.5676   -0.0542 C   0  0  0  0  0  0  0  0  0  0  0  0
    5.3617    1.1130    1.0887 C   0  0  0  0  0  0  0  0  0  0  0  0
    5.1234    2.5758    1.3854 C   0  0  0  0  0  0  0  0  0  0  0  0
    4.2251    2.9835    2.3739 C   0  0  0  0  0  0  0  0  0  0  0  0
    3.9861    4.3455    2.6049 C   0  0  0  0  0  0  0  0  0  0  0  0
    4.6338    5.3268    1.8573 C   0  0  0  0  0  0  0  0  0  0  0  0
    4.4433    6.6599    2.0412 O   0  0  0  0  0  0  0  0  0  0  0  0
    5.5502    4.9312    0.8499 C   0  0  0  0  0  0  0  0  0  0  0  0
    6.1479    5.9424    0.1698 O   0  0  0  0  0  0  0  0  0  0  0  0
    7.0773    5.6313   -0.8391 C   0  0  0  0  0  0  0  0  0  0  0  0
    5.7788    3.5702    0.6306 C   0  0  0  0  0  0  0  0  0  0  0  0
    4.2042   -2.9688   -0.9634 N   0  0  0  0  0  0  0  0  0  0  0  0
    5.3372   -3.4696   -0.1868 C   0  0  0  0  0  0  0  0  0  0  0  0
    5.2444   -4.9951   -0.0569 C   0  0  0  0  0  0  0  0  0  0  0  0
    5.1333   -5.6895   -1.3400 N   0  0  0  0  0  0  0  0  0  0  0  0
    6.3905   -5.8830   -2.0513 C   0  0  0  0  0  0  0  0  0  0  0  0
    7.2961   -6.9148   -1.3978 C   0  0  0  0  0  0  0  0  0  0  0  0
    6.7625   -8.0919   -0.8495 C   0  0  0  0  0  0  0  0  0  0  0  0
    7.5995   -9.0637   -0.2968 C   0  0  0  0  0  0  0  0  0  0  0  0
    8.9861   -8.8752   -0.2827 C   0  0  0  0  0  0  0  0  0  0  0  0
    9.5274   -7.7052   -0.8215 C   0  0  0  0  0  0  0  0  0  0  0  0
    8.6859   -6.7322   -1.3710 C   0  0  0  0  0  0  0  0  0  0  0  0
    4.0393   -5.1303   -2.1228 C   0  0  0  0  0  0  0  0  0  0  0  0
    4.1091   -3.6060   -2.2814 C   0  0  0  0  0  0  0  0  0  0  0  0
   -0.4662   -2.2389   -2.1339 H   0  0  0  0  0  0  0  0  0  0  0  0
    0.8932   -2.1098   -3.2873 H   0  0  0  0  0  0  0  0  0  0  0  0
    0.2434   -0.6519   -2.5024 H   0  0  0  0  0  0  0  0  0  0  0  0
    1.6936   -2.9633   -1.0422 H   0  0  0  0  0  0  0  0  0  0  0  0
    0.9968   -1.5537   -0.2486 H   0  0  0  0  0  0  0  0  0  0  0  0
    2.6216   -0.1908   -1.4707 H   0  0  0  0  0  0  0  0  0  0  0  0
    3.4179    0.7294    0.2142 H   0  0  0  0  0  0  0  0  0  0  0  0
    4.6653    1.1921   -0.9542 H   0  0  0  0  0  0  0  0  0  0  0  0
    6.4149    0.9375    0.8150 H   0  0  0  0  0  0  0  0  0  0  0  0
    5.1680    0.5056    1.9878 H   0  0  0  0  0  0  0  0  0  0  0  0
    3.7058    2.2373    2.9813 H   0  0  0  0  0  0  0  0  0  0  0  0
    3.2841    4.6540    3.3870 H   0  0  0  0  0  0  0  0  0  0  0  0
    3.8081    6.7865    2.7577 H   0  0  0  0  0  0  0  0  0  0  0  0
    7.4299    6.5886   -1.2467 H   0  0  0  0  0  0  0  0  0  0  0  0
    6.6207    5.0423   -1.6560 H   0  0  0  0  0  0  0  0  0  0  0  0
    7.9447    5.0703   -0.4446 H   0  0  0  0  0  0  0  0  0  0  0  0
    6.4886    3.2602   -0.1379 H   0  0  0  0  0  0  0  0  0  0  0  0
    5.3212   -2.9949    0.8032 H   0  0  0  0  0  0  0  0  0  0  0  0
    6.2964   -3.1669   -0.6536 H   0  0  0  0  0  0  0  0  0  0  0  0
    4.3512   -5.2412    0.5453 H   0  0  0  0  0  0  0  0  0  0  0  0
    6.1206   -5.3792    0.4874 H   0  0  0  0  0  0  0  0  0  0  0  0
    6.9735   -4.9488   -2.2007 H   0  0  0  0  0  0  0  0  0  0  0  0
    6.1360   -6.2385   -3.0661 H   0  0  0  0  0  0  0  0  0  0  0  0
    5.6783   -8.2256   -0.8539 H   0  0  0  0  0  0  0  0  0  0  0  0
    7.1680   -9.9749    0.1267 H   0  0  0  0  0  0  0  0  0  0  0  0
    9.6408   -9.6355    0.1513 H   0  0  0  0  0  0  0  0  0  0  0  0
   10.6087   -7.5441   -0.8085 H   0  0  0  0  0  0  0  0  0  0  0  0
    9.1159   -5.8146   -1.7844 H   0  0  0  0  0  0  0  0  0  0  0  0
    3.0896   -5.3822   -1.6153 H   0  0  0  0  0  0  0  0  0  0  0  0
    4.0181   -5.6085   -3.1154 H   0  0  0  0  0  0  0  0  0  0  0  0
    3.2207   -3.2377   -2.8110 H   0  0  0  0  0  0  0  0  0  0  0  0
    4.9884   -3.3301   -2.9032 H   0  0  0  0  0  0  0  0  0  0  0  0
  1  2  1  0
  1 30  1  0
  1 31  1  0
  1 32  1  0
  2  3  1  0
  2 33  1  0
  2 34  1  0
  3  4  1  0
  3 35  1  0
  4  5  2  0
  4 17  1  0
  5  6  1  0
  6  7  1  0
  6 36  1  0
  6 37  1  0
  7  8  1  0
  7 38  1  0
  7 39  1  0
  8  9  2  0
  8 16  1  0
  9 10  1  0
  9 40  1  0
 10 11  2  0
 10 41  1  0
 11 12  1  0
 11 13  1  0
 12 42  1  0
 13 14  1  0
 13 16  2  0
 14 15  1  0
 15 43  1  0
 15 44  1  0
 15 45  1  0
 16 46  1  0
 17 18  1  0
 17 29  1  0
 18 19  1  0
 18 47  1  0
 18 48  1  0
 19 20  1  0
 19 49  1  0
 19 50  1  0
 20 21  1  0
 20 28  1  0
 21 22  1  0
 21 51  1  0
 21 52  1  0
 22 23  2  0
 22 27  1  0
 23 24  1  0
 23 53  1  0
 24 25  2  0
 24 54  1  0
 25 26  1  0
 25 55  1  0
 26 27  2  0
 26 56  1  0
 27 57  1  0
 28 29  1  0
 28 58  1  0
 28 59  1  0
 29 60  1  0
 29 61  1  0
M  END

