
     RDKit          3D

 71 75  0  0  0  0  0  0  0  0999 V2000
    7.1176    2.0415    2.0687 C   0  0  0  0  0  0  0  0  0  0  0  0
    5.8298    2.4302    1.6454 O   0  0  0  0  0  0  0  0  0  0  0  0
    5.6413    2.8046    0.3523 C   0  0  0  0  0  0  0  0  0  0  0  0
    6.6491    2.8465   -0.6207 C   0  0  0  0  0  0  0  0  0  0  0  0
    6.3549    3.2133   -1.9382 C   0  0  0  0  0  0  0  0  0  0  0  0
    5.0513    3.5458   -2.3305 C   0  0  0  0  0  0  0  0  0  0  0  0
    4.7750    3.9738   -3.7881 C   0  0  1  0  0  0  0  0  0  0  0  0
    3.2672    4.0683   -4.1087 C   0  0  0  0  0  0  0  0  0  0  0  0
    5.3989    5.3723   -4.0153 C   0  0  0  0  0  0  0  0  0  0  0  0
    5.4485    2.9963   -4.7385 C   0  0  0  0  0  0  0  0  0  0  0  0
    6.4711    3.2933   -5.4995 N   0  0  0  0  0  0  0  0  0  0  0  0
    6.8372    2.1780   -6.2095 N   0  0  0  0  0  0  0  0  0  0  0  0
    6.0202    1.2159   -5.8690 C   0  0  0  0  0  0  0  0  0  0  0  0
    6.0166   -0.4411   -6.4745 S   0  0  0  0  0  0  0  0  0  0  0  0
    7.3271   -0.3007   -7.7426 C   0  0  0  0  0  0  0  0  0  0  0  0
    8.7358   -0.3079   -7.1643 C   0  0  0  0  0  0  0  0  0  0  0  0
    9.6239   -0.3838   -8.2687 O   0  0  0  0  0  0  0  0  0  0  0  0
   10.9630   -0.3631   -8.0607 C   0  0  0  0  0  0  0  0  0  0  0  0
   11.7715   -0.4505   -9.2092 C   0  0  0  0  0  0  0  0  0  0  0  0
   13.1551   -0.4421   -9.0964 C   0  0  0  0  0  0  0  0  0  0  0  0
   13.7718   -0.3459   -7.8337 C   0  0  0  0  0  0  0  0  0  0  0  0
   15.2330   -0.3378   -7.7245 C   0  0  0  0  0  0  0  0  0  0  0  0
   16.0783   -0.4224   -8.7899 N   0  0  0  0  0  0  0  0  0  0  0  0
   17.2879   -0.3847   -8.3142 N   0  0  0  0  0  0  0  0  0  0  0  0
   17.1678   -0.2801   -6.9982 N   0  0  0  0  0  0  0  0  0  0  0  0
   18.3091   -0.2105   -6.1106 C   0  0  0  0  0  0  0  0  0  0  0  0
   15.9133   -0.2471   -6.5787 N   0  0  0  0  0  0  0  0  0  0  0  0
   12.9602   -0.2579   -6.6940 C   0  0  0  0  0  0  0  0  0  0  0  0
   11.5678   -0.2660   -6.7966 C   0  0  0  0  0  0  0  0  0  0  0  0
    5.1077    1.6570   -4.9322 N   0  0  0  0  0  0  0  0  0  0  0  0
    4.0688    0.8567   -4.3545 C   0  0  0  0  0  0  0  0  0  0  0  0
    2.9364    0.5411   -5.1187 C   0  0  0  0  0  0  0  0  0  0  0  0
    1.9289   -0.2602   -4.5820 C   0  0  0  0  0  0  0  0  0  0  0  0
    2.0695   -0.7361   -3.2788 C   0  0  0  0  0  0  0  0  0  0  0  0
    1.1036   -1.5015   -2.7590 F   0  0  0  0  0  0  0  0  0  0  0  0
    3.1898   -0.4377   -2.5056 C   0  0  0  0  0  0  0  0  0  0  0  0
    4.1975    0.3584   -3.0517 C   0  0  0  0  0  0  0  0  0  0  0  0
    4.0523    3.5173   -1.3457 C   0  0  0  0  0  0  0  0  0  0  0  0
    4.3226    3.1563   -0.0235 C   0  0  0  0  0  0  0  0  0  0  0  0
    3.2787    3.0869    0.8539 O   0  0  0  0  0  0  0  0  0  0  0  0
    3.2929    3.9661    1.9694 C   0  0  0  0  0  0  0  0  0  0  0  0
    7.0306    1.7753    3.1307 H   0  0  0  0  0  0  0  0  0  0  0  0
    7.8516    2.8608    1.9641 H   0  0  0  0  0  0  0  0  0  0  0  0
    7.4850    1.1626    1.5089 H   0  0  0  0  0  0  0  0  0  0  0  0
    7.6755    2.5855   -0.3612 H   0  0  0  0  0  0  0  0  0  0  0  0
    7.1637    3.2307   -2.6729 H   0  0  0  0  0  0  0  0  0  0  0  0
    2.8002    4.8752   -3.5245 H   0  0  0  0  0  0  0  0  0  0  0  0
    2.7252    3.1378   -3.8924 H   0  0  0  0  0  0  0  0  0  0  0  0
    3.1274    4.3093   -5.1735 H   0  0  0  0  0  0  0  0  0  0  0  0
    4.9391    6.0892   -3.3182 H   0  0  0  0  0  0  0  0  0  0  0  0
    5.2277    5.7137   -5.0467 H   0  0  0  0  0  0  0  0  0  0  0  0
    6.4832    5.3628   -3.8482 H   0  0  0  0  0  0  0  0  0  0  0  0
    7.1549    0.6116   -8.3295 H   0  0  0  0  0  0  0  0  0  0  0  0
    7.1793   -1.1765   -8.3921 H   0  0  0  0  0  0  0  0  0  0  0  0
    8.8744   -1.1779   -6.4965 H   0  0  0  0  0  0  0  0  0  0  0  0
    8.9034    0.6162   -6.5875 H   0  0  0  0  0  0  0  0  0  0  0  0
   11.2824   -0.5236  -10.1825 H   0  0  0  0  0  0  0  0  0  0  0  0
   13.7818   -0.5095   -9.9875 H   0  0  0  0  0  0  0  0  0  0  0  0
   19.2115   -0.2484   -6.7320 H   0  0  0  0  0  0  0  0  0  0  0  0
   18.2948   -1.0600   -5.4126 H   0  0  0  0  0  0  0  0  0  0  0  0
   18.2825    0.7282   -5.5388 H   0  0  0  0  0  0  0  0  0  0  0  0
   13.4290   -0.1810   -5.7108 H   0  0  0  0  0  0  0  0  0  0  0  0
   10.9657   -0.1925   -5.8911 H   0  0  0  0  0  0  0  0  0  0  0  0
    2.8485    0.9267   -6.1360 H   0  0  0  0  0  0  0  0  0  0  0  0
    1.0378   -0.5197   -5.1562 H   0  0  0  0  0  0  0  0  0  0  0  0
    3.2620   -0.8293   -1.4896 H   0  0  0  0  0  0  0  0  0  0  0  0
    5.0840    0.6018   -2.4654 H   0  0  0  0  0  0  0  0  0  0  0  0
    3.0142    3.7608   -1.5714 H   0  0  0  0  0  0  0  0  0  0  0  0
    2.3444    3.8107    2.5026 H   0  0  0  0  0  0  0  0  0  0  0  0
    3.3489    5.0211    1.6435 H   0  0  0  0  0  0  0  0  0  0  0  0
    4.1311    3.7532    2.6506 H   0  0  0  0  0  0  0  0  0  0  0  0
  1  2  1  0
  1 42  1  0
  1 43  1  0
  1 44  1  0
  2  3  1  0
  3  4  2  0
  3 39  1  0
  4  5  1  0
  4 45  1  0
  5  6  2  0
  5 46  1  0
  6  7  1  0
  6 38  1  0
  7  8  1  6
  7  9  1  0
  7 10  1  0
  8 47  1  0
  8 48  1  0
  8 49  1  0
  9 50  1  0
  9 51  1  0
  9 52  1  0
 10 11  2  0
 10 30  1  0
 11 12  1  0
 12 13  2  0
 13 14  1  0
 13 30  1  0
 14 15  1  0
 15 16  1  0
 15 53  1  0
 15 54  1  0
 16 17  1  0
 16 55  1  0
 16 56  1  0
 17 18  1  0
 18 19  2  0
 18 29  1  0
 19 20  1  0
 19 57  1  0
 20 21  2  0
 20 58  1  0
 21 22  1  0
 21 28  1  0
 22 23  1  0
 22 27  2  0
 23 24  2  0
 24 25  1  0
 25 26  1  0
 25 27  1  0
 26 59  1  0
 26 60  1  0
 26 61  1  0
 28 29  2  0
 28 62  1  0
 29 63  1  0
 30 31  1  0
 31 32  2  0
 31 37  1  0
 32 33  1  0
 32 64  1  0
 33 34  2  0
 33 65  1  0
 34 35  1  0
 34 36  1  0
 36 37  2  0
 36 66  1  0
 37 67  1  0
 38 39  2  0
 38 68  1  0
 39 40  1  0
 40 41  1  0
 41 69  1  0
 41 70  1  0
 41 71  1  0
M  END

