
     RDKit          3D

 33 36  0  0  0  0  0  0  0  0999 V2000
    1.3838    1.2115    0.9301 C   0  0  0  0  0  0  0  0  0  0  0  0
    2.7769    1.2235    0.6200 O   0  0  0  0  0  0  0  0  0  0  0  0
    3.1210    0.7440   -0.6042 C   0  0  0  0  0  0  0  0  0  0  0  0
    2.3166    0.3230   -1.4086 O   0  0  0  0  0  0  0  0  0  0  0  0
    4.5555    0.8032   -0.8139 C   0  0  0  0  0  0  0  0  0  0  0  0
    5.4413    1.2900    0.1255 N   0  0  0  0  0  0  0  0  0  0  0  0
    5.1182    1.6329    1.0231 H   0  0  0  0  0  0  0  0  0  0  0  0
    6.7342    1.2522   -0.2848 C   0  0  0  0  0  0  0  0  0  0  0  0
    7.8499    1.7151    0.5404 C   0  0  0  0  0  0  0  0  0  0  0  0
    7.6397    2.2414    1.8329 C   0  0  0  0  0  0  0  0  0  0  0  0
    8.7104    2.6794    2.6106 C   0  0  0  0  0  0  0  0  0  0  0  0
   10.0168    2.6026    2.1165 C   0  0  0  0  0  0  0  0  0  0  0  0
   10.2386    2.0833    0.8371 C   0  0  0  0  0  0  0  0  0  0  0  0
    9.1725    1.6430    0.0532 C   0  0  0  0  0  0  0  0  0  0  0  0
    6.6977    0.6959   -1.5998 C   0  0  0  0  0  0  0  0  0  0  0  0
    7.7507    0.4572   -2.4276 N   0  0  0  0  0  0  0  0  0  0  0  0
    7.5371   -0.0553   -3.5938 N   0  0  0  0  0  0  0  0  0  0  0  0
    6.2602   -0.3543   -3.9905 C   0  0  0  0  0  0  0  0  0  0  0  0
    5.9413   -0.9251   -5.2698 C   0  0  0  0  0  0  0  0  0  0  0  0
    4.6009   -1.1260   -5.4163 C   0  0  0  0  0  0  0  0  0  0  0  0
    3.6630   -0.6369   -4.0228 S   0  0  0  0  0  0  0  0  0  0  0  0
    5.1088   -0.1414   -3.2000 C   0  0  0  0  0  0  0  0  0  0  0  0
    5.3219    0.4175   -1.9232 C   0  0  0  0  0  0  0  0  0  0  0  0
    1.2905    1.6260    1.9416 H   0  0  0  0  0  0  0  0  0  0  0  0
    0.9848    0.1864    0.8999 H   0  0  0  0  0  0  0  0  0  0  0  0
    0.8178    1.8253    0.2130 H   0  0  0  0  0  0  0  0  0  0  0  0
    6.6321    2.3167    2.2506 H   0  0  0  0  0  0  0  0  0  0  0  0
    8.5231    3.0834    3.6086 H   0  0  0  0  0  0  0  0  0  0  0  0
   10.8558    2.9461    2.7265 H   0  0  0  0  0  0  0  0  0  0  0  0
   11.2556    2.0191    0.4420 H   0  0  0  0  0  0  0  0  0  0  0  0
    9.3397    1.2371   -0.9454 H   0  0  0  0  0  0  0  0  0  0  0  0
    6.6981   -1.1610   -6.0176 H   0  0  0  0  0  0  0  0  0  0  0  0
    4.0823   -1.5428   -6.2794 H   0  0  0  0  0  0  0  0  0  0  0  0
  1  2  1  0
  1 24  1  0
  1 25  1  0
  1 26  1  0
  2  3  1  0
  3  4  2  0
  3  5  1  0
  5  6  1  0
  5 23  2  0
  6  7  1  0
  6  8  1  0
  8  9  1  0
  8 15  2  0
  9 10  2  0
  9 14  1  0
 10 11  1  0
 10 27  1  0
 11 12  2  0
 11 28  1  0
 12 13  1  0
 12 29  1  0
 13 14  2  0
 13 30  1  0
 14 31  1  0
 15 16  1  0
 15 23  1  0
 16 17  2  0
 17 18  1  0
 18 19  1  0
 18 22  2  0
 19 20  2  0
 19 32  1  0
 20 21  1  0
 20 33  1  0
 21 22  1  0
 22 23  1  0
M  END

