
     RDKit          3D

 58 60  0  0  0  0  0  0  0  0999 V2000
    2.4993    0.8686   -0.1343 C   0  0  0  0  0  0  0  0  0  0  0  0
    3.4628    1.2701   -1.2515 C   0  0  0  0  0  0  0  0  0  0  0  0
    3.5647    0.2546   -2.3099 N   0  0  0  0  0  0  0  0  0  0  0  0
    2.5368    0.2861   -3.3550 C   0  0  0  0  0  0  0  0  0  0  0  0
    2.9206    1.1158   -4.5819 C   0  0  0  0  0  0  0  0  0  0  0  0
    4.6993   -0.5269   -2.3361 C   0  0  0  0  0  0  0  0  0  0  0  0
    5.6063   -0.3894   -1.5310 O   0  0  0  0  0  0  0  0  0  0  0  0
    4.8104   -1.6566   -3.3897 C   0  0  1  0  0  0  0  0  0  0  0  0
    6.1325   -1.5181   -4.1885 C   0  0  0  0  0  0  0  0  0  0  0  0
    6.6630   -2.9534   -4.3117 C   0  0  0  0  0  0  0  0  0  0  0  0
    6.2429   -3.5820   -2.9822 C   0  0  0  0  0  0  0  0  0  0  0  0
    4.9419   -2.9626   -2.7301 N   0  0  0  0  0  0  0  0  0  0  0  0
    3.9312   -3.6736   -2.1309 C   0  0  0  0  0  0  0  0  0  0  0  0
    4.0680   -4.8380   -1.7764 O   0  0  0  0  0  0  0  0  0  0  0  0
    2.7182   -2.9921   -2.0042 N   0  0  0  0  0  0  0  0  0  0  0  0
    1.6580   -3.6138   -1.2154 C   0  0  1  0  0  0  0  0  0  0  0  0
    1.1031   -4.9249   -1.8205 C   0  0  0  0  0  0  0  0  0  0  0  0
    1.3455   -6.1250   -0.9131 C   0  0  0  0  0  0  0  0  0  0  0  0
    0.8816   -5.8311    0.5039 C   0  0  0  0  0  0  0  0  0  0  0  0
    1.5866   -4.6653    1.0707 N   0  0  0  0  0  0  0  0  0  0  0  0
    1.7302   -4.6313    2.4739 C   0  0  0  0  0  0  0  0  0  0  0  0
    2.4527   -3.7232    3.2975 C   0  0  0  0  0  0  0  0  0  0  0  0
    2.2266   -4.1924    4.5789 C   0  0  0  0  0  0  0  0  0  0  0  0
    1.4292   -5.2877    4.4771 N   0  0  0  0  0  0  0  0  0  0  0  0
    0.9243   -6.1321    5.5357 C   0  0  0  0  0  0  0  0  0  0  0  0
    1.1165   -5.5672    3.2016 N   0  0  0  0  0  0  0  0  0  0  0  0
    2.0644   -3.6459    0.2824 C   0  0  0  0  0  0  0  0  0  0  0  0
    2.7188   -2.7091    0.7172 O   0  0  0  0  0  0  0  0  0  0  0  0
    2.4876    1.6407    0.6520 H   0  0  0  0  0  0  0  0  0  0  0  0
    2.7992   -0.0883    0.3201 H   0  0  0  0  0  0  0  0  0  0  0  0
    1.4651    0.7605   -0.5031 H   0  0  0  0  0  0  0  0  0  0  0  0
    4.4726    1.4091   -0.8456 H   0  0  0  0  0  0  0  0  0  0  0  0
    3.1512    2.2239   -1.7117 H   0  0  0  0  0  0  0  0  0  0  0  0
    1.6281    0.7055   -2.8958 H   0  0  0  0  0  0  0  0  0  0  0  0
    2.2671   -0.7380   -3.6516 H   0  0  0  0  0  0  0  0  0  0  0  0
    3.1743    2.1503   -4.3010 H   0  0  0  0  0  0  0  0  0  0  0  0
    2.0846    1.1540   -5.2988 H   0  0  0  0  0  0  0  0  0  0  0  0
    3.7918    0.6857   -5.1010 H   0  0  0  0  0  0  0  0  0  0  0  0
    3.9459   -1.6827   -4.0682 H   0  0  0  0  0  0  0  0  0  0  0  0
    6.8346   -0.9110   -3.5987 H   0  0  0  0  0  0  0  0  0  0  0  0
    5.9747   -1.0219   -5.1579 H   0  0  0  0  0  0  0  0  0  0  0  0
    7.7500   -2.9896   -4.4792 H   0  0  0  0  0  0  0  0  0  0  0  0
    6.1734   -3.4805   -5.1478 H   0  0  0  0  0  0  0  0  0  0  0  0
    6.9557   -3.3279   -2.1769 H   0  0  0  0  0  0  0  0  0  0  0  0
    6.1305   -4.6734   -3.0077 H   0  0  0  0  0  0  0  0  0  0  0  0
    2.8236   -2.0081   -1.7737 H   0  0  0  0  0  0  0  0  0  0  0  0
    0.8412   -2.8720   -1.2219 H   0  0  0  0  0  0  0  0  0  0  0  0
    1.5546   -5.0834   -2.8092 H   0  0  0  0  0  0  0  0  0  0  0  0
    0.0177   -4.8064   -1.9819 H   0  0  0  0  0  0  0  0  0  0  0  0
    2.4193   -6.3619   -0.9084 H   0  0  0  0  0  0  0  0  0  0  0  0
    0.8007   -7.0073   -1.2872 H   0  0  0  0  0  0  0  0  0  0  0  0
    1.0786   -6.6796    1.1704 H   0  0  0  0  0  0  0  0  0  0  0  0
   -0.2106   -5.6572    0.5415 H   0  0  0  0  0  0  0  0  0  0  0  0
    3.0451   -2.8758    2.9793 H   0  0  0  0  0  0  0  0  0  0  0  0
    2.5772   -3.8288    5.5430 H   0  0  0  0  0  0  0  0  0  0  0  0
    1.2626   -5.7367    6.5028 H   0  0  0  0  0  0  0  0  0  0  0  0
    1.2947   -7.1627    5.4185 H   0  0  0  0  0  0  0  0  0  0  0  0
   -0.1765   -6.1519    5.5194 H   0  0  0  0  0  0  0  0  0  0  0  0
  1  2  1  0
  1 29  1  0
  1 30  1  0
  1 31  1  0
  2  3  1  0
  2 32  1  0
  2 33  1  0
  3  4  1  0
  3  6  1  0
  4  5  1  0
  4 34  1  0
  4 35  1  0
  5 36  1  0
  5 37  1  0
  5 38  1  0
  6  7  2  0
  6  8  1  0
  8  9  1  0
  8 12  1  0
  8 39  1  6
  9 10  1  0
  9 40  1  0
  9 41  1  0
 10 11  1  0
 10 42  1  0
 10 43  1  0
 11 12  1  0
 11 44  1  0
 11 45  1  0
 12 13  1  0
 13 14  2  0
 13 15  1  0
 15 16  1  0
 15 46  1  0
 16 17  1  0
 16 27  1  0
 16 47  1  1
 17 18  1  0
 17 48  1  0
 17 49  1  0
 18 19  1  0
 18 50  1  0
 18 51  1  0
 19 20  1  0
 19 52  1  0
 19 53  1  0
 20 21  1  0
 20 27  1  0
 21 22  1  0
 21 26  2  0
 22 23  2  0
 22 54  1  0
 23 24  1  0
 23 55  1  0
 24 25  1  0
 24 26  1  0
 25 56  1  0
 25 57  1  0
 25 58  1  0
 27 28  2  0
M  END

