
     RDKit          3D

 40 42  0  0  0  0  0  0  0  0999 V2000
    2.8080   -0.4409    1.9039 C   0  0  0  0  0  0  0  0  0  0  0  0
    3.3962   -0.3923    0.6225 O   0  0  0  0  0  0  0  0  0  0  0  0
    3.3301   -1.4794   -0.1833 C   0  0  0  0  0  0  0  0  0  0  0  0
    3.9454   -1.3574   -1.4431 C   0  0  0  0  0  0  0  0  0  0  0  0
    3.9242   -2.4254   -2.3342 C   0  0  0  0  0  0  0  0  0  0  0  0
    3.2932   -3.6299   -1.9983 C   0  0  0  0  0  0  0  0  0  0  0  0
    2.6916   -3.7528   -0.7442 C   0  0  0  0  0  0  0  0  0  0  0  0
    2.0355   -4.9698   -0.3807 N   0  0  0  0  0  0  0  0  0  0  0  0
    2.5948   -6.2126   -0.1147 C   0  0  0  0  0  0  0  0  0  0  0  0
    4.0308   -6.5294   -0.0187 C   0  0  0  0  0  0  0  0  0  0  0  0
    5.0413   -5.5946    0.2674 C   0  0  0  0  0  0  0  0  0  0  0  0
    6.3778   -5.9872    0.3713 C   0  0  0  0  0  0  0  0  0  0  0  0
    6.7396   -7.3287    0.1971 C   0  0  0  0  0  0  0  0  0  0  0  0
    8.0241   -7.7628    0.2836 O   0  0  0  0  0  0  0  0  0  0  0  0
    5.7405   -8.2768   -0.0747 C   0  0  0  0  0  0  0  0  0  0  0  0
    4.4135   -7.8795   -0.1777 C   0  0  0  0  0  0  0  0  0  0  0  0
    1.6477   -7.1154    0.0518 N   0  0  0  0  0  0  0  0  0  0  0  0
    0.4445   -6.4794   -0.1049 C   0  0  0  0  0  0  0  0  0  0  0  0
   -0.8455   -7.2292    0.0242 C   0  0  0  0  0  0  0  0  0  0  0  0
    0.6477   -5.1389   -0.3757 C   0  0  0  0  0  0  0  0  0  0  0  0
   -0.3045   -4.0255   -0.6630 C   0  0  0  0  0  0  0  0  0  0  0  0
    2.7043   -2.6848    0.1676 C   0  0  0  0  0  0  0  0  0  0  0  0
    2.9821    0.5404    2.3650 H   0  0  0  0  0  0  0  0  0  0  0  0
    3.2673   -1.2205    2.5379 H   0  0  0  0  0  0  0  0  0  0  0  0
    1.7195   -0.6225    1.8499 H   0  0  0  0  0  0  0  0  0  0  0  0
    4.4298   -0.4117   -1.6933 H   0  0  0  0  0  0  0  0  0  0  0  0
    4.4027   -2.3203   -3.3110 H   0  0  0  0  0  0  0  0  0  0  0  0
    3.2704   -4.4700   -2.6937 H   0  0  0  0  0  0  0  0  0  0  0  0
    4.7973   -4.5456    0.4309 H   0  0  0  0  0  0  0  0  0  0  0  0
    7.1463   -5.2409    0.5983 H   0  0  0  0  0  0  0  0  0  0  0  0
    8.6040   -7.0135    0.4727 H   0  0  0  0  0  0  0  0  0  0  0  0
    6.0294   -9.3220   -0.2031 H   0  0  0  0  0  0  0  0  0  0  0  0
    3.6319   -8.6136   -0.3794 H   0  0  0  0  0  0  0  0  0  0  0  0
   -0.8759   -8.0762   -0.6808 H   0  0  0  0  0  0  0  0  0  0  0  0
   -1.7178   -6.5890   -0.1719 H   0  0  0  0  0  0  0  0  0  0  0  0
   -0.9548   -7.6533    1.0365 H   0  0  0  0  0  0  0  0  0  0  0  0
   -1.3315   -4.4142   -0.6966 H   0  0  0  0  0  0  0  0  0  0  0  0
   -0.0963   -3.5430   -1.6331 H   0  0  0  0  0  0  0  0  0  0  0  0
   -0.2752   -3.2307    0.1022 H   0  0  0  0  0  0  0  0  0  0  0  0
    2.2345   -2.8241    1.1403 H   0  0  0  0  0  0  0  0  0  0  0  0
  1  2  1  0
  1 23  1  0
  1 24  1  0
  1 25  1  0
  2  3  1  0
  3  4  2  0
  3 22  1  0
  4  5  1  0
  4 26  1  0
  5  6  2  0
  5 27  1  0
  6  7  1  0
  6 28  1  0
  7  8  1  0
  7 22  2  0
  8  9  1  0
  8 20  1  0
  9 10  1  0
  9 17  2  0
 10 11  2  0
 10 16  1  0
 11 12  1  0
 11 29  1  0
 12 13  2  0
 12 30  1  0
 13 14  1  0
 13 15  1  0
 14 31  1  0
 15 16  2  0
 15 32  1  0
 16 33  1  0
 17 18  1  0
 18 19  1  0
 18 20  2  0
 19 34  1  0
 19 35  1  0
 19 36  1  0
 20 21  1  0
 21 37  1  0
 21 38  1  0
 21 39  1  0
 22 40  1  0
M  END

