
     RDKit          3D

 68 74  0  0  0  0  0  0  0  0999 V2000
    4.4260    5.0361    1.6073 C   0  0  0  0  0  0  0  0  0  0  0  0
    5.1848    3.8866    1.0279 C   0  0  0  0  0  0  0  0  0  0  0  0
    4.6205    3.1201    0.0141 N   0  0  0  0  0  0  0  0  0  0  0  0
    3.7014    3.2720   -0.3787 H   0  0  0  0  0  0  0  0  0  0  0  0
    5.4910    2.1246   -0.3602 C   0  0  0  0  0  0  0  0  0  0  0  0
    5.3785    1.1119   -1.3204 C   0  0  0  0  0  0  0  0  0  0  0  0
    6.4463    0.2325   -1.4674 C   0  0  0  0  0  0  0  0  0  0  0  0
    7.6271    0.3402   -0.6839 C   0  0  0  0  0  0  0  0  0  0  0  0
    8.7431   -0.6221   -0.8730 C   0  0  0  0  0  0  0  0  0  0  0  0
   10.0890   -0.2207   -0.7437 C   0  0  0  0  0  0  0  0  0  0  0  0
   11.1349   -1.1217   -0.9102 C   0  0  0  0  0  0  0  0  0  0  0  0
   10.8865   -2.4748   -1.2112 C   0  0  0  0  0  0  0  0  0  0  0  0
   12.0537   -3.3612   -1.4104 C   0  0  0  0  0  0  0  0  0  0  0  0
   13.1802   -2.9193   -1.8631 N   0  0  0  0  0  0  0  0  0  0  0  0
   14.0801   -4.0204   -1.8763 C   0  0  2  0  0  0  0  0  0  0  0  0
   15.5630   -3.8334   -1.5906 C   0  0  0  0  0  0  0  0  0  0  0  0
   15.1267   -4.1730   -2.9714 C   0  0  0  0  0  0  0  0  0  0  0  0
   13.3613   -5.2182   -1.3456 C   0  0  0  0  0  0  0  0  0  0  0  0
   13.7649   -6.3449   -1.1321 O   0  0  0  0  0  0  0  0  0  0  0  0
   12.0715   -4.7443   -1.0987 N   0  0  0  0  0  0  0  0  0  0  0  0
   11.0945   -5.5621   -0.3910 C   0  0  0  0  0  0  0  0  0  0  0  0
   10.2436   -6.4765   -1.2810 C   0  0  1  0  0  0  0  0  0  0  0  0
   10.9781   -7.6431   -1.9670 C   0  0  0  0  0  0  0  0  0  0  0  0
    9.8456   -8.6071   -2.3435 C   0  0  0  0  0  0  0  0  0  0  0  0
    8.8361   -8.3736   -1.3041 N   0  0  0  0  0  0  0  0  0  0  0  0
    7.6949   -9.0870   -1.0668 C   0  0  0  0  0  0  0  0  0  0  0  0
    6.9363   -8.7835   -0.1514 O   0  0  0  0  0  0  0  0  0  0  0  0
    7.4026  -10.2527   -1.9692 C   0  0  1  0  0  0  0  0  0  0  0  0
    6.7394  -11.4607   -1.3294 C   0  0  0  0  0  0  0  0  0  0  0  0
    5.9387  -10.5686   -2.2181 C   0  0  0  0  0  0  0  0  0  0  0  0
    9.1406   -7.1974   -0.4903 C   0  0  0  0  0  0  0  0  0  0  0  0
    9.5486   -2.8801   -1.3567 C   0  0  0  0  0  0  0  0  0  0  0  0
    8.5030   -1.9721   -1.1905 C   0  0  0  0  0  0  0  0  0  0  0  0
    7.7204    1.3651    0.2694 C   0  0  0  0  0  0  0  0  0  0  0  0
    6.6571    2.2649    0.4441 C   0  0  0  0  0  0  0  0  0  0  0  0
    6.4408    3.3916    1.3235 C   0  0  0  0  0  0  0  0  0  0  0  0
    7.4162    3.8950    2.3434 C   0  0  0  0  0  0  0  0  0  0  0  0
    3.4716    4.7089    2.0563 H   0  0  0  0  0  0  0  0  0  0  0  0
    4.1847    5.7929    0.8402 H   0  0  0  0  0  0  0  0  0  0  0  0
    5.0084    5.5344    2.3934 H   0  0  0  0  0  0  0  0  0  0  0  0
    4.4863    1.0143   -1.9442 H   0  0  0  0  0  0  0  0  0  0  0  0
    6.3841   -0.5468   -2.2297 H   0  0  0  0  0  0  0  0  0  0  0  0
   10.3186    0.8257   -0.5312 H   0  0  0  0  0  0  0  0  0  0  0  0
   12.1711   -0.7911   -0.8230 H   0  0  0  0  0  0  0  0  0  0  0  0
   16.0288   -4.6154   -0.9843 H   0  0  0  0  0  0  0  0  0  0  0  0
   15.8667   -2.8065   -1.3754 H   0  0  0  0  0  0  0  0  0  0  0  0
   15.2915   -5.1914   -3.3342 H   0  0  0  0  0  0  0  0  0  0  0  0
   15.1214   -3.3845   -3.7275 H   0  0  0  0  0  0  0  0  0  0  0  0
   10.4464   -4.8953    0.1953 H   0  0  0  0  0  0  0  0  0  0  0  0
   11.6591   -6.1857    0.3216 H   0  0  0  0  0  0  0  0  0  0  0  0
    9.7637   -5.8648   -2.0659 H   0  0  0  0  0  0  0  0  0  0  0  0
   11.6716   -8.1146   -1.2537 H   0  0  0  0  0  0  0  0  0  0  0  0
   11.5752   -7.3350   -2.8365 H   0  0  0  0  0  0  0  0  0  0  0  0
   10.1865   -9.6542   -2.3533 H   0  0  0  0  0  0  0  0  0  0  0  0
    9.4424   -8.3790   -3.3482 H   0  0  0  0  0  0  0  0  0  0  0  0
    8.0939  -10.4478   -2.7905 H   0  0  0  0  0  0  0  0  0  0  0  0
    6.5579  -11.3881   -0.2540 H   0  0  0  0  0  0  0  0  0  0  0  0
    7.0357  -12.4481   -1.6939 H   0  0  0  0  0  0  0  0  0  0  0  0
    5.2223   -9.8978   -1.7372 H   0  0  0  0  0  0  0  0  0  0  0  0
    5.6645  -10.9209   -3.2163 H   0  0  0  0  0  0  0  0  0  0  0  0
    9.4969   -7.4959    0.5148 H   0  0  0  0  0  0  0  0  0  0  0  0
    8.2346   -6.5920   -0.3361 H   0  0  0  0  0  0  0  0  0  0  0  0
    9.3059   -3.9077   -1.6256 H   0  0  0  0  0  0  0  0  0  0  0  0
    7.4754   -2.3274   -1.2918 H   0  0  0  0  0  0  0  0  0  0  0  0
    8.6100    1.4462    0.8985 H   0  0  0  0  0  0  0  0  0  0  0  0
    8.3714    4.1949    1.8780 H   0  0  0  0  0  0  0  0  0  0  0  0
    7.6568    3.1199    3.0918 H   0  0  0  0  0  0  0  0  0  0  0  0
    7.0301    4.7684    2.8893 H   0  0  0  0  0  0  0  0  0  0  0  0
  1  2  1  0
  1 38  1  0
  1 39  1  0
  1 40  1  0
  2  3  1  0
  2 36  2  0
  3  4  1  0
  3  5  1  0
  5  6  2  0
  5 35  1  0
  6  7  1  0
  6 41  1  0
  7  8  2  0
  7 42  1  0
  8  9  1  0
  8 34  1  0
  9 10  2  0
  9 33  1  0
 10 11  1  0
 10 43  1  0
 11 12  2  0
 11 44  1  0
 12 13  1  0
 12 32  1  0
 13 14  2  0
 13 20  1  0
 15 14  1  6
 15 16  1  0
 15 17  1  0
 15 18  1  0
 16 17  1  0
 16 45  1  0
 16 46  1  0
 17 47  1  0
 17 48  1  0
 18 19  2  0
 18 20  1  0
 20 21  1  0
 21 22  1  0
 21 49  1  0
 21 50  1  0
 22 23  1  0
 22 31  1  0
 22 51  1  6
 23 24  1  0
 23 52  1  0
 23 53  1  0
 24 25  1  0
 24 54  1  0
 24 55  1  0
 25 26  1  0
 25 31  1  0
 26 27  2  0
 26 28  1  0
 28 29  1  0
 28 30  1  0
 28 56  1  6
 29 30  1  0
 29 57  1  0
 29 58  1  0
 30 59  1  0
 30 60  1  0
 31 61  1  0
 31 62  1  0
 32 33  2  0
 32 63  1  0
 33 64  1  0
 34 35  2  0
 34 65  1  0
 35 36  1  0
 36 37  1  0
 37 66  1  0
 37 67  1  0
 37 68  1  0
M  END

