
     RDKit          3D

 39 40  0  0  0  0  0  0  0  0999 V2000
    2.9282   -0.2757    0.0862 C   0  0  0  0  0  0  0  0  0  0  0  0
    2.6519   -1.1725   -1.1271 C   0  0  1  0  0  0  0  0  0  0  0  0
    1.1487   -1.3319   -1.4356 C   0  0  0  0  0  0  0  0  0  0  0  0
    0.5420   -0.0566   -2.0350 C   0  0  0  0  0  0  0  0  0  0  0  0
    1.3445    0.4244   -3.2456 C   0  0  0  0  0  0  0  0  0  0  0  0
    2.7594    0.5615   -2.8741 N   0  0  0  0  0  0  0  0  0  0  0  0
    3.6841    1.5486   -3.8704 S   0  0  1  0  0  0  0  0  0  0  0  0
    5.0850    1.3170   -3.5127 O   0  0  0  0  0  0  0  0  0  0  0  0
    3.2674    1.4657   -5.2719 O   0  0  0  0  0  0  0  0  0  0  0  0
    3.1423    3.0477   -3.3251 N   0  0  0  0  0  0  0  0  0  0  0  0
    3.4724    4.1983   -4.1706 C   0  0  0  0  0  0  0  0  0  0  0  0
    2.8800    5.4889   -3.5973 C   0  0  1  0  0  0  0  0  0  0  0  0
    1.3472    5.5136   -3.4965 C   0  0  0  0  0  0  0  0  0  0  0  0
    0.9626    6.5314   -2.4211 C   0  0  0  0  0  0  0  0  0  0  0  0
    1.8387    6.2292   -1.2023 C   0  0  0  0  0  0  0  0  0  0  0  0
    3.5135    5.8326   -1.8713 S   0  0  0  0  0  0  0  0  0  0  0  0
    3.3826   -0.6790   -2.3880 C   0  0  0  0  0  0  0  0  0  0  0  0
    2.3917   -0.6394    0.9775 H   0  0  0  0  0  0  0  0  0  0  0  0
    2.6174    0.7645   -0.0955 H   0  0  0  0  0  0  0  0  0  0  0  0
    4.0037   -0.2595    0.3252 H   0  0  0  0  0  0  0  0  0  0  0  0
    3.0597   -2.1747   -0.9056 H   0  0  0  0  0  0  0  0  0  0  0  0
    0.6014   -1.6275   -0.5248 H   0  0  0  0  0  0  0  0  0  0  0  0
    1.0221   -2.1588   -2.1576 H   0  0  0  0  0  0  0  0  0  0  0  0
    0.5143    0.7470   -1.2802 H   0  0  0  0  0  0  0  0  0  0  0  0
   -0.5007   -0.2369   -2.3452 H   0  0  0  0  0  0  0  0  0  0  0  0
    0.9793    1.3993   -3.5960 H   0  0  0  0  0  0  0  0  0  0  0  0
    1.2375   -0.2896   -4.0865 H   0  0  0  0  0  0  0  0  0  0  0  0
    3.4522    3.1943   -2.3599 H   0  0  0  0  0  0  0  0  0  0  0  0
    3.0499    4.0178   -5.1709 H   0  0  0  0  0  0  0  0  0  0  0  0
    4.5649    4.3201   -4.2952 H   0  0  0  0  0  0  0  0  0  0  0  0
    3.2306    6.3174   -4.2328 H   0  0  0  0  0  0  0  0  0  0  0  0
    0.9928    4.5107   -3.2084 H   0  0  0  0  0  0  0  0  0  0  0  0
    0.9021    5.7531   -4.4763 H   0  0  0  0  0  0  0  0  0  0  0  0
   -0.1085    6.4790   -2.1643 H   0  0  0  0  0  0  0  0  0  0  0  0
    1.1664    7.5549   -2.7785 H   0  0  0  0  0  0  0  0  0  0  0  0
    1.4552    5.3672   -0.6343 H   0  0  0  0  0  0  0  0  0  0  0  0
    1.9291    7.0829   -0.5151 H   0  0  0  0  0  0  0  0  0  0  0  0
    4.4395   -0.4735   -2.1779 H   0  0  0  0  0  0  0  0  0  0  0  0
    3.3411   -1.4639   -3.1702 H   0  0  0  0  0  0  0  0  0  0  0  0
  1  2  1  0
  1 18  1  0
  1 19  1  0
  1 20  1  0
  2  3  1  0
  2 17  1  0
  2 21  1  1
  3  4  1  0
  3 22  1  0
  3 23  1  0
  4  5  1  0
  4 24  1  0
  4 25  1  0
  5  6  1  0
  5 26  1  0
  5 27  1  0
  6  7  1  0
  6 17  1  0
  7  8  2  0
  7  9  2  0
  7 10  1  1
 10 11  1  0
 10 28  1  0
 11 12  1  0
 11 29  1  0
 11 30  1  0
 12 13  1  0
 12 16  1  0
 12 31  1  6
 13 14  1  0
 13 32  1  0
 13 33  1  0
 14 15  1  0
 14 34  1  0
 14 35  1  0
 15 16  1  0
 15 36  1  0
 15 37  1  0
 17 38  1  0
 17 39  1  0
M  END

