
     RDKit          3D

 30 32  0  0  0  0  0  0  0  0999 V2000
    0.8763    0.1188   -0.3107 C   0  0  0  0  0  0  0  0  0  0  0  0
    2.3685    0.1163   -0.1663 C   0  0  0  0  0  0  0  0  0  0  0  0
    3.1959   -1.4406   -0.2688 S   0  0  0  0  0  0  0  0  0  0  0  0
    4.7463   -0.6781   -0.0259 C   0  0  0  0  0  0  0  0  0  0  0  0
    5.9030   -1.3409    0.0130 N   0  0  0  0  0  0  0  0  0  0  0  0
    6.9703   -0.5808    0.2110 C   0  0  0  0  0  0  0  0  0  0  0  0
    6.9795    0.7539    0.3653 N   0  0  0  0  0  0  0  0  0  0  0  0
    5.8278    1.3909    0.3227 C   0  0  0  0  0  0  0  0  0  0  0  0
    5.7991    2.7434    0.4608 O   0  0  0  0  0  0  0  0  0  0  0  0
    6.9414    3.4550    0.7453 C   0  0  0  0  0  0  0  0  0  0  0  0
    7.2873    4.5539   -0.0057 C   0  0  0  0  0  0  0  0  0  0  0  0
    8.6732    5.3440    0.6464 S   0  0  0  0  0  0  0  0  0  0  0  0
    8.8044    4.1674    1.9338 C   0  0  0  0  0  0  0  0  0  0  0  0
    9.8526    4.1903    2.9895 C   0  0  0  0  0  0  0  0  0  0  0  0
    9.8033    3.4831    3.9602 O   0  0  0  0  0  0  0  0  0  0  0  0
   10.8839    5.0493    2.8161 O   0  0  0  0  0  0  0  0  0  0  0  0
    7.8020    3.2296    1.8571 C   0  0  0  0  0  0  0  0  0  0  0  0
    4.5986    0.7216    0.1235 C   0  0  0  0  0  0  0  0  0  0  0  0
    3.2243    1.1715    0.0423 C   0  0  0  0  0  0  0  0  0  0  0  0
    2.8168    2.6138    0.1754 C   0  0  0  0  0  0  0  0  0  0  0  0
    0.5655   -0.2917   -1.2861 H   0  0  0  0  0  0  0  0  0  0  0  0
    0.4709    1.1361   -0.2312 H   0  0  0  0  0  0  0  0  0  0  0  0
    0.3955   -0.4964    0.4684 H   0  0  0  0  0  0  0  0  0  0  0  0
    7.9437   -1.0822    0.2525 H   0  0  0  0  0  0  0  0  0  0  0  0
    6.7804    4.9356   -0.8896 H   0  0  0  0  0  0  0  0  0  0  0  0
   10.8583    5.4748    1.9468 H   0  0  0  0  0  0  0  0  0  0  0  0
    7.7080    2.4137    2.5711 H   0  0  0  0  0  0  0  0  0  0  0  0
    3.2949    3.2342   -0.5988 H   0  0  0  0  0  0  0  0  0  0  0  0
    3.1326    3.0271    1.1462 H   0  0  0  0  0  0  0  0  0  0  0  0
    1.7297    2.7412    0.0895 H   0  0  0  0  0  0  0  0  0  0  0  0
  1  2  1  0
  1 21  1  0
  1 22  1  0
  1 23  1  0
  2  3  1  0
  2 19  2  0
  3  4  1  0
  4  5  2  0
  4 18  1  0
  5  6  1  0
  6  7  2  0
  6 24  1  0
  7  8  1  0
  8  9  1  0
  8 18  2  0
  9 10  1  0
 10 11  1  0
 10 17  2  0
 11 12  2  0
 11 25  1  0
 12 13  1  0
 13 14  2  0
 13 17  1  0
 14 15  1  0
 14 16  1  0
 16 26  1  0
 17 27  1  0
 18 19  1  0
 19 20  1  0
 20 28  1  0
 20 29  1  0
 20 30  1  0
M  CHG  2  12   1  15  -1
M  END

