
     RDKit          3D

 45 46  0  0  0  0  0  0  0  0999 V2000
   -1.2761   -2.3391    2.0250 C   0  0  0  0  0  0  0  0  0  0  0  0
   -1.0210   -1.0569    1.2776 C   0  0  0  0  0  0  0  0  0  0  0  0
   -1.7151    0.1151    1.6186 C   0  0  0  0  0  0  0  0  0  0  0  0
   -1.4758    1.3288    0.9790 C   0  0  0  0  0  0  0  0  0  0  0  0
   -0.5149    1.3577   -0.0301 C   0  0  0  0  0  0  0  0  0  0  0  0
   -0.2433    2.6330   -0.7254 N   0  0  0  0  0  0  0  0  0  0  0  0
   -0.8647    3.6183   -0.3572 O   0  0  0  0  0  0  0  0  0  0  0  0
    0.5797    2.6255   -1.6260 O   0  0  0  0  0  0  0  0  0  0  0  0
    0.1921    0.2222   -0.4154 C   0  0  0  0  0  0  0  0  0  0  0  0
   -0.0667   -0.9924    0.2326 C   0  0  0  0  0  0  0  0  0  0  0  0
    0.6260   -2.1699   -0.1444 N   0  0  0  0  0  0  0  0  0  0  0  0
    1.9438   -2.2100   -0.5115 C   0  0  0  0  0  0  0  0  0  0  0  0
    2.6963   -1.2567   -0.5378 O   0  0  0  0  0  0  0  0  0  0  0  0
    2.5201   -3.5874   -0.8564 C   0  0  0  0  0  0  0  0  0  0  0  0
    1.5644   -4.6471   -0.9965 O   0  0  0  0  0  0  0  0  0  0  0  0
    1.1356   -4.9345   -2.2453 C   0  0  0  0  0  0  0  0  0  0  0  0
    1.4783   -4.3554   -3.2390 O   0  0  0  0  0  0  0  0  0  0  0  0
    0.2098   -6.1493   -2.2701 C   0  0  0  0  0  0  0  0  0  0  0  0
   -0.3118   -6.6248   -1.0013 N   0  0  0  0  0  0  0  0  0  0  0  0
   -1.5196   -5.7298   -0.2416 S   0  0  1  0  0  0  0  0  0  0  0  0
   -1.3847   -6.0269    1.1835 O   0  0  0  0  0  0  0  0  0  0  0  0
   -1.4893   -4.3400   -0.7395 O   0  0  0  0  0  0  0  0  0  0  0  0
   -3.0360   -6.4552   -0.8565 C   0  0  0  0  0  0  0  0  0  0  0  0
   -3.7891   -5.7807   -1.8197 C   0  0  0  0  0  0  0  0  0  0  0  0
   -4.9716   -6.3635   -2.2758 C   0  0  0  0  0  0  0  0  0  0  0  0
   -5.3965   -7.5980   -1.7719 C   0  0  0  0  0  0  0  0  0  0  0  0
   -6.8701   -8.2905   -2.3634 Cl  0  0  0  0  0  0  0  0  0  0  0  0
   -4.6300   -8.2601   -0.7896 C   0  0  0  0  0  0  0  0  0  0  0  0
   -5.1377   -9.7839   -0.1343 Cl  0  0  0  0  0  0  0  0  0  0  0  0
   -3.4466   -7.6813   -0.3286 C   0  0  0  0  0  0  0  0  0  0  0  0
   -1.9039   -2.1607    2.9090 H   0  0  0  0  0  0  0  0  0  0  0  0
   -0.3329   -2.8003    2.3605 H   0  0  0  0  0  0  0  0  0  0  0  0
   -1.7826   -3.0861    1.3950 H   0  0  0  0  0  0  0  0  0  0  0  0
   -2.4538    0.0721    2.4229 H   0  0  0  0  0  0  0  0  0  0  0  0
   -2.0047    2.2420    1.2485 H   0  0  0  0  0  0  0  0  0  0  0  0
    0.9381    0.2962   -1.2020 H   0  0  0  0  0  0  0  0  0  0  0  0
    0.0883   -3.0360   -0.1721 H   0  0  0  0  0  0  0  0  0  0  0  0
    3.1920   -3.8830   -0.0378 H   0  0  0  0  0  0  0  0  0  0  0  0
    3.1003   -3.4730   -1.7813 H   0  0  0  0  0  0  0  0  0  0  0  0
    0.7753   -6.9698   -2.7429 H   0  0  0  0  0  0  0  0  0  0  0  0
   -0.6149   -5.9191   -2.9599 H   0  0  0  0  0  0  0  0  0  0  0  0
    0.3935   -6.8482   -0.2980 H   0  0  0  0  0  0  0  0  0  0  0  0
   -3.4603   -4.8100   -2.1931 H   0  0  0  0  0  0  0  0  0  0  0  0
   -5.5835   -5.8620   -3.0271 H   0  0  0  0  0  0  0  0  0  0  0  0
   -2.8609   -8.1837    0.4419 H   0  0  0  0  0  0  0  0  0  0  0  0
  1  2  1  0
  1 31  1  0
  1 32  1  0
  1 33  1  0
  2  3  2  0
  2 10  1  0
  3  4  1  0
  3 34  1  0
  4  5  2  0
  4 35  1  0
  5  6  1  0
  5  9  1  0
  6  7  2  0
  6  8  1  0
  9 10  2  0
  9 36  1  0
 10 11  1  0
 11 12  1  0
 11 37  1  0
 12 13  2  0
 12 14  1  0
 14 15  1  0
 14 38  1  0
 14 39  1  0
 15 16  1  0
 16 17  2  0
 16 18  1  0
 18 19  1  0
 18 40  1  0
 18 41  1  0
 20 19  1  6
 19 42  1  0
 20 21  2  0
 20 22  2  0
 20 23  1  0
 23 24  2  0
 23 30  1  0
 24 25  1  0
 24 43  1  0
 25 26  2  0
 25 44  1  0
 26 27  1  0
 26 28  1  0
 28 29  1  0
 28 30  2  0
 30 45  1  0
M  CHG  2   6   1   8  -1
M  END

