
     RDKit          3D

 45 48  0  0  0  0  0  0  0  0999 V2000
   12.5191   -2.9969   -2.6825 C   0  0  0  0  0  0  0  0  0  0  0  0
   11.0587   -2.8307   -2.9306 C   0  0  0  0  0  0  0  0  0  0  0  0
   10.5887   -2.0849   -3.9022 N   0  0  0  0  0  0  0  0  0  0  0  0
    9.2113   -2.2080   -3.7756 O   0  0  0  0  0  0  0  0  0  0  0  0
    8.9834   -3.0215   -2.7334 C   0  0  0  0  0  0  0  0  0  0  0  0
    7.5997   -3.3332   -2.3642 C   0  0  0  0  0  0  0  0  0  0  0  0
    6.5097   -2.7964   -3.0784 C   0  0  0  0  0  0  0  0  0  0  0  0
    5.2336   -3.1501   -2.6495 C   0  0  0  0  0  0  0  0  0  0  0  0
    4.9846   -3.9604   -1.6180 N   0  0  0  0  0  0  0  0  0  0  0  0
    6.0192   -4.4714   -0.9347 C   0  0  0  0  0  0  0  0  0  0  0  0
    5.7479   -5.3028    0.1227 N   0  0  0  0  0  0  0  0  0  0  0  0
    4.4186   -5.5599    0.6490 C   0  0  0  0  0  0  0  0  0  0  0  0
    3.8180   -6.9244    0.2818 C   0  0  1  0  0  0  0  0  0  0  0  0
    3.7038   -7.2356   -1.2154 C   0  0  0  0  0  0  0  0  0  0  0  0
    3.5131   -8.7545   -1.2180 C   0  0  0  0  0  0  0  0  0  0  0  0
    4.1332   -9.2411   -0.0268 O   0  0  0  0  0  0  0  0  0  0  0  0
    4.5922   -8.1688    0.7861 C   0  0  2  0  0  0  0  0  0  0  0  0
    4.4011   -8.4872    2.2541 C   0  0  0  0  0  0  0  0  0  0  0  0
    5.2784   -7.9664    3.2166 C   0  0  0  0  0  0  0  0  0  0  0  0
    5.0746   -8.2075    4.5789 C   0  0  0  0  0  0  0  0  0  0  0  0
    3.9932   -8.9880    4.9960 C   0  0  0  0  0  0  0  0  0  0  0  0
    3.1230   -9.5271    4.0423 C   0  0  0  0  0  0  0  0  0  0  0  0
    3.3254   -9.2796    2.6827 C   0  0  0  0  0  0  0  0  0  0  0  0
    7.3612   -4.1763   -1.2823 C   0  0  0  0  0  0  0  0  0  0  0  0
   10.0849   -3.4365   -2.1732 N   0  0  0  0  0  0  0  0  0  0  0  0
   13.0987   -2.4200   -3.4146 H   0  0  0  0  0  0  0  0  0  0  0  0
   12.7984   -4.0596   -2.7530 H   0  0  0  0  0  0  0  0  0  0  0  0
   12.7736   -2.6562   -1.6669 H   0  0  0  0  0  0  0  0  0  0  0  0
    6.6605   -2.1335   -3.9299 H   0  0  0  0  0  0  0  0  0  0  0  0
    4.3544   -2.7568   -3.1735 H   0  0  0  0  0  0  0  0  0  0  0  0
    6.5437   -5.6300    0.6534 H   0  0  0  0  0  0  0  0  0  0  0  0
    3.7590   -4.7681    0.2688 H   0  0  0  0  0  0  0  0  0  0  0  0
    4.4487   -5.4663    1.7479 H   0  0  0  0  0  0  0  0  0  0  0  0
    2.8109   -6.9596    0.7354 H   0  0  0  0  0  0  0  0  0  0  0  0
    4.6398   -6.9582   -1.7251 H   0  0  0  0  0  0  0  0  0  0  0  0
    2.8835   -6.6930   -1.7077 H   0  0  0  0  0  0  0  0  0  0  0  0
    3.9728   -9.2433   -2.0939 H   0  0  0  0  0  0  0  0  0  0  0  0
    2.4418   -9.0304   -1.2053 H   0  0  0  0  0  0  0  0  0  0  0  0
    5.6750   -8.0049    0.6016 H   0  0  0  0  0  0  0  0  0  0  0  0
    6.1438   -7.3763    2.8988 H   0  0  0  0  0  0  0  0  0  0  0  0
    5.7695   -7.7941    5.3146 H   0  0  0  0  0  0  0  0  0  0  0  0
    3.8349   -9.1846    6.0595 H   0  0  0  0  0  0  0  0  0  0  0  0
    2.2832  -10.1508    4.3606 H   0  0  0  0  0  0  0  0  0  0  0  0
    2.6622   -9.7159    1.9335 H   0  0  0  0  0  0  0  0  0  0  0  0
    8.2013   -4.5925   -0.7229 H   0  0  0  0  0  0  0  0  0  0  0  0
  1  2  1  0
  1 26  1  0
  1 27  1  0
  1 28  1  0
  2  3  2  0
  2 25  1  0
  3  4  1  0
  4  5  1  0
  5  6  1  0
  5 25  2  0
  6  7  2  0
  6 24  1  0
  7  8  1  0
  7 29  1  0
  8  9  2  0
  8 30  1  0
  9 10  1  0
 10 11  1  0
 10 24  2  0
 11 12  1  0
 11 31  1  0
 12 13  1  0
 12 32  1  0
 12 33  1  0
 13 14  1  0
 13 17  1  0
 13 34  1  1
 14 15  1  0
 14 35  1  0
 14 36  1  0
 15 16  1  0
 15 37  1  0
 15 38  1  0
 16 17  1  0
 17 18  1  0
 17 39  1  1
 18 19  2  0
 18 23  1  0
 19 20  1  0
 19 40  1  0
 20 21  2  0
 20 41  1  0
 21 22  1  0
 21 42  1  0
 22 23  2  0
 22 43  1  0
 23 44  1  0
 24 45  1  0
M  END

