
     RDKit          3D

 44 45  0  0  0  0  0  0  0  0999 V2000
    1.2468   -0.6008    0.3143 C   0  0  0  0  0  0  0  0  0  0  0  0
    2.5426    0.1865    0.1222 C   0  0  0  0  0  0  0  0  0  0  0  0
    3.0875    0.1203   -1.3043 C   0  0  0  0  0  0  0  0  0  0  0  0
    4.3006    0.8975   -1.4449 N   0  0  0  0  0  0  0  0  0  0  0  0
    4.8837    1.0185   -2.7726 C   0  0  1  0  0  0  0  0  0  0  0  0
    4.6042    2.4026   -3.3610 C   0  0  0  0  0  0  0  0  0  0  0  0
    4.8606    3.5644   -2.6148 C   0  0  0  0  0  0  0  0  0  0  0  0
    4.6014    4.8239   -3.1479 C   0  0  0  0  0  0  0  0  0  0  0  0
    4.0634    4.9570   -4.4354 C   0  0  0  0  0  0  0  0  0  0  0  0
    3.7427    6.5480   -5.0684 Cl  0  0  0  0  0  0  0  0  0  0  0  0
    3.7854    3.8047   -5.1832 C   0  0  0  0  0  0  0  0  0  0  0  0
    3.0940    3.9083   -6.7806 Cl  0  0  0  0  0  0  0  0  0  0  0  0
    4.0569    2.5419   -4.6400 C   0  0  0  0  0  0  0  0  0  0  0  0
    6.4089    0.6451   -2.7417 C   0  0  1  0  0  0  0  0  0  0  0  0
    6.9137    1.4206   -1.6443 O   0  0  0  0  0  0  0  0  0  0  0  0
    8.2987    1.5212   -1.4156 C   0  0  0  0  0  0  0  0  0  0  0  0
    6.5869   -0.8655   -2.4486 C   0  0  0  0  0  0  0  0  0  0  0  0
    6.3021   -1.7522   -3.6661 C   0  0  0  0  0  0  0  0  0  0  0  0
    7.0583   -1.3630   -4.7921 O   0  0  0  0  0  0  0  0  0  0  0  0
    6.7922   -0.0307   -5.1789 C   0  0  0  0  0  0  0  0  0  0  0  0
    7.1379    0.9608   -4.0627 C   0  0  0  0  0  0  0  0  0  0  0  0
    0.8867   -0.5331    1.3528 H   0  0  0  0  0  0  0  0  0  0  0  0
    1.3834   -1.6698    0.0796 H   0  0  0  0  0  0  0  0  0  0  0  0
    0.4450   -0.2192   -0.3398 H   0  0  0  0  0  0  0  0  0  0  0  0
    3.3139   -0.1956    0.8171 H   0  0  0  0  0  0  0  0  0  0  0  0
    2.3931    1.2470    0.3870 H   0  0  0  0  0  0  0  0  0  0  0  0
    2.3276    0.5268   -1.9970 H   0  0  0  0  0  0  0  0  0  0  0  0
    3.2160   -0.9508   -1.5940 H   0  0  0  0  0  0  0  0  0  0  0  0
    4.9991    0.7106   -0.7325 H   0  0  0  0  0  0  0  0  0  0  0  0
    4.4061    0.2879   -3.4492 H   0  0  0  0  0  0  0  0  0  0  0  0
    5.2589    3.4654   -1.6052 H   0  0  0  0  0  0  0  0  0  0  0  0
    4.8047    5.7278   -2.5708 H   0  0  0  0  0  0  0  0  0  0  0  0
    3.8207    1.6624   -5.2433 H   0  0  0  0  0  0  0  0  0  0  0  0
    8.4200    1.9880   -0.4267 H   0  0  0  0  0  0  0  0  0  0  0  0
    8.8088    2.1599   -2.1594 H   0  0  0  0  0  0  0  0  0  0  0  0
    8.8090    0.5404   -1.3929 H   0  0  0  0  0  0  0  0  0  0  0  0
    5.9457   -1.1663   -1.6053 H   0  0  0  0  0  0  0  0  0  0  0  0
    7.6300   -1.0392   -2.1403 H   0  0  0  0  0  0  0  0  0  0  0  0
    5.2194   -1.7415   -3.9113 H   0  0  0  0  0  0  0  0  0  0  0  0
    6.5726   -2.7967   -3.4479 H   0  0  0  0  0  0  0  0  0  0  0  0
    5.7324    0.0729   -5.4890 H   0  0  0  0  0  0  0  0  0  0  0  0
    7.4100    0.1697   -6.0673 H   0  0  0  0  0  0  0  0  0  0  0  0
    6.9379    1.9931   -4.3863 H   0  0  0  0  0  0  0  0  0  0  0  0
    8.2220    0.8779   -3.8890 H   0  0  0  0  0  0  0  0  0  0  0  0
  1  2  1  0
  1 22  1  0
  1 23  1  0
  1 24  1  0
  2  3  1  0
  2 25  1  0
  2 26  1  0
  3  4  1  0
  3 27  1  0
  3 28  1  0
  4  5  1  0
  4 29  1  0
  5  6  1  0
  5 14  1  0
  5 30  1  6
  6  7  2  0
  6 13  1  0
  7  8  1  0
  7 31  1  0
  8  9  2  0
  8 32  1  0
  9 10  1  0
  9 11  1  0
 11 12  1  0
 11 13  2  0
 13 33  1  0
 14 15  1  1
 14 17  1  0
 14 21  1  0
 15 16  1  0
 16 34  1  0
 16 35  1  0
 16 36  1  0
 17 18  1  0
 17 37  1  0
 17 38  1  0
 18 19  1  0
 18 39  1  0
 18 40  1  0
 19 20  1  0
 20 21  1  0
 20 41  1  0
 20 42  1  0
 21 43  1  0
 21 44  1  0
M  END

