
     RDKit          3D

 34 34  0  0  0  0  0  0  0  0999 V2000
    1.0661    0.2659   -0.4529 C   0  0  0  0  0  0  0  0  0  0  0  0
    2.4964    0.3489   -0.9490 C   0  0  0  0  0  0  0  0  0  0  0  0
    3.0943   -0.9312   -0.7846 O   0  0  0  0  0  0  0  0  0  0  0  0
    4.3767   -1.1310   -1.1610 C   0  0  0  0  0  0  0  0  0  0  0  0
    5.2066   -0.1434   -1.7113 C   0  0  0  0  0  0  0  0  0  0  0  0
    6.5170   -0.4821   -2.0607 C   0  0  0  0  0  0  0  0  0  0  0  0
    7.0109   -1.7693   -1.8676 C   0  0  0  0  0  0  0  0  0  0  0  0
    8.6770   -2.1379   -2.4165 S   0  0  1  0  0  0  0  0  0  0  0  0
    8.6347   -3.2701   -3.3431 O   0  0  0  0  0  0  0  0  0  0  0  0
    9.2613   -0.8554   -2.8311 O   0  0  0  0  0  0  0  0  0  0  0  0
    9.4636   -2.6575   -1.0205 N   0  0  0  0  0  0  0  0  0  0  0  0
   10.0278   -3.9965   -0.9897 C   0  0  0  0  0  0  0  0  0  0  0  0
   10.1126   -1.6440   -0.2048 C   0  0  0  0  0  0  0  0  0  0  0  0
    6.1731   -2.7705   -1.3142 C   0  0  0  0  0  0  0  0  0  0  0  0
    6.7064   -3.9970   -1.1460 O   0  0  0  0  0  0  0  0  0  0  0  0
    5.9055   -5.0459   -0.6430 C   0  0  0  0  0  0  0  0  0  0  0  0
    4.8639   -2.4378   -0.9631 C   0  0  0  0  0  0  0  0  0  0  0  0
    0.5689    1.2418   -0.5638 H   0  0  0  0  0  0  0  0  0  0  0  0
    1.0382   -0.0205    0.6096 H   0  0  0  0  0  0  0  0  0  0  0  0
    0.4977   -0.4819   -1.0266 H   0  0  0  0  0  0  0  0  0  0  0  0
    3.0675    1.1053   -0.3790 H   0  0  0  0  0  0  0  0  0  0  0  0
    2.5273    0.6427   -2.0145 H   0  0  0  0  0  0  0  0  0  0  0  0
    4.8534    0.8732   -1.8761 H   0  0  0  0  0  0  0  0  0  0  0  0
    7.1837    0.2628   -2.4983 H   0  0  0  0  0  0  0  0  0  0  0  0
    9.4470   -4.6547   -1.6451 H   0  0  0  0  0  0  0  0  0  0  0  0
    9.9773   -4.3855    0.0414 H   0  0  0  0  0  0  0  0  0  0  0  0
   11.0852   -4.0164   -1.3181 H   0  0  0  0  0  0  0  0  0  0  0  0
    9.5487   -0.7029   -0.2436 H   0  0  0  0  0  0  0  0  0  0  0  0
   11.1486   -1.4336   -0.5316 H   0  0  0  0  0  0  0  0  0  0  0  0
   10.1378   -1.9877    0.8426 H   0  0  0  0  0  0  0  0  0  0  0  0
    6.5433   -5.9391   -0.6226 H   0  0  0  0  0  0  0  0  0  0  0  0
    5.0352   -5.2398   -1.2937 H   0  0  0  0  0  0  0  0  0  0  0  0
    5.5495   -4.8329    0.3804 H   0  0  0  0  0  0  0  0  0  0  0  0
    4.1805   -3.1669   -0.5311 H   0  0  0  0  0  0  0  0  0  0  0  0
  1  2  1  0
  1 18  1  0
  1 19  1  0
  1 20  1  0
  2  3  1  0
  2 21  1  0
  2 22  1  0
  3  4  1  0
  4  5  2  0
  4 17  1  0
  5  6  1  0
  5 23  1  0
  6  7  2  0
  6 24  1  0
  7  8  1  0
  7 14  1  0
  8  9  2  0
  8 10  2  0
  8 11  1  1
 11 12  1  0
 11 13  1  0
 12 25  1  0
 12 26  1  0
 12 27  1  0
 13 28  1  0
 13 29  1  0
 13 30  1  0
 14 15  1  0
 14 17  2  0
 15 16  1  0
 16 31  1  0
 16 32  1  0
 16 33  1  0
 17 34  1  0
M  END

