
     RDKit          3D

 56 58  0  0  0  0  0  0  0  0999 V2000
    1.6421    0.3763    0.8599 C   0  0  0  0  0  0  0  0  0  0  0  0
    3.0120    0.1412    0.1859 C   0  0  1  0  0  0  0  0  0  0  0  0
    4.1428    0.4189    1.2036 C   0  0  0  0  0  0  0  0  0  0  0  0
    3.0970   -1.3256   -0.2677 C   0  0  0  0  0  0  0  0  0  0  0  0
    3.1811    1.0941   -1.0120 C   0  0  0  0  0  0  0  0  0  0  0  0
    3.0182    2.4699   -0.8637 C   0  0  0  0  0  0  0  0  0  0  0  0
    3.2079    3.2852   -2.0067 C   0  0  0  0  0  0  0  0  0  0  0  0
    3.0501    4.6539   -1.9965 N   0  0  0  0  0  0  0  0  0  0  0  0
    3.4337    5.4674   -3.1472 C   0  0  0  0  0  0  0  0  0  0  0  0
    2.3561    6.5078   -3.4790 C   0  0  0  0  0  0  0  0  0  0  0  0
    1.9196    7.3588   -2.2759 C   0  0  2  0  0  0  0  0  0  0  0  0
    2.9088    8.3860   -1.9011 N   0  0  0  0  0  0  0  0  0  0  0  0
    2.7567    9.2785   -0.8550 C   0  0  0  0  0  0  0  0  0  0  0  0
    3.8527   10.1100   -0.9029 C   0  0  0  0  0  0  0  0  0  0  0  0
    4.6699    9.7617   -1.9458 N   0  0  0  0  0  0  0  0  0  0  0  0
    4.0810    8.7396   -2.5241 C   0  0  0  0  0  0  0  0  0  0  0  0
    1.5984    6.4240   -1.0943 C   0  0  0  0  0  0  0  0  0  0  0  0
    2.7268    5.4269   -0.8064 C   0  0  0  0  0  0  0  0  0  0  0  0
    3.5493    2.7156   -3.1743 N   0  0  0  0  0  0  0  0  0  0  0  0
    3.6863    1.3895   -3.2269 C   0  0  0  0  0  0  0  0  0  0  0  0
    4.0744    0.7970   -4.5912 C   0  0  1  0  0  0  0  0  0  0  0  0
    5.4211    1.4112   -5.0317 C   0  0  0  0  0  0  0  0  0  0  0  0
    4.2087   -0.7313   -4.5168 C   0  0  0  0  0  0  0  0  0  0  0  0
    2.9813    1.1677   -5.6177 C   0  0  0  0  0  0  0  0  0  0  0  0
    3.5132    0.5577   -2.1983 N   0  0  0  0  0  0  0  0  0  0  0  0
    1.5102   -0.3214    1.7028 H   0  0  0  0  0  0  0  0  0  0  0  0
    0.8163    0.2085    0.1502 H   0  0  0  0  0  0  0  0  0  0  0  0
    1.5416    1.3972    1.2599 H   0  0  0  0  0  0  0  0  0  0  0  0
    4.0574   -0.2635    2.0652 H   0  0  0  0  0  0  0  0  0  0  0  0
    4.1067    1.4507    1.5873 H   0  0  0  0  0  0  0  0  0  0  0  0
    5.1325    0.2638    0.7455 H   0  0  0  0  0  0  0  0  0  0  0  0
    2.9696   -1.9907    0.6018 H   0  0  0  0  0  0  0  0  0  0  0  0
    4.0644   -1.5450   -0.7393 H   0  0  0  0  0  0  0  0  0  0  0  0
    2.3165   -1.5631   -1.0052 H   0  0  0  0  0  0  0  0  0  0  0  0
    2.7642    2.8873    0.1075 H   0  0  0  0  0  0  0  0  0  0  0  0
    3.5902    4.7955   -3.9974 H   0  0  0  0  0  0  0  0  0  0  0  0
    4.4004    5.9624   -2.9346 H   0  0  0  0  0  0  0  0  0  0  0  0
    1.4581    5.9769   -3.8341 H   0  0  0  0  0  0  0  0  0  0  0  0
    2.6884    7.1461   -4.3124 H   0  0  0  0  0  0  0  0  0  0  0  0
    0.9983    7.8994   -2.5521 H   0  0  0  0  0  0  0  0  0  0  0  0
    1.8942    9.2566   -0.1939 H   0  0  0  0  0  0  0  0  0  0  0  0
    4.0886   10.9409   -0.2383 H   0  0  0  0  0  0  0  0  0  0  0  0
    4.4603    8.2177   -3.3999 H   0  0  0  0  0  0  0  0  0  0  0  0
    0.6836    5.8632   -1.3479 H   0  0  0  0  0  0  0  0  0  0  0  0
    1.3776    7.0051   -0.1862 H   0  0  0  0  0  0  0  0  0  0  0  0
    2.4139    4.7627    0.0059 H   0  0  0  0  0  0  0  0  0  0  0  0
    3.6247    5.9695   -0.4499 H   0  0  0  0  0  0  0  0  0  0  0  0
    6.2244    1.1552   -4.3217 H   0  0  0  0  0  0  0  0  0  0  0  0
    5.3557    2.5072   -5.0910 H   0  0  0  0  0  0  0  0  0  0  0  0
    5.7107    1.0247   -6.0226 H   0  0  0  0  0  0  0  0  0  0  0  0
    4.9796   -1.0327   -3.7930 H   0  0  0  0  0  0  0  0  0  0  0  0
    4.4859   -1.1292   -5.5066 H   0  0  0  0  0  0  0  0  0  0  0  0
    3.2667   -1.2037   -4.2032 H   0  0  0  0  0  0  0  0  0  0  0  0
    2.8613    2.2584   -5.6900 H   0  0  0  0  0  0  0  0  0  0  0  0
    2.0082    0.7346   -5.3340 H   0  0  0  0  0  0  0  0  0  0  0  0
    3.2460    0.7789   -6.6146 H   0  0  0  0  0  0  0  0  0  0  0  0
  2  1  1  1
  1 26  1  0
  1 27  1  0
  1 28  1  0
  2  3  1  0
  2  4  1  0
  2  5  1  0
  3 29  1  0
  3 30  1  0
  3 31  1  0
  4 32  1  0
  4 33  1  0
  4 34  1  0
  5  6  2  0
  5 25  1  0
  6  7  1  0
  6 35  1  0
  7  8  1  0
  7 19  2  0
  8  9  1  0
  8 18  1  0
  9 10  1  0
  9 36  1  0
  9 37  1  0
 10 11  1  0
 10 38  1  0
 10 39  1  0
 11 12  1  0
 11 17  1  0
 11 40  1  6
 12 13  1  0
 12 16  1  0
 13 14  2  0
 13 41  1  0
 14 15  1  0
 14 42  1  0
 15 16  2  0
 16 43  1  0
 17 18  1  0
 17 44  1  0
 17 45  1  0
 18 46  1  0
 18 47  1  0
 19 20  1  0
 20 21  1  0
 20 25  2  0
 21 22  1  6
 21 23  1  0
 21 24  1  0
 22 48  1  0
 22 49  1  0
 22 50  1  0
 23 51  1  0
 23 52  1  0
 23 53  1  0
 24 54  1  0
 24 55  1  0
 24 56  1  0
M  END

