
     RDKit          3D

 51 54  0  0  0  0  0  0  0  0999 V2000
   -1.9329    1.3044   -5.4503 O   0  0  0  0  0  0  0  0  0  0  0  0
   -1.0281    0.7710   -4.8351 C   0  0  0  0  0  0  0  0  0  0  0  0
   -0.1987    1.6098   -3.8487 C   0  0  0  0  0  0  0  0  0  0  0  0
    1.4331    0.9778   -3.2897 S   0  0  0  0  0  0  0  0  0  0  0  0
    2.5214    1.4987   -4.6183 C   0  0  0  0  0  0  0  0  0  0  0  0
    3.5196    2.4436   -4.3374 C   0  0  0  0  0  0  0  0  0  0  0  0
    4.4157    2.8608   -5.3216 C   0  0  0  0  0  0  0  0  0  0  0  0
    4.3329    2.3227   -6.6179 C   0  0  0  0  0  0  0  0  0  0  0  0
    5.1903    2.7437   -7.6543 N   0  0  0  0  0  0  0  0  0  0  0  0
    6.8683    2.9798   -7.5470 S   0  0  1  0  0  0  0  0  0  0  0  0
    7.2393    3.3927   -8.8979 O   0  0  0  0  0  0  0  0  0  0  0  0
    7.1233    3.8040   -6.3682 O   0  0  0  0  0  0  0  0  0  0  0  0
    7.5786    1.3575   -7.2449 C   0  0  0  0  0  0  0  0  0  0  0  0
    7.9014    0.5485   -8.3401 C   0  0  0  0  0  0  0  0  0  0  0  0
    8.4350   -0.7207   -8.1075 C   0  0  0  0  0  0  0  0  0  0  0  0
    8.6433   -1.1660   -6.7970 C   0  0  0  0  0  0  0  0  0  0  0  0
    8.3274   -0.3410   -5.7128 C   0  0  0  0  0  0  0  0  0  0  0  0
    7.7947    0.9325   -5.9302 C   0  0  0  0  0  0  0  0  0  0  0  0
    3.3362    1.3710   -6.8999 C   0  0  0  0  0  0  0  0  0  0  0  0
    2.4410    0.9634   -5.9130 C   0  0  0  0  0  0  0  0  0  0  0  0
   -0.6926   -0.5551   -4.8968 N   0  0  0  0  0  0  0  0  0  0  0  0
   -1.2861   -1.5973   -5.6343 C   0  0  0  0  0  0  0  0  0  0  0  0
   -2.4106   -1.3844   -6.4859 C   0  0  0  0  0  0  0  0  0  0  0  0
   -2.9481   -2.4431   -7.1838 C   0  0  0  0  0  0  0  0  0  0  0  0
   -2.4169   -3.7587   -7.0860 C   0  0  0  0  0  0  0  0  0  0  0  0
   -2.9604   -4.8623   -7.7999 C   0  0  0  0  0  0  0  0  0  0  0  0
   -2.4152   -6.1233   -7.6757 C   0  0  0  0  0  0  0  0  0  0  0  0
   -1.2977   -6.3352   -6.8276 C   0  0  0  0  0  0  0  0  0  0  0  0
   -0.7470   -5.2865   -6.1215 C   0  0  0  0  0  0  0  0  0  0  0  0
   -1.2862   -3.9720   -6.2281 C   0  0  0  0  0  0  0  0  0  0  0  0
   -0.7451   -2.8703   -5.5173 C   0  0  0  0  0  0  0  0  0  0  0  0
   -0.7986    1.7197   -2.9296 H   0  0  0  0  0  0  0  0  0  0  0  0
   -0.0884    2.6134   -4.2813 H   0  0  0  0  0  0  0  0  0  0  0  0
    3.5813    2.8751   -3.3358 H   0  0  0  0  0  0  0  0  0  0  0  0
    5.1693    3.6164   -5.1020 H   0  0  0  0  0  0  0  0  0  0  0  0
    4.9388    2.4518   -8.5956 H   0  0  0  0  0  0  0  0  0  0  0  0
    7.7531    0.9236   -9.3545 H   0  0  0  0  0  0  0  0  0  0  0  0
    8.6978   -1.3611   -8.9529 H   0  0  0  0  0  0  0  0  0  0  0  0
    9.0631   -2.1594   -6.6206 H   0  0  0  0  0  0  0  0  0  0  0  0
    8.5035   -0.6861   -4.6912 H   0  0  0  0  0  0  0  0  0  0  0  0
    7.5642    1.5988   -5.0979 H   0  0  0  0  0  0  0  0  0  0  0  0
    3.2676    0.9395   -7.9023 H   0  0  0  0  0  0  0  0  0  0  0  0
    1.6841    0.2151   -6.1547 H   0  0  0  0  0  0  0  0  0  0  0  0
    0.1078   -0.8125   -4.3210 H   0  0  0  0  0  0  0  0  0  0  0  0
   -2.8242   -0.3820   -6.5681 H   0  0  0  0  0  0  0  0  0  0  0  0
   -3.8103   -2.2722   -7.8344 H   0  0  0  0  0  0  0  0  0  0  0  0
   -3.8222   -4.6934   -8.4517 H   0  0  0  0  0  0  0  0  0  0  0  0
   -2.8419   -6.9635   -8.2291 H   0  0  0  0  0  0  0  0  0  0  0  0
   -0.8731   -7.3382   -6.7349 H   0  0  0  0  0  0  0  0  0  0  0  0
    0.1139   -5.4525   -5.4677 H   0  0  0  0  0  0  0  0  0  0  0  0
    0.1161   -3.0388   -4.8633 H   0  0  0  0  0  0  0  0  0  0  0  0
  1  2  2  0
  2  3  1  0
  2 21  1  0
  3  4  1  0
  3 32  1  0
  3 33  1  0
  4  5  1  0
  5  6  2  0
  5 20  1  0
  6  7  1  0
  6 34  1  0
  7  8  2  0
  7 35  1  0
  8  9  1  0
  8 19  1  0
 10  9  1  6
  9 36  1  0
 10 11  2  0
 10 12  2  0
 10 13  1  0
 13 14  2  0
 13 18  1  0
 14 15  1  0
 14 37  1  0
 15 16  2  0
 15 38  1  0
 16 17  1  0
 16 39  1  0
 17 18  2  0
 17 40  1  0
 18 41  1  0
 19 20  2  0
 19 42  1  0
 20 43  1  0
 21 22  1  0
 21 44  1  0
 22 23  2  0
 22 31  1  0
 23 24  1  0
 23 45  1  0
 24 25  2  0
 24 46  1  0
 25 26  1  0
 25 30  1  0
 26 27  2  0
 26 47  1  0
 27 28  1  0
 27 48  1  0
 28 29  2  0
 28 49  1  0
 29 30  1  0
 29 50  1  0
 30 31  2  0
 31 51  1  0
M  END

