
     RDKit          3D

 30 30  0  0  0  0  0  0  0  0999 V2000
    5.7025    1.5409    3.0844 C   0  0  0  0  0  0  0  0  0  0  0  0
    5.2392    0.2966    2.5569 O   0  0  0  0  0  0  0  0  0  0  0  0
    5.3773    0.1175    1.2315 C   0  0  0  0  0  0  0  0  0  0  0  0
    5.8410    0.9492    0.4905 O   0  0  0  0  0  0  0  0  0  0  0  0
    4.8239   -1.2437    0.7742 C   0  0  1  0  0  0  0  0  0  0  0  0
    4.9737   -1.4759   -0.6466 N   0  0  0  0  0  0  0  0  0  0  0  0
    5.3865   -2.4104    1.5979 C   0  0  0  0  0  0  0  0  0  0  0  0
    7.2153   -2.5525    1.4160 S   0  0  0  0  0  0  0  0  0  0  0  0
    7.4292   -4.3431    1.8338 C   0  0  0  0  0  0  0  0  0  0  0  0
    6.8347   -5.2865    0.8471 C   0  0  0  0  0  0  0  0  0  0  0  0
    5.6830   -5.9108    1.0103 N   0  0  0  0  0  0  0  0  0  0  0  0
    5.4752   -6.6445   -0.1250 C   0  0  0  0  0  0  0  0  0  0  0  0
    6.5262   -6.4503   -0.9925 C   0  0  0  0  0  0  0  0  0  0  0  0
    6.8256   -7.1059   -2.5562 Cl  0  0  0  0  0  0  0  0  0  0  0  0
    7.4005   -5.5760   -0.3742 N   0  0  0  0  0  0  0  0  0  0  0  0
    8.6464   -5.0499   -0.9022 C   0  0  0  0  0  0  0  0  0  0  0  0
    5.4884    1.5171    4.1601 H   0  0  0  0  0  0  0  0  0  0  0  0
    5.1815    2.3854    2.6086 H   0  0  0  0  0  0  0  0  0  0  0  0
    6.7835    1.6568    2.9139 H   0  0  0  0  0  0  0  0  0  0  0  0
    3.7445   -1.2053    1.0197 H   0  0  0  0  0  0  0  0  0  0  0  0
    5.9590   -1.6537   -0.8496 H   0  0  0  0  0  0  0  0  0  0  0  0
    4.7378   -0.6245   -1.1568 H   0  0  0  0  0  0  0  0  0  0  0  0
    4.9331   -3.3478    1.2450 H   0  0  0  0  0  0  0  0  0  0  0  0
    5.1486   -2.2693    2.6611 H   0  0  0  0  0  0  0  0  0  0  0  0
    6.9712   -4.5391    2.8129 H   0  0  0  0  0  0  0  0  0  0  0  0
    8.5177   -4.4709    1.9340 H   0  0  0  0  0  0  0  0  0  0  0  0
    4.5979   -7.2707   -0.2744 H   0  0  0  0  0  0  0  0  0  0  0  0
    8.7291   -5.3253   -1.9607 H   0  0  0  0  0  0  0  0  0  0  0  0
    9.5133   -5.4652   -0.3633 H   0  0  0  0  0  0  0  0  0  0  0  0
    8.6551   -3.9540   -0.8121 H   0  0  0  0  0  0  0  0  0  0  0  0
  1  2  1  0
  1 17  1  0
  1 18  1  0
  1 19  1  0
  2  3  1  0
  3  4  2  0
  3  5  1  0
  5  6  1  0
  5  7  1  0
  5 20  1  6
  6 21  1  0
  6 22  1  0
  7  8  1  0
  7 23  1  0
  7 24  1  0
  8  9  1  0
  9 10  1  0
  9 25  1  0
  9 26  1  0
 10 11  2  0
 10 15  1  0
 11 12  1  0
 12 13  2  0
 12 27  1  0
 13 14  1  0
 13 15  1  0
 15 16  1  0
 16 28  1  0
 16 29  1  0
 16 30  1  0
M  END

