
     RDKit          3D

 51 54  0  0  0  0  0  0  0  0999 V2000
    1.1063   -0.3654   -0.3277 C   0  0  0  0  0  0  0  0  0  0  0  0
    2.5753   -0.1678   -0.1399 C   0  0  0  0  0  0  0  0  0  0  0  0
    3.2652    1.0170    0.0021 C   0  0  0  0  0  0  0  0  0  0  0  0
    2.8249    2.4248    0.0104 C   0  0  0  0  0  0  0  0  0  0  0  0
    1.6521    2.7436   -0.1162 O   0  0  0  0  0  0  0  0  0  0  0  0
    3.8644    3.3254    0.1731 N   0  0  0  0  0  0  0  0  0  0  0  0
    3.8085    4.7165    0.2258 C   0  0  0  0  0  0  0  0  0  0  0  0
    2.6086    5.4461    0.1143 C   0  0  0  0  0  0  0  0  0  0  0  0
    2.6335    6.8389    0.1768 C   0  0  0  0  0  0  0  0  0  0  0  0
    1.1272    7.7162    0.0353 Cl  0  0  0  0  0  0  0  0  0  0  0  0
    3.8235    7.5503    0.3489 C   0  0  0  0  0  0  0  0  0  0  0  0
    5.0161    6.8349    0.4602 C   0  0  0  0  0  0  0  0  0  0  0  0
    5.0106    5.4434    0.3999 C   0  0  0  0  0  0  0  0  0  0  0  0
    6.5356    4.5800    0.5443 Cl  0  0  0  0  0  0  0  0  0  0  0  0
    4.6194    0.7753    0.1550 O   0  0  0  0  0  0  0  0  0  0  0  0
    4.7924   -0.5585    0.1106 C   0  0  0  0  0  0  0  0  0  0  0  0
    3.5880   -1.1980   -0.0655 C   0  0  0  0  0  0  0  0  0  0  0  0
    3.5027   -2.6564   -0.1081 C   0  0  0  0  0  0  0  0  0  0  0  0
    2.3435   -3.1996   -0.2601 N   0  0  0  0  0  0  0  0  0  0  0  0
    2.2303   -4.5422   -0.2518 N   0  0  0  0  0  0  0  0  0  0  0  0
    0.9948   -5.1285   -0.4689 C   0  0  0  0  0  0  0  0  0  0  0  0
   -0.0119   -4.4842   -0.6839 O   0  0  0  0  0  0  0  0  0  0  0  0
    0.9619   -6.6432   -0.4321 C   0  0  0  0  0  0  0  0  0  0  0  0
   -0.3023   -7.2166   -0.6574 C   0  0  0  0  0  0  0  0  0  0  0  0
   -0.5031   -8.5944   -0.6600 C   0  0  0  0  0  0  0  0  0  0  0  0
    0.5828   -9.4453   -0.4330 C   0  0  0  0  0  0  0  0  0  0  0  0
    1.8492   -8.9084   -0.2070 C   0  0  0  0  0  0  0  0  0  0  0  0
    2.0456   -7.5209   -0.2050 C   0  0  0  0  0  0  0  0  0  0  0  0
    3.2974   -7.0115    0.0216 O   0  0  0  0  0  0  0  0  0  0  0  0
    4.8211   -3.3982    0.0921 C   0  0  0  0  0  0  0  0  0  0  0  0
    6.0534   -2.5994   -0.3752 C   0  0  0  0  0  0  0  0  0  0  0  0
    6.1317   -1.1911    0.2411 C   0  0  0  0  0  0  0  0  0  0  0  0
    0.5830    0.5972   -0.3483 H   0  0  0  0  0  0  0  0  0  0  0  0
    0.7000   -0.9994    0.4758 H   0  0  0  0  0  0  0  0  0  0  0  0
    0.9101   -0.9231   -1.2565 H   0  0  0  0  0  0  0  0  0  0  0  0
    4.7939    2.9261    0.2675 H   0  0  0  0  0  0  0  0  0  0  0  0
    1.6757    4.9052   -0.0203 H   0  0  0  0  0  0  0  0  0  0  0  0
    3.8166    8.6397    0.3948 H   0  0  0  0  0  0  0  0  0  0  0  0
    5.9647    7.3570    0.5954 H   0  0  0  0  0  0  0  0  0  0  0  0
    3.0264   -5.1482   -0.0586 H   0  0  0  0  0  0  0  0  0  0  0  0
   -1.1258   -6.5219   -0.8320 H   0  0  0  0  0  0  0  0  0  0  0  0
   -1.4995   -9.0041   -0.8383 H   0  0  0  0  0  0  0  0  0  0  0  0
    0.4490  -10.5299   -0.4307 H   0  0  0  0  0  0  0  0  0  0  0  0
    2.7046   -9.5683   -0.0285 H   0  0  0  0  0  0  0  0  0  0  0  0
    3.9232   -7.7331    0.1681 H   0  0  0  0  0  0  0  0  0  0  0  0
    4.7999   -4.3589   -0.4481 H   0  0  0  0  0  0  0  0  0  0  0  0
    4.9241   -3.6498    1.1656 H   0  0  0  0  0  0  0  0  0  0  0  0
    6.0147   -2.5009   -1.4731 H   0  0  0  0  0  0  0  0  0  0  0  0
    6.9685   -3.1643   -0.1390 H   0  0  0  0  0  0  0  0  0  0  0  0
    6.9005   -0.5817   -0.2617 H   0  0  0  0  0  0  0  0  0  0  0  0
    6.4272   -1.2473    1.3064 H   0  0  0  0  0  0  0  0  0  0  0  0
  1  2  1  0
  1 33  1  0
  1 34  1  0
  1 35  1  0
  2  3  2  0
  2 17  1  0
  3  4  1  0
  3 15  1  0
  4  5  2  0
  4  6  1  0
  6  7  1  0
  6 36  1  0
  7  8  2  0
  7 13  1  0
  8  9  1  0
  8 37  1  0
  9 10  1  0
  9 11  2  0
 11 12  1  0
 11 38  1  0
 12 13  2  0
 12 39  1  0
 13 14  1  0
 15 16  1  0
 16 17  2  0
 16 32  1  0
 17 18  1  0
 18 19  2  0
 18 30  1  0
 19 20  1  0
 20 21  1  0
 20 40  1  0
 21 22  2  0
 21 23  1  0
 23 24  2  0
 23 28  1  0
 24 25  1  0
 24 41  1  0
 25 26  2  0
 25 42  1  0
 26 27  1  0
 26 43  1  0
 27 28  2  0
 27 44  1  0
 28 29  1  0
 29 45  1  0
 30 31  1  0
 30 46  1  0
 30 47  1  0
 31 32  1  0
 31 48  1  0
 31 49  1  0
 32 50  1  0
 32 51  1  0
M  END

