
     RDKit          3D

 61 64  0  0  0  0  0  0  0  0999 V2000
    4.7122    0.6622    1.0043 C   0  0  0  0  0  0  0  0  0  0  0  0
    3.7483   -0.2198    1.7335 C   0  0  0  0  0  0  0  0  0  0  0  0
    3.2872    0.1215    2.9297 N   0  0  0  0  0  0  0  0  0  0  0  0
    2.4622   -0.8767    3.3214 N   0  0  0  0  0  0  0  0  0  0  0  0
    1.8234   -0.8026    4.6212 C   0  0  0  0  0  0  0  0  0  0  0  0
    2.3726   -1.8790    2.4146 C   0  0  0  0  0  0  0  0  0  0  0  0
    1.5383   -3.1015    2.6079 C   0  0  0  0  0  0  0  0  0  0  0  0
    3.1931   -1.4811    1.3548 C   0  0  0  0  0  0  0  0  0  0  0  0
    3.5092   -2.4127   -0.1008 S   0  0  1  0  0  0  0  0  0  0  0  0
    4.5274   -1.6919   -0.8748 O   0  0  0  0  0  0  0  0  0  0  0  0
    3.7213   -3.8223    0.2546 O   0  0  0  0  0  0  0  0  0  0  0  0
    2.0006   -2.3642   -0.9146 N   0  0  0  0  0  0  0  0  0  0  0  0
    1.6896   -1.0611   -1.5016 C   0  0  0  0  0  0  0  0  0  0  0  0
    0.2022   -0.8942   -1.8124 C   0  0  0  0  0  0  0  0  0  0  0  0
   -0.3653   -1.8275   -2.8950 C   0  0  0  0  0  0  0  0  0  0  0  0
   -0.7136   -3.1701   -2.4366 N   0  0  0  0  0  0  0  0  0  0  0  0
   -1.9959   -3.6819   -2.4479 C   0  0  0  0  0  0  0  0  0  0  0  0
   -2.2884   -4.6507   -1.7580 O   0  0  0  0  0  0  0  0  0  0  0  0
   -3.0367   -3.0732   -3.3523 C   0  0  0  0  0  0  0  0  0  0  0  0
   -2.8017   -2.7608   -4.7020 C   0  0  0  0  0  0  0  0  0  0  0  0
   -3.8371   -2.3247   -5.5270 C   0  0  0  0  0  0  0  0  0  0  0  0
   -5.1304   -2.1806   -5.0078 C   0  0  0  0  0  0  0  0  0  0  0  0
   -6.0789   -1.6809   -5.8581 O   0  0  0  0  0  0  0  0  0  0  0  0
   -7.4195   -1.9613   -5.7080 C   0  0  0  0  0  0  0  0  0  0  0  0
   -8.3151   -0.8919   -5.8073 C   0  0  0  0  0  0  0  0  0  0  0  0
   -9.6895   -1.1350   -5.7419 C   0  0  0  0  0  0  0  0  0  0  0  0
  -10.1700   -2.4370   -5.5711 C   0  0  0  0  0  0  0  0  0  0  0  0
   -9.2654   -3.4998   -5.4743 C   0  0  0  0  0  0  0  0  0  0  0  0
   -7.8891   -3.2711   -5.5467 C   0  0  0  0  0  0  0  0  0  0  0  0
   -5.3851   -2.4928   -3.6642 C   0  0  0  0  0  0  0  0  0  0  0  0
   -4.3451   -2.9526   -2.8582 C   0  0  0  0  0  0  0  0  0  0  0  0
    0.2475   -3.9770   -1.6695 C   0  0  0  0  0  0  0  0  0  0  0  0
    1.7039   -3.5338   -1.7516 C   0  0  0  0  0  0  0  0  0  0  0  0
    4.9241    1.5476    1.6189 H   0  0  0  0  0  0  0  0  0  0  0  0
    4.3115    0.9848    0.0312 H   0  0  0  0  0  0  0  0  0  0  0  0
    5.6498    0.1292    0.7892 H   0  0  0  0  0  0  0  0  0  0  0  0
    1.9989    0.2067    5.0111 H   0  0  0  0  0  0  0  0  0  0  0  0
    2.2522   -1.5387    5.3204 H   0  0  0  0  0  0  0  0  0  0  0  0
    0.7408   -0.9791    4.5366 H   0  0  0  0  0  0  0  0  0  0  0  0
    1.6352   -3.4957    3.6315 H   0  0  0  0  0  0  0  0  0  0  0  0
    1.8622   -3.8806    1.9073 H   0  0  0  0  0  0  0  0  0  0  0  0
    0.4695   -2.8937    2.4282 H   0  0  0  0  0  0  0  0  0  0  0  0
    2.2843   -0.8943   -2.4225 H   0  0  0  0  0  0  0  0  0  0  0  0
    1.9897   -0.2815   -0.7850 H   0  0  0  0  0  0  0  0  0  0  0  0
    0.0663    0.1411   -2.1688 H   0  0  0  0  0  0  0  0  0  0  0  0
   -0.3928   -0.9946   -0.8894 H   0  0  0  0  0  0  0  0  0  0  0  0
    0.3467   -1.8731   -3.7408 H   0  0  0  0  0  0  0  0  0  0  0  0
   -1.2806   -1.3727   -3.2879 H   0  0  0  0  0  0  0  0  0  0  0  0
   -1.8031   -2.8867   -5.1269 H   0  0  0  0  0  0  0  0  0  0  0  0
   -3.6663   -2.0935   -6.5801 H   0  0  0  0  0  0  0  0  0  0  0  0
   -7.9182    0.1163   -5.9411 H   0  0  0  0  0  0  0  0  0  0  0  0
  -10.3884   -0.2985   -5.8219 H   0  0  0  0  0  0  0  0  0  0  0  0
  -11.2450   -2.6241   -5.5170 H   0  0  0  0  0  0  0  0  0  0  0  0
   -9.6326   -4.5218   -5.3496 H   0  0  0  0  0  0  0  0  0  0  0  0
   -7.1813   -4.1000   -5.4840 H   0  0  0  0  0  0  0  0  0  0  0  0
   -6.3909   -2.3828   -3.2561 H   0  0  0  0  0  0  0  0  0  0  0  0
   -4.5417   -3.2310   -1.8208 H   0  0  0  0  0  0  0  0  0  0  0  0
    0.1729   -5.0131   -2.0359 H   0  0  0  0  0  0  0  0  0  0  0  0
   -0.0536   -4.0160   -0.6089 H   0  0  0  0  0  0  0  0  0  0  0  0
    2.0169   -3.3639   -2.8001 H   0  0  0  0  0  0  0  0  0  0  0  0
    2.3098   -4.3658   -1.3700 H   0  0  0  0  0  0  0  0  0  0  0  0
  1  2  1  0
  1 34  1  0
  1 35  1  0
  1 36  1  0
  2  3  2  0
  2  8  1  0
  3  4  1  0
  4  5  1  0
  4  6  1  0
  5 37  1  0
  5 38  1  0
  5 39  1  0
  6  7  1  0
  6  8  2  0
  7 40  1  0
  7 41  1  0
  7 42  1  0
  9  8  1  1
  9 10  2  0
  9 11  2  0
  9 12  1  0
 12 13  1  0
 12 33  1  0
 13 14  1  0
 13 43  1  0
 13 44  1  0
 14 15  1  0
 14 45  1  0
 14 46  1  0
 15 16  1  0
 15 47  1  0
 15 48  1  0
 16 17  1  0
 16 32  1  0
 17 18  2  0
 17 19  1  0
 19 20  2  0
 19 31  1  0
 20 21  1  0
 20 49  1  0
 21 22  2  0
 21 50  1  0
 22 23  1  0
 22 30  1  0
 23 24  1  0
 24 25  2  0
 24 29  1  0
 25 26  1  0
 25 51  1  0
 26 27  2  0
 26 52  1  0
 27 28  1  0
 27 53  1  0
 28 29  2  0
 28 54  1  0
 29 55  1  0
 30 31  2  0
 30 56  1  0
 31 57  1  0
 32 33  1  0
 32 58  1  0
 32 59  1  0
 33 60  1  0
 33 61  1  0
M  END

