
     RDKit          3D

 60 63  0  0  0  0  0  0  0  0999 V2000
    2.4568   -3.4952   -4.9063 C   0  0  0  0  0  0  0  0  0  0  0  0
    2.7545   -2.1582   -4.2778 C   0  0  0  0  0  0  0  0  0  0  0  0
    3.0562   -1.0661   -5.1067 C   0  0  0  0  0  0  0  0  0  0  0  0
    3.3401    0.2006   -4.5943 C   0  0  0  0  0  0  0  0  0  0  0  0
    3.3299    0.4100   -3.2129 C   0  0  0  0  0  0  0  0  0  0  0  0
    3.0357   -0.6525   -2.3641 C   0  0  0  0  0  0  0  0  0  0  0  0
    2.7473   -1.9350   -2.8748 C   0  0  0  0  0  0  0  0  0  0  0  0
    2.4503   -3.0013   -1.9133 C   0  0  0  0  0  0  0  0  0  0  0  0
    2.1351   -4.2558   -2.1051 N   0  0  0  0  0  0  0  0  0  0  0  0
    1.9827   -4.7401   -0.8283 C   0  0  0  0  0  0  0  0  0  0  0  0
    1.6006   -6.1565   -0.4965 C   0  0  0  0  0  0  0  0  0  0  0  0
    0.2160   -6.4489   -0.8474 N   0  0  0  0  0  0  0  0  0  0  0  0
   -0.0156   -6.7819   -2.2564 C   0  0  0  0  0  0  0  0  0  0  0  0
    0.2831   -8.2613   -2.5646 C   0  0  0  0  0  0  0  0  0  0  0  0
   -0.4168   -9.1909   -1.6811 N   0  0  0  0  0  0  0  0  0  0  0  0
   -1.7820   -9.4908   -2.0424 C   0  0  0  0  0  0  0  0  0  0  0  0
   -2.2575  -10.8522   -1.4954 C   0  0  0  0  0  0  0  0  0  0  0  0
   -1.5725  -11.5170   -0.7348 O   0  0  0  0  0  0  0  0  0  0  0  0
   -3.5021  -11.2823   -1.8949 N   0  0  0  0  0  0  0  0  0  0  0  0
   -4.4429  -10.5344   -2.7230 C   0  0  0  0  0  0  0  0  0  0  0  0
   -5.5645   -9.8376   -1.9389 C   0  0  0  0  0  0  0  0  0  0  0  0
   -6.3609  -10.7309   -0.9732 C   0  0  0  0  0  0  0  0  0  0  0  0
   -5.5513  -11.2408    0.2342 C   0  0  0  0  0  0  0  0  0  0  0  0
   -4.6686  -12.4826    0.0019 C   0  0  0  0  0  0  0  0  0  0  0  0
   -3.9810  -12.5619   -1.3724 C   0  0  0  0  0  0  0  0  0  0  0  0
   -0.1756   -8.8608   -0.2746 C   0  0  0  0  0  0  0  0  0  0  0  0
   -0.4796   -7.3855    0.0390 C   0  0  0  0  0  0  0  0  0  0  0  0
    2.1956   -3.8490    0.1062 N   0  0  0  0  0  0  0  0  0  0  0  0
    2.5053   -2.6964   -0.6018 O   0  0  0  0  0  0  0  0  0  0  0  0
    2.5481   -3.4323   -6.0003 H   0  0  0  0  0  0  0  0  0  0  0  0
    1.4425   -3.8413   -4.6558 H   0  0  0  0  0  0  0  0  0  0  0  0
    3.1353   -4.2783   -4.5366 H   0  0  0  0  0  0  0  0  0  0  0  0
    3.0673   -1.2213   -6.1888 H   0  0  0  0  0  0  0  0  0  0  0  0
    3.5697    1.0237   -5.2758 H   0  0  0  0  0  0  0  0  0  0  0  0
    3.5503    1.3962   -2.7979 H   0  0  0  0  0  0  0  0  0  0  0  0
    3.0253   -0.5015   -1.2839 H   0  0  0  0  0  0  0  0  0  0  0  0
    1.7222   -6.2683    0.5898 H   0  0  0  0  0  0  0  0  0  0  0  0
    2.3426   -6.8308   -0.9743 H   0  0  0  0  0  0  0  0  0  0  0  0
    0.5931   -6.1176   -2.8876 H   0  0  0  0  0  0  0  0  0  0  0  0
   -1.0742   -6.5623   -2.4905 H   0  0  0  0  0  0  0  0  0  0  0  0
    1.3690   -8.4428   -2.4545 H   0  0  0  0  0  0  0  0  0  0  0  0
    0.0346   -8.4939   -3.6139 H   0  0  0  0  0  0  0  0  0  0  0  0
   -1.8407   -9.5249   -3.1429 H   0  0  0  0  0  0  0  0  0  0  0  0
   -2.5279   -8.7225   -1.7319 H   0  0  0  0  0  0  0  0  0  0  0  0
   -4.8906  -11.2446   -3.4417 H   0  0  0  0  0  0  0  0  0  0  0  0
   -3.9047   -9.7933   -3.3283 H   0  0  0  0  0  0  0  0  0  0  0  0
   -6.2523   -9.3833   -2.6741 H   0  0  0  0  0  0  0  0  0  0  0  0
   -5.1320   -8.9992   -1.3636 H   0  0  0  0  0  0  0  0  0  0  0  0
   -6.8122  -11.5788   -1.5217 H   0  0  0  0  0  0  0  0  0  0  0  0
   -7.2110  -10.1367   -0.5980 H   0  0  0  0  0  0  0  0  0  0  0  0
   -6.2421  -11.4659    1.0638 H   0  0  0  0  0  0  0  0  0  0  0  0
   -4.9217  -10.4093    0.5972 H   0  0  0  0  0  0  0  0  0  0  0  0
   -5.2736  -13.3994    0.1173 H   0  0  0  0  0  0  0  0  0  0  0  0
   -3.8991  -12.5186    0.7888 H   0  0  0  0  0  0  0  0  0  0  0  0
   -4.6809  -12.9669   -2.1206 H   0  0  0  0  0  0  0  0  0  0  0  0
   -3.1255  -13.2488   -1.3100 H   0  0  0  0  0  0  0  0  0  0  0  0
    0.8869   -9.0733   -0.0527 H   0  0  0  0  0  0  0  0  0  0  0  0
   -0.7625   -9.5391    0.3595 H   0  0  0  0  0  0  0  0  0  0  0  0
   -0.2269   -7.1504    1.0859 H   0  0  0  0  0  0  0  0  0  0  0  0
   -1.5656   -7.2020   -0.0664 H   0  0  0  0  0  0  0  0  0  0  0  0
  1  2  1  0
  1 30  1  0
  1 31  1  0
  1 32  1  0
  2  3  2  0
  2  7  1  0
  3  4  1  0
  3 33  1  0
  4  5  2  0
  4 34  1  0
  5  6  1  0
  5 35  1  0
  6  7  2  0
  6 36  1  0
  7  8  1  0
  8  9  2  0
  8 29  1  0
  9 10  1  0
 10 11  1  0
 10 28  2  0
 11 12  1  0
 11 37  1  0
 11 38  1  0
 12 13  1  0
 12 27  1  0
 13 14  1  0
 13 39  1  0
 13 40  1  0
 14 15  1  0
 14 41  1  0
 14 42  1  0
 15 16  1  0
 15 26  1  0
 16 17  1  0
 16 43  1  0
 16 44  1  0
 17 18  2  0
 17 19  1  0
 19 20  1  0
 19 25  1  0
 20 21  1  0
 20 45  1  0
 20 46  1  0
 21 22  1  0
 21 47  1  0
 21 48  1  0
 22 23  1  0
 22 49  1  0
 22 50  1  0
 23 24  1  0
 23 51  1  0
 23 52  1  0
 24 25  1  0
 24 53  1  0
 24 54  1  0
 25 55  1  0
 25 56  1  0
 26 27  1  0
 26 57  1  0
 26 58  1  0
 27 59  1  0
 27 60  1  0
 28 29  1  0
M  END

