
     RDKit          3D

 58 63  0  0  0  0  0  0  0  0999 V2000
    1.9894   -0.9561    1.1735 C   0  0  0  0  0  0  0  0  0  0  0  0
    2.2661    0.2703    0.5325 C   0  0  0  0  0  0  0  0  0  0  0  0
    1.2568    1.0215   -0.0711 C   0  0  0  0  0  0  0  0  0  0  0  0
   -0.0398    0.5007   -0.0104 C   0  0  0  0  0  0  0  0  0  0  0  0
   -1.2618    0.9458   -0.4809 N   0  0  0  0  0  0  0  0  0  0  0  0
   -1.4357    1.8110   -0.9760 H   0  0  0  0  0  0  0  0  0  0  0  0
   -2.2133    0.0106   -0.1181 C   0  0  0  0  0  0  0  0  0  0  0  0
   -3.6687    0.1969   -0.4674 C   0  0  1  0  0  0  0  0  0  0  0  0
   -3.9198    0.1858   -1.9952 C   0  0  0  0  0  0  0  0  0  0  0  0
   -3.8060   -1.2196   -2.5860 C   0  0  0  0  0  0  0  0  0  0  0  0
   -4.6960   -2.1537   -1.8984 N   0  0  0  0  0  0  0  0  0  0  0  0
   -5.4304   -3.0731   -2.6127 C   0  0  0  0  0  0  0  0  0  0  0  0
   -6.1090   -4.1721   -2.0193 C   0  0  0  0  0  0  0  0  0  0  0  0
   -6.8482   -4.9919   -2.8426 C   0  0  0  0  0  0  0  0  0  0  0  0
   -6.8978   -4.7177   -4.2283 C   0  0  0  0  0  0  0  0  0  0  0  0
   -7.6727   -5.5303   -5.2016 C   0  0  0  0  0  0  0  0  0  0  0  0
   -7.5304   -5.2986   -6.5842 C   0  0  0  0  0  0  0  0  0  0  0  0
   -8.2528   -6.0536   -7.4999 C   0  0  0  0  0  0  0  0  0  0  0  0
   -9.1422   -7.0637   -7.0934 C   0  0  0  0  0  0  0  0  0  0  0  0
   -9.2965   -7.3051   -5.7145 C   0  0  0  0  0  0  0  0  0  0  0  0
   -8.5631   -6.5361   -4.7980 C   0  0  0  0  0  0  0  0  0  0  0  0
  -10.2148   -8.4033   -5.2042 C   0  0  0  0  0  0  0  0  0  0  0  0
  -11.2362   -8.8766   -6.2428 C   0  0  0  0  0  0  0  0  0  0  0  0
  -10.5523   -9.1307   -7.5883 C   0  0  0  0  0  0  0  0  0  0  0  0
   -9.9381   -7.8362   -8.1295 C   0  0  0  0  0  0  0  0  0  0  0  0
   -6.2014   -3.6841   -4.7188 N   0  0  0  0  0  0  0  0  0  0  0  0
   -5.4913   -2.8940   -3.9492 N   0  0  0  0  0  0  0  0  0  0  0  0
   -4.4892   -2.2378   -0.4565 C   0  0  0  0  0  0  0  0  0  0  0  0
   -4.5725   -0.8531    0.2018 C   0  0  0  0  0  0  0  0  0  0  0  0
   -1.6928   -0.9953    0.5414 N   0  0  0  0  0  0  0  0  0  0  0  0
   -0.3365   -0.7298    0.6316 C   0  0  0  0  0  0  0  0  0  0  0  0
    0.6945   -1.4686    1.2313 C   0  0  0  0  0  0  0  0  0  0  0  0
    2.8104   -1.5121    1.6328 H   0  0  0  0  0  0  0  0  0  0  0  0
    3.2942    0.6401    0.5076 H   0  0  0  0  0  0  0  0  0  0  0  0
    1.4766    1.9702   -0.5667 H   0  0  0  0  0  0  0  0  0  0  0  0
   -3.9580    1.1929   -0.0843 H   0  0  0  0  0  0  0  0  0  0  0  0
   -3.2159    0.8558   -2.5169 H   0  0  0  0  0  0  0  0  0  0  0  0
   -4.9333    0.5761   -2.1864 H   0  0  0  0  0  0  0  0  0  0  0  0
   -2.7606   -1.5793   -2.5018 H   0  0  0  0  0  0  0  0  0  0  0  0
   -4.0733   -1.2217   -3.6481 H   0  0  0  0  0  0  0  0  0  0  0  0
   -6.0423   -4.3876   -0.9537 H   0  0  0  0  0  0  0  0  0  0  0  0
   -7.3673   -5.8531   -2.4197 H   0  0  0  0  0  0  0  0  0  0  0  0
   -6.8446   -4.5178   -6.9136 H   0  0  0  0  0  0  0  0  0  0  0  0
   -8.1266   -5.8595   -8.5698 H   0  0  0  0  0  0  0  0  0  0  0  0
   -8.7155   -6.7379   -3.7344 H   0  0  0  0  0  0  0  0  0  0  0  0
  -10.7248   -8.0628   -4.2871 H   0  0  0  0  0  0  0  0  0  0  0  0
   -9.5930   -9.2655   -4.8956 H   0  0  0  0  0  0  0  0  0  0  0  0
  -12.0202   -8.1084   -6.3729 H   0  0  0  0  0  0  0  0  0  0  0  0
  -11.7451   -9.7857   -5.8824 H   0  0  0  0  0  0  0  0  0  0  0  0
  -11.2656   -9.5439   -8.3203 H   0  0  0  0  0  0  0  0  0  0  0  0
   -9.7621   -9.8923   -7.4558 H   0  0  0  0  0  0  0  0  0  0  0  0
  -10.7496   -7.1836   -8.5053 H   0  0  0  0  0  0  0  0  0  0  0  0
   -9.2997   -8.0452   -9.0046 H   0  0  0  0  0  0  0  0  0  0  0  0
   -3.5054   -2.6875   -0.2311 H   0  0  0  0  0  0  0  0  0  0  0  0
   -5.2583   -2.8767   -0.0065 H   0  0  0  0  0  0  0  0  0  0  0  0
   -4.3130   -0.9521    1.2662 H   0  0  0  0  0  0  0  0  0  0  0  0
   -5.6135   -0.4942    0.1400 H   0  0  0  0  0  0  0  0  0  0  0  0
    0.4738   -2.4167    1.7261 H   0  0  0  0  0  0  0  0  0  0  0  0
  1  2  2  0
  1 32  1  0
  1 33  1  0
  2  3  1  0
  2 34  1  0
  3  4  2  0
  3 35  1  0
  4  5  1  0
  4 31  1  0
  5  6  1  0
  5  7  1  0
  7  8  1  0
  7 30  2  0
  8  9  1  0
  8 29  1  0
  8 36  1  1
  9 10  1  0
  9 37  1  0
  9 38  1  0
 10 11  1  0
 10 39  1  0
 10 40  1  0
 11 12  1  0
 11 28  1  0
 12 13  2  0
 12 27  1  0
 13 14  1  0
 13 41  1  0
 14 15  2  0
 14 42  1  0
 15 16  1  0
 15 26  1  0
 16 17  2  0
 16 21  1  0
 17 18  1  0
 17 43  1  0
 18 19  2  0
 18 44  1  0
 19 20  1  0
 19 25  1  0
 20 21  2  0
 20 22  1  0
 21 45  1  0
 22 23  1  0
 22 46  1  0
 22 47  1  0
 23 24  1  0
 23 48  1  0
 23 49  1  0
 24 25  1  0
 24 50  1  0
 24 51  1  0
 25 52  1  0
 25 53  1  0
 26 27  2  0
 28 29  1  0
 28 54  1  0
 28 55  1  0
 29 56  1  0
 29 57  1  0
 30 31  1  0
 31 32  2  0
 32 58  1  0
M  END

