
     RDKit          3D

 37 37  0  0  0  0  0  0  0  0999 V2000
    3.8773   -1.9164    1.4421 C   0  0  0  0  0  0  0  0  0  0  0  0
    4.4581   -1.3611    0.3729 C   0  0  0  0  0  0  0  0  0  0  0  0
    5.2308   -0.0737    0.3591 C   0  0  0  0  0  0  0  0  0  0  0  0
    4.4916    1.0459   -0.4230 C   0  0  1  0  0  0  0  0  0  0  0  0
    3.2505    1.4782    0.2163 N   0  0  0  0  0  0  0  0  0  0  0  0
    5.4299    2.2417   -0.8007 C   0  0  1  0  0  0  0  0  0  0  0  0
    6.5750    1.6944   -1.4919 O   0  0  0  0  0  0  0  0  0  0  0  0
    6.4160    1.1293   -2.7690 C   0  0  0  0  0  0  0  0  0  0  0  0
    4.7207    3.2846   -1.6996 C   0  0  0  0  0  0  0  0  0  0  0  0
    3.8695    4.3273   -0.9611 C   0  0  0  0  0  0  0  0  0  0  0  0
    4.6513    5.0106    0.1633 C   0  0  0  0  0  0  0  0  0  0  0  0
    5.2315    3.9907    1.1539 C   0  0  2  0  0  0  0  0  0  0  0  0
    6.0487    4.6654    2.2601 C   0  0  0  0  0  0  0  0  0  0  0  0
    6.0859    2.9535    0.4043 C   0  0  0  0  0  0  0  0  0  0  0  0
    3.3178   -2.8536    1.3705 H   0  0  0  0  0  0  0  0  0  0  0  0
    3.9545   -1.4616    2.4359 H   0  0  0  0  0  0  0  0  0  0  0  0
    4.3514   -1.8629   -0.5992 H   0  0  0  0  0  0  0  0  0  0  0  0
    6.2174   -0.2329   -0.1056 H   0  0  0  0  0  0  0  0  0  0  0  0
    5.4115    0.2615    1.3949 H   0  0  0  0  0  0  0  0  0  0  0  0
    4.1843    0.6128   -1.3913 H   0  0  0  0  0  0  0  0  0  0  0  0
    3.4224    1.7280    1.1913 H   0  0  0  0  0  0  0  0  0  0  0  0
    2.5965    0.6957    0.2493 H   0  0  0  0  0  0  0  0  0  0  0  0
    7.4174    0.8127   -3.0983 H   0  0  0  0  0  0  0  0  0  0  0  0
    6.0241    1.8456   -3.5140 H   0  0  0  0  0  0  0  0  0  0  0  0
    5.7619    0.2356   -2.7778 H   0  0  0  0  0  0  0  0  0  0  0  0
    4.0999    2.7742   -2.4542 H   0  0  0  0  0  0  0  0  0  0  0  0
    5.5241    3.8087   -2.2477 H   0  0  0  0  0  0  0  0  0  0  0  0
    2.9799    3.8327   -0.5451 H   0  0  0  0  0  0  0  0  0  0  0  0
    3.5171    5.0798   -1.6874 H   0  0  0  0  0  0  0  0  0  0  0  0
    4.0052    5.7289    0.6971 H   0  0  0  0  0  0  0  0  0  0  0  0
    5.4852    5.6003   -0.2643 H   0  0  0  0  0  0  0  0  0  0  0  0
    4.3793    3.4804    1.6379 H   0  0  0  0  0  0  0  0  0  0  0  0
    6.9159    5.2014    1.8379 H   0  0  0  0  0  0  0  0  0  0  0  0
    6.4349    3.9295    2.9846 H   0  0  0  0  0  0  0  0  0  0  0  0
    5.4416    5.3984    2.8162 H   0  0  0  0  0  0  0  0  0  0  0  0
    6.4867    2.2032    1.1045 H   0  0  0  0  0  0  0  0  0  0  0  0
    6.9683    3.4708   -0.0100 H   0  0  0  0  0  0  0  0  0  0  0  0
  1  2  2  0
  1 15  1  0
  1 16  1  0
  2  3  1  0
  2 17  1  0
  3  4  1  0
  3 18  1  0
  3 19  1  0
  4  5  1  0
  4  6  1  0
  4 20  1  6
  5 21  1  0
  5 22  1  0
  6  7  1  6
  6  9  1  0
  6 14  1  0
  7  8  1  0
  8 23  1  0
  8 24  1  0
  8 25  1  0
  9 10  1  0
  9 26  1  0
  9 27  1  0
 10 11  1  0
 10 28  1  0
 10 29  1  0
 11 12  1  0
 11 30  1  0
 11 31  1  0
 12 13  1  0
 12 14  1  0
 12 32  1  1
 13 33  1  0
 13 34  1  0
 13 35  1  0
 14 36  1  0
 14 37  1  0
M  END

