
     RDKit          3D

 33 35  0  0  0  0  0  0  0  0999 V2000
    1.5762    0.6228    1.3045 N   0  0  0  0  0  0  0  0  0  0  0  0
    2.8852    0.3491    0.9228 C   0  0  0  0  0  0  0  0  0  0  0  0
    3.8013   -0.2326    1.8198 C   0  0  0  0  0  0  0  0  0  0  0  0
    5.1012   -0.5579    1.4345 C   0  0  0  0  0  0  0  0  0  0  0  0
    5.5313   -0.3075    0.1204 C   0  0  0  0  0  0  0  0  0  0  0  0
    6.8311   -0.6007   -0.3505 N   0  0  0  0  0  0  0  0  0  0  0  0
    7.8541   -1.2136    0.3048 C   0  0  0  0  0  0  0  0  0  0  0  0
    7.8433   -1.6005    1.4623 O   0  0  0  0  0  0  0  0  0  0  0  0
    9.1167   -1.4041   -0.5637 C   0  0  0  0  0  0  0  0  0  0  0  0
    8.9742   -2.4447   -1.5896 N   0  0  0  0  0  0  0  0  0  0  0  0
    9.4125   -3.7259   -1.3381 C   0  0  0  0  0  0  0  0  0  0  0  0
    9.3643   -4.7150   -2.1691 N   0  0  0  0  0  0  0  0  0  0  0  0
    8.8246   -4.4435   -3.4000 C   0  0  0  0  0  0  0  0  0  0  0  0
    8.6722   -5.3789   -4.4741 C   0  0  0  0  0  0  0  0  0  0  0  0
    8.0953   -4.8007   -5.5730 C   0  0  0  0  0  0  0  0  0  0  0  0
    7.7124   -3.1204   -5.3549 S   0  0  0  0  0  0  0  0  0  0  0  0
    8.3454   -3.1728   -3.7425 C   0  0  0  0  0  0  0  0  0  0  0  0
    8.3761   -2.0733   -2.8167 C   0  0  0  0  0  0  0  0  0  0  0  0
    7.9528   -0.9333   -2.9945 O   0  0  0  0  0  0  0  0  0  0  0  0
    4.6236    0.2723   -0.7822 C   0  0  0  0  0  0  0  0  0  0  0  0
    3.3275    0.5957   -0.3918 C   0  0  0  0  0  0  0  0  0  0  0  0
    1.4154    0.7289    2.2996 H   0  0  0  0  0  0  0  0  0  0  0  0
    1.0864    1.3186    0.7539 H   0  0  0  0  0  0  0  0  0  0  0  0
    3.4871   -0.4399    2.8472 H   0  0  0  0  0  0  0  0  0  0  0  0
    5.7919   -1.0067    2.1451 H   0  0  0  0  0  0  0  0  0  0  0  0
    7.0145   -0.3841   -1.3322 H   0  0  0  0  0  0  0  0  0  0  0  0
    9.9245   -1.6916    0.1188 H   0  0  0  0  0  0  0  0  0  0  0  0
    9.3810   -0.4692   -1.0778 H   0  0  0  0  0  0  0  0  0  0  0  0
    9.8327   -3.8775   -0.3377 H   0  0  0  0  0  0  0  0  0  0  0  0
    8.9827   -6.4215   -4.4089 H   0  0  0  0  0  0  0  0  0  0  0  0
    7.8651   -5.2773   -6.5257 H   0  0  0  0  0  0  0  0  0  0  0  0
    4.9394    0.4724   -1.8105 H   0  0  0  0  0  0  0  0  0  0  0  0
    2.6432    1.0425   -1.1189 H   0  0  0  0  0  0  0  0  0  0  0  0
  1  2  1  0
  1 22  1  0
  1 23  1  0
  2  3  2  0
  2 21  1  0
  3  4  1  0
  3 24  1  0
  4  5  2  0
  4 25  1  0
  5  6  1  0
  5 20  1  0
  6  7  1  0
  6 26  1  0
  7  8  2  0
  7  9  1  0
  9 10  1  0
  9 27  1  0
  9 28  1  0
 10 11  1  0
 10 18  1  0
 11 12  2  0
 11 29  1  0
 12 13  1  0
 13 14  2  0
 13 17  1  0
 14 15  1  0
 14 30  1  0
 15 16  2  0
 15 31  1  0
 16 17  1  0
 17 18  2  0
 18 19  1  0
 20 21  2  0
 20 32  1  0
 21 33  1  0
M  CHG  2  16   1  19  -1
M  END

