
     RDKit          3D

 68 71  0  0  0  0  0  0  0  0999 V2000
    5.9087   -4.5579   -5.8430 C   0  0  0  0  0  0  0  0  0  0  0  0
    5.7810   -4.7092   -4.3635 C   0  0  0  0  0  0  0  0  0  0  0  0
    6.5240   -4.1608   -3.3601 C   0  0  0  0  0  0  0  0  0  0  0  0
    6.0124   -4.5918   -2.1660 O   0  0  0  0  0  0  0  0  0  0  0  0
    4.9670   -5.3805   -2.5054 C   0  0  0  0  0  0  0  0  0  0  0  0
    4.2128   -6.0801   -1.4163 C   0  0  1  0  0  0  0  0  0  0  0  0
    5.0269   -7.2409   -0.7869 C   0  0  0  0  0  0  0  0  0  0  0  0
    4.4940   -7.3233    0.6451 C   0  0  0  0  0  0  0  0  0  0  0  0
    4.3083   -5.8527    1.0148 C   0  0  0  0  0  0  0  0  0  0  0  0
    3.8840   -5.2343   -0.2500 N   0  0  0  0  0  0  0  0  0  0  0  0
    3.5004   -3.9157   -0.2171 C   0  0  0  0  0  0  0  0  0  0  0  0
    3.5974   -3.2687    0.8187 O   0  0  0  0  0  0  0  0  0  0  0  0
    2.9296   -3.2674   -1.4522 C   0  0  0  0  0  0  0  0  0  0  0  0
    2.0621   -3.9093   -2.3462 C   0  0  0  0  0  0  0  0  0  0  0  0
    1.5111   -3.2045   -3.4214 C   0  0  0  0  0  0  0  0  0  0  0  0
    1.8228   -1.8602   -3.6143 C   0  0  0  0  0  0  0  0  0  0  0  0
    2.6605   -1.1911   -2.7065 C   0  0  0  0  0  0  0  0  0  0  0  0
    2.9423    0.2683   -2.9655 C   0  0  0  0  0  0  0  0  0  0  0  0
    2.8062    0.7542   -4.0798 O   0  0  0  0  0  0  0  0  0  0  0  0
    3.3385    1.0047   -1.8833 N   0  0  0  0  0  0  0  0  0  0  0  0
    3.6149    2.4304   -1.9660 C   0  0  0  0  0  0  0  0  0  0  0  0
    5.1051    2.7923   -1.9459 C   0  0  0  0  0  0  0  0  0  0  0  0
    5.8920    2.2871   -3.1541 C   0  0  0  0  0  0  0  0  0  0  0  0
    7.2699    2.7550   -3.1130 N   0  0  0  0  0  0  0  0  0  0  0  0
    8.0867    2.3324   -4.2353 C   0  0  0  0  0  0  0  0  0  0  0  0
    9.4791    2.9264   -4.1950 C   0  0  0  0  0  0  0  0  0  0  0  0
    9.7063    4.2246   -3.7073 C   0  0  0  0  0  0  0  0  0  0  0  0
   10.9032    4.8149   -3.6955 N   0  0  0  0  0  0  0  0  0  0  0  0
   11.9479    4.1340   -4.1672 C   0  0  0  0  0  0  0  0  0  0  0  0
   11.8490    2.8260   -4.6609 C   0  0  0  0  0  0  0  0  0  0  0  0
   13.0820    2.0816   -5.1348 C   0  0  1  0  0  0  0  0  0  0  0  0
   13.8713    1.3883   -4.0403 C   0  0  0  0  0  0  0  0  0  0  0  0
   12.7114    1.1410   -6.0639 F   0  0  0  0  0  0  0  0  0  0  0  0
   13.9142    2.9582   -5.7820 F   0  0  0  0  0  0  0  0  0  0  0  0
   10.5889    2.2217   -4.6725 C   0  0  0  0  0  0  0  0  0  0  0  0
    3.2051   -1.9028   -1.6328 C   0  0  0  0  0  0  0  0  0  0  0  0
    4.7857   -5.4894   -3.7836 N   0  0  0  0  0  0  0  0  0  0  0  0
    6.7547   -3.9074   -6.1074 H   0  0  0  0  0  0  0  0  0  0  0  0
    4.9898   -4.1237   -6.2687 H   0  0  0  0  0  0  0  0  0  0  0  0
    6.0582   -5.5381   -6.3241 H   0  0  0  0  0  0  0  0  0  0  0  0
    7.3762   -3.4892   -3.3190 H   0  0  0  0  0  0  0  0  0  0  0  0
    3.3070   -6.4877   -1.8932 H   0  0  0  0  0  0  0  0  0  0  0  0
    6.0949   -6.9710   -0.7766 H   0  0  0  0  0  0  0  0  0  0  0  0
    4.9183   -8.1678   -1.3678 H   0  0  0  0  0  0  0  0  0  0  0  0
    5.1754   -7.8500    1.3291 H   0  0  0  0  0  0  0  0  0  0  0  0
    3.5242   -7.8477    0.6654 H   0  0  0  0  0  0  0  0  0  0  0  0
    5.2485   -5.3945    1.3716 H   0  0  0  0  0  0  0  0  0  0  0  0
    3.5529   -5.6746    1.7932 H   0  0  0  0  0  0  0  0  0  0  0  0
    1.7964   -4.9573   -2.2005 H   0  0  0  0  0  0  0  0  0  0  0  0
    0.8358   -3.7138   -4.1131 H   0  0  0  0  0  0  0  0  0  0  0  0
    1.4227   -1.2974   -4.4598 H   0  0  0  0  0  0  0  0  0  0  0  0
    3.3314    0.5684   -0.9700 H   0  0  0  0  0  0  0  0  0  0  0  0
    3.1063    2.9365   -1.1287 H   0  0  0  0  0  0  0  0  0  0  0  0
    3.1535    2.7868   -2.8989 H   0  0  0  0  0  0  0  0  0  0  0  0
    5.5633    2.4030   -1.0166 H   0  0  0  0  0  0  0  0  0  0  0  0
    5.1997    3.8905   -1.8995 H   0  0  0  0  0  0  0  0  0  0  0  0
    5.4239    2.6648   -4.0799 H   0  0  0  0  0  0  0  0  0  0  0  0
    5.8170    1.1786   -3.2124 H   0  0  0  0  0  0  0  0  0  0  0  0
    7.7127    2.4730   -2.2377 H   0  0  0  0  0  0  0  0  0  0  0  0
    7.5826    2.6704   -5.1608 H   0  0  0  0  0  0  0  0  0  0  0  0
    8.1695    1.2257   -4.3368 H   0  0  0  0  0  0  0  0  0  0  0  0
    8.8626    4.7955   -3.3063 H   0  0  0  0  0  0  0  0  0  0  0  0
   12.9158    4.6474   -4.1641 H   0  0  0  0  0  0  0  0  0  0  0  0
   13.2415    0.6455   -3.5309 H   0  0  0  0  0  0  0  0  0  0  0  0
   14.2214    2.1233   -3.3020 H   0  0  0  0  0  0  0  0  0  0  0  0
   14.7384    0.8834   -4.4912 H   0  0  0  0  0  0  0  0  0  0  0  0
   10.4752    1.2073   -5.0638 H   0  0  0  0  0  0  0  0  0  0  0  0
    3.8674   -1.4271   -0.9070 H   0  0  0  0  0  0  0  0  0  0  0  0
  1  2  1  0
  1 38  1  0
  1 39  1  0
  1 40  1  0
  2  3  2  0
  2 37  1  0
  3  4  1  0
  3 41  1  0
  4  5  1  0
  5  6  1  0
  5 37  2  0
  6  7  1  0
  6 10  1  0
  6 42  1  6
  7  8  1  0
  7 43  1  0
  7 44  1  0
  8  9  1  0
  8 45  1  0
  8 46  1  0
  9 10  1  0
  9 47  1  0
  9 48  1  0
 10 11  1  0
 11 12  2  0
 11 13  1  0
 13 14  2  0
 13 36  1  0
 14 15  1  0
 14 49  1  0
 15 16  2  0
 15 50  1  0
 16 17  1  0
 16 51  1  0
 17 18  1  0
 17 36  2  0
 18 19  2  0
 18 20  1  0
 20 21  1  0
 20 52  1  0
 21 22  1  0
 21 53  1  0
 21 54  1  0
 22 23  1  0
 22 55  1  0
 22 56  1  0
 23 24  1  0
 23 57  1  0
 23 58  1  0
 24 25  1  0
 24 59  1  0
 25 26  1  0
 25 60  1  0
 25 61  1  0
 26 27  2  0
 26 35  1  0
 27 28  1  0
 27 62  1  0
 28 29  2  0
 29 30  1  0
 29 63  1  0
 30 31  1  0
 30 35  2  0
 31 32  1  0
 31 33  1  6
 31 34  1  0
 32 64  1  0
 32 65  1  0
 32 66  1  0
 35 67  1  0
 36 68  1  0
M  END

