
     RDKit          3D

 35 36  0  0  0  0  0  0  0  0999 V2000
    2.7029   -1.1993   -0.6073 O   0  0  0  0  0  0  0  0  0  0  0  0
    2.2923   -0.5072    0.3331 C   0  0  0  0  0  0  0  0  0  0  0  0
    0.8468   -0.3643    0.6379 C   0  0  0  0  0  0  0  0  0  0  0  0
   -0.0687   -1.0043   -0.1159 C   0  0  0  0  0  0  0  0  0  0  0  0
   -1.5252   -0.9858    0.0233 C   0  0  0  0  0  0  0  0  0  0  0  0
   -2.3199   -1.7339   -0.8645 C   0  0  0  0  0  0  0  0  0  0  0  0
   -3.7066   -1.7157   -0.7293 C   0  0  0  0  0  0  0  0  0  0  0  0
   -4.2642   -0.9452    0.2951 C   0  0  0  0  0  0  0  0  0  0  0  0
   -3.5297   -0.2251    1.1508 N   0  0  0  0  0  0  0  0  0  0  0  0
   -2.2080   -0.2477    1.0154 C   0  0  0  0  0  0  0  0  0  0  0  0
    3.1396    0.1686    1.1476 N   0  0  0  0  0  0  0  0  0  0  0  0
    4.5861    0.1670    0.9621 C   0  0  1  0  0  0  0  0  0  0  0  0
    5.2728    1.1722    1.9127 C   0  0  0  0  0  0  0  0  0  0  0  0
    6.6224    0.5289    2.2508 C   0  0  0  0  0  0  0  0  0  0  0  0
    6.2666   -0.9556    2.4011 C   0  0  0  0  0  0  0  0  0  0  0  0
    5.2816   -1.2202    1.2479 C   0  0  2  0  0  0  0  0  0  0  0  0
    5.9960   -1.7652   -0.0065 C   0  0  0  0  0  0  0  0  0  0  0  0
    7.1732   -2.0315   -0.0250 O   0  0  0  0  0  0  0  0  0  0  0  0
    5.2262   -1.9234   -1.0801 O   0  0  0  0  0  0  0  0  0  0  0  0
    0.5614    0.2717    1.4808 H   0  0  0  0  0  0  0  0  0  0  0  0
    0.3316   -1.6138   -0.9341 H   0  0  0  0  0  0  0  0  0  0  0  0
   -1.8437   -2.3238   -1.6527 H   0  0  0  0  0  0  0  0  0  0  0  0
   -4.3474   -2.2873   -1.4042 H   0  0  0  0  0  0  0  0  0  0  0  0
   -5.3513   -0.9069    0.4313 H   0  0  0  0  0  0  0  0  0  0  0  0
   -1.6430    0.3562    1.7349 H   0  0  0  0  0  0  0  0  0  0  0  0
    2.7565    0.6983    1.9219 H   0  0  0  0  0  0  0  0  0  0  0  0
    4.7787    0.4534   -0.0846 H   0  0  0  0  0  0  0  0  0  0  0  0
    4.6748    1.2638    2.8382 H   0  0  0  0  0  0  0  0  0  0  0  0
    5.3513    2.1782    1.4725 H   0  0  0  0  0  0  0  0  0  0  0  0
    7.0912    0.9655    3.1461 H   0  0  0  0  0  0  0  0  0  0  0  0
    7.3278    0.6553    1.4125 H   0  0  0  0  0  0  0  0  0  0  0  0
    5.7676   -1.1255    3.3700 H   0  0  0  0  0  0  0  0  0  0  0  0
    7.1385   -1.6194    2.3373 H   0  0  0  0  0  0  0  0  0  0  0  0
    4.5159   -1.9628    1.5241 H   0  0  0  0  0  0  0  0  0  0  0  0
    4.2803   -1.6674   -0.9114 H   0  0  0  0  0  0  0  0  0  0  0  0
  1  2  2  0
  2  3  1  0
  2 11  1  0
  3  4  2  0
  3 20  1  0
  4  5  1  0
  4 21  1  0
  5  6  2  0
  5 10  1  0
  6  7  1  0
  6 22  1  0
  7  8  2  0
  7 23  1  0
  8  9  1  0
  8 24  1  0
  9 10  2  0
 10 25  1  0
 11 12  1  0
 11 26  1  0
 12 13  1  0
 12 16  1  0
 12 27  1  6
 13 14  1  0
 13 28  1  0
 13 29  1  0
 14 15  1  0
 14 30  1  0
 14 31  1  0
 15 16  1  0
 15 32  1  0
 15 33  1  0
 16 17  1  0
 16 34  1  1
 17 18  2  0
 17 19  1  0
 19 35  1  0
M  END

