
     RDKit          3D

 33 34  0  0  0  0  0  0  0  0999 V2000
    4.6214   -1.2788   -0.0098 C   0  0  0  0  0  0  0  0  0  0  0  0
    3.7016   -0.3480   -0.7436 C   0  0  0  0  0  0  0  0  0  0  0  0
    3.9400    1.0406   -1.0453 C   0  0  0  0  0  0  0  0  0  0  0  0
    2.8540    1.4796   -1.7435 C   0  0  0  0  0  0  0  0  0  0  0  0
    1.9578    0.4752   -1.8945 O   0  0  0  0  0  0  0  0  0  0  0  0
    2.4735   -0.6366   -1.2890 C   0  0  0  0  0  0  0  0  0  0  0  0
    1.6331   -1.8746   -1.3689 C   0  0  0  0  0  0  0  0  0  0  0  0
    1.5189   -2.5559   -0.0841 N   0  0  0  0  0  0  0  0  0  0  0  0
    0.6712   -3.7319   -0.1097 C   0  0  1  0  0  0  0  0  0  0  0  0
    1.2512   -5.0238   -0.7397 C   0  0  0  0  0  0  0  0  0  0  0  0
    0.6592   -5.8406    0.4455 C   0  0  2  0  0  0  0  0  0  0  0  0
   -0.6295   -6.5900    0.1184 C   0  0  0  0  0  0  0  0  0  0  0  0
    0.5053   -4.4926    1.2291 C   0  0  2  0  0  0  0  0  0  0  0  0
   -0.7119   -4.2259    2.1031 C   0  0  0  0  0  0  0  0  0  0  0  0
    5.0055   -0.8128    0.9128 H   0  0  0  0  0  0  0  0  0  0  0  0
    5.4992   -1.5453   -0.6241 H   0  0  0  0  0  0  0  0  0  0  0  0
    4.0956   -2.2030    0.2657 H   0  0  0  0  0  0  0  0  0  0  0  0
    4.8151    1.6271   -0.7696 H   0  0  0  0  0  0  0  0  0  0  0  0
    2.5797    2.4382   -2.1767 H   0  0  0  0  0  0  0  0  0  0  0  0
    2.0747   -2.5898   -2.0882 H   0  0  0  0  0  0  0  0  0  0  0  0
    0.6520   -1.5797   -1.8019 H   0  0  0  0  0  0  0  0  0  0  0  0
    1.1813   -1.8980    0.6191 H   0  0  0  0  0  0  0  0  0  0  0  0
   -0.3283   -3.5153   -0.5509 H   0  0  0  0  0  0  0  0  0  0  0  0
    2.3513   -5.0034   -0.7245 H   0  0  0  0  0  0  0  0  0  0  0  0
    0.9090   -5.2950   -1.7510 H   0  0  0  0  0  0  0  0  0  0  0  0
    1.3705   -6.5410    0.9130 H   0  0  0  0  0  0  0  0  0  0  0  0
   -1.3712   -5.9452   -0.3811 H   0  0  0  0  0  0  0  0  0  0  0  0
   -1.1029   -7.0014    1.0250 H   0  0  0  0  0  0  0  0  0  0  0  0
   -0.4217   -7.4349   -0.5591 H   0  0  0  0  0  0  0  0  0  0  0  0
    1.4248   -4.3270    1.8153 H   0  0  0  0  0  0  0  0  0  0  0  0
   -1.6555   -4.3564    1.5496 H   0  0  0  0  0  0  0  0  0  0  0  0
   -0.6994   -3.1948    2.4957 H   0  0  0  0  0  0  0  0  0  0  0  0
   -0.7387   -4.9039    2.9726 H   0  0  0  0  0  0  0  0  0  0  0  0
  1  2  1  0
  1 15  1  0
  1 16  1  0
  1 17  1  0
  2  3  1  0
  2  6  2  0
  3  4  2  0
  3 18  1  0
  4  5  1  0
  4 19  1  0
  5  6  1  0
  6  7  1  0
  7  8  1  0
  7 20  1  0
  7 21  1  0
  8  9  1  0
  8 22  1  0
  9 10  1  0
  9 13  1  0
  9 23  1  6
 10 11  1  0
 10 24  1  0
 10 25  1  0
 11 12  1  0
 11 13  1  0
 11 26  1  1
 12 27  1  0
 12 28  1  0
 12 29  1  0
 13 14  1  0
 13 30  1  1
 14 31  1  0
 14 32  1  0
 14 33  1  0
M  END

