
     RDKit          3D

 42 44  0  0  0  0  0  0  0  0999 V2000
    0.7574   -0.4983    0.4375 C   0  0  0  0  0  0  0  0  0  0  0  0
    2.1855   -0.2186   -0.0087 C   0  0  1  0  0  0  0  0  0  0  0  0
    2.6997    1.0395    0.5674 N   0  0  0  0  0  0  0  0  0  0  0  0
    4.1082    0.8008    0.6493 N   0  0  0  0  0  0  0  0  0  0  0  0
    4.2477   -0.5254    1.2606 C   0  0  2  0  0  0  0  0  0  0  0  0
    5.6689   -1.0413    1.3393 C   0  0  0  0  0  0  0  0  0  0  0  0
    5.9468   -2.1920    2.0942 C   0  0  0  0  0  0  0  0  0  0  0  0
    7.2425   -2.6946    2.1913 C   0  0  0  0  0  0  0  0  0  0  0  0
    8.3207   -2.0616    1.5431 C   0  0  0  0  0  0  0  0  0  0  0  0
    9.7048   -2.5955    1.6489 C   0  0  0  0  0  0  0  0  0  0  0  0
    9.9470   -3.9824    1.6735 C   0  0  0  0  0  0  0  0  0  0  0  0
   11.2462   -4.4845    1.7721 C   0  0  0  0  0  0  0  0  0  0  0  0
   12.3356   -3.6116    1.8487 C   0  0  0  0  0  0  0  0  0  0  0  0
   12.1124   -2.2316    1.8255 C   0  0  0  0  0  0  0  0  0  0  0  0
   10.8129   -1.7302    1.7268 C   0  0  0  0  0  0  0  0  0  0  0  0
    8.0380   -0.9059    0.7942 C   0  0  0  0  0  0  0  0  0  0  0  0
    6.7377   -0.4071    0.6903 C   0  0  0  0  0  0  0  0  0  0  0  0
    3.2254   -1.3335    0.3947 C   0  0  2  0  0  0  0  0  0  0  0  0
    3.8619   -2.0361   -0.8042 C   0  0  0  0  0  0  0  0  0  0  0  0
    3.8260   -3.2470   -0.9557 O   0  0  0  0  0  0  0  0  0  0  0  0
    4.4697   -1.2039   -1.7016 N   0  0  0  0  0  0  0  0  0  0  0  0
    5.2000   -1.6937   -2.7884 N   0  0  0  0  0  0  0  0  0  0  0  0
    0.0992    0.3482    0.1853 H   0  0  0  0  0  0  0  0  0  0  0  0
    0.7019   -0.6671    1.5266 H   0  0  0  0  0  0  0  0  0  0  0  0
    0.3649   -1.3968   -0.0620 H   0  0  0  0  0  0  0  0  0  0  0  0
    2.1990   -0.1094   -1.1044 H   0  0  0  0  0  0  0  0  0  0  0  0
    2.3243    1.0920    1.5263 H   0  0  0  0  0  0  0  0  0  0  0  0
    4.5569    1.5530    1.1704 H   0  0  0  0  0  0  0  0  0  0  0  0
    3.8392   -0.5221    2.2970 H   0  0  0  0  0  0  0  0  0  0  0  0
    5.1356   -2.7022    2.6212 H   0  0  0  0  0  0  0  0  0  0  0  0
    7.4258   -3.5810    2.8027 H   0  0  0  0  0  0  0  0  0  0  0  0
    9.1079   -4.6768    1.5888 H   0  0  0  0  0  0  0  0  0  0  0  0
   11.4088   -5.5655    1.7804 H   0  0  0  0  0  0  0  0  0  0  0  0
   13.3526   -4.0044    1.9258 H   0  0  0  0  0  0  0  0  0  0  0  0
   12.9556   -1.5391    1.8928 H   0  0  0  0  0  0  0  0  0  0  0  0
   10.6523   -0.6496    1.7345 H   0  0  0  0  0  0  0  0  0  0  0  0
    8.8444   -0.3997    0.2586 H   0  0  0  0  0  0  0  0  0  0  0  0
    6.5513    0.4841    0.0881 H   0  0  0  0  0  0  0  0  0  0  0  0
    2.7583   -2.1315    0.9867 H   0  0  0  0  0  0  0  0  0  0  0  0
    4.6034   -0.2234   -1.4644 H   0  0  0  0  0  0  0  0  0  0  0  0
    4.5510   -2.1744   -3.4157 H   0  0  0  0  0  0  0  0  0  0  0  0
    5.8258   -2.4284   -2.4454 H   0  0  0  0  0  0  0  0  0  0  0  0
  1  2  1  0
  1 23  1  0
  1 24  1  0
  1 25  1  0
  2  3  1  0
  2 18  1  0
  2 26  1  6
  3  4  1  0
  3 27  1  0
  4  5  1  0
  4 28  1  0
  5  6  1  0
  5 18  1  0
  5 29  1  1
  6  7  2  0
  6 17  1  0
  7  8  1  0
  7 30  1  0
  8  9  2  0
  8 31  1  0
  9 10  1  0
  9 16  1  0
 10 11  2  0
 10 15  1  0
 11 12  1  0
 11 32  1  0
 12 13  2  0
 12 33  1  0
 13 14  1  0
 13 34  1  0
 14 15  2  0
 14 35  1  0
 15 36  1  0
 16 17  2  0
 16 37  1  0
 17 38  1  0
 18 19  1  0
 18 39  1  1
 19 20  2  0
 19 21  1  0
 21 22  1  0
 21 40  1  0
 22 41  1  0
 22 42  1  0
M  END

