
     RDKit          3D

 44 44  0  0  0  0  0  0  0  0999 V2000
    3.4453   -1.6746    1.3928 C   0  0  0  0  0  0  0  0  0  0  0  0
    4.6945   -1.9950    0.8266 O   0  0  0  0  0  0  0  0  0  0  0  0
    4.9151   -1.7304   -0.4880 C   0  0  0  0  0  0  0  0  0  0  0  0
    3.9759   -1.1516   -1.3538 C   0  0  0  0  0  0  0  0  0  0  0  0
    4.3113   -0.9208   -2.6937 C   0  0  0  0  0  0  0  0  0  0  0  0
    5.5694   -1.2618   -3.1975 C   0  0  0  0  0  0  0  0  0  0  0  0
    5.9485   -0.9745   -4.6322 C   0  0  0  0  0  0  0  0  0  0  0  0
    4.7942   -0.8864   -5.4353 O   0  0  0  0  0  0  0  0  0  0  0  0
    5.0101   -0.4789   -6.7726 C   0  0  0  0  0  0  0  0  0  0  0  0
    5.5301   -1.5944   -7.6857 C   0  0  0  0  0  0  0  0  0  0  0  0
    4.5705   -2.7880   -7.7426 C   0  0  0  0  0  0  0  0  0  0  0  0
    5.0564   -4.0516   -8.5137 C   0  0  1  0  0  0  0  0  0  0  0  0
    5.4281   -3.6899   -9.9614 C   0  0  0  0  0  0  0  0  0  0  0  0
    6.2809   -4.6916   -7.8187 C   0  0  0  0  0  0  0  0  0  0  0  0
    3.9108   -5.0689   -8.5026 C   0  0  0  0  0  0  0  0  0  0  0  0
    3.4828   -5.5557   -7.2907 N   0  0  0  0  0  0  0  0  0  0  0  0
    3.4252   -5.4660   -9.6293 N   0  0  0  0  0  0  0  0  0  0  0  0
    2.3790   -6.3936   -9.4123 O   0  0  0  0  0  0  0  0  0  0  0  0
    6.4973   -1.8504   -2.3213 C   0  0  0  0  0  0  0  0  0  0  0  0
    6.1830   -2.0791   -0.9860 C   0  0  0  0  0  0  0  0  0  0  0  0
    3.4941   -1.9706    2.4495 H   0  0  0  0  0  0  0  0  0  0  0  0
    2.6180   -2.2236    0.9067 H   0  0  0  0  0  0  0  0  0  0  0  0
    3.2312   -0.5916    1.3355 H   0  0  0  0  0  0  0  0  0  0  0  0
    2.9816   -0.8768   -1.0007 H   0  0  0  0  0  0  0  0  0  0  0  0
    3.5766   -0.4765   -3.3671 H   0  0  0  0  0  0  0  0  0  0  0  0
    6.6384   -1.7638   -4.9930 H   0  0  0  0  0  0  0  0  0  0  0  0
    6.5148   -0.0184   -4.6909 H   0  0  0  0  0  0  0  0  0  0  0  0
    5.7032    0.3861   -6.8003 H   0  0  0  0  0  0  0  0  0  0  0  0
    4.0306   -0.1281   -7.1384 H   0  0  0  0  0  0  0  0  0  0  0  0
    6.5288   -1.9130   -7.3426 H   0  0  0  0  0  0  0  0  0  0  0  0
    5.6782   -1.1606   -8.6888 H   0  0  0  0  0  0  0  0  0  0  0  0
    3.6203   -2.4545   -8.1969 H   0  0  0  0  0  0  0  0  0  0  0  0
    4.3283   -3.0578   -6.7010 H   0  0  0  0  0  0  0  0  0  0  0  0
    6.2946   -3.0114   -9.9757 H   0  0  0  0  0  0  0  0  0  0  0  0
    4.5899   -3.2039  -10.4813 H   0  0  0  0  0  0  0  0  0  0  0  0
    5.6856   -4.5909  -10.5345 H   0  0  0  0  0  0  0  0  0  0  0  0
    7.1450   -4.0097   -7.8326 H   0  0  0  0  0  0  0  0  0  0  0  0
    6.5767   -5.6154   -8.3397 H   0  0  0  0  0  0  0  0  0  0  0  0
    6.0708   -4.9537   -6.7704 H   0  0  0  0  0  0  0  0  0  0  0  0
    3.6363   -4.9932   -6.4649 H   0  0  0  0  0  0  0  0  0  0  0  0
    2.6132   -6.0765   -7.3217 H   0  0  0  0  0  0  0  0  0  0  0  0
    2.0851   -6.5873  -10.3096 H   0  0  0  0  0  0  0  0  0  0  0  0
    7.4864   -2.1383   -2.6914 H   0  0  0  0  0  0  0  0  0  0  0  0
    6.9009   -2.5372   -0.3026 H   0  0  0  0  0  0  0  0  0  0  0  0
  1  2  1  0
  1 21  1  0
  1 22  1  0
  1 23  1  0
  2  3  1  0
  3  4  2  0
  3 20  1  0
  4  5  1  0
  4 24  1  0
  5  6  2  0
  5 25  1  0
  6  7  1  0
  6 19  1  0
  7  8  1  0
  7 26  1  0
  7 27  1  0
  8  9  1  0
  9 10  1  0
  9 28  1  0
  9 29  1  0
 10 11  1  0
 10 30  1  0
 10 31  1  0
 11 12  1  0
 11 32  1  0
 11 33  1  0
 12 13  1  0
 12 14  1  0
 12 15  1  6
 13 34  1  0
 13 35  1  0
 13 36  1  0
 14 37  1  0
 14 38  1  0
 14 39  1  0
 15 16  1  0
 15 17  2  0
 16 40  1  0
 16 41  1  0
 17 18  1  0
 18 42  1  0
 19 20  2  0
 19 43  1  0
 20 44  1  0
M  END

