
     RDKit          3D

 44 45  0  0  0  0  0  0  0  0999 V2000
    0.8086    0.2555   -0.6618 C   0  0  0  0  0  0  0  0  0  0  0  0
    2.3152    0.1797   -0.6031 C   0  0  0  0  0  0  0  0  0  0  0  0
    3.1109    0.4944   -1.7124 C   0  0  0  0  0  0  0  0  0  0  0  0
    4.5061    0.4059   -1.6518 C   0  0  0  0  0  0  0  0  0  0  0  0
    5.1607    0.0038   -0.4805 C   0  0  0  0  0  0  0  0  0  0  0  0
    6.6864   -0.0494   -0.4097 C   0  0  1  0  0  0  0  0  0  0  0  0
    7.2230    0.8998    0.5743 N   0  0  0  0  0  0  0  0  0  0  0  0
    7.2512   -1.4890   -0.1825 C   0  0  1  0  0  0  0  0  0  0  0  0
    6.5683   -2.4761   -1.1378 C   0  0  0  0  0  0  0  0  0  0  0  0
    8.7099   -1.5121   -0.3340 N   0  0  0  0  0  0  0  0  0  0  0  0
    9.4924   -1.0508    0.8172 C   0  0  0  0  0  0  0  0  0  0  0  0
   10.9513   -1.3777    0.4524 C   0  0  0  0  0  0  0  0  0  0  0  0
   10.8656   -2.4363   -0.6936 C   0  0  2  0  0  0  0  0  0  0  0  0
   11.7160   -3.6815   -0.4157 C   0  0  0  0  0  0  0  0  0  0  0  0
   11.2730   -1.8050   -2.0360 C   0  0  0  0  0  0  0  0  0  0  0  0
    9.3538   -2.7665   -0.7129 C   0  0  0  0  0  0  0  0  0  0  0  0
    4.3616   -0.3047    0.6355 C   0  0  0  0  0  0  0  0  0  0  0  0
    2.9711   -0.2219    0.5742 C   0  0  0  0  0  0  0  0  0  0  0  0
    0.4633    0.7316   -1.5915 H   0  0  0  0  0  0  0  0  0  0  0  0
    0.4000    0.8308    0.1852 H   0  0  0  0  0  0  0  0  0  0  0  0
    0.3550   -0.7497   -0.6148 H   0  0  0  0  0  0  0  0  0  0  0  0
    2.6333    0.8166   -2.6426 H   0  0  0  0  0  0  0  0  0  0  0  0
    5.0985    0.6573   -2.5369 H   0  0  0  0  0  0  0  0  0  0  0  0
    7.0801    0.2591   -1.3923 H   0  0  0  0  0  0  0  0  0  0  0  0
    6.8615    0.6821    1.5049 H   0  0  0  0  0  0  0  0  0  0  0  0
    6.8857    1.8386    0.3594 H   0  0  0  0  0  0  0  0  0  0  0  0
    6.9788   -1.7941    0.8582 H   0  0  0  0  0  0  0  0  0  0  0  0
    6.7993   -2.2331   -2.1880 H   0  0  0  0  0  0  0  0  0  0  0  0
    5.4782   -2.4404   -1.0164 H   0  0  0  0  0  0  0  0  0  0  0  0
    6.8862   -3.5100   -0.9462 H   0  0  0  0  0  0  0  0  0  0  0  0
    9.1932   -1.6118    1.7358 H   0  0  0  0  0  0  0  0  0  0  0  0
    9.3072    0.0114    1.0066 H   0  0  0  0  0  0  0  0  0  0  0  0
   11.5009   -1.7655    1.3241 H   0  0  0  0  0  0  0  0  0  0  0  0
   11.4873   -0.4787    0.1107 H   0  0  0  0  0  0  0  0  0  0  0  0
   12.7893   -3.4296   -0.3890 H   0  0  0  0  0  0  0  0  0  0  0  0
   11.5753   -4.4458   -1.1990 H   0  0  0  0  0  0  0  0  0  0  0  0
   11.4544   -4.1409    0.5517 H   0  0  0  0  0  0  0  0  0  0  0  0
   12.3136   -1.4414   -2.0036 H   0  0  0  0  0  0  0  0  0  0  0  0
   10.6176   -0.9522   -2.2701 H   0  0  0  0  0  0  0  0  0  0  0  0
   11.1973   -2.5344   -2.8602 H   0  0  0  0  0  0  0  0  0  0  0  0
    9.1417   -3.5847    0.0170 H   0  0  0  0  0  0  0  0  0  0  0  0
    9.0300   -3.1170   -1.7032 H   0  0  0  0  0  0  0  0  0  0  0  0
    4.8309   -0.6174    1.5735 H   0  0  0  0  0  0  0  0  0  0  0  0
    2.3791   -0.4723    1.4600 H   0  0  0  0  0  0  0  0  0  0  0  0
  1  2  1  0
  1 19  1  0
  1 20  1  0
  1 21  1  0
  2  3  2  0
  2 18  1  0
  3  4  1  0
  3 22  1  0
  4  5  2  0
  4 23  1  0
  5  6  1  0
  5 17  1  0
  6  7  1  0
  6  8  1  0
  6 24  1  6
  7 25  1  0
  7 26  1  0
  8  9  1  0
  8 10  1  0
  8 27  1  1
  9 28  1  0
  9 29  1  0
  9 30  1  0
 10 11  1  0
 10 16  1  0
 11 12  1  0
 11 31  1  0
 11 32  1  0
 12 13  1  0
 12 33  1  0
 12 34  1  0
 13 14  1  1
 13 15  1  0
 13 16  1  0
 14 35  1  0
 14 36  1  0
 14 37  1  0
 15 38  1  0
 15 39  1  0
 15 40  1  0
 16 41  1  0
 16 42  1  0
 17 18  2  0
 17 43  1  0
 18 44  1  0
M  END

