
     RDKit          3D

 43 44  0  0  0  0  0  0  0  0999 V2000
    6.5884    2.3877    1.9804 C   0  0  0  0  0  0  0  0  0  0  0  0
    5.4533    3.0570    1.2022 C   0  0  0  0  0  0  0  0  0  0  0  0
    4.4615    2.0857    0.5434 C   0  0  2  0  0  0  0  0  0  0  0  0
    3.7105    2.6693   -0.0166 H   0  0  0  0  0  0  0  0  0  0  0  0
    3.7274    1.1708    1.5147 C   0  0  0  0  0  0  0  0  0  0  0  0
    5.1522    1.2118   -0.3700 O   0  0  0  0  0  0  0  0  0  0  0  0
    5.5252    1.5983   -1.5987 C   0  0  0  0  0  0  0  0  0  0  0  0
    5.1270    2.7864   -2.2374 C   0  0  0  0  0  0  0  0  0  0  0  0
    5.5501    3.0693   -3.5315 C   0  0  0  0  0  0  0  0  0  0  0  0
    6.3928    2.1948   -4.2541 C   0  0  0  0  0  0  0  0  0  0  0  0
    6.7598    2.6130   -5.5999 C   0  0  0  0  0  0  0  0  0  0  0  0
    7.5247    2.1042   -6.6077 C   0  0  0  0  0  0  0  0  0  0  0  0
    7.6798    3.0149   -8.1388 S   0  0  0  0  0  0  0  0  0  0  0  0
    8.7577    1.7737   -8.8544 C   0  0  0  0  0  0  0  0  0  0  0  0
    9.2313    1.8166   -9.9589 O   0  0  0  0  0  0  0  0  0  0  0  0
    8.9669    0.7625   -7.9224 N   0  0  0  0  0  0  0  0  0  0  0  0
    9.7496   -0.4060   -8.2642 C   0  0  0  0  0  0  0  0  0  0  0  0
    8.9492   -1.5979   -8.7833 C   0  0  0  0  0  0  0  0  0  0  0  0
    9.4527   -2.6662   -9.0138 O   0  0  0  0  0  0  0  0  0  0  0  0
    7.6538   -1.3119   -8.9604 O   0  0  0  0  0  0  0  0  0  0  0  0
    6.8318   -2.3751   -9.4502 C   0  0  0  0  0  0  0  0  0  0  0  0
    8.3152    0.8495   -6.6884 C   0  0  0  0  0  0  0  0  0  0  0  0
    8.4351   -0.0207   -5.8464 O   0  0  0  0  0  0  0  0  0  0  0  0
    6.8005    1.0042   -3.6058 C   0  0  0  0  0  0  0  0  0  0  0  0
    6.3793    0.7219   -2.3156 C   0  0  0  0  0  0  0  0  0  0  0  0
    6.9116   -0.7461   -1.5366 Cl  0  0  0  0  0  0  0  0  0  0  0  0
    7.3100    3.1393    2.3359 H   0  0  0  0  0  0  0  0  0  0  0  0
    7.1304    1.6695    1.3462 H   0  0  0  0  0  0  0  0  0  0  0  0
    6.2195    1.8427    2.8634 H   0  0  0  0  0  0  0  0  0  0  0  0
    5.8795    3.7027    0.4159 H   0  0  0  0  0  0  0  0  0  0  0  0
    4.8751    3.7273    1.8624 H   0  0  0  0  0  0  0  0  0  0  0  0
    3.0030    0.5434    0.9748 H   0  0  0  0  0  0  0  0  0  0  0  0
    3.1842    1.7670    2.2640 H   0  0  0  0  0  0  0  0  0  0  0  0
    4.4292    0.5044    2.0368 H   0  0  0  0  0  0  0  0  0  0  0  0
    4.4783    3.4957   -1.7241 H   0  0  0  0  0  0  0  0  0  0  0  0
    5.2185    4.0001   -3.9988 H   0  0  0  0  0  0  0  0  0  0  0  0
    6.3019    3.5761   -5.8561 H   0  0  0  0  0  0  0  0  0  0  0  0
   10.2986   -0.7457   -7.3752 H   0  0  0  0  0  0  0  0  0  0  0  0
   10.4711   -0.1252   -9.0444 H   0  0  0  0  0  0  0  0  0  0  0  0
    5.8188   -1.9637   -9.5332 H   0  0  0  0  0  0  0  0  0  0  0  0
    6.8452   -3.2259   -8.7529 H   0  0  0  0  0  0  0  0  0  0  0  0
    7.1889   -2.7189  -10.4323 H   0  0  0  0  0  0  0  0  0  0  0  0
    7.4540    0.3029   -4.1210 H   0  0  0  0  0  0  0  0  0  0  0  0
  1  2  1  0
  1 27  1  0
  1 28  1  0
  1 29  1  0
  2  3  1  0
  2 30  1  0
  2 31  1  0
  3  4  1  6
  3  5  1  0
  3  6  1  0
  5 32  1  0
  5 33  1  0
  5 34  1  0
  6  7  1  0
  7  8  2  0
  7 25  1  0
  8  9  1  0
  8 35  1  0
  9 10  2  0
  9 36  1  0
 10 11  1  0
 10 24  1  0
 11 12  2  0
 11 37  1  0
 12 13  1  0
 12 22  1  0
 13 14  2  0
 14 15  1  0
 14 16  1  0
 16 17  1  0
 16 22  1  0
 17 18  1  0
 17 38  1  0
 17 39  1  0
 18 19  2  0
 18 20  1  0
 20 21  1  0
 21 40  1  0
 21 41  1  0
 21 42  1  0
 22 23  2  0
 24 25  2  0
 24 43  1  0
 25 26  1  0
M  CHG  2  13   1  15  -1
M  END

