
     RDKit          3D

 37 38  0  0  0  0  0  0  0  0999 V2000
    1.1237    0.1442   -0.2228 C   0  0  0  0  0  0  0  0  0  0  0  0
    2.5681    0.6442   -0.2100 C   0  0  0  0  0  0  0  0  0  0  0  0
    3.2127    0.6584   -1.5210 N   0  0  0  0  0  0  0  0  0  0  0  0
    2.4937    1.3180   -2.6011 C   0  0  0  0  0  0  0  0  0  0  0  0
    1.7923    0.4039   -3.5802 C   0  0  0  0  0  0  0  0  0  0  0  0
    1.9228   -0.9587   -3.6711 C   0  0  0  0  0  0  0  0  0  0  0  0
    0.9492   -1.5564   -4.9716 S   0  0  0  0  0  0  0  0  0  0  0  0
    0.4250    0.0795   -5.2992 C   0  0  0  0  0  0  0  0  0  0  0  0
   -0.5530    0.4195   -6.4020 C   0  0  1  0  0  0  0  0  0  0  0  0
   -1.8859    0.9058   -5.8004 C   0  0  0  0  0  0  0  0  0  0  0  0
    0.0962    1.3701   -7.3043 N   0  0  0  0  0  0  0  0  0  0  0  0
    0.9426    0.9681   -4.5025 N   0  0  0  0  0  0  0  0  0  0  0  0
    4.5957    0.4944   -1.6287 C   0  0  0  0  0  0  0  0  0  0  0  0
    5.4463    0.4332   -0.4978 C   0  0  0  0  0  0  0  0  0  0  0  0
    6.8222    0.2494   -0.6472 C   0  0  0  0  0  0  0  0  0  0  0  0
    7.4160    0.1343   -1.9055 C   0  0  0  0  0  0  0  0  0  0  0  0
    6.5730    0.2082   -3.0117 C   0  0  0  0  0  0  0  0  0  0  0  0
    7.1022    0.0957   -4.2417 F   0  0  0  0  0  0  0  0  0  0  0  0
    5.1988    0.3800   -2.9044 C   0  0  0  0  0  0  0  0  0  0  0  0
    0.7346    0.1355    0.8077 H   0  0  0  0  0  0  0  0  0  0  0  0
    1.0585   -0.8783   -0.6245 H   0  0  0  0  0  0  0  0  0  0  0  0
    0.4552    0.7839   -0.8183 H   0  0  0  0  0  0  0  0  0  0  0  0
    3.1463   -0.0259    0.4401 H   0  0  0  0  0  0  0  0  0  0  0  0
    2.6076    1.6498    0.2619 H   0  0  0  0  0  0  0  0  0  0  0  0
    3.1840    1.9683   -3.1656 H   0  0  0  0  0  0  0  0  0  0  0  0
    1.7397    2.0035   -2.1789 H   0  0  0  0  0  0  0  0  0  0  0  0
    2.5345   -1.6143   -3.0557 H   0  0  0  0  0  0  0  0  0  0  0  0
   -0.7496   -0.5050   -6.9727 H   0  0  0  0  0  0  0  0  0  0  0  0
   -1.7172    1.8031   -5.1846 H   0  0  0  0  0  0  0  0  0  0  0  0
   -2.3507    0.1346   -5.1645 H   0  0  0  0  0  0  0  0  0  0  0  0
   -2.5966    1.1582   -6.6045 H   0  0  0  0  0  0  0  0  0  0  0  0
    0.4110    2.1769   -6.7625 H   0  0  0  0  0  0  0  0  0  0  0  0
   -0.5771    1.7168   -7.9882 H   0  0  0  0  0  0  0  0  0  0  0  0
    5.0453    0.5532    0.5070 H   0  0  0  0  0  0  0  0  0  0  0  0
    7.4493    0.2111    0.2475 H   0  0  0  0  0  0  0  0  0  0  0  0
    8.4894   -0.0037   -2.0407 H   0  0  0  0  0  0  0  0  0  0  0  0
    4.6122    0.3831   -3.8222 H   0  0  0  0  0  0  0  0  0  0  0  0
  1  2  1  0
  1 20  1  0
  1 21  1  0
  1 22  1  0
  2  3  1  0
  2 23  1  0
  2 24  1  0
  3  4  1  0
  3 13  1  0
  4  5  1  0
  4 25  1  0
  4 26  1  0
  5  6  2  0
  5 12  1  0
  6  7  1  0
  6 27  1  0
  7  8  1  0
  8  9  1  0
  8 12  2  0
  9 10  1  0
  9 11  1  0
  9 28  1  6
 10 29  1  0
 10 30  1  0
 10 31  1  0
 11 32  1  0
 11 33  1  0
 13 14  2  0
 13 19  1  0
 14 15  1  0
 14 34  1  0
 15 16  2  0
 15 35  1  0
 16 17  1  0
 16 36  1  0
 17 18  1  0
 17 19  2  0
 19 37  1  0
M  END

