
     RDKit          3D

 41 44  0  0  0  0  0  0  0  0999 V2000
    0.8935    0.2122    0.6571 O   0  0  0  0  0  0  0  0  0  0  0  0
    2.0828    0.1418    0.3929 C   0  0  0  0  0  0  0  0  0  0  0  0
    2.9278    1.3661    0.3049 C   0  0  0  0  0  0  0  0  0  0  0  0
    2.3450    2.6210    0.5325 C   0  0  0  0  0  0  0  0  0  0  0  0
    3.1202    3.7770    0.4549 C   0  0  0  0  0  0  0  0  0  0  0  0
    4.4853    3.6858    0.1487 C   0  0  0  0  0  0  0  0  0  0  0  0
    5.0712    2.4412   -0.0790 C   0  0  0  0  0  0  0  0  0  0  0  0
    4.2985    1.2728   -0.0030 C   0  0  0  0  0  0  0  0  0  0  0  0
    4.9553   -0.0465   -0.2520 C   0  0  0  0  0  0  0  0  0  0  0  0
    6.1632   -0.0718   -0.5215 O   0  0  0  0  0  0  0  0  0  0  0  0
    4.1347   -1.2641   -0.1660 C   0  0  0  0  0  0  0  0  0  0  0  0
    4.7184   -2.5587   -0.3951 C   0  0  0  0  0  0  0  0  0  0  0  0
    6.0363   -2.6848   -0.6977 N   0  0  0  0  0  0  0  0  0  0  0  0
    6.7154   -3.9332   -0.9441 C   0  0  0  0  0  0  0  0  0  0  0  0
    8.1951   -3.6640   -1.2455 C   0  0  0  0  0  0  0  0  0  0  0  0
    8.9378   -4.8668   -1.5646 N   0  0  0  0  0  0  0  0  0  0  0  0
    9.5300   -5.6692   -0.6571 C   0  0  0  0  0  0  0  0  0  0  0  0
    9.4468   -5.3437    0.6484 N   0  0  0  0  0  0  0  0  0  0  0  0
   10.0717   -6.1773    1.4576 C   0  0  0  0  0  0  0  0  0  0  0  0
   10.0102   -5.8103    3.1541 Cl  0  0  0  0  0  0  0  0  0  0  0  0
   10.7409   -7.2715    1.1142 N   0  0  0  0  0  0  0  0  0  0  0  0
   10.7476   -7.4942   -0.1987 C   0  0  0  0  0  0  0  0  0  0  0  0
   11.5975   -8.9120   -0.7325 Cl  0  0  0  0  0  0  0  0  0  0  0  0
   10.1802   -6.7564   -1.1287 N   0  0  0  0  0  0  0  0  0  0  0  0
    3.8782   -3.7015   -0.2974 C   0  0  0  0  0  0  0  0  0  0  0  0
    2.5319   -3.5763    0.0080 C   0  0  0  0  0  0  0  0  0  0  0  0
    1.9562   -2.3188    0.2305 C   0  0  0  0  0  0  0  0  0  0  0  0
    2.7498   -1.1777    0.1446 C   0  0  0  0  0  0  0  0  0  0  0  0
    1.2801    2.6590    0.7690 H   0  0  0  0  0  0  0  0  0  0  0  0
    2.6638    4.7539    0.6331 H   0  0  0  0  0  0  0  0  0  0  0  0
    5.0929    4.5924    0.0885 H   0  0  0  0  0  0  0  0  0  0  0  0
    6.1314    2.3448   -0.3185 H   0  0  0  0  0  0  0  0  0  0  0  0
    6.5438   -1.7957   -0.7287 H   0  0  0  0  0  0  0  0  0  0  0  0
    6.2626   -4.4729   -1.7990 H   0  0  0  0  0  0  0  0  0  0  0  0
    6.6511   -4.6073   -0.0697 H   0  0  0  0  0  0  0  0  0  0  0  0
    8.6620   -3.1841   -0.3732 H   0  0  0  0  0  0  0  0  0  0  0  0
    8.2797   -2.9712   -2.0979 H   0  0  0  0  0  0  0  0  0  0  0  0
    9.0127   -5.1771   -2.5270 H   0  0  0  0  0  0  0  0  0  0  0  0
    4.2999   -4.6930   -0.4629 H   0  0  0  0  0  0  0  0  0  0  0  0
    1.9148   -4.4762    0.0760 H   0  0  0  0  0  0  0  0  0  0  0  0
    0.8993   -2.2025    0.4718 H   0  0  0  0  0  0  0  0  0  0  0  0
  1  2  2  0
  2  3  1  0
  2 28  1  0
  3  4  1  0
  3  8  2  0
  4  5  2  0
  4 29  1  0
  5  6  1  0
  5 30  1  0
  6  7  2  0
  6 31  1  0
  7  8  1  0
  7 32  1  0
  8  9  1  0
  9 10  2  0
  9 11  1  0
 11 12  1  0
 11 28  2  0
 12 13  1  0
 12 25  2  0
 13 14  1  0
 13 33  1  0
 14 15  1  0
 14 34  1  0
 14 35  1  0
 15 16  1  0
 15 36  1  0
 15 37  1  0
 16 17  1  0
 16 38  1  0
 17 18  2  0
 17 24  1  0
 18 19  1  0
 19 20  1  0
 19 21  2  0
 21 22  1  0
 22 23  1  0
 22 24  2  0
 25 26  1  0
 25 39  1  0
 26 27  2  0
 26 40  1  0
 27 28  1  0
 27 41  1  0
M  END

