
     RDKit          3D

 35 37  0  0  0  0  0  0  0  0999 V2000
    1.8087    0.0087   -1.3489 O   0  0  0  0  0  0  0  0  0  0  0  0
    2.7098   -0.0363   -0.5328 C   0  0  0  0  0  0  0  0  0  0  0  0
    3.6223   -1.2593   -0.4532 C   0  0  0  0  0  0  0  0  0  0  0  0
    4.3617   -1.3512    0.8153 N   0  0  0  0  0  0  0  0  0  0  0  0
    5.2763   -2.8033    0.9531 S   0  0  1  0  0  0  0  0  0  0  0  0
    6.2531   -2.8908   -0.1354 O   0  0  0  0  0  0  0  0  0  0  0  0
    5.6845   -2.9260    2.3565 O   0  0  0  0  0  0  0  0  0  0  0  0
    4.0639   -4.0492    0.6973 C   0  0  0  0  0  0  0  0  0  0  0  0
    3.7754   -4.8646   -0.3816 C   0  0  0  0  0  0  0  0  0  0  0  0
    2.7903   -5.7450   -0.0434 N   0  0  0  0  0  0  0  0  0  0  0  0
    2.4854   -5.4810    1.2127 C   0  0  0  0  0  0  0  0  0  0  0  0
    3.2262   -4.4575    1.7123 N   0  0  0  0  0  0  0  0  0  0  0  0
    3.2444   -4.0929    2.6596 H   0  0  0  0  0  0  0  0  0  0  0  0
    5.0911   -0.0763    1.0604 C   0  0  2  0  0  0  0  0  0  0  0  0
    6.1430   -0.0851    2.1787 C   0  0  0  0  0  0  0  0  0  0  0  0
    6.7594    1.3095    2.3558 C   0  0  0  0  0  0  0  0  0  0  0  0
    5.6993    2.3822    2.6237 C   0  0  0  0  0  0  0  0  0  0  0  0
    4.6310    2.3747    1.5272 C   0  0  0  0  0  0  0  0  0  0  0  0
    4.0134    0.9802    1.3638 C   0  0  1  0  0  0  0  0  0  0  0  0
    3.0037    0.9873    0.3154 N   0  0  0  0  0  0  0  0  0  0  0  0
    4.3027   -1.2204   -1.3276 H   0  0  0  0  0  0  0  0  0  0  0  0
    2.9693   -2.1312   -0.5826 H   0  0  0  0  0  0  0  0  0  0  0  0
    4.2426   -4.8479   -1.3650 H   0  0  0  0  0  0  0  0  0  0  0  0
    1.7365   -6.0029    1.8091 H   0  0  0  0  0  0  0  0  0  0  0  0
    5.6029    0.2190    0.1206 H   0  0  0  0  0  0  0  0  0  0  0  0
    6.9334   -0.8107    1.9464 H   0  0  0  0  0  0  0  0  0  0  0  0
    5.6801   -0.4259    3.1181 H   0  0  0  0  0  0  0  0  0  0  0  0
    7.3263    1.5770    1.4457 H   0  0  0  0  0  0  0  0  0  0  0  0
    7.4928    1.2787    3.1774 H   0  0  0  0  0  0  0  0  0  0  0  0
    6.1639    3.3792    2.6920 H   0  0  0  0  0  0  0  0  0  0  0  0
    5.2223    2.1921    3.6020 H   0  0  0  0  0  0  0  0  0  0  0  0
    5.0703    2.6818    0.5616 H   0  0  0  0  0  0  0  0  0  0  0  0
    3.8313    3.1004    1.7563 H   0  0  0  0  0  0  0  0  0  0  0  0
    3.5501    0.6878    2.3271 H   0  0  0  0  0  0  0  0  0  0  0  0
    2.3652    1.7767    0.2638 H   0  0  0  0  0  0  0  0  0  0  0  0
  1  2  2  0
  2  3  1  0
  2 20  1  0
  3  4  1  0
  3 21  1  0
  3 22  1  0
  4  5  1  0
  4 14  1  0
  5  6  2  0
  5  7  2  0
  5  8  1  6
  8  9  2  0
  8 12  1  0
  9 10  1  0
  9 23  1  0
 10 11  2  0
 11 12  1  0
 11 24  1  0
 12 13  1  0
 14 15  1  0
 14 19  1  0
 14 25  1  6
 15 16  1  0
 15 26  1  0
 15 27  1  0
 16 17  1  0
 16 28  1  0
 16 29  1  0
 17 18  1  0
 17 30  1  0
 17 31  1  0
 18 19  1  0
 18 32  1  0
 18 33  1  0
 19 20  1  0
 19 34  1  1
 20 35  1  0
M  END

