
     RDKit          3D

 28 30  0  0  0  0  0  0  0  0999 V2000
    1.1108    0.1155   -0.4835 N   0  0  0  0  0  0  0  0  0  0  0  0
    2.4958    0.0857   -0.0546 C   0  0  1  0  0  0  0  0  0  0  0  0
    2.9889    1.1575    0.9435 C   0  0  0  0  0  0  0  0  0  0  0  0
    4.2679    0.5514    1.5228 C   0  0  0  0  0  0  0  0  0  0  0  0
    4.0005   -0.8886    1.4778 N   0  0  0  0  0  0  0  0  0  0  0  0
    4.8467   -1.7739    2.0692 C   0  0  0  0  0  0  0  0  0  0  0  0
    5.9487   -1.3478    2.6596 N   0  0  0  0  0  0  0  0  0  0  0  0
    6.5988   -2.4774    3.1908 O   0  0  0  0  0  0  0  0  0  0  0  0
    5.8743   -3.5642    2.9020 C   0  0  0  0  0  0  0  0  0  0  0  0
    6.1626   -4.8928    3.2475 C   0  0  0  0  0  0  0  0  0  0  0  0
    7.6047   -5.2793    4.1382 Cl  0  0  0  0  0  0  0  0  0  0  0  0
    5.2555   -5.8727    2.8535 C   0  0  0  0  0  0  0  0  0  0  0  0
    4.0895   -5.5355    2.1361 C   0  0  0  0  0  0  0  0  0  0  0  0
    3.8052   -4.2166    1.7923 C   0  0  0  0  0  0  0  0  0  0  0  0
    4.7189   -3.2207    2.1806 C   0  0  0  0  0  0  0  0  0  0  0  0
    2.8434   -1.2316    0.6665 C   0  0  0  0  0  0  0  0  0  0  0  0
    0.9322    0.9233   -1.0790 H   0  0  0  0  0  0  0  0  0  0  0  0
    0.4861    0.2011    0.3203 H   0  0  0  0  0  0  0  0  0  0  0  0
    3.1225    0.1486   -0.9620 H   0  0  0  0  0  0  0  0  0  0  0  0
    2.2304    1.2867    1.7361 H   0  0  0  0  0  0  0  0  0  0  0  0
    3.1536    2.1387    0.4729 H   0  0  0  0  0  0  0  0  0  0  0  0
    4.4872    0.8707    2.5542 H   0  0  0  0  0  0  0  0  0  0  0  0
    5.1613    0.8023    0.9198 H   0  0  0  0  0  0  0  0  0  0  0  0
    5.4616   -6.9128    3.1129 H   0  0  0  0  0  0  0  0  0  0  0  0
    3.3993   -6.3317    1.8486 H   0  0  0  0  0  0  0  0  0  0  0  0
    2.8961   -3.9759    1.2415 H   0  0  0  0  0  0  0  0  0  0  0  0
    1.9818   -1.5602    1.2830 H   0  0  0  0  0  0  0  0  0  0  0  0
    3.0605   -2.0372   -0.0530 H   0  0  0  0  0  0  0  0  0  0  0  0
  1  2  1  0
  1 17  1  0
  1 18  1  0
  2  3  1  0
  2 16  1  0
  2 19  1  6
  3  4  1  0
  3 20  1  0
  3 21  1  0
  4  5  1  0
  4 22  1  0
  4 23  1  0
  5  6  1  0
  5 16  1  0
  6  7  2  0
  6 15  1  0
  7  8  1  0
  8  9  1  0
  9 10  1  0
  9 15  2  0
 10 11  1  0
 10 12  2  0
 12 13  1  0
 12 24  1  0
 13 14  2  0
 13 25  1  0
 14 15  1  0
 14 26  1  0
 16 27  1  0
 16 28  1  0
M  END

