
     RDKit          3D

 88 93  0  0  0  0  0  0  0  0999 V2000
    2.5177    4.4719    0.4774 C   0  0  0  0  0  0  0  0  0  0  0  0
    3.8976    3.8400    0.4335 C   0  0  0  0  0  0  0  0  0  0  0  0
    3.7664    2.4970    0.0218 O   0  0  0  0  0  0  0  0  0  0  0  0
    4.9746    1.7882   -0.1882 C   0  0  1  0  0  0  0  0  0  0  0  0
    5.6279    1.3318    1.1309 C   0  0  0  0  0  0  0  0  0  0  0  0
    6.7189    0.2440    0.9051 C   0  0  1  0  0  0  0  0  0  0  0  0
    6.2117   -1.1782    1.2575 C   0  0  0  0  0  0  0  0  0  0  0  0
    5.4785   -1.6216   -0.0326 C   0  0  0  0  0  0  0  0  0  0  0  0
    5.7719   -0.4747   -1.0508 C   0  0  1  0  0  0  0  0  0  0  0  0
    4.6553    0.5967   -1.0987 C   0  0  0  0  0  0  0  0  0  0  0  0
    7.0078    0.1760   -0.5443 N   0  0  0  0  0  0  0  0  0  0  0  0
    8.2352   -0.4708   -1.0020 C   0  0  1  0  0  0  0  0  0  0  0  0
    8.2991   -0.3117   -2.4096 O   0  0  0  0  0  0  0  0  0  0  0  0
    9.5053    0.0270   -0.2706 C   0  0  1  0  0  0  0  0  0  0  0  0
   10.7690   -0.7378   -0.7311 C   0  0  0  0  0  0  0  0  0  0  0  0
   11.3980   -0.2096   -2.0310 C   0  0  0  0  0  0  0  0  0  0  0  0
   11.6680    1.3020   -1.9893 C   0  0  2  0  0  0  0  0  0  0  0  0
   12.7654    1.5912   -1.0681 N   0  0  0  0  0  0  0  0  0  0  0  0
   13.5472    2.7006   -1.1128 C   0  0  0  0  0  0  0  0  0  0  0  0
   13.2989    3.6147   -2.0679 N   0  0  0  0  0  0  0  0  0  0  0  0
   14.1138    4.6686   -2.0813 C   0  0  0  0  0  0  0  0  0  0  0  0
   15.1527    4.8590   -1.1769 C   0  0  0  0  0  0  0  0  0  0  0  0
   15.3095    3.8477   -0.2016 C   0  0  0  0  0  0  0  0  0  0  0  0
   16.3083    3.9394    0.7791 N   0  0  0  0  0  0  0  0  0  0  0  0
   17.0130    5.1139    1.0735 C   0  0  0  0  0  0  0  0  0  0  0  0
   17.9296    4.8846    2.0558 C   0  0  0  0  0  0  0  0  0  0  0  0
   17.8186    3.4969    2.4132 C   0  0  0  0  0  0  0  0  0  0  0  0
   18.5184    2.7041    3.3486 C   0  0  0  0  0  0  0  0  0  0  0  0
   19.4774    3.3434    4.0716 O   0  0  0  0  0  0  0  0  0  0  0  0
   20.2318    2.6205    5.0205 C   0  0  0  0  0  0  0  0  0  0  0  0
   21.2191    3.5895    5.6580 C   0  0  0  0  0  0  0  0  0  0  0  0
   22.0958    2.9082    6.7054 C   0  0  0  0  0  0  0  0  0  0  0  0
   23.2407    4.1335    7.4208 S   0  0  1  0  0  0  0  0  0  0  0  0
   24.2021    3.1913    8.6248 C   0  0  0  0  0  0  0  0  0  0  0  0
   24.1583    4.5624    6.3562 O   0  0  0  0  0  0  0  0  0  0  0  0
   22.4377    5.1152    8.1629 O   0  0  0  0  0  0  0  0  0  0  0  0
   18.1886    1.3528    3.4617 C   0  0  0  0  0  0  0  0  0  0  0  0
   17.1740    0.8035    2.6491 C   0  0  0  0  0  0  0  0  0  0  0  0
   16.4641    1.5588    1.7220 C   0  0  0  0  0  0  0  0  0  0  0  0
   16.7990    2.9201    1.6145 C   0  0  0  0  0  0  0  0  0  0  0  0
   14.5191    2.7827   -0.1791 N   0  0  0  0  0  0  0  0  0  0  0  0
   10.3779    2.0621   -1.6218 C   0  0  0  0  0  0  0  0  0  0  0  0
    9.7409    1.5548   -0.3193 C   0  0  0  0  0  0  0  0  0  0  0  0
    2.5825    5.5258    0.7907 H   0  0  0  0  0  0  0  0  0  0  0  0
    1.8702    3.9361    1.1889 H   0  0  0  0  0  0  0  0  0  0  0  0
    2.0417    4.4290   -0.5146 H   0  0  0  0  0  0  0  0  0  0  0  0
    4.3763    3.9082    1.4317 H   0  0  0  0  0  0  0  0  0  0  0  0
    4.5543    4.3928   -0.2712 H   0  0  0  0  0  0  0  0  0  0  0  0
    5.6939    2.4429   -0.7142 H   0  0  0  0  0  0  0  0  0  0  0  0
    4.8307    0.9457    1.7872 H   0  0  0  0  0  0  0  0  0  0  0  0
    6.0651    2.2014    1.6458 H   0  0  0  0  0  0  0  0  0  0  0  0
    7.6187    0.5095    1.4718 H   0  0  0  0  0  0  0  0  0  0  0  0
    5.5705   -1.1849    2.1517 H   0  0  0  0  0  0  0  0  0  0  0  0
    7.0663   -1.8399    1.4712 H   0  0  0  0  0  0  0  0  0  0  0  0
    4.3977   -1.7613    0.1173 H   0  0  0  0  0  0  0  0  0  0  0  0
    5.8725   -2.5802   -0.4030 H   0  0  0  0  0  0  0  0  0  0  0  0
    5.9605   -0.8674   -2.0570 H   0  0  0  0  0  0  0  0  0  0  0  0
    3.6905    0.1711   -0.7801 H   0  0  0  0  0  0  0  0  0  0  0  0
    4.5093    0.9677   -2.1254 H   0  0  0  0  0  0  0  0  0  0  0  0
    8.2054   -1.5734   -0.8649 H   0  0  0  0  0  0  0  0  0  0  0  0
    8.0505    0.6082   -2.5863 H   0  0  0  0  0  0  0  0  0  0  0  0
    9.3554   -0.2502    0.7860 H   0  0  0  0  0  0  0  0  0  0  0  0
   10.5377   -1.8106   -0.8440 H   0  0  0  0  0  0  0  0  0  0  0  0
   11.5113   -0.6864    0.0868 H   0  0  0  0  0  0  0  0  0  0  0  0
   10.7096   -0.4070   -2.8644 H   0  0  0  0  0  0  0  0  0  0  0  0
   12.3369   -0.7485   -2.2437 H   0  0  0  0  0  0  0  0  0  0  0  0
   11.9952    1.6453   -2.9822 H   0  0  0  0  0  0  0  0  0  0  0  0
   12.9765    0.9462   -0.3170 H   0  0  0  0  0  0  0  0  0  0  0  0
   13.9331    5.4132   -2.8661 H   0  0  0  0  0  0  0  0  0  0  0  0
   15.8068    5.7242   -1.2514 H   0  0  0  0  0  0  0  0  0  0  0  0
   16.7703    6.0429    0.5679 H   0  0  0  0  0  0  0  0  0  0  0  0
   18.6047    5.6162    2.4921 H   0  0  0  0  0  0  0  0  0  0  0  0
   20.7671    1.7837    4.5308 H   0  0  0  0  0  0  0  0  0  0  0  0
   19.5659    2.1807    5.7885 H   0  0  0  0  0  0  0  0  0  0  0  0
   20.6658    4.4180    6.1268 H   0  0  0  0  0  0  0  0  0  0  0  0
   21.8576    4.0271    4.8750 H   0  0  0  0  0  0  0  0  0  0  0  0
   22.7202    2.1103    6.2732 H   0  0  0  0  0  0  0  0  0  0  0  0
   21.5076    2.5021    7.5434 H   0  0  0  0  0  0  0  0  0  0  0  0
   24.7607    2.3981    8.1108 H   0  0  0  0  0  0  0  0  0  0  0  0
   23.5337    2.7914    9.3985 H   0  0  0  0  0  0  0  0  0  0  0  0
   24.8950    3.9238    9.0614 H   0  0  0  0  0  0  0  0  0  0  0  0
   18.7054    0.7074    4.1719 H   0  0  0  0  0  0  0  0  0  0  0  0
   16.9375   -0.2581    2.7591 H   0  0  0  0  0  0  0  0  0  0  0  0
   15.6785    1.1276    1.1100 H   0  0  0  0  0  0  0  0  0  0  0  0
    9.6775    1.9583   -2.4668 H   0  0  0  0  0  0  0  0  0  0  0  0
   10.6068    3.1360   -1.5426 H   0  0  0  0  0  0  0  0  0  0  0  0
    8.7950    2.0873   -0.1347 H   0  0  0  0  0  0  0  0  0  0  0  0
   10.4119    1.8210    0.5162 H   0  0  0  0  0  0  0  0  0  0  0  0
  1  2  1  0
  1 44  1  0
  1 45  1  0
  1 46  1  0
  2  3  1  0
  2 47  1  0
  2 48  1  0
  3  4  1  0
  4  5  1  0
  4 10  1  0
  4 49  1  6
  5  6  1  0
  5 50  1  0
  5 51  1  0
  6  7  1  0
  6 11  1  0
  6 52  1  1
  7  8  1  0
  7 53  1  0
  7 54  1  0
  8  9  1  0
  8 55  1  0
  8 56  1  0
  9 10  1  0
  9 11  1  0
  9 57  1  6
 10 58  1  0
 10 59  1  0
 11 12  1  0
 12 13  1  0
 12 14  1  0
 12 60  1  6
 13 61  1  0
 14 15  1  0
 14 43  1  0
 14 62  1  1
 15 16  1  0
 15 63  1  0
 15 64  1  0
 16 17  1  0
 16 65  1  0
 16 66  1  0
 17 18  1  0
 17 42  1  0
 17 67  1  6
 18 19  1  0
 18 68  1  0
 19 20  2  0
 19 41  1  0
 20 21  1  0
 21 22  2  0
 21 69  1  0
 22 23  1  0
 22 70  1  0
 23 24  1  0
 23 41  2  0
 24 25  1  0
 24 40  1  0
 25 26  2  0
 25 71  1  0
 26 27  1  0
 26 72  1  0
 27 28  1  0
 27 40  2  0
 28 29  1  0
 28 37  2  0
 29 30  1  0
 30 31  1  0
 30 73  1  0
 30 74  1  0
 31 32  1  0
 31 75  1  0
 31 76  1  0
 33 32  1  6
 32 77  1  0
 32 78  1  0
 33 34  1  0
 33 35  2  0
 33 36  2  0
 34 79  1  0
 34 80  1  0
 34 81  1  0
 37 38  1  0
 37 82  1  0
 38 39  2  0
 38 83  1  0
 39 40  1  0
 39 84  1  0
 42 43  1  0
 42 85  1  0
 42 86  1  0
 43 87  1  0
 43 88  1  0
M  END

