
     RDKit          3D

 44 44  0  0  0  0  0  0  0  0999 V2000
    1.8565    0.5912    1.3428 C   0  0  0  0  0  0  0  0  0  0  0  0
    3.0121    0.4175    0.5545 O   0  0  0  0  0  0  0  0  0  0  0  0
    3.2207    1.2252   -0.5085 C   0  0  0  0  0  0  0  0  0  0  0  0
    2.3524    2.2509   -0.9105 C   0  0  0  0  0  0  0  0  0  0  0  0
    2.6470    3.0365   -2.0301 C   0  0  0  0  0  0  0  0  0  0  0  0
    3.8112    2.8343   -2.7762 C   0  0  0  0  0  0  0  0  0  0  0  0
    4.1527    3.7115   -3.9635 C   0  0  0  0  0  0  0  0  0  0  0  0
    4.7126    2.9546   -5.0708 N   0  0  0  0  0  0  0  0  0  0  0  0
    5.0648    3.7593   -6.2286 C   0  0  0  0  0  0  0  0  0  0  0  0
    5.7563    2.9632   -7.3596 C   0  0  1  0  0  0  0  0  0  0  0  0
    7.0660    2.3415   -6.8488 C   0  0  0  0  0  0  0  0  0  0  0  0
    4.8303    1.8528   -7.8865 C   0  0  0  0  0  0  0  0  0  0  0  0
    6.0461    3.9745   -8.5041 C   0  0  0  0  0  0  0  0  0  0  0  0
    6.7014    3.4029   -9.6794 N   0  0  0  0  0  0  0  0  0  0  0  0
    5.9354    3.5061  -10.9059 C   0  0  0  0  0  0  0  0  0  0  0  0
    8.0817    3.8105   -9.8553 C   0  0  0  0  0  0  0  0  0  0  0  0
    4.6808    1.8046   -2.3776 C   0  0  0  0  0  0  0  0  0  0  0  0
    4.3927    1.0156   -1.2690 C   0  0  0  0  0  0  0  0  0  0  0  0
    5.5954   -0.3723   -0.7631 Br  0  0  0  0  0  0  0  0  0  0  0  0
    1.9068   -0.1651    2.1373 H   0  0  0  0  0  0  0  0  0  0  0  0
    0.9322    0.4352    0.7577 H   0  0  0  0  0  0  0  0  0  0  0  0
    1.8207    1.5944    1.8047 H   0  0  0  0  0  0  0  0  0  0  0  0
    1.4334    2.4389   -0.3550 H   0  0  0  0  0  0  0  0  0  0  0  0
    1.9463    3.8237   -2.3225 H   0  0  0  0  0  0  0  0  0  0  0  0
    4.9065    4.4633   -3.6596 H   0  0  0  0  0  0  0  0  0  0  0  0
    3.2484    4.2983   -4.2446 H   0  0  0  0  0  0  0  0  0  0  0  0
    4.0654    2.2131   -5.3353 H   0  0  0  0  0  0  0  0  0  0  0  0
    5.7521    4.5542   -5.8848 H   0  0  0  0  0  0  0  0  0  0  0  0
    4.1813    4.2900   -6.6569 H   0  0  0  0  0  0  0  0  0  0  0  0
    6.8694    1.6606   -6.0083 H   0  0  0  0  0  0  0  0  0  0  0  0
    7.7624    3.1179   -6.4891 H   0  0  0  0  0  0  0  0  0  0  0  0
    7.5637    1.7767   -7.6515 H   0  0  0  0  0  0  0  0  0  0  0  0
    4.6614    1.0693   -7.1301 H   0  0  0  0  0  0  0  0  0  0  0  0
    5.2877    1.3699   -8.7632 H   0  0  0  0  0  0  0  0  0  0  0  0
    3.8478    2.2544   -8.1900 H   0  0  0  0  0  0  0  0  0  0  0  0
    6.6557    4.8025   -8.0920 H   0  0  0  0  0  0  0  0  0  0  0  0
    5.0877    4.4360   -8.8045 H   0  0  0  0  0  0  0  0  0  0  0  0
    4.9270    3.0871  -10.7684 H   0  0  0  0  0  0  0  0  0  0  0  0
    6.4255    2.9285  -11.7069 H   0  0  0  0  0  0  0  0  0  0  0  0
    5.8205    4.5533  -11.2732 H   0  0  0  0  0  0  0  0  0  0  0  0
    8.6599    3.6280   -8.9380 H   0  0  0  0  0  0  0  0  0  0  0  0
    8.1942    4.8891  -10.1177 H   0  0  0  0  0  0  0  0  0  0  0  0
    8.5499    3.2236  -10.6625 H   0  0  0  0  0  0  0  0  0  0  0  0
    5.5877    1.6190   -2.9545 H   0  0  0  0  0  0  0  0  0  0  0  0
  1  2  1  0
  1 20  1  0
  1 21  1  0
  1 22  1  0
  2  3  1  0
  3  4  2  0
  3 18  1  0
  4  5  1  0
  4 23  1  0
  5  6  2  0
  5 24  1  0
  6  7  1  0
  6 17  1  0
  7  8  1  0
  7 25  1  0
  7 26  1  0
  8  9  1  0
  8 27  1  0
 10  9  1  1
  9 28  1  0
  9 29  1  0
 10 11  1  0
 10 12  1  0
 10 13  1  0
 11 30  1  0
 11 31  1  0
 11 32  1  0
 12 33  1  0
 12 34  1  0
 12 35  1  0
 13 14  1  0
 13 36  1  0
 13 37  1  0
 14 15  1  0
 14 16  1  0
 15 38  1  0
 15 39  1  0
 15 40  1  0
 16 41  1  0
 16 42  1  0
 16 43  1  0
 17 18  2  0
 17 44  1  0
 18 19  1  0
M  END

