
     RDKit          3D

130138  0  0  0  0  0  0  0  0999 V2000
   24.3168   -4.0226   -4.4049 C   0  0  0  0  0  0  0  0  0  0  0  0
   23.2099   -3.6013   -4.1358 C   0  0  0  0  0  0  0  0  0  0  0  0
   21.9043   -3.1048   -3.8186 C   0  0  0  0  0  0  0  0  0  0  0  0
   20.8339   -3.2580   -4.7228 C   0  0  0  0  0  0  0  0  0  0  0  0
   19.5654   -2.7737   -4.4087 C   0  0  0  0  0  0  0  0  0  0  0  0
   19.3141   -2.1212   -3.1876 C   0  0  0  0  0  0  0  0  0  0  0  0
   17.9522   -1.5963   -2.8535 C   0  0  0  0  0  0  0  0  0  0  0  0
   16.9292   -2.5374   -2.6890 C   0  0  0  0  0  0  0  0  0  0  0  0
   17.1025   -3.9748   -2.7140 C   0  0  0  0  0  0  0  0  0  0  0  0
   15.8917   -4.5598   -2.4899 C   0  0  0  0  0  0  0  0  0  0  0  0
   14.9053   -3.5158   -2.3128 C   0  0  0  0  0  0  0  0  0  0  0  0
   15.5860   -2.3194   -2.4409 N   0  0  0  0  0  0  0  0  0  0  0  0
   15.1500   -1.4023   -2.3678 H   0  0  0  0  0  0  0  0  0  0  0  0
   13.5510   -3.7216   -2.0225 C   0  0  0  0  0  0  0  0  0  0  0  0
   13.0712   -5.1405   -1.9877 C   0  0  0  0  0  0  0  0  0  0  0  0
   12.6669   -5.7395   -0.7802 C   0  0  0  0  0  0  0  0  0  0  0  0
   12.2177   -7.0577   -0.7427 C   0  0  0  0  0  0  0  0  0  0  0  0
   12.1549   -7.8289   -1.9217 C   0  0  0  0  0  0  0  0  0  0  0  0
   11.6933   -9.1845   -1.8878 C   0  0  0  0  0  0  0  0  0  0  0  0
   11.3021  -10.3339   -1.8589 C   0  0  0  0  0  0  0  0  0  0  0  0
   12.5575   -7.2332   -3.1341 C   0  0  0  0  0  0  0  0  0  0  0  0
   13.0060   -5.9138   -3.1611 C   0  0  0  0  0  0  0  0  0  0  0  0
   12.5978   -2.6908   -1.7375 C   0  0  0  0  0  0  0  0  0  0  0  0
   12.8739   -1.3784   -1.7185 N   0  0  0  0  0  0  0  0  0  0  0  0
   11.6989   -0.7348   -1.4050 C   0  0  0  0  0  0  0  0  0  0  0  0
   11.5524    0.6506   -1.2560 C   0  0  0  0  0  0  0  0  0  0  0  0
   10.2072    1.2378   -0.9773 C   0  0  0  0  0  0  0  0  0  0  0  0
    9.9944    2.0101    0.1738 C   0  0  0  0  0  0  0  0  0  0  0  0
    8.7437    2.5918    0.4519 C   0  0  0  0  0  0  0  0  0  0  0  0
    8.5576    3.4170    1.7423 C   0  0  1  0  0  0  0  0  0  0  0  0
    9.5465    4.6060    1.7389 C   0  0  0  0  0  0  0  0  0  0  0  0
    7.1317    3.9811    1.8762 C   0  0  0  0  0  0  0  0  0  0  0  0
    8.8387    2.5191    2.9697 C   0  0  0  0  0  0  0  0  0  0  0  0
    7.7108    2.3787   -0.4694 C   0  0  0  0  0  0  0  0  0  0  0  0
    7.8811    1.6136   -1.6410 C   0  0  0  0  0  0  0  0  0  0  0  0
    6.6943    1.4291   -2.6095 C   0  0  1  0  0  0  0  0  0  0  0  0
    6.2288    2.8114   -3.1230 C   0  0  0  0  0  0  0  0  0  0  0  0
    7.0654    0.5644   -3.8279 C   0  0  0  0  0  0  0  0  0  0  0  0
    5.5279    0.7377   -1.8656 C   0  0  0  0  0  0  0  0  0  0  0  0
    9.1397    1.0514   -1.8780 C   0  0  0  0  0  0  0  0  0  0  0  0
   12.6549    1.5533   -1.3929 C   0  0  0  0  0  0  0  0  0  0  0  0
   14.0128    1.3259   -1.5946 C   0  0  0  0  0  0  0  0  0  0  0  0
   14.6627    2.5732   -1.7859 C   0  0  0  0  0  0  0  0  0  0  0  0
   13.6542    3.5600   -1.6496 C   0  0  0  0  0  0  0  0  0  0  0  0
   12.4807    2.9472   -1.4266 N   0  0  0  0  0  0  0  0  0  0  0  0
   11.5850    3.4086   -1.3152 H   0  0  0  0  0  0  0  0  0  0  0  0
   16.0478    2.8227   -2.0975 C   0  0  0  0  0  0  0  0  0  0  0  0
   16.5048    4.2468   -2.1589 C   0  0  0  0  0  0  0  0  0  0  0  0
   16.0452    5.1026   -3.1669 C   0  0  0  0  0  0  0  0  0  0  0  0
   16.4599    6.4453   -3.2383 C   0  0  0  0  0  0  0  0  0  0  0  0
   15.9419    7.3431   -4.3816 C   0  0  1  0  0  0  0  0  0  0  0  0
   14.3980    7.4095   -4.3259 C   0  0  0  0  0  0  0  0  0  0  0  0
   16.4853    8.7804   -4.2904 C   0  0  0  0  0  0  0  0  0  0  0  0
   16.3808    6.7467   -5.7393 C   0  0  0  0  0  0  0  0  0  0  0  0
   17.3471    6.9035   -2.2566 C   0  0  0  0  0  0  0  0  0  0  0  0
   17.8329    6.0764   -1.2243 C   0  0  0  0  0  0  0  0  0  0  0  0
   18.8094    6.6555   -0.1793 C   0  0  1  0  0  0  0  0  0  0  0  0
   18.1313    7.8298    0.5639 C   0  0  0  0  0  0  0  0  0  0  0  0
   19.2333    5.6076    0.8659 C   0  0  0  0  0  0  0  0  0  0  0  0
   20.0830    7.1661   -0.8924 C   0  0  0  0  0  0  0  0  0  0  0  0
   17.3994    4.7465   -1.1941 C   0  0  0  0  0  0  0  0  0  0  0  0
   16.9619    1.8033   -2.3661 C   0  0  0  0  0  0  0  0  0  0  0  0
   18.3501    2.0200   -2.7811 C   0  0  0  0  0  0  0  0  0  0  0  0
   18.8803    0.7902   -3.0038 C   0  0  0  0  0  0  0  0  0  0  0  0
   17.8079   -0.1743   -2.7195 C   0  0  0  0  0  0  0  0  0  0  0  0
   16.6839    0.4499   -2.3488 N   0  0  0  0  0  0  0  0  0  0  0  0
   10.6270   -1.7141   -1.2176 C   0  0  0  0  0  0  0  0  0  0  0  0
   11.1826   -2.9355   -1.4337 C   0  0  0  0  0  0  0  0  0  0  0  0
   20.3875   -1.9676   -2.2900 C   0  0  0  0  0  0  0  0  0  0  0  0
   21.6585   -2.4498   -2.5941 C   0  0  0  0  0  0  0  0  0  0  0  0
   25.2952   -4.3950   -4.6427 H   0  0  0  0  0  0  0  0  0  0  0  0
   21.0094   -3.7563   -5.6785 H   0  0  0  0  0  0  0  0  0  0  0  0
   18.7506   -2.8919   -5.1269 H   0  0  0  0  0  0  0  0  0  0  0  0
   18.0549   -4.4765   -2.8588 H   0  0  0  0  0  0  0  0  0  0  0  0
   15.6805   -5.6231   -2.4206 H   0  0  0  0  0  0  0  0  0  0  0  0
   12.7157   -5.1599    0.1446 H   0  0  0  0  0  0  0  0  0  0  0  0
   11.9150   -7.5070    0.2055 H   0  0  0  0  0  0  0  0  0  0  0  0
   10.9567  -11.3501   -1.8336 H   0  0  0  0  0  0  0  0  0  0  0  0
   12.5098   -7.8153   -4.0568 H   0  0  0  0  0  0  0  0  0  0  0  0
   13.3055   -5.4656   -4.1115 H   0  0  0  0  0  0  0  0  0  0  0  0
   10.8213    2.1304    0.8773 H   0  0  0  0  0  0  0  0  0  0  0  0
    9.3620    5.2705    0.8791 H   0  0  0  0  0  0  0  0  0  0  0  0
   10.5940    4.2709    1.6897 H   0  0  0  0  0  0  0  0  0  0  0  0
    9.4342    5.2042    2.6579 H   0  0  0  0  0  0  0  0  0  0  0  0
    6.8735    4.6530    1.0426 H   0  0  0  0  0  0  0  0  0  0  0  0
    7.0481    4.5637    2.8071 H   0  0  0  0  0  0  0  0  0  0  0  0
    6.3753    3.1821    1.9193 H   0  0  0  0  0  0  0  0  0  0  0  0
    9.8640    2.1195    2.9621 H   0  0  0  0  0  0  0  0  0  0  0  0
    8.1464    1.6629    2.9986 H   0  0  0  0  0  0  0  0  0  0  0  0
    8.7110    3.0922    3.9028 H   0  0  0  0  0  0  0  0  0  0  0  0
    6.7335    2.8197   -0.2782 H   0  0  0  0  0  0  0  0  0  0  0  0
    7.0400    3.3260   -3.6625 H   0  0  0  0  0  0  0  0  0  0  0  0
    5.9021    3.4682   -2.3024 H   0  0  0  0  0  0  0  0  0  0  0  0
    5.3791    2.6978   -3.8162 H   0  0  0  0  0  0  0  0  0  0  0  0
    7.8727    1.0175   -4.4243 H   0  0  0  0  0  0  0  0  0  0  0  0
    6.1899    0.4556   -4.4871 H   0  0  0  0  0  0  0  0  0  0  0  0
    7.3852   -0.4472   -3.5338 H   0  0  0  0  0  0  0  0  0  0  0  0
    5.1787    1.3284   -1.0050 H   0  0  0  0  0  0  0  0  0  0  0  0
    5.8301   -0.2534   -1.4916 H   0  0  0  0  0  0  0  0  0  0  0  0
    4.6695    0.5980   -2.5431 H   0  0  0  0  0  0  0  0  0  0  0  0
    9.3277    0.4635   -2.7750 H   0  0  0  0  0  0  0  0  0  0  0  0
   14.4859    0.3601   -1.5945 H   0  0  0  0  0  0  0  0  0  0  0  0
   13.7291    4.6433   -1.7107 H   0  0  0  0  0  0  0  0  0  0  0  0
   15.3678    4.6973   -3.9215 H   0  0  0  0  0  0  0  0  0  0  0  0
   14.0557    7.8376   -3.3698 H   0  0  0  0  0  0  0  0  0  0  0  0
   13.9391    6.4148   -4.4345 H   0  0  0  0  0  0  0  0  0  0  0  0
   14.0093    8.0438   -5.1396 H   0  0  0  0  0  0  0  0  0  0  0  0
   16.1880    9.2749   -3.3523 H   0  0  0  0  0  0  0  0  0  0  0  0
   16.0864    9.3827   -5.1219 H   0  0  0  0  0  0  0  0  0  0  0  0
   17.5838    8.8103   -4.3602 H   0  0  0  0  0  0  0  0  0  0  0  0
   15.9856    5.7307   -5.8896 H   0  0  0  0  0  0  0  0  0  0  0  0
   17.4787    6.6915   -5.8089 H   0  0  0  0  0  0  0  0  0  0  0  0
   16.0177    7.3730   -6.5710 H   0  0  0  0  0  0  0  0  0  0  0  0
   17.6817    7.9395   -2.2888 H   0  0  0  0  0  0  0  0  0  0  0  0
   17.2219    7.4933    1.0870 H   0  0  0  0  0  0  0  0  0  0  0  0
   17.8425    8.6404   -0.1224 H   0  0  0  0  0  0  0  0  0  0  0  0
   18.8165    8.2576    1.3144 H   0  0  0  0  0  0  0  0  0  0  0  0
   18.3729    5.2220    1.4346 H   0  0  0  0  0  0  0  0  0  0  0  0
   19.9293    6.0627    1.5881 H   0  0  0  0  0  0  0  0  0  0  0  0
   19.7490    4.7511    0.4047 H   0  0  0  0  0  0  0  0  0  0  0  0
   19.8572    7.9563   -1.6245 H   0  0  0  0  0  0  0  0  0  0  0  0
   20.5903    6.3481   -1.4282 H   0  0  0  0  0  0  0  0  0  0  0  0
   20.7929    7.5844   -0.1598 H   0  0  0  0  0  0  0  0  0  0  0  0
   17.7416    4.0655   -0.4159 H   0  0  0  0  0  0  0  0  0  0  0  0
   18.8352    2.9854   -2.9056 H   0  0  0  0  0  0  0  0  0  0  0  0
   19.8837    0.5539   -3.3501 H   0  0  0  0  0  0  0  0  0  0  0  0
    9.5979   -1.4942   -0.9432 H   0  0  0  0  0  0  0  0  0  0  0  0
   10.6892   -3.9037   -1.3937 H   0  0  0  0  0  0  0  0  0  0  0  0
   20.2148   -1.4687   -1.3336 H   0  0  0  0  0  0  0  0  0  0  0  0
   22.4762   -2.3280   -1.8806 H   0  0  0  0  0  0  0  0  0  0  0  0
  1  2  3  0
  1 71  1  0
  2  3  1  0
  3  4  2  0
  3 70  1  0
  4  5  1  0
  4 72  1  0
  5  6  2  0
  5 73  1  0
  6  7  1  0
  6 69  1  0
  7  8  2  0
  7 65  1  0
  8  9  1  0
  8 12  1  0
  9 10  2  0
  9 74  1  0
 10 11  1  0
 10 75  1  0
 11 12  1  0
 11 14  2  0
 12 13  1  0
 14 15  1  0
 14 23  1  0
 15 16  2  0
 15 22  1  0
 16 17  1  0
 16 76  1  0
 17 18  2  0
 17 77  1  0
 18 19  1  0
 18 21  1  0
 19 20  3  0
 20 78  1  0
 21 22  2  0
 21 79  1  0
 22 80  1  0
 23 24  2  0
 23 68  1  0
 24 25  1  0
 25 26  2  0
 25 67  1  0
 26 27  1  0
 26 41  1  0
 27 28  2  0
 27 40  1  0
 28 29  1  0
 28 81  1  0
 29 30  1  0
 29 34  2  0
 30 31  1  6
 30 32  1  0
 30 33  1  0
 31 82  1  0
 31 83  1  0
 31 84  1  0
 32 85  1  0
 32 86  1  0
 32 87  1  0
 33 88  1  0
 33 89  1  0
 33 90  1  0
 34 35  1  0
 34 91  1  0
 35 36  1  0
 35 40  2  0
 36 37  1  6
 36 38  1  0
 36 39  1  0
 37 92  1  0
 37 93  1  0
 37 94  1  0
 38 95  1  0
 38 96  1  0
 38 97  1  0
 39 98  1  0
 39 99  1  0
 39100  1  0
 40101  1  0
 41 42  2  0
 41 45  1  0
 42 43  1  0
 42102  1  0
 43 44  2  0
 43 47  1  0
 44 45  1  0
 44103  1  0
 45 46  1  0
 47 48  1  0
 47 62  2  0
 48 49  2  0
 48 61  1  0
 49 50  1  0
 49104  1  0
 50 51  1  0
 50 55  2  0
 51 52  1  6
 51 53  1  0
 51 54  1  0
 52105  1  0
 52106  1  0
 52107  1  0
 53108  1  0
 53109  1  0
 53110  1  0
 54111  1  0
 54112  1  0
 54113  1  0
 55 56  1  0
 55114  1  0
 56 57  1  0
 56 61  2  0
 57 58  1  1
 57 59  1  0
 57 60  1  0
 58115  1  0
 58116  1  0
 58117  1  0
 59118  1  0
 59119  1  0
 59120  1  0
 60121  1  0
 60122  1  0
 60123  1  0
 61124  1  0
 62 63  1  0
 62 66  1  0
 63 64  2  0
 63125  1  0
 64 65  1  0
 64126  1  0
 65 66  2  0
 67 68  2  0
 67127  1  0
 68128  1  0
 69 70  2  0
 69129  1  0
 70130  1  0
M  END

