
     RDKit          3D

 41 42  0  0  0  0  0  0  0  0999 V2000
    2.9501    1.1289   -0.7226 C   0  0  0  0  0  0  0  0  0  0  0  0
    2.6040   -0.3063   -0.2909 C   0  0  1  0  0  0  0  0  0  0  0  0
    1.1164   -0.5425   -0.0109 C   0  0  0  0  0  0  0  0  0  0  0  0
    0.7186   -1.7931    0.4948 C   0  0  0  0  0  0  0  0  0  0  0  0
   -0.6250   -2.0300    0.7833 C   0  0  0  0  0  0  0  0  0  0  0  0
   -1.5923   -1.0444    0.5763 C   0  0  0  0  0  0  0  0  0  0  0  0
   -1.2168    0.2125    0.0709 C   0  0  0  0  0  0  0  0  0  0  0  0
   -2.1527    1.2266   -0.0967 N   0  0  0  0  0  0  0  0  0  0  0  0
    0.1460    0.4429   -0.2169 C   0  0  0  0  0  0  0  0  0  0  0  0
    3.1314   -1.3448   -1.1987 N   0  0  0  0  0  0  0  0  0  0  0  0
    2.5551   -1.3504   -2.5356 C   0  0  0  0  0  0  0  0  0  0  0  0
    4.5698   -1.4934   -1.1792 C   0  0  0  0  0  0  0  0  0  0  0  0
    5.0647   -2.9493   -1.1871 C   0  0  1  0  0  0  0  0  0  0  0  0
    4.6788   -3.5545   -2.3573 F   0  0  0  0  0  0  0  0  0  0  0  0
    6.4365   -2.8854   -1.2247 F   0  0  0  0  0  0  0  0  0  0  0  0
    4.6325   -3.8000   -0.0112 C   0  0  0  0  0  0  0  0  0  0  0  0
    3.4700   -4.5777   -0.0844 C   0  0  0  0  0  0  0  0  0  0  0  0
    3.0647   -5.3369    1.0166 C   0  0  0  0  0  0  0  0  0  0  0  0
    3.8163   -5.3243    2.1957 C   0  0  0  0  0  0  0  0  0  0  0  0
    4.9798   -4.5526    2.2691 C   0  0  0  0  0  0  0  0  0  0  0  0
    5.3883   -3.7940    1.1691 C   0  0  0  0  0  0  0  0  0  0  0  0
    2.6457    1.8577    0.0439 H   0  0  0  0  0  0  0  0  0  0  0  0
    2.4632    1.4110   -1.6687 H   0  0  0  0  0  0  0  0  0  0  0  0
    4.0372    1.2347   -0.8641 H   0  0  0  0  0  0  0  0  0  0  0  0
    3.1150   -0.4832    0.6719 H   0  0  0  0  0  0  0  0  0  0  0  0
    1.4661   -2.5724    0.6500 H   0  0  0  0  0  0  0  0  0  0  0  0
   -0.9312   -3.0026    1.1787 H   0  0  0  0  0  0  0  0  0  0  0  0
   -2.6423   -1.2433    0.8098 H   0  0  0  0  0  0  0  0  0  0  0  0
   -3.1194    0.9350   -0.1832 H   0  0  0  0  0  0  0  0  0  0  0  0
   -1.9055    1.9642   -0.7463 H   0  0  0  0  0  0  0  0  0  0  0  0
    0.4286    1.4234   -0.6053 H   0  0  0  0  0  0  0  0  0  0  0  0
    1.4576   -1.3341   -2.4691 H   0  0  0  0  0  0  0  0  0  0  0  0
    2.8498   -2.2653   -3.0659 H   0  0  0  0  0  0  0  0  0  0  0  0
    2.8770   -0.4878   -3.1597 H   0  0  0  0  0  0  0  0  0  0  0  0
    4.9808   -1.0437   -0.2629 H   0  0  0  0  0  0  0  0  0  0  0  0
    5.0781   -0.9980   -2.0340 H   0  0  0  0  0  0  0  0  0  0  0  0
    2.8887   -4.5915   -1.0070 H   0  0  0  0  0  0  0  0  0  0  0  0
    2.1584   -5.9443    0.9514 H   0  0  0  0  0  0  0  0  0  0  0  0
    3.4977   -5.9191    3.0556 H   0  0  0  0  0  0  0  0  0  0  0  0
    5.5767   -4.5457    3.1846 H   0  0  0  0  0  0  0  0  0  0  0  0
    6.3060   -3.2045    1.2199 H   0  0  0  0  0  0  0  0  0  0  0  0
  1  2  1  0
  1 22  1  0
  1 23  1  0
  1 24  1  0
  2  3  1  0
  2 10  1  0
  2 25  1  1
  3  4  2  0
  3  9  1  0
  4  5  1  0
  4 26  1  0
  5  6  2  0
  5 27  1  0
  6  7  1  0
  6 28  1  0
  7  8  1  0
  7  9  2  0
  8 29  1  0
  8 30  1  0
  9 31  1  0
 10 11  1  0
 10 12  1  0
 11 32  1  0
 11 33  1  0
 11 34  1  0
 12 13  1  0
 12 35  1  0
 12 36  1  0
 13 14  1  6
 13 15  1  0
 13 16  1  0
 16 17  2  0
 16 21  1  0
 17 18  1  0
 17 37  1  0
 18 19  2  0
 18 38  1  0
 19 20  1  0
 19 39  1  0
 20 21  2  0
 20 40  1  0
 21 41  1  0
M  END

