
     RDKit          3D

 39 40  0  0  0  0  0  0  0  0999 V2000
    3.6795    0.5394   -0.5308 C   0  0  0  0  0  0  0  0  0  0  0  0
    3.0379   -0.3050    0.5463 C   0  0  0  0  0  0  0  0  0  0  0  0
    2.8118    0.2619    1.8147 C   0  0  0  0  0  0  0  0  0  0  0  0
    2.2237   -0.4310    2.8693 C   0  0  0  0  0  0  0  0  0  0  0  0
    1.8361   -1.7758    2.7143 C   0  0  0  0  0  0  0  0  0  0  0  0
    1.1795   -2.4659    3.7152 N   0  0  0  0  0  0  0  0  0  0  0  0
    2.0938   -2.3832    1.4734 C   0  0  0  0  0  0  0  0  0  0  0  0
    2.6514   -1.6576    0.4170 C   0  0  0  0  0  0  0  0  0  0  0  0
    2.7820   -2.5980   -1.1280 S   0  0  1  0  0  0  0  0  0  0  0  0
    3.6032   -1.8457   -2.0788 O   0  0  0  0  0  0  0  0  0  0  0  0
    3.1074   -3.9799   -0.7720 O   0  0  0  0  0  0  0  0  0  0  0  0
    1.2274   -2.6511   -1.7888 N   0  0  0  0  0  0  0  0  0  0  0  0
    0.7295   -1.5450   -2.5948 C   0  0  0  0  0  0  0  0  0  0  0  0
   -0.3407   -0.6942   -1.9031 C   0  0  0  0  0  0  0  0  0  0  0  0
   -1.5616   -1.4963   -1.4316 C   0  0  0  0  0  0  0  0  0  0  0  0
   -1.3605   -2.2942   -0.2201 N   0  0  0  0  0  0  0  0  0  0  0  0
   -2.1077   -1.9125    0.9702 C   0  0  0  0  0  0  0  0  0  0  0  0
   -0.5724   -3.4148   -0.1709 C   0  0  0  0  0  0  0  0  0  0  0  0
   -0.5243   -4.1486    0.8075 O   0  0  0  0  0  0  0  0  0  0  0  0
    0.3064   -3.7098   -1.4007 C   0  0  0  0  0  0  0  0  0  0  0  0
    3.9154    1.5355   -0.1282 H   0  0  0  0  0  0  0  0  0  0  0  0
    3.0247    0.6754   -1.4054 H   0  0  0  0  0  0  0  0  0  0  0  0
    4.6031    0.0839   -0.9136 H   0  0  0  0  0  0  0  0  0  0  0  0
    3.1106    1.3016    1.9755 H   0  0  0  0  0  0  0  0  0  0  0  0
    2.0561    0.0759    3.8238 H   0  0  0  0  0  0  0  0  0  0  0  0
    1.3176   -2.1621    4.6709 H   0  0  0  0  0  0  0  0  0  0  0  0
    1.0728   -3.4661    3.5976 H   0  0  0  0  0  0  0  0  0  0  0  0
    1.8329   -3.4317    1.3290 H   0  0  0  0  0  0  0  0  0  0  0  0
    0.3085   -1.9705   -3.5266 H   0  0  0  0  0  0  0  0  0  0  0  0
    1.5881   -0.9311   -2.8977 H   0  0  0  0  0  0  0  0  0  0  0  0
   -0.6852    0.0698   -2.6218 H   0  0  0  0  0  0  0  0  0  0  0  0
    0.0941   -0.1576   -1.0434 H   0  0  0  0  0  0  0  0  0  0  0  0
   -1.9254   -2.1377   -2.2560 H   0  0  0  0  0  0  0  0  0  0  0  0
   -2.3840   -0.8008   -1.2123 H   0  0  0  0  0  0  0  0  0  0  0  0
   -3.1876   -2.1176    0.8560 H   0  0  0  0  0  0  0  0  0  0  0  0
   -1.9760   -0.8377    1.1755 H   0  0  0  0  0  0  0  0  0  0  0  0
   -1.7284   -2.4910    1.8204 H   0  0  0  0  0  0  0  0  0  0  0  0
   -0.3308   -3.9378   -2.2743 H   0  0  0  0  0  0  0  0  0  0  0  0
    0.8753   -4.6147   -1.1593 H   0  0  0  0  0  0  0  0  0  0  0  0
  1  2  1  0
  1 21  1  0
  1 22  1  0
  1 23  1  0
  2  3  2  0
  2  8  1  0
  3  4  1  0
  3 24  1  0
  4  5  2  0
  4 25  1  0
  5  6  1  0
  5  7  1  0
  6 26  1  0
  6 27  1  0
  7  8  2  0
  7 28  1  0
  9  8  1  1
  9 10  2  0
  9 11  2  0
  9 12  1  0
 12 13  1  0
 12 20  1  0
 13 14  1  0
 13 29  1  0
 13 30  1  0
 14 15  1  0
 14 31  1  0
 14 32  1  0
 15 16  1  0
 15 33  1  0
 15 34  1  0
 16 17  1  0
 16 18  1  0
 17 35  1  0
 17 36  1  0
 17 37  1  0
 18 19  2  0
 18 20  1  0
 20 38  1  0
 20 39  1  0
M  END

