
     RDKit          3D

 46 48  0  0  0  0  0  0  0  0999 V2000
    1.5364    0.1825   -1.1981 O   0  0  0  0  0  0  0  0  0  0  0  0
    2.4887    0.0823   -0.4441 C   0  0  0  0  0  0  0  0  0  0  0  0
    3.2936   -1.2100   -0.3609 C   0  0  0  0  0  0  0  0  0  0  0  0
    4.1421   -1.3492    0.8149 N   0  0  0  0  0  0  0  0  0  0  0  0
    4.8718   -2.6134    0.8105 C   0  0  0  0  0  0  0  0  0  0  0  0
    3.9492   -3.8233    0.9775 C   0  0  0  0  0  0  0  0  0  0  0  0
    4.7411   -5.0905    1.3025 C   0  0  0  0  0  0  0  0  0  0  0  0
    5.9507   -5.0515    1.4788 O   0  0  0  0  0  0  0  0  0  0  0  0
    4.0393   -6.2713    1.3857 N   0  0  0  0  0  0  0  0  0  0  0  0
    2.5907   -6.4228    1.3197 C   0  0  0  0  0  0  0  0  0  0  0  0
    2.2329   -7.6163    0.4296 C   0  0  0  0  0  0  0  0  0  0  0  0
    2.8900   -8.7910    0.8497 O   0  0  0  0  0  0  0  0  0  0  0  0
    4.2978   -8.6400    0.8370 C   0  0  0  0  0  0  0  0  0  0  0  0
    4.7433   -7.4997    1.7478 C   0  0  0  0  0  0  0  0  0  0  0  0
    4.9413   -0.1341    1.0138 C   0  0  2  0  0  0  0  0  0  0  0  0
    5.9985   -0.2319    2.1239 C   0  0  0  0  0  0  0  0  0  0  0  0
    6.7331    1.1014    2.3284 C   0  0  0  0  0  0  0  0  0  0  0  0
    5.7717    2.2641    2.5960 C   0  0  0  0  0  0  0  0  0  0  0  0
    4.7056    2.3524    1.5007 C   0  0  0  0  0  0  0  0  0  0  0  0
    3.9721    1.0161    1.3452 C   0  0  1  0  0  0  0  0  0  0  0  0
    2.9377    1.1109    0.3271 N   0  0  0  0  0  0  0  0  0  0  0  0
    3.8800   -1.2708   -1.3097 H   0  0  0  0  0  0  0  0  0  0  0  0
    2.5523   -2.0194   -0.4068 H   0  0  0  0  0  0  0  0  0  0  0  0
    5.5795   -2.6348    1.6451 H   0  0  0  0  0  0  0  0  0  0  0  0
    5.4825   -2.7406   -0.1116 H   0  0  0  0  0  0  0  0  0  0  0  0
    3.3409   -3.9948    0.0753 H   0  0  0  0  0  0  0  0  0  0  0  0
    3.2365   -3.6123    1.7944 H   0  0  0  0  0  0  0  0  0  0  0  0
    2.1194   -5.5142    0.9264 H   0  0  0  0  0  0  0  0  0  0  0  0
    2.1854   -6.5987    2.3357 H   0  0  0  0  0  0  0  0  0  0  0  0
    2.4992   -7.3781   -0.6218 H   0  0  0  0  0  0  0  0  0  0  0  0
    1.1512   -7.8151    0.4756 H   0  0  0  0  0  0  0  0  0  0  0  0
    4.6529   -8.4491   -0.1968 H   0  0  0  0  0  0  0  0  0  0  0  0
    4.7254   -9.5949    1.1782 H   0  0  0  0  0  0  0  0  0  0  0  0
    5.8212   -7.3111    1.6651 H   0  0  0  0  0  0  0  0  0  0  0  0
    4.5169   -7.7620    2.7994 H   0  0  0  0  0  0  0  0  0  0  0  0
    5.4717    0.1388    0.0687 H   0  0  0  0  0  0  0  0  0  0  0  0
    6.7374   -1.0092    1.8822 H   0  0  0  0  0  0  0  0  0  0  0  0
    5.5040   -0.5431    3.0616 H   0  0  0  0  0  0  0  0  0  0  0  0
    7.3294    1.3258    1.4254 H   0  0  0  0  0  0  0  0  0  0  0  0
    7.4543    1.0004    3.1559 H   0  0  0  0  0  0  0  0  0  0  0  0
    6.3255    3.2145    2.6669 H   0  0  0  0  0  0  0  0  0  0  0  0
    5.2789    2.1165    3.5740 H   0  0  0  0  0  0  0  0  0  0  0  0
    5.1680    2.6212    0.5344 H   0  0  0  0  0  0  0  0  0  0  0  0
    3.9751    3.1468    1.7339 H   0  0  0  0  0  0  0  0  0  0  0  0
    3.5111    0.7593    2.3205 H   0  0  0  0  0  0  0  0  0  0  0  0
    2.3640    1.9497    0.2933 H   0  0  0  0  0  0  0  0  0  0  0  0
  1  2  2  0
  2  3  1  0
  2 21  1  0
  3  4  1  0
  3 22  1  0
  3 23  1  0
  4  5  1  0
  4 15  1  0
  5  6  1  0
  5 24  1  0
  5 25  1  0
  6  7  1  0
  6 26  1  0
  6 27  1  0
  7  8  2  0
  7  9  1  0
  9 10  1  0
  9 14  1  0
 10 11  1  0
 10 28  1  0
 10 29  1  0
 11 12  1  0
 11 30  1  0
 11 31  1  0
 12 13  1  0
 13 14  1  0
 13 32  1  0
 13 33  1  0
 14 34  1  0
 14 35  1  0
 15 16  1  0
 15 20  1  0
 15 36  1  6
 16 17  1  0
 16 37  1  0
 16 38  1  0
 17 18  1  0
 17 39  1  0
 17 40  1  0
 18 19  1  0
 18 41  1  0
 18 42  1  0
 19 20  1  0
 19 43  1  0
 19 44  1  0
 20 21  1  0
 20 45  1  1
 21 46  1  0
M  END

