
     RDKit          3D

 45 47  0  0  0  0  0  0  0  0999 V2000
    1.3347   -0.5397    0.6078 C   0  0  0  0  0  0  0  0  0  0  0  0
    2.6941   -0.2103   -0.0325 C   0  0  1  0  0  0  0  0  0  0  0  0
    3.3905    0.0037    0.7873 H   0  0  0  0  0  0  0  0  0  0  0  0
    3.2738   -1.4077   -0.8153 C   0  0  0  0  0  0  0  0  0  0  0  0
    2.5953   -1.6094   -2.1727 C   0  0  0  0  0  0  0  0  0  0  0  0
    2.6847   -0.3196   -2.9930 C   0  0  0  0  0  0  0  0  0  0  0  0
    2.1184    0.9055   -2.2517 C   0  0  1  0  0  0  0  0  0  0  0  0
    2.4943    1.8056   -2.7529 H   0  0  0  0  0  0  0  0  0  0  0  0
    0.5845    0.9861   -2.2782 C   0  0  0  0  0  0  0  0  0  0  0  0
    2.6805    0.9972   -0.8838 N   0  0  0  0  0  0  0  0  0  0  0  0
    3.4053    2.1377   -0.5917 C   0  0  0  0  0  0  0  0  0  0  0  0
    3.6176    3.0136   -1.4210 O   0  0  0  0  0  0  0  0  0  0  0  0
    3.9579    2.3319    0.8023 C   0  0  0  0  0  0  0  0  0  0  0  0
    5.2974    2.7336    0.9244 C   0  0  0  0  0  0  0  0  0  0  0  0
    5.8445    3.0270    2.1714 C   0  0  0  0  0  0  0  0  0  0  0  0
    5.0656    2.9647    3.3433 C   0  0  0  0  0  0  0  0  0  0  0  0
    5.6463    3.2884    4.6735 C   0  0  0  0  0  0  0  0  0  0  0  0
    6.6015    4.3129    4.8184 C   0  0  0  0  0  0  0  0  0  0  0  0
    7.1462    4.6172    6.0675 C   0  0  0  0  0  0  0  0  0  0  0  0
    6.7497    3.9037    7.2025 C   0  0  0  0  0  0  0  0  0  0  0  0
    5.8025    2.8832    7.0758 C   0  0  0  0  0  0  0  0  0  0  0  0
    5.2575    2.5799    5.8266 C   0  0  0  0  0  0  0  0  0  0  0  0
    3.7147    2.5950    3.2089 C   0  0  0  0  0  0  0  0  0  0  0  0
    3.1714    2.2795    1.9629 C   0  0  0  0  0  0  0  0  0  0  0  0
    1.4722   -1.2971    1.3961 H   0  0  0  0  0  0  0  0  0  0  0  0
    0.6099   -0.9437   -0.1128 H   0  0  0  0  0  0  0  0  0  0  0  0
    0.8826    0.3511    1.0676 H   0  0  0  0  0  0  0  0  0  0  0  0
    3.1943   -2.3149   -0.1934 H   0  0  0  0  0  0  0  0  0  0  0  0
    4.3509   -1.2277   -0.9779 H   0  0  0  0  0  0  0  0  0  0  0  0
    1.5411   -1.9060   -2.0344 H   0  0  0  0  0  0  0  0  0  0  0  0
    3.0750   -2.4405   -2.7155 H   0  0  0  0  0  0  0  0  0  0  0  0
    2.1636   -0.4288   -3.9585 H   0  0  0  0  0  0  0  0  0  0  0  0
    3.7451   -0.1219   -3.2284 H   0  0  0  0  0  0  0  0  0  0  0  0
    0.0902    0.0804   -1.8973 H   0  0  0  0  0  0  0  0  0  0  0  0
    0.2432    1.1358   -3.3152 H   0  0  0  0  0  0  0  0  0  0  0  0
    0.2324    1.8420   -1.6825 H   0  0  0  0  0  0  0  0  0  0  0  0
    5.9095    2.8141    0.0237 H   0  0  0  0  0  0  0  0  0  0  0  0
    6.9005    3.2980    2.2401 H   0  0  0  0  0  0  0  0  0  0  0  0
    6.9025    4.8958    3.9449 H   0  0  0  0  0  0  0  0  0  0  0  0
    7.8795    5.4232    6.1556 H   0  0  0  0  0  0  0  0  0  0  0  0
    7.1763    4.1417    8.1802 H   0  0  0  0  0  0  0  0  0  0  0  0
    5.4908    2.3128    7.9548 H   0  0  0  0  0  0  0  0  0  0  0  0
    4.5365    1.7638    5.7390 H   0  0  0  0  0  0  0  0  0  0  0  0
    3.0693    2.5812    4.0901 H   0  0  0  0  0  0  0  0  0  0  0  0
    2.1138    2.0177    1.8939 H   0  0  0  0  0  0  0  0  0  0  0  0
  1  2  1  0
  1 25  1  0
  1 26  1  0
  1 27  1  0
  2  3  1  1
  2  4  1  0
  2 10  1  0
  4  5  1  0
  4 28  1  0
  4 29  1  0
  5  6  1  0
  5 30  1  0
  5 31  1  0
  6  7  1  0
  6 32  1  0
  6 33  1  0
  7  8  1  6
  7  9  1  0
  7 10  1  0
  9 34  1  0
  9 35  1  0
  9 36  1  0
 10 11  1  0
 11 12  2  0
 11 13  1  0
 13 14  2  0
 13 24  1  0
 14 15  1  0
 14 37  1  0
 15 16  2  0
 15 38  1  0
 16 17  1  0
 16 23  1  0
 17 18  2  0
 17 22  1  0
 18 19  1  0
 18 39  1  0
 19 20  2  0
 19 40  1  0
 20 21  1  0
 20 41  1  0
 21 22  2  0
 21 42  1  0
 22 43  1  0
 23 24  2  0
 23 44  1  0
 24 45  1  0
M  END

