
     RDKit          3D

 64 67  0  0  0  0  0  0  0  0999 V2000
    1.6893    4.7412   -3.3019 C   0  0  0  0  0  0  0  0  0  0  0  0
    1.2852    4.9896   -1.8511 C   0  0  0  0  0  0  0  0  0  0  0  0
    0.6377    3.8385   -1.2122 N   0  0  0  0  0  0  0  0  0  0  0  0
    1.2914    2.7734   -0.6225 C   0  0  0  0  0  0  0  0  0  0  0  0
    3.0343    2.5388   -0.7035 S   0  0  0  0  0  0  0  0  0  0  0  0
    3.5516    2.9157    1.0481 C   0  0  1  0  0  0  0  0  0  0  0  0
    5.0671    3.1235    1.0228 C   0  0  0  0  0  0  0  0  0  0  0  0
    2.8504    4.1816    1.5626 C   0  0  0  0  0  0  0  0  0  0  0  0
    3.1525    5.2690    1.0811 O   0  0  0  0  0  0  0  0  0  0  0  0
    1.9282    4.0618    2.5694 N   0  0  0  0  0  0  0  0  0  0  0  0
    1.4402    5.2935    3.2041 C   0  0  0  0  0  0  0  0  0  0  0  0
   -0.0772    5.2508    3.4200 C   0  0  0  0  0  0  0  0  0  0  0  0
   -0.5219    4.0594    4.1364 N   0  0  0  0  0  0  0  0  0  0  0  0
   -0.3257    4.0864    5.5797 C   0  0  0  0  0  0  0  0  0  0  0  0
   -1.2424    5.0686    6.2907 C   0  0  0  0  0  0  0  0  0  0  0  0
   -2.5878    5.1946    5.9093 C   0  0  0  0  0  0  0  0  0  0  0  0
   -3.4439    6.0597    6.5940 C   0  0  0  0  0  0  0  0  0  0  0  0
   -2.9694    6.8144    7.6729 C   0  0  0  0  0  0  0  0  0  0  0  0
   -1.6313    6.6998    8.0579 C   0  0  0  0  0  0  0  0  0  0  0  0
   -0.7754    5.8350    7.3676 C   0  0  0  0  0  0  0  0  0  0  0  0
   -0.0547    2.8651    3.4471 C   0  0  0  0  0  0  0  0  0  0  0  0
    1.4667    2.8203    3.2010 C   0  0  0  0  0  0  0  0  0  0  0  0
    0.4309    1.9983    0.0015 N   0  0  0  0  0  0  0  0  0  0  0  0
   -0.8034    2.5404   -0.1591 N   0  0  0  0  0  0  0  0  0  0  0  0
   -0.6872    3.6353   -0.8974 C   0  0  0  0  0  0  0  0  0  0  0  0
   -1.8353    4.4823   -1.2575 C   0  0  0  0  0  0  0  0  0  0  0  0
   -2.9339    4.5263   -0.3703 C   0  0  0  0  0  0  0  0  0  0  0  0
   -4.0604    5.2803   -0.6609 C   0  0  0  0  0  0  0  0  0  0  0  0
   -4.1357    6.0195   -1.8568 C   0  0  0  0  0  0  0  0  0  0  0  0
   -5.2719    6.7301   -2.0502 O   0  0  0  0  0  0  0  0  0  0  0  0
   -5.4221    7.4919   -3.2276 C   0  0  0  0  0  0  0  0  0  0  0  0
   -3.0610    5.9740   -2.7568 C   0  0  0  0  0  0  0  0  0  0  0  0
   -1.9300    5.2083   -2.4541 C   0  0  0  0  0  0  0  0  0  0  0  0
    2.1464    5.6520   -3.7195 H   0  0  0  0  0  0  0  0  0  0  0  0
    0.8283    4.4688   -3.9324 H   0  0  0  0  0  0  0  0  0  0  0  0
    2.4310    3.9312   -3.3682 H   0  0  0  0  0  0  0  0  0  0  0  0
    0.5883    5.8350   -1.7710 H   0  0  0  0  0  0  0  0  0  0  0  0
    2.1676    5.2345   -1.2416 H   0  0  0  0  0  0  0  0  0  0  0  0
    3.3111    2.0289    1.6426 H   0  0  0  0  0  0  0  0  0  0  0  0
    5.3130    4.0400    0.4693 H   0  0  0  0  0  0  0  0  0  0  0  0
    5.5737    2.2649    0.5554 H   0  0  0  0  0  0  0  0  0  0  0  0
    5.4497    3.2248    2.0511 H   0  0  0  0  0  0  0  0  0  0  0  0
    1.7286    6.1342    2.5620 H   0  0  0  0  0  0  0  0  0  0  0  0
    1.9597    5.4224    4.1733 H   0  0  0  0  0  0  0  0  0  0  0  0
   -0.5786    5.2699    2.4364 H   0  0  0  0  0  0  0  0  0  0  0  0
   -0.3966    6.1515    3.9665 H   0  0  0  0  0  0  0  0  0  0  0  0
    0.7210    4.2953    5.8926 H   0  0  0  0  0  0  0  0  0  0  0  0
   -0.5474    3.0702    5.9520 H   0  0  0  0  0  0  0  0  0  0  0  0
   -2.9480    4.6103    5.0594 H   0  0  0  0  0  0  0  0  0  0  0  0
   -4.4892    6.1464    6.2847 H   0  0  0  0  0  0  0  0  0  0  0  0
   -3.6399    7.4921    8.2078 H   0  0  0  0  0  0  0  0  0  0  0  0
   -1.2486    7.2900    8.8949 H   0  0  0  0  0  0  0  0  0  0  0  0
    0.2732    5.7547    7.6708 H   0  0  0  0  0  0  0  0  0  0  0  0
   -0.5585    2.8041    2.4686 H   0  0  0  0  0  0  0  0  0  0  0  0
   -0.3475    1.9703    4.0190 H   0  0  0  0  0  0  0  0  0  0  0  0
    1.6638    1.9663    2.5444 H   0  0  0  0  0  0  0  0  0  0  0  0
    2.0093    2.6635    4.1540 H   0  0  0  0  0  0  0  0  0  0  0  0
   -2.8829    3.9488    0.5540 H   0  0  0  0  0  0  0  0  0  0  0  0
   -4.9079    5.3198    0.0262 H   0  0  0  0  0  0  0  0  0  0  0  0
   -6.4050    7.9774   -3.1627 H   0  0  0  0  0  0  0  0  0  0  0  0
   -5.3953    6.8590   -4.1329 H   0  0  0  0  0  0  0  0  0  0  0  0
   -4.6434    8.2710   -3.3151 H   0  0  0  0  0  0  0  0  0  0  0  0
   -3.0941    6.5175   -3.7010 H   0  0  0  0  0  0  0  0  0  0  0  0
   -1.1287    5.1633   -3.1923 H   0  0  0  0  0  0  0  0  0  0  0  0
  1  2  1  0
  1 34  1  0
  1 35  1  0
  1 36  1  0
  2  3  1  0
  2 37  1  0
  2 38  1  0
  3  4  1  0
  3 25  1  0
  4  5  1  0
  4 23  2  0
  5  6  1  0
  6  7  1  0
  6  8  1  0
  6 39  1  1
  7 40  1  0
  7 41  1  0
  7 42  1  0
  8  9  2  0
  8 10  1  0
 10 11  1  0
 10 22  1  0
 11 12  1  0
 11 43  1  0
 11 44  1  0
 12 13  1  0
 12 45  1  0
 12 46  1  0
 13 14  1  0
 13 21  1  0
 14 15  1  0
 14 47  1  0
 14 48  1  0
 15 16  2  0
 15 20  1  0
 16 17  1  0
 16 49  1  0
 17 18  2  0
 17 50  1  0
 18 19  1  0
 18 51  1  0
 19 20  2  0
 19 52  1  0
 20 53  1  0
 21 22  1  0
 21 54  1  0
 21 55  1  0
 22 56  1  0
 22 57  1  0
 23 24  1  0
 24 25  2  0
 25 26  1  0
 26 27  2  0
 26 33  1  0
 27 28  1  0
 27 58  1  0
 28 29  2  0
 28 59  1  0
 29 30  1  0
 29 32  1  0
 30 31  1  0
 31 60  1  0
 31 61  1  0
 31 62  1  0
 32 33  2  0
 32 63  1  0
 33 64  1  0
M  END

