
     RDKit          3D

 45 47  0  0  0  0  0  0  0  0999 V2000
    1.8539    0.0745   -0.9808 C   0  0  0  0  0  0  0  0  0  0  0  0
    1.8558    0.4119    0.3900 O   0  0  0  0  0  0  0  0  0  0  0  0
    2.6968    1.3705    0.8404 C   0  0  0  0  0  0  0  0  0  0  0  0
    3.5915    2.0892    0.0308 C   0  0  0  0  0  0  0  0  0  0  0  0
    4.4178    3.0620    0.6025 C   0  0  0  0  0  0  0  0  0  0  0  0
    4.3651    3.3300    1.9725 C   0  0  0  0  0  0  0  0  0  0  0  0
    5.2137    4.3276    2.5482 N   0  0  0  0  0  0  0  0  0  0  0  0
    4.9067    5.6692    2.7132 C   0  0  0  0  0  0  0  0  0  0  0  0
    3.6055    6.2699    2.2933 C   0  0  0  0  0  0  0  0  0  0  0  0
    5.9047    6.3055    3.2744 N   0  0  0  0  0  0  0  0  0  0  0  0
    6.8982    5.3717    3.4895 C   0  0  0  0  0  0  0  0  0  0  0  0
    8.1981    5.7403    4.1188 C   0  0  0  0  0  0  0  0  0  0  0  0
    9.0921    4.9404    4.3197 O   0  0  0  0  0  0  0  0  0  0  0  0
    8.2244    7.0936    4.4277 N   0  0  0  0  0  0  0  0  0  0  0  0
    9.2144    7.8769    5.0172 C   0  0  0  0  0  0  0  0  0  0  0  0
    8.9392    9.2527    5.2053 C   0  0  0  0  0  0  0  0  0  0  0  0
    9.9204   10.0394    5.7921 C   0  0  0  0  0  0  0  0  0  0  0  0
   11.1341    9.4561    6.1743 C   0  0  0  0  0  0  0  0  0  0  0  0
   11.3141    8.0851    5.9473 C   0  0  0  0  0  0  0  0  0  0  0  0
   12.5896    7.3768    6.3277 C   0  0  0  0  0  0  0  0  0  0  0  0
   10.3676    7.3243    5.3806 N   0  0  0  0  0  0  0  0  0  0  0  0
    6.4947    4.1247    3.0455 C   0  0  0  0  0  0  0  0  0  0  0  0
    7.1762    2.7990    3.0450 C   0  0  0  0  0  0  0  0  0  0  0  0
    3.4707    2.6083    2.7795 C   0  0  0  0  0  0  0  0  0  0  0  0
    2.6448    1.6403    2.2211 C   0  0  0  0  0  0  0  0  0  0  0  0
    1.1059   -0.7195   -1.1052 H   0  0  0  0  0  0  0  0  0  0  0  0
    2.8373   -0.3051   -1.3108 H   0  0  0  0  0  0  0  0  0  0  0  0
    1.5717    0.9344   -1.6144 H   0  0  0  0  0  0  0  0  0  0  0  0
    3.6554    1.9020   -1.0409 H   0  0  0  0  0  0  0  0  0  0  0  0
    5.1150    3.6207   -0.0260 H   0  0  0  0  0  0  0  0  0  0  0  0
    2.7506    5.8013    2.8078 H   0  0  0  0  0  0  0  0  0  0  0  0
    3.4327    6.1600    1.2101 H   0  0  0  0  0  0  0  0  0  0  0  0
    3.6214    7.3391    2.5400 H   0  0  0  0  0  0  0  0  0  0  0  0
    7.3609    7.5676    4.1682 H   0  0  0  0  0  0  0  0  0  0  0  0
    7.9809    9.6767    4.8956 H   0  0  0  0  0  0  0  0  0  0  0  0
    9.7433   11.1062    5.9532 H   0  0  0  0  0  0  0  0  0  0  0  0
   11.9233   10.0513    6.6381 H   0  0  0  0  0  0  0  0  0  0  0  0
   13.3212    8.0573    6.7868 H   0  0  0  0  0  0  0  0  0  0  0  0
   13.0427    6.9116    5.4376 H   0  0  0  0  0  0  0  0  0  0  0  0
   12.3709    6.5580    7.0318 H   0  0  0  0  0  0  0  0  0  0  0  0
    8.1702    2.9196    3.4924 H   0  0  0  0  0  0  0  0  0  0  0  0
    7.2875    2.4003    2.0226 H   0  0  0  0  0  0  0  0  0  0  0  0
    6.6085    2.0512    3.6240 H   0  0  0  0  0  0  0  0  0  0  0  0
    3.4306    2.8135    3.8516 H   0  0  0  0  0  0  0  0  0  0  0  0
    1.9445    1.0703    2.8345 H   0  0  0  0  0  0  0  0  0  0  0  0
  1  2  1  0
  1 26  1  0
  1 27  1  0
  1 28  1  0
  2  3  1  0
  3  4  2  0
  3 25  1  0
  4  5  1  0
  4 29  1  0
  5  6  2  0
  5 30  1  0
  6  7  1  0
  6 24  1  0
  7  8  1  0
  7 22  1  0
  8  9  1  0
  8 10  2  0
  9 31  1  0
  9 32  1  0
  9 33  1  0
 10 11  1  0
 11 12  1  0
 11 22  2  0
 12 13  2  0
 12 14  1  0
 14 15  1  0
 14 34  1  0
 15 16  2  0
 15 21  1  0
 16 17  1  0
 16 35  1  0
 17 18  2  0
 17 36  1  0
 18 19  1  0
 18 37  1  0
 19 20  1  0
 19 21  2  0
 20 38  1  0
 20 39  1  0
 20 40  1  0
 22 23  1  0
 23 41  1  0
 23 42  1  0
 23 43  1  0
 24 25  2  0
 24 44  1  0
 25 45  1  0
M  END

