
     RDKit          3D

 49 52  0  0  0  0  0  0  0  0999 V2000
    2.7819    0.4609   -1.7745 C   0  0  0  0  0  0  0  0  0  0  0  0
    3.5356   -0.2805   -0.6644 C   0  0  1  0  0  0  0  0  0  0  0  0
    4.5758   -1.2530   -1.2306 C   0  0  0  0  0  0  0  0  0  0  0  0
    4.1672    0.7246    0.2982 C   0  0  0  0  0  0  0  0  0  0  0  0
    4.7463    0.0210    1.3847 O   0  0  0  0  0  0  0  0  0  0  0  0
    5.3812    0.6986    2.3724 C   0  0  0  0  0  0  0  0  0  0  0  0
    5.5244    2.0954    2.4165 C   0  0  0  0  0  0  0  0  0  0  0  0
    6.1984    2.6925    3.4834 C   0  0  0  0  0  0  0  0  0  0  0  0
    6.7462    1.9350    4.5319 C   0  0  0  0  0  0  0  0  0  0  0  0
    7.4644    2.5505    5.6766 C   0  0  0  0  0  0  0  0  0  0  0  0
    7.6037    3.9083    5.8168 C   0  0  0  0  0  0  0  0  0  0  0  0
    8.2962    4.3667    6.9245 N   0  0  0  0  0  0  0  0  0  0  0  0
    8.5834    5.6889    7.3075 C   0  0  0  0  0  0  0  0  0  0  0  0
    8.2672    6.7026    6.7188 O   0  0  0  0  0  0  0  0  0  0  0  0
    9.2986    5.4992    8.4966 N   0  0  0  0  0  0  0  0  0  0  0  0
    9.8505    6.5053    9.3332 C   0  0  0  0  0  0  0  0  0  0  0  0
    9.7078    7.8671    9.0172 C   0  0  0  0  0  0  0  0  0  0  0  0
   10.2652    8.8269    9.8655 C   0  0  0  0  0  0  0  0  0  0  0  0
   10.9596    8.4532   11.0187 C   0  0  0  0  0  0  0  0  0  0  0  0
   11.0957    7.0953   11.3238 C   0  0  0  0  0  0  0  0  0  0  0  0
   10.5470    6.1206   10.4906 C   0  0  0  0  0  0  0  0  0  0  0  0
    9.4442    4.1717    8.8267 N   0  0  0  0  0  0  0  0  0  0  0  0
    8.8348    3.5281    7.8678 C   0  0  0  0  0  0  0  0  0  0  0  0
    8.6434    2.1046    7.6547 C   0  0  0  0  0  0  0  0  0  0  0  0
    9.1645    1.2578    8.5745 N   0  0  0  0  0  0  0  0  0  0  0  0
    7.9918    1.6729    6.6105 N   0  0  0  0  0  0  0  0  0  0  0  0
    6.5931    0.5350    4.4683 C   0  0  0  0  0  0  0  0  0  0  0  0
    5.9250   -0.0734    3.4133 C   0  0  0  0  0  0  0  0  0  0  0  0
    2.2904   -0.2502   -2.4567 H   0  0  0  0  0  0  0  0  0  0  0  0
    3.4682    1.0777   -2.3802 H   0  0  0  0  0  0  0  0  0  0  0  0
    2.0028    1.1263   -1.3679 H   0  0  0  0  0  0  0  0  0  0  0  0
    2.8038   -0.8624   -0.0747 H   0  0  0  0  0  0  0  0  0  0  0  0
    5.3225   -0.7184   -1.8435 H   0  0  0  0  0  0  0  0  0  0  0  0
    4.0988   -2.0113   -1.8719 H   0  0  0  0  0  0  0  0  0  0  0  0
    5.1110   -1.7731   -0.4230 H   0  0  0  0  0  0  0  0  0  0  0  0
    3.4010    1.4300    0.6722 H   0  0  0  0  0  0  0  0  0  0  0  0
    4.9410    1.3197   -0.2261 H   0  0  0  0  0  0  0  0  0  0  0  0
    5.1181    2.7276    1.6272 H   0  0  0  0  0  0  0  0  0  0  0  0
    6.2922    3.7803    3.4785 H   0  0  0  0  0  0  0  0  0  0  0  0
    7.2255    4.6790    5.1501 H   0  0  0  0  0  0  0  0  0  0  0  0
    9.1675    8.1597    8.1193 H   0  0  0  0  0  0  0  0  0  0  0  0
   10.1506    9.8844    9.6139 H   0  0  0  0  0  0  0  0  0  0  0  0
   11.3914    9.2127   11.6748 H   0  0  0  0  0  0  0  0  0  0  0  0
   11.6361    6.7862   12.2224 H   0  0  0  0  0  0  0  0  0  0  0  0
   10.6491    5.0615   10.7218 H   0  0  0  0  0  0  0  0  0  0  0  0
    9.6634    1.6204    9.3748 H   0  0  0  0  0  0  0  0  0  0  0  0
    9.0450    0.2615    8.4500 H   0  0  0  0  0  0  0  0  0  0  0  0
    7.0140   -0.0679    5.2728 H   0  0  0  0  0  0  0  0  0  0  0  0
    5.8079   -1.1583    3.3699 H   0  0  0  0  0  0  0  0  0  0  0  0
  1  2  1  0
  1 29  1  0
  1 30  1  0
  1 31  1  0
  2  3  1  0
  2  4  1  0
  2 32  1  1
  3 33  1  0
  3 34  1  0
  3 35  1  0
  4  5  1  0
  4 36  1  0
  4 37  1  0
  5  6  1  0
  6  7  2  0
  6 28  1  0
  7  8  1  0
  7 38  1  0
  8  9  2  0
  8 39  1  0
  9 10  1  0
  9 27  1  0
 10 11  2  0
 10 26  1  0
 11 12  1  0
 11 40  1  0
 12 13  1  0
 12 23  1  0
 13 14  2  0
 13 15  1  0
 15 16  1  0
 15 22  1  0
 16 17  2  0
 16 21  1  0
 17 18  1  0
 17 41  1  0
 18 19  2  0
 18 42  1  0
 19 20  1  0
 19 43  1  0
 20 21  2  0
 20 44  1  0
 21 45  1  0
 22 23  2  0
 23 24  1  0
 24 25  1  0
 24 26  2  0
 25 46  1  0
 25 47  1  0
 27 28  2  0
 27 48  1  0
 28 49  1  0
M  END

