
     RDKit          3D

 52 55  0  0  0  0  0  0  0  0999 V2000
    1.0453   -0.1547   -0.3664 C   0  0  0  0  0  0  0  0  0  0  0  0
    0.2121    0.8817   -0.8920 C   0  0  0  0  0  0  0  0  0  0  0  0
   -1.1614    0.9780   -0.7870 C   0  0  0  0  0  0  0  0  0  0  0  0
   -2.0226    0.0131   -0.1078 C   0  0  0  0  0  0  0  0  0  0  0  0
   -3.3679    0.1726   -0.0402 C   0  0  0  0  0  0  0  0  0  0  0  0
   -4.0233    1.2529   -0.6134 N   0  0  0  0  0  0  0  0  0  0  0  0
   -5.4519    1.4425   -0.4642 C   0  0  0  0  0  0  0  0  0  0  0  0
   -5.8801    2.4292    0.6168 C   0  0  0  0  0  0  0  0  0  0  0  0
   -7.1827    2.9517    0.5914 C   0  0  0  0  0  0  0  0  0  0  0  0
   -7.6215    3.8263    1.5875 C   0  0  0  0  0  0  0  0  0  0  0  0
   -6.7581    4.1978    2.6238 C   0  0  0  0  0  0  0  0  0  0  0  0
   -5.4578    3.6882    2.6527 C   0  0  0  0  0  0  0  0  0  0  0  0
   -5.0205    2.8088    1.6561 C   0  0  0  0  0  0  0  0  0  0  0  0
   -3.2478    2.2026   -1.2728 C   0  0  0  0  0  0  0  0  0  0  0  0
   -1.9003    2.0900   -1.3699 C   0  0  0  0  0  0  0  0  0  0  0  0
    2.4185   -0.2526   -0.4741 C   0  0  0  0  0  0  0  0  0  0  0  0
    3.2785    0.7064   -1.1631 C   0  0  0  0  0  0  0  0  0  0  0  0
    4.6240    0.5482   -1.2287 C   0  0  0  0  0  0  0  0  0  0  0  0
    5.2794   -0.5326   -0.6564 N   0  0  0  0  0  0  0  0  0  0  0  0
    6.7239   -0.6433   -0.6747 C   0  0  0  0  0  0  0  0  0  0  0  0
    7.4375   -0.2114    0.6019 C   0  0  0  0  0  0  0  0  0  0  0  0
    8.7601   -0.6264    0.8227 C   0  0  0  0  0  0  0  0  0  0  0  0
    9.4573   -0.2165    1.9610 C   0  0  0  0  0  0  0  0  0  0  0  0
    8.8368    0.6120    2.9021 C   0  0  0  0  0  0  0  0  0  0  0  0
    7.5182    1.0238    2.6938 C   0  0  0  0  0  0  0  0  0  0  0  0
    6.8221    0.6155    1.5509 C   0  0  0  0  0  0  0  0  0  0  0  0
    4.5053   -1.4754    0.0145 C   0  0  0  0  0  0  0  0  0  0  0  0
    3.1575   -1.3649    0.1083 C   0  0  0  0  0  0  0  0  0  0  0  0
    0.5553   -0.9652    0.1833 H   0  0  0  0  0  0  0  0  0  0  0  0
    0.7024    1.6934   -1.4397 H   0  0  0  0  0  0  0  0  0  0  0  0
   -1.5925   -0.8728    0.3602 H   0  0  0  0  0  0  0  0  0  0  0  0
   -4.0122   -0.5489    0.4668 H   0  0  0  0  0  0  0  0  0  0  0  0
   -5.8992    0.4563   -0.2530 H   0  0  0  0  0  0  0  0  0  0  0  0
   -5.8756    1.7628   -1.4323 H   0  0  0  0  0  0  0  0  0  0  0  0
   -7.8621    2.6714   -0.2200 H   0  0  0  0  0  0  0  0  0  0  0  0
   -8.6390    4.2245    1.5520 H   0  0  0  0  0  0  0  0  0  0  0  0
   -7.0976    4.8859    3.4021 H   0  0  0  0  0  0  0  0  0  0  0  0
   -4.7741    3.9770    3.4552 H   0  0  0  0  0  0  0  0  0  0  0  0
   -4.0001    2.4206    1.6846 H   0  0  0  0  0  0  0  0  0  0  0  0
   -3.7985    3.0394   -1.7064 H   0  0  0  0  0  0  0  0  0  0  0  0
   -1.3535    2.8656   -1.9117 H   0  0  0  0  0  0  0  0  0  0  0  0
    2.8459    1.5799   -1.6517 H   0  0  0  0  0  0  0  0  0  0  0  0
    5.2672    1.2644   -1.7444 H   0  0  0  0  0  0  0  0  0  0  0  0
    7.0941   -0.0384   -1.5198 H   0  0  0  0  0  0  0  0  0  0  0  0
    7.0024   -1.6861   -0.9077 H   0  0  0  0  0  0  0  0  0  0  0  0
    9.2504   -1.2807    0.0946 H   0  0  0  0  0  0  0  0  0  0  0  0
   10.4867   -0.5497    2.1177 H   0  0  0  0  0  0  0  0  0  0  0  0
    9.3786    0.9305    3.7963 H   0  0  0  0  0  0  0  0  0  0  0  0
    7.0230    1.6665    3.4263 H   0  0  0  0  0  0  0  0  0  0  0  0
    5.7895    0.9381    1.4004 H   0  0  0  0  0  0  0  0  0  0  0  0
    5.0570   -2.3074    0.4560 H   0  0  0  0  0  0  0  0  0  0  0  0
    2.6094   -2.1467    0.6398 H   0  0  0  0  0  0  0  0  0  0  0  0
  1  2  1  0
  1 16  2  0
  1 29  1  0
  2  3  2  0
  2 30  1  0
  3  4  1  0
  3 15  1  0
  4  5  2  0
  4 31  1  0
  5  6  1  0
  5 32  1  0
  6  7  1  0
  6 14  1  0
  7  8  1  0
  7 33  1  0
  7 34  1  0
  8  9  2  0
  8 13  1  0
  9 10  1  0
  9 35  1  0
 10 11  2  0
 10 36  1  0
 11 12  1  0
 11 37  1  0
 12 13  2  0
 12 38  1  0
 13 39  1  0
 14 15  2  0
 14 40  1  0
 15 41  1  0
 16 17  1  0
 16 28  1  0
 17 18  2  0
 17 42  1  0
 18 19  1  0
 18 43  1  0
 19 20  1  0
 19 27  1  0
 20 21  1  0
 20 44  1  0
 20 45  1  0
 21 22  2  0
 21 26  1  0
 22 23  1  0
 22 46  1  0
 23 24  2  0
 23 47  1  0
 24 25  1  0
 24 48  1  0
 25 26  2  0
 25 49  1  0
 26 50  1  0
 27 28  2  0
 27 51  1  0
 28 52  1  0
M  END

