
     RDKit          3D

 51 52  0  0  0  0  0  0  0  0999 V2000
    3.9585   -0.3597    0.8969 C   0  0  0  0  0  0  0  0  0  0  0  0
    3.7347   -0.2292   -0.5778 C   0  0  0  0  0  0  0  0  0  0  0  0
    4.0081    0.8983   -1.2241 N   0  0  0  0  0  0  0  0  0  0  0  0
    3.6791    0.6716   -2.5134 N   0  0  0  0  0  0  0  0  0  0  0  0
    3.9683    1.6948   -3.5022 C   0  0  0  0  0  0  0  0  0  0  0  0
    5.4422    1.6965   -3.9177 C   0  0  0  0  0  0  0  0  0  0  0  0
    5.8471    0.4703   -4.4896 O   0  0  0  0  0  0  0  0  0  0  0  0
    3.2063   -0.5976   -2.7181 C   0  0  0  0  0  0  0  0  0  0  0  0
    2.7775   -1.0964   -4.0631 C   0  0  0  0  0  0  0  0  0  0  0  0
    3.2258   -1.2192   -1.4713 C   0  0  0  0  0  0  0  0  0  0  0  0
    2.7644   -2.5999   -1.1102 C   0  0  0  0  0  0  0  0  0  0  0  0
    1.5245   -2.5709   -0.3322 N   0  0  0  0  0  0  0  0  0  0  0  0
    0.9362   -3.8774   -0.0346 C   0  0  1  0  0  0  0  0  0  0  0  0
    1.6738   -4.5317    1.1639 C   0  0  0  0  0  0  0  0  0  0  0  0
    1.3661   -5.9454    1.3191 N   0  0  0  0  0  0  0  0  0  0  0  0
    2.1710   -6.8051    0.4746 C   0  0  0  0  0  0  0  0  0  0  0  0
    1.3429   -6.3953    2.6967 C   0  0  0  0  0  0  0  0  0  0  0  0
   -0.5495   -3.7501    0.2627 C   0  0  0  0  0  0  0  0  0  0  0  0
   -1.4313   -4.7895   -0.0712 C   0  0  0  0  0  0  0  0  0  0  0  0
   -2.7918   -4.7020    0.2355 C   0  0  0  0  0  0  0  0  0  0  0  0
   -3.2957   -3.5698    0.8832 C   0  0  0  0  0  0  0  0  0  0  0  0
   -2.4269   -2.5295    1.2244 C   0  0  0  0  0  0  0  0  0  0  0  0
   -1.0650   -2.6209    0.9209 C   0  0  0  0  0  0  0  0  0  0  0  0
    4.2214    0.6169    1.3269 H   0  0  0  0  0  0  0  0  0  0  0  0
    4.7790   -1.0643    1.1191 H   0  0  0  0  0  0  0  0  0  0  0  0
    3.0563   -0.7483    1.3934 H   0  0  0  0  0  0  0  0  0  0  0  0
    3.6988    2.6699   -3.0679 H   0  0  0  0  0  0  0  0  0  0  0  0
    3.3317    1.5204   -4.3814 H   0  0  0  0  0  0  0  0  0  0  0  0
    6.0606    1.9631   -3.0402 H   0  0  0  0  0  0  0  0  0  0  0  0
    5.5945    2.4756   -4.6827 H   0  0  0  0  0  0  0  0  0  0  0  0
    5.9032   -0.1838   -3.7799 H   0  0  0  0  0  0  0  0  0  0  0  0
    1.8956   -0.5516   -4.4423 H   0  0  0  0  0  0  0  0  0  0  0  0
    2.5095   -2.1604   -4.0075 H   0  0  0  0  0  0  0  0  0  0  0  0
    3.5824   -0.9822   -4.8060 H   0  0  0  0  0  0  0  0  0  0  0  0
    3.5426   -3.0995   -0.5079 H   0  0  0  0  0  0  0  0  0  0  0  0
    2.6632   -3.2143   -2.0330 H   0  0  0  0  0  0  0  0  0  0  0  0
    0.8453   -1.9952   -0.8267 H   0  0  0  0  0  0  0  0  0  0  0  0
    1.0412   -4.5643   -0.9031 H   0  0  0  0  0  0  0  0  0  0  0  0
    1.3664   -3.9920    2.0719 H   0  0  0  0  0  0  0  0  0  0  0  0
    2.7677   -4.3618    1.0591 H   0  0  0  0  0  0  0  0  0  0  0  0
    2.1153   -6.4819   -0.5763 H   0  0  0  0  0  0  0  0  0  0  0  0
    1.7999   -7.8417    0.5209 H   0  0  0  0  0  0  0  0  0  0  0  0
    3.2487   -6.8182    0.7637 H   0  0  0  0  0  0  0  0  0  0  0  0
    0.6397   -5.7858    3.2849 H   0  0  0  0  0  0  0  0  0  0  0  0
    2.3384   -6.3490    3.1979 H   0  0  0  0  0  0  0  0  0  0  0  0
    0.9995   -7.4416    2.7444 H   0  0  0  0  0  0  0  0  0  0  0  0
   -1.0434   -5.6786   -0.5733 H   0  0  0  0  0  0  0  0  0  0  0  0
   -3.4626   -5.5217   -0.0356 H   0  0  0  0  0  0  0  0  0  0  0  0
   -4.3606   -3.4988    1.1199 H   0  0  0  0  0  0  0  0  0  0  0  0
   -2.8098   -1.6404    1.7328 H   0  0  0  0  0  0  0  0  0  0  0  0
   -0.3891   -1.8084    1.1973 H   0  0  0  0  0  0  0  0  0  0  0  0
  1  2  1  0
  1 24  1  0
  1 25  1  0
  1 26  1  0
  2  3  2  0
  2 10  1  0
  3  4  1  0
  4  5  1  0
  4  8  1  0
  5  6  1  0
  5 27  1  0
  5 28  1  0
  6  7  1  0
  6 29  1  0
  6 30  1  0
  7 31  1  0
  8  9  1  0
  8 10  2  0
  9 32  1  0
  9 33  1  0
  9 34  1  0
 10 11  1  0
 11 12  1  0
 11 35  1  0
 11 36  1  0
 12 13  1  0
 12 37  1  0
 13 14  1  0
 13 18  1  0
 13 38  1  6
 14 15  1  0
 14 39  1  0
 14 40  1  0
 15 16  1  0
 15 17  1  0
 16 41  1  0
 16 42  1  0
 16 43  1  0
 17 44  1  0
 17 45  1  0
 17 46  1  0
 18 19  2  0
 18 23  1  0
 19 20  1  0
 19 47  1  0
 20 21  2  0
 20 48  1  0
 21 22  1  0
 21 49  1  0
 22 23  2  0
 22 50  1  0
 23 51  1  0
M  END

