
     RDKit          3D

 52 55  0  0  0  0  0  0  0  0999 V2000
    0.7813   -0.4511   -1.0850 C   0  0  0  0  0  0  0  0  0  0  0  0
    2.2381   -0.3373   -0.6521 C   0  0  1  0  0  0  0  0  0  0  0  0
    2.4202    0.4500    0.5201 O   0  0  0  0  0  0  0  0  0  0  0  0
    1.8336   -0.0300    1.7154 C   0  0  0  0  0  0  0  0  0  0  0  0
    2.2779    0.8842    2.8489 C   0  0  1  0  0  0  0  0  0  0  0  0
    1.8050    2.3399    2.7444 C   0  0  0  0  0  0  0  0  0  0  0  0
    1.6939    2.7402    4.2204 C   0  0  0  0  0  0  0  0  0  0  0  0
    1.1894    1.4396    4.8544 C   0  0  0  0  0  0  0  0  0  0  0  0
    1.7294    0.3822    4.0672 O   0  0  0  0  0  0  0  0  0  0  0  0
    2.8873   -1.7404   -0.5125 C   0  0  0  0  0  0  0  0  0  0  0  0
    2.2091   -2.7499   -0.6373 O   0  0  0  0  0  0  0  0  0  0  0  0
    4.2338   -1.7920   -0.2442 N   0  0  0  0  0  0  0  0  0  0  0  0
    4.8887   -3.0946   -0.1298 C   0  0  0  0  0  0  0  0  0  0  0  0
    5.9619   -3.2567   -1.2109 C   0  0  0  0  0  0  0  0  0  0  0  0
    6.9583   -2.0919   -1.1890 C   0  0  0  0  0  0  0  0  0  0  0  0
    6.2290   -0.7337   -1.2564 C   0  0  2  0  0  0  0  0  0  0  0  0
    7.1817    0.4153   -1.1337 C   0  0  0  0  0  0  0  0  0  0  0  0
    7.3268    1.3123   -2.0773 N   0  0  0  0  0  0  0  0  0  0  0  0
    8.2879    2.1801   -1.5550 O   0  0  0  0  0  0  0  0  0  0  0  0
    8.6209    1.7145   -0.3447 C   0  0  0  0  0  0  0  0  0  0  0  0
    9.6256    2.4502    0.4326 C   0  0  1  0  0  0  0  0  0  0  0  0
    9.4975    2.4904    1.9466 C   0  0  0  0  0  0  0  0  0  0  0  0
   10.5791    1.6711    1.3240 C   0  0  0  0  0  0  0  0  0  0  0  0
    7.9729    0.6287   -0.0280 N   0  0  0  0  0  0  0  0  0  0  0  0
    5.1418   -0.6560   -0.1582 C   0  0  0  0  0  0  0  0  0  0  0  0
    0.3297    0.5520   -1.1174 H   0  0  0  0  0  0  0  0  0  0  0  0
    0.2044   -1.0958   -0.4084 H   0  0  0  0  0  0  0  0  0  0  0  0
    0.7191   -0.9015   -2.0860 H   0  0  0  0  0  0  0  0  0  0  0  0
    2.7902    0.2163   -1.4301 H   0  0  0  0  0  0  0  0  0  0  0  0
    2.1456   -1.0679    1.9372 H   0  0  0  0  0  0  0  0  0  0  0  0
    0.7288   -0.0215    1.6610 H   0  0  0  0  0  0  0  0  0  0  0  0
    3.3851    0.8536    2.9054 H   0  0  0  0  0  0  0  0  0  0  0  0
    0.8147    2.3794    2.2586 H   0  0  0  0  0  0  0  0  0  0  0  0
    2.4904    2.9678    2.1583 H   0  0  0  0  0  0  0  0  0  0  0  0
    1.0217    3.5936    4.3969 H   0  0  0  0  0  0  0  0  0  0  0  0
    2.6864    3.0044    4.6219 H   0  0  0  0  0  0  0  0  0  0  0  0
    0.0828    1.3920    4.8390 H   0  0  0  0  0  0  0  0  0  0  0  0
    1.5139    1.3123    5.9010 H   0  0  0  0  0  0  0  0  0  0  0  0
    4.1117   -3.8639   -0.2106 H   0  0  0  0  0  0  0  0  0  0  0  0
    5.3514   -3.1718    0.8724 H   0  0  0  0  0  0  0  0  0  0  0  0
    5.4685   -3.3101   -2.1969 H   0  0  0  0  0  0  0  0  0  0  0  0
    6.4906   -4.2132   -1.0652 H   0  0  0  0  0  0  0  0  0  0  0  0
    7.6735   -2.1736   -2.0236 H   0  0  0  0  0  0  0  0  0  0  0  0
    7.5518   -2.1221   -0.2584 H   0  0  0  0  0  0  0  0  0  0  0  0
    5.7350   -0.6364   -2.2370 H   0  0  0  0  0  0  0  0  0  0  0  0
   10.0071    3.3388   -0.0751 H   0  0  0  0  0  0  0  0  0  0  0  0
    8.6410    1.9638    2.3751 H   0  0  0  0  0  0  0  0  0  0  0  0
    9.7608    3.4303    2.4391 H   0  0  0  0  0  0  0  0  0  0  0  0
   10.4622    0.5844    1.3268 H   0  0  0  0  0  0  0  0  0  0  0  0
   11.6110    2.0289    1.3737 H   0  0  0  0  0  0  0  0  0  0  0  0
    4.5863    0.2845   -0.2159 H   0  0  0  0  0  0  0  0  0  0  0  0
    5.6396   -0.6648    0.8289 H   0  0  0  0  0  0  0  0  0  0  0  0
  1  2  1  0
  1 26  1  0
  1 27  1  0
  1 28  1  0
  2  3  1  0
  2 10  1  0
  2 29  1  6
  3  4  1  0
  4  5  1  0
  4 30  1  0
  4 31  1  0
  5  6  1  0
  5  9  1  0
  5 32  1  1
  6  7  1  0
  6 33  1  0
  6 34  1  0
  7  8  1  0
  7 35  1  0
  7 36  1  0
  8  9  1  0
  8 37  1  0
  8 38  1  0
 10 11  2  0
 10 12  1  0
 12 13  1  0
 12 25  1  0
 13 14  1  0
 13 39  1  0
 13 40  1  0
 14 15  1  0
 14 41  1  0
 14 42  1  0
 15 16  1  0
 15 43  1  0
 15 44  1  0
 16 17  1  0
 16 25  1  0
 16 45  1  6
 17 18  2  0
 17 24  1  0
 18 19  1  0
 19 20  1  0
 20 21  1  0
 20 24  2  0
 21 22  1  0
 21 23  1  0
 21 46  1  6
 22 23  1  0
 22 47  1  0
 22 48  1  0
 23 49  1  0
 23 50  1  0
 25 51  1  0
 25 52  1  0
M  END

