
     RDKit          3D

 61 64  0  0  0  0  0  0  0  0999 V2000
    8.4666    9.4326   -6.7755 C   0  0  0  0  0  0  0  0  0  0  0  0
    7.8401    8.1710   -6.7936 O   0  0  0  0  0  0  0  0  0  0  0  0
    7.3283    7.6630   -5.6464 C   0  0  0  0  0  0  0  0  0  0  0  0
    7.3630    8.3211   -4.4057 C   0  0  0  0  0  0  0  0  0  0  0  0
    6.8159    7.7037   -3.2765 C   0  0  0  0  0  0  0  0  0  0  0  0
    6.2100    6.4482   -3.3752 C   0  0  0  0  0  0  0  0  0  0  0  0
    5.6595    5.8214   -2.2108 N   0  0  0  0  0  0  0  0  0  0  0  0
    4.6126    6.3123   -1.4338 C   0  0  0  0  0  0  0  0  0  0  0  0
    3.8754    7.5617   -1.7997 C   0  0  0  0  0  0  0  0  0  0  0  0
    4.4038    5.4406   -0.3768 C   0  0  0  0  0  0  0  0  0  0  0  0
    3.3882    5.5407    0.7210 C   0  0  0  0  0  0  0  0  0  0  0  0
    5.3614    4.3796   -0.5227 C   0  0  0  0  0  0  0  0  0  0  0  0
    5.5340    3.2588    0.3334 C   0  0  0  0  0  0  0  0  0  0  0  0
    5.6779    2.3507    1.0456 N   0  0  0  0  0  0  0  0  0  0  0  0
    6.1132    4.6413   -1.6631 C   0  0  0  0  0  0  0  0  0  0  0  0
    7.1560    3.8921   -2.2257 N   0  0  0  0  0  0  0  0  0  0  0  0
    6.9374    2.8280   -3.0781 C   0  0  0  0  0  0  0  0  0  0  0  0
    5.8318    2.4947   -3.4432 O   0  0  0  0  0  0  0  0  0  0  0  0
    8.2384    2.1379   -3.5119 C   0  0  0  0  0  0  0  0  0  0  0  0
    7.9953    0.7883   -4.7011 S   0  0  0  0  0  0  0  0  0  0  0  0
    7.5021    1.7724   -6.0779 C   0  0  0  0  0  0  0  0  0  0  0  0
    7.7184    3.0516   -6.2457 N   0  0  0  0  0  0  0  0  0  0  0  0
    7.1399    3.4140   -7.4375 N   0  0  0  0  0  0  0  0  0  0  0  0
    6.5972    2.3483   -7.9726 C   0  0  0  0  0  0  0  0  0  0  0  0
    5.8750    2.2901   -9.2743 C   0  0  0  0  0  0  0  0  0  0  0  0
    6.7953    1.2579   -7.1414 N   0  0  0  0  0  0  0  0  0  0  0  0
    6.3147   -0.0832   -7.3068 C   0  0  0  0  0  0  0  0  0  0  0  0
    7.0807   -0.9884   -8.0502 C   0  0  0  0  0  0  0  0  0  0  0  0
    6.6369   -2.2996   -8.2282 C   0  0  0  0  0  0  0  0  0  0  0  0
    5.4266   -2.6955   -7.6539 C   0  0  0  0  0  0  0  0  0  0  0  0
    4.6698   -1.7857   -6.9111 C   0  0  0  0  0  0  0  0  0  0  0  0
    5.0889   -0.4601   -6.7179 C   0  0  0  0  0  0  0  0  0  0  0  0
    4.2678    0.5153   -5.9148 C   0  0  0  0  0  0  0  0  0  0  0  0
    6.1722    5.7964   -4.6186 C   0  0  0  0  0  0  0  0  0  0  0  0
    6.7382    6.3896   -5.7406 C   0  0  0  0  0  0  0  0  0  0  0  0
    8.8020    9.6305   -7.8024 H   0  0  0  0  0  0  0  0  0  0  0  0
    9.3449    9.4477   -6.1047 H   0  0  0  0  0  0  0  0  0  0  0  0
    7.7714   10.2347   -6.4668 H   0  0  0  0  0  0  0  0  0  0  0  0
    7.8243    9.3030   -4.3004 H   0  0  0  0  0  0  0  0  0  0  0  0
    6.8722    8.2043   -2.3075 H   0  0  0  0  0  0  0  0  0  0  0  0
    3.6248    7.5826   -2.8721 H   0  0  0  0  0  0  0  0  0  0  0  0
    4.4501    8.4783   -1.5840 H   0  0  0  0  0  0  0  0  0  0  0  0
    2.9368    7.6224   -1.2323 H   0  0  0  0  0  0  0  0  0  0  0  0
    2.6736    6.3571    0.5436 H   0  0  0  0  0  0  0  0  0  0  0  0
    3.8650    5.7251    1.6989 H   0  0  0  0  0  0  0  0  0  0  0  0
    2.8131    4.6058    0.8201 H   0  0  0  0  0  0  0  0  0  0  0  0
    8.1137    4.1334   -1.9870 H   0  0  0  0  0  0  0  0  0  0  0  0
    8.7311    1.6789   -2.6401 H   0  0  0  0  0  0  0  0  0  0  0  0
    8.9197    2.8833   -3.9485 H   0  0  0  0  0  0  0  0  0  0  0  0
    5.8638    3.2983   -9.7080 H   0  0  0  0  0  0  0  0  0  0  0  0
    4.8361    1.9444   -9.1499 H   0  0  0  0  0  0  0  0  0  0  0  0
    6.3671    1.6041   -9.9825 H   0  0  0  0  0  0  0  0  0  0  0  0
    8.0275   -0.6538   -8.4803 H   0  0  0  0  0  0  0  0  0  0  0  0
    7.2353   -3.0063   -8.8076 H   0  0  0  0  0  0  0  0  0  0  0  0
    5.0684   -3.7200   -7.7824 H   0  0  0  0  0  0  0  0  0  0  0  0
    3.7255   -2.1076   -6.4641 H   0  0  0  0  0  0  0  0  0  0  0  0
    3.3496    0.0382   -5.5441 H   0  0  0  0  0  0  0  0  0  0  0  0
    3.9727    1.3874   -6.5221 H   0  0  0  0  0  0  0  0  0  0  0  0
    4.8261    0.9097   -5.0502 H   0  0  0  0  0  0  0  0  0  0  0  0
    5.7100    4.8116   -4.6996 H   0  0  0  0  0  0  0  0  0  0  0  0
    6.7515    5.8606   -6.6961 H   0  0  0  0  0  0  0  0  0  0  0  0
  1  2  1  0
  1 36  1  0
  1 37  1  0
  1 38  1  0
  2  3  1  0
  3  4  2  0
  3 35  1  0
  4  5  1  0
  4 39  1  0
  5  6  2  0
  5 40  1  0
  6  7  1  0
  6 34  1  0
  7  8  1  0
  7 15  1  0
  8  9  1  0
  8 10  2  0
  9 41  1  0
  9 42  1  0
  9 43  1  0
 10 11  1  0
 10 12  1  0
 11 44  1  0
 11 45  1  0
 11 46  1  0
 12 13  1  0
 12 15  2  0
 13 14  3  0
 15 16  1  0
 16 17  1  0
 16 47  1  0
 17 18  2  0
 17 19  1  0
 19 20  1  0
 19 48  1  0
 19 49  1  0
 20 21  1  0
 21 22  2  0
 21 26  1  0
 22 23  1  0
 23 24  2  0
 24 25  1  0
 24 26  1  0
 25 50  1  0
 25 51  1  0
 25 52  1  0
 26 27  1  0
 27 28  2  0
 27 32  1  0
 28 29  1  0
 28 53  1  0
 29 30  2  0
 29 54  1  0
 30 31  1  0
 30 55  1  0
 31 32  2  0
 31 56  1  0
 32 33  1  0
 33 57  1  0
 33 58  1  0
 33 59  1  0
 34 35  2  0
 34 60  1  0
 35 61  1  0
M  END

