
     RDKit          3D

 38 39  0  0  0  0  0  0  0  0999 V2000
    5.7760   -0.1199   -1.9480 C   0  0  0  0  0  0  0  0  0  0  0  0
    4.6121    0.2552   -1.0379 C   0  0  0  0  0  0  0  0  0  0  0  0
    5.0773    0.6837    0.2722 N   0  0  0  0  0  0  0  0  0  0  0  0
    4.0239    1.0617    1.1982 C   0  0  0  0  0  0  0  0  0  0  0  0
    4.5560    1.4076    2.5759 C   0  0  0  0  0  0  0  0  0  0  0  0
    3.9342    2.3895    3.3497 C   0  0  0  0  0  0  0  0  0  0  0  0
    4.4086    2.6630    4.6382 C   0  0  0  0  0  0  0  0  0  0  0  0
    3.5561    4.0099    5.6820 Br  0  0  0  0  0  0  0  0  0  0  0  0
    5.4947    1.9717    5.1857 C   0  0  0  0  0  0  0  0  0  0  0  0
    5.9060    2.1905    6.4618 O   0  0  0  0  0  0  0  0  0  0  0  0
    7.1277    2.9204    6.6419 C   0  0  0  0  0  0  0  0  0  0  0  0
    7.6709    2.6312    8.0095 C   0  0  0  0  0  0  0  0  0  0  0  0
    7.9183    1.3029    8.4920 C   0  0  0  0  0  0  0  0  0  0  0  0
    8.4424    1.2864    9.7569 C   0  0  0  0  0  0  0  0  0  0  0  0
    8.6469    2.8888   10.3849 S   0  0  0  0  0  0  0  0  0  0  0  0
    8.0142    3.5877    8.9344 C   0  0  0  0  0  0  0  0  0  0  0  0
    6.1252    0.9814    4.3876 C   0  0  0  0  0  0  0  0  0  0  0  0
    7.1768    0.3494    4.9714 O   0  0  0  0  0  0  0  0  0  0  0  0
    7.8507   -0.6646    4.2568 C   0  0  0  0  0  0  0  0  0  0  0  0
    5.6565    0.7088    3.0998 C   0  0  0  0  0  0  0  0  0  0  0  0
    5.4144   -0.4788   -2.9242 H   0  0  0  0  0  0  0  0  0  0  0  0
    6.3896   -0.9107   -1.4889 H   0  0  0  0  0  0  0  0  0  0  0  0
    6.4306    0.7482   -2.1370 H   0  0  0  0  0  0  0  0  0  0  0  0
    3.9562   -0.6225   -0.8942 H   0  0  0  0  0  0  0  0  0  0  0  0
    3.9800    1.0235   -1.5406 H   0  0  0  0  0  0  0  0  0  0  0  0
    5.7401    1.4538    0.1738 H   0  0  0  0  0  0  0  0  0  0  0  0
    3.3359    0.1988    1.2869 H   0  0  0  0  0  0  0  0  0  0  0  0
    3.3945    1.9042    0.8332 H   0  0  0  0  0  0  0  0  0  0  0  0
    3.0841    2.9512    2.9587 H   0  0  0  0  0  0  0  0  0  0  0  0
    6.9356    4.0004    6.5168 H   0  0  0  0  0  0  0  0  0  0  0  0
    7.8543    2.6079    5.8726 H   0  0  0  0  0  0  0  0  0  0  0  0
    7.6948    0.4107    7.9060 H   0  0  0  0  0  0  0  0  0  0  0  0
    8.7191    0.4236   10.3615 H   0  0  0  0  0  0  0  0  0  0  0  0
    7.9223    4.6693    8.8404 H   0  0  0  0  0  0  0  0  0  0  0  0
    8.6472   -1.0335    4.9166 H   0  0  0  0  0  0  0  0  0  0  0  0
    8.3039   -0.2792    3.3262 H   0  0  0  0  0  0  0  0  0  0  0  0
    7.1766   -1.5014    4.0025 H   0  0  0  0  0  0  0  0  0  0  0  0
    6.1311   -0.0415    2.4689 H   0  0  0  0  0  0  0  0  0  0  0  0
  1  2  1  0
  1 21  1  0
  1 22  1  0
  1 23  1  0
  2  3  1  0
  2 24  1  0
  2 25  1  0
  3  4  1  0
  3 26  1  0
  4  5  1  0
  4 27  1  0
  4 28  1  0
  5  6  2  0
  5 20  1  0
  6  7  1  0
  6 29  1  0
  7  8  1  0
  7  9  2  0
  9 10  1  0
  9 17  1  0
 10 11  1  0
 11 12  1  0
 11 30  1  0
 11 31  1  0
 12 13  1  0
 12 16  2  0
 13 14  2  0
 13 32  1  0
 14 15  1  0
 14 33  1  0
 15 16  1  0
 16 34  1  0
 17 18  1  0
 17 20  2  0
 18 19  1  0
 19 35  1  0
 19 36  1  0
 19 37  1  0
 20 38  1  0
M  END

