
     RDKit          3D

 41 44  0  0  0  0  0  0  0  0999 V2000
    5.8468    1.3388    0.3397 C   0  0  0  0  0  0  0  0  0  0  0  0
    6.2426    0.6306   -0.9562 C   0  0  0  0  0  0  0  0  0  0  0  0
    6.6771   -0.8274   -0.7891 C   0  0  0  0  0  0  0  0  0  0  0  0
    5.2174   -1.8801   -0.3511 S   0  0  0  0  0  0  0  0  0  0  0  0
    5.7625   -3.2426    0.6030 C   0  0  0  0  0  0  0  0  0  0  0  0
    5.1823   -4.5283    0.3912 C   0  0  0  0  0  0  0  0  0  0  0  0
    5.7106   -5.3782    1.3421 C   0  0  0  0  0  0  0  0  0  0  0  0
    6.5939   -4.6081    2.1520 C   0  0  0  0  0  0  0  0  0  0  0  0
    6.6069   -3.2953    1.6619 N   0  0  0  0  0  0  0  0  0  0  0  0
    7.5707   -2.1834    2.2181 B   0  0  2  0  0  0  0  0  0  0  0  0
    6.8940   -0.9950    2.4244 F   0  0  0  0  0  0  0  0  0  0  0  0
    8.6317   -2.0017    1.3296 F   0  0  0  0  0  0  0  0  0  0  0  0
    8.1311   -2.7195    3.5660 N   0  0  0  0  0  0  0  0  0  0  0  0
    8.8307   -2.0062    4.4654 C   0  0  0  0  0  0  0  0  0  0  0  0
    9.2575   -2.8406    5.5173 C   0  0  0  0  0  0  0  0  0  0  0  0
    8.7820   -4.1205    5.2312 C   0  0  0  0  0  0  0  0  0  0  0  0
    8.0786   -4.0358    4.0000 C   0  0  0  0  0  0  0  0  0  0  0  0
    7.3227   -4.9934    3.2889 C   0  0  0  0  0  0  0  0  0  0  0  0
    7.2713   -6.3962    3.7786 C   0  0  0  0  0  0  0  0  0  0  0  0
    6.0485   -7.0052    4.1167 C   0  0  0  0  0  0  0  0  0  0  0  0
    6.0160   -8.3210    4.5842 C   0  0  0  0  0  0  0  0  0  0  0  0
    7.2008   -9.0515    4.7150 C   0  0  0  0  0  0  0  0  0  0  0  0
    8.4214   -8.4560    4.3826 C   0  0  0  0  0  0  0  0  0  0  0  0
    8.4591   -7.1374    3.9245 C   0  0  0  0  0  0  0  0  0  0  0  0
    5.5746    2.3881    0.1430 H   0  0  0  0  0  0  0  0  0  0  0  0
    6.6708    1.3229    1.0688 H   0  0  0  0  0  0  0  0  0  0  0  0
    4.9855    0.8467    0.8170 H   0  0  0  0  0  0  0  0  0  0  0  0
    7.0933    1.1576   -1.4245 H   0  0  0  0  0  0  0  0  0  0  0  0
    5.4184    0.6902   -1.6905 H   0  0  0  0  0  0  0  0  0  0  0  0
    7.4520   -0.9385   -0.0249 H   0  0  0  0  0  0  0  0  0  0  0  0
    7.0653   -1.2294   -1.7371 H   0  0  0  0  0  0  0  0  0  0  0  0
    4.4778   -4.7627   -0.4034 H   0  0  0  0  0  0  0  0  0  0  0  0
    5.5130   -6.4405    1.4611 H   0  0  0  0  0  0  0  0  0  0  0  0
    8.9906   -0.9384    4.3232 H   0  0  0  0  0  0  0  0  0  0  0  0
    9.8322   -2.5276    6.3865 H   0  0  0  0  0  0  0  0  0  0  0  0
    8.8945   -5.0187    5.8337 H   0  0  0  0  0  0  0  0  0  0  0  0
    5.1225   -6.4324    4.0351 H   0  0  0  0  0  0  0  0  0  0  0  0
    5.0591   -8.7754    4.8531 H   0  0  0  0  0  0  0  0  0  0  0  0
    7.1732  -10.0820    5.0777 H   0  0  0  0  0  0  0  0  0  0  0  0
    9.3516   -9.0218    4.4778 H   0  0  0  0  0  0  0  0  0  0  0  0
    9.4132   -6.6786    3.6567 H   0  0  0  0  0  0  0  0  0  0  0  0
  1  2  1  0
  1 25  1  0
  1 26  1  0
  1 27  1  0
  2  3  1  0
  2 28  1  0
  2 29  1  0
  3  4  1  0
  3 30  1  0
  3 31  1  0
  4  5  2  0
  5  6  1  0
  5  9  1  0
  6  7  2  0
  6 32  1  0
  7  8  1  0
  7 33  1  0
  8  9  1  0
  8 18  2  0
  9 10  1  0
 10 11  1  1
 10 12  1  0
 10 13  1  0
 13 14  1  0
 13 17  1  0
 14 15  2  0
 14 34  1  0
 15 16  1  0
 15 35  1  0
 16 17  2  0
 16 36  1  0
 17 18  1  0
 18 19  1  0
 19 20  2  0
 19 24  1  0
 20 21  1  0
 20 37  1  0
 21 22  2  0
 21 38  1  0
 22 23  1  0
 22 39  1  0
 23 24  2  0
 23 40  1  0
 24 41  1  0
M  CHG  2   4   1  10  -1
M  END

