
     RDKit          3D

 54 57  0  0  0  0  0  0  0  0999 V2000
    0.8292    9.0380   -1.6152 C   0  0  0  0  0  0  0  0  0  0  0  0
    2.2398    9.1148   -1.5709 O   0  0  0  0  0  0  0  0  0  0  0  0
    2.9624    7.9922   -1.3546 C   0  0  0  0  0  0  0  0  0  0  0  0
    2.4134    6.7114   -1.1931 C   0  0  0  0  0  0  0  0  0  0  0  0
    3.2347    5.6135   -0.9362 C   0  0  0  0  0  0  0  0  0  0  0  0
    4.6245    5.7592   -0.8484 C   0  0  0  0  0  0  0  0  0  0  0  0
    5.4249    4.5234   -0.5522 C   0  0  0  0  0  0  0  0  0  0  0  0
    4.8942    3.5062   -0.1398 O   0  0  0  0  0  0  0  0  0  0  0  0
    6.7859    4.6356   -0.8031 N   0  0  0  0  0  0  0  0  0  0  0  0
    7.8289    3.7295   -0.5988 C   0  0  0  0  0  0  0  0  0  0  0  0
    9.0890    4.0802   -1.0154 C   0  0  0  0  0  0  0  0  0  0  0  0
   10.1539    3.1243   -0.8455 C   0  0  0  0  0  0  0  0  0  0  0  0
   11.2616    3.0269   -1.4845 N   0  0  0  0  0  0  0  0  0  0  0  0
   11.9010    1.8044   -1.0198 C   0  0  2  0  0  0  0  0  0  0  0  0
   12.7274    2.0991   -0.3322 H   0  0  0  0  0  0  0  0  0  0  0  0
   12.4687    0.9535   -2.1379 C   0  0  0  0  0  0  0  0  0  0  0  0
   13.0225    1.5504   -3.2746 C   0  0  0  0  0  0  0  0  0  0  0  0
   13.5819    0.7521   -4.2745 C   0  0  0  0  0  0  0  0  0  0  0  0
   13.6041   -0.6458   -4.1758 C   0  0  0  0  0  0  0  0  0  0  0  0
   14.2134   -1.4832   -5.2734 C   0  0  0  0  0  0  0  0  0  0  0  0
   13.0390   -1.2529   -3.0298 C   0  0  0  0  0  0  0  0  0  0  0  0
   13.0295   -2.7549   -2.8799 C   0  0  0  0  0  0  0  0  0  0  0  0
   12.4827   -0.4425   -2.0313 C   0  0  0  0  0  0  0  0  0  0  0  0
   10.9289    1.0650   -0.2568 O   0  0  0  0  0  0  0  0  0  0  0  0
    9.9819    2.0153    0.1732 C   0  0  2  0  0  0  0  0  0  0  0  0
   10.2749    2.4257    1.1740 H   0  0  0  0  0  0  0  0  0  0  0  0
    8.5643    1.5533    0.2889 C   0  0  0  0  0  0  0  0  0  0  0  0
    7.5604    2.3995   -0.0145 C   0  0  0  0  0  0  0  0  0  0  0  0
    5.1724    7.0449   -1.0142 C   0  0  0  0  0  0  0  0  0  0  0  0
    4.3705    8.1554   -1.2674 C   0  0  0  0  0  0  0  0  0  0  0  0
    4.9625    9.3805   -1.3425 O   0  0  0  0  0  0  0  0  0  0  0  0
    4.8721   10.0905   -2.5711 C   0  0  0  0  0  0  0  0  0  0  0  0
    0.4679   10.0616   -1.7791 H   0  0  0  0  0  0  0  0  0  0  0  0
    0.4136    8.6574   -0.6658 H   0  0  0  0  0  0  0  0  0  0  0  0
    0.4796    8.3962   -2.4431 H   0  0  0  0  0  0  0  0  0  0  0  0
    1.3349    6.5653   -1.2535 H   0  0  0  0  0  0  0  0  0  0  0  0
    2.8066    4.6202   -0.7940 H   0  0  0  0  0  0  0  0  0  0  0  0
    7.0759    5.5018   -1.2406 H   0  0  0  0  0  0  0  0  0  0  0  0
    9.2730    4.9955   -1.5835 H   0  0  0  0  0  0  0  0  0  0  0  0
   12.9994    2.6367   -3.3769 H   0  0  0  0  0  0  0  0  0  0  0  0
   14.0095    1.2283   -5.1621 H   0  0  0  0  0  0  0  0  0  0  0  0
   14.6046   -0.8540   -6.0863 H   0  0  0  0  0  0  0  0  0  0  0  0
   13.4783   -2.1797   -5.7124 H   0  0  0  0  0  0  0  0  0  0  0  0
   15.0458   -2.1043   -4.8998 H   0  0  0  0  0  0  0  0  0  0  0  0
   12.4828   -3.2443   -3.7045 H   0  0  0  0  0  0  0  0  0  0  0  0
   12.5537   -3.0590   -1.9363 H   0  0  0  0  0  0  0  0  0  0  0  0
   14.0507   -3.1734   -2.8916 H   0  0  0  0  0  0  0  0  0  0  0  0
   12.0358   -0.9070   -1.1499 H   0  0  0  0  0  0  0  0  0  0  0  0
    8.3628    0.5631    0.7064 H   0  0  0  0  0  0  0  0  0  0  0  0
    6.5189    2.1299    0.1438 H   0  0  0  0  0  0  0  0  0  0  0  0
    6.2411    7.2489   -0.9136 H   0  0  0  0  0  0  0  0  0  0  0  0
    5.4761   11.0004   -2.4500 H   0  0  0  0  0  0  0  0  0  0  0  0
    3.8348   10.3719   -2.8077 H   0  0  0  0  0  0  0  0  0  0  0  0
    5.2872    9.4953   -3.4049 H   0  0  0  0  0  0  0  0  0  0  0  0
  1  2  1  0
  1 33  1  0
  1 34  1  0
  1 35  1  0
  2  3  1  0
  3  4  2  0
  3 30  1  0
  4  5  1  0
  4 36  1  0
  5  6  2  0
  5 37  1  0
  6  7  1  0
  6 29  1  0
  7  8  2  0
  7  9  1  0
  9 10  1  0
  9 38  1  0
 10 11  2  0
 10 28  1  0
 11 12  1  0
 11 39  1  0
 12 13  2  0
 12 25  1  0
 13 14  1  0
 14 15  1  1
 14 16  1  0
 14 24  1  0
 16 17  2  0
 16 23  1  0
 17 18  1  0
 17 40  1  0
 18 19  2  0
 18 41  1  0
 19 20  1  0
 19 21  1  0
 20 42  1  0
 20 43  1  0
 20 44  1  0
 21 22  1  0
 21 23  2  0
 22 45  1  0
 22 46  1  0
 22 47  1  0
 23 48  1  0
 24 25  1  0
 25 26  1  1
 25 27  1  0
 27 28  2  0
 27 49  1  0
 28 50  1  0
 29 30  2  0
 29 51  1  0
 30 31  1  0
 31 32  1  0
 32 52  1  0
 32 53  1  0
 32 54  1  0
M  END

