
     RDKit          3D

 37 38  0  0  0  0  0  0  0  0999 V2000
    0.9675   -0.1471   -0.2705 C   0  0  0  0  0  0  0  0  0  0  0  0
    2.4842   -0.0618   -0.1460 C   0  0  0  0  0  0  0  0  0  0  0  0
    3.0341   -1.2691    0.4587 N   0  0  0  0  0  0  0  0  0  0  0  0
    4.4953   -1.2984    0.5428 C   0  0  1  0  0  0  0  0  0  0  0  0
    5.0100   -0.2523    1.5407 C   0  0  0  0  0  0  0  0  0  0  0  0
    4.6743   -0.3217    2.9015 C   0  0  0  0  0  0  0  0  0  0  0  0
    5.1665    0.6413    3.7756 C   0  0  0  0  0  0  0  0  0  0  0  0
    4.8410    0.5678    5.0726 F   0  0  0  0  0  0  0  0  0  0  0  0
    5.9922    1.6857    3.3573 C   0  0  0  0  0  0  0  0  0  0  0  0
    6.3053    1.7387    2.0041 C   0  0  0  0  0  0  0  0  0  0  0  0
    7.0844    2.7329    1.5583 F   0  0  0  0  0  0  0  0  0  0  0  0
    5.8277    0.7958    1.0925 C   0  0  0  0  0  0  0  0  0  0  0  0
    5.0507   -2.7033    0.8170 C   0  0  0  0  0  0  0  0  0  0  0  0
    4.4342   -3.7120    1.5867 C   0  0  0  0  0  0  0  0  0  0  0  0
    3.1849   -3.5366    2.4251 C   0  0  0  0  0  0  0  0  0  0  0  0
    5.0375   -4.9856    1.6142 C   0  0  0  0  0  0  0  0  0  0  0  0
    6.2117   -5.2086    0.9094 C   0  0  0  0  0  0  0  0  0  0  0  0
    6.8472   -4.2509    0.2359 N   0  0  0  0  0  0  0  0  0  0  0  0
    6.3031   -3.0316    0.2065 C   0  0  0  0  0  0  0  0  0  0  0  0
    7.0211   -2.0863   -0.5149 N   0  0  0  0  0  0  0  0  0  0  0  0
    0.5587    0.7744   -0.7131 H   0  0  0  0  0  0  0  0  0  0  0  0
    0.5007   -0.2960    0.7156 H   0  0  0  0  0  0  0  0  0  0  0  0
    0.6648   -0.9875   -0.9186 H   0  0  0  0  0  0  0  0  0  0  0  0
    2.7535    0.7984    0.4894 H   0  0  0  0  0  0  0  0  0  0  0  0
    2.9312    0.1467   -1.1454 H   0  0  0  0  0  0  0  0  0  0  0  0
    2.7266   -2.0846   -0.0721 H   0  0  0  0  0  0  0  0  0  0  0  0
    4.9249   -1.0073   -0.4376 H   0  0  0  0  0  0  0  0  0  0  0  0
    4.0328   -1.1108    3.2901 H   0  0  0  0  0  0  0  0  0  0  0  0
    6.3692    2.4291    4.0599 H   0  0  0  0  0  0  0  0  0  0  0  0
    6.0796    0.9125    0.0358 H   0  0  0  0  0  0  0  0  0  0  0  0
    2.6487   -2.6094    2.2011 H   0  0  0  0  0  0  0  0  0  0  0  0
    3.4600   -3.5401    3.4941 H   0  0  0  0  0  0  0  0  0  0  0  0
    2.5020   -4.3887    2.2776 H   0  0  0  0  0  0  0  0  0  0  0  0
    4.5776   -5.7936    2.1883 H   0  0  0  0  0  0  0  0  0  0  0  0
    6.6746   -6.2030    0.8985 H   0  0  0  0  0  0  0  0  0  0  0  0
    7.9284   -2.4473   -0.7956 H   0  0  0  0  0  0  0  0  0  0  0  0
    7.0734   -1.1528   -0.1221 H   0  0  0  0  0  0  0  0  0  0  0  0
  1  2  1  0
  1 21  1  0
  1 22  1  0
  1 23  1  0
  2  3  1  0
  2 24  1  0
  2 25  1  0
  3  4  1  0
  3 26  1  0
  4  5  1  0
  4 13  1  0
  4 27  1  6
  5  6  2  0
  5 12  1  0
  6  7  1  0
  6 28  1  0
  7  8  1  0
  7  9  2  0
  9 10  1  0
  9 29  1  0
 10 11  1  0
 10 12  2  0
 12 30  1  0
 13 14  2  0
 13 19  1  0
 14 15  1  0
 14 16  1  0
 15 31  1  0
 15 32  1  0
 15 33  1  0
 16 17  2  0
 16 34  1  0
 17 18  1  0
 17 35  1  0
 18 19  2  0
 19 20  1  0
 20 36  1  0
 20 37  1  0
M  END

