
     RDKit          3D

 26 25  0  0  0  0  0  0  0  0999 V2000
    0.8506   -0.0993    0.1099 C   0  0  0  0  0  0  0  0  0  0  0  0
    2.3812   -0.0563    0.1019 C   0  0  0  0  0  0  0  0  0  0  0  0
    2.9535    1.3412   -0.1626 C   0  0  0  0  0  0  0  0  0  0  0  0
    4.4855    1.3931   -0.1729 C   0  0  0  0  0  0  0  0  0  0  0  0
    5.0569    2.7909   -0.4369 C   0  0  0  0  0  0  0  0  0  0  0  0
    6.5889    2.8428   -0.4477 C   0  0  0  0  0  0  0  0  0  0  0  0
    7.1612    4.2404   -0.7114 C   0  0  0  0  0  0  0  0  0  0  0  0
    8.6917    4.2832   -0.7205 C   0  0  0  0  0  0  0  0  0  0  0  0
    0.4747   -1.1172    0.3027 H   0  0  0  0  0  0  0  0  0  0  0  0
    0.4358    0.2309   -0.8576 H   0  0  0  0  0  0  0  0  0  0  0  0
    0.4355    0.5620    0.8893 H   0  0  0  0  0  0  0  0  0  0  0  0
    2.7653   -0.7555   -0.6631 H   0  0  0  0  0  0  0  0  0  0  0  0
    2.7650   -0.4273    1.0698 H   0  0  0  0  0  0  0  0  0  0  0  0
    2.5705    2.0415    0.6032 H   0  0  0  0  0  0  0  0  0  0  0  0
    2.5700    1.7134   -1.1311 H   0  0  0  0  0  0  0  0  0  0  0  0
    4.8679    0.6932   -0.9389 H   0  0  0  0  0  0  0  0  0  0  0  0
    4.8684    1.0205    0.7954 H   0  0  0  0  0  0  0  0  0  0  0  0
    4.6748    3.4908    0.3294 H   0  0  0  0  0  0  0  0  0  0  0  0
    4.6737    3.1637   -1.4049 H   0  0  0  0  0  0  0  0  0  0  0  0
    6.9715    2.1431   -1.2142 H   0  0  0  0  0  0  0  0  0  0  0  0
    6.9727    2.4697    0.5203 H   0  0  0  0  0  0  0  0  0  0  0  0
    6.7778    4.9389    0.0548 H   0  0  0  0  0  0  0  0  0  0  0  0
    6.7766    4.6125   -1.6785 H   0  0  0  0  0  0  0  0  0  0  0  0
    9.1073    3.9519    0.2462 H   0  0  0  0  0  0  0  0  0  0  0  0
    9.0676    5.3013   -0.9125 H   0  0  0  0  0  0  0  0  0  0  0  0
    9.1060    3.6228   -1.5011 H   0  0  0  0  0  0  0  0  0  0  0  0
  1  2  1  0
  1  9  1  0
  1 10  1  0
  1 11  1  0
  2  3  1  0
  2 12  1  0
  2 13  1  0
  3  4  1  0
  3 14  1  0
  3 15  1  0
  4  5  1  0
  4 16  1  0
  4 17  1  0
  5  6  1  0
  5 18  1  0
  5 19  1  0
  6  7  1  0
  6 20  1  0
  6 21  1  0
  7  8  1  0
  7 22  1  0
  7 23  1  0
  8 24  1  0
  8 25  1  0
  8 26  1  0
M  END

