
     RDKit          3D

 31 33  0  0  0  0  0  0  0  0999 V2000
    1.0488   -0.1049    0.1944 C   0  0  0  0  0  0  0  0  0  0  0  0
    2.5408   -0.1897    0.0790 C   0  0  0  0  0  0  0  0  0  0  0  0
    3.2318    0.9247    0.0648 N   0  0  0  0  0  0  0  0  0  0  0  0
    4.5623    0.5523   -0.0498 O   0  0  0  0  0  0  0  0  0  0  0  0
    4.6698   -0.7774   -0.1029 C   0  0  0  0  0  0  0  0  0  0  0  0
    6.0365   -1.3476   -0.2276 C   0  0  0  0  0  0  0  0  0  0  0  0
    3.4086   -1.3368   -0.0254 C   0  0  0  0  0  0  0  0  0  0  0  0
    3.1766   -2.8013   -0.0561 C   0  0  0  0  0  0  0  0  0  0  0  0
    4.1108   -3.5845   -0.1638 O   0  0  0  0  0  0  0  0  0  0  0  0
    1.8597   -3.2006    0.0448 N   0  0  0  0  0  0  0  0  0  0  0  0
    1.3287   -4.5053    0.0439 C   0  0  0  0  0  0  0  0  0  0  0  0
    2.1234   -5.6624   -0.0706 C   0  0  0  0  0  0  0  0  0  0  0  0
    1.5447   -6.9442   -0.0660 C   0  0  0  0  0  0  0  0  0  0  0  0
    0.1722   -7.0230    0.0548 C   0  0  0  0  0  0  0  0  0  0  0  0
   -0.6134   -5.8824    0.1675 C   0  0  0  0  0  0  0  0  0  0  0  0
   -0.0799   -4.6111    0.1667 C   0  0  0  0  0  0  0  0  0  0  0  0
   -1.9294   -6.2655    0.2721 O   0  0  0  0  0  0  0  0  0  0  0  0
   -1.9509   -7.6555    0.2235 C   0  0  1  0  0  0  0  0  0  0  0  0
   -2.5097   -8.1429    1.3362 F   0  0  0  0  0  0  0  0  0  0  0  0
   -2.7035   -8.0652   -0.8029 F   0  0  0  0  0  0  0  0  0  0  0  0
   -0.6561   -8.1264    0.0891 O   0  0  0  0  0  0  0  0  0  0  0  0
    0.7478    0.9501    0.2419 H   0  0  0  0  0  0  0  0  0  0  0  0
    0.6847   -0.6023    1.1089 H   0  0  0  0  0  0  0  0  0  0  0  0
    0.5487   -0.5611   -0.6761 H   0  0  0  0  0  0  0  0  0  0  0  0
    6.7789   -0.5382   -0.2430 H   0  0  0  0  0  0  0  0  0  0  0  0
    6.1194   -1.9489   -1.1451 H   0  0  0  0  0  0  0  0  0  0  0  0
    6.2446   -2.0322    0.6078 H   0  0  0  0  0  0  0  0  0  0  0  0
    1.1711   -2.4650    0.1300 H   0  0  0  0  0  0  0  0  0  0  0  0
    3.1998   -5.5482   -0.1634 H   0  0  0  0  0  0  0  0  0  0  0  0
    2.1621   -7.8390   -0.1545 H   0  0  0  0  0  0  0  0  0  0  0  0
   -0.7218   -3.7329    0.2571 H   0  0  0  0  0  0  0  0  0  0  0  0
  1  2  1  0
  1 22  1  0
  1 23  1  0
  1 24  1  0
  2  3  2  0
  2  7  1  0
  3  4  1  0
  4  5  1  0
  5  6  1  0
  5  7  2  0
  6 25  1  0
  6 26  1  0
  6 27  1  0
  7  8  1  0
  8  9  2  0
  8 10  1  0
 10 11  1  0
 10 28  1  0
 11 12  2  0
 11 16  1  0
 12 13  1  0
 12 29  1  0
 13 14  2  0
 13 30  1  0
 14 15  1  0
 14 21  1  0
 15 16  2  0
 15 17  1  0
 16 31  1  0
 17 18  1  0
 18 19  1  1
 18 20  1  0
 18 21  1  0
M  END

