
     RDKit          3D

 63 67  0  0  0  0  0  0  0  0999 V2000
    1.5853   -3.3005   -1.4426 O   0  0  0  0  0  0  0  0  0  0  0  0
    1.8143   -2.2253   -0.9245 C   0  0  0  0  0  0  0  0  0  0  0  0
    1.6697   -1.9082    0.4189 N   0  0  0  0  0  0  0  0  0  0  0  0
    1.3334   -2.8019    1.4598 C   0  0  0  0  0  0  0  0  0  0  0  0
    0.8276   -4.0932    1.2030 C   0  0  0  0  0  0  0  0  0  0  0  0
    0.5010   -4.9378    2.2618 C   0  0  0  0  0  0  0  0  0  0  0  0
    0.6629   -4.5397    3.5953 C   0  0  0  0  0  0  0  0  0  0  0  0
    0.2712   -5.4549    4.7395 C   0  0  1  0  0  0  0  0  0  0  0  0
    0.9649   -5.1185    5.9151 O   0  0  0  0  0  0  0  0  0  0  0  0
    1.5046   -6.2076    6.6626 C   0  0  0  0  0  0  0  0  0  0  0  0
    1.9862   -5.7041    7.9965 C   0  0  0  0  0  0  0  0  0  0  0  0
    3.3397   -5.7345    8.3476 C   0  0  0  0  0  0  0  0  0  0  0  0
    3.7753   -5.2655    9.5907 C   0  0  0  0  0  0  0  0  0  0  0  0
    2.8512   -4.7424   10.5039 C   0  0  0  0  0  0  0  0  0  0  0  0
    3.2106   -4.2689   11.7245 O   0  0  0  0  0  0  0  0  0  0  0  0
    1.4896   -4.6975   10.1604 C   0  0  0  0  0  0  0  0  0  0  0  0
    1.0703   -5.1745    8.9231 C   0  0  0  0  0  0  0  0  0  0  0  0
   -1.2368   -5.3773    5.0406 C   0  0  1  0  0  0  0  0  0  0  0  0
   -1.9615   -5.7964    3.9884 F   0  0  0  0  0  0  0  0  0  0  0  0
   -1.5554   -6.1686    6.0864 F   0  0  0  0  0  0  0  0  0  0  0  0
   -1.6280   -4.1361    5.3442 F   0  0  0  0  0  0  0  0  0  0  0  0
    1.1662   -3.2602    3.8496 C   0  0  0  0  0  0  0  0  0  0  0  0
    1.5005   -2.4035    2.8014 C   0  0  0  0  0  0  0  0  0  0  0  0
    2.0307   -0.5140    0.6910 C   0  0  0  0  0  0  0  0  0  0  0  0
    2.0198    0.1465   -0.6906 C   0  0  0  0  0  0  0  0  0  0  0  0
    2.3752   -0.9942   -1.6648 C   0  0  2  0  0  0  0  0  0  0  0  0
    1.7555   -0.8704   -3.0834 C   0  0  0  0  0  0  0  0  0  0  0  0
    2.7670   -0.4904   -4.1794 C   0  0  0  0  0  0  0  0  0  0  0  0
    3.7929    0.5259   -3.6830 C   0  0  2  0  0  0  0  0  0  0  0  0
    4.6256   -0.0673   -2.5315 C   0  0  0  0  0  0  0  0  0  0  0  0
    3.9086   -1.2088   -1.7873 C   0  0  0  0  0  0  0  0  0  0  0  0
    3.0870    1.7067   -3.2672 O   0  0  0  0  0  0  0  0  0  0  0  0
    3.6645    2.8307   -3.9064 C   0  0  0  0  0  0  0  0  0  0  0  0
    4.2585    2.2172   -5.1712 C   0  0  0  0  0  0  0  0  0  0  0  0
    4.6780    0.9455   -4.7135 O   0  0  0  0  0  0  0  0  0  0  0  0
    0.7078   -4.4237    0.1749 H   0  0  0  0  0  0  0  0  0  0  0  0
    0.1075   -5.9323    2.0345 H   0  0  0  0  0  0  0  0  0  0  0  0
    0.4560   -6.5043    4.4441 H   0  0  0  0  0  0  0  0  0  0  0  0
    2.3390   -6.6726    6.1036 H   0  0  0  0  0  0  0  0  0  0  0  0
    0.7255   -6.9779    6.8072 H   0  0  0  0  0  0  0  0  0  0  0  0
    4.0743   -6.1317    7.6412 H   0  0  0  0  0  0  0  0  0  0  0  0
    4.8385   -5.3004    9.8496 H   0  0  0  0  0  0  0  0  0  0  0  0
    4.1664   -4.3559   11.8359 H   0  0  0  0  0  0  0  0  0  0  0  0
    0.7807   -4.2860   10.8818 H   0  0  0  0  0  0  0  0  0  0  0  0
    0.0097   -5.1332    8.6612 H   0  0  0  0  0  0  0  0  0  0  0  0
    1.3112   -2.9407    4.8825 H   0  0  0  0  0  0  0  0  0  0  0  0
    1.9025   -1.4200    3.0430 H   0  0  0  0  0  0  0  0  0  0  0  0
    3.0224   -0.4570    1.1765 H   0  0  0  0  0  0  0  0  0  0  0  0
    1.3029   -0.0559    1.3779 H   0  0  0  0  0  0  0  0  0  0  0  0
    2.6922    1.0110   -0.7568 H   0  0  0  0  0  0  0  0  0  0  0  0
    1.0044    0.5096   -0.9150 H   0  0  0  0  0  0  0  0  0  0  0  0
    0.9491   -0.1223   -3.0566 H   0  0  0  0  0  0  0  0  0  0  0  0
    1.2986   -1.8372   -3.3440 H   0  0  0  0  0  0  0  0  0  0  0  0
    2.2445   -0.0803   -5.0573 H   0  0  0  0  0  0  0  0  0  0  0  0
    3.3230   -1.3775   -4.5222 H   0  0  0  0  0  0  0  0  0  0  0  0
    4.8955    0.7551   -1.8510 H   0  0  0  0  0  0  0  0  0  0  0  0
    5.5648   -0.4447   -2.9632 H   0  0  0  0  0  0  0  0  0  0  0  0
    4.3624   -1.3476   -0.7923 H   0  0  0  0  0  0  0  0  0  0  0  0
    4.0630   -2.1590   -2.3227 H   0  0  0  0  0  0  0  0  0  0  0  0
    4.4523    3.2911   -3.2784 H   0  0  0  0  0  0  0  0  0  0  0  0
    2.8807    3.5799   -4.0971 H   0  0  0  0  0  0  0  0  0  0  0  0
    5.1305    2.7587   -5.5671 H   0  0  0  0  0  0  0  0  0  0  0  0
    3.4974    2.1320   -5.9713 H   0  0  0  0  0  0  0  0  0  0  0  0
  1  2  2  0
  2  3  1  0
 26  2  1  1
  3  4  1  0
  3 24  1  0
  4  5  2  0
  4 23  1  0
  5  6  1  0
  5 36  1  0
  6  7  2  0
  6 37  1  0
  7  8  1  0
  7 22  1  0
  8  9  1  0
  8 18  1  0
  8 38  1  6
  9 10  1  0
 10 11  1  0
 10 39  1  0
 10 40  1  0
 11 12  2  0
 11 17  1  0
 12 13  1  0
 12 41  1  0
 13 14  2  0
 13 42  1  0
 14 15  1  0
 14 16  1  0
 15 43  1  0
 16 17  2  0
 16 44  1  0
 17 45  1  0
 18 19  1  6
 18 20  1  0
 18 21  1  0
 22 23  2  0
 22 46  1  0
 23 47  1  0
 24 25  1  0
 24 48  1  0
 24 49  1  0
 25 26  1  0
 25 50  1  0
 25 51  1  0
 26 27  1  0
 26 31  1  0
 27 28  1  0
 27 52  1  0
 27 53  1  0
 28 29  1  0
 28 54  1  0
 28 55  1  0
 29 30  1  0
 29 32  1  1
 29 35  1  0
 30 31  1  0
 30 56  1  0
 30 57  1  0
 31 58  1  0
 31 59  1  0
 32 33  1  0
 33 34  1  0
 33 60  1  0
 33 61  1  0
 34 35  1  0
 34 62  1  0
 34 63  1  0
M  END

