
     RDKit          3D

 52 55  0  0  0  0  0  0  0  0999 V2000
    2.4504    3.5169   -2.8145 O   0  0  0  0  0  0  0  0  0  0  0  0
    2.5532    3.9075   -1.6649 C   0  0  0  0  0  0  0  0  0  0  0  0
    1.8421    3.1750   -0.5204 C   0  0  0  0  0  0  0  0  0  0  0  0
    2.9378    2.1567    0.5406 S   0  0  0  0  0  0  0  0  0  0  0  0
    3.4140    3.2995    1.8214 C   0  0  0  0  0  0  0  0  0  0  0  0
    3.1366    4.5877    1.6917 N   0  0  0  0  0  0  0  0  0  0  0  0
    3.3153    5.4080    2.7416 C   0  0  0  0  0  0  0  0  0  0  0  0
    3.7582    4.9028    3.9557 C   0  0  0  0  0  0  0  0  0  0  0  0
    4.1114    3.6195    4.0854 N   0  0  0  0  0  0  0  0  0  0  0  0
    4.0015    2.8012    3.0419 C   0  0  0  0  0  0  0  0  0  0  0  0
    4.3902    1.4792    3.1945 N   0  0  0  0  0  0  0  0  0  0  0  0
    4.6140    0.9859    4.5516 C   0  0  0  0  0  0  0  0  0  0  0  0
    4.4759   -0.5359    4.5909 C   0  0  0  0  0  0  0  0  0  0  0  0
    5.3675   -1.1708    3.6342 N   0  0  0  0  0  0  0  0  0  0  0  0
    5.6640   -2.5415    3.7906 C   0  0  0  0  0  0  0  0  0  0  0  0
    4.9766   -3.3620    4.7081 C   0  0  0  0  0  0  0  0  0  0  0  0
    5.3202   -4.7072    4.8775 C   0  0  0  0  0  0  0  0  0  0  0  0
    6.3443   -5.2543    4.1150 C   0  0  0  0  0  0  0  0  0  0  0  0
    6.6727   -6.5484    4.2692 F   0  0  0  0  0  0  0  0  0  0  0  0
    7.0396   -4.4752    3.1913 C   0  0  0  0  0  0  0  0  0  0  0  0
    6.7049   -3.1319    3.0392 C   0  0  0  0  0  0  0  0  0  0  0  0
    5.1756   -0.6595    2.2791 C   0  0  0  0  0  0  0  0  0  0  0  0
    5.3176    0.8571    2.2435 C   0  0  0  0  0  0  0  0  0  0  0  0
    3.2657    5.0000   -1.2533 N   0  0  0  0  0  0  0  0  0  0  0  0
    4.0533    5.8745   -2.0236 C   0  0  0  0  0  0  0  0  0  0  0  0
    4.1845    5.7720   -3.4217 C   0  0  0  0  0  0  0  0  0  0  0  0
    4.9839    6.6823   -4.1163 C   0  0  0  0  0  0  0  0  0  0  0  0
    5.6501    7.6904   -3.4258 C   0  0  0  0  0  0  0  0  0  0  0  0
    6.4168    8.5627   -4.1015 F   0  0  0  0  0  0  0  0  0  0  0  0
    5.5357    7.8110   -2.0429 C   0  0  0  0  0  0  0  0  0  0  0  0
    4.7385    6.9024   -1.3483 C   0  0  0  0  0  0  0  0  0  0  0  0
    1.1533    2.4546   -0.9792 H   0  0  0  0  0  0  0  0  0  0  0  0
    1.2849    3.8653    0.1296 H   0  0  0  0  0  0  0  0  0  0  0  0
    3.0720    6.4657    2.6053 H   0  0  0  0  0  0  0  0  0  0  0  0
    3.8440    5.5416    4.8410 H   0  0  0  0  0  0  0  0  0  0  0  0
    3.8806    1.4465    5.2253 H   0  0  0  0  0  0  0  0  0  0  0  0
    5.6186    1.2786    4.9143 H   0  0  0  0  0  0  0  0  0  0  0  0
    3.4122   -0.8063    4.4096 H   0  0  0  0  0  0  0  0  0  0  0  0
    4.7361   -0.8741    5.6046 H   0  0  0  0  0  0  0  0  0  0  0  0
    4.1522   -2.9626    5.2982 H   0  0  0  0  0  0  0  0  0  0  0  0
    4.7860   -5.3385    5.5906 H   0  0  0  0  0  0  0  0  0  0  0  0
    7.8488   -4.9243    2.6119 H   0  0  0  0  0  0  0  0  0  0  0  0
    7.2816   -2.5237    2.3402 H   0  0  0  0  0  0  0  0  0  0  0  0
    4.1717   -0.9348    1.8901 H   0  0  0  0  0  0  0  0  0  0  0  0
    5.9206   -1.0972    1.6027 H   0  0  0  0  0  0  0  0  0  0  0  0
    5.1283    1.2172    1.2245 H   0  0  0  0  0  0  0  0  0  0  0  0
    6.3581    1.1324    2.5108 H   0  0  0  0  0  0  0  0  0  0  0  0
    3.2494    5.1611   -0.2418 H   0  0  0  0  0  0  0  0  0  0  0  0
    3.6584    4.9784   -3.9471 H   0  0  0  0  0  0  0  0  0  0  0  0
    5.0946    6.6148   -5.2006 H   0  0  0  0  0  0  0  0  0  0  0  0
    6.0697    8.6102   -1.5252 H   0  0  0  0  0  0  0  0  0  0  0  0
    4.6470    6.9891   -0.2622 H   0  0  0  0  0  0  0  0  0  0  0  0
  1  2  2  0
  2  3  1  0
  2 24  1  0
  3  4  1  0
  3 32  1  0
  3 33  1  0
  4  5  1  0
  5  6  2  0
  5 10  1  0
  6  7  1  0
  7  8  2  0
  7 34  1  0
  8  9  1  0
  8 35  1  0
  9 10  2  0
 10 11  1  0
 11 12  1  0
 11 23  1  0
 12 13  1  0
 12 36  1  0
 12 37  1  0
 13 14  1  0
 13 38  1  0
 13 39  1  0
 14 15  1  0
 14 22  1  0
 15 16  2  0
 15 21  1  0
 16 17  1  0
 16 40  1  0
 17 18  2  0
 17 41  1  0
 18 19  1  0
 18 20  1  0
 20 21  2  0
 20 42  1  0
 21 43  1  0
 22 23  1  0
 22 44  1  0
 22 45  1  0
 23 46  1  0
 23 47  1  0
 24 25  1  0
 24 48  1  0
 25 26  2  0
 25 31  1  0
 26 27  1  0
 26 49  1  0
 27 28  2  0
 27 50  1  0
 28 29  1  0
 28 30  1  0
 30 31  2  0
 30 51  1  0
 31 52  1  0
M  END

