
     RDKit          3D

 42 43  0  0  0  0  0  0  0  0999 V2000
    0.7811    0.2995    0.0473 C   0  0  0  0  0  0  0  0  0  0  0  0
    2.2751    0.1431   -0.0992 C   0  0  0  0  0  0  0  0  0  0  0  0
    3.0431    1.0715   -0.8147 C   0  0  0  0  0  0  0  0  0  0  0  0
    4.4303    0.9308   -0.9272 C   0  0  0  0  0  0  0  0  0  0  0  0
    5.1032   -0.1420   -0.3284 C   0  0  0  0  0  0  0  0  0  0  0  0
    6.6203   -0.2752   -0.4292 C   0  0  1  0  0  0  0  0  0  0  0  0
    7.3074   -0.2124    0.8618 N   0  0  0  0  0  0  0  0  0  0  0  0
    7.0645   -1.5614   -1.1881 C   0  0  1  0  0  0  0  0  0  0  0  0
    6.3282   -1.7672   -2.5162 C   0  0  0  0  0  0  0  0  0  0  0  0
    8.5147   -1.5663   -1.3889 N   0  0  0  0  0  0  0  0  0  0  0  0
    9.1835   -0.7853   -2.3179 C   0  0  0  0  0  0  0  0  0  0  0  0
   10.5192   -1.0551   -2.1430 C   0  0  0  0  0  0  0  0  0  0  0  0
   10.6900   -1.9686   -1.1387 N   0  0  0  0  0  0  0  0  0  0  0  0
    9.4830   -2.2584   -0.6928 C   0  0  0  0  0  0  0  0  0  0  0  0
    9.2423   -3.2228    0.4438 C   0  0  1  0  0  0  0  0  0  0  0  0
    9.8091   -4.6112    0.1015 C   0  0  0  0  0  0  0  0  0  0  0  0
    9.8511   -2.6711    1.7450 C   0  0  0  0  0  0  0  0  0  0  0  0
    4.3329   -1.0741    0.3896 C   0  0  0  0  0  0  0  0  0  0  0  0
    2.9498   -0.9358    0.4991 C   0  0  0  0  0  0  0  0  0  0  0  0
    0.3764    1.0213   -0.6775 H   0  0  0  0  0  0  0  0  0  0  0  0
    0.5153    0.6600    1.0564 H   0  0  0  0  0  0  0  0  0  0  0  0
    0.2586   -0.6595   -0.0988 H   0  0  0  0  0  0  0  0  0  0  0  0
    2.5497    1.9217   -1.2947 H   0  0  0  0  0  0  0  0  0  0  0  0
    4.9998    1.6732   -1.4946 H   0  0  0  0  0  0  0  0  0  0  0  0
    6.9883    0.5758   -1.0262 H   0  0  0  0  0  0  0  0  0  0  0  0
    6.8646   -0.8403    1.5340 H   0  0  0  0  0  0  0  0  0  0  0  0
    7.2286    0.7235    1.2581 H   0  0  0  0  0  0  0  0  0  0  0  0
    6.8401   -2.4224   -0.5405 H   0  0  0  0  0  0  0  0  0  0  0  0
    6.4204   -0.8895   -3.1751 H   0  0  0  0  0  0  0  0  0  0  0  0
    5.2569   -1.9392   -2.3439 H   0  0  0  0  0  0  0  0  0  0  0  0
    6.7414   -2.6373   -3.0473 H   0  0  0  0  0  0  0  0  0  0  0  0
    8.6623   -0.1321   -3.0120 H   0  0  0  0  0  0  0  0  0  0  0  0
   11.3620   -0.6396   -2.6954 H   0  0  0  0  0  0  0  0  0  0  0  0
    8.1558   -3.3263    0.5972 H   0  0  0  0  0  0  0  0  0  0  0  0
   10.8869   -4.5349   -0.1077 H   0  0  0  0  0  0  0  0  0  0  0  0
    9.3243   -5.0357   -0.7922 H   0  0  0  0  0  0  0  0  0  0  0  0
    9.6620   -5.3132    0.9386 H   0  0  0  0  0  0  0  0  0  0  0  0
   10.9363   -2.5336    1.6217 H   0  0  0  0  0  0  0  0  0  0  0  0
    9.6786   -3.3635    2.5858 H   0  0  0  0  0  0  0  0  0  0  0  0
    9.4106   -1.6934    1.9902 H   0  0  0  0  0  0  0  0  0  0  0  0
    4.8156   -1.9300    0.8726 H   0  0  0  0  0  0  0  0  0  0  0  0
    2.3788   -1.6817    1.0603 H   0  0  0  0  0  0  0  0  0  0  0  0
  1  2  1  0
  1 20  1  0
  1 21  1  0
  1 22  1  0
  2  3  2  0
  2 19  1  0
  3  4  1  0
  3 23  1  0
  4  5  2  0
  4 24  1  0
  5  6  1  0
  5 18  1  0
  6  7  1  0
  6  8  1  0
  6 25  1  6
  7 26  1  0
  7 27  1  0
  8  9  1  0
  8 10  1  0
  8 28  1  1
  9 29  1  0
  9 30  1  0
  9 31  1  0
 10 11  1  0
 10 14  1  0
 11 12  2  0
 11 32  1  0
 12 13  1  0
 12 33  1  0
 13 14  2  0
 14 15  1  0
 15 16  1  0
 15 17  1  0
 15 34  1  1
 16 35  1  0
 16 36  1  0
 16 37  1  0
 17 38  1  0
 17 39  1  0
 17 40  1  0
 18 19  2  0
 18 41  1  0
 19 42  1  0
M  END

