
     RDKit          3D

 37 38  0  0  0  0  0  0  0  0999 V2000
    7.9442   -1.1492   -0.3223 C   0  0  0  0  0  0  0  0  0  0  0  0
    6.9282   -0.8607    0.7687 C   0  0  0  0  0  0  0  0  0  0  0  0
    5.6392   -0.9021    0.1851 O   0  0  0  0  0  0  0  0  0  0  0  0
    4.5010   -0.8400    1.0426 C   0  0  1  0  0  0  0  0  0  0  0  0
    4.4622    0.4605    1.8562 C   0  0  0  0  0  0  0  0  0  0  0  0
    3.3017   -0.9300    0.0915 C   0  0  0  0  0  0  0  0  0  0  0  0
    4.4927   -2.0583    1.9552 C   0  0  0  0  0  0  0  0  0  0  0  0
    4.4691   -1.9801    3.2615 N   0  0  0  0  0  0  0  0  0  0  0  0
    4.4671   -3.3097    3.6717 O   0  0  0  0  0  0  0  0  0  0  0  0
    4.4943   -4.0608    2.5607 C   0  0  0  0  0  0  0  0  0  0  0  0
    4.5529   -5.5483    2.7053 C   0  0  0  0  0  0  0  0  0  0  0  0
    5.9760   -6.0700    2.8469 C   0  0  0  0  0  0  0  0  0  0  0  0
    6.4146   -6.6665    4.0341 C   0  0  0  0  0  0  0  0  0  0  0  0
    7.7217   -7.1452    4.1619 C   0  0  0  0  0  0  0  0  0  0  0  0
    8.6200   -7.0283    3.0933 C   0  0  0  0  0  0  0  0  0  0  0  0
    9.9006   -7.4735    3.1556 O   0  0  0  0  0  0  0  0  0  0  0  0
    8.1931   -6.4275    1.8983 C   0  0  0  0  0  0  0  0  0  0  0  0
    6.8884   -5.9559    1.7835 C   0  0  0  0  0  0  0  0  0  0  0  0
    4.5075   -3.3491    1.4739 N   0  0  0  0  0  0  0  0  0  0  0  0
    8.9679   -1.1118    0.0824 H   0  0  0  0  0  0  0  0  0  0  0  0
    7.8616   -0.4078   -1.1324 H   0  0  0  0  0  0  0  0  0  0  0  0
    7.7722   -2.1468   -0.7544 H   0  0  0  0  0  0  0  0  0  0  0  0
    7.1269    0.1304    1.2207 H   0  0  0  0  0  0  0  0  0  0  0  0
    7.0192   -1.6082    1.5810 H   0  0  0  0  0  0  0  0  0  0  0  0
    4.5414    1.3153    1.1679 H   0  0  0  0  0  0  0  0  0  0  0  0
    5.2787    0.5151    2.5891 H   0  0  0  0  0  0  0  0  0  0  0  0
    3.5188    0.5404    2.4148 H   0  0  0  0  0  0  0  0  0  0  0  0
    3.3331   -0.0832   -0.6099 H   0  0  0  0  0  0  0  0  0  0  0  0
    2.3527   -0.9015    0.6476 H   0  0  0  0  0  0  0  0  0  0  0  0
    3.3551   -1.8661   -0.4811 H   0  0  0  0  0  0  0  0  0  0  0  0
    4.0743   -5.9768    1.8117 H   0  0  0  0  0  0  0  0  0  0  0  0
    3.9575   -5.8405    3.5824 H   0  0  0  0  0  0  0  0  0  0  0  0
    5.7280   -6.7640    4.8797 H   0  0  0  0  0  0  0  0  0  0  0  0
    8.0448   -7.6110    5.0984 H   0  0  0  0  0  0  0  0  0  0  0  0
   10.0673   -7.8609    4.0249 H   0  0  0  0  0  0  0  0  0  0  0  0
    8.9017   -6.3417    1.0720 H   0  0  0  0  0  0  0  0  0  0  0  0
    6.5692   -5.4824    0.8509 H   0  0  0  0  0  0  0  0  0  0  0  0
  1  2  1  0
  1 20  1  0
  1 21  1  0
  1 22  1  0
  2  3  1  0
  2 23  1  0
  2 24  1  0
  4  3  1  6
  4  5  1  0
  4  6  1  0
  4  7  1  0
  5 25  1  0
  5 26  1  0
  5 27  1  0
  6 28  1  0
  6 29  1  0
  6 30  1  0
  7  8  2  0
  7 19  1  0
  8  9  1  0
  9 10  1  0
 10 11  1  0
 10 19  2  0
 11 12  1  0
 11 31  1  0
 11 32  1  0
 12 13  2  0
 12 18  1  0
 13 14  1  0
 13 33  1  0
 14 15  2  0
 14 34  1  0
 15 16  1  0
 15 17  1  0
 16 35  1  0
 17 18  2  0
 17 36  1  0
 18 37  1  0
M  END

