
     RDKit          3D

 26 28  0  0  0  0  0  0  0  0999 V2000
    1.1553   -0.0692   -0.0810 C   0  0  0  0  0  0  0  0  0  0  0  0
    2.6363   -0.1899   -0.0802 C   0  0  0  0  0  0  0  0  0  0  0  0
    3.4813   -1.2603   -0.0800 C   0  0  0  0  0  0  0  0  0  0  0  0
    4.8155   -0.7179   -0.0793 C   0  0  0  0  0  0  0  0  0  0  0  0
    4.6649    0.6813   -0.0790 C   0  0  0  0  0  0  0  0  0  0  0  0
    3.3409    0.9932   -0.0796 O   0  0  0  0  0  0  0  0  0  0  0  0
    5.7205    1.6091   -0.0784 C   0  0  0  0  0  0  0  0  0  0  0  0
    5.4767    3.0972   -0.0783 C   0  0  0  0  0  0  0  0  0  0  0  0
    6.9938    1.0441   -0.0781 C   0  0  0  0  0  0  0  0  0  0  0  0
    7.2128   -0.3584   -0.0781 C   0  0  0  0  0  0  0  0  0  0  0  0
    8.5229   -0.9607   -0.0787 C   0  0  0  0  0  0  0  0  0  0  0  0
    8.6743   -2.3089   -0.0787 C   0  0  0  0  0  0  0  0  0  0  0  0
    7.5259   -3.2132   -0.0748 C   0  0  0  0  0  0  0  0  0  0  0  0
    7.5566   -4.4148   -0.0838 O   0  0  0  0  0  0  0  0  0  0  0  0
    6.2778   -2.5885   -0.0785 O   0  0  0  0  0  0  0  0  0  0  0  0
    6.1162   -1.2445   -0.0787 C   0  0  0  0  0  0  0  0  0  0  0  0
    0.6938   -1.0657   -0.0809 H   0  0  0  0  0  0  0  0  0  0  0  0
    0.8026    0.4812   -0.9693 H   0  0  0  0  0  0  0  0  0  0  0  0
    0.8017    0.4817    0.8066 H   0  0  0  0  0  0  0  0  0  0  0  0
    3.1983   -2.3097   -0.0802 H   0  0  0  0  0  0  0  0  0  0  0  0
    4.4020    3.3237   -0.0797 H   0  0  0  0  0  0  0  0  0  0  0  0
    5.9253    3.5750   -0.9645 H   0  0  0  0  0  0  0  0  0  0  0  0
    5.9228    3.5744    0.8096 H   0  0  0  0  0  0  0  0  0  0  0  0
    7.8696    1.6996   -0.0780 H   0  0  0  0  0  0  0  0  0  0  0  0
    9.4012   -0.3080   -0.0801 H   0  0  0  0  0  0  0  0  0  0  0  0
    9.6524   -2.7913   -0.0807 H   0  0  0  0  0  0  0  0  0  0  0  0
  1  2  1  0
  1 17  1  0
  1 18  1  0
  1 19  1  0
  2  3  2  0
  2  6  1  0
  3  4  1  0
  3 20  1  0
  4  5  2  0
  4 16  1  0
  5  6  1  0
  5  7  1  0
  7  8  1  0
  7  9  2  0
  8 21  1  0
  8 22  1  0
  8 23  1  0
  9 10  1  0
  9 24  1  0
 10 11  1  0
 10 16  2  0
 11 12  2  0
 11 25  1  0
 12 13  1  0
 12 26  1  0
 13 14  2  0
 13 15  1  0
 15 16  1  0
M  END

