
     RDKit          3D

 34 35  0  0  0  0  0  0  0  0999 V2000
    2.2743   -4.5634   -3.1561 C   0  0  0  0  0  0  0  0  0  0  0  0
    3.8965   -3.7775   -3.0614 S   0  0  1  0  0  0  0  0  0  0  0  0
    4.5680   -4.3422   -1.8675 O   0  0  0  0  0  0  0  0  0  0  0  0
    4.5301   -3.8865   -4.3798 O   0  0  0  0  0  0  0  0  0  0  0  0
    3.5599   -2.0349   -2.7344 C   0  0  0  0  0  0  0  0  0  0  0  0
    3.7583   -1.1390   -3.7876 C   0  0  0  0  0  0  0  0  0  0  0  0
    3.4720    0.2146   -3.6092 C   0  0  0  0  0  0  0  0  0  0  0  0
    2.9816    0.6526   -2.3748 C   0  0  0  0  0  0  0  0  0  0  0  0
    2.7957   -0.2329   -1.3122 C   0  0  0  0  0  0  0  0  0  0  0  0
    3.0988   -1.5976   -1.4682 C   0  0  0  0  0  0  0  0  0  0  0  0
    2.9553   -2.5311   -0.4346 N   0  0  0  0  0  0  0  0  0  0  0  0
    2.0856   -2.4835    0.6300 C   0  0  0  0  0  0  0  0  0  0  0  0
    1.4222   -1.5112    0.9408 O   0  0  0  0  0  0  0  0  0  0  0  0
    1.9403   -3.8412    1.3238 C   0  0  1  0  0  0  0  0  0  0  0  0
    1.4277   -3.7916    2.7786 C   0  0  0  0  0  0  0  0  0  0  0  0
    0.5454   -5.0624    2.9150 C   0  0  0  0  0  0  0  0  0  0  0  0
    0.5860   -5.7107    1.5050 C   0  0  0  0  0  0  0  0  0  0  0  0
    0.9630   -4.6483    0.5633 N   0  0  0  0  0  0  0  0  0  0  0  0
    2.4925   -5.6067   -3.4263 H   0  0  0  0  0  0  0  0  0  0  0  0
    1.6860   -4.0757   -3.9439 H   0  0  0  0  0  0  0  0  0  0  0  0
    1.7829   -4.5199   -2.1730 H   0  0  0  0  0  0  0  0  0  0  0  0
    4.1336   -1.5249   -4.7372 H   0  0  0  0  0  0  0  0  0  0  0  0
    3.6263    0.9198   -4.4285 H   0  0  0  0  0  0  0  0  0  0  0  0
    2.7451    1.7095   -2.2276 H   0  0  0  0  0  0  0  0  0  0  0  0
    2.4131    0.1114   -0.3538 H   0  0  0  0  0  0  0  0  0  0  0  0
    3.4744   -3.4012   -0.5750 H   0  0  0  0  0  0  0  0  0  0  0  0
    2.9068   -4.3750    1.2827 H   0  0  0  0  0  0  0  0  0  0  0  0
    0.8387   -2.8729    2.9144 H   0  0  0  0  0  0  0  0  0  0  0  0
    2.2559   -3.7653    3.5028 H   0  0  0  0  0  0  0  0  0  0  0  0
   -0.4861   -4.7929    3.1912 H   0  0  0  0  0  0  0  0  0  0  0  0
    0.9139   -5.7516    3.6902 H   0  0  0  0  0  0  0  0  0  0  0  0
   -0.3647   -6.1743    1.2014 H   0  0  0  0  0  0  0  0  0  0  0  0
    1.3596   -6.4965    1.4674 H   0  0  0  0  0  0  0  0  0  0  0  0
    0.1418   -4.0591    0.4015 H   0  0  0  0  0  0  0  0  0  0  0  0
  2  1  1  6
  1 19  1  0
  1 20  1  0
  1 21  1  0
  2  3  2  0
  2  4  2  0
  2  5  1  0
  5  6  2  0
  5 10  1  0
  6  7  1  0
  6 22  1  0
  7  8  2  0
  7 23  1  0
  8  9  1  0
  8 24  1  0
  9 10  2  0
  9 25  1  0
 10 11  1  0
 11 12  1  0
 11 26  1  0
 12 13  2  0
 12 14  1  0
 14 15  1  0
 14 18  1  0
 14 27  1  1
 15 16  1  0
 15 28  1  0
 15 29  1  0
 16 17  1  0
 16 30  1  0
 16 31  1  0
 17 18  1  0
 17 32  1  0
 17 33  1  0
 18 34  1  0
M  END

