
     RDKit          3D

 34 37  0  0  0  0  0  0  0  0999 V2000
    4.3856    0.8501    2.1007 C   0  0  0  0  0  0  0  0  0  0  0  0
    3.8735    0.4610    0.8010 N   0  0  0  0  0  0  0  0  0  0  0  0
    3.2363    1.2424   -0.1421 C   0  0  0  0  0  0  0  0  0  0  0  0
    2.9258    2.5879    0.0578 N   0  0  0  0  0  0  0  0  0  0  0  0
    2.2201    3.1011    1.1356 C   0  0  0  0  0  0  0  0  0  0  0  0
    1.9680    2.4660    2.1456 O   0  0  0  0  0  0  0  0  0  0  0  0
    1.8019    4.5093    0.9669 C   0  0  0  0  0  0  0  0  0  0  0  0
    1.1346    5.3006    1.9294 C   0  0  0  0  0  0  0  0  0  0  0  0
    0.8552    6.5322    1.5024 N   0  0  0  0  0  0  0  0  0  0  0  0
    1.3326    6.5676    0.2445 N   0  0  0  0  0  0  0  0  0  0  0  0
    1.2755    7.6222   -0.6096 C   0  0  0  0  0  0  0  0  0  0  0  0
    1.8139    7.4621   -1.8632 C   0  0  0  0  0  0  0  0  0  0  0  0
    2.3981    6.2076   -2.2024 C   0  0  0  0  0  0  0  0  0  0  0  0
    2.4539    5.1889   -1.3697 N   0  0  0  0  0  0  0  0  0  0  0  0
    1.9260    5.3556   -0.1441 C   0  0  0  0  0  0  0  0  0  0  0  0
    3.0040    0.6327   -1.2783 N   0  0  0  0  0  0  0  0  0  0  0  0
    3.4950   -0.6455   -1.1020 C   0  0  0  0  0  0  0  0  0  0  0  0
    3.5176   -1.7376   -1.9825 C   0  0  0  0  0  0  0  0  0  0  0  0
    4.0732   -2.9348   -1.5328 C   0  0  0  0  0  0  0  0  0  0  0  0
    4.6008   -3.0553   -0.2303 C   0  0  0  0  0  0  0  0  0  0  0  0
    4.5872   -1.9821    0.6631 C   0  0  0  0  0  0  0  0  0  0  0  0
    4.0319   -0.7828    0.2052 C   0  0  0  0  0  0  0  0  0  0  0  0
    4.6668    1.9112    2.0821 H   0  0  0  0  0  0  0  0  0  0  0  0
    5.2851    0.2560    2.3177 H   0  0  0  0  0  0  0  0  0  0  0  0
    3.6367    0.7100    2.8925 H   0  0  0  0  0  0  0  0  0  0  0  0
    2.9149    3.1403   -0.8025 H   0  0  0  0  0  0  0  0  0  0  0  0
    0.8506    4.9911    2.9346 H   0  0  0  0  0  0  0  0  0  0  0  0
    0.7986    8.5267   -0.2286 H   0  0  0  0  0  0  0  0  0  0  0  0
    1.7900    8.2808   -2.5824 H   0  0  0  0  0  0  0  0  0  0  0  0
    2.8302    6.0597   -3.1980 H   0  0  0  0  0  0  0  0  0  0  0  0
    3.1053   -1.6379   -2.9888 H   0  0  0  0  0  0  0  0  0  0  0  0
    4.1002   -3.8006   -2.1994 H   0  0  0  0  0  0  0  0  0  0  0  0
    5.0260   -4.0102    0.0889 H   0  0  0  0  0  0  0  0  0  0  0  0
    4.9894   -2.0859    1.6732 H   0  0  0  0  0  0  0  0  0  0  0  0
  1  2  1  0
  1 23  1  0
  1 24  1  0
  1 25  1  0
  2  3  1  0
  2 22  1  0
  3  4  1  0
  3 16  2  0
  4  5  1  0
  4 26  1  0
  5  6  2  0
  5  7  1  0
  7  8  1  0
  7 15  2  0
  8  9  2  0
  8 27  1  0
  9 10  1  0
 10 11  1  0
 10 15  1  0
 11 12  2  0
 11 28  1  0
 12 13  1  0
 12 29  1  0
 13 14  2  0
 13 30  1  0
 14 15  1  0
 16 17  1  0
 17 18  1  0
 17 22  2  0
 18 19  2  0
 18 31  1  0
 19 20  1  0
 19 32  1  0
 20 21  2  0
 20 33  1  0
 21 22  1  0
 21 34  1  0
M  END

