
     RDKit          3D

 51 54  0  0  0  0  0  0  0  0999 V2000
    4.0003   -0.7317   -1.0776 C   0  0  0  0  0  0  0  0  0  0  0  0
    2.7062    0.0261   -0.7908 C   0  0  0  0  0  0  0  0  0  0  0  0
    2.9301    1.3943   -0.2851 N   0  0  0  0  0  0  0  0  0  0  0  0
    3.0333    1.6859    1.0641 C   0  0  0  0  0  0  0  0  0  0  0  0
    2.8742    0.2877    2.1619 S   0  0  0  0  0  0  0  0  0  0  0  0
    3.3075    1.0267    3.7821 C   0  0  0  0  0  0  0  0  0  0  0  0
    2.1229    1.6006    4.5738 C   0  0  0  0  0  0  0  0  0  0  0  0
    1.6997    1.0219    5.5580 O   0  0  0  0  0  0  0  0  0  0  0  0
    1.6525    2.7802    4.0678 N   0  0  0  0  0  0  0  0  0  0  0  0
    0.5735    3.5651    4.5160 C   0  0  0  0  0  0  0  0  0  0  0  0
   -0.1729    3.2654    5.6650 C   0  0  0  0  0  0  0  0  0  0  0  0
   -1.2235    4.1178    6.0259 C   0  0  0  0  0  0  0  0  0  0  0  0
   -1.5441    5.2460    5.2785 C   0  0  0  0  0  0  0  0  0  0  0  0
   -0.7956    5.5426    4.1257 C   0  0  0  0  0  0  0  0  0  0  0  0
   -1.1653    6.6570    3.4417 O   0  0  0  0  0  0  0  0  0  0  0  0
   -0.4801    7.0053    2.2618 C   0  0  0  0  0  0  0  0  0  0  0  0
    0.2592    4.7055    3.7458 C   0  0  0  0  0  0  0  0  0  0  0  0
    3.2341    2.8692    1.5480 N   0  0  0  0  0  0  0  0  0  0  0  0
    3.3959    3.9428    0.6868 C   0  0  0  0  0  0  0  0  0  0  0  0
    3.6359    5.2169    1.1927 C   0  0  0  0  0  0  0  0  0  0  0  0
    3.7918    6.3274    0.3309 C   0  0  0  0  0  0  0  0  0  0  0  0
    4.0378    7.6433    0.8258 C   0  0  0  0  0  0  0  0  0  0  0  0
    4.1831    8.7055   -0.0384 C   0  0  0  0  0  0  0  0  0  0  0  0
    4.0928    8.5137   -1.4446 C   0  0  0  0  0  0  0  0  0  0  0  0
    3.8589    7.2583   -1.9585 C   0  0  0  0  0  0  0  0  0  0  0  0
    3.7024    6.1338   -1.0955 C   0  0  0  0  0  0  0  0  0  0  0  0
    3.4638    4.8323   -1.5917 C   0  0  0  0  0  0  0  0  0  0  0  0
    3.3127    3.7581   -0.7284 C   0  0  0  0  0  0  0  0  0  0  0  0
    3.0663    2.4095   -1.2654 C   0  0  0  0  0  0  0  0  0  0  0  0
    2.9834    2.1389   -2.4486 O   0  0  0  0  0  0  0  0  0  0  0  0
    3.7637   -1.7390   -1.4548 H   0  0  0  0  0  0  0  0  0  0  0  0
    4.6121   -0.8434   -0.1696 H   0  0  0  0  0  0  0  0  0  0  0  0
    4.5903   -0.2110   -1.8461 H   0  0  0  0  0  0  0  0  0  0  0  0
    2.0780   -0.5081   -0.0640 H   0  0  0  0  0  0  0  0  0  0  0  0
    2.1248    0.1391   -1.7146 H   0  0  0  0  0  0  0  0  0  0  0  0
    4.0918    1.7764    3.6057 H   0  0  0  0  0  0  0  0  0  0  0  0
    3.7081    0.1882    4.3654 H   0  0  0  0  0  0  0  0  0  0  0  0
    2.1381    3.0998    3.2248 H   0  0  0  0  0  0  0  0  0  0  0  0
    0.0718    2.3843    6.2519 H   0  0  0  0  0  0  0  0  0  0  0  0
   -1.8066    3.8868    6.9214 H   0  0  0  0  0  0  0  0  0  0  0  0
   -2.3628    5.9118    5.5570 H   0  0  0  0  0  0  0  0  0  0  0  0
   -0.9535    7.9210    1.8821 H   0  0  0  0  0  0  0  0  0  0  0  0
   -0.5580    6.2176    1.4903 H   0  0  0  0  0  0  0  0  0  0  0  0
    0.5902    7.2096    2.4477 H   0  0  0  0  0  0  0  0  0  0  0  0
    0.8481    4.9184    2.8531 H   0  0  0  0  0  0  0  0  0  0  0  0
    3.7107    5.3503    2.2743 H   0  0  0  0  0  0  0  0  0  0  0  0
    4.1111    7.7940    1.9060 H   0  0  0  0  0  0  0  0  0  0  0  0
    4.3713    9.7072    0.3562 H   0  0  0  0  0  0  0  0  0  0  0  0
    4.2113    9.3686   -2.1146 H   0  0  0  0  0  0  0  0  0  0  0  0
    3.7899    7.1036   -3.0385 H   0  0  0  0  0  0  0  0  0  0  0  0
    3.3941    4.6516   -2.6668 H   0  0  0  0  0  0  0  0  0  0  0  0
  1  2  1  0
  1 31  1  0
  1 32  1  0
  1 33  1  0
  2  3  1  0
  2 34  1  0
  2 35  1  0
  3  4  1  0
  3 29  1  0
  4  5  2  0
  4 18  1  0
  5  6  1  0
  6  7  1  0
  6 36  1  0
  6 37  1  0
  7  8  2  0
  7  9  1  0
  9 10  1  0
  9 38  1  0
 10 11  2  0
 10 17  1  0
 11 12  1  0
 11 39  1  0
 12 13  2  0
 12 40  1  0
 13 14  1  0
 13 41  1  0
 14 15  1  0
 14 17  2  0
 15 16  1  0
 16 42  1  0
 16 43  1  0
 16 44  1  0
 17 45  1  0
 18 19  2  0
 19 20  1  0
 19 28  1  0
 20 21  2  0
 20 46  1  0
 21 22  1  0
 21 26  1  0
 22 23  2  0
 22 47  1  0
 23 24  1  0
 23 48  1  0
 24 25  2  0
 24 49  1  0
 25 26  1  0
 25 50  1  0
 26 27  2  0
 27 28  1  0
 27 51  1  0
 28 29  2  0
 29 30  1  0
M  CHG  2   5   1  30  -1
M  END

