
     RDKit          3D

 39 39  0  0  0  0  0  0  0  0999 V2000
    0.9126    0.2749    0.0519 C   0  0  0  0  0  0  0  0  0  0  0  0
    2.4246    0.0495    0.0937 C   0  0  0  0  0  0  0  0  0  0  0  0
    2.8733   -1.2272   -0.6245 C   0  0  0  0  0  0  0  0  0  0  0  0
    4.3865   -1.4531   -0.5885 C   0  0  0  0  0  0  0  0  0  0  0  0
    4.8331   -2.7276   -1.3024 C   0  0  0  0  0  0  0  0  0  0  0  0
    6.2789   -2.8706   -1.2703 N   0  0  0  0  0  0  0  0  0  0  0  0
    6.8108   -4.0888   -1.8482 C   0  0  1  0  0  0  0  0  0  0  0  0
    6.6958   -4.0085   -3.3844 C   0  0  0  0  0  0  0  0  0  0  0  0
    7.4516   -3.3909   -4.0823 O   0  0  0  0  0  0  0  0  0  0  0  0
    5.6423   -4.6626   -3.9199 O   0  0  0  0  0  0  0  0  0  0  0  0
    8.2909   -4.2498   -1.4423 C   0  0  1  0  0  0  0  0  0  0  0  0
    8.3115   -4.1147   -0.0269 O   0  0  0  0  0  0  0  0  0  0  0  0
    8.8916   -5.5737   -1.8938 C   0  0  0  0  0  0  0  0  0  0  0  0
    9.5598   -5.6824   -3.1236 C   0  0  0  0  0  0  0  0  0  0  0  0
   10.0936   -6.9076   -3.5337 C   0  0  0  0  0  0  0  0  0  0  0  0
    9.9704   -8.0377   -2.7199 C   0  0  0  0  0  0  0  0  0  0  0  0
    9.3109   -7.9366   -1.4909 C   0  0  0  0  0  0  0  0  0  0  0  0
    8.7753   -6.7128   -1.0809 C   0  0  0  0  0  0  0  0  0  0  0  0
    0.6265    1.2001    0.5771 H   0  0  0  0  0  0  0  0  0  0  0  0
    0.3691   -0.5589    0.5274 H   0  0  0  0  0  0  0  0  0  0  0  0
    0.5478    0.3555   -0.9859 H   0  0  0  0  0  0  0  0  0  0  0  0
    2.7637    0.0118    1.1451 H   0  0  0  0  0  0  0  0  0  0  0  0
    2.9404    0.9173   -0.3557 H   0  0  0  0  0  0  0  0  0  0  0  0
    2.5349   -1.1899   -1.6768 H   0  0  0  0  0  0  0  0  0  0  0  0
    2.3587   -2.0968   -0.1743 H   0  0  0  0  0  0  0  0  0  0  0  0
    4.7270   -1.4925    0.4635 H   0  0  0  0  0  0  0  0  0  0  0  0
    4.9103   -0.5973   -1.0479 H   0  0  0  0  0  0  0  0  0  0  0  0
    4.4973   -2.6855   -2.3541 H   0  0  0  0  0  0  0  0  0  0  0  0
    4.3101   -3.6057   -0.8500 H   0  0  0  0  0  0  0  0  0  0  0  0
    6.6314   -2.8025   -0.3162 H   0  0  0  0  0  0  0  0  0  0  0  0
    6.2666   -4.9996   -1.4939 H   0  0  0  0  0  0  0  0  0  0  0  0
    5.1594   -5.1325   -3.2244 H   0  0  0  0  0  0  0  0  0  0  0  0
    8.8306   -3.4163   -1.9249 H   0  0  0  0  0  0  0  0  0  0  0  0
    9.2333   -4.1028    0.2623 H   0  0  0  0  0  0  0  0  0  0  0  0
    9.6510   -4.8029   -3.7650 H   0  0  0  0  0  0  0  0  0  0  0  0
   10.6116   -6.9775   -4.4938 H   0  0  0  0  0  0  0  0  0  0  0  0
   10.3912   -8.9942   -3.0407 H   0  0  0  0  0  0  0  0  0  0  0  0
    9.2154   -8.8147   -0.8466 H   0  0  0  0  0  0  0  0  0  0  0  0
    8.2731   -6.6252   -0.1148 H   0  0  0  0  0  0  0  0  0  0  0  0
  1  2  1  0
  1 19  1  0
  1 20  1  0
  1 21  1  0
  2  3  1  0
  2 22  1  0
  2 23  1  0
  3  4  1  0
  3 24  1  0
  3 25  1  0
  4  5  1  0
  4 26  1  0
  4 27  1  0
  5  6  1  0
  5 28  1  0
  5 29  1  0
  6  7  1  0
  6 30  1  0
  7  8  1  0
  7 11  1  0
  7 31  1  1
  8  9  2  0
  8 10  1  0
 10 32  1  0
 11 12  1  0
 11 13  1  0
 11 33  1  6
 12 34  1  0
 13 14  2  0
 13 18  1  0
 14 15  1  0
 14 35  1  0
 15 16  2  0
 15 36  1  0
 16 17  1  0
 16 37  1  0
 17 18  2  0
 17 38  1  0
 18 39  1  0
M  END

