
     RDKit          3D

 49 50  0  0  0  0  0  0  0  0999 V2000
    1.3690    4.2312   -3.6251 C   0  0  0  0  0  0  0  0  0  0  0  0
    1.5958    3.4982   -2.2991 C   0  0  1  0  0  0  0  0  0  0  0  0
    1.6706    4.4617   -1.1103 C   0  0  0  0  0  0  0  0  0  0  0  0
    0.5162    2.4386   -2.0723 C   0  0  0  0  0  0  0  0  0  0  0  0
    2.8251    2.6978   -2.3737 O   0  0  0  0  0  0  0  0  0  0  0  0
    4.0345    3.2605   -2.5715 C   0  0  0  0  0  0  0  0  0  0  0  0
    4.2606    4.4436   -2.7035 O   0  0  0  0  0  0  0  0  0  0  0  0
    4.9759    2.2535   -2.5977 N   0  0  0  0  0  0  0  0  0  0  0  0
    6.3629    2.3555   -2.7817 C   0  0  0  0  0  0  0  0  0  0  0  0
    7.0318    3.5745   -2.9907 C   0  0  0  0  0  0  0  0  0  0  0  0
    8.4174    3.5709   -3.1697 C   0  0  0  0  0  0  0  0  0  0  0  0
    9.1566    2.3871   -3.1565 C   0  0  0  0  0  0  0  0  0  0  0  0
    8.4940    1.1716   -2.9262 C   0  0  0  0  0  0  0  0  0  0  0  0
    9.3509   -0.4048   -2.9650 S   0  0  0  0  0  0  0  0  0  0  0  0
   10.6897   -0.1537   -1.7422 C   0  0  0  0  0  0  0  0  0  0  0  0
   10.1794   -0.1069   -0.3106 C   0  0  0  0  0  0  0  0  0  0  0  0
   11.3095    0.0486    0.5373 O   0  0  0  0  0  0  0  0  0  0  0  0
   11.1436    0.1339    1.8771 C   0  0  0  0  0  0  0  0  0  0  0  0
    9.9011    0.0756    2.5319 C   0  0  0  0  0  0  0  0  0  0  0  0
    9.8409    0.1737    3.9277 C   0  0  0  0  0  0  0  0  0  0  0  0
   10.9951    0.3287    4.6919 C   0  0  0  0  0  0  0  0  0  0  0  0
   12.2170    0.3832    4.0156 C   0  0  0  0  0  0  0  0  0  0  0  0
   13.4629    0.5474    4.8012 N   0  0  0  0  0  0  0  0  0  0  0  0
   13.3557    0.6273    6.0140 O   0  0  0  0  0  0  0  0  0  0  0  0
   14.5168    0.5924    4.1886 O   0  0  0  0  0  0  0  0  0  0  0  0
   12.3172    0.2900    2.6332 C   0  0  0  0  0  0  0  0  0  0  0  0
    7.1081    1.1614   -2.7381 C   0  0  0  0  0  0  0  0  0  0  0  0
    0.3920    4.7386   -3.6047 H   0  0  0  0  0  0  0  0  0  0  0  0
    1.3639    3.5163   -4.4628 H   0  0  0  0  0  0  0  0  0  0  0  0
    2.1505    4.9806   -3.8031 H   0  0  0  0  0  0  0  0  0  0  0  0
    0.7049    4.9771   -0.9910 H   0  0  0  0  0  0  0  0  0  0  0  0
    2.4550    5.2147   -1.2580 H   0  0  0  0  0  0  0  0  0  0  0  0
    1.8784    3.9089   -0.1807 H   0  0  0  0  0  0  0  0  0  0  0  0
   -0.4734    2.9139   -1.9976 H   0  0  0  0  0  0  0  0  0  0  0  0
    0.7073    1.8828   -1.1418 H   0  0  0  0  0  0  0  0  0  0  0  0
    0.4961    1.7206   -2.9062 H   0  0  0  0  0  0  0  0  0  0  0  0
    4.6005    1.3205   -2.4728 H   0  0  0  0  0  0  0  0  0  0  0  0
    6.4632    4.5011   -3.0133 H   0  0  0  0  0  0  0  0  0  0  0  0
    8.9293    4.5214   -3.3415 H   0  0  0  0  0  0  0  0  0  0  0  0
   10.2331    2.4066   -3.3372 H   0  0  0  0  0  0  0  0  0  0  0  0
   11.2636    0.7548   -1.9764 H   0  0  0  0  0  0  0  0  0  0  0  0
   11.3649   -1.0126   -1.8773 H   0  0  0  0  0  0  0  0  0  0  0  0
    9.6364   -1.0384   -0.0689 H   0  0  0  0  0  0  0  0  0  0  0  0
    9.4819    0.7397   -0.1790 H   0  0  0  0  0  0  0  0  0  0  0  0
    8.9779   -0.0451    1.9655 H   0  0  0  0  0  0  0  0  0  0  0  0
    8.8679    0.1272    4.4226 H   0  0  0  0  0  0  0  0  0  0  0  0
   10.9731    0.4070    5.7775 H   0  0  0  0  0  0  0  0  0  0  0  0
   13.2878    0.3370    2.1422 H   0  0  0  0  0  0  0  0  0  0  0  0
    6.6024    0.2103   -2.5505 H   0  0  0  0  0  0  0  0  0  0  0  0
  1  2  1  0
  1 28  1  0
  1 29  1  0
  1 30  1  0
  2  3  1  0
  2  4  1  0
  2  5  1  6
  3 31  1  0
  3 32  1  0
  3 33  1  0
  4 34  1  0
  4 35  1  0
  4 36  1  0
  5  6  1  0
  6  7  2  0
  6  8  1  0
  8  9  1  0
  8 37  1  0
  9 10  2  0
  9 27  1  0
 10 11  1  0
 10 38  1  0
 11 12  2  0
 11 39  1  0
 12 13  1  0
 12 40  1  0
 13 14  1  0
 13 27  2  0
 14 15  1  0
 15 16  1  0
 15 41  1  0
 15 42  1  0
 16 17  1  0
 16 43  1  0
 16 44  1  0
 17 18  1  0
 18 19  2  0
 18 26  1  0
 19 20  1  0
 19 45  1  0
 20 21  2  0
 20 46  1  0
 21 22  1  0
 21 47  1  0
 22 23  1  0
 22 26  2  0
 23 24  2  0
 23 25  1  0
 26 48  1  0
 27 49  1  0
M  CHG  2  23   1  25  -1
M  END

