
     RDKit          3D

 39 40  0  0  0  0  0  0  0  0999 V2000
    4.5448   -1.1535   -2.2539 C   0  0  0  0  0  0  0  0  0  0  0  0
    4.0578   -0.5998   -0.9480 C   0  0  0  0  0  0  0  0  0  0  0  0
    4.3021    0.6663   -0.6200 N   0  0  0  0  0  0  0  0  0  0  0  0
    3.7445    0.8426    0.5934 N   0  0  0  0  0  0  0  0  0  0  0  0
    3.8307    2.1319    1.2438 C   0  0  0  0  0  0  0  0  0  0  0  0
    3.1415   -0.2874    1.0627 C   0  0  0  0  0  0  0  0  0  0  0  0
    2.4598   -0.3581    2.3910 C   0  0  0  0  0  0  0  0  0  0  0  0
    3.3276   -1.2608    0.0824 C   0  0  0  0  0  0  0  0  0  0  0  0
    2.8493   -2.6843    0.1089 C   0  0  0  0  0  0  0  0  0  0  0  0
    1.3868   -2.7689    0.1684 N   0  0  0  0  0  0  0  0  0  0  0  0
    0.8180   -4.0959   -0.0667 C   0  0  1  0  0  0  0  0  0  0  0  0
    1.1537   -5.0591    1.0852 C   0  0  0  0  0  0  0  0  0  0  0  0
   -0.6889   -3.9909   -0.2560 C   0  0  0  0  0  0  0  0  0  0  0  0
   -1.3529   -4.8009   -1.1882 C   0  0  0  0  0  0  0  0  0  0  0  0
   -2.7426   -4.7425   -1.3336 C   0  0  0  0  0  0  0  0  0  0  0  0
   -3.4802   -3.8656   -0.5463 C   0  0  0  0  0  0  0  0  0  0  0  0
   -4.8090   -3.7872   -0.6710 F   0  0  0  0  0  0  0  0  0  0  0  0
   -2.8280   -3.0491    0.3833 C   0  0  0  0  0  0  0  0  0  0  0  0
   -3.5517   -2.2070    1.1288 F   0  0  0  0  0  0  0  0  0  0  0  0
   -1.4475   -3.1093    0.5312 C   0  0  0  0  0  0  0  0  0  0  0  0
    5.0382   -0.3565   -2.8276 H   0  0  0  0  0  0  0  0  0  0  0  0
    3.7191   -1.5561   -2.8642 H   0  0  0  0  0  0  0  0  0  0  0  0
    5.2708   -1.9711   -2.1091 H   0  0  0  0  0  0  0  0  0  0  0  0
    4.3760    2.8007    0.5675 H   0  0  0  0  0  0  0  0  0  0  0  0
    4.3737    2.0648    2.2007 H   0  0  0  0  0  0  0  0  0  0  0  0
    2.8301    2.5522    1.4370 H   0  0  0  0  0  0  0  0  0  0  0  0
    1.7426    0.4685    2.5289 H   0  0  0  0  0  0  0  0  0  0  0  0
    3.1773   -0.3094    3.2292 H   0  0  0  0  0  0  0  0  0  0  0  0
    1.8988   -1.2990    2.4644 H   0  0  0  0  0  0  0  0  0  0  0  0
    3.2662   -3.2062    0.9876 H   0  0  0  0  0  0  0  0  0  0  0  0
    3.2598   -3.2153   -0.7779 H   0  0  0  0  0  0  0  0  0  0  0  0
    0.9985   -2.1122   -0.5081 H   0  0  0  0  0  0  0  0  0  0  0  0
    1.2313   -4.5482   -0.9975 H   0  0  0  0  0  0  0  0  0  0  0  0
    0.7739   -4.6624    2.0398 H   0  0  0  0  0  0  0  0  0  0  0  0
    2.2396   -5.2126    1.1806 H   0  0  0  0  0  0  0  0  0  0  0  0
    0.6920   -6.0424    0.9091 H   0  0  0  0  0  0  0  0  0  0  0  0
   -0.7786   -5.4873   -1.8157 H   0  0  0  0  0  0  0  0  0  0  0  0
   -3.2703   -5.3658   -2.0586 H   0  0  0  0  0  0  0  0  0  0  0  0
   -0.9643   -2.4564    1.2597 H   0  0  0  0  0  0  0  0  0  0  0  0
  1  2  1  0
  1 21  1  0
  1 22  1  0
  1 23  1  0
  2  3  2  0
  2  8  1  0
  3  4  1  0
  4  5  1  0
  4  6  1  0
  5 24  1  0
  5 25  1  0
  5 26  1  0
  6  7  1  0
  6  8  2  0
  7 27  1  0
  7 28  1  0
  7 29  1  0
  8  9  1  0
  9 10  1  0
  9 30  1  0
  9 31  1  0
 10 11  1  0
 10 32  1  0
 11 12  1  0
 11 13  1  0
 11 33  1  6
 12 34  1  0
 12 35  1  0
 12 36  1  0
 13 14  2  0
 13 20  1  0
 14 15  1  0
 14 37  1  0
 15 16  2  0
 15 38  1  0
 16 17  1  0
 16 18  1  0
 18 19  1  0
 18 20  2  0
 20 39  1  0
M  END

