
     RDKit          3D

 40 41  0  0  0  0  0  0  0  0999 V2000
    2.6327    0.7395   -1.2634 N   0  0  0  0  0  0  0  0  0  0  0  0
    2.8408   -0.5483   -1.8364 N   0  0  0  0  0  0  0  0  0  0  0  0
    3.3291   -1.5736   -0.9804 C   0  0  0  0  0  0  0  0  0  0  0  0
    4.6494   -2.0265   -1.1380 C   0  0  0  0  0  0  0  0  0  0  0  0
    5.3906   -1.4676   -2.1182 F   0  0  0  0  0  0  0  0  0  0  0  0
    5.2136   -3.0103   -0.3371 C   0  0  0  0  0  0  0  0  0  0  0  0
    4.4388   -3.5605    0.6875 C   0  0  0  0  0  0  0  0  0  0  0  0
    3.1222   -3.1375    0.8683 C   0  0  0  0  0  0  0  0  0  0  0  0
    2.5412   -2.1713    0.0325 C   0  0  0  0  0  0  0  0  0  0  0  0
    1.0649   -1.8979    0.2762 C   0  0  0  0  0  0  0  0  0  0  0  0
    0.5374   -2.2377    1.3259 O   0  0  0  0  0  0  0  0  0  0  0  0
    0.3827   -1.3165   -0.7529 N   0  0  0  0  0  0  0  0  0  0  0  0
   -1.0696   -1.1429   -0.7370 C   0  0  1  0  0  0  0  0  0  0  0  0
   -1.4766    0.3420   -0.6435 C   0  0  0  0  0  0  0  0  0  0  0  0
   -1.2004    1.1146   -1.9410 C   0  0  0  0  0  0  0  0  0  0  0  0
   -1.8519    0.4341   -3.1528 C   0  0  0  0  0  0  0  0  0  0  0  0
   -1.4344   -1.0400   -3.2784 C   0  0  2  0  0  0  0  0  0  0  0  0
   -2.0983   -1.7173   -4.4834 C   0  0  0  0  0  0  0  0  0  0  0  0
   -1.7154   -3.0657   -4.6596 O   0  0  0  0  0  0  0  0  0  0  0  0
   -1.7175   -1.7978   -1.9705 C   0  0  0  0  0  0  0  0  0  0  0  0
    1.7473    0.7196   -0.7560 H   0  0  0  0  0  0  0  0  0  0  0  0
    3.3655    0.9508   -0.5787 H   0  0  0  0  0  0  0  0  0  0  0  0
    3.4394   -0.4403   -2.6506 H   0  0  0  0  0  0  0  0  0  0  0  0
    6.2469   -3.3144   -0.5159 H   0  0  0  0  0  0  0  0  0  0  0  0
    4.8648   -4.3260    1.3399 H   0  0  0  0  0  0  0  0  0  0  0  0
    2.4932   -3.5600    1.6532 H   0  0  0  0  0  0  0  0  0  0  0  0
    0.9145   -1.1292   -1.6037 H   0  0  0  0  0  0  0  0  0  0  0  0
   -1.4088   -1.6595    0.1716 H   0  0  0  0  0  0  0  0  0  0  0  0
   -0.9643    0.8100    0.2133 H   0  0  0  0  0  0  0  0  0  0  0  0
   -2.5579    0.3835   -0.4209 H   0  0  0  0  0  0  0  0  0  0  0  0
   -0.1111    1.1951   -2.1085 H   0  0  0  0  0  0  0  0  0  0  0  0
   -1.5666    2.1505   -1.8463 H   0  0  0  0  0  0  0  0  0  0  0  0
   -1.6019    0.9817   -4.0778 H   0  0  0  0  0  0  0  0  0  0  0  0
   -2.9526    0.4835   -3.0498 H   0  0  0  0  0  0  0  0  0  0  0  0
   -0.3400   -1.0616   -3.4675 H   0  0  0  0  0  0  0  0  0  0  0  0
   -1.9020   -1.1163   -5.3954 H   0  0  0  0  0  0  0  0  0  0  0  0
   -3.1926   -1.7288   -4.3412 H   0  0  0  0  0  0  0  0  0  0  0  0
   -0.7675   -3.0880   -4.8463 H   0  0  0  0  0  0  0  0  0  0  0  0
   -1.3934   -2.8451   -2.0636 H   0  0  0  0  0  0  0  0  0  0  0  0
   -2.8110   -1.8211   -1.8116 H   0  0  0  0  0  0  0  0  0  0  0  0
  1  2  1  0
  1 21  1  0
  1 22  1  0
  2  3  1  0
  2 23  1  0
  3  4  2  0
  3  9  1  0
  4  5  1  0
  4  6  1  0
  6  7  2  0
  6 24  1  0
  7  8  1  0
  7 25  1  0
  8  9  2  0
  8 26  1  0
  9 10  1  0
 10 11  2  0
 10 12  1  0
 12 13  1  0
 12 27  1  0
 13 14  1  0
 13 20  1  0
 13 28  1  1
 14 15  1  0
 14 29  1  0
 14 30  1  0
 15 16  1  0
 15 31  1  0
 15 32  1  0
 16 17  1  0
 16 33  1  0
 16 34  1  0
 17 18  1  0
 17 20  1  0
 17 35  1  6
 18 19  1  0
 18 36  1  0
 18 37  1  0
 19 38  1  0
 20 39  1  0
 20 40  1  0
M  END

