
     RDKit          3D

 66 70  0  0  0  0  0  0  0  0999 V2000
    0.2216   -1.8332   -4.0237 C   0  0  0  0  0  0  0  0  0  0  0  0
    1.6468   -2.1322   -4.3739 C   0  0  0  0  0  0  0  0  0  0  0  0
    2.1648   -2.0127   -5.5583 N   0  0  0  0  0  0  0  0  0  0  0  0
    3.4920   -2.3567   -5.5743 C   0  0  0  0  0  0  0  0  0  0  0  0
    4.0479   -2.7552   -4.3819 C   0  0  0  0  0  0  0  0  0  0  0  0
    5.4971   -3.1934   -4.1795 C   0  0  1  0  0  0  0  0  0  0  0  0
    6.2502   -2.6971   -5.2848 O   0  0  0  0  0  0  0  0  0  0  0  0
    6.1309   -2.6761   -2.8636 C   0  0  0  0  0  0  0  0  0  0  0  0
    5.7228   -3.4401   -1.5962 C   0  0  0  0  0  0  0  0  0  0  0  0
    5.9198   -4.9588   -1.7334 C   0  0  2  0  0  0  0  0  0  0  0  0
    7.3360   -5.2865   -1.7927 N   0  0  0  0  0  0  0  0  0  0  0  0
    8.2087   -5.0082   -0.6407 C   0  0  0  0  0  0  0  0  0  0  0  0
    9.0049   -6.2972   -0.9712 C   0  0  2  0  0  0  0  0  0  0  0  0
   10.2147   -6.0833   -1.7310 N   0  0  0  0  0  0  0  0  0  0  0  0
   11.4175   -6.6236   -1.3922 C   0  0  0  0  0  0  0  0  0  0  0  0
   11.5947   -7.3171   -0.4020 O   0  0  0  0  0  0  0  0  0  0  0  0
   12.5554   -6.3306   -2.3716 C   0  0  0  0  0  0  0  0  0  0  0  0
   13.8039   -6.6403   -1.7326 N   0  0  0  0  0  0  0  0  0  0  0  0
   14.9507   -6.7555   -2.4751 C   0  0  0  0  0  0  0  0  0  0  0  0
   15.0111   -6.3772   -3.7411 N   0  0  0  0  0  0  0  0  0  0  0  0
   16.3041   -6.5655   -4.1526 N   0  0  0  0  0  0  0  0  0  0  0  0
   16.6458   -6.3382   -5.5333 C   0  0  0  0  0  0  0  0  0  0  0  0
   17.0732   -7.0992   -3.1615 C   0  0  0  0  0  0  0  0  0  0  0  0
   18.4262   -7.4927   -3.1213 C   0  0  0  0  0  0  0  0  0  0  0  0
   18.9161   -7.9936   -1.9234 C   0  0  0  0  0  0  0  0  0  0  0  0
   18.0818   -8.1055   -0.7890 C   0  0  0  0  0  0  0  0  0  0  0  0
   18.6173   -8.6695    0.3790 O   0  0  0  0  0  0  0  0  0  0  0  0
   19.1780   -7.8446    1.2866 C   0  0  1  0  0  0  0  0  0  0  0  0
   18.3065   -6.9446    1.7699 F   0  0  0  0  0  0  0  0  0  0  0  0
   19.6204   -8.5854    2.2956 F   0  0  0  0  0  0  0  0  0  0  0  0
   20.2131   -7.1527    0.7814 F   0  0  0  0  0  0  0  0  0  0  0  0
   16.7459   -7.7354   -0.8136 C   0  0  0  0  0  0  0  0  0  0  0  0
   16.2351   -7.2302   -2.0198 C   0  0  0  0  0  0  0  0  0  0  0  0
    7.7679   -6.6932   -1.8180 C   0  0  0  0  0  0  0  0  0  0  0  0
    5.1956   -5.4619   -2.9938 C   0  0  0  0  0  0  0  0  0  0  0  0
    5.6540   -4.7289   -4.2575 C   0  0  0  0  0  0  0  0  0  0  0  0
    2.7968   -2.6920   -3.1599 S   0  0  0  0  0  0  0  0  0  0  0  0
   -0.3005   -1.5233   -4.9391 H   0  0  0  0  0  0  0  0  0  0  0  0
    0.1458   -1.0216   -3.2816 H   0  0  0  0  0  0  0  0  0  0  0  0
   -0.2895   -2.7154   -3.6052 H   0  0  0  0  0  0  0  0  0  0  0  0
    4.0520   -2.3103   -6.5085 H   0  0  0  0  0  0  0  0  0  0  0  0
    6.1773   -1.7319   -5.2829 H   0  0  0  0  0  0  0  0  0  0  0  0
    5.9127   -1.6003   -2.7477 H   0  0  0  0  0  0  0  0  0  0  0  0
    7.2178   -2.7753   -3.0068 H   0  0  0  0  0  0  0  0  0  0  0  0
    4.6665   -3.2513   -1.3462 H   0  0  0  0  0  0  0  0  0  0  0  0
    6.3003   -3.0567   -0.7385 H   0  0  0  0  0  0  0  0  0  0  0  0
    5.4574   -5.4504   -0.8443 H   0  0  0  0  0  0  0  0  0  0  0  0
    7.6904   -5.0861    0.3385 H   0  0  0  0  0  0  0  0  0  0  0  0
    8.7662   -4.0564   -0.6729 H   0  0  0  0  0  0  0  0  0  0  0  0
    9.2645   -6.9502   -0.1304 H   0  0  0  0  0  0  0  0  0  0  0  0
   10.1544   -5.5005   -2.5594 H   0  0  0  0  0  0  0  0  0  0  0  0
   12.5229   -5.2759   -2.7017 H   0  0  0  0  0  0  0  0  0  0  0  0
   12.3926   -6.9354   -3.2892 H   0  0  0  0  0  0  0  0  0  0  0  0
   13.6949   -7.2392   -0.9178 H   0  0  0  0  0  0  0  0  0  0  0  0
   16.0881   -5.4636   -5.8961 H   0  0  0  0  0  0  0  0  0  0  0  0
   16.3960   -7.2041   -6.1729 H   0  0  0  0  0  0  0  0  0  0  0  0
   17.7221   -6.1316   -5.6212 H   0  0  0  0  0  0  0  0  0  0  0  0
   19.0745   -7.4153   -3.9958 H   0  0  0  0  0  0  0  0  0  0  0  0
   19.9553   -8.3155   -1.8386 H   0  0  0  0  0  0  0  0  0  0  0  0
   16.1332   -7.8415    0.0832 H   0  0  0  0  0  0  0  0  0  0  0  0
    7.0914   -7.3756   -1.2611 H   0  0  0  0  0  0  0  0  0  0  0  0
    7.9621   -7.1224   -2.8159 H   0  0  0  0  0  0  0  0  0  0  0  0
    4.1104   -5.3343   -2.8446 H   0  0  0  0  0  0  0  0  0  0  0  0
    5.3564   -6.5455   -3.1176 H   0  0  0  0  0  0  0  0  0  0  0  0
    5.1158   -5.0963   -5.1446 H   0  0  0  0  0  0  0  0  0  0  0  0
    6.7262   -4.9156   -4.4229 H   0  0  0  0  0  0  0  0  0  0  0  0
  1  2  1  0
  1 38  1  0
  1 39  1  0
  1 40  1  0
  2  3  2  0
  2 37  1  0
  3  4  1  0
  4  5  2  0
  4 41  1  0
  5  6  1  0
  5 37  1  0
  6  7  1  6
  6  8  1  0
  6 36  1  0
  7 42  1  0
  8  9  1  0
  8 43  1  0
  8 44  1  0
  9 10  1  0
  9 45  1  0
  9 46  1  0
 10 11  1  0
 10 35  1  0
 10 47  1  1
 11 12  1  0
 11 34  1  0
 12 13  1  0
 12 48  1  0
 12 49  1  0
 13 14  1  0
 13 34  1  0
 13 50  1  1
 14 15  1  0
 14 51  1  0
 15 16  2  0
 15 17  1  0
 17 18  1  0
 17 52  1  0
 17 53  1  0
 18 19  1  0
 18 54  1  0
 19 20  2  0
 19 33  1  0
 20 21  1  0
 21 22  1  0
 21 23  1  0
 22 55  1  0
 22 56  1  0
 22 57  1  0
 23 24  1  0
 23 33  2  0
 24 25  2  0
 24 58  1  0
 25 26  1  0
 25 59  1  0
 26 27  1  0
 26 32  2  0
 27 28  1  0
 28 29  1  1
 28 30  1  0
 28 31  1  0
 32 33  1  0
 32 60  1  0
 34 61  1  0
 34 62  1  0
 35 36  1  0
 35 63  1  0
 35 64  1  0
 36 65  1  0
 36 66  1  0
M  END

