
     RDKit          3D

 30 32  0  0  0  0  0  0  0  0999 V2000
    1.2333    0.2000    1.3421 Cl  0  0  0  0  0  0  0  0  0  0  0  0
    2.7988    0.0097    0.5525 C   0  0  0  0  0  0  0  0  0  0  0  0
    3.6099    1.1504    0.5124 C   0  0  0  0  0  0  0  0  0  0  0  0
    4.9148    1.0529    0.0381 C   0  0  0  0  0  0  0  0  0  0  0  0
    5.4142   -0.1934   -0.3441 C   0  0  0  0  0  0  0  0  0  0  0  0
    4.6005   -1.3316   -0.3215 C   0  0  0  0  0  0  0  0  0  0  0  0
    3.2257   -1.2456    0.0607 C   0  0  0  0  0  0  0  0  0  0  0  0
    2.4113   -2.3849   -0.0134 N   0  0  0  0  0  0  0  0  0  0  0  0
    1.0478   -2.3285   -0.5470 C   0  0  0  0  0  0  0  0  0  0  0  0
    0.1526   -3.3280    0.1887 C   0  0  0  0  0  0  0  0  0  0  0  0
    0.7332   -4.7460    0.1180 C   0  0  0  0  0  0  0  0  0  0  0  0
    2.2127   -4.7643    0.5242 C   0  0  0  0  0  0  0  0  0  0  0  0
    3.0053   -3.7053   -0.2551 C   0  0  2  0  0  0  0  0  0  0  0  0
    4.4930   -3.6982    0.0610 C   0  0  0  0  0  0  0  0  0  0  0  0
    5.1013   -2.5922   -0.6565 N   0  0  0  0  0  0  0  0  0  0  0  0
    3.2090    2.0943    0.8833 H   0  0  0  0  0  0  0  0  0  0  0  0
    5.5542    1.9377    0.0025 H   0  0  0  0  0  0  0  0  0  0  0  0
    6.4539   -0.2978   -0.6677 H   0  0  0  0  0  0  0  0  0  0  0  0
    1.0692   -2.5754   -1.6313 H   0  0  0  0  0  0  0  0  0  0  0  0
    0.6451   -1.3166   -0.4558 H   0  0  0  0  0  0  0  0  0  0  0  0
    0.0697   -3.0028    1.2397 H   0  0  0  0  0  0  0  0  0  0  0  0
   -0.8625   -3.3058   -0.2425 H   0  0  0  0  0  0  0  0  0  0  0  0
    0.6443   -5.1203   -0.9185 H   0  0  0  0  0  0  0  0  0  0  0  0
    0.1513   -5.4380    0.7490 H   0  0  0  0  0  0  0  0  0  0  0  0
    2.6482   -5.7618    0.3404 H   0  0  0  0  0  0  0  0  0  0  0  0
    2.3138   -4.5536    1.6032 H   0  0  0  0  0  0  0  0  0  0  0  0
    2.9161   -3.9409   -1.3379 H   0  0  0  0  0  0  0  0  0  0  0  0
    4.9362   -4.6462   -0.2787 H   0  0  0  0  0  0  0  0  0  0  0  0
    4.6472   -3.6275    1.1590 H   0  0  0  0  0  0  0  0  0  0  0  0
    6.1141   -2.6232   -0.7018 H   0  0  0  0  0  0  0  0  0  0  0  0
  1  2  1  0
  2  3  2  0
  2  7  1  0
  3  4  1  0
  3 16  1  0
  4  5  2  0
  4 17  1  0
  5  6  1  0
  5 18  1  0
  6  7  2  0
  6 15  1  0
  7  8  1  0
  8  9  1  0
  8 13  1  0
  9 10  1  0
  9 19  1  0
  9 20  1  0
 10 11  1  0
 10 21  1  0
 10 22  1  0
 11 12  1  0
 11 23  1  0
 11 24  1  0
 12 13  1  0
 12 25  1  0
 12 26  1  0
 13 14  1  0
 13 27  1  6
 14 15  1  0
 14 28  1  0
 14 29  1  0
 15 30  1  0
M  END

