
     RDKit          3D

 47 48  0  0  0  0  0  0  0  0999 V2000
    7.2086   -6.5834   -0.8377 C   0  0  0  0  0  0  0  0  0  0  0  0
    6.0724   -6.6419   -1.8557 C   0  0  0  0  0  0  0  0  0  0  0  0
    5.9132   -5.3996   -2.5984 N   0  0  0  0  0  0  0  0  0  0  0  0
    4.9315   -4.4677   -2.4739 C   0  0  0  0  0  0  0  0  0  0  0  0
    5.2263   -3.4235   -3.3500 C   0  0  0  0  0  0  0  0  0  0  0  0
    4.3339   -2.2019   -3.5390 C   0  0  1  0  0  0  0  0  0  0  0  0
    3.8861   -1.6123   -2.2578 N   0  0  0  0  0  0  0  0  0  0  0  0
    4.7754   -1.5395   -1.1677 N   0  0  0  0  0  0  0  0  0  0  0  0
    4.7970   -1.0755   -4.5565 C   0  0  1  0  0  0  0  0  0  0  0  0
    3.5280   -0.2342   -4.8605 C   0  0  0  0  0  0  0  0  0  0  0  0
    5.8126   -0.0968   -3.9058 C   0  0  0  0  0  0  0  0  0  0  0  0
    7.1986   -0.6071   -3.5056 C   0  0  0  0  0  0  0  0  0  0  0  0
    5.3648   -1.7043   -5.7684 N   0  0  0  0  0  0  0  0  0  0  0  0
    4.6253   -2.7432   -6.4802 C   0  0  0  0  0  0  0  0  0  0  0  0
    3.9407   -2.2462   -7.7598 C   0  0  0  0  0  0  0  0  0  0  0  0
    4.8581   -1.5924   -8.6151 O   0  0  0  0  0  0  0  0  0  0  0  0
    5.4894   -0.5076   -7.9642 C   0  0  0  0  0  0  0  0  0  0  0  0
    6.2176   -0.9717   -6.6980 C   0  0  0  0  0  0  0  0  0  0  0  0
    6.4380   -3.8542   -3.9578 C   0  0  0  0  0  0  0  0  0  0  0  0
    6.8383   -5.0366   -3.4964 N   0  0  0  0  0  0  0  0  0  0  0  0
    7.3154   -7.5544   -0.3287 H   0  0  0  0  0  0  0  0  0  0  0  0
    7.0193   -5.8123   -0.0742 H   0  0  0  0  0  0  0  0  0  0  0  0
    8.1570   -6.3468   -1.3418 H   0  0  0  0  0  0  0  0  0  0  0  0
    5.1103   -6.8537   -1.3648 H   0  0  0  0  0  0  0  0  0  0  0  0
    6.2545   -7.4442   -2.5879 H   0  0  0  0  0  0  0  0  0  0  0  0
    4.1006   -4.6096   -1.7841 H   0  0  0  0  0  0  0  0  0  0  0  0
    3.3927   -2.5843   -3.9684 H   0  0  0  0  0  0  0  0  0  0  0  0
    3.0359   -2.0686   -1.9406 H   0  0  0  0  0  0  0  0  0  0  0  0
    5.3243   -0.6845   -1.2295 H   0  0  0  0  0  0  0  0  0  0  0  0
    5.4308   -2.3277   -1.1591 H   0  0  0  0  0  0  0  0  0  0  0  0
    3.0925    0.1536   -3.9285 H   0  0  0  0  0  0  0  0  0  0  0  0
    2.7591   -0.8415   -5.3626 H   0  0  0  0  0  0  0  0  0  0  0  0
    3.7685    0.6159   -5.5171 H   0  0  0  0  0  0  0  0  0  0  0  0
    5.3034    0.3207   -3.0241 H   0  0  0  0  0  0  0  0  0  0  0  0
    5.9310    0.7682   -4.5791 H   0  0  0  0  0  0  0  0  0  0  0  0
    7.1443   -1.3958   -2.7431 H   0  0  0  0  0  0  0  0  0  0  0  0
    7.7957    0.2205   -3.0881 H   0  0  0  0  0  0  0  0  0  0  0  0
    7.7584   -1.0177   -4.3585 H   0  0  0  0  0  0  0  0  0  0  0  0
    3.8802   -3.2156   -5.8267 H   0  0  0  0  0  0  0  0  0  0  0  0
    5.3342   -3.5436   -6.7724 H   0  0  0  0  0  0  0  0  0  0  0  0
    3.1013   -1.5642   -7.5122 H   0  0  0  0  0  0  0  0  0  0  0  0
    3.5298   -3.0978   -8.3260 H   0  0  0  0  0  0  0  0  0  0  0  0
    4.7436    0.2766   -7.7154 H   0  0  0  0  0  0  0  0  0  0  0  0
    6.2062   -0.0784   -8.6829 H   0  0  0  0  0  0  0  0  0  0  0  0
    6.6872   -0.1085   -6.2115 H   0  0  0  0  0  0  0  0  0  0  0  0
    7.0398   -1.6422   -7.0234 H   0  0  0  0  0  0  0  0  0  0  0  0
    7.0124   -3.3453   -4.7259 H   0  0  0  0  0  0  0  0  0  0  0  0
  1  2  1  0
  1 21  1  0
  1 22  1  0
  1 23  1  0
  2  3  1  0
  2 24  1  0
  2 25  1  0
  3  4  1  0
  3 20  1  0
  4  5  2  0
  4 26  1  0
  5  6  1  0
  5 19  1  0
  6  7  1  0
  6  9  1  0
  6 27  1  6
  7  8  1  0
  7 28  1  0
  8 29  1  0
  8 30  1  0
  9 10  1  6
  9 11  1  0
  9 13  1  0
 10 31  1  0
 10 32  1  0
 10 33  1  0
 11 12  1  0
 11 34  1  0
 11 35  1  0
 12 36  1  0
 12 37  1  0
 12 38  1  0
 13 14  1  0
 13 18  1  0
 14 15  1  0
 14 39  1  0
 14 40  1  0
 15 16  1  0
 15 41  1  0
 15 42  1  0
 16 17  1  0
 17 18  1  0
 17 43  1  0
 17 44  1  0
 18 45  1  0
 18 46  1  0
 19 20  2  0
 19 47  1  0
M  END

