
     RDKit          3D

 46 47  0  0  0  0  0  0  0  0999 V2000
    1.3391    0.3891    0.1770 C   0  0  0  0  0  0  0  0  0  0  0  0
    2.8485    0.1963    0.0620 C   0  0  1  0  0  0  0  0  0  0  0  0
    3.4528    0.4656    1.3335 O   0  0  0  0  0  0  0  0  0  0  0  0
    3.2663   -1.2000   -0.4690 C   0  0  1  0  0  0  0  0  0  0  0  0
    2.5246   -1.6431   -1.7575 C   0  0  0  0  0  0  0  0  0  0  0  0
    2.5237   -0.6825   -2.9349 C   0  0  0  0  0  0  0  0  0  0  0  0
    3.7142   -0.2948   -3.5806 C   0  0  0  0  0  0  0  0  0  0  0  0
    3.6903    0.5776   -4.6696 C   0  0  0  0  0  0  0  0  0  0  0  0
    2.4640    1.0559   -5.1388 C   0  0  0  0  0  0  0  0  0  0  0  0
    2.4272    2.1908   -6.5379 S   0  0  1  0  0  0  0  0  0  0  0  0
    2.3336    1.1128   -7.9869 C   0  0  0  0  0  0  0  0  0  0  0  0
    1.1643    2.9409   -6.4767 O   0  0  0  0  0  0  0  0  0  0  0  0
    3.7236    2.8802   -6.5965 O   0  0  0  0  0  0  0  0  0  0  0  0
    1.2662    0.6869   -4.5253 C   0  0  0  0  0  0  0  0  0  0  0  0
    1.3073   -0.1815   -3.4325 C   0  0  0  0  0  0  0  0  0  0  0  0
    4.7959   -1.4307   -0.6320 C   0  0  0  0  0  0  0  0  0  0  0  0
    5.2175   -2.1889   -1.4967 O   0  0  0  0  0  0  0  0  0  0  0  0
    5.5983   -0.7903    0.2670 N   0  0  0  0  0  0  0  0  0  0  0  0
    6.9942   -0.8698    0.3862 C   0  0  0  0  0  0  0  0  0  0  0  0
    7.8309   -1.6409   -0.4375 C   0  0  0  0  0  0  0  0  0  0  0  0
    9.2170   -1.6473   -0.2283 C   0  0  0  0  0  0  0  0  0  0  0  0
   10.0512   -2.3838   -1.0086 O   0  0  0  0  0  0  0  0  0  0  0  0
    9.7887   -0.8881    0.8013 C   0  0  0  0  0  0  0  0  0  0  0  0
    8.9618   -0.1217    1.6243 C   0  0  0  0  0  0  0  0  0  0  0  0
    7.5910   -0.1189    1.4148 C   0  0  0  0  0  0  0  0  0  0  0  0
    6.7865    0.6183    2.2133 F   0  0  0  0  0  0  0  0  0  0  0  0
    1.1381    1.3519    0.6698 H   0  0  0  0  0  0  0  0  0  0  0  0
    0.8823   -0.4132    0.7836 H   0  0  0  0  0  0  0  0  0  0  0  0
    0.8434    0.4004   -0.8020 H   0  0  0  0  0  0  0  0  0  0  0  0
    3.2590    0.9693   -0.6077 H   0  0  0  0  0  0  0  0  0  0  0  0
    2.9970   -0.0591    2.0081 H   0  0  0  0  0  0  0  0  0  0  0  0
    2.9671   -1.9261    0.3140 H   0  0  0  0  0  0  0  0  0  0  0  0
    1.4827   -1.8776   -1.4966 H   0  0  0  0  0  0  0  0  0  0  0  0
    2.9961   -2.5855   -2.0736 H   0  0  0  0  0  0  0  0  0  0  0  0
    4.6670   -0.6961   -3.2336 H   0  0  0  0  0  0  0  0  0  0  0  0
    4.6162    0.8974   -5.1523 H   0  0  0  0  0  0  0  0  0  0  0  0
    1.4109    0.5205   -7.9401 H   0  0  0  0  0  0  0  0  0  0  0  0
    3.2252    0.4737   -8.0230 H   0  0  0  0  0  0  0  0  0  0  0  0
    2.3122    1.7963   -8.8476 H   0  0  0  0  0  0  0  0  0  0  0  0
    0.3211    1.0912   -4.8934 H   0  0  0  0  0  0  0  0  0  0  0  0
    0.3679   -0.4797   -2.9584 H   0  0  0  0  0  0  0  0  0  0  0  0
    5.1184   -0.1816    0.9374 H   0  0  0  0  0  0  0  0  0  0  0  0
    7.3794   -2.2314   -1.2331 H   0  0  0  0  0  0  0  0  0  0  0  0
    9.5333   -2.8548   -1.6745 H   0  0  0  0  0  0  0  0  0  0  0  0
   10.8701   -0.9085    0.9435 H   0  0  0  0  0  0  0  0  0  0  0  0
    9.3698    0.4820    2.4374 H   0  0  0  0  0  0  0  0  0  0  0  0
  1  2  1  0
  1 27  1  0
  1 28  1  0
  1 29  1  0
  2  3  1  0
  2  4  1  0
  2 30  1  6
  3 31  1  0
  4  5  1  0
  4 16  1  0
  4 32  1  1
  5  6  1  0
  5 33  1  0
  5 34  1  0
  6  7  2  0
  6 15  1  0
  7  8  1  0
  7 35  1  0
  8  9  2  0
  8 36  1  0
  9 10  1  0
  9 14  1  0
 10 11  1  6
 10 12  2  0
 10 13  2  0
 11 37  1  0
 11 38  1  0
 11 39  1  0
 14 15  2  0
 14 40  1  0
 15 41  1  0
 16 17  2  0
 16 18  1  0
 18 19  1  0
 18 42  1  0
 19 20  2  0
 19 25  1  0
 20 21  1  0
 20 43  1  0
 21 22  1  0
 21 23  2  0
 22 44  1  0
 23 24  1  0
 23 45  1  0
 24 25  2  0
 24 46  1  0
 25 26  1  0
M  END

