
     RDKit          3D

 51 52  0  0  0  0  0  0  0  0999 V2000
    1.6982   -8.5305    3.4143 C   0  0  0  0  0  0  0  0  0  0  0  0
    2.5027   -7.4548    4.1454 C   0  0  0  0  0  0  0  0  0  0  0  0
    3.3982   -6.6046    3.2298 C   0  0  1  0  0  0  0  0  0  0  0  0
    2.6062   -5.7417    2.2209 C   0  0  0  0  0  0  0  0  0  0  0  0
    4.2902   -5.6861    4.0439 C   0  0  0  0  0  0  0  0  0  0  0  0
    4.0605   -5.3340    5.1794 O   0  0  0  0  0  0  0  0  0  0  0  0
    5.5877   -5.1713    3.3551 C   0  0  0  0  0  0  0  0  0  0  0  0
    5.9204   -5.6007    2.2737 O   0  0  0  0  0  0  0  0  0  0  0  0
    6.4013   -4.1662    4.1535 C   0  0  0  0  0  0  0  0  0  0  0  0
    7.2266   -3.2534    3.2554 C   0  0  0  0  0  0  0  0  0  0  0  0
    6.7091   -2.2749    2.7423 O   0  0  0  0  0  0  0  0  0  0  0  0
    8.5509   -3.5723    3.0457 N   0  0  0  0  0  0  0  0  0  0  0  0
    9.3264   -2.7260    2.1169 C   0  0  0  0  0  0  0  0  0  0  0  0
   10.1196   -1.6233    2.7914 C   0  0  0  0  0  0  0  0  0  0  0  0
    9.4671   -0.5003    3.3293 C   0  0  0  0  0  0  0  0  0  0  0  0
   10.1964    0.5076    3.9558 C   0  0  0  0  0  0  0  0  0  0  0  0
   11.5910    0.4210    4.0567 C   0  0  0  0  0  0  0  0  0  0  0  0
   12.4708    1.6990    4.8437 Cl  0  0  0  0  0  0  0  0  0  0  0  0
   12.2524   -0.6932    3.5172 C   0  0  0  0  0  0  0  0  0  0  0  0
   13.9843   -0.8470    3.6120 Cl  0  0  0  0  0  0  0  0  0  0  0  0
   11.5128   -1.7040    2.8911 C   0  0  0  0  0  0  0  0  0  0  0  0
    9.2124   -4.7018    3.6247 C   0  0  0  0  0  0  0  0  0  0  0  0
    9.0876   -5.9708    3.0360 C   0  0  0  0  0  0  0  0  0  0  0  0
    9.7643   -7.0620    3.5768 C   0  0  0  0  0  0  0  0  0  0  0  0
   10.5704   -6.9101    4.7159 C   0  0  0  0  0  0  0  0  0  0  0  0
   11.2831   -8.1313    5.2350 C   0  0  0  0  0  0  0  0  0  0  0  0
   11.4409   -9.1241    4.5759 O   0  0  0  0  0  0  0  0  0  0  0  0
   11.7457   -8.0702    6.5033 O   0  0  0  0  0  0  0  0  0  0  0  0
   10.7067   -5.6363    5.2895 C   0  0  0  0  0  0  0  0  0  0  0  0
   10.0331   -4.5386    4.7505 C   0  0  0  0  0  0  0  0  0  0  0  0
    1.1271   -9.1428    4.1296 H   0  0  0  0  0  0  0  0  0  0  0  0
    2.3560   -9.2108    2.8475 H   0  0  0  0  0  0  0  0  0  0  0  0
    0.9740   -8.1009    2.7043 H   0  0  0  0  0  0  0  0  0  0  0  0
    3.1390   -7.9328    4.9093 H   0  0  0  0  0  0  0  0  0  0  0  0
    1.8279   -6.7850    4.7045 H   0  0  0  0  0  0  0  0  0  0  0  0
    4.0680   -7.2576    2.6436 H   0  0  0  0  0  0  0  0  0  0  0  0
    1.9232   -5.0545    2.7460 H   0  0  0  0  0  0  0  0  0  0  0  0
    2.0047   -6.3818    1.5592 H   0  0  0  0  0  0  0  0  0  0  0  0
    3.2770   -5.1479    1.5829 H   0  0  0  0  0  0  0  0  0  0  0  0
    7.0083   -4.7372    4.8753 H   0  0  0  0  0  0  0  0  0  0  0  0
    5.7152   -3.5414    4.7408 H   0  0  0  0  0  0  0  0  0  0  0  0
    8.5978   -2.2862    1.4223 H   0  0  0  0  0  0  0  0  0  0  0  0
   10.0001   -3.3822    1.5477 H   0  0  0  0  0  0  0  0  0  0  0  0
    8.3807   -0.4230    3.2483 H   0  0  0  0  0  0  0  0  0  0  0  0
    9.6944    1.3831    4.3713 H   0  0  0  0  0  0  0  0  0  0  0  0
   12.0511   -2.5592    2.4769 H   0  0  0  0  0  0  0  0  0  0  0  0
    8.4442   -6.0865    2.1621 H   0  0  0  0  0  0  0  0  0  0  0  0
    9.6846   -8.0531    3.1262 H   0  0  0  0  0  0  0  0  0  0  0  0
   11.4290   -7.2716    6.9474 H   0  0  0  0  0  0  0  0  0  0  0  0
   11.3634   -5.4723    6.1491 H   0  0  0  0  0  0  0  0  0  0  0  0
   10.1423   -3.5487    5.1966 H   0  0  0  0  0  0  0  0  0  0  0  0
  1  2  1  0
  1 31  1  0
  1 32  1  0
  1 33  1  0
  2  3  1  0
  2 34  1  0
  2 35  1  0
  3  4  1  0
  3  5  1  0
  3 36  1  6
  4 37  1  0
  4 38  1  0
  4 39  1  0
  5  6  2  0
  5  7  1  0
  7  8  2  0
  7  9  1  0
  9 10  1  0
  9 40  1  0
  9 41  1  0
 10 11  2  0
 10 12  1  0
 12 13  1  0
 12 22  1  0
 13 14  1  0
 13 42  1  0
 13 43  1  0
 14 15  2  0
 14 21  1  0
 15 16  1  0
 15 44  1  0
 16 17  2  0
 16 45  1  0
 17 18  1  0
 17 19  1  0
 19 20  1  0
 19 21  2  0
 21 46  1  0
 22 23  2  0
 22 30  1  0
 23 24  1  0
 23 47  1  0
 24 25  2  0
 24 48  1  0
 25 26  1  0
 25 29  1  0
 26 27  2  0
 26 28  1  0
 28 49  1  0
 29 30  2  0
 29 50  1  0
 30 51  1  0
M  END

