
     RDKit          3D

 55 56  0  0  0  0  0  0  0  0999 V2000
    0.8055    0.2616    1.5063 C   0  0  0  0  0  0  0  0  0  0  0  0
    2.3212    0.4415    1.4094 C   0  0  0  0  0  0  0  0  0  0  0  0
    3.0713    0.0193    2.6766 C   0  0  0  0  0  0  0  0  0  0  0  0
    4.5895    0.1959    2.5864 C   0  0  0  0  0  0  0  0  0  0  0  0
    5.3375   -0.2329    3.8603 C   0  0  0  0  0  0  0  0  0  0  0  0
    6.8234   -0.0166    3.7853 C   0  0  0  0  0  0  0  0  0  0  0  0
    7.7567   -0.9731    3.8675 C   0  0  0  0  0  0  0  0  0  0  0  0
    9.2425   -0.7559    3.7923 C   0  0  0  0  0  0  0  0  0  0  0  0
    9.9896   -1.1795    5.0682 C   0  0  0  0  0  0  0  0  0  0  0  0
   11.5084   -1.0020    4.9757 C   0  0  0  0  0  0  0  0  0  0  0  0
   12.2326   -1.4216    6.2555 C   0  0  0  0  0  0  0  0  0  0  0  0
   13.7419   -1.2913    6.2589 C   0  0  0  0  0  0  0  0  0  0  0  0
   14.4800   -0.7860    5.1849 C   0  0  0  0  0  0  0  0  0  0  0  0
   15.8773   -0.6824    5.2314 C   0  0  0  0  0  0  0  0  0  0  0  0
   16.5583   -1.0927    6.3739 C   0  0  0  0  0  0  0  0  0  0  0  0
   15.8512   -1.6051    7.4691 C   0  0  0  0  0  0  0  0  0  0  0  0
   14.4558   -1.7019    7.4125 C   0  0  0  0  0  0  0  0  0  0  0  0
   13.6904   -2.1904    8.4316 O   0  0  0  0  0  0  0  0  0  0  0  0
   14.3055   -2.6231    9.6294 C   0  0  0  0  0  0  0  0  0  0  0  0
   13.2225   -3.0876   10.5843 C   0  0  1  0  0  0  0  0  0  0  0  0
   12.2405   -2.0348   11.0421 C   0  0  0  0  0  0  0  0  0  0  0  0
   12.8669   -4.5159   10.6013 C   0  0  0  0  0  0  0  0  0  0  0  0
   13.7235   -3.9624   11.5963 O   0  0  0  0  0  0  0  0  0  0  0  0
    0.2997    0.5746    0.5788 H   0  0  0  0  0  0  0  0  0  0  0  0
    0.3827    0.8573    2.3328 H   0  0  0  0  0  0  0  0  0  0  0  0
    0.5378   -0.7924    1.6914 H   0  0  0  0  0  0  0  0  0  0  0  0
    2.5537    1.4989    1.1860 H   0  0  0  0  0  0  0  0  0  0  0  0
    2.7074   -0.1367    0.5503 H   0  0  0  0  0  0  0  0  0  0  0  0
    2.8393   -1.0388    2.9012 H   0  0  0  0  0  0  0  0  0  0  0  0
    2.6867    0.5978    3.5377 H   0  0  0  0  0  0  0  0  0  0  0  0
    4.8223    1.2543    2.3662 H   0  0  0  0  0  0  0  0  0  0  0  0
    4.9800   -0.3816    1.7291 H   0  0  0  0  0  0  0  0  0  0  0  0
    5.1267   -1.2954    4.0740 H   0  0  0  0  0  0  0  0  0  0  0  0
    4.9283    0.3409    4.7142 H   0  0  0  0  0  0  0  0  0  0  0  0
    7.1502    1.0225    3.6337 H   0  0  0  0  0  0  0  0  0  0  0  0
    7.4303   -2.0123    4.0188 H   0  0  0  0  0  0  0  0  0  0  0  0
    9.4526    0.3060    3.5753 H   0  0  0  0  0  0  0  0  0  0  0  0
    9.6529   -1.3322    2.9406 H   0  0  0  0  0  0  0  0  0  0  0  0
    9.7575   -2.2369    5.2930 H   0  0  0  0  0  0  0  0  0  0  0  0
    9.5991   -0.5986    5.9230 H   0  0  0  0  0  0  0  0  0  0  0  0
   11.7346    0.0547    4.7458 H   0  0  0  0  0  0  0  0  0  0  0  0
   11.8896   -1.5880    4.1200 H   0  0  0  0  0  0  0  0  0  0  0  0
   11.9751   -2.4689    6.4969 H   0  0  0  0  0  0  0  0  0  0  0  0
   11.8320   -0.8421    7.1076 H   0  0  0  0  0  0  0  0  0  0  0  0
   13.9573   -0.4624    4.2831 H   0  0  0  0  0  0  0  0  0  0  0  0
   16.4238   -0.2825    4.3741 H   0  0  0  0  0  0  0  0  0  0  0  0
   17.6477   -1.0197    6.4260 H   0  0  0  0  0  0  0  0  0  0  0  0
   16.3971   -1.9252    8.3567 H   0  0  0  0  0  0  0  0  0  0  0  0
   14.8768   -1.7959   10.0932 H   0  0  0  0  0  0  0  0  0  0  0  0
   15.0084   -3.4541    9.4419 H   0  0  0  0  0  0  0  0  0  0  0  0
   11.7024   -1.6118   10.1806 H   0  0  0  0  0  0  0  0  0  0  0  0
   12.7714   -1.2133   11.5508 H   0  0  0  0  0  0  0  0  0  0  0  0
   11.5125   -2.4615   11.7469 H   0  0  0  0  0  0  0  0  0  0  0  0
   13.3420   -5.2067    9.8918 H   0  0  0  0  0  0  0  0  0  0  0  0
   11.8695   -4.8177   10.9473 H   0  0  0  0  0  0  0  0  0  0  0  0
  1  2  1  0
  1 24  1  0
  1 25  1  0
  1 26  1  0
  2  3  1  0
  2 27  1  0
  2 28  1  0
  3  4  1  0
  3 29  1  0
  3 30  1  0
  4  5  1  0
  4 31  1  0
  4 32  1  0
  5  6  1  0
  5 33  1  0
  5 34  1  0
  6  7  2  0
  6 35  1  0
  7  8  1  0
  7 36  1  0
  8  9  1  0
  8 37  1  0
  8 38  1  0
  9 10  1  0
  9 39  1  0
  9 40  1  0
 10 11  1  0
 10 41  1  0
 10 42  1  0
 11 12  1  0
 11 43  1  0
 11 44  1  0
 12 13  2  0
 12 17  1  0
 13 14  1  0
 13 45  1  0
 14 15  2  0
 14 46  1  0
 15 16  1  0
 15 47  1  0
 16 17  2  0
 16 48  1  0
 17 18  1  0
 18 19  1  0
 20 19  1  6
 19 49  1  0
 19 50  1  0
 20 21  1  0
 20 22  1  0
 20 23  1  0
 21 51  1  0
 21 52  1  0
 21 53  1  0
 22 23  1  0
 22 54  1  0
 22 55  1  0
M  END

