
     RDKit          3D

 29 30  0  0  0  0  0  0  0  0999 V2000
    3.4264    1.2342   -0.5830 N   0  0  0  0  0  0  0  0  0  0  0  0
    2.8117   -0.0110   -0.3781 C   0  0  0  0  0  0  0  0  0  0  0  0
    1.8741   -0.3658   -1.0781 O   0  0  0  0  0  0  0  0  0  0  0  0
    3.3139   -0.8433    0.7204 C   0  0  0  0  0  0  0  0  0  0  0  0
    4.1141   -0.4203    1.7579 C   0  0  0  0  0  0  0  0  0  0  0  0
    4.5753    0.8599    1.9482 N   0  0  0  0  0  0  0  0  0  0  0  0
    4.5407   -1.3418    2.7001 N   0  0  0  0  0  0  0  0  0  0  0  0
    4.4956   -2.7187    2.5211 C   0  0  0  0  0  0  0  0  0  0  0  0
    5.3338   -3.7322    3.5423 S   0  0  0  0  0  0  0  0  0  0  0  0
    3.7634   -3.1152    1.4622 N   0  0  0  0  0  0  0  0  0  0  0  0
    2.8000   -2.2649    0.7483 C   0  0  1  0  0  0  0  0  0  0  0  0
    1.3849   -2.4420    1.3320 C   0  0  0  0  0  0  0  0  0  0  0  0
    0.8044   -1.4485    2.1323 C   0  0  0  0  0  0  0  0  0  0  0  0
   -0.4650   -1.6175    2.6866 C   0  0  0  0  0  0  0  0  0  0  0  0
   -1.2948   -0.0761    3.8950 I   0  0  0  0  0  0  0  0  0  0  0  0
   -1.1980   -2.7822    2.4523 C   0  0  0  0  0  0  0  0  0  0  0  0
   -0.6388   -3.7816    1.6531 C   0  0  0  0  0  0  0  0  0  0  0  0
    0.6340   -3.6083    1.1063 C   0  0  0  0  0  0  0  0  0  0  0  0
    1.3282   -5.0349    0.0262 Br  0  0  0  0  0  0  0  0  0  0  0  0
    3.0796    1.6830   -1.4280 H   0  0  0  0  0  0  0  0  0  0  0  0
    4.4423    1.2455   -0.5193 H   0  0  0  0  0  0  0  0  0  0  0  0
    4.0396    1.5914    1.4870 H   0  0  0  0  0  0  0  0  0  0  0  0
    4.9356    1.0977    2.8650 H   0  0  0  0  0  0  0  0  0  0  0  0
    5.1360   -1.0539    3.4693 H   0  0  0  0  0  0  0  0  0  0  0  0
    3.6979   -4.1202    1.3321 H   0  0  0  0  0  0  0  0  0  0  0  0
    2.7505   -2.6273   -0.2882 H   0  0  0  0  0  0  0  0  0  0  0  0
    1.3609   -0.5267    2.3032 H   0  0  0  0  0  0  0  0  0  0  0  0
   -2.1926   -2.9199    2.8794 H   0  0  0  0  0  0  0  0  0  0  0  0
   -1.1971   -4.6982    1.4556 H   0  0  0  0  0  0  0  0  0  0  0  0
  1  2  1  0
  1 20  1  0
  1 21  1  0
  2  3  2  0
  2  4  1  0
  4  5  2  0
  4 11  1  0
  5  6  1  0
  5  7  1  0
  6 22  1  0
  6 23  1  0
  7  8  1  0
  7 24  1  0
  8  9  2  0
  8 10  1  0
 10 11  1  0
 10 25  1  0
 11 12  1  0
 11 26  1  6
 12 13  2  0
 12 18  1  0
 13 14  1  0
 13 27  1  0
 14 15  1  0
 14 16  2  0
 16 17  1  0
 16 28  1  0
 17 18  2  0
 17 29  1  0
 18 19  1  0
M  END

