
     RDKit          3D

 35 36  0  0  0  0  0  0  0  0999 V2000
    1.5635    2.8681   -0.7849 C   0  0  0  0  0  0  0  0  0  0  0  0
    2.9316    2.4834   -0.6150 O   0  0  0  0  0  0  0  0  0  0  0  0
    3.1813    1.6853    0.4126 C   0  0  0  0  0  0  0  0  0  0  0  0
    2.3818    1.2594    1.2048 O   0  0  0  0  0  0  0  0  0  0  0  0
    4.5580    1.3624    0.4946 N   0  0  0  0  0  0  0  0  0  0  0  0
    5.1050    0.5497    1.4669 C   0  0  0  0  0  0  0  0  0  0  0  0
    6.4497    0.4835    1.2072 C   0  0  0  0  0  0  0  0  0  0  0  0
    6.6290    1.2937    0.0466 C   0  0  0  0  0  0  0  0  0  0  0  0
    7.9277    1.5545   -0.6519 C   0  0  0  0  0  0  0  0  0  0  0  0
    8.9651    1.0589   -0.2415 O   0  0  0  0  0  0  0  0  0  0  0  0
    7.7930    2.3695   -1.7442 N   0  0  0  0  0  0  0  0  0  0  0  0
    8.7760    2.8304   -2.6400 C   0  0  0  0  0  0  0  0  0  0  0  0
   10.1302    2.4825   -2.5170 C   0  0  0  0  0  0  0  0  0  0  0  0
   11.0639    2.9678   -3.4349 C   0  0  0  0  0  0  0  0  0  0  0  0
   10.6877    3.8040   -4.4920 C   0  0  0  0  0  0  0  0  0  0  0  0
   11.6916    4.3287   -5.4899 C   0  0  0  0  0  0  0  0  0  0  0  0
    9.3286    4.1407   -4.5970 C   0  0  0  0  0  0  0  0  0  0  0  0
    8.3623    3.6771   -3.7001 C   0  0  0  0  0  0  0  0  0  0  0  0
    6.9132    4.0710   -3.8610 C   0  0  0  0  0  0  0  0  0  0  0  0
    5.4861    1.8174   -0.3702 N   0  0  0  0  0  0  0  0  0  0  0  0
    1.5433    3.5178   -1.6675 H   0  0  0  0  0  0  0  0  0  0  0  0
    1.2009    3.4112    0.1003 H   0  0  0  0  0  0  0  0  0  0  0  0
    0.9292    1.9837   -0.9442 H   0  0  0  0  0  0  0  0  0  0  0  0
    4.4732    0.1106    2.2339 H   0  0  0  0  0  0  0  0  0  0  0  0
    7.2211   -0.0572    1.7479 H   0  0  0  0  0  0  0  0  0  0  0  0
    6.8386    2.6738   -1.9127 H   0  0  0  0  0  0  0  0  0  0  0  0
   10.4356    1.8331   -1.6999 H   0  0  0  0  0  0  0  0  0  0  0  0
   12.1136    2.6835   -3.3180 H   0  0  0  0  0  0  0  0  0  0  0  0
   12.7131    4.0044   -5.2418 H   0  0  0  0  0  0  0  0  0  0  0  0
   11.6891    5.4313   -5.5250 H   0  0  0  0  0  0  0  0  0  0  0  0
   11.4683    3.9756   -6.5114 H   0  0  0  0  0  0  0  0  0  0  0  0
    9.0050    4.7945   -5.4135 H   0  0  0  0  0  0  0  0  0  0  0  0
    6.7820    4.7404   -4.7227 H   0  0  0  0  0  0  0  0  0  0  0  0
    6.5253    4.6010   -2.9730 H   0  0  0  0  0  0  0  0  0  0  0  0
    6.2607    3.1947   -4.0245 H   0  0  0  0  0  0  0  0  0  0  0  0
  1  2  1  0
  1 21  1  0
  1 22  1  0
  1 23  1  0
  2  3  1  0
  3  4  2  0
  3  5  1  0
  5  6  1  0
  5 20  1  0
  6  7  2  0
  6 24  1  0
  7  8  1  0
  7 25  1  0
  8  9  1  0
  8 20  2  0
  9 10  2  0
  9 11  1  0
 11 12  1  0
 11 26  1  0
 12 13  2  0
 12 18  1  0
 13 14  1  0
 13 27  1  0
 14 15  2  0
 14 28  1  0
 15 16  1  0
 15 17  1  0
 16 29  1  0
 16 30  1  0
 16 31  1  0
 17 18  2  0
 17 32  1  0
 18 19  1  0
 19 33  1  0
 19 34  1  0
 19 35  1  0
M  END

