
     RDKit          3D

 33 34  0  0  0  0  0  0  0  0999 V2000
    0.9818   -0.0011   -0.0751 C   0  0  0  0  0  0  0  0  0  0  0  0
    2.5230   -0.0143   -0.0632 C   0  0  1  0  0  0  0  0  0  0  0  0
    3.0896    1.3258   -0.2019 N   0  0  0  0  0  0  0  0  0  0  0  0
    3.2520    1.9920   -1.3972 C   0  0  0  0  0  0  0  0  0  0  0  0
    2.7451    1.5160   -2.6259 C   0  0  0  0  0  0  0  0  0  0  0  0
    2.9402    2.2460   -3.7960 C   0  0  0  0  0  0  0  0  0  0  0  0
    3.6355    3.4551   -3.7853 C   0  0  0  0  0  0  0  0  0  0  0  0
    3.8011    4.2718   -5.3485 Cl  0  0  0  0  0  0  0  0  0  0  0  0
    4.1614    3.9651   -2.5781 C   0  0  0  0  0  0  0  0  0  0  0  0
    4.9471    5.2511   -2.3503 C   0  0  0  0  0  0  0  0  0  0  0  0
    5.3326    5.5532   -1.2486 O   0  0  0  0  0  0  0  0  0  0  0  0
    5.2057    6.0458   -3.3936 O   0  0  0  0  0  0  0  0  0  0  0  0
    3.9522    3.2149   -1.4157 C   0  0  0  0  0  0  0  0  0  0  0  0
    3.0508   -0.6630    1.2087 C   0  0  0  0  0  0  0  0  0  0  0  0
    2.9351    0.0075    2.4399 C   0  0  0  0  0  0  0  0  0  0  0  0
    3.3905   -0.5416    3.6378 C   0  0  0  0  0  0  0  0  0  0  0  0
    3.9697   -1.8078    3.6070 C   0  0  0  0  0  0  0  0  0  0  0  0
    4.4120   -2.3574    4.7428 F   0  0  0  0  0  0  0  0  0  0  0  0
    4.0971   -2.5215    2.4202 C   0  0  0  0  0  0  0  0  0  0  0  0
    3.6356   -1.9427    1.2333 C   0  0  0  0  0  0  0  0  0  0  0  0
    3.8070   -2.8904   -0.2320 Cl  0  0  0  0  0  0  0  0  0  0  0  0
    0.5978    0.4814   -0.9864 H   0  0  0  0  0  0  0  0  0  0  0  0
    0.5877    0.5530    0.7905 H   0  0  0  0  0  0  0  0  0  0  0  0
    0.5899   -1.0294   -0.0381 H   0  0  0  0  0  0  0  0  0  0  0  0
    2.8645   -0.6286   -0.9115 H   0  0  0  0  0  0  0  0  0  0  0  0
    3.6674    1.6545    0.5609 H   0  0  0  0  0  0  0  0  0  0  0  0
    2.1973    0.5756   -2.6826 H   0  0  0  0  0  0  0  0  0  0  0  0
    2.5452    1.8695   -4.7411 H   0  0  0  0  0  0  0  0  0  0  0  0
    4.8401    5.6877   -4.2218 H   0  0  0  0  0  0  0  0  0  0  0  0
    4.3664    3.6270   -0.4931 H   0  0  0  0  0  0  0  0  0  0  0  0
    2.4670    0.9954    2.4617 H   0  0  0  0  0  0  0  0  0  0  0  0
    3.2985   -0.0101    4.5863 H   0  0  0  0  0  0  0  0  0  0  0  0
    4.5504   -3.5127    2.4235 H   0  0  0  0  0  0  0  0  0  0  0  0
  1  2  1  0
  1 22  1  0
  1 23  1  0
  1 24  1  0
  2  3  1  0
  2 14  1  0
  2 25  1  6
  3  4  1  0
  3 26  1  0
  4  5  2  0
  4 13  1  0
  5  6  1  0
  5 27  1  0
  6  7  2  0
  6 28  1  0
  7  8  1  0
  7  9  1  0
  9 10  1  0
  9 13  2  0
 10 11  2  0
 10 12  1  0
 12 29  1  0
 13 30  1  0
 14 15  2  0
 14 20  1  0
 15 16  1  0
 15 31  1  0
 16 17  2  0
 16 32  1  0
 17 18  1  0
 17 19  1  0
 19 20  2  0
 19 33  1  0
 20 21  1  0
M  END

