
     RDKit          3D

 75 81  0  0  0  0  0  0  0  0999 V2000
    0.3261   -2.8485    0.4044 C   0  0  0  0  0  0  0  0  0  0  0  0
    2.0333   -2.0419    0.3391 Si  0  0  1  0  0  4  0  0  0  0  0  0
    1.8948   -0.1822    0.6342 C   0  0  0  0  0  0  0  0  0  0  0  0
    3.1722   -2.8301    1.6241 C   0  0  0  0  0  0  0  0  0  0  0  0
    2.7715   -2.3291   -1.3791 C   0  0  0  0  0  0  0  0  0  0  0  0
    3.2191   -1.0257   -2.4407 S   0  0  0  0  0  0  0  0  0  0  0  0
    3.7825   -2.0350   -3.7416 C   0  0  0  0  0  0  0  0  0  0  0  0
    4.4560   -1.2473   -5.3260 Si  0  0  1  0  0  4  0  0  0  0  0  0
    4.3657    0.6311   -5.1383 C   0  0  0  0  0  0  0  0  0  0  0  0
    6.2546   -1.7722   -5.5748 C   0  0  0  0  0  0  0  0  0  0  0  0
    3.3987   -1.7875   -6.7967 C   0  0  0  0  0  0  0  0  0  0  0  0
    3.6263   -3.3663   -3.3593 C   0  0  0  0  0  0  0  0  0  0  0  0
    3.0597   -3.5099   -2.0356 C   0  0  0  0  0  0  0  0  0  0  0  0
    2.8596   -5.2025   -1.5475 S   0  0  0  0  0  0  0  0  0  0  0  0
    3.5244   -5.7271   -3.0935 C   0  0  0  0  0  0  0  0  0  0  0  0
    3.8748   -4.6712   -3.9239 C   0  0  0  0  0  0  0  0  0  0  0  0
    4.5333   -5.2284   -5.4541 S   0  0  0  0  0  0  0  0  0  0  0  0
    4.3216   -6.8784   -4.9414 C   0  0  0  0  0  0  0  0  0  0  0  0
    4.6707   -8.3929   -5.7421 S   0  0  0  0  0  0  0  0  0  0  0  0
    4.0709   -9.2396   -4.3350 C   0  0  0  0  0  0  0  0  0  0  0  0
    3.9280  -10.9392   -3.9869 S   0  0  0  0  0  0  0  0  0  0  0  0
    3.2510  -10.5563   -2.4115 C   0  0  0  0  0  0  0  0  0  0  0  0
    3.1574   -9.1876   -2.2042 C   0  0  0  0  0  0  0  0  0  0  0  0
    2.4823   -8.7669   -0.6322 S   0  0  0  0  0  0  0  0  0  0  0  0
    2.3184  -10.4896   -0.2380 C   0  0  0  0  0  0  0  0  0  0  0  0
    1.8387  -11.1366    0.8848 C   0  0  0  0  0  0  0  0  0  0  0  0
    1.1287  -10.4950    2.5190 Si  0  0  1  0  0  4  0  0  0  0  0  0
   -0.6523  -11.1045    2.6867 C   0  0  0  0  0  0  0  0  0  0  0  0
    2.1691  -11.1811    3.9395 C   0  0  0  0  0  0  0  0  0  0  0  0
    1.1762   -8.6084    2.5259 C   0  0  0  0  0  0  0  0  0  0  0  0
    1.9706  -12.8498    0.5891 S   0  0  0  0  0  0  0  0  0  0  0  0
    2.6537  -12.7088   -1.0050 C   0  0  0  0  0  0  0  0  0  0  0  0
    3.0794  -14.2682   -1.9914 Si  0  0  1  0  0  4  0  0  0  0  0  0
    2.0735  -14.2945   -3.5914 C   0  0  0  0  0  0  0  0  0  0  0  0
    4.9309  -14.2895   -2.3707 C   0  0  0  0  0  0  0  0  0  0  0  0
    2.6344  -15.7739   -0.9397 C   0  0  0  0  0  0  0  0  0  0  0  0
    2.7791  -11.3549   -1.3060 C   0  0  0  0  0  0  0  0  0  0  0  0
    3.6269   -8.4050   -3.3062 C   0  0  0  0  0  0  0  0  0  0  0  0
    3.7745   -7.0155   -3.6630 C   0  0  0  0  0  0  0  0  0  0  0  0
   -0.1182   -2.7478    1.4090 H   0  0  0  0  0  0  0  0  0  0  0  0
    0.3809   -3.9232    0.1660 H   0  0  0  0  0  0  0  0  0  0  0  0
   -0.3597   -2.3805   -0.3203 H   0  0  0  0  0  0  0  0  0  0  0  0
    1.4666    0.0133    1.6315 H   0  0  0  0  0  0  0  0  0  0  0  0
    1.2409    0.3000   -0.1106 H   0  0  0  0  0  0  0  0  0  0  0  0
    2.8796    0.3108    0.5909 H   0  0  0  0  0  0  0  0  0  0  0  0
    2.7508   -2.7278    2.6384 H   0  0  0  0  0  0  0  0  0  0  0  0
    4.1653   -2.3524    1.6175 H   0  0  0  0  0  0  0  0  0  0  0  0
    3.3173   -3.9045    1.4259 H   0  0  0  0  0  0  0  0  0  0  0  0
    4.9714    0.9875   -4.2893 H   0  0  0  0  0  0  0  0  0  0  0  0
    3.3310    0.9788   -4.9871 H   0  0  0  0  0  0  0  0  0  0  0  0
    4.7510    1.1171   -6.0504 H   0  0  0  0  0  0  0  0  0  0  0  0
    6.8812   -1.4249   -4.7373 H   0  0  0  0  0  0  0  0  0  0  0  0
    6.6606   -1.3411   -6.5056 H   0  0  0  0  0  0  0  0  0  0  0  0
    6.3596   -2.8670   -5.6383 H   0  0  0  0  0  0  0  0  0  0  0  0
    2.3562   -1.4521   -6.6719 H   0  0  0  0  0  0  0  0  0  0  0  0
    3.3849   -2.8828   -6.9141 H   0  0  0  0  0  0  0  0  0  0  0  0
    3.7862   -1.3541   -7.7343 H   0  0  0  0  0  0  0  0  0  0  0  0
   -0.7029  -12.2051    2.6532 H   0  0  0  0  0  0  0  0  0  0  0  0
   -1.2833  -10.7156    1.8710 H   0  0  0  0  0  0  0  0  0  0  0  0
   -1.0921  -10.7761    3.6436 H   0  0  0  0  0  0  0  0  0  0  0  0
    2.1789  -12.2834    3.9329 H   0  0  0  0  0  0  0  0  0  0  0  0
    1.7680  -10.8543    4.9138 H   0  0  0  0  0  0  0  0  0  0  0  0
    3.2137  -10.8369    3.8689 H   0  0  0  0  0  0  0  0  0  0  0  0
    0.5691   -8.1785    1.7131 H   0  0  0  0  0  0  0  0  0  0  0  0
    2.2032   -8.2223    2.4246 H   0  0  0  0  0  0  0  0  0  0  0  0
    0.7701   -8.2329    3.4804 H   0  0  0  0  0  0  0  0  0  0  0  0
    2.2678  -13.4079   -4.2157 H   0  0  0  0  0  0  0  0  0  0  0  0
    0.9936  -14.3187   -3.3723 H   0  0  0  0  0  0  0  0  0  0  0  0
    2.3196  -15.1878   -4.1901 H   0  0  0  0  0  0  0  0  0  0  0  0
    5.2461  -13.4034   -2.9442 H   0  0  0  0  0  0  0  0  0  0  0  0
    5.1952  -15.1834   -2.9607 H   0  0  0  0  0  0  0  0  0  0  0  0
    5.5190  -14.3109   -1.4388 H   0  0  0  0  0  0  0  0  0  0  0  0
    1.5606  -15.7997   -0.6933 H   0  0  0  0  0  0  0  0  0  0  0  0
    3.2006  -15.7950    0.0055 H   0  0  0  0  0  0  0  0  0  0  0  0
    2.8722  -16.6985   -1.4920 H   0  0  0  0  0  0  0  0  0  0  0  0
  2  1  1  6
  1 40  1  0
  1 41  1  0
  1 42  1  0
  2  3  1  0
  2  4  1  0
  2  5  1  0
  3 43  1  0
  3 44  1  0
  3 45  1  0
  4 46  1  0
  4 47  1  0
  4 48  1  0
  5  6  1  0
  5 13  2  0
  6  7  1  0
  7  8  1  0
  7 12  2  0
  8  9  1  1
  8 10  1  0
  8 11  1  0
  9 49  1  0
  9 50  1  0
  9 51  1  0
 10 52  1  0
 10 53  1  0
 10 54  1  0
 11 55  1  0
 11 56  1  0
 11 57  1  0
 12 13  1  0
 12 16  1  0
 13 14  1  0
 14 15  1  0
 15 16  2  0
 15 39  1  0
 16 17  1  0
 17 18  1  0
 18 19  1  0
 18 39  2  0
 19 20  1  0
 20 21  1  0
 20 38  2  0
 21 22  1  0
 22 23  2  0
 22 37  1  0
 23 24  1  0
 23 38  1  0
 24 25  1  0
 25 26  2  0
 25 37  1  0
 26 27  1  0
 26 31  1  0
 27 28  1  1
 27 29  1  0
 27 30  1  0
 28 58  1  0
 28 59  1  0
 28 60  1  0
 29 61  1  0
 29 62  1  0
 29 63  1  0
 30 64  1  0
 30 65  1  0
 30 66  1  0
 31 32  1  0
 32 33  1  0
 32 37  2  0
 33 34  1  6
 33 35  1  0
 33 36  1  0
 34 67  1  0
 34 68  1  0
 34 69  1  0
 35 70  1  0
 35 71  1  0
 35 72  1  0
 36 73  1  0
 36 74  1  0
 36 75  1  0
 38 39  1  0
M  END

