
     RDKit          3D

 27 30  0  0  0  0  0  0  0  0999 V2000
    1.0056   -0.0538   -0.0625 O   0  0  0  0  0  0  0  0  0  0  0  0
    2.2045   -0.0694   -0.0628 C   0  0  0  0  0  0  0  0  0  0  0  0
    3.1304   -1.2388   -0.0630 C   0  0  0  0  0  0  0  0  0  0  0  0
    2.8310   -2.5985   -0.0628 C   0  0  0  0  0  0  0  0  0  0  0  0
    3.9037   -3.4984   -0.0630 C   0  0  0  0  0  0  0  0  0  0  0  0
    5.2314   -3.0383   -0.0634 C   0  0  0  0  0  0  0  0  0  0  0  0
    5.5260   -1.6695   -0.0636 C   0  0  0  0  0  0  0  0  0  0  0  0
    4.4533   -0.7795   -0.0633 C   0  0  0  0  0  0  0  0  0  0  0  0
    4.4280    0.6904   -0.0635 C   0  0  0  0  0  0  0  0  0  0  0  0
    5.4350    1.4840   -0.0638 N   0  0  0  0  0  0  0  0  0  0  0  0
    5.1733    2.8491   -0.0638 C   0  0  0  0  0  0  0  0  0  0  0  0
    6.2558    3.7495   -0.0642 C   0  0  0  0  0  0  0  0  0  0  0  0
    6.0256    5.1215   -0.0642 C   0  0  0  0  0  0  0  0  0  0  0  0
    4.7139    5.6250   -0.0639 C   0  0  0  0  0  0  0  0  0  0  0  0
    3.6331    4.7475   -0.0635 C   0  0  0  0  0  0  0  0  0  0  0  0
    3.8503    3.3614   -0.0635 C   0  0  0  0  0  0  0  0  0  0  0  0
    2.6819    2.4462   -0.0631 C   0  0  0  0  0  0  0  0  0  0  0  0
    1.5255    2.7957   -0.0628 O   0  0  0  0  0  0  0  0  0  0  0  0
    3.0736    1.0815   -0.0631 N   0  0  0  0  0  0  0  0  0  0  0  0
    1.7932   -2.9387   -0.0625 H   0  0  0  0  0  0  0  0  0  0  0  0
    3.7090   -4.5736   -0.0629 H   0  0  0  0  0  0  0  0  0  0  0  0
    6.0483   -3.7643   -0.0636 H   0  0  0  0  0  0  0  0  0  0  0  0
    6.5541   -1.3024   -0.0639 H   0  0  0  0  0  0  0  0  0  0  0  0
    7.2663    3.3367   -0.0644 H   0  0  0  0  0  0  0  0  0  0  0  0
    6.8728    5.8122   -0.0644 H   0  0  0  0  0  0  0  0  0  0  0  0
    4.5424    6.7040   -0.0639 H   0  0  0  0  0  0  0  0  0  0  0  0
    2.6021    5.1071   -0.0633 H   0  0  0  0  0  0  0  0  0  0  0  0
  1  2  2  0
  2  3  1  0
  2 19  1  0
  3  4  2  0
  3  8  1  0
  4  5  1  0
  4 20  1  0
  5  6  2  0
  5 21  1  0
  6  7  1  0
  6 22  1  0
  7  8  2  0
  7 23  1  0
  8  9  1  0
  9 10  2  0
  9 19  1  0
 10 11  1  0
 11 12  2  0
 11 16  1  0
 12 13  1  0
 12 24  1  0
 13 14  2  0
 13 25  1  0
 14 15  1  0
 14 26  1  0
 15 16  2  0
 15 27  1  0
 16 17  1  0
 17 18  2  0
 17 19  1  0
M  END

