
     RDKit          3D

 45 45  0  0  0  0  0  0  0  0999 V2000
    0.6963   -0.0136    0.0153 C   0  0  0  0  0  0  0  0  0  0  0  0
    2.2156    0.0218    0.1929 C   0  0  0  0  0  0  0  0  0  0  0  0
    2.9498   -0.9439   -0.7411 C   0  0  0  0  0  0  0  0  0  0  0  0
    4.4857   -0.8620   -0.7118 C   0  0  1  0  0  0  0  0  0  0  0  0
    5.0976   -1.0962    0.6860 C   0  0  0  0  0  0  0  0  0  0  0  0
    4.7781   -2.4507    1.3263 C   0  0  0  0  0  0  0  0  0  0  0  0
    5.5460   -2.6954    2.6266 C   0  0  0  0  0  0  0  0  0  0  0  0
    5.0256   -1.8208   -1.6819 N   0  0  0  0  0  0  0  0  0  0  0  0
    6.3456   -1.5139   -2.2150 C   0  0  0  0  0  0  0  0  0  0  0  0
    6.9049   -2.6355   -3.0898 C   0  0  0  0  0  0  0  0  0  0  0  0
    6.0848   -2.9312   -4.3484 C   0  0  0  0  0  0  0  0  0  0  0  0
    6.8293   -3.8511   -5.3187 C   0  0  0  0  0  0  0  0  0  0  0  0
    8.0342   -3.7902   -5.4822 O   0  0  0  0  0  0  0  0  0  0  0  0
    6.0350   -4.7372   -6.0027 N   0  0  0  0  0  0  0  0  0  0  0  0
    6.5406   -5.5781   -7.0469 C   0  0  1  0  0  0  0  0  0  0  0  0
    7.3677   -6.7819   -6.6855 C   0  0  0  0  0  0  0  0  0  0  0  0
    5.9578   -6.9609   -7.1863 C   0  0  0  0  0  0  0  0  0  0  0  0
    0.1924    0.6844    0.7027 H   0  0  0  0  0  0  0  0  0  0  0  0
    0.2935   -1.0216    0.2111 H   0  0  0  0  0  0  0  0  0  0  0  0
    0.4047    0.2626   -1.0121 H   0  0  0  0  0  0  0  0  0  0  0  0
    2.4619   -0.2120    1.2428 H   0  0  0  0  0  0  0  0  0  0  0  0
    2.5833    1.0494    0.0186 H   0  0  0  0  0  0  0  0  0  0  0  0
    2.6240   -0.7416   -1.7795 H   0  0  0  0  0  0  0  0  0  0  0  0
    2.6385   -1.9816   -0.5261 H   0  0  0  0  0  0  0  0  0  0  0  0
    4.7563    0.1790   -1.0053 H   0  0  0  0  0  0  0  0  0  0  0  0
    4.7819   -0.2769    1.3555 H   0  0  0  0  0  0  0  0  0  0  0  0
    6.1940   -0.9920    0.6043 H   0  0  0  0  0  0  0  0  0  0  0  0
    5.0071   -3.2433    0.5951 H   0  0  0  0  0  0  0  0  0  0  0  0
    3.6948   -2.5252    1.5283 H   0  0  0  0  0  0  0  0  0  0  0  0
    6.6362   -2.6787    2.4582 H   0  0  0  0  0  0  0  0  0  0  0  0
    5.2943   -3.6733    3.0678 H   0  0  0  0  0  0  0  0  0  0  0  0
    5.3204   -1.9233    3.3821 H   0  0  0  0  0  0  0  0  0  0  0  0
    4.3659   -1.9185   -2.4514 H   0  0  0  0  0  0  0  0  0  0  0  0
    7.0362   -1.3632   -1.3697 H   0  0  0  0  0  0  0  0  0  0  0  0
    6.3599   -0.5569   -2.7894 H   0  0  0  0  0  0  0  0  0  0  0  0
    6.9875   -3.5548   -2.4855 H   0  0  0  0  0  0  0  0  0  0  0  0
    7.9250   -2.3729   -3.4110 H   0  0  0  0  0  0  0  0  0  0  0  0
    5.8904   -1.9880   -4.8942 H   0  0  0  0  0  0  0  0  0  0  0  0
    5.1019   -3.3624   -4.0930 H   0  0  0  0  0  0  0  0  0  0  0  0
    5.0295   -4.6600   -5.8999 H   0  0  0  0  0  0  0  0  0  0  0  0
    6.8206   -5.0549   -7.9703 H   0  0  0  0  0  0  0  0  0  0  0  0
    7.5592   -6.9492   -5.6231 H   0  0  0  0  0  0  0  0  0  0  0  0
    8.2005   -7.0398   -7.3448 H   0  0  0  0  0  0  0  0  0  0  0  0
    5.1960   -7.2613   -6.4604 H   0  0  0  0  0  0  0  0  0  0  0  0
    5.7970   -7.3494   -8.1956 H   0  0  0  0  0  0  0  0  0  0  0  0
  1  2  1  0
  1 18  1  0
  1 19  1  0
  1 20  1  0
  2  3  1  0
  2 21  1  0
  2 22  1  0
  3  4  1  0
  3 23  1  0
  3 24  1  0
  4  5  1  0
  4  8  1  0
  4 25  1  6
  5  6  1  0
  5 26  1  0
  5 27  1  0
  6  7  1  0
  6 28  1  0
  6 29  1  0
  7 30  1  0
  7 31  1  0
  7 32  1  0
  8  9  1  0
  8 33  1  0
  9 10  1  0
  9 34  1  0
  9 35  1  0
 10 11  1  0
 10 36  1  0
 10 37  1  0
 11 12  1  0
 11 38  1  0
 11 39  1  0
 12 13  2  0
 12 14  1  0
 14 15  1  0
 14 40  1  0
 15 16  1  0
 15 17  1  0
 15 41  1  6
 16 17  1  0
 16 42  1  0
 16 43  1  0
 17 44  1  0
 17 45  1  0
M  END

