
     RDKit          3D

 54 56  0  0  0  0  0  0  0  0999 V2000
    1.5570   -1.7423    0.5751 C   0  0  0  0  0  0  0  0  0  0  0  0
    1.8805   -1.8603    2.0643 C   0  0  0  0  0  0  0  0  0  0  0  0
    3.3305   -1.5228    2.3756 C   0  0  0  0  0  0  0  0  0  0  0  0
    3.5284   -1.6606    3.7753 O   0  0  0  0  0  0  0  0  0  0  0  0
    4.7413   -1.4221    4.3191 C   0  0  0  0  0  0  0  0  0  0  0  0
    5.8758   -1.0247    3.5891 C   0  0  0  0  0  0  0  0  0  0  0  0
    7.0837   -0.8045    4.2526 C   0  0  0  0  0  0  0  0  0  0  0  0
    7.1844   -0.9734    5.6404 C   0  0  0  0  0  0  0  0  0  0  0  0
    8.4471   -0.7538    6.3838 C   0  0  0  0  0  0  0  0  0  0  0  0
    8.5901   -0.9198    7.5759 O   0  0  0  0  0  0  0  0  0  0  0  0
    9.4534   -0.3063    5.5905 O   0  0  0  0  0  0  0  0  0  0  0  0
   10.7020   -0.1437    6.2310 C   0  0  0  0  0  0  0  0  0  0  0  0
   11.3279   -1.5110    6.5550 C   0  0  0  0  0  0  0  0  0  0  0  0
   10.8817   -2.5325    6.0612 O   0  0  0  0  0  0  0  0  0  0  0  0
   12.3943   -1.5030    7.4155 N   0  0  0  0  0  0  0  0  0  0  0  0
   12.8995   -0.2905    8.0493 C   0  0  0  0  0  0  0  0  0  0  0  0
   12.9535   -2.7938    7.8018 C   0  0  0  0  0  0  0  0  0  0  0  0
   12.3776   -3.3855    9.0873 C   0  0  2  0  0  0  0  0  0  0  0  0
   12.8522   -4.3750    9.2425 H   0  0  0  0  0  0  0  0  0  0  0  0
   10.8642   -3.5843    9.0978 C   0  0  0  0  0  0  0  0  0  0  0  0
   10.4655   -4.1840   10.3259 O   0  0  0  0  0  0  0  0  0  0  0  0
   11.0111   -3.6248   11.4419 C   0  0  0  0  0  0  0  0  0  0  0  0
   10.4367   -3.8946   12.6890 C   0  0  0  0  0  0  0  0  0  0  0  0
   10.9724   -3.3326   13.8492 C   0  0  0  0  0  0  0  0  0  0  0  0
   12.0868   -2.4891   13.7698 C   0  0  0  0  0  0  0  0  0  0  0  0
   12.6726   -2.2242   12.5302 C   0  0  0  0  0  0  0  0  0  0  0  0
   12.1455   -2.7915   11.3663 C   0  0  0  0  0  0  0  0  0  0  0  0
   12.7524   -2.5266   10.1669 O   0  0  0  0  0  0  0  0  0  0  0  0
    6.0437   -1.3743    6.3626 C   0  0  0  0  0  0  0  0  0  0  0  0
    4.8383   -1.5947    5.7148 C   0  0  0  0  0  0  0  0  0  0  0  0
    0.5030   -1.9918    0.3794 H   0  0  0  0  0  0  0  0  0  0  0  0
    2.1761   -2.4252   -0.0304 H   0  0  0  0  0  0  0  0  0  0  0  0
    1.7292   -0.7189    0.2018 H   0  0  0  0  0  0  0  0  0  0  0  0
    1.6767   -2.8832    2.4232 H   0  0  0  0  0  0  0  0  0  0  0  0
    1.2328   -1.1896    2.6538 H   0  0  0  0  0  0  0  0  0  0  0  0
    3.5656   -0.4883    2.0598 H   0  0  0  0  0  0  0  0  0  0  0  0
    4.0139   -2.1996    1.8281 H   0  0  0  0  0  0  0  0  0  0  0  0
    5.8280   -0.8882    2.5090 H   0  0  0  0  0  0  0  0  0  0  0  0
    7.9650   -0.5017    3.6858 H   0  0  0  0  0  0  0  0  0  0  0  0
   10.5859    0.4566    7.1449 H   0  0  0  0  0  0  0  0  0  0  0  0
   11.3405    0.4038    5.5205 H   0  0  0  0  0  0  0  0  0  0  0  0
   13.0214    0.5237    7.3182 H   0  0  0  0  0  0  0  0  0  0  0  0
   13.8873   -0.5013    8.4784 H   0  0  0  0  0  0  0  0  0  0  0  0
   12.2539    0.0607    8.8717 H   0  0  0  0  0  0  0  0  0  0  0  0
   14.0410   -2.6825    7.9355 H   0  0  0  0  0  0  0  0  0  0  0  0
   12.7724   -3.4991    6.9798 H   0  0  0  0  0  0  0  0  0  0  0  0
   10.5497   -4.2578    8.2905 H   0  0  0  0  0  0  0  0  0  0  0  0
   10.3427   -2.6208    8.9625 H   0  0  0  0  0  0  0  0  0  0  0  0
    9.5607   -4.5462   12.7182 H   0  0  0  0  0  0  0  0  0  0  0  0
   10.5132   -3.5491   14.8166 H   0  0  0  0  0  0  0  0  0  0  0  0
   12.5062   -2.0417   14.6739 H   0  0  0  0  0  0  0  0  0  0  0  0
   13.5518   -1.5825   12.4380 H   0  0  0  0  0  0  0  0  0  0  0  0
    6.1302   -1.5085    7.4425 H   0  0  0  0  0  0  0  0  0  0  0  0
    3.9453   -1.9058    6.2603 H   0  0  0  0  0  0  0  0  0  0  0  0
  1  2  1  0
  1 31  1  0
  1 32  1  0
  1 33  1  0
  2  3  1  0
  2 34  1  0
  2 35  1  0
  3  4  1  0
  3 36  1  0
  3 37  1  0
  4  5  1  0
  5  6  2  0
  5 30  1  0
  6  7  1  0
  6 38  1  0
  7  8  2  0
  7 39  1  0
  8  9  1  0
  8 29  1  0
  9 10  2  0
  9 11  1  0
 11 12  1  0
 12 13  1  0
 12 40  1  0
 12 41  1  0
 13 14  2  0
 13 15  1  0
 15 16  1  0
 15 17  1  0
 16 42  1  0
 16 43  1  0
 16 44  1  0
 17 18  1  0
 17 45  1  0
 17 46  1  0
 18 19  1  1
 18 20  1  0
 18 28  1  0
 20 21  1  0
 20 47  1  0
 20 48  1  0
 21 22  1  0
 22 23  2  0
 22 27  1  0
 23 24  1  0
 23 49  1  0
 24 25  2  0
 24 50  1  0
 25 26  1  0
 25 51  1  0
 26 27  2  0
 26 52  1  0
 27 28  1  0
 29 30  2  0
 29 53  1  0
 30 54  1  0
M  END

