
     RDKit          3D

 71 72  0  0  0  0  0  0  0  0999 V2000
    3.5409    2.0281   -1.0350 C   0  0  0  0  0  0  0  0  0  0  0  0
    3.5096    0.6510   -0.3721 C   0  0  0  0  0  0  0  0  0  0  0  0
    4.5277   -0.3088   -0.9704 C   0  0  0  0  0  0  0  0  0  0  0  0
    4.4165   -1.5535   -0.3032 O   0  0  0  0  0  0  0  0  0  0  0  0
    5.2092   -2.5994   -0.6639 C   0  0  0  0  0  0  0  0  0  0  0  0
    6.1665   -2.5290   -1.6769 C   0  0  0  0  0  0  0  0  0  0  0  0
    6.9536   -3.6352   -2.0524 C   0  0  0  0  0  0  0  0  0  0  0  0
    6.7467   -4.8666   -1.3938 C   0  0  0  0  0  0  0  0  0  0  0  0
    5.7891   -4.9105   -0.3661 C   0  0  0  0  0  0  0  0  0  0  0  0
    5.0131   -3.8171    0.0342 C   0  0  0  0  0  0  0  0  0  0  0  0
    4.0457   -3.9224    1.1547 C   0  0  0  0  0  0  0  0  0  0  0  0
    4.0598   -2.8552    2.2316 C   0  0  0  0  0  0  0  0  0  0  0  0
    3.1730   -4.9645    1.2289 C   0  0  0  0  0  0  0  0  0  0  0  0
    3.1705   -5.8909    0.2395 F   0  0  0  0  0  0  0  0  0  0  0  0
    2.1874   -5.2116    2.2547 C   0  0  0  0  0  0  0  0  0  0  0  0
    1.3201   -6.2582    2.2313 C   0  0  0  0  0  0  0  0  0  0  0  0
    0.3148   -6.5242    3.2494 C   0  0  0  0  0  0  0  0  0  0  0  0
    0.2004   -5.5926    4.4287 C   0  0  0  0  0  0  0  0  0  0  0  0
   -0.4855   -7.6175    3.0851 C   0  0  0  0  0  0  0  0  0  0  0  0
   -0.3085   -8.3920    1.9975 F   0  0  0  0  0  0  0  0  0  0  0  0
   -1.5769   -8.1044    3.9729 C   0  0  0  0  0  0  0  0  0  0  0  0
   -1.9312   -7.5816    5.0095 O   0  0  0  0  0  0  0  0  0  0  0  0
   -2.1377   -9.2176    3.4732 O   0  0  0  0  0  0  0  0  0  0  0  0
   -3.2117   -9.8100    4.2245 C   0  0  0  0  0  0  0  0  0  0  0  0
   -2.6936  -10.7459    5.3043 C   0  0  0  0  0  0  0  0  0  0  0  0
    7.5407   -6.1471   -1.7160 C   0  0  2  0  0  0  0  0  0  0  0  0
    6.6048   -7.3697   -1.8345 C   0  0  0  0  0  0  0  0  0  0  0  0
    8.5600   -6.4160   -0.5833 C   0  0  0  0  0  0  0  0  0  0  0  0
    8.2781   -5.9880   -3.0636 C   0  0  0  0  0  0  0  0  0  0  0  0
    8.9653   -4.6369   -3.2085 C   0  0  0  0  0  0  0  0  0  0  0  0
    7.9745   -3.4522   -3.1911 C   0  0  2  0  0  0  0  0  0  0  0  0
    8.7958   -2.1573   -3.0097 C   0  0  0  0  0  0  0  0  0  0  0  0
    7.2206   -3.3710   -4.5405 C   0  0  0  0  0  0  0  0  0  0  0  0
    2.7959    2.7011   -0.5837 H   0  0  0  0  0  0  0  0  0  0  0  0
    3.3183    1.9642   -2.1133 H   0  0  0  0  0  0  0  0  0  0  0  0
    4.5281    2.5081   -0.9278 H   0  0  0  0  0  0  0  0  0  0  0  0
    2.5077    0.2001   -0.4694 H   0  0  0  0  0  0  0  0  0  0  0  0
    3.7068    0.7419    0.7095 H   0  0  0  0  0  0  0  0  0  0  0  0
    5.5525    0.0957   -0.8592 H   0  0  0  0  0  0  0  0  0  0  0  0
    4.3426   -0.4404   -2.0539 H   0  0  0  0  0  0  0  0  0  0  0  0
    6.3075   -1.5871   -2.2032 H   0  0  0  0  0  0  0  0  0  0  0  0
    5.6370   -5.8477    0.1683 H   0  0  0  0  0  0  0  0  0  0  0  0
    5.0195   -2.3217    2.2284 H   0  0  0  0  0  0  0  0  0  0  0  0
    3.9241   -3.2865    3.2345 H   0  0  0  0  0  0  0  0  0  0  0  0
    3.2727   -2.1009    2.0732 H   0  0  0  0  0  0  0  0  0  0  0  0
    2.1595   -4.4924    3.0733 H   0  0  0  0  0  0  0  0  0  0  0  0
    1.3718   -6.9531    1.3930 H   0  0  0  0  0  0  0  0  0  0  0  0
    1.1591   -5.5515    4.9718 H   0  0  0  0  0  0  0  0  0  0  0  0
   -0.5858   -5.9025    5.1219 H   0  0  0  0  0  0  0  0  0  0  0  0
   -0.0158   -4.5687    4.0808 H   0  0  0  0  0  0  0  0  0  0  0  0
   -3.8043  -10.3547    3.4754 H   0  0  0  0  0  0  0  0  0  0  0  0
   -3.8285   -9.0101    4.6605 H   0  0  0  0  0  0  0  0  0  0  0  0
   -2.0417  -11.5213    4.8727 H   0  0  0  0  0  0  0  0  0  0  0  0
   -3.5397  -11.2451    5.8034 H   0  0  0  0  0  0  0  0  0  0  0  0
   -2.1278  -10.1892    6.0657 H   0  0  0  0  0  0  0  0  0  0  0  0
    6.1253   -7.6299   -0.8791 H   0  0  0  0  0  0  0  0  0  0  0  0
    7.1797   -8.2519   -2.1617 H   0  0  0  0  0  0  0  0  0  0  0  0
    5.8070   -7.1904   -2.5722 H   0  0  0  0  0  0  0  0  0  0  0  0
    8.0510   -6.5274    0.3867 H   0  0  0  0  0  0  0  0  0  0  0  0
    9.2846   -5.5939   -0.4793 H   0  0  0  0  0  0  0  0  0  0  0  0
    9.1219   -7.3449   -0.7785 H   0  0  0  0  0  0  0  0  0  0  0  0
    7.5554   -6.1238   -3.8861 H   0  0  0  0  0  0  0  0  0  0  0  0
    9.0127   -6.8043   -3.1689 H   0  0  0  0  0  0  0  0  0  0  0  0
    9.5481   -4.6012   -4.1447 H   0  0  0  0  0  0  0  0  0  0  0  0
    9.6954   -4.5046   -2.3917 H   0  0  0  0  0  0  0  0  0  0  0  0
    9.2776   -2.1250   -2.0198 H   0  0  0  0  0  0  0  0  0  0  0  0
    8.1847   -1.2485   -3.1191 H   0  0  0  0  0  0  0  0  0  0  0  0
    9.5882   -2.1072   -3.7746 H   0  0  0  0  0  0  0  0  0  0  0  0
    6.6443   -4.2858   -4.7443 H   0  0  0  0  0  0  0  0  0  0  0  0
    7.9304   -3.2208   -5.3712 H   0  0  0  0  0  0  0  0  0  0  0  0
    6.5102   -2.5298   -4.5465 H   0  0  0  0  0  0  0  0  0  0  0  0
  1  2  1  0
  1 34  1  0
  1 35  1  0
  1 36  1  0
  2  3  1  0
  2 37  1  0
  2 38  1  0
  3  4  1  0
  3 39  1  0
  3 40  1  0
  4  5  1  0
  5  6  2  0
  5 10  1  0
  6  7  1  0
  6 41  1  0
  7  8  2  0
  7 31  1  0
  8  9  1  0
  8 26  1  0
  9 10  2  0
  9 42  1  0
 10 11  1  0
 11 12  1  0
 11 13  2  0
 12 43  1  0
 12 44  1  0
 12 45  1  0
 13 14  1  0
 13 15  1  0
 15 16  2  0
 15 46  1  0
 16 17  1  0
 16 47  1  0
 17 18  1  0
 17 19  2  0
 18 48  1  0
 18 49  1  0
 18 50  1  0
 19 20  1  0
 19 21  1  0
 21 22  2  0
 21 23  1  0
 23 24  1  0
 24 25  1  0
 24 51  1  0
 24 52  1  0
 25 53  1  0
 25 54  1  0
 25 55  1  0
 26 27  1  6
 26 28  1  0
 26 29  1  0
 27 56  1  0
 27 57  1  0
 27 58  1  0
 28 59  1  0
 28 60  1  0
 28 61  1  0
 29 30  1  0
 29 62  1  0
 29 63  1  0
 30 31  1  0
 30 64  1  0
 30 65  1  0
 31 32  1  1
 31 33  1  0
 32 66  1  0
 32 67  1  0
 32 68  1  0
 33 69  1  0
 33 70  1  0
 33 71  1  0
M  END

