
     RDKit          3D

 34 36  0  0  0  0  0  0  0  0999 V2000
    4.0351   -0.6239   10.5070 C   0  0  0  0  0  0  0  0  0  0  0  0
    3.6304   -0.9045    9.1853 O   0  0  0  0  0  0  0  0  0  0  0  0
    4.1494   -0.1807    8.1634 C   0  0  0  0  0  0  0  0  0  0  0  0
    5.0859    0.8540    8.3123 C   0  0  0  0  0  0  0  0  0  0  0  0
    5.5559    1.5413    7.1890 C   0  0  0  0  0  0  0  0  0  0  0  0
    5.1199    1.2278    5.8909 C   0  0  0  0  0  0  0  0  0  0  0  0
    5.6400    1.9057    4.6367 C   0  0  2  0  0  0  0  0  0  0  0  0
    5.0150    1.5334    3.8107 H   0  0  0  0  0  0  0  0  0  0  0  0
    7.1345    1.5703    4.2356 C   0  0  2  0  0  0  0  0  0  0  0  0
    7.2706    0.5106    3.9802 H   0  0  0  0  0  0  0  0  0  0  0  0
    8.0576    2.1289    5.3068 C   0  0  0  0  0  0  0  0  0  0  0  0
    8.0369    3.4678    5.1980 C   0  0  0  0  0  0  0  0  0  0  0  0
    7.0971    3.8138    4.0529 C   0  0  1  0  0  0  0  0  0  0  0  0
    7.1978    4.8233    3.6353 H   0  0  0  0  0  0  0  0  0  0  0  0
    7.3514    2.6123    3.1164 C   0  0  0  0  0  0  0  0  0  0  0  0
    5.6432    3.4889    4.5364 C   0  0  2  0  0  0  0  0  0  0  0  0
    4.9328    3.7697    3.7375 H   0  0  0  0  0  0  0  0  0  0  0  0
    5.2058    4.3302    5.7318 C   0  0  0  0  0  0  0  0  0  0  0  0
    5.8453    5.2478    6.1742 O   0  0  0  0  0  0  0  0  0  0  0  0
    3.9815    4.0550    6.2326 O   0  0  0  0  0  0  0  0  0  0  0  0
    4.1743    0.1889    5.7685 C   0  0  0  0  0  0  0  0  0  0  0  0
    3.6948   -0.5057    6.8744 C   0  0  0  0  0  0  0  0  0  0  0  0
    3.4922   -1.3244   11.1558 H   0  0  0  0  0  0  0  0  0  0  0  0
    3.7806    0.4093   10.8047 H   0  0  0  0  0  0  0  0  0  0  0  0
    5.1207   -0.7763   10.6463 H   0  0  0  0  0  0  0  0  0  0  0  0
    5.4529    1.1421    9.2975 H   0  0  0  0  0  0  0  0  0  0  0  0
    6.2781    2.3444    7.3423 H   0  0  0  0  0  0  0  0  0  0  0  0
    8.5600    1.5351    6.0723 H   0  0  0  0  0  0  0  0  0  0  0  0
    8.5048    4.2000    5.8561 H   0  0  0  0  0  0  0  0  0  0  0  0
    8.3752    2.5991    2.7150 H   0  0  0  0  0  0  0  0  0  0  0  0
    6.6297    2.5301    2.2866 H   0  0  0  0  0  0  0  0  0  0  0  0
    3.6653    3.1991    5.9041 H   0  0  0  0  0  0  0  0  0  0  0  0
    3.8086   -0.0864    4.7745 H   0  0  0  0  0  0  0  0  0  0  0  0
    2.9634   -1.3093    6.7673 H   0  0  0  0  0  0  0  0  0  0  0  0
  1  2  1  0
  1 23  1  0
  1 24  1  0
  1 25  1  0
  2  3  1  0
  3  4  2  0
  3 22  1  0
  4  5  1  0
  4 26  1  0
  5  6  2  0
  5 27  1  0
  6  7  1  0
  6 21  1  0
  7  8  1  6
  7  9  1  0
  7 16  1  0
  9 10  1  6
  9 11  1  0
  9 15  1  0
 11 12  2  0
 11 28  1  0
 12 13  1  0
 12 29  1  0
 13 14  1  6
 13 15  1  0
 13 16  1  0
 15 30  1  0
 15 31  1  0
 16 17  1  6
 16 18  1  0
 18 19  2  0
 18 20  1  0
 20 32  1  0
 21 22  2  0
 21 33  1  0
 22 34  1  0
M  END

