
     RDKit          3D

 29 30  0  0  0  0  0  0  0  0999 V2000
    3.9381   -0.0615    1.1780 O   0  0  0  0  0  0  0  0  0  0  0  0
    2.9542    0.1818    0.4960 N   0  0  0  0  0  0  0  0  0  0  0  0
    1.8498   -0.3058    0.6562 O   0  0  0  0  0  0  0  0  0  0  0  0
    3.1331    1.1299   -0.6169 C   0  0  0  0  0  0  0  0  0  0  0  0
    4.4325    1.3901   -1.0648 C   0  0  0  0  0  0  0  0  0  0  0  0
    4.6521    2.2603   -2.1270 C   0  0  0  0  0  0  0  0  0  0  0  0
    3.5695    2.8995   -2.7573 C   0  0  0  0  0  0  0  0  0  0  0  0
    3.7926    3.8902   -3.8817 C   0  0  0  0  0  0  0  0  0  0  0  0
    4.8881    3.4971   -4.7345 N   0  0  0  0  0  0  0  0  0  0  0  0
    5.4087    4.3091   -5.7247 C   0  0  0  0  0  0  0  0  0  0  0  0
    5.0744    5.6732   -5.8581 C   0  0  0  0  0  0  0  0  0  0  0  0
    5.6581    6.4681   -6.8470 C   0  0  0  0  0  0  0  0  0  0  0  0
    6.5799    5.9301   -7.7464 C   0  0  0  0  0  0  0  0  0  0  0  0
    6.9162    4.5762   -7.6467 C   0  0  0  0  0  0  0  0  0  0  0  0
    6.3409    3.7861   -6.6564 C   0  0  0  0  0  0  0  0  0  0  0  0
    6.7775    2.0847   -6.5492 Cl  0  0  0  0  0  0  0  0  0  0  0  0
    2.2724    2.6426   -2.3003 C   0  0  0  0  0  0  0  0  0  0  0  0
    2.0473    1.7664   -1.2390 C   0  0  0  0  0  0  0  0  0  0  0  0
    0.7965    1.5783   -0.8426 F   0  0  0  0  0  0  0  0  0  0  0  0
    5.2559    0.8926   -0.5524 H   0  0  0  0  0  0  0  0  0  0  0  0
    5.6681    2.4508   -2.4768 H   0  0  0  0  0  0  0  0  0  0  0  0
    4.0286    4.8702   -3.4268 H   0  0  0  0  0  0  0  0  0  0  0  0
    2.8437    4.0352   -4.4383 H   0  0  0  0  0  0  0  0  0  0  0  0
    4.9782    2.5024   -4.9157 H   0  0  0  0  0  0  0  0  0  0  0  0
    4.3465    6.1190   -5.1794 H   0  0  0  0  0  0  0  0  0  0  0  0
    5.3769    7.5220   -6.9149 H   0  0  0  0  0  0  0  0  0  0  0  0
    7.0332    6.5499   -8.5225 H   0  0  0  0  0  0  0  0  0  0  0  0
    7.6289    4.1211   -8.3370 H   0  0  0  0  0  0  0  0  0  0  0  0
    1.4021    3.1163   -2.7600 H   0  0  0  0  0  0  0  0  0  0  0  0
  1  2  2  0
  2  3  1  0
  2  4  1  0
  4  5  2  0
  4 18  1  0
  5  6  1  0
  5 20  1  0
  6  7  2  0
  6 21  1  0
  7  8  1  0
  7 17  1  0
  8  9  1  0
  8 22  1  0
  8 23  1  0
  9 10  1  0
  9 24  1  0
 10 11  2  0
 10 15  1  0
 11 12  1  0
 11 25  1  0
 12 13  2  0
 12 26  1  0
 13 14  1  0
 13 27  1  0
 14 15  2  0
 14 28  1  0
 15 16  1  0
 17 18  2  0
 17 29  1  0
 18 19  1  0
M  CHG  2   2   1   3  -1
M  END

