
     RDKit          3D

 27 27  0  0  0  0  0  0  0  0999 V2000
    1.6802   -1.5004   -0.1361 C   0  0  0  0  0  0  0  0  0  0  0  0
    2.7427   -0.4644   -0.4453 C   0  0  0  0  0  0  0  0  0  0  0  0
    3.0739   -0.5818   -1.8278 O   0  0  0  0  0  0  0  0  0  0  0  0
    4.0229    0.3576   -2.1802 N   0  0  0  0  0  0  0  0  0  0  0  0
    4.3102    0.3403   -3.4271 C   0  0  0  0  0  0  0  0  0  0  0  0
    3.7628   -0.5752   -4.4852 C   0  0  0  0  0  0  0  0  0  0  0  0
    4.7271   -1.7503   -4.8036 C   0  0  2  0  0  0  0  0  0  0  0  0
    4.1896   -2.6757   -5.9086 C   0  0  0  0  0  0  0  0  0  0  0  0
    3.0569   -3.5706   -5.3832 C   0  0  0  0  0  0  0  0  0  0  0  0
    3.3474   -4.2250   -4.1162 N   0  0  0  0  0  0  0  0  0  0  0  0
    4.2345   -3.6893   -3.3705 C   0  0  0  0  0  0  0  0  0  0  0  0
    5.0059   -2.5791   -3.6420 N   0  0  0  0  0  0  0  0  0  0  0  0
    1.4020   -1.4496    0.9280 H   0  0  0  0  0  0  0  0  0  0  0  0
    2.0449   -2.5164   -0.3522 H   0  0  0  0  0  0  0  0  0  0  0  0
    0.7755   -1.3276   -0.7394 H   0  0  0  0  0  0  0  0  0  0  0  0
    3.6510   -0.6227    0.1639 H   0  0  0  0  0  0  0  0  0  0  0  0
    2.3804    0.5588   -0.2410 H   0  0  0  0  0  0  0  0  0  0  0  0
    5.0723    1.0790   -3.7088 H   0  0  0  0  0  0  0  0  0  0  0  0
    3.6153    0.0054   -5.4119 H   0  0  0  0  0  0  0  0  0  0  0  0
    2.7895   -0.9688   -4.1618 H   0  0  0  0  0  0  0  0  0  0  0  0
    5.6826   -1.3132   -5.1457 H   0  0  0  0  0  0  0  0  0  0  0  0
    5.0212   -3.3119   -6.2545 H   0  0  0  0  0  0  0  0  0  0  0  0
    3.8556   -2.0810   -6.7742 H   0  0  0  0  0  0  0  0  0  0  0  0
    2.8195   -4.3437   -6.1345 H   0  0  0  0  0  0  0  0  0  0  0  0
    2.1248   -2.9834   -5.2696 H   0  0  0  0  0  0  0  0  0  0  0  0
    4.4664   -4.1560   -2.4002 H   0  0  0  0  0  0  0  0  0  0  0  0
    5.4874   -2.1504   -2.8605 H   0  0  0  0  0  0  0  0  0  0  0  0
  1  2  1  0
  1 13  1  0
  1 14  1  0
  1 15  1  0
  2  3  1  0
  2 16  1  0
  2 17  1  0
  3  4  1  0
  4  5  2  0
  5  6  1  0
  5 18  1  0
  6  7  1  0
  6 19  1  0
  6 20  1  0
  7  8  1  0
  7 12  1  0
  7 21  1  6
  8  9  1  0
  8 22  1  0
  8 23  1  0
  9 10  1  0
  9 24  1  0
  9 25  1  0
 10 11  2  0
 11 12  1  0
 11 26  1  0
 12 27  1  0
M  END

