
     RDKit          3D

 66 73  0  0  0  0  0  0  0  0999 V2000
    2.3771    0.8692   -0.3788 O   0  0  0  0  0  0  0  0  0  0  0  0
    3.7696    0.5090   -0.0745 S   0  0  1  0  0  0  0  0  0  0  0  0
    4.8932    1.4095   -0.3699 O   0  0  0  0  0  0  0  0  0  0  0  0
    3.8446    0.1306    1.6919 C   0  0  0  0  0  0  0  0  0  0  0  0
    2.6807   -0.2683    2.3554 C   0  0  0  0  0  0  0  0  0  0  0  0
    2.7376   -0.5369    3.7237 C   0  0  0  0  0  0  0  0  0  0  0  0
    3.9470   -0.3976    4.4233 C   0  0  0  0  0  0  0  0  0  0  0  0
    4.0296   -0.6651    5.8295 N   0  0  0  0  0  0  0  0  0  0  0  0
    4.2002   -2.0091    6.2520 C   0  0  0  0  0  0  0  0  0  0  0  0
    3.9609   -3.0912    5.3857 C   0  0  0  0  0  0  0  0  0  0  0  0
    4.1362   -4.4108    5.8122 C   0  0  0  0  0  0  0  0  0  0  0  0
    4.5281   -4.6860    7.1218 C   0  0  0  0  0  0  0  0  0  0  0  0
    4.7623   -3.6223    7.9971 C   0  0  0  0  0  0  0  0  0  0  0  0
    4.6274   -2.2988    7.5670 C   0  0  0  0  0  0  0  0  0  0  0  0
    5.1313   -0.9896    8.6583 S   0  0  0  0  0  0  0  0  0  0  0  0
    4.0443    0.2979    8.0923 C   0  0  0  0  0  0  0  0  0  0  0  0
    3.6571    1.2956    8.9920 C   0  0  0  0  0  0  0  0  0  0  0  0
    2.9317    2.4078    8.5567 C   0  0  0  0  0  0  0  0  0  0  0  0
    2.5789    2.5017    7.2109 C   0  0  0  0  0  0  0  0  0  0  0  0
    2.9288    1.4893    6.3127 C   0  0  0  0  0  0  0  0  0  0  0  0
    3.6659    0.3677    6.7334 C   0  0  0  0  0  0  0  0  0  0  0  0
    5.0986    0.0225    3.7445 C   0  0  0  0  0  0  0  0  0  0  0  0
    5.0518    0.2937    2.3756 C   0  0  0  0  0  0  0  0  0  0  0  0
    4.1084   -1.0561   -0.9040 C   0  0  0  0  0  0  0  0  0  0  0  0
    3.0429   -1.8801   -1.2775 C   0  0  0  0  0  0  0  0  0  0  0  0
    3.3044   -3.0739   -1.9484 C   0  0  0  0  0  0  0  0  0  0  0  0
    4.6275   -3.4487   -2.2411 C   0  0  0  0  0  0  0  0  0  0  0  0
    4.8904   -4.6635   -2.9142 N   0  0  0  0  0  0  0  0  0  0  0  0
    5.6639   -4.8088   -4.0756 C   0  0  0  0  0  0  0  0  0  0  0  0
    6.2989   -3.8336   -4.8549 C   0  0  0  0  0  0  0  0  0  0  0  0
    6.9884   -4.2555   -5.9929 C   0  0  0  0  0  0  0  0  0  0  0  0
    7.0433   -5.6137   -6.3565 C   0  0  0  0  0  0  0  0  0  0  0  0
    6.3952   -6.5791   -5.5875 C   0  0  0  0  0  0  0  0  0  0  0  0
    5.6952   -6.1813   -4.4394 C   0  0  0  0  0  0  0  0  0  0  0  0
    4.9090   -6.8967   -3.4527 C   0  0  0  0  0  0  0  0  0  0  0  0
    4.5927   -8.2502   -3.2685 C   0  0  0  0  0  0  0  0  0  0  0  0
    3.8128   -8.6232   -2.1747 C   0  0  0  0  0  0  0  0  0  0  0  0
    3.3558   -7.6563   -1.2605 C   0  0  0  0  0  0  0  0  0  0  0  0
    3.6564   -6.3026   -1.4214 C   0  0  0  0  0  0  0  0  0  0  0  0
    4.4265   -5.9302   -2.5304 C   0  0  0  0  0  0  0  0  0  0  0  0
    5.6863   -2.6023   -1.8677 C   0  0  0  0  0  0  0  0  0  0  0  0
    5.4279   -1.4000   -1.2112 C   0  0  0  0  0  0  0  0  0  0  0  0
    1.7410   -0.3460    1.8057 H   0  0  0  0  0  0  0  0  0  0  0  0
    1.8394   -0.8478    4.2615 H   0  0  0  0  0  0  0  0  0  0  0  0
    3.6439   -2.9043    4.3606 H   0  0  0  0  0  0  0  0  0  0  0  0
    3.9528   -5.2259    5.1079 H   0  0  0  0  0  0  0  0  0  0  0  0
    4.6554   -5.7156    7.4634 H   0  0  0  0  0  0  0  0  0  0  0  0
    5.0754   -3.8116    9.0269 H   0  0  0  0  0  0  0  0  0  0  0  0
    3.9498    1.2013   10.0407 H   0  0  0  0  0  0  0  0  0  0  0  0
    2.6512    3.1908    9.2646 H   0  0  0  0  0  0  0  0  0  0  0  0
    2.0166    3.3644    6.8459 H   0  0  0  0  0  0  0  0  0  0  0  0
    2.6319    1.5832    5.2689 H   0  0  0  0  0  0  0  0  0  0  0  0
    6.0276    0.1424    4.3052 H   0  0  0  0  0  0  0  0  0  0  0  0
    5.9353    0.6473    1.8412 H   0  0  0  0  0  0  0  0  0  0  0  0
    2.0177   -1.5664   -1.0732 H   0  0  0  0  0  0  0  0  0  0  0  0
    2.4808   -3.7123   -2.2726 H   0  0  0  0  0  0  0  0  0  0  0  0
    6.2541   -2.7754   -4.5939 H   0  0  0  0  0  0  0  0  0  0  0  0
    7.4920   -3.5111   -6.6147 H   0  0  0  0  0  0  0  0  0  0  0  0
    7.5930   -5.9104   -7.2528 H   0  0  0  0  0  0  0  0  0  0  0  0
    6.4269   -7.6323   -5.8775 H   0  0  0  0  0  0  0  0  0  0  0  0
    4.9576   -9.0029   -3.9717 H   0  0  0  0  0  0  0  0  0  0  0  0
    3.5580   -9.6743   -2.0208 H   0  0  0  0  0  0  0  0  0  0  0  0
    2.7544   -7.9686   -0.4029 H   0  0  0  0  0  0  0  0  0  0  0  0
    3.3048   -5.5658   -0.6980 H   0  0  0  0  0  0  0  0  0  0  0  0
    6.7136   -2.8953   -2.0898 H   0  0  0  0  0  0  0  0  0  0  0  0
    6.2428   -0.7267   -0.9395 H   0  0  0  0  0  0  0  0  0  0  0  0
  1  2  2  0
  2  3  2  0
  2  4  1  1
  2 24  1  0
  4  5  2  0
  4 23  1  0
  5  6  1  0
  5 43  1  0
  6  7  2  0
  6 44  1  0
  7  8  1  0
  7 22  1  0
  8  9  1  0
  8 21  1  0
  9 10  2  0
  9 14  1  0
 10 11  1  0
 10 45  1  0
 11 12  2  0
 11 46  1  0
 12 13  1  0
 12 47  1  0
 13 14  2  0
 13 48  1  0
 14 15  1  0
 15 16  1  0
 16 17  2  0
 16 21  1  0
 17 18  1  0
 17 49  1  0
 18 19  2  0
 18 50  1  0
 19 20  1  0
 19 51  1  0
 20 21  2  0
 20 52  1  0
 22 23  2  0
 22 53  1  0
 23 54  1  0
 24 25  2  0
 24 42  1  0
 25 26  1  0
 25 55  1  0
 26 27  2  0
 26 56  1  0
 27 28  1  0
 27 41  1  0
 28 29  1  0
 28 40  1  0
 29 30  2  0
 29 34  1  0
 30 31  1  0
 30 57  1  0
 31 32  2  0
 31 58  1  0
 32 33  1  0
 32 59  1  0
 33 34  2  0
 33 60  1  0
 34 35  1  0
 35 36  1  0
 35 40  2  0
 36 37  2  0
 36 61  1  0
 37 38  1  0
 37 62  1  0
 38 39  2  0
 38 63  1  0
 39 40  1  0
 39 64  1  0
 41 42  2  0
 41 65  1  0
 42 66  1  0
M  END

