
     RDKit          3D

 45 46  0  0  0  0  0  0  0  0999 V2000
    0.9632    0.7534    0.1395 C   0  0  0  0  0  0  0  0  0  0  0  0
    2.2850    0.0251   -0.1378 C   0  0  1  0  0  0  0  0  0  0  0  0
    2.0843   -1.4058   -0.6697 C   0  0  0  0  0  0  0  0  0  0  0  0
    1.6413   -1.3964   -2.1355 C   0  0  0  0  0  0  0  0  0  0  0  0
    2.5709   -0.5418   -3.0017 C   0  0  0  0  0  0  0  0  0  0  0  0
    2.6806    0.8222   -2.4804 N   0  0  0  0  0  0  0  0  0  0  0  0
    3.4090    1.7938   -3.3266 C   0  0  1  0  0  0  0  0  0  0  0  0
    3.2076    1.5744   -4.8297 C   0  0  0  0  0  0  0  0  0  0  0  0
    2.9789    3.2262   -2.9427 C   0  0  0  0  0  0  0  0  0  0  0  0
    1.5414    3.3600   -3.0217 N   0  0  0  0  0  0  0  0  0  0  0  0
    0.9252    4.4871   -3.4991 C   0  0  0  0  0  0  0  0  0  0  0  0
    1.5384    5.4675   -3.8916 O   0  0  0  0  0  0  0  0  0  0  0  0
   -0.4657    4.3873   -3.4873 N   0  0  0  0  0  0  0  0  0  0  0  0
   -1.4055    5.3301   -3.9024 C   0  0  0  0  0  0  0  0  0  0  0  0
   -1.0716    6.5934   -4.4319 C   0  0  0  0  0  0  0  0  0  0  0  0
   -2.0698    7.4840   -4.8269 C   0  0  0  0  0  0  0  0  0  0  0  0
   -3.4225    7.1531   -4.7107 C   0  0  0  0  0  0  0  0  0  0  0  0
   -3.7758    5.9073   -4.1890 C   0  0  0  0  0  0  0  0  0  0  0  0
   -2.7807    5.0155   -3.7934 C   0  0  0  0  0  0  0  0  0  0  0  0
   -3.2606    3.4490   -3.1376 Cl  0  0  0  0  0  0  0  0  0  0  0  0
    3.1943    0.7999   -1.1072 C   0  0  0  0  0  0  0  0  0  0  0  0
    0.3608    0.2065    0.8827 H   0  0  0  0  0  0  0  0  0  0  0  0
    0.3519    0.8602   -0.7697 H   0  0  0  0  0  0  0  0  0  0  0  0
    1.1442    1.7656    0.5364 H   0  0  0  0  0  0  0  0  0  0  0  0
    2.8330   -0.0387    0.8191 H   0  0  0  0  0  0  0  0  0  0  0  0
    1.3597   -1.9549   -0.0450 H   0  0  0  0  0  0  0  0  0  0  0  0
    3.0421   -1.9509   -0.5904 H   0  0  0  0  0  0  0  0  0  0  0  0
    0.6143   -1.0030   -2.2225 H   0  0  0  0  0  0  0  0  0  0  0  0
    1.6191   -2.4230   -2.5377 H   0  0  0  0  0  0  0  0  0  0  0  0
    2.1749   -0.5150   -4.0247 H   0  0  0  0  0  0  0  0  0  0  0  0
    3.5726   -1.0324   -3.0559 H   0  0  0  0  0  0  0  0  0  0  0  0
    4.5018    1.7220   -3.1251 H   0  0  0  0  0  0  0  0  0  0  0  0
    2.1416    1.6053   -5.1037 H   0  0  0  0  0  0  0  0  0  0  0  0
    3.6311    0.6218   -5.1772 H   0  0  0  0  0  0  0  0  0  0  0  0
    3.7154    2.3795   -5.3813 H   0  0  0  0  0  0  0  0  0  0  0  0
    3.4309    3.9582   -3.6262 H   0  0  0  0  0  0  0  0  0  0  0  0
    3.3437    3.4824   -1.9314 H   0  0  0  0  0  0  0  0  0  0  0  0
    1.0203    2.5415   -2.7221 H   0  0  0  0  0  0  0  0  0  0  0  0
   -0.8714    3.5307   -3.1262 H   0  0  0  0  0  0  0  0  0  0  0  0
   -0.0177    6.8471   -4.5198 H   0  0  0  0  0  0  0  0  0  0  0  0
   -1.7779    8.4558   -5.2332 H   0  0  0  0  0  0  0  0  0  0  0  0
   -4.2001    7.8541   -5.0216 H   0  0  0  0  0  0  0  0  0  0  0  0
   -4.8217    5.6144   -4.0833 H   0  0  0  0  0  0  0  0  0  0  0  0
    3.3094    1.8318   -0.7455 H   0  0  0  0  0  0  0  0  0  0  0  0
    4.2128    0.3456   -1.0862 H   0  0  0  0  0  0  0  0  0  0  0  0
  1  2  1  0
  1 22  1  0
  1 23  1  0
  1 24  1  0
  2  3  1  0
  2 21  1  0
  2 25  1  1
  3  4  1  0
  3 26  1  0
  3 27  1  0
  4  5  1  0
  4 28  1  0
  4 29  1  0
  5  6  1  0
  5 30  1  0
  5 31  1  0
  6  7  1  0
  6 21  1  0
  7  8  1  0
  7  9  1  0
  7 32  1  6
  8 33  1  0
  8 34  1  0
  8 35  1  0
  9 10  1  0
  9 36  1  0
  9 37  1  0
 10 11  1  0
 10 38  1  0
 11 12  2  0
 11 13  1  0
 13 14  1  0
 13 39  1  0
 14 15  2  0
 14 19  1  0
 15 16  1  0
 15 40  1  0
 16 17  2  0
 16 41  1  0
 17 18  1  0
 17 42  1  0
 18 19  2  0
 18 43  1  0
 19 20  1  0
 21 44  1  0
 21 45  1  0
M  END

