
     RDKit          3D

 68 76  0  0  0  0  0  0  0  0999 V2000
    6.5335   -3.3557   -7.2021 C   0  0  0  0  0  0  0  0  0  0  0  0
    7.6480   -4.0999   -7.6012 C   0  0  0  0  0  0  0  0  0  0  0  0
    8.4091   -4.7864   -6.6539 C   0  0  0  0  0  0  0  0  0  0  0  0
    8.0685   -4.7441   -5.2891 C   0  0  0  0  0  0  0  0  0  0  0  0
    8.8633   -5.4665   -4.2586 C   0  0  0  0  0  0  0  0  0  0  0  0
   10.1367   -6.0078   -4.5160 C   0  0  0  0  0  0  0  0  0  0  0  0
   10.7729   -6.6603   -3.4626 C   0  0  0  0  0  0  0  0  0  0  0  0
   10.2278   -6.7813   -2.2541 N   0  0  0  0  0  0  0  0  0  0  0  0
    9.0151   -6.2313   -2.0852 C   0  0  0  0  0  0  0  0  0  0  0  0
    8.3909   -6.3498   -0.7373 C   0  0  0  0  0  0  0  0  0  0  0  0
    9.0833   -6.9713    0.3158 C   0  0  0  0  0  0  0  0  0  0  0  0
    8.4936   -7.0781    1.5758 C   0  0  0  0  0  0  0  0  0  0  0  0
    7.2161   -6.5618    1.8071 C   0  0  0  0  0  0  0  0  0  0  0  0
    6.5143   -5.9489    0.7582 C   0  0  0  0  0  0  0  0  0  0  0  0
    5.2063   -5.4336    0.9843 N   0  0  0  0  0  0  0  0  0  0  0  0
    4.0844   -6.1889    1.3118 C   0  0  0  0  0  0  0  0  0  0  0  0
    3.9903   -7.5787    1.4628 C   0  0  0  0  0  0  0  0  0  0  0  0
    2.7286   -8.1290    1.6719 C   0  0  0  0  0  0  0  0  0  0  0  0
    1.5845   -7.3109    1.7062 C   0  0  0  0  0  0  0  0  0  0  0  0
    1.6864   -5.9289    1.5649 C   0  0  0  0  0  0  0  0  0  0  0  0
    2.9507   -5.3289    1.3942 C   0  0  0  0  0  0  0  0  0  0  0  0
    3.4320   -3.9712    1.1316 C   0  0  0  0  0  0  0  0  0  0  0  0
    2.8364   -2.6701    1.0635 C   0  0  0  0  0  0  0  0  0  0  0  0
    1.5486   -2.3217    1.6723 C   0  0  0  0  0  0  0  0  0  0  0  0
    1.0000   -3.0955    2.7223 C   0  0  0  0  0  0  0  0  0  0  0  0
   -0.2048   -2.7656    3.3247 C   0  0  0  0  0  0  0  0  0  0  0  0
   -0.9061   -1.6278    2.8969 C   0  0  0  0  0  0  0  0  0  0  0  0
   -0.3545   -0.8125    1.9205 C   0  0  0  0  0  0  0  0  0  0  0  0
    0.8854   -1.1138    1.3098 C   0  0  0  0  0  0  0  0  0  0  0  0
    1.5356   -0.1772    0.3906 C   0  0  0  0  0  0  0  0  0  0  0  0
    0.8705    0.9673   -0.1074 C   0  0  0  0  0  0  0  0  0  0  0  0
    1.5195    1.9009   -0.9002 C   0  0  0  0  0  0  0  0  0  0  0  0
    2.8728    1.7122   -1.2220 C   0  0  0  0  0  0  0  0  0  0  0  0
    3.5399    0.5866   -0.7638 C   0  0  0  0  0  0  0  0  0  0  0  0
    2.8980   -0.3894    0.0369 C   0  0  0  0  0  0  0  0  0  0  0  0
    3.5762   -1.6308    0.4306 C   0  0  0  0  0  0  0  0  0  0  0  0
    4.9545   -1.8302    0.1492 C   0  0  0  0  0  0  0  0  0  0  0  0
    5.5936   -3.0316    0.3833 C   0  0  0  0  0  0  0  0  0  0  0  0
    4.8101   -4.1110    0.8211 C   0  0  0  0  0  0  0  0  0  0  0  0
    7.0989   -5.8515   -0.5087 C   0  0  0  0  0  0  0  0  0  0  0  0
    8.3286   -5.5865   -3.0349 N   0  0  0  0  0  0  0  0  0  0  0  0
    6.9402   -3.9974   -4.9023 C   0  0  0  0  0  0  0  0  0  0  0  0
    6.1829   -3.3077   -5.8489 C   0  0  0  0  0  0  0  0  0  0  0  0
    5.9385   -2.8175   -7.9442 H   0  0  0  0  0  0  0  0  0  0  0  0
    7.9244   -4.1505   -8.6572 H   0  0  0  0  0  0  0  0  0  0  0  0
    9.2648   -5.3736   -6.9920 H   0  0  0  0  0  0  0  0  0  0  0  0
   10.6257   -5.9160   -5.4851 H   0  0  0  0  0  0  0  0  0  0  0  0
   11.7675   -7.1009   -3.6018 H   0  0  0  0  0  0  0  0  0  0  0  0
   10.0830   -7.3624    0.1246 H   0  0  0  0  0  0  0  0  0  0  0  0
    9.0384   -7.5578    2.3926 H   0  0  0  0  0  0  0  0  0  0  0  0
    6.7578   -6.6246    2.7962 H   0  0  0  0  0  0  0  0  0  0  0  0
    4.8769   -8.2110    1.3944 H   0  0  0  0  0  0  0  0  0  0  0  0
    2.6263   -9.2109    1.7888 H   0  0  0  0  0  0  0  0  0  0  0  0
    0.5995   -7.7653    1.8377 H   0  0  0  0  0  0  0  0  0  0  0  0
    0.7805   -5.3244    1.5668 H   0  0  0  0  0  0  0  0  0  0  0  0
    1.5608   -3.9486    3.0973 H   0  0  0  0  0  0  0  0  0  0  0  0
   -0.5929   -3.3812    4.1401 H   0  0  0  0  0  0  0  0  0  0  0  0
   -1.8608   -1.3601    3.3566 H   0  0  0  0  0  0  0  0  0  0  0  0
   -0.8794    0.1042    1.6512 H   0  0  0  0  0  0  0  0  0  0  0  0
   -0.1822    1.1247    0.1284 H   0  0  0  0  0  0  0  0  0  0  0  0
    0.9782    2.7741   -1.2728 H   0  0  0  0  0  0  0  0  0  0  0  0
    3.3987    2.4400   -1.8451 H   0  0  0  0  0  0  0  0  0  0  0  0
    4.5800    0.4489   -1.0582 H   0  0  0  0  0  0  0  0  0  0  0  0
    5.5458   -1.0063   -0.2486 H   0  0  0  0  0  0  0  0  0  0  0  0
    6.6605   -3.1473    0.1893 H   0  0  0  0  0  0  0  0  0  0  0  0
    6.5524   -5.3936   -1.3325 H   0  0  0  0  0  0  0  0  0  0  0  0
    6.6727   -3.9663   -3.8460 H   0  0  0  0  0  0  0  0  0  0  0  0
    5.3125   -2.7295   -5.5286 H   0  0  0  0  0  0  0  0  0  0  0  0
  1  2  2  0
  1 43  1  0
  1 44  1  0
  2  3  1  0
  2 45  1  0
  3  4  2  0
  3 46  1  0
  4  5  1  0
  4 42  1  0
  5  6  2  0
  5 41  1  0
  6  7  1  0
  6 47  1  0
  7  8  2  0
  7 48  1  0
  8  9  1  0
  9 10  1  0
  9 41  2  0
 10 11  2  0
 10 40  1  0
 11 12  1  0
 11 49  1  0
 12 13  2  0
 12 50  1  0
 13 14  1  0
 13 51  1  0
 14 15  1  0
 14 40  2  0
 15 16  1  0
 15 39  1  0
 16 17  2  0
 16 21  1  0
 17 18  1  0
 17 52  1  0
 18 19  2  0
 18 53  1  0
 19 20  1  0
 19 54  1  0
 20 21  2  0
 20 55  1  0
 21 22  1  0
 22 23  1  0
 22 39  2  0
 23 24  2  0
 23 36  1  0
 24 25  1  0
 24 29  1  0
 25 26  2  0
 25 56  1  0
 26 27  1  0
 26 57  1  0
 27 28  2  0
 27 58  1  0
 28 29  1  0
 28 59  1  0
 29 30  2  0
 30 31  1  0
 30 35  1  0
 31 32  2  0
 31 60  1  0
 32 33  1  0
 32 61  1  0
 33 34  2  0
 33 62  1  0
 34 35  1  0
 34 63  1  0
 35 36  2  0
 36 37  1  0
 37 38  2  0
 37 64  1  0
 38 39  1  0
 38 65  1  0
 40 66  1  0
 42 43  2  0
 42 67  1  0
 43 68  1  0
M  END

