
     RDKit          3D

 35 37  0  0  0  0  0  0  0  0999 V2000
    0.9557    0.1763    0.2862 N   0  0  0  0  0  0  0  0  0  0  0  0
    2.3098    0.2401   -0.2389 C   0  0  0  0  0  0  0  0  0  0  0  0
    3.0111    1.5155    0.2127 C   0  0  2  0  0  0  0  0  0  0  0  0
    4.2903    1.5184   -0.3327 O   0  0  0  0  0  0  0  0  0  0  0  0
    3.0772    1.6971    1.7325 C   0  0  0  0  0  0  0  0  0  0  0  0
    3.7629    2.9156    2.0112 O   0  0  0  0  0  0  0  0  0  0  0  0
    3.1916    4.0019    1.3936 C   0  0  0  0  0  0  0  0  0  0  0  0
    3.3931    5.2815    1.9132 C   0  0  0  0  0  0  0  0  0  0  0  0
    2.8313    6.3984    1.2928 C   0  0  0  0  0  0  0  0  0  0  0  0
    2.0605    6.2230    0.1349 C   0  0  0  0  0  0  0  0  0  0  0  0
    1.4123    7.2681   -0.4842 O   0  0  0  0  0  0  0  0  0  0  0  0
    2.0337    8.4739   -0.6960 C   0  0  0  0  0  0  0  0  0  0  0  0
    3.3884    8.5820   -1.0399 C   0  0  0  0  0  0  0  0  0  0  0  0
    3.9393    9.8376   -1.3068 C   0  0  0  0  0  0  0  0  0  0  0  0
    3.1300   10.9694   -1.2364 C   0  0  0  0  0  0  0  0  0  0  0  0
    3.6619   12.1753   -1.4947 F   0  0  0  0  0  0  0  0  0  0  0  0
    1.7800   10.8754   -0.9046 C   0  0  0  0  0  0  0  0  0  0  0  0
    1.2329    9.6211   -0.6295 C   0  0  0  0  0  0  0  0  0  0  0  0
    1.8601    4.9488   -0.4007 C   0  0  0  0  0  0  0  0  0  0  0  0
    2.4246    3.8334    0.2249 C   0  0  0  0  0  0  0  0  0  0  0  0
    2.2255    2.6014   -0.3247 O   0  0  0  0  0  0  0  0  0  0  0  0
    0.5225   -0.7152    0.0521 H   0  0  0  0  0  0  0  0  0  0  0  0
    0.3880    0.9061   -0.1449 H   0  0  0  0  0  0  0  0  0  0  0  0
    2.3976    0.2176   -1.3446 H   0  0  0  0  0  0  0  0  0  0  0  0
    2.8965   -0.6095    0.1447 H   0  0  0  0  0  0  0  0  0  0  0  0
    4.8333    2.1416    0.1749 H   0  0  0  0  0  0  0  0  0  0  0  0
    3.6657    0.8907    2.1895 H   0  0  0  0  0  0  0  0  0  0  0  0
    2.0621    1.6993    2.1591 H   0  0  0  0  0  0  0  0  0  0  0  0
    3.9883    5.3824    2.8232 H   0  0  0  0  0  0  0  0  0  0  0  0
    2.9771    7.3951    1.7114 H   0  0  0  0  0  0  0  0  0  0  0  0
    4.0096    7.6871   -1.1028 H   0  0  0  0  0  0  0  0  0  0  0  0
    4.9912    9.9474   -1.5777 H   0  0  0  0  0  0  0  0  0  0  0  0
    1.1739   11.7823   -0.8599 H   0  0  0  0  0  0  0  0  0  0  0  0
    0.1795    9.5113   -0.3656 H   0  0  0  0  0  0  0  0  0  0  0  0
    1.2687    4.8189   -1.3076 H   0  0  0  0  0  0  0  0  0  0  0  0
  1  2  1  0
  1 22  1  0
  1 23  1  0
  2  3  1  0
  2 24  1  0
  2 25  1  0
  3  4  1  6
  3  5  1  0
  3 21  1  0
  4 26  1  0
  5  6  1  0
  5 27  1  0
  5 28  1  0
  6  7  1  0
  7  8  1  0
  7 20  2  0
  8  9  2  0
  8 29  1  0
  9 10  1  0
  9 30  1  0
 10 11  1  0
 10 19  2  0
 11 12  1  0
 12 13  2  0
 12 18  1  0
 13 14  1  0
 13 31  1  0
 14 15  2  0
 14 32  1  0
 15 16  1  0
 15 17  1  0
 17 18  2  0
 17 33  1  0
 18 34  1  0
 19 20  1  0
 19 35  1  0
 20 21  1  0
M  END

