
     RDKit          3D

 43 43  0  0  0  0  0  0  0  0999 V2000
    2.4173    0.0742    0.7171 C   0  0  0  0  0  0  0  0  0  0  0  0
    2.8221    0.8049   -0.5645 C   0  0  0  0  0  0  0  0  0  0  0  0
    3.4371   -0.0780   -1.6392 C   0  0  0  0  0  0  0  0  0  0  0  0
    4.6826   -0.6199   -1.1770 O   0  0  0  0  0  0  0  0  0  0  0  0
    5.4178   -1.3272   -2.1138 C   0  0  0  0  0  0  0  0  0  0  0  0
    6.3565   -0.6172   -2.8855 C   0  0  0  0  0  0  0  0  0  0  0  0
    6.5424    0.8693   -2.7123 C   0  0  0  0  0  0  0  0  0  0  0  0
    7.1255   -1.3407   -3.7999 C   0  0  0  0  0  0  0  0  0  0  0  0
    6.9499   -2.7170   -3.9368 C   0  0  0  0  0  0  0  0  0  0  0  0
    7.9575   -3.5505   -5.1134 Cl  0  0  0  0  0  0  0  0  0  0  0  0
    6.0251   -3.4424   -3.1663 C   0  0  0  0  0  0  0  0  0  0  0  0
    5.8885   -4.9330   -3.3612 C   0  0  0  0  0  0  0  0  0  0  0  0
    5.2523   -2.7246   -2.2190 C   0  0  0  0  0  0  0  0  0  0  0  0
    4.2779   -3.4260   -1.2943 C   0  0  0  0  0  0  0  0  0  0  0  0
    4.9038   -4.2167   -0.1152 C   0  0  1  0  0  0  0  0  0  0  0  0
    5.9472   -3.4203    0.6896 C   0  0  0  0  0  0  0  0  0  0  0  0
    5.3563   -2.2565    1.3697 N   0  0  0  0  0  0  0  0  0  0  0  0
    3.7852   -4.7471    0.8049 C   0  0  0  0  0  0  0  0  0  0  0  0
    2.9948   -3.7250    1.3604 O   0  0  0  0  0  0  0  0  0  0  0  0
    1.9109    0.7599    1.4145 H   0  0  0  0  0  0  0  0  0  0  0  0
    3.2877   -0.3485    1.2392 H   0  0  0  0  0  0  0  0  0  0  0  0
    1.7305   -0.7622    0.5080 H   0  0  0  0  0  0  0  0  0  0  0  0
    3.5290    1.6209   -0.3330 H   0  0  0  0  0  0  0  0  0  0  0  0
    1.9359    1.2847   -1.0163 H   0  0  0  0  0  0  0  0  0  0  0  0
    3.6137    0.5056   -2.5602 H   0  0  0  0  0  0  0  0  0  0  0  0
    2.7521   -0.9066   -1.9005 H   0  0  0  0  0  0  0  0  0  0  0  0
    6.5503    1.1456   -1.6473 H   0  0  0  0  0  0  0  0  0  0  0  0
    5.7253    1.4425   -3.1833 H   0  0  0  0  0  0  0  0  0  0  0  0
    7.4839    1.2044   -3.1711 H   0  0  0  0  0  0  0  0  0  0  0  0
    7.8738   -0.8344   -4.4125 H   0  0  0  0  0  0  0  0  0  0  0  0
    5.8727   -5.1845   -4.4319 H   0  0  0  0  0  0  0  0  0  0  0  0
    4.9767   -5.3316   -2.9010 H   0  0  0  0  0  0  0  0  0  0  0  0
    6.7486   -5.4726   -2.9288 H   0  0  0  0  0  0  0  0  0  0  0  0
    3.6524   -4.1262   -1.8717 H   0  0  0  0  0  0  0  0  0  0  0  0
    3.5845   -2.6964   -0.8618 H   0  0  0  0  0  0  0  0  0  0  0  0
    5.4369   -5.0952   -0.5212 H   0  0  0  0  0  0  0  0  0  0  0  0
    6.7958   -3.1494    0.0305 H   0  0  0  0  0  0  0  0  0  0  0  0
    6.3570   -4.0913    1.4638 H   0  0  0  0  0  0  0  0  0  0  0  0
    5.1696   -1.5120    0.6925 H   0  0  0  0  0  0  0  0  0  0  0  0
    6.0081   -1.8756    2.0550 H   0  0  0  0  0  0  0  0  0  0  0  0
    4.2518   -5.3800    1.5918 H   0  0  0  0  0  0  0  0  0  0  0  0
    3.1152   -5.4102    0.2287 H   0  0  0  0  0  0  0  0  0  0  0  0
    3.6347   -3.0541    1.6837 H   0  0  0  0  0  0  0  0  0  0  0  0
  1  2  1  0
  1 20  1  0
  1 21  1  0
  1 22  1  0
  2  3  1  0
  2 23  1  0
  2 24  1  0
  3  4  1  0
  3 25  1  0
  3 26  1  0
  4  5  1  0
  5  6  2  0
  5 13  1  0
  6  7  1  0
  6  8  1  0
  7 27  1  0
  7 28  1  0
  7 29  1  0
  8  9  2  0
  8 30  1  0
  9 10  1  0
  9 11  1  0
 11 12  1  0
 11 13  2  0
 12 31  1  0
 12 32  1  0
 12 33  1  0
 13 14  1  0
 14 15  1  0
 14 34  1  0
 14 35  1  0
 15 16  1  0
 15 18  1  0
 15 36  1  6
 16 17  1  0
 16 37  1  0
 16 38  1  0
 17 39  1  0
 17 40  1  0
 18 19  1  0
 18 41  1  0
 18 42  1  0
 19 43  1  0
M  END

