
     RDKit          3D

 46 48  0  0  0  0  0  0  0  0999 V2000
    1.2306    0.2661    0.9407 C   0  0  0  0  0  0  0  0  0  0  0  0
    2.2633    0.1853   -0.0139 O   0  0  0  0  0  0  0  0  0  0  0  0
    2.9422    1.3118   -0.3547 C   0  0  0  0  0  0  0  0  0  0  0  0
    2.6974    2.5845    0.1847 C   0  0  0  0  0  0  0  0  0  0  0  0
    3.4617    3.6691   -0.2514 C   0  0  0  0  0  0  0  0  0  0  0  0
    4.4711    3.5317   -1.2116 C   0  0  0  0  0  0  0  0  0  0  0  0
    4.7087    2.2513   -1.7459 C   0  0  0  0  0  0  0  0  0  0  0  0
    3.9507    1.1595   -1.3163 C   0  0  0  0  0  0  0  0  0  0  0  0
    5.8271    2.0079   -2.7446 C   0  0  0  0  0  0  0  0  0  0  0  0
    6.2630    3.2354   -3.3971 N   0  0  0  0  0  0  0  0  0  0  0  0
    6.7302    3.2692   -4.6980 C   0  0  0  0  0  0  0  0  0  0  0  0
    6.5197    4.3765   -5.5561 C   0  0  0  0  0  0  0  0  0  0  0  0
    5.6716    5.5142   -5.1548 N   0  0  0  0  0  0  0  0  0  0  0  0
    4.5828    5.2607   -4.6669 O   0  0  0  0  0  0  0  0  0  0  0  0
    6.0940    6.6359   -5.3875 O   0  0  0  0  0  0  0  0  0  0  0  0
    7.0155    4.4319   -6.8544 C   0  0  0  0  0  0  0  0  0  0  0  0
    7.6728    3.3437   -7.4240 C   0  0  0  0  0  0  0  0  0  0  0  0
    8.1493    3.4301   -8.8670 C   0  0  0  0  0  0  0  0  0  0  0  0
    7.6356    4.5343   -9.5708 O   0  0  0  0  0  0  0  0  0  0  0  0
    7.9108    2.1961   -6.6366 C   0  0  0  0  0  0  0  0  0  0  0  0
    8.6799    1.0397   -7.2312 C   0  0  0  0  0  0  0  0  0  0  0  0
    7.4626    2.2105   -5.3032 C   0  0  0  0  0  0  0  0  0  0  0  0
    7.9072    1.1032   -4.4340 N   0  0  0  0  0  0  0  0  0  0  0  0
    8.6222    1.3974   -3.4904 O   0  0  0  0  0  0  0  0  0  0  0  0
    7.5586   -0.0309   -4.7237 O   0  0  0  0  0  0  0  0  0  0  0  0
    6.5177    4.3322   -2.4597 C   0  0  0  0  0  0  0  0  0  0  0  0
    5.2557    4.7325   -1.6948 C   0  0  0  0  0  0  0  0  0  0  0  0
    0.8277   -0.7496    1.0539 H   0  0  0  0  0  0  0  0  0  0  0  0
    0.4165    0.9380    0.6129 H   0  0  0  0  0  0  0  0  0  0  0  0
    1.6015    0.6134    1.9224 H   0  0  0  0  0  0  0  0  0  0  0  0
    1.9225    2.7415    0.9351 H   0  0  0  0  0  0  0  0  0  0  0  0
    3.2621    4.6584    0.1715 H   0  0  0  0  0  0  0  0  0  0  0  0
    4.1263    0.1593   -1.7209 H   0  0  0  0  0  0  0  0  0  0  0  0
    5.4826    1.2990   -3.5109 H   0  0  0  0  0  0  0  0  0  0  0  0
    6.6656    1.5201   -2.2077 H   0  0  0  0  0  0  0  0  0  0  0  0
    6.8468    5.3299   -7.4486 H   0  0  0  0  0  0  0  0  0  0  0  0
    7.9316    2.4782   -9.3892 H   0  0  0  0  0  0  0  0  0  0  0  0
    9.2482    3.5413   -8.8856 H   0  0  0  0  0  0  0  0  0  0  0  0
    6.6913    4.3897   -9.7204 H   0  0  0  0  0  0  0  0  0  0  0  0
    9.5633    1.3995   -7.7798 H   0  0  0  0  0  0  0  0  0  0  0  0
    8.0485    0.4951   -7.9540 H   0  0  0  0  0  0  0  0  0  0  0  0
    9.0119    0.3064   -6.4895 H   0  0  0  0  0  0  0  0  0  0  0  0
    6.9396    5.1912   -2.9982 H   0  0  0  0  0  0  0  0  0  0  0  0
    7.3018    3.9972   -1.7506 H   0  0  0  0  0  0  0  0  0  0  0  0
    4.6164    5.3453   -2.3503 H   0  0  0  0  0  0  0  0  0  0  0  0
    5.5418    5.3694   -0.8408 H   0  0  0  0  0  0  0  0  0  0  0  0
  1  2  1  0
  1 28  1  0
  1 29  1  0
  1 30  1  0
  2  3  1  0
  3  4  2  0
  3  8  1  0
  4  5  1  0
  4 31  1  0
  5  6  2  0
  5 32  1  0
  6  7  1  0
  6 27  1  0
  7  8  2  0
  7  9  1  0
  8 33  1  0
  9 10  1  0
  9 34  1  0
  9 35  1  0
 10 11  1  0
 10 26  1  0
 11 12  2  0
 11 22  1  0
 12 13  1  0
 12 16  1  0
 13 14  2  0
 13 15  1  0
 16 17  2  0
 16 36  1  0
 17 18  1  0
 17 20  1  0
 18 19  1  0
 18 37  1  0
 18 38  1  0
 19 39  1  0
 20 21  1  0
 20 22  2  0
 21 40  1  0
 21 41  1  0
 21 42  1  0
 22 23  1  0
 23 24  2  0
 23 25  1  0
 26 27  1  0
 26 43  1  0
 26 44  1  0
 27 45  1  0
 27 46  1  0
M  CHG  4  13   1  15  -1  23   1  25  -1
M  END

