
     RDKit          3D

 44 44  0  0  0  0  0  0  0  0999 V2000
    0.7309   -0.2505   -0.4131 C   0  0  0  0  0  0  0  0  0  0  0  0
    2.1588   -0.3916   -0.1914 N   0  0  0  0  0  0  0  0  0  0  0  0
    2.8425    0.7221    0.4486 C   0  0  0  0  0  0  0  0  0  0  0  0
    3.3976    1.7755   -0.5249 C   0  0  0  0  0  0  0  0  0  0  0  0
    3.9756    3.0397    0.1570 C   0  0  1  0  0  0  0  0  0  0  0  0
    5.2594    2.7838    0.9732 C   0  0  0  0  0  0  0  0  0  0  0  0
    6.4908    2.5713    0.0808 C   0  0  0  0  0  0  0  0  0  0  0  0
    6.6460    3.7310   -0.9105 C   0  0  0  0  0  0  0  0  0  0  0  0
    5.3490    3.9475   -1.6930 C   0  0  0  0  0  0  0  0  0  0  0  0
    4.2386    4.1464   -0.7667 N   0  0  0  0  0  0  0  0  0  0  0  0
    2.8007   -1.4997   -0.7377 C   0  0  0  0  0  0  0  0  0  0  0  0
    2.1804   -2.3762   -1.3318 O   0  0  0  0  0  0  0  0  0  0  0  0
    4.1673   -1.5459   -0.5733 N   0  0  0  0  0  0  0  0  0  0  0  0
    5.0212   -2.6829   -0.9794 C   0  0  1  0  0  0  0  0  0  0  0  0
    4.9598   -2.8764   -2.5061 C   0  0  0  0  0  0  0  0  0  0  0  0
    6.4537   -2.3118   -0.5649 C   0  0  0  0  0  0  0  0  0  0  0  0
    4.5894   -3.9732   -0.2562 C   0  0  0  0  0  0  0  0  0  0  0  0
    0.1948   -0.1270    0.5448 H   0  0  0  0  0  0  0  0  0  0  0  0
    0.3681   -1.1548   -0.9143 H   0  0  0  0  0  0  0  0  0  0  0  0
    0.4979    0.6230   -1.0500 H   0  0  0  0  0  0  0  0  0  0  0  0
    3.6389    0.3400    1.1101 H   0  0  0  0  0  0  0  0  0  0  0  0
    2.1201    1.2023    1.1308 H   0  0  0  0  0  0  0  0  0  0  0  0
    2.5737    2.0949   -1.1875 H   0  0  0  0  0  0  0  0  0  0  0  0
    4.1448    1.2994   -1.1801 H   0  0  0  0  0  0  0  0  0  0  0  0
    3.2041    3.4002    0.8628 H   0  0  0  0  0  0  0  0  0  0  0  0
    5.1204    1.9300    1.6568 H   0  0  0  0  0  0  0  0  0  0  0  0
    5.4306    3.6687    1.6088 H   0  0  0  0  0  0  0  0  0  0  0  0
    6.3979    1.6222   -0.4788 H   0  0  0  0  0  0  0  0  0  0  0  0
    7.3947    2.4698    0.7043 H   0  0  0  0  0  0  0  0  0  0  0  0
    7.4808    3.5436   -1.6063 H   0  0  0  0  0  0  0  0  0  0  0  0
    6.8816    4.6560   -0.3560 H   0  0  0  0  0  0  0  0  0  0  0  0
    5.2023    3.0893   -2.3881 H   0  0  0  0  0  0  0  0  0  0  0  0
    5.4343    4.8465   -2.3253 H   0  0  0  0  0  0  0  0  0  0  0  0
    3.3906    4.4041   -1.2672 H   0  0  0  0  0  0  0  0  0  0  0  0
    4.6137   -0.8386   -0.0076 H   0  0  0  0  0  0  0  0  0  0  0  0
    5.2945   -1.9634   -3.0241 H   0  0  0  0  0  0  0  0  0  0  0  0
    3.9318   -3.0989   -2.8201 H   0  0  0  0  0  0  0  0  0  0  0  0
    5.6151   -3.7072   -2.8132 H   0  0  0  0  0  0  0  0  0  0  0  0
    6.7853   -1.3857   -1.0632 H   0  0  0  0  0  0  0  0  0  0  0  0
    7.1526   -3.1139   -0.8447 H   0  0  0  0  0  0  0  0  0  0  0  0
    6.5297   -2.1674    0.5262 H   0  0  0  0  0  0  0  0  0  0  0  0
    3.5535   -4.2270   -0.5175 H   0  0  0  0  0  0  0  0  0  0  0  0
    4.6540   -3.8446    0.8365 H   0  0  0  0  0  0  0  0  0  0  0  0
    5.2432   -4.8129   -0.5420 H   0  0  0  0  0  0  0  0  0  0  0  0
  1  2  1  0
  1 18  1  0
  1 19  1  0
  1 20  1  0
  2  3  1  0
  2 11  1  0
  3  4  1  0
  3 21  1  0
  3 22  1  0
  4  5  1  0
  4 23  1  0
  4 24  1  0
  5  6  1  0
  5 10  1  0
  5 25  1  1
  6  7  1  0
  6 26  1  0
  6 27  1  0
  7  8  1  0
  7 28  1  0
  7 29  1  0
  8  9  1  0
  8 30  1  0
  8 31  1  0
  9 10  1  0
  9 32  1  0
  9 33  1  0
 10 34  1  0
 11 12  2  0
 11 13  1  0
 14 13  1  6
 13 35  1  0
 14 15  1  0
 14 16  1  0
 14 17  1  0
 15 36  1  0
 15 37  1  0
 15 38  1  0
 16 39  1  0
 16 40  1  0
 16 41  1  0
 17 42  1  0
 17 43  1  0
 17 44  1  0
M  END

