
     RDKit          3D

 92102  0  0  0  0  0  0  0  0999 V2000
    2.1173    0.7954   -2.8001 C   0  0  0  0  0  0  0  0  0  0  0  0
    2.4208    0.2447   -1.5377 O   0  0  0  0  0  0  0  0  0  0  0  0
    2.9944    1.0167   -0.5817 C   0  0  0  0  0  0  0  0  0  0  0  0
    3.3170    2.3905   -0.7706 C   0  0  0  0  0  0  0  0  0  0  0  0
    3.8998    3.1080    0.2537 C   0  0  0  0  0  0  0  0  0  0  0  0
    4.1902    2.5084    1.5084 C   0  0  0  0  0  0  0  0  0  0  0  0
    4.7811    3.2334    2.5735 C   0  0  0  0  0  0  0  0  0  0  0  0
    5.0781    2.6292    3.7899 C   0  0  0  0  0  0  0  0  0  0  0  0
    5.6856    3.4219    4.8685 C   0  0  0  0  0  0  0  0  0  0  0  0
    6.7507    3.0299    5.6138 N   0  0  0  0  0  0  0  0  0  0  0  0
    7.0628    4.0460    6.5133 C   0  0  0  0  0  0  0  0  0  0  0  0
    8.0819    4.0035    7.3530 N   0  0  0  0  0  0  0  0  0  0  0  0
    8.9248    2.9896    7.3470 C   0  0  0  0  0  0  0  0  0  0  0  0
   10.1140    2.8509    8.1539 C   0  0  0  0  0  0  0  0  0  0  0  0
   10.5340    3.7738    9.2194 C   0  0  0  0  0  0  0  0  0  0  0  0
   10.4028    5.1873    9.0485 C   0  0  0  0  0  0  0  0  0  0  0  0
   10.7773    6.0595   10.0434 C   0  0  0  0  0  0  0  0  0  0  0  0
   11.2998    5.5883   11.2806 C   0  0  0  0  0  0  0  0  0  0  0  0
   11.6920    6.4617   12.3317 C   0  0  0  0  0  0  0  0  0  0  0  0
   12.1883    5.9605   13.5178 C   0  0  0  0  0  0  0  0  0  0  0  0
   12.3147    4.5602   13.7072 C   0  0  0  0  0  0  0  0  0  0  0  0
   11.9432    3.6872   12.7066 C   0  0  0  0  0  0  0  0  0  0  0  0
   11.4299    4.1722   11.4694 C   0  0  0  0  0  0  0  0  0  0  0  0
   11.0420    3.2962   10.4219 C   0  0  0  0  0  0  0  0  0  0  0  0
   10.7057    1.6706    7.7034 C   0  0  0  0  0  0  0  0  0  0  0  0
   12.3070    0.9020    8.3433 Br  0  0  0  0  0  0  0  0  0  0  0  0
    9.8899    1.0920    6.6751 C   0  0  0  0  0  0  0  0  0  0  0  0
   10.1478   -0.1496    5.9317 C   0  0  0  0  0  0  0  0  0  0  0  0
   11.4441   -0.3797    5.3679 C   0  0  0  0  0  0  0  0  0  0  0  0
   11.7235   -1.5336    4.6774 C   0  0  0  0  0  0  0  0  0  0  0  0
   10.7399   -2.5543    4.5167 C   0  0  0  0  0  0  0  0  0  0  0  0
   10.9989   -3.7593    3.8261 C   0  0  0  0  0  0  0  0  0  0  0  0
   10.0141   -4.7295    3.6885 C   0  0  0  0  0  0  0  0  0  0  0  0
   10.3573   -5.8521    3.0100 O   0  0  0  0  0  0  0  0  0  0  0  0
    9.4100   -6.8803    2.8235 C   0  0  0  0  0  0  0  0  0  0  0  0
    8.7229   -4.5136    4.2480 C   0  0  0  0  0  0  0  0  0  0  0  0
    8.4529   -3.3422    4.9249 C   0  0  0  0  0  0  0  0  0  0  0  0
    9.4387   -2.3313    5.0820 C   0  0  0  0  0  0  0  0  0  0  0  0
    9.1690   -1.1228    5.7717 C   0  0  0  0  0  0  0  0  0  0  0  0
    8.8140    1.8960    6.4899 N   0  0  0  0  0  0  0  0  0  0  0  0
    7.5392    1.6670    5.5903 B   0  0  1  0  0  0  0  0  0  0  0  0
    6.7483    0.6876    6.2072 F   0  0  0  0  0  0  0  0  0  0  0  0
    7.8861    1.3235    4.3086 F   0  0  0  0  0  0  0  0  0  0  0  0
    6.1339    5.1321    6.3488 C   0  0  0  0  0  0  0  0  0  0  0  0
    6.1365    6.3844    7.1220 C   0  0  0  0  0  0  0  0  0  0  0  0
    4.9357    6.8734    7.7213 C   0  0  0  0  0  0  0  0  0  0  0  0
    4.9355    8.0394    8.4521 C   0  0  0  0  0  0  0  0  0  0  0  0
    6.1242    8.8035    8.6218 C   0  0  0  0  0  0  0  0  0  0  0  0
    6.1566   10.0177    9.3618 C   0  0  0  0  0  0  0  0  0  0  0  0
    7.3290   10.7327    9.4961 C   0  0  0  0  0  0  0  0  0  0  0  0
    8.5256   10.2656    8.8939 C   0  0  0  0  0  0  0  0  0  0  0  0
    8.5275    9.0902    8.1722 C   0  0  0  0  0  0  0  0  0  0  0  0
    7.3351    8.3260    8.0185 C   0  0  0  0  0  0  0  0  0  0  0  0
    7.3079    7.1111    7.2842 C   0  0  0  0  0  0  0  0  0  0  0  0
    5.2862    4.7231    5.3212 C   0  0  0  0  0  0  0  0  0  0  0  0
    3.8283    5.7125    4.6440 Br  0  0  0  0  0  0  0  0  0  0  0  0
    4.7646    1.2431    3.9618 C   0  0  0  0  0  0  0  0  0  0  0  0
    4.1730    0.5246    2.9519 C   0  0  0  0  0  0  0  0  0  0  0  0
    3.8675    1.1213    1.6929 C   0  0  0  0  0  0  0  0  0  0  0  0
    3.2690    0.4028    0.6337 C   0  0  0  0  0  0  0  0  0  0  0  0
    1.6685   -0.0136   -3.3920 H   0  0  0  0  0  0  0  0  0  0  0  0
    3.0214    1.1575   -3.3219 H   0  0  0  0  0  0  0  0  0  0  0  0
    1.3919    1.6254   -2.7261 H   0  0  0  0  0  0  0  0  0  0  0  0
    3.1080    2.8843   -1.7196 H   0  0  0  0  0  0  0  0  0  0  0  0
    4.1446    4.1630    0.1029 H   0  0  0  0  0  0  0  0  0  0  0  0
    5.0255    4.2840    2.4094 H   0  0  0  0  0  0  0  0  0  0  0  0
   10.0000    5.5689    8.1120 H   0  0  0  0  0  0  0  0  0  0  0  0
   10.6695    7.1368    9.8924 H   0  0  0  0  0  0  0  0  0  0  0  0
   11.5915    7.5406   12.1852 H   0  0  0  0  0  0  0  0  0  0  0  0
   12.4852    6.6425   14.3187 H   0  0  0  0  0  0  0  0  0  0  0  0
   12.7079    4.1759   14.6518 H   0  0  0  0  0  0  0  0  0  0  0  0
   12.0392    2.6074   12.8496 H   0  0  0  0  0  0  0  0  0  0  0  0
   11.1307    2.2219   10.5889 H   0  0  0  0  0  0  0  0  0  0  0  0
   12.2122    0.3883    5.4646 H   0  0  0  0  0  0  0  0  0  0  0  0
   12.7130   -1.6798    4.2367 H   0  0  0  0  0  0  0  0  0  0  0  0
   11.9815   -3.9465    3.3879 H   0  0  0  0  0  0  0  0  0  0  0  0
    9.9168   -7.6694    2.2519 H   0  0  0  0  0  0  0  0  0  0  0  0
    8.5316   -6.5344    2.2496 H   0  0  0  0  0  0  0  0  0  0  0  0
    9.0644   -7.3038    3.7837 H   0  0  0  0  0  0  0  0  0  0  0  0
    7.9410   -5.2661    4.1457 H   0  0  0  0  0  0  0  0  0  0  0  0
    7.4593   -3.1789    5.3502 H   0  0  0  0  0  0  0  0  0  0  0  0
    8.1731   -0.9685    6.1862 H   0  0  0  0  0  0  0  0  0  0  0  0
    4.0138    6.3007    7.6103 H   0  0  0  0  0  0  0  0  0  0  0  0
    4.0107    8.3928    8.9163 H   0  0  0  0  0  0  0  0  0  0  0  0
    5.2330   10.3781    9.8232 H   0  0  0  0  0  0  0  0  0  0  0  0
    7.3397   11.6649   10.0666 H   0  0  0  0  0  0  0  0  0  0  0  0
    9.4467   10.8437    9.0026 H   0  0  0  0  0  0  0  0  0  0  0  0
    9.4475    8.7304    7.7030 H   0  0  0  0  0  0  0  0  0  0  0  0
    8.2304    6.7573    6.8212 H   0  0  0  0  0  0  0  0  0  0  0  0
    4.9954    0.7601    4.9098 H   0  0  0  0  0  0  0  0  0  0  0  0
    3.9298   -0.5298    3.1068 H   0  0  0  0  0  0  0  0  0  0  0  0
    3.0150   -0.6523    0.7551 H   0  0  0  0  0  0  0  0  0  0  0  0
  1  2  1  0
  1 61  1  0
  1 62  1  0
  1 63  1  0
  2  3  1  0
  3  4  2  0
  3 60  1  0
  4  5  1  0
  4 64  1  0
  5  6  2  0
  5 65  1  0
  6  7  1  0
  6 59  1  0
  7  8  2  0
  7 66  1  0
  8  9  1  0
  8 57  1  0
  9 10  1  0
  9 55  2  0
 10 11  1  0
 10 41  1  0
 11 12  1  0
 11 44  2  0
 12 13  2  0
 13 14  1  0
 13 40  1  0
 14 15  1  0
 14 25  2  0
 15 16  2  0
 15 24  1  0
 16 17  1  0
 16 67  1  0
 17 18  2  0
 17 68  1  0
 18 19  1  0
 18 23  1  0
 19 20  2  0
 19 69  1  0
 20 21  1  0
 20 70  1  0
 21 22  2  0
 21 71  1  0
 22 23  1  0
 22 72  1  0
 23 24  2  0
 24 73  1  0
 25 26  1  0
 25 27  1  0
 27 28  1  0
 27 40  2  0
 28 29  2  0
 28 39  1  0
 29 30  1  0
 29 74  1  0
 30 31  2  0
 30 75  1  0
 31 32  1  0
 31 38  1  0
 32 33  2  0
 32 76  1  0
 33 34  1  0
 33 36  1  0
 34 35  1  0
 35 77  1  0
 35 78  1  0
 35 79  1  0
 36 37  2  0
 36 80  1  0
 37 38  1  0
 37 81  1  0
 38 39  2  0
 39 82  1  0
 40 41  1  0
 41 42  1  1
 41 43  1  0
 44 45  1  0
 44 55  1  0
 45 46  2  0
 45 54  1  0
 46 47  1  0
 46 83  1  0
 47 48  2  0
 47 84  1  0
 48 49  1  0
 48 53  1  0
 49 50  2  0
 49 85  1  0
 50 51  1  0
 50 86  1  0
 51 52  2  0
 51 87  1  0
 52 53  1  0
 52 88  1  0
 53 54  2  0
 54 89  1  0
 55 56  1  0
 57 58  2  0
 57 90  1  0
 58 59  1  0
 58 91  1  0
 59 60  2  0
 60 92  1  0
M  CHG  2  40   1  41  -1
M  END

