
     RDKit          3D

 41 44  0  0  0  0  0  0  0  0999 V2000
    1.3526    0.2727   -1.2758 N   0  0  0  0  0  0  0  0  0  0  0  0
    2.4107    0.0664   -0.2871 C   0  0  1  0  0  0  0  0  0  0  0  0
    3.4578   -0.9756   -0.6961 C   0  0  0  0  0  0  0  0  0  0  0  0
    3.9790   -1.0395   -1.9986 C   0  0  0  0  0  0  0  0  0  0  0  0
    4.9257   -2.0001   -2.3645 C   0  0  0  0  0  0  0  0  0  0  0  0
    5.3607   -2.9283   -1.4157 C   0  0  0  0  0  0  0  0  0  0  0  0
    6.6478   -4.2505   -1.9046 Br  0  0  0  0  0  0  0  0  0  0  0  0
    4.8522   -2.9026   -0.1153 C   0  0  0  0  0  0  0  0  0  0  0  0
    3.9087   -1.9312    0.2289 C   0  0  0  0  0  0  0  0  0  0  0  0
    3.0036    1.4430    0.1738 C   0  0  2  0  0  0  0  0  0  0  0  0
    1.8593    2.3065    0.7668 C   0  0  0  0  0  0  0  0  0  0  0  0
    2.3887    3.6661    1.2592 C   0  0  1  0  0  0  0  0  0  0  0  0
    3.4477    3.4400    2.3544 C   0  0  0  0  0  0  0  0  0  0  0  0
    4.6059    2.6060    1.7757 C   0  0  2  0  0  0  0  0  0  0  0  0
    5.2463    3.3650    0.5981 C   0  0  0  0  0  0  0  0  0  0  0  0
    4.1872    3.5947   -0.4965 C   0  0  2  0  0  0  0  0  0  0  0  0
    3.0240    4.4252    0.0788 C   0  0  0  0  0  0  0  0  0  0  0  0
    3.6556    2.2327   -0.9897 C   0  0  0  0  0  0  0  0  0  0  0  0
    4.0732    1.2474    1.2767 C   0  0  0  0  0  0  0  0  0  0  0  0
    0.9019   -0.6134   -1.5016 H   0  0  0  0  0  0  0  0  0  0  0  0
    1.7254    0.6377   -2.1511 H   0  0  0  0  0  0  0  0  0  0  0  0
    1.9147   -0.3411    0.6115 H   0  0  0  0  0  0  0  0  0  0  0  0
    3.6346   -0.3353   -2.7596 H   0  0  0  0  0  0  0  0  0  0  0  0
    5.3187   -2.0296   -3.3823 H   0  0  0  0  0  0  0  0  0  0  0  0
    5.1844   -3.6375    0.6201 H   0  0  0  0  0  0  0  0  0  0  0  0
    3.5098   -1.9228    1.2471 H   0  0  0  0  0  0  0  0  0  0  0  0
    1.3905    1.7604    1.6050 H   0  0  0  0  0  0  0  0  0  0  0  0
    1.0761    2.4430    0.0068 H   0  0  0  0  0  0  0  0  0  0  0  0
    1.5495    4.2543    1.6687 H   0  0  0  0  0  0  0  0  0  0  0  0
    2.9968    2.9182    3.2166 H   0  0  0  0  0  0  0  0  0  0  0  0
    3.8256    4.4073    2.7293 H   0  0  0  0  0  0  0  0  0  0  0  0
    5.3639    2.4288    2.5580 H   0  0  0  0  0  0  0  0  0  0  0  0
    6.0954    2.7888    0.1908 H   0  0  0  0  0  0  0  0  0  0  0  0
    5.6530    4.3313    0.9435 H   0  0  0  0  0  0  0  0  0  0  0  0
    4.6427    4.1322   -1.3460 H   0  0  0  0  0  0  0  0  0  0  0  0
    2.2675    4.6118   -0.7033 H   0  0  0  0  0  0  0  0  0  0  0  0
    3.3901    5.4123    0.4110 H   0  0  0  0  0  0  0  0  0  0  0  0
    4.4849    1.6503   -1.4250 H   0  0  0  0  0  0  0  0  0  0  0  0
    2.9186    2.4038   -1.7933 H   0  0  0  0  0  0  0  0  0  0  0  0
    3.6359    0.6849    2.1211 H   0  0  0  0  0  0  0  0  0  0  0  0
    4.9117    0.6434    0.8939 H   0  0  0  0  0  0  0  0  0  0  0  0
  1  2  1  0
  1 20  1  0
  1 21  1  0
  2  3  1  0
  2 10  1  0
  2 22  1  1
  3  4  2  0
  3  9  1  0
  4  5  1  0
  4 23  1  0
  5  6  2  0
  5 24  1  0
  6  7  1  0
  6  8  1  0
  8  9  2  0
  8 25  1  0
  9 26  1  0
 10 11  1  1
 10 18  1  0
 10 19  1  0
 11 12  1  0
 11 27  1  0
 11 28  1  0
 12 13  1  0
 12 17  1  0
 12 29  1  1
 13 14  1  0
 13 30  1  0
 13 31  1  0
 14 15  1  0
 14 19  1  0
 14 32  1  1
 15 16  1  0
 15 33  1  0
 15 34  1  0
 16 17  1  0
 16 18  1  0
 16 35  1  6
 17 36  1  0
 17 37  1  0
 18 38  1  0
 18 39  1  0
 19 40  1  0
 19 41  1  0
M  END

