
     RDKit          3D

 32 32  0  0  0  0  0  0  0  0999 V2000
    4.0628   -3.8475    1.3830 C   0  0  0  0  0  0  0  0  0  0  0  0
    4.7584   -2.8810    0.4236 C   0  0  0  0  0  0  0  0  0  0  0  0
    3.8057   -1.8503   -0.1887 C   0  0  0  0  0  0  0  0  0  0  0  0
    4.4726   -0.8642   -1.1577 C   0  0  0  0  0  0  0  0  0  0  0  0
    5.0273   -1.4795   -2.3567 N   0  0  0  0  0  0  0  0  0  0  0  0
    4.1748   -1.9907   -3.4167 C   0  0  0  0  0  0  0  0  0  0  0  0
    6.3343   -1.6129   -2.4082 N   0  0  0  0  0  0  0  0  0  0  0  0
    6.7723   -2.2116   -3.4340 N   0  0  0  0  0  0  0  0  0  0  0  0
    8.1728   -2.3256   -3.4918 C   0  0  0  0  0  0  0  0  0  0  0  0
    9.0712   -1.7941   -2.5416 C   0  0  0  0  0  0  0  0  0  0  0  0
   10.4404   -1.9669   -2.6967 C   0  0  0  0  0  0  0  0  0  0  0  0
   10.9536   -2.6736   -3.8050 C   0  0  0  0  0  0  0  0  0  0  0  0
   12.3688   -2.8485   -3.9608 C   0  0  0  0  0  0  0  0  0  0  0  0
   13.5154   -2.9900   -4.0860 N   0  0  0  0  0  0  0  0  0  0  0  0
   10.0597   -3.2033   -4.7557 C   0  0  0  0  0  0  0  0  0  0  0  0
    8.6896   -3.0281   -4.5965 C   0  0  0  0  0  0  0  0  0  0  0  0
    4.7742   -4.5730    1.8080 H   0  0  0  0  0  0  0  0  0  0  0  0
    3.2704   -4.4201    0.8722 H   0  0  0  0  0  0  0  0  0  0  0  0
    3.5916   -3.3116    2.2240 H   0  0  0  0  0  0  0  0  0  0  0  0
    5.2515   -3.4509   -0.3827 H   0  0  0  0  0  0  0  0  0  0  0  0
    5.5712   -2.3514    0.9524 H   0  0  0  0  0  0  0  0  0  0  0  0
    3.3336   -1.2559    0.6143 H   0  0  0  0  0  0  0  0  0  0  0  0
    2.9750   -2.3678   -0.7029 H   0  0  0  0  0  0  0  0  0  0  0  0
    5.3095   -0.3497   -0.6641 H   0  0  0  0  0  0  0  0  0  0  0  0
    3.7444   -0.0946   -1.4674 H   0  0  0  0  0  0  0  0  0  0  0  0
    3.1362   -1.7090   -3.2011 H   0  0  0  0  0  0  0  0  0  0  0  0
    4.2558   -3.0872   -3.4994 H   0  0  0  0  0  0  0  0  0  0  0  0
    4.4863   -1.5725   -4.3866 H   0  0  0  0  0  0  0  0  0  0  0  0
    8.6759   -1.2462   -1.6863 H   0  0  0  0  0  0  0  0  0  0  0  0
   11.1317   -1.5537   -1.9591 H   0  0  0  0  0  0  0  0  0  0  0  0
   10.4494   -3.7506   -5.6162 H   0  0  0  0  0  0  0  0  0  0  0  0
    7.9829   -3.4318   -5.3241 H   0  0  0  0  0  0  0  0  0  0  0  0
  1  2  1  0
  1 17  1  0
  1 18  1  0
  1 19  1  0
  2  3  1  0
  2 20  1  0
  2 21  1  0
  3  4  1  0
  3 22  1  0
  3 23  1  0
  4  5  1  0
  4 24  1  0
  4 25  1  0
  5  6  1  0
  5  7  1  0
  6 26  1  0
  6 27  1  0
  6 28  1  0
  7  8  2  0
  8  9  1  0
  9 10  2  0
  9 16  1  0
 10 11  1  0
 10 29  1  0
 11 12  2  0
 11 30  1  0
 12 13  1  0
 12 15  1  0
 13 14  3  0
 15 16  2  0
 15 31  1  0
 16 32  1  0
M  END

