
     RDKit          3D

 42 43  0  0  0  0  0  0  0  0999 V2000
    1.2931   -0.0337   -2.0502 C   0  0  0  0  0  0  0  0  0  0  0  0
    2.6501    0.1147   -1.6311 O   0  0  0  0  0  0  0  0  0  0  0  0
    3.0828    1.3731   -1.4418 C   0  0  0  0  0  0  0  0  0  0  0  0
    2.3870    2.3480   -1.5928 O   0  0  0  0  0  0  0  0  0  0  0  0
    4.5401    1.3900   -1.0265 C   0  0  0  0  0  0  0  0  0  0  0  0
    5.0363    2.8067   -0.7555 C   0  0  0  0  0  0  0  0  0  0  0  0
    6.7843    2.7203   -0.1766 S   0  0  0  0  0  0  0  0  0  0  0  0
    7.3856    4.3504   -0.5973 C   0  0  0  0  0  0  0  0  0  0  0  0
    6.5946    5.4668   -0.2827 C   0  0  0  0  0  0  0  0  0  0  0  0
    7.0191    6.7567   -0.5937 C   0  0  0  0  0  0  0  0  0  0  0  0
    8.2551    6.9511   -1.2051 C   0  0  0  0  0  0  0  0  0  0  0  0
    9.0407    5.8368   -1.5061 C   0  0  0  0  0  0  0  0  0  0  0  0
   10.5953    6.1866   -2.2843 Cl  0  0  0  0  0  0  0  0  0  0  0  0
    8.6485    4.5126   -1.2252 C   0  0  0  0  0  0  0  0  0  0  0  0
    9.5339    3.3209   -1.6580 C   0  0  2  0  0  0  0  0  0  0  0  0
    8.8810    2.5879   -2.7506 N   0  0  0  0  0  0  0  0  0  0  0  0
    8.4374    1.3161   -2.7370 C   0  0  0  0  0  0  0  0  0  0  0  0
    7.4757    0.6564   -3.9374 S   0  0  0  0  0  0  0  0  0  0  0  0
    8.8526    0.5600   -1.6680 N   0  0  0  0  0  0  0  0  0  0  0  0
    9.5949    1.0403   -0.6011 C   0  0  0  0  0  0  0  0  0  0  0  0
    9.8862    0.1378    0.3634 N   0  0  0  0  0  0  0  0  0  0  0  0
    9.9732    2.3724   -0.5555 C   0  0  0  0  0  0  0  0  0  0  0  0
   10.8999    2.8051    0.4971 C   0  0  0  0  0  0  0  0  0  0  0  0
   11.3985    4.0777    0.4310 N   0  0  0  0  0  0  0  0  0  0  0  0
   11.2478    2.0747    1.4412 O   0  0  0  0  0  0  0  0  0  0  0  0
    1.1213   -1.1121   -2.1545 H   0  0  0  0  0  0  0  0  0  0  0  0
    1.1227    0.4739   -3.0118 H   0  0  0  0  0  0  0  0  0  0  0  0
    0.6036    0.3925   -1.3056 H   0  0  0  0  0  0  0  0  0  0  0  0
    5.1325    0.9132   -1.8268 H   0  0  0  0  0  0  0  0  0  0  0  0
    4.6482    0.7421   -0.1398 H   0  0  0  0  0  0  0  0  0  0  0  0
    4.4019    3.2977   -0.0037 H   0  0  0  0  0  0  0  0  0  0  0  0
    4.9989    3.4069   -1.6749 H   0  0  0  0  0  0  0  0  0  0  0  0
    5.6390    5.3219    0.2227 H   0  0  0  0  0  0  0  0  0  0  0  0
    6.3913    7.6157   -0.3455 H   0  0  0  0  0  0  0  0  0  0  0  0
    8.6187    7.9500   -1.4487 H   0  0  0  0  0  0  0  0  0  0  0  0
   10.4353    3.7730   -2.0972 H   0  0  0  0  0  0  0  0  0  0  0  0
    8.5668    3.1282   -3.5495 H   0  0  0  0  0  0  0  0  0  0  0  0
    8.4526   -0.3703   -1.6278 H   0  0  0  0  0  0  0  0  0  0  0  0
    9.9077   -0.8468    0.1282 H   0  0  0  0  0  0  0  0  0  0  0  0
   10.5124    0.5218    1.0882 H   0  0  0  0  0  0  0  0  0  0  0  0
   11.3055    4.6899   -0.3684 H   0  0  0  0  0  0  0  0  0  0  0  0
   12.0781    4.3223    1.1408 H   0  0  0  0  0  0  0  0  0  0  0  0
  1  2  1  0
  1 26  1  0
  1 27  1  0
  1 28  1  0
  2  3  1  0
  3  4  2  0
  3  5  1  0
  5  6  1  0
  5 29  1  0
  5 30  1  0
  6  7  1  0
  6 31  1  0
  6 32  1  0
  7  8  1  0
  8  9  2  0
  8 14  1  0
  9 10  1  0
  9 33  1  0
 10 11  2  0
 10 34  1  0
 11 12  1  0
 11 35  1  0
 12 13  1  0
 12 14  2  0
 14 15  1  0
 15 16  1  0
 15 22  1  0
 15 36  1  6
 16 17  1  0
 16 37  1  0
 17 18  2  0
 17 19  1  0
 19 20  1  0
 19 38  1  0
 20 21  1  0
 20 22  2  0
 21 39  1  0
 21 40  1  0
 22 23  1  0
 23 24  1  0
 23 25  2  0
 24 41  1  0
 24 42  1  0
M  END

