
     RDKit          3D

 62 63  0  0  0  0  0  0  0  0999 V2000
    0.1026    0.1654   -0.7796 C   0  0  0  0  0  0  0  0  0  0  0  0
    1.3940   -0.1555   -1.2515 O   0  0  0  0  0  0  0  0  0  0  0  0
    2.2836    0.8482   -1.4619 C   0  0  0  0  0  0  0  0  0  0  0  0
    2.0050    2.2039   -1.2753 C   0  0  0  0  0  0  0  0  0  0  0  0
    2.9885    3.1725   -1.5309 C   0  0  0  0  0  0  0  0  0  0  0  0
    2.5911    4.6074   -1.3038 C   0  0  0  0  0  0  0  0  0  0  0  0
    1.5548    4.9028   -0.7159 O   0  0  0  0  0  0  0  0  0  0  0  0
    3.4370    5.5594   -1.7865 N   0  0  0  0  0  0  0  0  0  0  0  0
    3.1370    6.9686   -1.6726 C   0  0  1  0  0  0  0  0  0  0  0  0
    3.4680    7.5256   -0.2755 C   0  0  0  0  0  0  0  0  0  0  0  0
    3.9312    7.6913   -2.7740 C   0  0  0  0  0  0  0  0  0  0  0  0
    4.8315    7.1309   -3.3834 O   0  0  0  0  0  0  0  0  0  0  0  0
    3.5789    8.9886   -2.9861 N   0  0  0  0  0  0  0  0  0  0  0  0
    4.2173    9.8309   -3.9834 C   0  0  0  0  0  0  0  0  0  0  0  0
    3.3169   10.1444   -5.1824 C   0  0  0  0  0  0  0  0  0  0  0  0
    4.0292   11.0150   -6.2316 C   0  0  0  0  0  0  0  0  0  0  0  0
    3.2212   11.3649   -7.3854 N   0  0  0  0  0  0  0  0  0  0  0  0
    2.4220   12.5706   -7.3179 C   0  0  0  0  0  0  0  0  0  0  0  0
    3.0518   10.4843   -8.4495 C   0  0  0  0  0  0  0  0  0  0  0  0
    3.7366    9.2448   -8.5164 C   0  0  0  0  0  0  0  0  0  0  0  0
    3.5737    8.3910   -9.6066 C   0  0  0  0  0  0  0  0  0  0  0  0
    2.7244    8.7215  -10.6665 C   0  0  0  0  0  0  0  0  0  0  0  0
    2.0338    9.9340  -10.6079 C   0  0  0  0  0  0  0  0  0  0  0  0
    2.1851   10.8013   -9.5250 C   0  0  0  0  0  0  0  0  0  0  0  0
    4.2636    2.7773   -1.9466 C   0  0  0  0  0  0  0  0  0  0  0  0
    4.5539    1.4197   -2.1395 C   0  0  0  0  0  0  0  0  0  0  0  0
    5.7927    1.0796   -2.6003 O   0  0  0  0  0  0  0  0  0  0  0  0
    6.6174    0.2976   -1.7456 C   0  0  0  0  0  0  0  0  0  0  0  0
    3.5676    0.4449   -1.9052 C   0  0  0  0  0  0  0  0  0  0  0  0
    3.8707   -0.8750   -2.0731 O   0  0  0  0  0  0  0  0  0  0  0  0
    3.3050   -1.5134   -3.2113 C   0  0  0  0  0  0  0  0  0  0  0  0
   -0.4337   -0.7866   -0.6689 H   0  0  0  0  0  0  0  0  0  0  0  0
   -0.4468    0.8084   -1.4901 H   0  0  0  0  0  0  0  0  0  0  0  0
    0.1407    0.6735    0.1999 H   0  0  0  0  0  0  0  0  0  0  0  0
    1.0353    2.5557   -0.9269 H   0  0  0  0  0  0  0  0  0  0  0  0
    4.2107    5.3367   -2.4073 H   0  0  0  0  0  0  0  0  0  0  0  0
    2.0556    7.1115   -1.8495 H   0  0  0  0  0  0  0  0  0  0  0  0
    4.5424    7.4158   -0.0619 H   0  0  0  0  0  0  0  0  0  0  0  0
    2.8942    6.9653    0.4760 H   0  0  0  0  0  0  0  0  0  0  0  0
    3.2017    8.5909   -0.1894 H   0  0  0  0  0  0  0  0  0  0  0  0
    2.7809    9.3587   -2.4828 H   0  0  0  0  0  0  0  0  0  0  0  0
    5.1160    9.2890   -4.3120 H   0  0  0  0  0  0  0  0  0  0  0  0
    4.5553   10.7690   -3.5065 H   0  0  0  0  0  0  0  0  0  0  0  0
    2.4041   10.6654   -4.8407 H   0  0  0  0  0  0  0  0  0  0  0  0
    2.9860    9.2006   -5.6451 H   0  0  0  0  0  0  0  0  0  0  0  0
    4.9504   10.5099   -6.5657 H   0  0  0  0  0  0  0  0  0  0  0  0
    4.3659   11.9530   -5.7587 H   0  0  0  0  0  0  0  0  0  0  0  0
    2.7037   13.1427   -6.4235 H   0  0  0  0  0  0  0  0  0  0  0  0
    1.3352   12.3667   -7.2596 H   0  0  0  0  0  0  0  0  0  0  0  0
    2.5882   13.2231   -8.1938 H   0  0  0  0  0  0  0  0  0  0  0  0
    4.4023    8.9340   -7.7118 H   0  0  0  0  0  0  0  0  0  0  0  0
    4.1217    7.4447   -9.6193 H   0  0  0  0  0  0  0  0  0  0  0  0
    2.5995    8.0459  -11.5153 H   0  0  0  0  0  0  0  0  0  0  0  0
    1.3577   10.2182  -11.4193 H   0  0  0  0  0  0  0  0  0  0  0  0
    1.6234   11.7344   -9.5237 H   0  0  0  0  0  0  0  0  0  0  0  0
    5.0724    3.4871   -2.1268 H   0  0  0  0  0  0  0  0  0  0  0  0
    7.5695    0.1530   -2.2756 H   0  0  0  0  0  0  0  0  0  0  0  0
    6.1657   -0.6821   -1.5276 H   0  0  0  0  0  0  0  0  0  0  0  0
    6.8162    0.8269   -0.7957 H   0  0  0  0  0  0  0  0  0  0  0  0
    3.6785   -2.5470   -3.2120 H   0  0  0  0  0  0  0  0  0  0  0  0
    3.6228   -1.0153   -4.1442 H   0  0  0  0  0  0  0  0  0  0  0  0
    2.2046   -1.5273   -3.1584 H   0  0  0  0  0  0  0  0  0  0  0  0
  1  2  1  0
  1 32  1  0
  1 33  1  0
  1 34  1  0
  2  3  1  0
  3  4  2  0
  3 29  1  0
  4  5  1  0
  4 35  1  0
  5  6  1  0
  5 25  2  0
  6  7  2  0
  6  8  1  0
  8  9  1  0
  8 36  1  0
  9 10  1  0
  9 11  1  0
  9 37  1  6
 10 38  1  0
 10 39  1  0
 10 40  1  0
 11 12  2  0
 11 13  1  0
 13 14  1  0
 13 41  1  0
 14 15  1  0
 14 42  1  0
 14 43  1  0
 15 16  1  0
 15 44  1  0
 15 45  1  0
 16 17  1  0
 16 46  1  0
 16 47  1  0
 17 18  1  0
 17 19  1  0
 18 48  1  0
 18 49  1  0
 18 50  1  0
 19 20  2  0
 19 24  1  0
 20 21  1  0
 20 51  1  0
 21 22  2  0
 21 52  1  0
 22 23  1  0
 22 53  1  0
 23 24  2  0
 23 54  1  0
 24 55  1  0
 25 26  1  0
 25 56  1  0
 26 27  1  0
 26 29  2  0
 27 28  1  0
 28 57  1  0
 28 58  1  0
 28 59  1  0
 29 30  1  0
 30 31  1  0
 31 60  1  0
 31 61  1  0
 31 62  1  0
M  END

