
     RDKit          3D

 38 39  0  0  0  0  0  0  0  0999 V2000
    1.2333   -0.0724   -0.2093 O   0  0  0  0  0  0  0  0  0  0  0  0
    2.4450    0.0706   -0.2279 C   0  0  0  0  0  0  0  0  0  0  0  0
    3.1167    1.3973    0.1305 C   0  0  0  0  0  0  0  0  0  0  0  0
    2.1968    2.2697    0.9745 C   0  0  0  0  0  0  0  0  0  0  0  0
    2.9561    3.9086    1.1792 S   0  0  1  0  0  0  0  0  0  0  0  0
    4.1591    3.7316    2.0095 O   0  0  0  0  0  0  0  0  0  0  0  0
    3.0433    4.5205   -0.1571 O   0  0  0  0  0  0  0  0  0  0  0  0
    1.7559    4.8468    2.1379 C   0  0  0  0  0  0  0  0  0  0  0  0
    1.8569    4.8624    3.5317 C   0  0  0  0  0  0  0  0  0  0  0  0
    0.9322    5.5958    4.2760 C   0  0  0  0  0  0  0  0  0  0  0  0
   -0.0744    6.3063    3.6112 C   0  0  0  0  0  0  0  0  0  0  0  0
   -1.2311    7.2224    4.5401 Cl  0  0  0  0  0  0  0  0  0  0  0  0
   -0.1645    6.3019    2.2139 C   0  0  0  0  0  0  0  0  0  0  0  0
    0.7616    5.5687    1.4714 C   0  0  0  0  0  0  0  0  0  0  0  0
    3.3020   -0.9216   -0.6047 N   0  0  0  0  0  0  0  0  0  0  0  0
    2.8342   -2.2339   -1.0162 C   0  0  0  0  0  0  0  0  0  0  0  0
    2.6617   -3.2175    0.1618 C   0  0  0  0  0  0  0  0  0  0  0  0
    2.2149   -4.5865   -0.2636 C   0  0  0  0  0  0  0  0  0  0  0  0
    2.9603   -5.7398   -0.3517 C   0  0  0  0  0  0  0  0  0  0  0  0
    2.2205   -6.8622   -0.8365 C   0  0  0  0  0  0  0  0  0  0  0  0
    0.9155   -6.5501   -1.1177 C   0  0  0  0  0  0  0  0  0  0  0  0
    0.5764   -4.8846   -0.7895 S   0  0  0  0  0  0  0  0  0  0  0  0
    3.3517    1.9268   -0.8093 H   0  0  0  0  0  0  0  0  0  0  0  0
    4.0737    1.2331    0.6504 H   0  0  0  0  0  0  0  0  0  0  0  0
    2.0374    1.8623    1.9833 H   0  0  0  0  0  0  0  0  0  0  0  0
    1.2230    2.4053    0.4847 H   0  0  0  0  0  0  0  0  0  0  0  0
    2.6662    4.3175    4.0218 H   0  0  0  0  0  0  0  0  0  0  0  0
    0.9898    5.6273    5.3651 H   0  0  0  0  0  0  0  0  0  0  0  0
   -0.9494    6.8756    1.7188 H   0  0  0  0  0  0  0  0  0  0  0  0
    0.7290    5.5667    0.3801 H   0  0  0  0  0  0  0  0  0  0  0  0
    4.2992   -0.7534   -0.5478 H   0  0  0  0  0  0  0  0  0  0  0  0
    3.5431   -2.6488   -1.7499 H   0  0  0  0  0  0  0  0  0  0  0  0
    1.8676   -2.1002   -1.5230 H   0  0  0  0  0  0  0  0  0  0  0  0
    1.9439   -2.7751    0.8718 H   0  0  0  0  0  0  0  0  0  0  0  0
    3.6216   -3.3171    0.6953 H   0  0  0  0  0  0  0  0  0  0  0  0
    4.0140   -5.7832   -0.0678 H   0  0  0  0  0  0  0  0  0  0  0  0
    2.6412   -7.8607   -0.9667 H   0  0  0  0  0  0  0  0  0  0  0  0
    0.1299   -7.2046   -1.4928 H   0  0  0  0  0  0  0  0  0  0  0  0
  1  2  2  0
  2  3  1  0
  2 15  1  0
  3  4  1  0
  3 23  1  0
  3 24  1  0
  5  4  1  6
  4 25  1  0
  4 26  1  0
  5  6  2  0
  5  7  2  0
  5  8  1  0
  8  9  2  0
  8 14  1  0
  9 10  1  0
  9 27  1  0
 10 11  2  0
 10 28  1  0
 11 12  1  0
 11 13  1  0
 13 14  2  0
 13 29  1  0
 14 30  1  0
 15 16  1  0
 15 31  1  0
 16 17  1  0
 16 32  1  0
 16 33  1  0
 17 18  1  0
 17 34  1  0
 17 35  1  0
 18 19  2  0
 18 22  1  0
 19 20  1  0
 19 36  1  0
 20 21  2  0
 20 37  1  0
 21 22  1  0
 21 38  1  0
M  END

