
     RDKit          3D

 40 40  0  0  0  0  0  0  0  0999 V2000
    0.7682    5.3446   -3.1651 C   0  0  0  0  0  0  0  0  0  0  0  0
    2.2124    5.2978   -3.2901 N   0  0  0  0  0  0  0  0  0  0  0  0
    2.9223    5.2631   -2.0253 C   0  0  0  0  0  0  0  0  0  0  0  0
    4.4173    5.0793   -2.2467 C   0  0  0  0  0  0  0  0  0  0  0  0
    5.0594    5.0531   -0.9971 O   0  0  0  0  0  0  0  0  0  0  0  0
    6.4533    4.8758   -1.0606 C   0  0  0  0  0  0  0  0  0  0  0  0
    7.0152    4.8626    0.3613 C   0  0  0  0  0  0  0  0  0  0  0  0
    8.5157    4.6817    0.3987 C   0  0  0  0  0  0  0  0  0  0  0  0
    9.3864    5.7839    0.3227 C   0  0  0  0  0  0  0  0  0  0  0  0
   10.7682    5.6212    0.3186 C   0  0  0  0  0  0  0  0  0  0  0  0
   11.3363    4.3367    0.3913 C   0  0  0  0  0  0  0  0  0  0  0  0
   12.6941    4.2901    0.4015 O   0  0  0  0  0  0  0  0  0  0  0  0
   13.4057    3.0484    0.4312 C   0  0  1  0  0  0  0  0  0  0  0  0
   13.4670    2.4244   -0.9625 C   0  0  0  0  0  0  0  0  0  0  0  0
   14.7854    3.3676    0.9931 C   0  0  0  0  0  0  0  0  0  0  0  0
   10.4836    3.2241    0.4657 C   0  0  0  0  0  0  0  0  0  0  0  0
    9.0960    3.4093    0.4695 C   0  0  0  0  0  0  0  0  0  0  0  0
    0.3061    5.4151   -4.1625 H   0  0  0  0  0  0  0  0  0  0  0  0
    0.3831    6.1898   -2.5503 H   0  0  0  0  0  0  0  0  0  0  0  0
    0.4012    4.4142   -2.6990 H   0  0  0  0  0  0  0  0  0  0  0  0
    2.5352    6.0899   -3.8453 H   0  0  0  0  0  0  0  0  0  0  0  0
    2.5522    4.4076   -1.4338 H   0  0  0  0  0  0  0  0  0  0  0  0
    2.7656    6.1659   -1.3917 H   0  0  0  0  0  0  0  0  0  0  0  0
    4.8144    5.9096   -2.8728 H   0  0  0  0  0  0  0  0  0  0  0  0
    4.5942    4.1424   -2.8135 H   0  0  0  0  0  0  0  0  0  0  0  0
    6.9269    5.6907   -1.6488 H   0  0  0  0  0  0  0  0  0  0  0  0
    6.7061    3.9261   -1.5778 H   0  0  0  0  0  0  0  0  0  0  0  0
    6.5142    4.0542    0.9182 H   0  0  0  0  0  0  0  0  0  0  0  0
    6.7279    5.8084    0.8494 H   0  0  0  0  0  0  0  0  0  0  0  0
    8.9707    6.7950    0.2732 H   0  0  0  0  0  0  0  0  0  0  0  0
   11.4408    6.4801    0.2678 H   0  0  0  0  0  0  0  0  0  0  0  0
   12.8943    2.3571    1.1260 H   0  0  0  0  0  0  0  0  0  0  0  0
   13.9884    3.1016   -1.6574 H   0  0  0  0  0  0  0  0  0  0  0  0
   12.4619    2.2303   -1.3653 H   0  0  0  0  0  0  0  0  0  0  0  0
   14.0135    1.4684   -0.9336 H   0  0  0  0  0  0  0  0  0  0  0  0
   15.3073    4.0857    0.3409 H   0  0  0  0  0  0  0  0  0  0  0  0
   15.3953    2.4537    1.0645 H   0  0  0  0  0  0  0  0  0  0  0  0
   14.7010    3.8126    1.9957 H   0  0  0  0  0  0  0  0  0  0  0  0
   10.8818    2.2111    0.5248 H   0  0  0  0  0  0  0  0  0  0  0  0
    8.4503    2.5281    0.5342 H   0  0  0  0  0  0  0  0  0  0  0  0
  1  2  1  0
  1 18  1  0
  1 19  1  0
  1 20  1  0
  2  3  1  0
  2 21  1  0
  3  4  1  0
  3 22  1  0
  3 23  1  0
  4  5  1  0
  4 24  1  0
  4 25  1  0
  5  6  1  0
  6  7  1  0
  6 26  1  0
  6 27  1  0
  7  8  1  0
  7 28  1  0
  7 29  1  0
  8  9  2  0
  8 17  1  0
  9 10  1  0
  9 30  1  0
 10 11  2  0
 10 31  1  0
 11 12  1  0
 11 16  1  0
 12 13  1  0
 13 14  1  0
 13 15  1  0
 13 32  1  1
 14 33  1  0
 14 34  1  0
 14 35  1  0
 15 36  1  0
 15 37  1  0
 15 38  1  0
 16 17  2  0
 16 39  1  0
 17 40  1  0
M  END

