
     RDKit          3D

 48 50  0  0  0  0  0  0  0  0999 V2000
    7.4165   -4.0403   -6.5059 C   0  0  0  0  0  0  0  0  0  0  0  0
    6.1389   -3.7149   -5.2485 S   0  0  0  0  0  0  0  0  0  0  0  0
    7.1488   -3.5713   -3.7986 C   0  0  0  0  0  0  0  0  0  0  0  0
    8.4678   -3.7192   -3.9572 N   0  0  0  0  0  0  0  0  0  0  0  0
    9.2768   -3.6238   -2.9040 C   0  0  0  0  0  0  0  0  0  0  0  0
    8.8266   -3.3722   -1.6060 C   0  0  0  0  0  0  0  0  0  0  0  0
    7.4552   -3.2168   -1.4209 C   0  0  0  0  0  0  0  0  0  0  0  0
    6.5823   -3.3140   -2.5138 C   0  0  0  0  0  0  0  0  0  0  0  0
    5.1182   -3.1525   -2.3296 C   0  0  0  0  0  0  0  0  0  0  0  0
    4.3014   -3.2122   -3.2224 O   0  0  0  0  0  0  0  0  0  0  0  0
    4.7882   -2.9338   -1.0382 O   0  0  0  0  0  0  0  0  0  0  0  0
    3.3967   -2.7279   -0.7202 C   0  0  2  0  0  0  0  0  0  0  0  0
    2.7967   -3.2548   -1.4768 H   0  0  0  0  0  0  0  0  0  0  0  0
    3.0745   -1.2413   -0.7232 C   0  0  0  0  0  0  0  0  0  0  0  0
    3.2190   -3.3325    0.6846 C   0  0  0  0  0  0  0  0  0  0  0  0
    3.7533   -2.8224    1.6515 O   0  0  0  0  0  0  0  0  0  0  0  0
    2.4226   -4.4487    0.7075 N   0  0  0  0  0  0  0  0  0  0  0  0
    2.0215   -5.2420    1.8048 C   0  0  0  0  0  0  0  0  0  0  0  0
    2.3698   -4.9118    3.1264 C   0  0  0  0  0  0  0  0  0  0  0  0
    1.9094   -5.6922    4.1876 C   0  0  0  0  0  0  0  0  0  0  0  0
    1.0963   -6.8029    3.9535 C   0  0  0  0  0  0  0  0  0  0  0  0
    0.7569   -7.1349    2.6415 C   0  0  0  0  0  0  0  0  0  0  0  0
    1.2146   -6.3826    1.5481 C   0  0  0  0  0  0  0  0  0  0  0  0
    0.8287   -6.7927    0.1649 C   0  0  0  0  0  0  0  0  0  0  0  0
   -0.5283   -6.9220   -0.1865 C   0  0  0  0  0  0  0  0  0  0  0  0
   -0.9021   -7.3327   -1.4682 C   0  0  0  0  0  0  0  0  0  0  0  0
    0.0727   -7.6204   -2.4285 C   0  0  0  0  0  0  0  0  0  0  0  0
    1.4248   -7.5015   -2.0953 C   0  0  0  0  0  0  0  0  0  0  0  0
    1.7996   -7.0957   -0.8111 C   0  0  0  0  0  0  0  0  0  0  0  0
    6.8617   -4.1461   -7.4496 H   0  0  0  0  0  0  0  0  0  0  0  0
    7.9672   -4.9640   -6.2860 H   0  0  0  0  0  0  0  0  0  0  0  0
    8.1270   -3.2069   -6.5769 H   0  0  0  0  0  0  0  0  0  0  0  0
   10.3473   -3.7546   -3.1047 H   0  0  0  0  0  0  0  0  0  0  0  0
    9.5271   -3.3006   -0.7721 H   0  0  0  0  0  0  0  0  0  0  0  0
    7.0362   -3.0174   -0.4336 H   0  0  0  0  0  0  0  0  0  0  0  0
    2.0156   -1.0820   -0.4647 H   0  0  0  0  0  0  0  0  0  0  0  0
    3.2575   -0.8130   -1.7191 H   0  0  0  0  0  0  0  0  0  0  0  0
    3.6977   -0.7309    0.0250 H   0  0  0  0  0  0  0  0  0  0  0  0
    2.0589   -4.7519   -0.1894 H   0  0  0  0  0  0  0  0  0  0  0  0
    2.9965   -4.0406    3.3009 H   0  0  0  0  0  0  0  0  0  0  0  0
    2.1917   -5.4221    5.2083 H   0  0  0  0  0  0  0  0  0  0  0  0
    0.7341   -7.4127    4.7845 H   0  0  0  0  0  0  0  0  0  0  0  0
    0.1378   -8.0135    2.4442 H   0  0  0  0  0  0  0  0  0  0  0  0
   -1.2951   -6.6859    0.5555 H   0  0  0  0  0  0  0  0  0  0  0  0
   -1.9619   -7.4230   -1.7201 H   0  0  0  0  0  0  0  0  0  0  0  0
   -0.2203   -7.9371   -3.4325 H   0  0  0  0  0  0  0  0  0  0  0  0
    2.1950   -7.7349   -2.8347 H   0  0  0  0  0  0  0  0  0  0  0  0
    2.8601   -7.0354   -0.5526 H   0  0  0  0  0  0  0  0  0  0  0  0
  1  2  1  0
  1 30  1  0
  1 31  1  0
  1 32  1  0
  2  3  2  0
  3  4  1  0
  3  8  1  0
  4  5  2  0
  5  6  1  0
  5 33  1  0
  6  7  2  0
  6 34  1  0
  7  8  1  0
  7 35  1  0
  8  9  2  0
  9 10  1  0
  9 11  1  0
 11 12  1  0
 12 13  1  6
 12 14  1  0
 12 15  1  0
 14 36  1  0
 14 37  1  0
 14 38  1  0
 15 16  2  0
 15 17  1  0
 17 18  1  0
 17 39  1  0
 18 19  2  0
 18 23  1  0
 19 20  1  0
 19 40  1  0
 20 21  2  0
 20 41  1  0
 21 22  1  0
 21 42  1  0
 22 23  2  0
 22 43  1  0
 23 24  1  0
 24 25  2  0
 24 29  1  0
 25 26  1  0
 25 44  1  0
 26 27  2  0
 26 45  1  0
 27 28  1  0
 27 46  1  0
 28 29  2  0
 28 47  1  0
 29 48  1  0
M  CHG  2   2   1  10  -1
M  END

