
     RDKit          3D

 34 38  0  0  0  0  0  0  0  0999 V2000
    1.1637    0.0476   -0.2899 Br  0  0  0  0  0  0  0  0  0  0  0  0
    3.0559    0.0929   -0.0889 C   0  0  0  0  0  0  0  0  0  0  0  0
    3.7205    1.3497    0.0356 C   0  0  0  0  0  0  0  0  0  0  0  0
    5.0851    1.3596    0.1576 C   0  0  0  0  0  0  0  0  0  0  0  0
    5.8238    0.1455    0.1650 C   0  0  0  0  0  0  0  0  0  0  0  0
    7.1863   -0.1209    0.2215 C   0  0  0  0  0  0  0  0  0  0  0  0
    7.3398   -1.5220    0.1601 C   0  0  0  0  0  0  0  0  0  0  0  0
    8.5126   -2.3446    0.1069 C   0  0  0  0  0  0  0  0  0  0  0  0
    9.8375   -1.8527    0.1515 C   0  0  0  0  0  0  0  0  0  0  0  0
   10.9129   -2.7200    0.0543 C   0  0  0  0  0  0  0  0  0  0  0  0
   10.6958   -4.1096   -0.0905 C   0  0  0  0  0  0  0  0  0  0  0  0
    9.4096   -4.6144   -0.1298 C   0  0  0  0  0  0  0  0  0  0  0  0
    8.2878   -3.7479   -0.0289 C   0  0  0  0  0  0  0  0  0  0  0  0
    7.0411   -4.2971   -0.0376 N   0  0  0  0  0  0  0  0  0  0  0  0
    5.9462   -3.5621    0.0455 C   0  0  0  0  0  0  0  0  0  0  0  0
    4.7246   -4.3810    0.0877 C   0  0  0  0  0  0  0  0  0  0  0  0
    4.5423   -5.6948   -0.2749 C   0  0  0  0  0  0  0  0  0  0  0  0
    3.1938   -6.0282    0.0569 C   0  0  0  0  0  0  0  0  0  0  0  0
    2.6479   -4.9021    0.6060 C   0  0  0  0  0  0  0  0  0  0  0  0
    3.5659   -3.9012    0.6296 O   0  0  0  0  0  0  0  0  0  0  0  0
    6.0511   -2.1258    0.0969 C   0  0  0  0  0  0  0  0  0  0  0  0
    5.1188   -1.0803    0.0784 N   0  0  0  0  0  0  0  0  0  0  0  0
    3.7494   -1.0855   -0.0704 C   0  0  0  0  0  0  0  0  0  0  0  0
    3.1441    2.2754    0.0251 H   0  0  0  0  0  0  0  0  0  0  0  0
    5.6371    2.2974    0.2421 H   0  0  0  0  0  0  0  0  0  0  0  0
    7.9684    0.6316    0.2792 H   0  0  0  0  0  0  0  0  0  0  0  0
   10.0089   -0.7790    0.2591 H   0  0  0  0  0  0  0  0  0  0  0  0
   11.9333   -2.3303    0.0885 H   0  0  0  0  0  0  0  0  0  0  0  0
   11.5510   -4.7860   -0.1676 H   0  0  0  0  0  0  0  0  0  0  0  0
    9.2139   -5.6836   -0.2323 H   0  0  0  0  0  0  0  0  0  0  0  0
    5.3066   -6.3288   -0.7142 H   0  0  0  0  0  0  0  0  0  0  0  0
    2.6928   -6.9827   -0.0901 H   0  0  0  0  0  0  0  0  0  0  0  0
    1.6680   -4.6607    1.0093 H   0  0  0  0  0  0  0  0  0  0  0  0
    3.2665   -2.0515   -0.1518 H   0  0  0  0  0  0  0  0  0  0  0  0
  1  2  1  0
  2  3  1  0
  2 23  2  0
  3  4  2  0
  3 24  1  0
  4  5  1  0
  4 25  1  0
  5  6  2  0
  5 22  1  0
  6  7  1  0
  6 26  1  0
  7  8  1  0
  7 21  2  0
  8  9  2  0
  8 13  1  0
  9 10  1  0
  9 27  1  0
 10 11  2  0
 10 28  1  0
 11 12  1  0
 11 29  1  0
 12 13  2  0
 12 30  1  0
 13 14  1  0
 14 15  2  0
 15 16  1  0
 15 21  1  0
 16 17  2  0
 16 20  1  0
 17 18  1  0
 17 31  1  0
 18 19  2  0
 18 32  1  0
 19 20  1  0
 19 33  1  0
 21 22  1  0
 22 23  1  0
 23 34  1  0
M  END

