
     RDKit          3D

 46 47  0  0  0  0  0  0  0  0999 V2000
    0.9673    0.4234   -0.7823 C   0  0  0  0  0  0  0  0  0  0  0  0
    2.0066    1.3280   -0.1406 C   0  0  0  0  0  0  0  0  0  0  0  0
    2.8350    1.9748   -1.1227 O   0  0  0  0  0  0  0  0  0  0  0  0
    3.9250    1.3041   -1.5408 C   0  0  0  0  0  0  0  0  0  0  0  0
    4.1592    0.1597   -1.2218 O   0  0  0  0  0  0  0  0  0  0  0  0
    4.7670    2.1052   -2.4726 C   0  0  0  0  0  0  0  0  0  0  0  0
    4.8904    3.4825   -2.4388 C   0  0  0  0  0  0  0  0  0  0  0  0
    4.3822    4.4191   -1.5321 N   0  0  0  0  0  0  0  0  0  0  0  0
    4.4412    4.3214   -0.1520 C   0  0  0  0  0  0  0  0  0  0  0  0
    4.8829    3.3514    0.4284 O   0  0  0  0  0  0  0  0  0  0  0  0
    3.9259    5.5578    0.5946 C   0  0  1  0  0  0  0  0  0  0  0  0
    2.8766    5.1405    1.6330 C   0  0  0  0  0  0  0  0  0  0  0  0
    5.1151    6.2679    1.2478 C   0  0  1  0  0  0  0  0  0  0  0  0
    6.1728    6.9723    0.3588 C   0  0  0  0  0  0  0  0  0  0  0  0
    6.1989    8.0794    1.3283 N   0  0  0  0  0  0  0  0  0  0  0  0
    4.9048    7.6622    1.8936 C   0  0  0  0  0  0  0  0  0  0  0  0
    5.9692    4.0482   -3.6848 S   0  0  0  0  0  0  0  0  0  0  0  0
    6.2273    2.4326   -4.2863 C   0  0  0  0  0  0  0  0  0  0  0  0
    7.0873    2.2189   -5.5002 C   0  0  0  0  0  0  0  0  0  0  0  0
    5.5547    1.5004   -3.5291 C   0  0  0  0  0  0  0  0  0  0  0  0
    5.5942    0.0206   -3.8339 C   0  0  0  0  0  0  0  0  0  0  0  0
    4.3691   -0.4852   -4.6120 C   0  0  0  0  0  0  0  0  0  0  0  0
    0.2962    0.0161   -0.0088 H   0  0  0  0  0  0  0  0  0  0  0  0
    1.4497   -0.4210   -1.2957 H   0  0  0  0  0  0  0  0  0  0  0  0
    0.3553    0.9795   -1.5100 H   0  0  0  0  0  0  0  0  0  0  0  0
    2.6485    0.7651    0.5521 H   0  0  0  0  0  0  0  0  0  0  0  0
    1.5296    2.1530    0.4087 H   0  0  0  0  0  0  0  0  0  0  0  0
    4.0346    5.2899   -1.9170 H   0  0  0  0  0  0  0  0  0  0  0  0
    3.4599    6.2534   -0.1271 H   0  0  0  0  0  0  0  0  0  0  0  0
    3.3034    4.3938    2.3189 H   0  0  0  0  0  0  0  0  0  0  0  0
    1.9929    4.6943    1.1503 H   0  0  0  0  0  0  0  0  0  0  0  0
    2.5401    6.0085    2.2211 H   0  0  0  0  0  0  0  0  0  0  0  0
    5.6014    5.5749    1.9510 H   0  0  0  0  0  0  0  0  0  0  0  0
    5.7594    7.2379   -0.6378 H   0  0  0  0  0  0  0  0  0  0  0  0
    7.1363    6.4574    0.2031 H   0  0  0  0  0  0  0  0  0  0  0  0
    6.2500    9.0225    0.9473 H   0  0  0  0  0  0  0  0  0  0  0  0
    4.0211    8.1811    1.4656 H   0  0  0  0  0  0  0  0  0  0  0  0
    4.8346    7.7138    2.9940 H   0  0  0  0  0  0  0  0  0  0  0  0
    7.5772    3.1515   -5.8165 H   0  0  0  0  0  0  0  0  0  0  0  0
    6.5016    1.8461   -6.3575 H   0  0  0  0  0  0  0  0  0  0  0  0
    7.8823    1.4823   -5.2997 H   0  0  0  0  0  0  0  0  0  0  0  0
    5.6721   -0.5337   -2.8886 H   0  0  0  0  0  0  0  0  0  0  0  0
    6.5046   -0.1979   -4.4145 H   0  0  0  0  0  0  0  0  0  0  0  0
    3.4417   -0.3337   -4.0385 H   0  0  0  0  0  0  0  0  0  0  0  0
    4.4575   -1.5641   -4.8183 H   0  0  0  0  0  0  0  0  0  0  0  0
    4.2571    0.0365   -5.5765 H   0  0  0  0  0  0  0  0  0  0  0  0
  1  2  1  0
  1 23  1  0
  1 24  1  0
  1 25  1  0
  2  3  1  0
  2 26  1  0
  2 27  1  0
  3  4  1  0
  4  5  2  0
  4  6  1  0
  6  7  2  0
  6 20  1  0
  7  8  1  0
  7 17  1  0
  8  9  1  0
  8 28  1  0
  9 10  2  0
  9 11  1  0
 11 12  1  0
 11 13  1  0
 11 29  1  6
 12 30  1  0
 12 31  1  0
 12 32  1  0
 13 14  1  0
 13 16  1  0
 13 33  1  1
 14 15  1  0
 14 34  1  0
 14 35  1  0
 15 16  1  0
 15 36  1  0
 16 37  1  0
 16 38  1  0
 17 18  1  0
 18 19  1  0
 18 20  2  0
 19 39  1  0
 19 40  1  0
 19 41  1  0
 20 21  1  0
 21 22  1  0
 21 42  1  0
 21 43  1  0
 22 44  1  0
 22 45  1  0
 22 46  1  0
M  END

