
     RDKit          3D

 36 36  0  0  0  0  0  0  0  0999 V2000
    0.7559    0.8825    1.8217 C   0  0  0  0  0  0  0  0  0  0  0  0
    2.0385    0.5643    1.3512 O   0  0  0  0  0  0  0  0  0  0  0  0
    2.8567    1.6648    0.9782 C   0  0  1  0  0  0  0  0  0  0  0  0
    3.4391    2.3690    2.2025 C   0  0  0  0  0  0  0  0  0  0  0  0
    3.9520    1.0970    0.0364 C   0  0  1  0  0  0  0  0  0  0  0  0
    3.3262    0.3151   -1.1323 C   0  0  0  0  0  0  0  0  0  0  0  0
    4.9072    2.1362   -0.3389 N   0  0  0  0  0  0  0  0  0  0  0  0
    6.3307    1.8591   -0.3146 C   0  0  0  0  0  0  0  0  0  0  0  0
    6.9171    1.5231   -1.6970 C   0  0  0  0  0  0  0  0  0  0  0  0
    6.5682    2.6206   -2.7099 C   0  0  0  0  0  0  0  0  0  0  0  0
    5.0472    2.8916   -2.7302 C   0  0  2  0  0  0  0  0  0  0  0  0
    4.6607    4.0360   -3.6644 C   0  0  0  0  0  0  0  0  0  0  0  0
    4.0042    4.9871   -3.3362 O   0  0  0  0  0  0  0  0  0  0  0  0
    5.0959    3.9233   -4.9430 O   0  0  0  0  0  0  0  0  0  0  0  0
    4.5338    3.1594   -1.2965 C   0  0  0  0  0  0  0  0  0  0  0  0
    0.2217   -0.0639    1.9948 H   0  0  0  0  0  0  0  0  0  0  0  0
    0.1809    1.4796    1.0848 H   0  0  0  0  0  0  0  0  0  0  0  0
    0.7726    1.4455    2.7751 H   0  0  0  0  0  0  0  0  0  0  0  0
    2.2397    2.3888    0.4033 H   0  0  0  0  0  0  0  0  0  0  0  0
    4.0340    1.6586    2.7996 H   0  0  0  0  0  0  0  0  0  0  0  0
    2.6447    2.7753    2.8473 H   0  0  0  0  0  0  0  0  0  0  0  0
    4.0907    3.1992    1.8982 H   0  0  0  0  0  0  0  0  0  0  0  0
    4.5149    0.3743    0.6513 H   0  0  0  0  0  0  0  0  0  0  0  0
    2.7257    0.9726   -1.7830 H   0  0  0  0  0  0  0  0  0  0  0  0
    2.6586   -0.4676   -0.7479 H   0  0  0  0  0  0  0  0  0  0  0  0
    4.1036   -0.1618   -1.7493 H   0  0  0  0  0  0  0  0  0  0  0  0
    6.5281    1.0419    0.3959 H   0  0  0  0  0  0  0  0  0  0  0  0
    6.8661    2.7501    0.0756 H   0  0  0  0  0  0  0  0  0  0  0  0
    6.5159    0.5552   -2.0452 H   0  0  0  0  0  0  0  0  0  0  0  0
    8.0124    1.4101   -1.6256 H   0  0  0  0  0  0  0  0  0  0  0  0
    6.9425    2.3397   -3.7109 H   0  0  0  0  0  0  0  0  0  0  0  0
    7.0925    3.5546   -2.4362 H   0  0  0  0  0  0  0  0  0  0  0  0
    4.5466    1.9861   -3.1216 H   0  0  0  0  0  0  0  0  0  0  0  0
    5.6100    3.1109   -5.0534 H   0  0  0  0  0  0  0  0  0  0  0  0
    3.4434    3.2888   -1.3148 H   0  0  0  0  0  0  0  0  0  0  0  0
    4.9437    4.1369   -0.9772 H   0  0  0  0  0  0  0  0  0  0  0  0
  1  2  1  0
  1 16  1  0
  1 17  1  0
  1 18  1  0
  2  3  1  0
  3  4  1  0
  3  5  1  0
  3 19  1  6
  4 20  1  0
  4 21  1  0
  4 22  1  0
  5  6  1  0
  5  7  1  0
  5 23  1  1
  6 24  1  0
  6 25  1  0
  6 26  1  0
  7  8  1  0
  7 15  1  0
  8  9  1  0
  8 27  1  0
  8 28  1  0
  9 10  1  0
  9 29  1  0
  9 30  1  0
 10 11  1  0
 10 31  1  0
 10 32  1  0
 11 12  1  0
 11 15  1  0
 11 33  1  6
 12 13  2  0
 12 14  1  0
 14 34  1  0
 15 35  1  0
 15 36  1  0
M  END

