
     RDKit          3D

 95106  0  0  0  0  0  0  0  0999 V2000
    1.6050    1.0215    4.7108 C   0  0  0  0  0  0  0  0  0  0  0  0
    2.5332    0.6700    3.7276 C   0  0  0  0  0  0  0  0  0  0  0  0
    2.6541    1.4727    2.5949 C   0  0  0  0  0  0  0  0  0  0  0  0
    1.8366    2.6105    2.4797 C   0  0  0  0  0  0  0  0  0  0  0  0
    1.9276    3.5023    1.2840 C   0  0  0  0  0  0  0  0  0  0  0  0
    1.1055    4.6352    1.1905 C   0  0  0  0  0  0  0  0  0  0  0  0
    1.2006    5.4716    0.0675 C   0  0  0  0  0  0  0  0  0  0  0  0
    0.3499    6.6822   -0.0736 C   0  0  0  0  0  0  0  0  0  0  0  0
    0.8278    7.8213   -0.7558 C   0  0  0  0  0  0  0  0  0  0  0  0
    0.0464    8.9684   -0.8983 C   0  0  0  0  0  0  0  0  0  0  0  0
   -1.2433    8.9858   -0.3562 C   0  0  0  0  0  0  0  0  0  0  0  0
   -1.7334    7.8534    0.3269 C   0  0  0  0  0  0  0  0  0  0  0  0
   -0.9506    6.7152    0.4721 C   0  0  0  0  0  0  0  0  0  0  0  0
   -3.1634    8.0969    0.8232 C   0  0  1  0  0  0  0  0  0  0  0  0
   -4.1802    7.0772    0.2968 C   0  0  0  0  0  0  0  0  0  0  0  0
   -4.4939    6.7636   -1.0228 C   0  0  0  0  0  0  0  0  0  0  0  0
   -5.4669    5.7870   -1.2741 C   0  0  0  0  0  0  0  0  0  0  0  0
   -6.1138    5.1361   -0.2149 C   0  0  0  0  0  0  0  0  0  0  0  0
   -5.8003    5.4495    1.1117 C   0  0  0  0  0  0  0  0  0  0  0  0
   -4.8293    6.4244    1.3652 C   0  0  0  0  0  0  0  0  0  0  0  0
   -4.3003    6.9548    2.6312 C   0  0  0  0  0  0  0  0  0  0  0  0
   -4.6108    6.6430    3.9592 C   0  0  0  0  0  0  0  0  0  0  0  0
   -3.9403    7.3152    4.9863 C   0  0  0  0  0  0  0  0  0  0  0  0
   -2.9729    8.2855    4.6919 C   0  0  0  0  0  0  0  0  0  0  0  0
   -2.6601    8.5997    3.3626 C   0  0  0  0  0  0  0  0  0  0  0  0
   -3.3262    7.9320    2.3385 C   0  0  0  0  0  0  0  0  0  0  0  0
   -3.4124    9.5267    0.3287 C   0  0  0  0  0  0  0  0  0  0  0  0
   -4.5505   10.3079    0.4820 C   0  0  0  0  0  0  0  0  0  0  0  0
   -4.5796   11.6180   -0.0404 C   0  0  0  0  0  0  0  0  0  0  0  0
   -5.7872   12.4701    0.1171 C   0  0  0  0  0  0  0  0  0  0  0  0
   -5.6903   13.8654    0.2336 C   0  0  0  0  0  0  0  0  0  0  0  0
   -6.8551   14.6331    0.3787 C   0  0  0  0  0  0  0  0  0  0  0  0
   -6.7590   16.1189    0.5070 C   0  0  0  0  0  0  0  0  0  0  0  0
   -7.9137   16.9050    0.6647 C   0  0  0  0  0  0  0  0  0  0  0  0
   -7.7759   18.2869    0.7801 C   0  0  0  0  0  0  0  0  0  0  0  0
   -6.4963   18.8459    0.7358 C   0  0  0  0  0  0  0  0  0  0  0  0
   -5.4081   17.9815    0.5760 C   0  0  0  0  0  0  0  0  0  0  0  0
   -5.5318   16.6605    0.4646 N   0  0  0  0  0  0  0  0  0  0  0  0
   -8.0759   14.0852    0.4134 N   0  0  0  0  0  0  0  0  0  0  0  0
   -8.1892   12.7559    0.3052 C   0  0  0  0  0  0  0  0  0  0  0  0
   -9.5649   12.1732    0.3421 C   0  0  0  0  0  0  0  0  0  0  0  0
  -10.6941   12.9979    0.4868 C   0  0  0  0  0  0  0  0  0  0  0  0
  -11.9570   12.4094    0.5166 C   0  0  0  0  0  0  0  0  0  0  0  0
  -12.0599   11.0209    0.4013 C   0  0  0  0  0  0  0  0  0  0  0  0
  -10.8786   10.2848    0.2607 C   0  0  0  0  0  0  0  0  0  0  0  0
   -9.6689   10.8399    0.2318 N   0  0  0  0  0  0  0  0  0  0  0  0
   -7.0759   11.9155    0.1559 C   0  0  0  0  0  0  0  0  0  0  0  0
   -3.4400   12.1034   -0.7164 C   0  0  0  0  0  0  0  0  0  0  0  0
   -2.2973   11.3192   -0.8776 C   0  0  0  0  0  0  0  0  0  0  0  0
   -2.2806   10.0232   -0.3507 C   0  0  0  0  0  0  0  0  0  0  0  0
    2.1350    5.1133   -0.9165 C   0  0  0  0  0  0  0  0  0  0  0  0
    2.9196    3.9636   -0.7439 C   0  0  0  0  0  0  0  0  0  0  0  0
    3.9140    3.5743   -1.7894 C   0  0  0  0  0  0  0  0  0  0  0  0
    4.7024    2.4201   -1.6404 C   0  0  0  0  0  0  0  0  0  0  0  0
    5.6167    2.0963   -2.6411 C   0  0  0  0  0  0  0  0  0  0  0  0
    5.7197    2.9278   -3.7590 C   0  0  0  0  0  0  0  0  0  0  0  0
    4.8921    4.0541   -3.8172 C   0  0  0  0  0  0  0  0  0  0  0  0
    4.0169    4.3703   -2.8651 N   0  0  0  0  0  0  0  0  0  0  0  0
    2.8142    3.1784    0.3350 N   0  0  0  0  0  0  0  0  0  0  0  0
    0.9462    2.9439    3.4266 N   0  0  0  0  0  0  0  0  0  0  0  0
    0.8364    2.1725    4.5061 C   0  0  0  0  0  0  0  0  0  0  0  0
    1.4759    0.4226    5.6151 H   0  0  0  0  0  0  0  0  0  0  0  0
    3.1567   -0.2207    3.8428 H   0  0  0  0  0  0  0  0  0  0  0  0
    3.3615    1.2457    1.7982 H   0  0  0  0  0  0  0  0  0  0  0  0
    0.4239    4.8438    2.0141 H   0  0  0  0  0  0  0  0  0  0  0  0
    1.8409    7.8145   -1.1628 H   0  0  0  0  0  0  0  0  0  0  0  0
    0.4456    9.8397   -1.4235 H   0  0  0  0  0  0  0  0  0  0  0  0
   -1.3499    5.8393    0.9876 H   0  0  0  0  0  0  0  0  0  0  0  0
   -3.9912    7.2690   -1.8513 H   0  0  0  0  0  0  0  0  0  0  0  0
   -5.7231    5.5311   -2.3052 H   0  0  0  0  0  0  0  0  0  0  0  0
   -6.8704    4.3766   -0.4278 H   0  0  0  0  0  0  0  0  0  0  0  0
   -6.3075    4.9390    1.9343 H   0  0  0  0  0  0  0  0  0  0  0  0
   -5.3645    5.8870    4.1941 H   0  0  0  0  0  0  0  0  0  0  0  0
   -4.1728    7.0819    6.0285 H   0  0  0  0  0  0  0  0  0  0  0  0
   -2.4578    8.8019    5.5057 H   0  0  0  0  0  0  0  0  0  0  0  0
   -1.9053    9.3571    3.1365 H   0  0  0  0  0  0  0  0  0  0  0  0
   -5.4128    9.9165    1.0259 H   0  0  0  0  0  0  0  0  0  0  0  0
   -4.7321   14.3830    0.2364 H   0  0  0  0  0  0  0  0  0  0  0  0
   -8.8869   16.4165    0.6933 H   0  0  0  0  0  0  0  0  0  0  0  0
   -8.6574   18.9217    0.9038 H   0  0  0  0  0  0  0  0  0  0  0  0
   -6.3399   19.9234    0.8225 H   0  0  0  0  0  0  0  0  0  0  0  0
   -4.3875   18.3812    0.5366 H   0  0  0  0  0  0  0  0  0  0  0  0
  -10.5560   14.0751    0.5719 H   0  0  0  0  0  0  0  0  0  0  0  0
  -12.8520   13.0273    0.6283 H   0  0  0  0  0  0  0  0  0  0  0  0
  -13.0285   10.5163    0.4192 H   0  0  0  0  0  0  0  0  0  0  0  0
  -10.9167    9.1927    0.1670 H   0  0  0  0  0  0  0  0  0  0  0  0
   -7.2512   10.8455    0.0530 H   0  0  0  0  0  0  0  0  0  0  0  0
   -3.4596   13.1080   -1.1436 H   0  0  0  0  0  0  0  0  0  0  0  0
   -1.4327   11.7174   -1.4144 H   0  0  0  0  0  0  0  0  0  0  0  0
    2.2638    5.6887   -1.8322 H   0  0  0  0  0  0  0  0  0  0  0  0
    4.5803    1.8070   -0.7482 H   0  0  0  0  0  0  0  0  0  0  0  0
    6.2423    1.2043   -2.5504 H   0  0  0  0  0  0  0  0  0  0  0  0
    6.4217    2.7135   -4.5679 H   0  0  0  0  0  0  0  0  0  0  0  0
    4.9428    4.7317   -4.6782 H   0  0  0  0  0  0  0  0  0  0  0  0
    0.0968    2.4826    5.2542 H   0  0  0  0  0  0  0  0  0  0  0  0
  1  2  2  0
  1 61  1  0
  1 62  1  0
  2  3  1  0
  2 63  1  0
  3  4  2  0
  3 64  1  0
  4  5  1  0
  4 60  1  0
  5  6  2  0
  5 59  1  0
  6  7  1  0
  6 65  1  0
  7  8  1  0
  7 51  2  0
  8  9  2  0
  8 13  1  0
  9 10  1  0
  9 66  1  0
 10 11  2  0
 10 67  1  0
 11 12  1  0
 11 50  1  0
 12 13  2  0
 14 12  1  6
 13 68  1  0
 14 15  1  0
 14 26  1  0
 14 27  1  0
 15 16  2  0
 15 20  1  0
 16 17  1  0
 16 69  1  0
 17 18  2  0
 17 70  1  0
 18 19  1  0
 18 71  1  0
 19 20  2  0
 19 72  1  0
 20 21  1  0
 21 22  2  0
 21 26  1  0
 22 23  1  0
 22 73  1  0
 23 24  2  0
 23 74  1  0
 24 25  1  0
 24 75  1  0
 25 26  2  0
 25 76  1  0
 27 28  1  0
 27 50  2  0
 28 29  2  0
 28 77  1  0
 29 30  1  0
 29 48  1  0
 30 31  2  0
 30 47  1  0
 31 32  1  0
 31 78  1  0
 32 33  1  0
 32 39  2  0
 33 34  2  0
 33 38  1  0
 34 35  1  0
 34 79  1  0
 35 36  2  0
 35 80  1  0
 36 37  1  0
 36 81  1  0
 37 38  2  0
 37 82  1  0
 39 40  1  0
 40 41  1  0
 40 47  2  0
 41 42  2  0
 41 46  1  0
 42 43  1  0
 42 83  1  0
 43 44  2  0
 43 84  1  0
 44 45  1  0
 44 85  1  0
 45 46  2  0
 45 86  1  0
 47 87  1  0
 48 49  2  0
 48 88  1  0
 49 50  1  0
 49 89  1  0
 51 52  1  0
 51 90  1  0
 52 53  1  0
 52 59  2  0
 53 54  2  0
 53 58  1  0
 54 55  1  0
 54 91  1  0
 55 56  2  0
 55 92  1  0
 56 57  1  0
 56 93  1  0
 57 58  2  0
 57 94  1  0
 60 61  2  0
 61 95  1  0
M  END

