
     RDKit          3D

 64 65  0  0  0  0  0  0  0  0999 V2000
    6.9135    1.2273    1.7361 C   0  0  0  0  0  0  0  0  0  0  0  0
    5.5524    0.5303    1.8899 C   0  0  0  0  0  0  0  0  0  0  0  0
    4.5598    0.9160    0.8134 C   0  0  0  0  0  0  0  0  0  0  0  0
    3.8145    2.1118    0.9695 C   0  0  0  0  0  0  0  0  0  0  0  0
    4.0632    2.8133    2.1091 O   0  0  0  0  0  0  0  0  0  0  0  0
    3.3569    4.0047    2.3661 C   0  0  0  0  0  0  0  0  0  0  0  0
    2.8868    2.5226    0.0028 C   0  0  0  0  0  0  0  0  0  0  0  0
    2.6892    1.7487   -1.1441 C   0  0  0  0  0  0  0  0  0  0  0  0
    3.4016    0.5677   -1.3217 C   0  0  0  0  0  0  0  0  0  0  0  0
    4.3342    0.1541   -0.3492 C   0  0  0  0  0  0  0  0  0  0  0  0
    5.1261   -1.1001   -0.6150 C   0  0  0  0  0  0  0  0  0  0  0  0
    6.3311   -1.1902   -0.4595 O   0  0  0  0  0  0  0  0  0  0  0  0
    4.3492   -2.1590   -1.0472 N   0  0  0  0  0  0  0  0  0  0  0  0
    4.9621   -3.2547   -1.6356 N   0  0  0  0  0  0  0  0  0  0  0  0
    5.0139   -3.1448   -3.0451 C   0  0  0  0  0  0  0  0  0  0  0  0
    4.2600   -2.3975   -3.6500 O   0  0  0  0  0  0  0  0  0  0  0  0
    6.1277   -3.8417   -3.7568 C   0  0  0  0  0  0  0  0  0  0  0  0
    5.8981   -4.3917   -5.0272 C   0  0  0  0  0  0  0  0  0  0  0  0
    6.9478   -4.9594   -5.7557 C   0  0  0  0  0  0  0  0  0  0  0  0
    6.7076   -5.6065   -7.0985 C   0  0  0  0  0  0  0  0  0  0  0  0
    8.2393   -4.9231   -5.1998 C   0  0  0  0  0  0  0  0  0  0  0  0
    8.5011   -4.3415   -3.9521 C   0  0  0  0  0  0  0  0  0  0  0  0
    9.9075   -4.2550   -3.4094 C   0  0  0  0  0  0  0  0  0  0  0  0
    7.4240   -3.8085   -3.2271 C   0  0  0  0  0  0  0  0  0  0  0  0
    4.7417   -4.5290   -0.8801 C   0  0  1  0  0  0  0  0  0  0  0  0
    5.5116   -5.7304   -1.4578 C   0  0  0  0  0  0  0  0  0  0  0  0
    5.1827   -4.3225    0.5812 C   0  0  0  0  0  0  0  0  0  0  0  0
    3.2510   -4.8716   -0.9311 C   0  0  0  0  0  0  0  0  0  0  0  0
    2.4866   -4.2530   -1.7415 N   0  0  0  0  0  0  0  0  0  0  0  0
    1.1847   -4.5141   -1.8694 N   0  0  0  0  0  0  0  0  0  0  0  0
    0.3884   -3.8016   -2.7845 C   0  0  0  0  0  0  0  0  0  0  0  0
    1.0550   -2.8528   -3.4953 N   0  0  0  0  0  0  0  0  0  0  0  0
   -0.7988   -4.0532   -2.8731 O   0  0  0  0  0  0  0  0  0  0  0  0
    7.5881    0.9436    2.5605 H   0  0  0  0  0  0  0  0  0  0  0  0
    6.8023    2.3226    1.7524 H   0  0  0  0  0  0  0  0  0  0  0  0
    7.3854    0.9301    0.7886 H   0  0  0  0  0  0  0  0  0  0  0  0
    5.1195    0.7931    2.8674 H   0  0  0  0  0  0  0  0  0  0  0  0
    5.7096   -0.5569    1.8792 H   0  0  0  0  0  0  0  0  0  0  0  0
    3.7168    4.3785    3.3342 H   0  0  0  0  0  0  0  0  0  0  0  0
    2.2674    3.8323    2.4324 H   0  0  0  0  0  0  0  0  0  0  0  0
    3.5481    4.7722    1.5944 H   0  0  0  0  0  0  0  0  0  0  0  0
    2.3201    3.4446    0.1319 H   0  0  0  0  0  0  0  0  0  0  0  0
    1.9762    2.0797   -1.9030 H   0  0  0  0  0  0  0  0  0  0  0  0
    3.2704   -0.0221   -2.2316 H   0  0  0  0  0  0  0  0  0  0  0  0
    3.3685   -2.0141   -1.2730 H   0  0  0  0  0  0  0  0  0  0  0  0
    4.8862   -4.3712   -5.4388 H   0  0  0  0  0  0  0  0  0  0  0  0
    5.7535   -5.2811   -7.5388 H   0  0  0  0  0  0  0  0  0  0  0  0
    6.6722   -6.7064   -7.0092 H   0  0  0  0  0  0  0  0  0  0  0  0
    7.5124   -5.3671   -7.8114 H   0  0  0  0  0  0  0  0  0  0  0  0
    9.0710   -5.3521   -5.7681 H   0  0  0  0  0  0  0  0  0  0  0  0
   10.5815   -4.9643   -3.9125 H   0  0  0  0  0  0  0  0  0  0  0  0
    9.9370   -4.4608   -2.3280 H   0  0  0  0  0  0  0  0  0  0  0  0
   10.3236   -3.2429   -3.5540 H   0  0  0  0  0  0  0  0  0  0  0  0
    7.5871   -3.3260   -2.2600 H   0  0  0  0  0  0  0  0  0  0  0  0
    6.5975   -5.5799   -1.3961 H   0  0  0  0  0  0  0  0  0  0  0  0
    5.2452   -5.9413   -2.5012 H   0  0  0  0  0  0  0  0  0  0  0  0
    5.2548   -6.6188   -0.8603 H   0  0  0  0  0  0  0  0  0  0  0  0
    6.2438   -4.0377    0.6162 H   0  0  0  0  0  0  0  0  0  0  0  0
    5.0459   -5.2552    1.1498 H   0  0  0  0  0  0  0  0  0  0  0  0
    4.5972   -3.5328    1.0702 H   0  0  0  0  0  0  0  0  0  0  0  0
    2.8890   -5.6787   -0.2671 H   0  0  0  0  0  0  0  0  0  0  0  0
    0.7058   -5.2366   -1.3295 H   0  0  0  0  0  0  0  0  0  0  0  0
    2.0698   -2.7687   -3.4821 H   0  0  0  0  0  0  0  0  0  0  0  0
    0.5226   -2.3785   -4.2120 H   0  0  0  0  0  0  0  0  0  0  0  0
  1  2  1  0
  1 34  1  0
  1 35  1  0
  1 36  1  0
  2  3  1  0
  2 37  1  0
  2 38  1  0
  3  4  2  0
  3 10  1  0
  4  5  1  0
  4  7  1  0
  5  6  1  0
  6 39  1  0
  6 40  1  0
  6 41  1  0
  7  8  2  0
  7 42  1  0
  8  9  1  0
  8 43  1  0
  9 10  2  0
  9 44  1  0
 10 11  1  0
 11 12  2  0
 11 13  1  0
 13 14  1  0
 13 45  1  0
 14 15  1  0
 14 25  1  0
 15 16  2  0
 15 17  1  0
 17 18  2  0
 17 24  1  0
 18 19  1  0
 18 46  1  0
 19 20  1  0
 19 21  2  0
 20 47  1  0
 20 48  1  0
 20 49  1  0
 21 22  1  0
 21 50  1  0
 22 23  1  0
 22 24  2  0
 23 51  1  0
 23 52  1  0
 23 53  1  0
 24 54  1  0
 25 26  1  0
 25 27  1  0
 25 28  1  1
 26 55  1  0
 26 56  1  0
 26 57  1  0
 27 58  1  0
 27 59  1  0
 27 60  1  0
 28 29  2  0
 28 61  1  0
 29 30  1  0
 30 31  1  0
 30 62  1  0
 31 32  1  0
 31 33  2  0
 32 63  1  0
 32 64  1  0
M  END

