
     RDKit          3D

 34 36  0  0  0  0  0  0  0  0999 V2000
    6.7276   -0.4824    3.1459 N   0  0  0  0  0  0  0  0  0  0  0  0
    7.1812   -1.8147    3.5405 C   0  0  0  0  0  0  0  0  0  0  0  0
    6.3925   -2.8754    2.8459 C   0  0  0  0  0  0  0  0  0  0  0  0
    6.7214   -3.8958    1.9848 C   0  0  0  0  0  0  0  0  0  0  0  0
    5.5026   -4.5640    1.6743 C   0  0  0  0  0  0  0  0  0  0  0  0
    4.5090   -3.9045    2.3670 C   0  0  0  0  0  0  0  0  0  0  0  0
    3.0574   -4.0938    2.4735 C   0  0  0  0  0  0  0  0  0  0  0  0
    2.3614   -3.3856    3.1764 O   0  0  0  0  0  0  0  0  0  0  0  0
    2.4526   -5.2568    1.6758 C   0  0  0  0  0  0  0  0  0  0  0  0
    2.4792   -6.5525    2.4592 C   0  0  0  0  0  0  0  0  0  0  0  0
    1.7034   -6.7243    3.6208 C   0  0  0  0  0  0  0  0  0  0  0  0
    1.7358   -7.9224    4.3376 C   0  0  0  0  0  0  0  0  0  0  0  0
    0.6631   -8.1028    5.9088 Br  0  0  0  0  0  0  0  0  0  0  0  0
    2.5352   -9.0012    3.9301 C   0  0  0  0  0  0  0  0  0  0  0  0
    3.3139   -8.8365    2.7903 C   0  0  0  0  0  0  0  0  0  0  0  0
    3.2849   -7.6299    2.0813 C   0  0  0  0  0  0  0  0  0  0  0  0
    4.1056   -7.6331    0.9906 O   0  0  0  0  0  0  0  0  0  0  0  0
    4.9148   -8.8287    1.0480 C   0  0  0  0  0  0  0  0  0  0  0  0
    4.2254   -9.7866    2.0460 C   0  0  0  0  0  0  0  0  0  0  0  0
    5.0633   -2.8801    3.0808 O   0  0  0  0  0  0  0  0  0  0  0  0
    7.2266    0.2261    3.6839 H   0  0  0  0  0  0  0  0  0  0  0  0
    5.7400   -0.3772    3.3835 H   0  0  0  0  0  0  0  0  0  0  0  0
    7.1262   -2.0121    4.6348 H   0  0  0  0  0  0  0  0  0  0  0  0
    8.2369   -1.9418    3.2529 H   0  0  0  0  0  0  0  0  0  0  0  0
    7.7185   -4.1286    1.6173 H   0  0  0  0  0  0  0  0  0  0  0  0
    5.3635   -5.4344    1.0365 H   0  0  0  0  0  0  0  0  0  0  0  0
    2.9712   -5.3933    0.7177 H   0  0  0  0  0  0  0  0  0  0  0  0
    1.4117   -4.9672    1.4695 H   0  0  0  0  0  0  0  0  0  0  0  0
    1.0775   -5.8982    3.9636 H   0  0  0  0  0  0  0  0  0  0  0  0
    2.5382   -9.9351    4.4948 H   0  0  0  0  0  0  0  0  0  0  0  0
    5.9224   -8.5425    1.3970 H   0  0  0  0  0  0  0  0  0  0  0  0
    4.9981   -9.2301    0.0283 H   0  0  0  0  0  0  0  0  0  0  0  0
    4.9521  -10.2985    2.6951 H   0  0  0  0  0  0  0  0  0  0  0  0
    3.6402  -10.5666    1.5283 H   0  0  0  0  0  0  0  0  0  0  0  0
  1  2  1  0
  1 21  1  0
  1 22  1  0
  2  3  1  0
  2 23  1  0
  2 24  1  0
  3  4  2  0
  3 20  1  0
  4  5  1  0
  4 25  1  0
  5  6  2  0
  5 26  1  0
  6  7  1  0
  6 20  1  0
  7  8  2  0
  7  9  1  0
  9 10  1  0
  9 27  1  0
  9 28  1  0
 10 11  2  0
 10 16  1  0
 11 12  1  0
 11 29  1  0
 12 13  1  0
 12 14  2  0
 14 15  1  0
 14 30  1  0
 15 16  2  0
 15 19  1  0
 16 17  1  0
 17 18  1  0
 18 19  1  0
 18 31  1  0
 18 32  1  0
 19 33  1  0
 19 34  1  0
M  END

