
     RDKit          3D

 21 22  0  0  0  0  0  0  0  0999 V2000
    2.8298    1.1097    0.4761 C   0  0  0  0  0  0  0  0  0  0  0  0
    2.6377   -0.1975    0.2418 C   0  0  0  0  0  0  0  0  0  0  0  0
    3.1700   -0.9801   -0.8825 C   0  0  0  0  0  0  0  0  0  0  0  0
    3.9832   -0.4983   -1.8683 C   0  0  0  0  0  0  0  0  0  0  0  0
    4.4611   -1.3310   -2.9377 C   0  0  0  0  0  0  0  0  0  0  0  0
    5.3012   -0.8792   -3.9784 C   0  0  0  0  0  0  0  0  0  0  0  0
    5.7202   -1.7489   -4.9779 C   0  0  0  0  0  0  0  0  0  0  0  0
    5.3063   -3.0923   -4.9564 C   0  0  0  0  0  0  0  0  0  0  0  0
    4.4776   -3.5650   -3.9410 C   0  0  0  0  0  0  0  0  0  0  0  0
    4.0599   -2.6838   -2.9386 C   0  0  0  0  0  0  0  0  0  0  0  0
    3.2535   -3.1672   -1.9598 O   0  0  0  0  0  0  0  0  0  0  0  0
    2.7680   -2.4068   -0.9099 C   0  0  0  0  0  0  0  0  0  0  0  0
    2.0621   -2.9507   -0.1022 O   0  0  0  0  0  0  0  0  0  0  0  0
    2.3834    1.5894    1.3503 H   0  0  0  0  0  0  0  0  0  0  0  0
    3.4276    1.7515   -0.1785 H   0  0  0  0  0  0  0  0  0  0  0  0
    2.0249   -0.7815    0.9335 H   0  0  0  0  0  0  0  0  0  0  0  0
    4.2912    0.5511   -1.8596 H   0  0  0  0  0  0  0  0  0  0  0  0
    5.6165    0.1676   -3.9848 H   0  0  0  0  0  0  0  0  0  0  0  0
    6.3700   -1.3904   -5.7792 H   0  0  0  0  0  0  0  0  0  0  0  0
    5.6361   -3.7759   -5.7424 H   0  0  0  0  0  0  0  0  0  0  0  0
    4.1436   -4.6033   -3.9032 H   0  0  0  0  0  0  0  0  0  0  0  0
  1  2  2  0
  1 14  1  0
  1 15  1  0
  2  3  1  0
  2 16  1  0
  3  4  2  0
  3 12  1  0
  4  5  1  0
  4 17  1  0
  5  6  2  0
  5 10  1  0
  6  7  1  0
  6 18  1  0
  7  8  2  0
  7 19  1  0
  8  9  1  0
  8 20  1  0
  9 10  2  0
  9 21  1  0
 10 11  1  0
 11 12  1  0
 12 13  2  0
M  END

