
     RDKit          3D

 35 36  0  0  0  0  0  0  0  0999 V2000
    6.2043   -4.0849    4.6643 C   0  0  0  0  0  0  0  0  0  0  0  0
    5.8712   -3.5639    3.3819 O   0  0  0  0  0  0  0  0  0  0  0  0
    6.3302   -2.3306    3.1050 C   0  0  0  0  0  0  0  0  0  0  0  0
    6.9386   -1.6432    3.8901 O   0  0  0  0  0  0  0  0  0  0  0  0
    5.9821   -1.9300    1.7272 C   0  0  0  0  0  0  0  0  0  0  0  0
    6.1985   -0.6182    1.4484 O   0  0  0  0  0  0  0  0  0  0  0  0
    5.8085   -0.4040    0.1766 C   0  0  0  0  0  0  0  0  0  0  0  0
    5.3359   -1.5599   -0.3780 C   0  0  0  0  0  0  0  0  0  0  0  0
    5.4497   -2.5823    0.6284 C   0  0  0  0  0  0  0  0  0  0  0  0
    5.0568   -4.0697    0.3746 B   0  0  0  0  0  0  0  0  0  0  0  0
    5.6222   -5.1775    0.9391 O   0  0  0  0  0  0  0  0  0  0  0  0
    5.1652   -6.3417    0.2058 C   0  0  2  0  0  0  0  0  0  0  0  0
    4.9488   -7.4853    1.1936 C   0  0  0  0  0  0  0  0  0  0  0  0
    6.2789   -6.7069   -0.7830 C   0  0  0  0  0  0  0  0  0  0  0  0
    3.8510   -5.8031   -0.4977 C   0  0  2  0  0  0  0  0  0  0  0  0
    2.5869   -5.9883    0.3503 C   0  0  0  0  0  0  0  0  0  0  0  0
    3.6124   -6.3237   -1.9127 C   0  0  0  0  0  0  0  0  0  0  0  0
    4.1056   -4.3777   -0.5643 O   0  0  0  0  0  0  0  0  0  0  0  0
    5.7967   -5.1028    4.6946 H   0  0  0  0  0  0  0  0  0  0  0  0
    5.7624   -3.4719    5.4652 H   0  0  0  0  0  0  0  0  0  0  0  0
    7.2954   -4.1071    4.8089 H   0  0  0  0  0  0  0  0  0  0  0  0
    5.9211    0.6120   -0.1941 H   0  0  0  0  0  0  0  0  0  0  0  0
    4.9521   -1.6907   -1.3874 H   0  0  0  0  0  0  0  0  0  0  0  0
    5.9120   -7.7709    1.6425 H   0  0  0  0  0  0  0  0  0  0  0  0
    4.5343   -8.3705    0.6860 H   0  0  0  0  0  0  0  0  0  0  0  0
    4.2709   -7.1976    2.0076 H   0  0  0  0  0  0  0  0  0  0  0  0
    7.2126   -6.8648   -0.2232 H   0  0  0  0  0  0  0  0  0  0  0  0
    6.4544   -5.8989   -1.5085 H   0  0  0  0  0  0  0  0  0  0  0  0
    6.0472   -7.6289   -1.3372 H   0  0  0  0  0  0  0  0  0  0  0  0
    2.2788   -7.0435    0.3986 H   0  0  0  0  0  0  0  0  0  0  0  0
    1.7681   -5.4092   -0.1018 H   0  0  0  0  0  0  0  0  0  0  0  0
    2.7333   -5.6198    1.3763 H   0  0  0  0  0  0  0  0  0  0  0  0
    3.4868   -7.4179   -1.9132 H   0  0  0  0  0  0  0  0  0  0  0  0
    4.4388   -6.0651   -2.5875 H   0  0  0  0  0  0  0  0  0  0  0  0
    2.6933   -5.8761   -2.3200 H   0  0  0  0  0  0  0  0  0  0  0  0
  1  2  1  0
  1 19  1  0
  1 20  1  0
  1 21  1  0
  2  3  1  0
  3  4  2  0
  3  5  1  0
  5  6  1  0
  5  9  2  0
  6  7  1  0
  7  8  2  0
  7 22  1  0
  8  9  1  0
  8 23  1  0
  9 10  1  0
 10 11  1  0
 10 18  1  0
 11 12  1  0
 12 13  1  1
 12 14  1  0
 12 15  1  0
 13 24  1  0
 13 25  1  0
 13 26  1  0
 14 27  1  0
 14 28  1  0
 14 29  1  0
 15 16  1  1
 15 17  1  0
 15 18  1  0
 16 30  1  0
 16 31  1  0
 16 32  1  0
 17 33  1  0
 17 34  1  0
 17 35  1  0
M  END

