
     RDKit          3D

 60 63  0  0  0  0  0  0  0  0999 V2000
    5.4676    1.6208    1.3228 C   0  0  0  0  0  0  0  0  0  0  0  0
    4.0840    1.4564    1.5455 O   0  0  0  0  0  0  0  0  0  0  0  0
    3.6161    0.2355    1.9091 C   0  0  0  0  0  0  0  0  0  0  0  0
    2.2356    0.1309    2.1341 C   0  0  0  0  0  0  0  0  0  0  0  0
    1.6592   -1.0806    2.5108 C   0  0  0  0  0  0  0  0  0  0  0  0
    2.4479   -2.2311    2.6790 C   0  0  0  0  0  0  0  0  0  0  0  0
    1.9631   -3.4462    3.0297 O   0  0  0  0  0  0  0  0  0  0  0  0
    0.5934   -3.5852    3.3406 C   0  0  0  0  0  0  0  0  0  0  0  0
    3.8323   -2.1179    2.4497 C   0  0  0  0  0  0  0  0  0  0  0  0
    4.9366   -3.5168    2.7087 S   0  0  1  0  0  0  0  0  0  0  0  0
    6.2614   -3.0759    2.2497 O   0  0  0  0  0  0  0  0  0  0  0  0
    4.7472   -4.0151    4.0719 O   0  0  0  0  0  0  0  0  0  0  0  0
    4.3980   -4.7049    1.6558 N   0  0  0  0  0  0  0  0  0  0  0  0
    5.0083   -4.8326    0.3310 C   0  0  0  0  0  0  0  0  0  0  0  0
    5.9750   -6.0180    0.2802 C   0  0  0  0  0  0  0  0  0  0  0  0
    5.3030   -7.2294    0.7477 N   0  0  0  0  0  0  0  0  0  0  0  0
    5.5616   -8.4171    0.0904 C   0  0  0  0  0  0  0  0  0  0  0  0
    6.3809   -8.4863   -0.8152 O   0  0  0  0  0  0  0  0  0  0  0  0
    4.7740   -9.6398    0.4804 C   0  0  0  0  0  0  0  0  0  0  0  0
    3.3827   -9.6313    0.6750 C   0  0  0  0  0  0  0  0  0  0  0  0
    2.6867  -10.8141    0.9186 C   0  0  0  0  0  0  0  0  0  0  0  0
    3.3788  -12.0306    0.9846 C   0  0  0  0  0  0  0  0  0  0  0  0
    2.6391  -13.1386    1.2969 O   0  0  0  0  0  0  0  0  0  0  0  0
    3.0105  -14.4047    0.9005 C   0  0  0  0  0  0  0  0  0  0  0  0
    2.9512  -15.4216    1.8587 C   0  0  0  0  0  0  0  0  0  0  0  0
    3.2405  -16.7371    1.4872 C   0  0  0  0  0  0  0  0  0  0  0  0
    3.5943  -17.0379    0.1683 C   0  0  0  0  0  0  0  0  0  0  0  0
    3.6494  -16.0134   -0.7828 C   0  0  0  0  0  0  0  0  0  0  0  0
    3.3542  -14.6952   -0.4260 C   0  0  0  0  0  0  0  0  0  0  0  0
    4.7673  -12.0588    0.7872 C   0  0  0  0  0  0  0  0  0  0  0  0
    5.4462  -10.8712    0.5194 C   0  0  0  0  0  0  0  0  0  0  0  0
    4.7570   -7.1002    2.0980 C   0  0  0  0  0  0  0  0  0  0  0  0
    3.7807   -5.9231    2.1738 C   0  0  0  0  0  0  0  0  0  0  0  0
    4.4150   -0.9040    2.0722 C   0  0  0  0  0  0  0  0  0  0  0  0
    5.6172    2.6737    1.0490 H   0  0  0  0  0  0  0  0  0  0  0  0
    5.8304    0.9814    0.4978 H   0  0  0  0  0  0  0  0  0  0  0  0
    6.0592    1.3984    2.2291 H   0  0  0  0  0  0  0  0  0  0  0  0
    1.6195    1.0232    2.0065 H   0  0  0  0  0  0  0  0  0  0  0  0
    0.5824   -1.1222    2.6742 H   0  0  0  0  0  0  0  0  0  0  0  0
    0.4458   -4.6336    3.6308 H   0  0  0  0  0  0  0  0  0  0  0  0
   -0.0501   -3.3600    2.4713 H   0  0  0  0  0  0  0  0  0  0  0  0
    0.2989   -2.9359    4.1837 H   0  0  0  0  0  0  0  0  0  0  0  0
    5.5408   -3.9050    0.0866 H   0  0  0  0  0  0  0  0  0  0  0  0
    4.2016   -4.9755   -0.4106 H   0  0  0  0  0  0  0  0  0  0  0  0
    6.8487   -5.7938    0.9209 H   0  0  0  0  0  0  0  0  0  0  0  0
    6.3389   -6.1993   -0.7387 H   0  0  0  0  0  0  0  0  0  0  0  0
    2.8275   -8.6932    0.6026 H   0  0  0  0  0  0  0  0  0  0  0  0
    1.6038  -10.8194    1.0562 H   0  0  0  0  0  0  0  0  0  0  0  0
    2.6726  -15.1644    2.8825 H   0  0  0  0  0  0  0  0  0  0  0  0
    3.1920  -17.5310    2.2368 H   0  0  0  0  0  0  0  0  0  0  0  0
    3.8235  -18.0667   -0.1189 H   0  0  0  0  0  0  0  0  0  0  0  0
    3.9169  -16.2408   -1.8179 H   0  0  0  0  0  0  0  0  0  0  0  0
    3.3847  -13.8957   -1.1688 H   0  0  0  0  0  0  0  0  0  0  0  0
    5.3099  -13.0039    0.8378 H   0  0  0  0  0  0  0  0  0  0  0  0
    6.5222  -10.8877    0.3342 H   0  0  0  0  0  0  0  0  0  0  0  0
    5.5836   -6.9107    2.8103 H   0  0  0  0  0  0  0  0  0  0  0  0
    4.2646   -8.0305    2.4028 H   0  0  0  0  0  0  0  0  0  0  0  0
    3.4700   -5.7495    3.2104 H   0  0  0  0  0  0  0  0  0  0  0  0
    2.8792   -6.1389    1.5716 H   0  0  0  0  0  0  0  0  0  0  0  0
    5.4928   -0.8871    1.9188 H   0  0  0  0  0  0  0  0  0  0  0  0
  1  2  1  0
  1 35  1  0
  1 36  1  0
  1 37  1  0
  2  3  1  0
  3  4  2  0
  3 34  1  0
  4  5  1  0
  4 38  1  0
  5  6  2  0
  5 39  1  0
  6  7  1  0
  6  9  1  0
  7  8  1  0
  8 40  1  0
  8 41  1  0
  8 42  1  0
 10  9  1  1
  9 34  2  0
 10 11  2  0
 10 12  2  0
 10 13  1  0
 13 14  1  0
 13 33  1  0
 14 15  1  0
 14 43  1  0
 14 44  1  0
 15 16  1  0
 15 45  1  0
 15 46  1  0
 16 17  1  0
 16 32  1  0
 17 18  2  0
 17 19  1  0
 19 20  2  0
 19 31  1  0
 20 21  1  0
 20 47  1  0
 21 22  2  0
 21 48  1  0
 22 23  1  0
 22 30  1  0
 23 24  1  0
 24 25  2  0
 24 29  1  0
 25 26  1  0
 25 49  1  0
 26 27  2  0
 26 50  1  0
 27 28  1  0
 27 51  1  0
 28 29  2  0
 28 52  1  0
 29 53  1  0
 30 31  2  0
 30 54  1  0
 31 55  1  0
 32 33  1  0
 32 56  1  0
 32 57  1  0
 33 58  1  0
 33 59  1  0
 34 60  1  0
M  END

