
     RDKit          3D

 48 51  0  0  0  0  0  0  0  0999 V2000
    2.2085   -1.3553    0.3363 C   0  0  0  0  0  0  0  0  0  0  0  0
    2.4278    0.0161   -0.0778 N   0  0  0  0  0  0  0  0  0  0  0  0
    2.8489    0.1115   -1.4716 C   0  0  0  0  0  0  0  0  0  0  0  0
    3.0947    0.8751    0.8321 C   0  0  0  0  0  0  0  0  0  0  0  0
    3.9736    0.3930    1.7895 C   0  0  0  0  0  0  0  0  0  0  0  0
    4.6561    1.2492    2.7038 C   0  0  0  0  0  0  0  0  0  0  0  0
    5.5918    0.6784    3.7071 C   0  0  0  0  0  0  0  0  0  0  0  0
    6.3846   -0.4495    3.4142 C   0  0  0  0  0  0  0  0  0  0  0  0
    7.2670   -0.9801    4.3502 C   0  0  0  0  0  0  0  0  0  0  0  0
    7.3936   -0.4035    5.6325 C   0  0  0  0  0  0  0  0  0  0  0  0
    8.2947   -0.9455    6.5966 C   0  0  0  0  0  0  0  0  0  0  0  0
    9.0658   -1.4090    7.4213 C   0  0  0  0  0  0  0  0  0  0  0  0
    9.9681   -1.9511    8.3863 C   0  0  0  0  0  0  0  0  0  0  0  0
   10.7593   -3.0802    8.0792 C   0  0  0  0  0  0  0  0  0  0  0  0
   11.6389   -3.6059    9.0246 C   0  0  0  0  0  0  0  0  0  0  0  0
   11.7485   -3.0206   10.2908 C   0  0  0  0  0  0  0  0  0  0  0  0
   10.9700   -1.9017   10.6070 C   0  0  0  0  0  0  0  0  0  0  0  0
   10.0878   -1.3691    9.6679 C   0  0  0  0  0  0  0  0  0  0  0  0
    6.5997    0.7251    5.9323 C   0  0  0  0  0  0  0  0  0  0  0  0
    5.7217    1.2493    4.9892 C   0  0  0  0  0  0  0  0  0  0  0  0
    4.4458    2.6157    2.6140 C   0  0  0  0  0  0  0  0  0  0  0  0
    3.5349    3.1613    1.6701 C   0  0  0  0  0  0  0  0  0  0  0  0
    3.2899    4.5629    1.6023 C   0  0  0  0  0  0  0  0  0  0  0  0
    2.3535    5.0816    0.7333 C   0  0  0  0  0  0  0  0  0  0  0  0
    1.6025    4.2143   -0.0969 C   0  0  0  0  0  0  0  0  0  0  0  0
    1.8290    2.8521   -0.0683 C   0  0  0  0  0  0  0  0  0  0  0  0
    2.8181    2.2902    0.7842 C   0  0  0  0  0  0  0  0  0  0  0  0
    1.4628   -1.8183   -0.3304 H   0  0  0  0  0  0  0  0  0  0  0  0
    1.8157   -1.3859    1.3628 H   0  0  0  0  0  0  0  0  0  0  0  0
    3.1212   -1.9898    0.2945 H   0  0  0  0  0  0  0  0  0  0  0  0
    2.0792   -0.3258   -2.1289 H   0  0  0  0  0  0  0  0  0  0  0  0
    3.8023   -0.4291   -1.6578 H   0  0  0  0  0  0  0  0  0  0  0  0
    2.9960    1.1582   -1.7663 H   0  0  0  0  0  0  0  0  0  0  0  0
    4.1538   -0.6798    1.8537 H   0  0  0  0  0  0  0  0  0  0  0  0
    6.3294   -0.9050    2.4232 H   0  0  0  0  0  0  0  0  0  0  0  0
    7.8780   -1.8482    4.0942 H   0  0  0  0  0  0  0  0  0  0  0  0
   10.6732   -3.5364    7.0908 H   0  0  0  0  0  0  0  0  0  0  0  0
   12.2445   -4.4801    8.7718 H   0  0  0  0  0  0  0  0  0  0  0  0
   12.4390   -3.4354   11.0294 H   0  0  0  0  0  0  0  0  0  0  0  0
   11.0513   -1.4402   11.5945 H   0  0  0  0  0  0  0  0  0  0  0  0
    9.4800   -0.4960    9.9138 H   0  0  0  0  0  0  0  0  0  0  0  0
    6.6739    1.1803    6.9221 H   0  0  0  0  0  0  0  0  0  0  0  0
    5.1016    2.1066    5.2597 H   0  0  0  0  0  0  0  0  0  0  0  0
    4.9905    3.3016    3.2667 H   0  0  0  0  0  0  0  0  0  0  0  0
    3.8530    5.2240    2.2671 H   0  0  0  0  0  0  0  0  0  0  0  0
    2.1742    6.1593    0.6982 H   0  0  0  0  0  0  0  0  0  0  0  0
    0.8314    4.6248   -0.7539 H   0  0  0  0  0  0  0  0  0  0  0  0
    1.2261    2.1822   -0.6822 H   0  0  0  0  0  0  0  0  0  0  0  0
  1  2  1  0
  1 28  1  0
  1 29  1  0
  1 30  1  0
  2  3  1  0
  2  4  1  0
  3 31  1  0
  3 32  1  0
  3 33  1  0
  4  5  2  0
  4 27  1  0
  5  6  1  0
  5 34  1  0
  6  7  1  0
  6 21  2  0
  7  8  2  0
  7 20  1  0
  8  9  1  0
  8 35  1  0
  9 10  2  0
  9 36  1  0
 10 11  1  0
 10 19  1  0
 11 12  3  0
 12 13  1  0
 13 14  2  0
 13 18  1  0
 14 15  1  0
 14 37  1  0
 15 16  2  0
 15 38  1  0
 16 17  1  0
 16 39  1  0
 17 18  2  0
 17 40  1  0
 18 41  1  0
 19 20  2  0
 19 42  1  0
 20 43  1  0
 21 22  1  0
 21 44  1  0
 22 23  1  0
 22 27  2  0
 23 24  2  0
 23 45  1  0
 24 25  1  0
 24 46  1  0
 25 26  2  0
 25 47  1  0
 26 27  1  0
 26 48  1  0
M  END

