
     RDKit          3D

 42 42  0  0  0  0  0  0  0  0999 V2000
    1.5304   -0.1416   -1.2187 C   0  0  0  0  0  0  0  0  0  0  0  0
    2.8763    0.1077   -0.5858 C   0  0  0  0  0  0  0  0  0  0  0  0
    3.3442    1.3340   -0.2371 C   0  0  0  0  0  0  0  0  0  0  0  0
    2.5178    2.5556   -0.4984 C   0  0  0  0  0  0  0  0  0  0  0  0
    1.1457    2.9495    0.9297 Br  0  0  0  0  0  0  0  0  0  0  0  0
    4.7083    1.5415    0.4605 C   0  0  2  0  0  0  0  0  0  0  0  0
    4.4963    1.7431    1.9814 C   0  0  0  0  0  0  0  0  0  0  0  0
    5.4504    2.7875   -0.0737 C   0  0  0  0  0  0  0  0  0  0  0  0
    5.6266    0.2873    0.2388 C   0  0  2  0  0  0  0  0  0  0  0  0
    6.2178    0.2200   -1.1042 C   0  0  0  0  0  0  0  0  0  0  0  0
    6.7185    0.1226   -2.2144 C   0  0  0  0  0  0  0  0  0  0  0  0
    7.4917   -0.0101   -3.8873 Si  0  0  1  0  0  4  0  0  0  0  0  0
    7.2972    1.6436   -4.7804 C   0  0  0  0  0  0  0  0  0  0  0  0
    9.3225   -0.4270   -3.6796 C   0  0  0  0  0  0  0  0  0  0  0  0
    6.6184   -1.3780   -4.8554 C   0  0  0  0  0  0  0  0  0  0  0  0
    4.8670   -1.0153    0.5532 C   0  0  0  0  0  0  0  0  0  0  0  0
    3.6629   -1.1662   -0.3696 C   0  0  0  0  0  0  0  0  0  0  0  0
    1.0104    0.7602   -1.5625 H   0  0  0  0  0  0  0  0  0  0  0  0
    0.8631   -0.6417   -0.4944 H   0  0  0  0  0  0  0  0  0  0  0  0
    1.6324   -0.8300   -2.0754 H   0  0  0  0  0  0  0  0  0  0  0  0
    1.9143    2.4834   -1.4070 H   0  0  0  0  0  0  0  0  0  0  0  0
    3.1026    3.4766   -0.5375 H   0  0  0  0  0  0  0  0  0  0  0  0
    3.8582    2.6178    2.1728 H   0  0  0  0  0  0  0  0  0  0  0  0
    5.4629    1.9099    2.4860 H   0  0  0  0  0  0  0  0  0  0  0  0
    4.0046    0.8797    2.4516 H   0  0  0  0  0  0  0  0  0  0  0  0
    4.9723    3.7213    0.2582 H   0  0  0  0  0  0  0  0  0  0  0  0
    5.5116    2.7924   -1.1715 H   0  0  0  0  0  0  0  0  0  0  0  0
    6.4808    2.8020    0.3163 H   0  0  0  0  0  0  0  0  0  0  0  0
    6.4652    0.3840    0.9523 H   0  0  0  0  0  0  0  0  0  0  0  0
    7.7877    2.4565   -4.2208 H   0  0  0  0  0  0  0  0  0  0  0  0
    6.2339    1.9086   -4.8980 H   0  0  0  0  0  0  0  0  0  0  0  0
    7.7498    1.6020   -5.7854 H   0  0  0  0  0  0  0  0  0  0  0  0
    9.8442    0.3547   -3.1040 H   0  0  0  0  0  0  0  0  0  0  0  0
    9.8186   -0.5148   -4.6609 H   0  0  0  0  0  0  0  0  0  0  0  0
    9.4538   -1.3821   -3.1458 H   0  0  0  0  0  0  0  0  0  0  0  0
    5.5455   -1.1565   -4.9748 H   0  0  0  0  0  0  0  0  0  0  0  0
    6.7075   -2.3479   -4.3397 H   0  0  0  0  0  0  0  0  0  0  0  0
    7.0564   -1.4873   -5.8619 H   0  0  0  0  0  0  0  0  0  0  0  0
    4.5395   -0.9912    1.6038 H   0  0  0  0  0  0  0  0  0  0  0  0
    5.5417   -1.8793    0.4512 H   0  0  0  0  0  0  0  0  0  0  0  0
    2.9834   -1.9467    0.0163 H   0  0  0  0  0  0  0  0  0  0  0  0
    3.9900   -1.5314   -1.3616 H   0  0  0  0  0  0  0  0  0  0  0  0
  1  2  1  0
  1 18  1  0
  1 19  1  0
  1 20  1  0
  2  3  2  0
  2 17  1  0
  3  4  1  0
  3  6  1  0
  4  5  1  0
  4 21  1  0
  4 22  1  0
  6  7  1  1
  6  8  1  0
  6  9  1  0
  7 23  1  0
  7 24  1  0
  7 25  1  0
  8 26  1  0
  8 27  1  0
  8 28  1  0
  9 10  1  0
  9 16  1  0
  9 29  1  1
 10 11  3  0
 12 11  1  1
 12 13  1  0
 12 14  1  0
 12 15  1  0
 13 30  1  0
 13 31  1  0
 13 32  1  0
 14 33  1  0
 14 34  1  0
 14 35  1  0
 15 36  1  0
 15 37  1  0
 15 38  1  0
 16 17  1  0
 16 39  1  0
 16 40  1  0
 17 41  1  0
 17 42  1  0
M  END

