
     RDKit          3D

114113  0  0  0  0  0  0  0  0999 V2000
    1.0199   -1.6988    1.9273 C   0  0  0  0  0  0  0  0  0  0  0  0
    2.3440   -1.0130    2.2672 C   0  0  0  0  0  0  0  0  0  0  0  0
    2.8997   -0.1519    1.1286 C   0  0  0  0  0  0  0  0  0  0  0  0
    4.2256    0.5386    1.4608 C   0  0  0  0  0  0  0  0  0  0  0  0
    4.7805    1.4001    0.3224 C   0  0  0  0  0  0  0  0  0  0  0  0
    6.1067    2.0902    0.6550 C   0  0  0  0  0  0  0  0  0  0  0  0
    6.6609    2.9528   -0.4827 C   0  0  0  0  0  0  0  0  0  0  0  0
    7.9874    3.6425   -0.1503 C   0  0  0  0  0  0  0  0  0  0  0  0
    8.5405    4.5070   -1.2872 C   0  0  0  0  0  0  0  0  0  0  0  0
    9.8676    5.1957   -0.9551 C   0  0  0  0  0  0  0  0  0  0  0  0
   10.4193    6.0627   -2.0907 C   0  0  0  0  0  0  0  0  0  0  0  0
   11.7472    6.7500   -1.7590 C   0  0  0  0  0  0  0  0  0  0  0  0
   12.2970    7.6202   -2.8932 C   0  0  0  0  0  0  0  0  0  0  0  0
   13.6259    8.3057   -2.5620 C   0  0  0  0  0  0  0  0  0  0  0  0
   14.1735    9.1792   -3.6945 C   0  0  0  0  0  0  0  0  0  0  0  0
   15.5036    9.8629   -3.3638 C   0  0  0  0  0  0  0  0  0  0  0  0
   16.0474   10.7361   -4.4981 C   0  0  0  0  0  0  0  0  0  0  0  0
   17.3806   11.4068   -4.1537 C   0  0  0  0  0  0  0  0  0  0  0  0
   17.9402   12.2077   -5.2390 N   0  0  0  0  0  0  0  0  0  0  0  0
   17.2712   13.4859   -5.3945 C   0  0  0  0  0  0  0  0  0  0  0  0
   19.3925   12.3359   -5.1782 C   0  0  0  0  0  0  0  0  0  0  0  0
   20.1149   11.1023   -5.7364 C   0  0  0  0  0  0  0  0  0  0  0  0
   21.5683   11.2159   -5.6781 N   0  0  0  0  0  0  0  0  0  0  0  0
   22.0992   10.9083   -4.3627 C   0  0  0  0  0  0  0  0  0  0  0  0
   22.2538   10.4837   -6.7413 C   0  0  0  0  0  0  0  0  0  0  0  0
   22.1883   11.1658   -8.1126 C   0  0  0  0  0  0  0  0  0  0  0  0
   22.8884   12.5266   -8.1604 C   0  0  0  0  0  0  0  0  0  0  0  0
   22.7614   13.2417   -9.5081 C   0  0  0  0  0  0  0  0  0  0  0  0
   23.4724   14.5973   -9.5589 C   0  0  0  0  0  0  0  0  0  0  0  0
   23.3348   15.3226  -10.9007 C   0  0  0  0  0  0  0  0  0  0  0  0
   24.0489   16.6766  -10.9517 C   0  0  0  0  0  0  0  0  0  0  0  0
   23.9078   17.4039  -12.2922 C   0  0  0  0  0  0  0  0  0  0  0  0
   24.6235   18.7569  -12.3437 C   0  0  0  0  0  0  0  0  0  0  0  0
   24.4802   19.4852  -13.6834 C   0  0  0  0  0  0  0  0  0  0  0  0
   25.1970   20.8377  -13.7355 C   0  0  0  0  0  0  0  0  0  0  0  0
   25.0527   21.5668  -15.0744 C   0  0  0  0  0  0  0  0  0  0  0  0
   25.7701   22.9193  -15.1272 C   0  0  0  0  0  0  0  0  0  0  0  0
   25.6206   23.6407  -16.4675 C   0  0  0  0  0  0  0  0  0  0  0  0
    0.6508   -2.3084    2.7676 H   0  0  0  0  0  0  0  0  0  0  0  0
    1.1259   -2.3652    1.0546 H   0  0  0  0  0  0  0  0  0  0  0  0
    0.2372   -0.9609    1.6829 H   0  0  0  0  0  0  0  0  0  0  0  0
    3.0944   -1.7762    2.5438 H   0  0  0  0  0  0  0  0  0  0  0  0
    2.2133   -0.3840    3.1668 H   0  0  0  0  0  0  0  0  0  0  0  0
    2.1495    0.6124    0.8511 H   0  0  0  0  0  0  0  0  0  0  0  0
    3.0310   -0.7805    0.2278 H   0  0  0  0  0  0  0  0  0  0  0  0
    4.9753   -0.2260    1.7380 H   0  0  0  0  0  0  0  0  0  0  0  0
    4.0938    1.1665    2.3618 H   0  0  0  0  0  0  0  0  0  0  0  0
    4.0310    2.1649    0.0454 H   0  0  0  0  0  0  0  0  0  0  0  0
    4.9122    0.7725   -0.5788 H   0  0  0  0  0  0  0  0  0  0  0  0
    6.8564    1.3254    0.9312 H   0  0  0  0  0  0  0  0  0  0  0  0
    5.9752    2.7171    1.5568 H   0  0  0  0  0  0  0  0  0  0  0  0
    5.9113    3.7181   -0.7583 H   0  0  0  0  0  0  0  0  0  0  0  0
    6.7918    2.3263   -1.3848 H   0  0  0  0  0  0  0  0  0  0  0  0
    8.7374    2.8772    0.1239 H   0  0  0  0  0  0  0  0  0  0  0  0
    7.8568    4.2679    0.7526 H   0  0  0  0  0  0  0  0  0  0  0  0
    7.7908    5.2729   -1.5606 H   0  0  0  0  0  0  0  0  0  0  0  0
    8.6702    3.8820   -2.1905 H   0  0  0  0  0  0  0  0  0  0  0  0
   10.6179    4.4296   -0.6837 H   0  0  0  0  0  0  0  0  0  0  0  0
    9.7384    5.8190   -0.0505 H   0  0  0  0  0  0  0  0  0  0  0  0
    9.6694    6.8296   -2.3610 H   0  0  0  0  0  0  0  0  0  0  0  0
   10.5473    5.4399   -2.9958 H   0  0  0  0  0  0  0  0  0  0  0  0
   12.4977    5.9829   -1.4912 H   0  0  0  0  0  0  0  0  0  0  0  0
   11.6198    7.3708   -0.8524 H   0  0  0  0  0  0  0  0  0  0  0  0
   11.5471    8.3883   -3.1596 H   0  0  0  0  0  0  0  0  0  0  0  0
   12.4229    7.0001   -3.8004 H   0  0  0  0  0  0  0  0  0  0  0  0
   14.3766    7.5372   -2.2985 H   0  0  0  0  0  0  0  0  0  0  0  0
   13.5009    8.9234   -1.6530 H   0  0  0  0  0  0  0  0  0  0  0  0
   13.4236    9.9489   -3.9565 H   0  0  0  0  0  0  0  0  0  0  0  0
   14.2975    8.5628   -4.6042 H   0  0  0  0  0  0  0  0  0  0  0  0
   16.2526    9.0921   -3.1021 H   0  0  0  0  0  0  0  0  0  0  0  0
   15.3792   10.4781   -2.4530 H   0  0  0  0  0  0  0  0  0  0  0  0
   15.2936   11.5006   -4.7557 H   0  0  0  0  0  0  0  0  0  0  0  0
   16.1908   10.1304   -5.4098 H   0  0  0  0  0  0  0  0  0  0  0  0
   18.1039   10.6154   -3.9006 H   0  0  0  0  0  0  0  0  0  0  0  0
   17.2626   12.0165   -3.2258 H   0  0  0  0  0  0  0  0  0  0  0  0
   16.1883   13.3431   -5.5280 H   0  0  0  0  0  0  0  0  0  0  0  0
   17.6453   14.0059   -6.2902 H   0  0  0  0  0  0  0  0  0  0  0  0
   17.4120   14.1662   -4.5216 H   0  0  0  0  0  0  0  0  0  0  0  0
   19.7427   12.5622   -4.1459 H   0  0  0  0  0  0  0  0  0  0  0  0
   19.6957   13.1976   -5.7925 H   0  0  0  0  0  0  0  0  0  0  0  0
   19.7986   10.9956   -6.7841 H   0  0  0  0  0  0  0  0  0  0  0  0
   19.7652   10.1801   -5.2187 H   0  0  0  0  0  0  0  0  0  0  0  0
   21.6056   11.5197   -3.5925 H   0  0  0  0  0  0  0  0  0  0  0  0
   23.1762   11.1355   -4.3222 H   0  0  0  0  0  0  0  0  0  0  0  0
   21.9655    9.8388   -4.0748 H   0  0  0  0  0  0  0  0  0  0  0  0
   21.8732    9.4393   -6.8257 H   0  0  0  0  0  0  0  0  0  0  0  0
   23.3143   10.3949   -6.4509 H   0  0  0  0  0  0  0  0  0  0  0  0
   21.1351   11.2809   -8.4257 H   0  0  0  0  0  0  0  0  0  0  0  0
   22.6425   10.4841   -8.8544 H   0  0  0  0  0  0  0  0  0  0  0  0
   23.9595   12.3910   -7.9181 H   0  0  0  0  0  0  0  0  0  0  0  0
   22.4782   13.1625   -7.3575 H   0  0  0  0  0  0  0  0  0  0  0  0
   21.6903   13.3837   -9.7457 H   0  0  0  0  0  0  0  0  0  0  0  0
   23.1595   12.5916  -10.3100 H   0  0  0  0  0  0  0  0  0  0  0  0
   24.5451   14.4550   -9.3297 H   0  0  0  0  0  0  0  0  0  0  0  0
   23.0794   15.2439   -8.7521 H   0  0  0  0  0  0  0  0  0  0  0  0
   22.2621   15.4676  -11.1284 H   0  0  0  0  0  0  0  0  0  0  0  0
   23.7249   14.6743  -11.7076 H   0  0  0  0  0  0  0  0  0  0  0  0
   25.1221   16.5313  -10.7269 H   0  0  0  0  0  0  0  0  0  0  0  0
   23.6608   17.3239  -10.1431 H   0  0  0  0  0  0  0  0  0  0  0  0
   22.8345   17.5505  -12.5160 H   0  0  0  0  0  0  0  0  0  0  0  0
   24.2944   16.7560  -13.1010 H   0  0  0  0  0  0  0  0  0  0  0  0
   25.6971   18.6101  -12.1216 H   0  0  0  0  0  0  0  0  0  0  0  0
   24.2381   19.4043  -11.5339 H   0  0  0  0  0  0  0  0  0  0  0  0
   23.4066   19.6329  -13.9049 H   0  0  0  0  0  0  0  0  0  0  0  0
   24.8647   18.8375  -14.4934 H   0  0  0  0  0  0  0  0  0  0  0  0
   26.2708   20.6897  -13.5149 H   0  0  0  0  0  0  0  0  0  0  0  0
   24.8132   21.4850  -12.9248 H   0  0  0  0  0  0  0  0  0  0  0  0
   23.9790   21.7156  -15.2952 H   0  0  0  0  0  0  0  0  0  0  0  0
   25.4363   20.9197  -15.8857 H   0  0  0  0  0  0  0  0  0  0  0  0
   26.8429   22.7694  -14.9066 H   0  0  0  0  0  0  0  0  0  0  0  0
   25.3865   23.5649  -14.3160 H   0  0  0  0  0  0  0  0  0  0  0  0
   26.0297   23.0374  -17.2954 H   0  0  0  0  0  0  0  0  0  0  0  0
   26.1483   24.6080  -16.4692 H   0  0  0  0  0  0  0  0  0  0  0  0
   24.5608   23.8398  -16.6997 H   0  0  0  0  0  0  0  0  0  0  0  0
  1  2  1  0
  1 39  1  0
  1 40  1  0
  1 41  1  0
  2  3  1  0
  2 42  1  0
  2 43  1  0
  3  4  1  0
  3 44  1  0
  3 45  1  0
  4  5  1  0
  4 46  1  0
  4 47  1  0
  5  6  1  0
  5 48  1  0
  5 49  1  0
  6  7  1  0
  6 50  1  0
  6 51  1  0
  7  8  1  0
  7 52  1  0
  7 53  1  0
  8  9  1  0
  8 54  1  0
  8 55  1  0
  9 10  1  0
  9 56  1  0
  9 57  1  0
 10 11  1  0
 10 58  1  0
 10 59  1  0
 11 12  1  0
 11 60  1  0
 11 61  1  0
 12 13  1  0
 12 62  1  0
 12 63  1  0
 13 14  1  0
 13 64  1  0
 13 65  1  0
 14 15  1  0
 14 66  1  0
 14 67  1  0
 15 16  1  0
 15 68  1  0
 15 69  1  0
 16 17  1  0
 16 70  1  0
 16 71  1  0
 17 18  1  0
 17 72  1  0
 17 73  1  0
 18 19  1  0
 18 74  1  0
 18 75  1  0
 19 20  1  0
 19 21  1  0
 20 76  1  0
 20 77  1  0
 20 78  1  0
 21 22  1  0
 21 79  1  0
 21 80  1  0
 22 23  1  0
 22 81  1  0
 22 82  1  0
 23 24  1  0
 23 25  1  0
 24 83  1  0
 24 84  1  0
 24 85  1  0
 25 26  1  0
 25 86  1  0
 25 87  1  0
 26 27  1  0
 26 88  1  0
 26 89  1  0
 27 28  1  0
 27 90  1  0
 27 91  1  0
 28 29  1  0
 28 92  1  0
 28 93  1  0
 29 30  1  0
 29 94  1  0
 29 95  1  0
 30 31  1  0
 30 96  1  0
 30 97  1  0
 31 32  1  0
 31 98  1  0
 31 99  1  0
 32 33  1  0
 32100  1  0
 32101  1  0
 33 34  1  0
 33102  1  0
 33103  1  0
 34 35  1  0
 34104  1  0
 34105  1  0
 35 36  1  0
 35106  1  0
 35107  1  0
 36 37  1  0
 36108  1  0
 36109  1  0
 37 38  1  0
 37110  1  0
 37111  1  0
 38112  1  0
 38113  1  0
 38114  1  0
M  END

