
     RDKit          3D

 29 30  0  0  0  0  0  0  0  0999 V2000
    1.4001    0.8012   -0.2967 C   0  0  0  0  0  0  0  0  0  0  0  0
    2.2864   -0.1486    0.2487 O   0  0  0  0  0  0  0  0  0  0  0  0
    3.0496    0.1956    1.3182 C   0  0  0  0  0  0  0  0  0  0  0  0
    3.0301    1.4491    1.9424 C   0  0  0  0  0  0  0  0  0  0  0  0
    3.8670    1.6713    3.0394 C   0  0  0  0  0  0  0  0  0  0  0  0
    4.7309    0.6870    3.5442 C   0  0  0  0  0  0  0  0  0  0  0  0
    5.5963    1.0179    4.7067 C   0  0  0  0  0  0  0  0  0  0  0  0
    5.6484    0.2583    5.8896 C   0  0  0  0  0  0  0  0  0  0  0  0
    6.3985    0.5760    6.9381 N   0  0  0  0  0  0  0  0  0  0  0  0
    7.1361    1.6974    6.8322 C   0  0  0  0  0  0  0  0  0  0  0  0
    7.9179    2.0292    7.8921 N   0  0  0  0  0  0  0  0  0  0  0  0
    7.1649    2.5165    5.7646 N   0  0  0  0  0  0  0  0  0  0  0  0
    6.4062    2.1683    4.7320 C   0  0  0  0  0  0  0  0  0  0  0  0
    4.7551   -0.5799    2.8988 C   0  0  0  0  0  0  0  0  0  0  0  0
    5.6777   -1.6932    3.3412 C   0  0  0  0  0  0  0  0  0  0  0  0
    3.9149   -0.7974    1.8046 C   0  0  0  0  0  0  0  0  0  0  0  0
    0.8958    0.3117   -1.1409 H   0  0  0  0  0  0  0  0  0  0  0  0
    1.9318    1.6957   -0.6693 H   0  0  0  0  0  0  0  0  0  0  0  0
    0.6379    1.1231    0.4363 H   0  0  0  0  0  0  0  0  0  0  0  0
    2.3745    2.2486    1.5973 H   0  0  0  0  0  0  0  0  0  0  0  0
    3.8337    2.6461    3.5332 H   0  0  0  0  0  0  0  0  0  0  0  0
    5.0322   -0.6429    5.9920 H   0  0  0  0  0  0  0  0  0  0  0  0
    7.8957    1.4548    8.7220 H   0  0  0  0  0  0  0  0  0  0  0  0
    8.4590    2.8809    7.8595 H   0  0  0  0  0  0  0  0  0  0  0  0
    6.4380    2.8302    3.8570 H   0  0  0  0  0  0  0  0  0  0  0  0
    6.6620   -1.3099    3.6495 H   0  0  0  0  0  0  0  0  0  0  0  0
    5.8301   -2.4188    2.5286 H   0  0  0  0  0  0  0  0  0  0  0  0
    5.2676   -2.2508    4.2001 H   0  0  0  0  0  0  0  0  0  0  0  0
    3.9227   -1.7585    1.2850 H   0  0  0  0  0  0  0  0  0  0  0  0
  1  2  1  0
  1 17  1  0
  1 18  1  0
  1 19  1  0
  2  3  1  0
  3  4  2  0
  3 16  1  0
  4  5  1  0
  4 20  1  0
  5  6  2  0
  5 21  1  0
  6  7  1  0
  6 14  1  0
  7  8  2  0
  7 13  1  0
  8  9  1  0
  8 22  1  0
  9 10  2  0
 10 11  1  0
 10 12  1  0
 11 23  1  0
 11 24  1  0
 12 13  2  0
 13 25  1  0
 14 15  1  0
 14 16  2  0
 15 26  1  0
 15 27  1  0
 15 28  1  0
 16 29  1  0
M  END

