
     RDKit          3D

 58 64  0  0  0  0  0  0  0  0999 V2000
    0.8611    0.1185    3.3035 C   0  0  0  0  0  0  0  0  0  0  0  0
    0.2277    0.6690    2.1848 C   0  0  0  0  0  0  0  0  0  0  0  0
    0.8520    0.6553    0.9365 C   0  0  0  0  0  0  0  0  0  0  0  0
    2.1365    0.1013    0.7894 C   0  0  0  0  0  0  0  0  0  0  0  0
    2.7805    0.0976   -0.4777 N   0  0  0  0  0  0  0  0  0  0  0  0
    2.7215    1.2558   -1.2996 C   0  0  0  0  0  0  0  0  0  0  0  0
    2.9143    2.5346   -0.7460 C   0  0  0  0  0  0  0  0  0  0  0  0
    2.8453    3.6713   -1.5533 C   0  0  0  0  0  0  0  0  0  0  0  0
    2.6004    3.5554   -2.9254 C   0  0  0  0  0  0  0  0  0  0  0  0
    2.4150    2.2854   -3.4813 C   0  0  0  0  0  0  0  0  0  0  0  0
    2.4651    1.1446   -2.6785 C   0  0  0  0  0  0  0  0  0  0  0  0
    3.4659   -1.0579   -0.9271 C   0  0  0  0  0  0  0  0  0  0  0  0
    4.6813   -0.9436   -1.6302 C   0  0  0  0  0  0  0  0  0  0  0  0
    5.3377   -2.0865   -2.0859 C   0  0  0  0  0  0  0  0  0  0  0  0
    4.8220   -3.3592   -1.8254 C   0  0  0  0  0  0  0  0  0  0  0  0
    3.6205   -3.4905   -1.1075 C   0  0  0  0  0  0  0  0  0  0  0  0
    2.9949   -4.8278   -0.8774 C   0  0  0  0  0  0  0  0  0  0  0  0
    1.7277   -4.9448   -1.2165 N   0  0  0  0  0  0  0  0  0  0  0  0
    1.0708   -6.1438   -1.1276 C   0  0  0  0  0  0  0  0  0  0  0  0
   -0.2938   -6.1976   -1.5170 C   0  0  0  0  0  0  0  0  0  0  0  0
   -0.9938   -7.3891   -1.4670 C   0  0  0  0  0  0  0  0  0  0  0  0
   -0.3629   -8.5769   -1.0274 C   0  0  0  0  0  0  0  0  0  0  0  0
    0.9651   -8.5586   -0.6380 C   0  0  0  0  0  0  0  0  0  0  0  0
    1.6959   -7.3500   -0.6802 C   0  0  0  0  0  0  0  0  0  0  0  0
    3.0578   -7.2235   -0.2649 C   0  0  0  0  0  0  0  0  0  0  0  0
    3.8708   -8.1723    0.2666 N   0  0  0  0  0  0  0  0  0  0  0  0
    5.0003   -7.5414    0.5546 C   0  0  0  0  0  0  0  0  0  0  0  0
    6.1853   -8.0456    1.1513 C   0  0  0  0  0  0  0  0  0  0  0  0
    7.2328   -7.1950    1.4112 C   0  0  0  0  0  0  0  0  0  0  0  0
    7.1290   -5.8106    1.0892 C   0  0  0  0  0  0  0  0  0  0  0  0
    5.9939   -5.3195    0.5011 C   0  0  0  0  0  0  0  0  0  0  0  0
    4.9528   -6.1675    0.2122 N   0  0  0  0  0  0  0  0  0  0  0  0
    3.6886   -5.9613   -0.3467 C   0  0  0  0  0  0  0  0  0  0  0  0
    2.9425   -2.3393   -0.6845 C   0  0  0  0  0  0  0  0  0  0  0  0
    2.7740   -0.4422    1.9196 C   0  0  0  0  0  0  0  0  0  0  0  0
    2.1353   -0.4400    3.1606 C   0  0  0  0  0  0  0  0  0  0  0  0
    0.3662    0.1239    4.2774 H   0  0  0  0  0  0  0  0  0  0  0  0
   -0.7714    1.1026    2.2793 H   0  0  0  0  0  0  0  0  0  0  0  0
    0.3456    1.0738    0.0647 H   0  0  0  0  0  0  0  0  0  0  0  0
    3.1178    2.6312    0.3221 H   0  0  0  0  0  0  0  0  0  0  0  0
    2.9974    4.6568   -1.1054 H   0  0  0  0  0  0  0  0  0  0  0  0
    2.5532    4.4467   -3.5556 H   0  0  0  0  0  0  0  0  0  0  0  0
    2.2139    2.1795   -4.5506 H   0  0  0  0  0  0  0  0  0  0  0  0
    2.3033    0.1578   -3.1165 H   0  0  0  0  0  0  0  0  0  0  0  0
    5.1015    0.0447   -1.8237 H   0  0  0  0  0  0  0  0  0  0  0  0
    6.2682   -1.9824   -2.6502 H   0  0  0  0  0  0  0  0  0  0  0  0
    5.3334   -4.2459   -2.2072 H   0  0  0  0  0  0  0  0  0  0  0  0
   -0.7591   -5.2705   -1.8577 H   0  0  0  0  0  0  0  0  0  0  0  0
   -2.0434   -7.4165   -1.7711 H   0  0  0  0  0  0  0  0  0  0  0  0
   -0.9298   -9.5108   -0.9948 H   0  0  0  0  0  0  0  0  0  0  0  0
    1.4708   -9.4613   -0.2892 H   0  0  0  0  0  0  0  0  0  0  0  0
    6.2135   -9.1080    1.3955 H   0  0  0  0  0  0  0  0  0  0  0  0
    8.1461   -7.5742    1.8750 H   0  0  0  0  0  0  0  0  0  0  0  0
    7.9466   -5.1231    1.3102 H   0  0  0  0  0  0  0  0  0  0  0  0
    5.8589   -4.2716    0.2417 H   0  0  0  0  0  0  0  0  0  0  0  0
    1.9868   -2.4511   -0.1719 H   0  0  0  0  0  0  0  0  0  0  0  0
    3.7748   -0.8664    1.8188 H   0  0  0  0  0  0  0  0  0  0  0  0
    2.6460   -0.8681    4.0273 H   0  0  0  0  0  0  0  0  0  0  0  0
  1  2  2  0
  1 36  1  0
  1 37  1  0
  2  3  1  0
  2 38  1  0
  3  4  2  0
  3 39  1  0
  4  5  1  0
  4 35  1  0
  5  6  1  0
  5 12  1  0
  6  7  2  0
  6 11  1  0
  7  8  1  0
  7 40  1  0
  8  9  2  0
  8 41  1  0
  9 10  1  0
  9 42  1  0
 10 11  2  0
 10 43  1  0
 11 44  1  0
 12 13  2  0
 12 34  1  0
 13 14  1  0
 13 45  1  0
 14 15  2  0
 14 46  1  0
 15 16  1  0
 15 47  1  0
 16 17  1  0
 16 34  2  0
 17 18  2  0
 17 33  1  0
 18 19  1  0
 19 20  2  0
 19 24  1  0
 20 21  1  0
 20 48  1  0
 21 22  2  0
 21 49  1  0
 22 23  1  0
 22 50  1  0
 23 24  2  0
 23 51  1  0
 24 25  1  0
 25 26  1  0
 25 33  2  0
 26 27  2  0
 27 28  1  0
 27 32  1  0
 28 29  2  0
 28 52  1  0
 29 30  1  0
 29 53  1  0
 30 31  2  0
 30 54  1  0
 31 32  1  0
 31 55  1  0
 32 33  1  0
 34 56  1  0
 35 36  2  0
 35 57  1  0
 36 58  1  0
M  END

