
     RDKit          3D

 28 29  0  0  0  0  0  0  0  0999 V2000
    1.7654   -1.6070   -0.8551 C   0  0  0  0  0  0  0  0  0  0  0  0
    2.7485   -0.6842   -0.3284 N   0  0  0  0  0  0  0  0  0  0  0  0
    3.8324   -0.1593   -0.9637 C   0  0  0  0  0  0  0  0  0  0  0  0
    4.4706    0.6765   -0.0575 C   0  0  0  0  0  0  0  0  0  0  0  0
    5.7127    1.5039   -0.2546 C   0  0  0  0  0  0  0  0  0  0  0  0
    5.4635    2.9348   -0.3421 N   0  0  0  0  0  0  0  0  0  0  0  0
    4.7995    3.5629   -1.4744 C   0  0  0  0  0  0  0  0  0  0  0  0
    4.9975    5.0723   -1.2122 C   0  0  2  0  0  0  0  0  0  0  0  0
    6.2021    5.5369   -1.8958 N   0  0  0  0  0  0  0  0  0  0  0  0
    5.0468    5.1300    0.3309 C   0  0  0  0  0  0  0  0  0  0  0  0
    5.5803    3.7605    0.7509 C   0  0  0  0  0  0  0  0  0  0  0  0
    6.0083    3.4351    1.8419 O   0  0  0  0  0  0  0  0  0  0  0  0
    3.6662    0.5794    1.1097 C   0  0  0  0  0  0  0  0  0  0  0  0
    2.6352   -0.2403    0.9322 N   0  0  0  0  0  0  0  0  0  0  0  0
    2.0575   -1.9070   -1.8703 H   0  0  0  0  0  0  0  0  0  0  0  0
    0.7713   -1.1347   -0.8900 H   0  0  0  0  0  0  0  0  0  0  0  0
    1.7062   -2.5011   -0.2166 H   0  0  0  0  0  0  0  0  0  0  0  0
    4.0750   -0.4205   -1.9927 H   0  0  0  0  0  0  0  0  0  0  0  0
    6.2422    1.1787   -1.1658 H   0  0  0  0  0  0  0  0  0  0  0  0
    6.3934    1.3705    0.5993 H   0  0  0  0  0  0  0  0  0  0  0  0
    3.7283    3.2880   -1.5178 H   0  0  0  0  0  0  0  0  0  0  0  0
    5.2659    3.2702   -2.4289 H   0  0  0  0  0  0  0  0  0  0  0  0
    4.1467    5.6451   -1.6122 H   0  0  0  0  0  0  0  0  0  0  0  0
    7.0211    5.0432   -1.5348 H   0  0  0  0  0  0  0  0  0  0  0  0
    6.3594    6.5254   -1.6973 H   0  0  0  0  0  0  0  0  0  0  0  0
    4.0409    5.2427    0.7730 H   0  0  0  0  0  0  0  0  0  0  0  0
    5.6746    5.9406    0.7289 H   0  0  0  0  0  0  0  0  0  0  0  0
    3.8189    1.0792    2.0668 H   0  0  0  0  0  0  0  0  0  0  0  0
  1  2  1  0
  1 15  1  0
  1 16  1  0
  1 17  1  0
  2  3  1  0
  2 14  1  0
  3  4  2  0
  3 18  1  0
  4  5  1  0
  4 13  1  0
  5  6  1  0
  5 19  1  0
  5 20  1  0
  6  7  1  0
  6 11  1  0
  7  8  1  0
  7 21  1  0
  7 22  1  0
  8  9  1  0
  8 10  1  0
  8 23  1  6
  9 24  1  0
  9 25  1  0
 10 11  1  0
 10 26  1  0
 10 27  1  0
 11 12  2  0
 13 14  2  0
 13 28  1  0
M  END

