
     RDKit          3D

 56 58  0  0  0  0  0  0  0  0999 V2000
    4.7309    7.9095   -6.8320 C   0  0  0  0  0  0  0  0  0  0  0  0
    4.3388    6.6997   -7.2362 C   0  0  0  0  0  0  0  0  0  0  0  0
    5.2209    5.4879   -7.2701 C   0  0  0  0  0  0  0  0  0  0  0  0
    4.5400    4.4199   -6.6311 O   0  0  0  0  0  0  0  0  0  0  0  0
    5.1135    3.1882   -6.5920 C   0  0  0  0  0  0  0  0  0  0  0  0
    4.3646    2.1770   -5.9640 C   0  0  0  0  0  0  0  0  0  0  0  0
    4.8706    0.8845   -5.8728 C   0  0  0  0  0  0  0  0  0  0  0  0
    6.1320    0.5506   -6.4019 C   0  0  0  0  0  0  0  0  0  0  0  0
    6.6712   -0.8705   -6.3388 C   0  0  0  0  0  0  0  0  0  0  0  0
    6.2305   -1.7802   -7.4013 N   0  0  0  0  0  0  0  0  0  0  0  0
    4.8659   -2.2651   -7.3200 C   0  0  0  0  0  0  0  0  0  0  0  0
    6.7206   -1.4997   -8.7244 C   0  0  0  0  0  0  0  0  0  0  0  0
    8.0001   -2.1500   -9.0202 N   0  0  0  0  0  0  0  0  0  0  0  0
    8.0729   -3.4831   -9.4937 C   0  0  0  0  0  0  0  0  0  0  0  0
    7.1222   -4.1822   -9.7599 O   0  0  0  0  0  0  0  0  0  0  0  0
    9.4047   -3.7777   -9.5936 N   0  0  0  0  0  0  0  0  0  0  0  0
   10.2821   -2.6623   -9.2534 C   0  0  2  0  0  0  0  0  0  0  0  0
   11.0759   -2.1362  -10.4731 C   0  0  0  0  0  0  0  0  0  0  0  0
   12.1947   -3.0900  -10.9027 C   0  0  0  0  0  0  0  0  0  0  0  0
   13.1418   -3.3935   -9.7376 C   0  0  0  0  0  0  0  0  0  0  0  0
   12.3732   -3.9202   -8.5210 C   0  0  0  0  0  0  0  0  0  0  0  0
   11.2457   -2.9743   -8.0696 C   0  0  2  0  0  0  0  0  0  0  0  0
   10.5218   -3.5092   -6.8314 C   0  0  0  0  0  0  0  0  0  0  0  0
    9.2448   -1.5996   -8.8376 C   0  0  0  0  0  0  0  0  0  0  0  0
    9.4991   -0.4834   -8.4335 O   0  0  0  0  0  0  0  0  0  0  0  0
    6.8710    1.5719   -7.0148 C   0  0  0  0  0  0  0  0  0  0  0  0
    6.3775    2.8792   -7.1152 C   0  0  0  0  0  0  0  0  0  0  0  0
    4.0557    8.7689   -6.8633 H   0  0  0  0  0  0  0  0  0  0  0  0
    5.7441    8.0899   -6.4573 H   0  0  0  0  0  0  0  0  0  0  0  0
    3.3158    6.5408   -7.5976 H   0  0  0  0  0  0  0  0  0  0  0  0
    6.1878    5.6933   -6.7738 H   0  0  0  0  0  0  0  0  0  0  0  0
    5.4403    5.2116   -8.3216 H   0  0  0  0  0  0  0  0  0  0  0  0
    3.3890    2.4379   -5.5483 H   0  0  0  0  0  0  0  0  0  0  0  0
    4.2768    0.1185   -5.3655 H   0  0  0  0  0  0  0  0  0  0  0  0
    6.3877   -1.3321   -5.3781 H   0  0  0  0  0  0  0  0  0  0  0  0
    7.7713   -0.8308   -6.3600 H   0  0  0  0  0  0  0  0  0  0  0  0
    4.6697   -2.6424   -6.3028 H   0  0  0  0  0  0  0  0  0  0  0  0
    4.7350   -3.1089   -8.0151 H   0  0  0  0  0  0  0  0  0  0  0  0
    4.0882   -1.5043   -7.5474 H   0  0  0  0  0  0  0  0  0  0  0  0
    6.8739   -0.4236   -8.9138 H   0  0  0  0  0  0  0  0  0  0  0  0
    6.0082   -1.8843   -9.4657 H   0  0  0  0  0  0  0  0  0  0  0  0
    9.7034   -4.6580   -9.9925 H   0  0  0  0  0  0  0  0  0  0  0  0
   11.5017   -1.1594  -10.1896 H   0  0  0  0  0  0  0  0  0  0  0  0
   10.3746   -1.9530  -11.3038 H   0  0  0  0  0  0  0  0  0  0  0  0
   12.7475   -2.6541  -11.7511 H   0  0  0  0  0  0  0  0  0  0  0  0
   11.7568   -4.0331  -11.2799 H   0  0  0  0  0  0  0  0  0  0  0  0
   13.6772   -2.4687   -9.4560 H   0  0  0  0  0  0  0  0  0  0  0  0
   13.9132   -4.1185  -10.0461 H   0  0  0  0  0  0  0  0  0  0  0  0
   13.0621   -4.0858   -7.6758 H   0  0  0  0  0  0  0  0  0  0  0  0
   11.9424   -4.9127   -8.7550 H   0  0  0  0  0  0  0  0  0  0  0  0
   11.6983   -2.0003   -7.8119 H   0  0  0  0  0  0  0  0  0  0  0  0
   10.0380   -4.4771   -7.0368 H   0  0  0  0  0  0  0  0  0  0  0  0
    9.7457   -2.8152   -6.4737 H   0  0  0  0  0  0  0  0  0  0  0  0
   11.2357   -3.6587   -6.0063 H   0  0  0  0  0  0  0  0  0  0  0  0
    7.8615    1.3435   -7.4194 H   0  0  0  0  0  0  0  0  0  0  0  0
    6.9915    3.6421   -7.5945 H   0  0  0  0  0  0  0  0  0  0  0  0
  1  2  2  0
  1 28  1  0
  1 29  1  0
  2  3  1  0
  2 30  1  0
  3  4  1  0
  3 31  1  0
  3 32  1  0
  4  5  1  0
  5  6  2  0
  5 27  1  0
  6  7  1  0
  6 33  1  0
  7  8  2  0
  7 34  1  0
  8  9  1  0
  8 26  1  0
  9 10  1  0
  9 35  1  0
  9 36  1  0
 10 11  1  0
 10 12  1  0
 11 37  1  0
 11 38  1  0
 11 39  1  0
 12 13  1  0
 12 40  1  0
 12 41  1  0
 13 14  1  0
 13 24  1  0
 14 15  2  0
 14 16  1  0
 16 17  1  0
 16 42  1  0
 17 18  1  0
 17 22  1  0
 17 24  1  1
 18 19  1  0
 18 43  1  0
 18 44  1  0
 19 20  1  0
 19 45  1  0
 19 46  1  0
 20 21  1  0
 20 47  1  0
 20 48  1  0
 21 22  1  0
 21 49  1  0
 21 50  1  0
 22 23  1  0
 22 51  1  1
 23 52  1  0
 23 53  1  0
 23 54  1  0
 24 25  2  0
 26 27  2  0
 26 55  1  0
 27 56  1  0
M  END

