
     RDKit          3D

 27 28  0  0  0  0  0  0  0  0999 V2000
    1.0943   -0.6427    1.1711 O   0  0  0  0  0  0  0  0  0  0  0  0
    1.8911   -0.3763    0.3116 C   0  0  0  0  0  0  0  0  0  0  0  0
    1.6354    0.5603   -0.6189 O   0  0  0  0  0  0  0  0  0  0  0  0
    3.2381   -1.1149    0.1943 C   0  0  1  0  0  0  0  0  0  0  0  0
    3.0693   -2.3978   -0.6553 C   0  0  0  0  0  0  0  0  0  0  0  0
    2.8723   -2.0594   -2.1390 C   0  0  0  0  0  0  0  0  0  0  0  0
    3.9557   -1.0953   -2.6161 C   0  0  0  0  0  0  0  0  0  0  0  0
    4.0416    0.0657   -1.7730 O   0  0  0  0  0  0  0  0  0  0  0  0
    4.3439   -0.2142   -0.3942 C   0  0  2  0  0  0  0  0  0  0  0  0
    5.7766   -0.6990   -0.2200 C   0  0  0  0  0  0  0  0  0  0  0  0
    6.7981   -0.1963   -1.0436 C   0  0  0  0  0  0  0  0  0  0  0  0
    8.0768   -0.5397   -0.9008 N   0  0  0  0  0  0  0  0  0  0  0  0
    8.3564   -1.3978    0.0838 C   0  0  0  0  0  0  0  0  0  0  0  0
    7.4817   -1.9367    0.9314 N   0  0  0  0  0  0  0  0  0  0  0  0
    6.2026   -1.5854    0.7772 C   0  0  0  0  0  0  0  0  0  0  0  0
    2.3829    0.6168   -1.2523 H   0  0  0  0  0  0  0  0  0  0  0  0
    3.4833   -1.3950    1.2278 H   0  0  0  0  0  0  0  0  0  0  0  0
    2.2211   -2.9811   -0.2658 H   0  0  0  0  0  0  0  0  0  0  0  0
    3.9691   -3.0248   -0.5350 H   0  0  0  0  0  0  0  0  0  0  0  0
    1.8793   -1.6067   -2.2981 H   0  0  0  0  0  0  0  0  0  0  0  0
    2.9043   -2.9739   -2.7536 H   0  0  0  0  0  0  0  0  0  0  0  0
    3.7473   -0.7084   -3.6240 H   0  0  0  0  0  0  0  0  0  0  0  0
    4.9383   -1.5999   -2.6451 H   0  0  0  0  0  0  0  0  0  0  0  0
    4.2848    0.7768    0.0876 H   0  0  0  0  0  0  0  0  0  0  0  0
    6.5554    0.5069   -1.8485 H   0  0  0  0  0  0  0  0  0  0  0  0
    9.4079   -1.6844    0.2068 H   0  0  0  0  0  0  0  0  0  0  0  0
    5.4936   -2.0293    1.4848 H   0  0  0  0  0  0  0  0  0  0  0  0
  1  2  2  0
  2  3  1  0
  2  4  1  0
  3 16  1  0
  4  5  1  0
  4  9  1  0
  4 17  1  1
  5  6  1  0
  5 18  1  0
  5 19  1  0
  6  7  1  0
  6 20  1  0
  6 21  1  0
  7  8  1  0
  7 22  1  0
  7 23  1  0
  8  9  1  0
  9 10  1  0
  9 24  1  1
 10 11  2  0
 10 15  1  0
 11 12  1  0
 11 25  1  0
 12 13  2  0
 13 14  1  0
 13 26  1  0
 14 15  2  0
 15 27  1  0
M  END

