
     RDKit          3D

 51 51  0  0  0  0  0  0  0  0999 V2000
    3.1389   -0.3386    1.3383 C   0  0  0  0  0  0  0  0  0  0  0  0
    3.0494   -0.4408   -0.1965 C   0  0  1  0  0  0  0  0  0  0  0  0
    1.6997   -0.7101   -0.6496 N   0  0  0  0  0  0  0  0  0  0  0  0
    1.1955   -1.9706   -0.7136 C   0  0  0  0  0  0  0  0  0  0  0  0
    1.8406   -2.9549   -0.3698 O   0  0  0  0  0  0  0  0  0  0  0  0
   -0.2353   -2.1160   -1.2614 C   0  0  1  0  0  0  0  0  0  0  0  0
   -0.2868   -3.1719   -2.2697 N   0  0  0  0  0  0  0  0  0  0  0  0
   -1.2328   -2.4200   -0.1127 C   0  0  1  0  0  0  0  0  0  0  0  0
   -1.1773   -1.3715    1.0052 C   0  0  0  0  0  0  0  0  0  0  0  0
   -2.6580   -2.5734   -0.6547 C   0  0  0  0  0  0  0  0  0  0  0  0
    3.4900    0.8711   -0.8604 C   0  0  0  0  0  0  0  0  0  0  0  0
    2.6513    1.6825   -1.2574 O   0  0  0  0  0  0  0  0  0  0  0  0
    4.8191    1.1597   -0.9072 N   0  0  0  0  0  0  0  0  0  0  0  0
    5.9630    0.2860   -0.6805 C   0  0  0  0  0  0  0  0  0  0  0  0
    6.7142    0.0747   -2.0031 C   0  0  0  0  0  0  0  0  0  0  0  0
    7.0208    1.4167   -2.6856 C   0  0  0  0  0  0  0  0  0  0  0  0
    5.7990    2.3438   -2.7375 C   0  0  1  0  0  0  0  0  0  0  0  0
    6.1090    3.3674   -2.9983 H   0  0  0  0  0  0  0  0  0  0  0  0
    4.7397    1.9209   -3.7552 C   0  0  0  0  0  0  0  0  0  0  0  0
    4.6109    0.8271   -4.2425 O   0  0  0  0  0  0  0  0  0  0  0  0
    3.8936    2.9571   -3.9739 O   0  0  0  0  0  0  0  0  0  0  0  0
    2.7126    2.7187   -4.7183 C   0  0  0  0  0  0  0  0  0  0  0  0
    2.5600    3.7743   -5.8153 C   0  0  1  0  0  0  0  0  0  0  0  0
    2.4772    5.4195   -5.1084 Cl  0  0  0  0  0  0  0  0  0  0  0  0
    3.9386    3.6837   -6.9593 Cl  0  0  0  0  0  0  0  0  0  0  0  0
    1.0277    3.4163   -6.6835 Cl  0  0  0  0  0  0  0  0  0  0  0  0
    5.2086    2.4317   -1.3854 N   0  0  0  0  0  0  0  0  0  0  0  0
    2.7828   -1.2800    1.7808 H   0  0  0  0  0  0  0  0  0  0  0  0
    2.5115    0.4891    1.7031 H   0  0  0  0  0  0  0  0  0  0  0  0
    4.1723   -0.1650    1.6757 H   0  0  0  0  0  0  0  0  0  0  0  0
    3.6733   -1.2854   -0.5264 H   0  0  0  0  0  0  0  0  0  0  0  0
    1.1758    0.0961   -0.9789 H   0  0  0  0  0  0  0  0  0  0  0  0
   -0.5430   -1.1673   -1.7385 H   0  0  0  0  0  0  0  0  0  0  0  0
    0.2009   -3.9869   -1.8887 H   0  0  0  0  0  0  0  0  0  0  0  0
    0.2490   -2.8944   -3.0928 H   0  0  0  0  0  0  0  0  0  0  0  0
   -0.9141   -3.3892    0.3144 H   0  0  0  0  0  0  0  0  0  0  0  0
   -1.4284   -0.3665    0.6226 H   0  0  0  0  0  0  0  0  0  0  0  0
   -0.1860   -1.3125    1.4797 H   0  0  0  0  0  0  0  0  0  0  0  0
   -1.9069   -1.6116    1.7949 H   0  0  0  0  0  0  0  0  0  0  0  0
   -3.0346   -1.6113   -1.0444 H   0  0  0  0  0  0  0  0  0  0  0  0
   -3.3462   -2.9022    0.1407 H   0  0  0  0  0  0  0  0  0  0  0  0
   -2.6869   -3.3029   -1.4749 H   0  0  0  0  0  0  0  0  0  0  0  0
    5.6240   -0.6698   -0.2652 H   0  0  0  0  0  0  0  0  0  0  0  0
    6.6146    0.7713    0.0666 H   0  0  0  0  0  0  0  0  0  0  0  0
    6.0962   -0.5446   -2.6704 H   0  0  0  0  0  0  0  0  0  0  0  0
    7.6499   -0.4742   -1.8094 H   0  0  0  0  0  0  0  0  0  0  0  0
    7.4080    1.2507   -3.7023 H   0  0  0  0  0  0  0  0  0  0  0  0
    7.8031    1.9482   -2.1191 H   0  0  0  0  0  0  0  0  0  0  0  0
    1.8511    2.7864   -4.0371 H   0  0  0  0  0  0  0  0  0  0  0  0
    2.7468    1.7236   -5.1826 H   0  0  0  0  0  0  0  0  0  0  0  0
    4.3590    3.0009   -1.3980 H   0  0  0  0  0  0  0  0  0  0  0  0
  1  2  1  0
  1 28  1  0
  1 29  1  0
  1 30  1  0
  2  3  1  0
  2 11  1  0
  2 31  1  6
  3  4  1  0
  3 32  1  0
  4  5  2  0
  4  6  1  0
  6  7  1  0
  6  8  1  0
  6 33  1  6
  7 34  1  0
  7 35  1  0
  8  9  1  0
  8 10  1  0
  8 36  1  1
  9 37  1  0
  9 38  1  0
  9 39  1  0
 10 40  1  0
 10 41  1  0
 10 42  1  0
 11 12  2  0
 11 13  1  0
 13 14  1  0
 13 27  1  0
 14 15  1  0
 14 43  1  0
 14 44  1  0
 15 16  1  0
 15 45  1  0
 15 46  1  0
 16 17  1  0
 16 47  1  0
 16 48  1  0
 17 18  1  6
 17 19  1  0
 17 27  1  0
 19 20  2  0
 19 21  1  0
 21 22  1  0
 22 23  1  0
 22 49  1  0
 22 50  1  0
 23 24  1  1
 23 25  1  0
 23 26  1  0
 27 51  1  0
M  END

