
     RDKit          3D

 41 43  0  0  0  0  0  0  0  0999 V2000
    2.2699    1.1059    2.1317 O   0  0  0  0  0  0  0  0  0  0  0  0
    3.4111    1.1668    1.6788 C   0  0  0  0  0  0  0  0  0  0  0  0
    4.4363    0.5532    2.3522 N   0  0  0  0  0  0  0  0  0  0  0  0
    4.1042    0.0368    3.5966 O   0  0  0  0  0  0  0  0  0  0  0  0
    3.7601    1.8499    0.4115 C   0  0  0  0  0  0  0  0  0  0  0  0
    2.8716    2.7965   -0.1377 C   0  0  0  0  0  0  0  0  0  0  0  0
    3.1170    3.4404   -1.2639 N   0  0  0  0  0  0  0  0  0  0  0  0
    4.2788    3.1465   -1.8978 C   0  0  0  0  0  0  0  0  0  0  0  0
    4.5041    3.8618   -3.0330 N   0  0  0  0  0  0  0  0  0  0  0  0
    5.6178    3.8034   -3.9888 C   0  0  1  0  0  0  0  0  0  0  0  0
    6.8946    4.4367   -3.3939 C   0  0  0  0  0  0  0  0  0  0  0  0
    6.8950    5.0383   -2.1270 C   0  0  0  0  0  0  0  0  0  0  0  0
    8.0458    5.6258   -1.6089 C   0  0  0  0  0  0  0  0  0  0  0  0
    7.9917    6.1821   -0.3885 F   0  0  0  0  0  0  0  0  0  0  0  0
    9.2420    5.6533   -2.3178 C   0  0  0  0  0  0  0  0  0  0  0  0
    9.2613    5.0771   -3.5881 C   0  0  0  0  0  0  0  0  0  0  0  0
    8.1073    4.4927   -4.1028 C   0  0  0  0  0  0  0  0  0  0  0  0
    8.1872    3.9829   -5.3522 F   0  0  0  0  0  0  0  0  0  0  0  0
    5.8564    2.3412   -4.4666 C   0  0  0  0  0  0  0  0  0  0  0  0
    4.6656    1.8107   -5.2629 C   0  0  0  0  0  0  0  0  0  0  0  0
    4.3632    2.6328   -6.3756 O   0  0  0  0  0  0  0  0  0  0  0  0
    4.0273    3.9467   -5.9968 C   0  0  0  0  0  0  0  0  0  0  0  0
    5.1648    4.6273   -5.2282 C   0  0  0  0  0  0  0  0  0  0  0  0
    5.1806    2.2384   -1.4825 N   0  0  0  0  0  0  0  0  0  0  0  0
    4.9105    1.6017   -0.3490 C   0  0  0  0  0  0  0  0  0  0  0  0
    5.3702    0.9529    2.3543 H   0  0  0  0  0  0  0  0  0  0  0  0
    3.1410    0.2363    3.6334 H   0  0  0  0  0  0  0  0  0  0  0  0
    1.9332    3.0167    0.3835 H   0  0  0  0  0  0  0  0  0  0  0  0
    3.7728    4.5419   -3.2089 H   0  0  0  0  0  0  0  0  0  0  0  0
    5.9908    5.0635   -1.5218 H   0  0  0  0  0  0  0  0  0  0  0  0
   10.1271    6.1202   -1.8828 H   0  0  0  0  0  0  0  0  0  0  0  0
   10.1643    5.0769   -4.2013 H   0  0  0  0  0  0  0  0  0  0  0  0
    6.0572    1.7006   -3.5984 H   0  0  0  0  0  0  0  0  0  0  0  0
    6.7412    2.3296   -5.1147 H   0  0  0  0  0  0  0  0  0  0  0  0
    3.7730    1.7079   -4.6122 H   0  0  0  0  0  0  0  0  0  0  0  0
    4.8966    0.8129   -5.6655 H   0  0  0  0  0  0  0  0  0  0  0  0
    3.0926    3.9473   -5.3965 H   0  0  0  0  0  0  0  0  0  0  0  0
    3.8176    4.5033   -6.9235 H   0  0  0  0  0  0  0  0  0  0  0  0
    4.8654    5.6420   -4.9124 H   0  0  0  0  0  0  0  0  0  0  0  0
    6.0270    4.7349   -5.8995 H   0  0  0  0  0  0  0  0  0  0  0  0
    5.6346    0.8379   -0.0394 H   0  0  0  0  0  0  0  0  0  0  0  0
  1  2  2  0
  2  3  1  0
  2  5  1  0
  3  4  1  0
  3 26  1  0
  4 27  1  0
  5  6  2  0
  5 25  1  0
  6  7  1  0
  6 28  1  0
  7  8  2  0
  8  9  1  0
  8 24  1  0
 10  9  1  1
  9 29  1  0
 10 11  1  0
 10 19  1  0
 10 23  1  0
 11 12  2  0
 11 17  1  0
 12 13  1  0
 12 30  1  0
 13 14  1  0
 13 15  2  0
 15 16  1  0
 15 31  1  0
 16 17  2  0
 16 32  1  0
 17 18  1  0
 19 20  1  0
 19 33  1  0
 19 34  1  0
 20 21  1  0
 20 35  1  0
 20 36  1  0
 21 22  1  0
 22 23  1  0
 22 37  1  0
 22 38  1  0
 23 39  1  0
 23 40  1  0
 24 25  2  0
 25 41  1  0
M  END

