
     RDKit          3D

 60 62  0  0  0  0  0  0  0  0999 V2000
   12.0181   -5.6034   16.0041 C   0  0  0  0  0  0  0  0  0  0  0  0
   10.9998   -5.8431   15.0610 O   0  0  0  0  0  0  0  0  0  0  0  0
   10.6387   -4.8479   14.2085 C   0  0  0  0  0  0  0  0  0  0  0  0
   11.2110   -3.5683   14.1836 C   0  0  0  0  0  0  0  0  0  0  0  0
   10.7709   -2.6077   13.2662 C   0  0  0  0  0  0  0  0  0  0  0  0
    9.7481   -2.9137   12.3570 C   0  0  0  0  0  0  0  0  0  0  0  0
    9.2607   -1.9932   11.4127 N   0  0  0  0  0  0  0  0  0  0  0  0
    9.6435   -0.7171   11.1753 C   0  0  0  0  0  0  0  0  0  0  0  0
   10.5146   -0.0762   11.7496 O   0  0  0  0  0  0  0  0  0  0  0  0
    8.8133   -0.1098   10.0197 C   0  0  0  0  0  0  0  0  0  0  0  0
    7.9609   -0.7670    9.4325 O   0  0  0  0  0  0  0  0  0  0  0  0
    9.1525    1.1651    9.7720 N   0  0  0  0  0  0  0  0  0  0  0  0
    8.6213    1.9583    8.6861 C   0  0  0  0  0  0  0  0  0  0  0  0
    9.7185    2.8491    8.0568 C   0  0  2  0  0  0  0  0  0  0  0  0
    9.1837    3.5281    7.3516 H   0  0  0  0  0  0  0  0  0  0  0  0
   10.6971    2.0248    7.2329 C   0  0  0  0  0  0  0  0  0  0  0  0
   11.7102    1.2478    7.8175 C   0  0  0  0  0  0  0  0  0  0  0  0
   12.5621    0.4558    7.0510 C   0  0  0  0  0  0  0  0  0  0  0  0
   12.4385    0.3943    5.6400 C   0  0  0  0  0  0  0  0  0  0  0  0
   13.2772   -0.3964    4.8735 N   0  0  0  0  0  0  0  0  0  0  0  0
   13.1334   -0.4197    3.4340 C   0  0  0  0  0  0  0  0  0  0  0  0
   14.3178   -1.1768    5.5081 C   0  0  0  0  0  0  0  0  0  0  0  0
   11.4206    1.1838    5.0517 C   0  0  0  0  0  0  0  0  0  0  0  0
   10.5816    1.9724    5.8377 C   0  0  0  0  0  0  0  0  0  0  0  0
   10.3866    3.6292    9.0981 N   0  0  0  0  0  0  0  0  0  0  0  0
   11.4592    4.5115    8.6343 C   0  0  0  0  0  0  0  0  0  0  0  0
   11.8176    5.3345    9.8787 C   0  0  0  0  0  0  0  0  0  0  0  0
   10.4972    5.3897   10.6912 C   0  0  0  0  0  0  0  0  0  0  0  0
    9.5206    4.4953    9.9022 C   0  0  0  0  0  0  0  0  0  0  0  0
    9.1764   -4.2006   12.3857 C   0  0  0  0  0  0  0  0  0  0  0  0
    9.6135   -5.1533   13.2961 C   0  0  0  0  0  0  0  0  0  0  0  0
   12.1392   -6.5318   16.5786 H   0  0  0  0  0  0  0  0  0  0  0  0
   11.7532   -4.7858   16.6993 H   0  0  0  0  0  0  0  0  0  0  0  0
   12.9804   -5.3560   15.5193 H   0  0  0  0  0  0  0  0  0  0  0  0
   12.0078   -3.2976   14.8768 H   0  0  0  0  0  0  0  0  0  0  0  0
   11.2179   -1.6155   13.2495 H   0  0  0  0  0  0  0  0  0  0  0  0
    8.5145   -2.2942   10.7847 H   0  0  0  0  0  0  0  0  0  0  0  0
    9.8998    1.5585   10.3420 H   0  0  0  0  0  0  0  0  0  0  0  0
    7.7847    2.5877    9.0398 H   0  0  0  0  0  0  0  0  0  0  0  0
    8.2085    1.2764    7.9296 H   0  0  0  0  0  0  0  0  0  0  0  0
   11.8479    1.2647    8.9007 H   0  0  0  0  0  0  0  0  0  0  0  0
   13.3314   -0.1214    7.5627 H   0  0  0  0  0  0  0  0  0  0  0  0
   12.1310   -0.7662    3.1197 H   0  0  0  0  0  0  0  0  0  0  0  0
   13.8721   -1.1084    3.0039 H   0  0  0  0  0  0  0  0  0  0  0  0
   13.2961    0.5753    2.9772 H   0  0  0  0  0  0  0  0  0  0  0  0
   15.0492   -0.5456    6.0481 H   0  0  0  0  0  0  0  0  0  0  0  0
   14.8665   -1.7431    4.7443 H   0  0  0  0  0  0  0  0  0  0  0  0
   13.9106   -1.9040    6.2350 H   0  0  0  0  0  0  0  0  0  0  0  0
   11.2795    1.1900    3.9715 H   0  0  0  0  0  0  0  0  0  0  0  0
    9.8104    2.5692    5.3403 H   0  0  0  0  0  0  0  0  0  0  0  0
   11.0975    5.1800    7.8186 H   0  0  0  0  0  0  0  0  0  0  0  0
   12.3044    3.9369    8.2321 H   0  0  0  0  0  0  0  0  0  0  0  0
   12.1998    6.3312    9.6123 H   0  0  0  0  0  0  0  0  0  0  0  0
   12.6037    4.8252   10.4563 H   0  0  0  0  0  0  0  0  0  0  0  0
   10.1032    6.4123   10.7905 H   0  0  0  0  0  0  0  0  0  0  0  0
   10.6472    5.0010   11.7093 H   0  0  0  0  0  0  0  0  0  0  0  0
    8.8661    5.1193    9.2500 H   0  0  0  0  0  0  0  0  0  0  0  0
    8.8599    3.9129   10.5621 H   0  0  0  0  0  0  0  0  0  0  0  0
    8.3778   -4.4528   11.6822 H   0  0  0  0  0  0  0  0  0  0  0  0
    9.1729   -6.1519   13.3219 H   0  0  0  0  0  0  0  0  0  0  0  0
  1  2  1  0
  1 32  1  0
  1 33  1  0
  1 34  1  0
  2  3  1  0
  3  4  2  0
  3 31  1  0
  4  5  1  0
  4 35  1  0
  5  6  2  0
  5 36  1  0
  6  7  1  0
  6 30  1  0
  7  8  1  0
  7 37  1  0
  8  9  2  0
  8 10  1  0
 10 11  2  0
 10 12  1  0
 12 13  1  0
 12 38  1  0
 13 14  1  0
 13 39  1  0
 13 40  1  0
 14 15  1  6
 14 16  1  0
 14 25  1  0
 16 17  2  0
 16 24  1  0
 17 18  1  0
 17 41  1  0
 18 19  2  0
 18 42  1  0
 19 20  1  0
 19 23  1  0
 20 21  1  0
 20 22  1  0
 21 43  1  0
 21 44  1  0
 21 45  1  0
 22 46  1  0
 22 47  1  0
 22 48  1  0
 23 24  2  0
 23 49  1  0
 24 50  1  0
 25 26  1  0
 25 29  1  0
 26 27  1  0
 26 51  1  0
 26 52  1  0
 27 28  1  0
 27 53  1  0
 27 54  1  0
 28 29  1  0
 28 55  1  0
 28 56  1  0
 29 57  1  0
 29 58  1  0
 30 31  2  0
 30 59  1  0
 31 60  1  0
M  END

