
     RDKit          3D

 36 38  0  0  0  0  0  0  0  0999 V2000
    2.1011    1.5590    0.4352 C   0  0  0  0  0  0  0  0  0  0  0  0
    2.1280    0.3442   -0.3733 N   0  0  0  0  0  0  0  0  0  0  0  0
    0.9467   -0.5237   -0.2961 C   0  0  0  0  0  0  0  0  0  0  0  0
    0.9779   -1.3707    0.9435 C   0  0  0  0  0  0  0  0  0  0  0  0
    0.0108   -1.7734    1.8548 C   0  0  0  0  0  0  0  0  0  0  0  0
    0.7054   -2.6248    2.7518 C   0  0  0  0  0  0  0  0  0  0  0  0
    1.9937   -2.7307    2.4326 N   0  0  0  0  0  0  0  0  0  0  0  0
    2.1306   -1.9691    1.3387 N   0  0  0  0  0  0  0  0  0  0  0  0
    3.0296   -1.8507    0.8742 H   0  0  0  0  0  0  0  0  0  0  0  0
    2.9328    0.4641   -1.8565 S   0  0  1  0  0  0  0  0  0  0  0  0
    2.5976   -0.7338   -2.6280 O   0  0  0  0  0  0  0  0  0  0  0  0
    2.7200    1.7989   -2.4248 O   0  0  0  0  0  0  0  0  0  0  0  0
    4.6737    0.3884   -1.3865 C   0  0  0  0  0  0  0  0  0  0  0  0
    5.4767    1.4855   -1.7115 C   0  0  0  0  0  0  0  0  0  0  0  0
    6.8510    1.4350   -1.4648 C   0  0  0  0  0  0  0  0  0  0  0  0
    7.4191    0.2974   -0.8940 C   0  0  0  0  0  0  0  0  0  0  0  0
    6.6203   -0.8016   -0.5589 C   0  0  0  0  0  0  0  0  0  0  0  0
    5.2330   -0.7672   -0.8119 C   0  0  0  0  0  0  0  0  0  0  0  0
    4.4432   -1.8354   -0.4925 O   0  0  0  0  0  0  0  0  0  0  0  0
    5.1472   -3.0724   -0.3489 C   0  0  0  0  0  0  0  0  0  0  0  0
    6.3490   -2.8653    0.5524 C   0  0  0  0  0  0  0  0  0  0  0  0
    7.2217   -1.8913   -0.0053 O   0  0  0  0  0  0  0  0  0  0  0  0
    1.8409    1.2826    1.4681 H   0  0  0  0  0  0  0  0  0  0  0  0
    1.3697    2.2980    0.0623 H   0  0  0  0  0  0  0  0  0  0  0  0
    3.0946    2.0295    0.4524 H   0  0  0  0  0  0  0  0  0  0  0  0
    0.9491   -1.1619   -1.1923 H   0  0  0  0  0  0  0  0  0  0  0  0
    0.0152    0.0697   -0.3203 H   0  0  0  0  0  0  0  0  0  0  0  0
   -1.0414   -1.4981    1.8651 H   0  0  0  0  0  0  0  0  0  0  0  0
    0.3142   -3.1548    3.6203 H   0  0  0  0  0  0  0  0  0  0  0  0
    5.0075    2.3575   -2.1677 H   0  0  0  0  0  0  0  0  0  0  0  0
    7.4821    2.2885   -1.7209 H   0  0  0  0  0  0  0  0  0  0  0  0
    8.4891    0.2318   -0.6870 H   0  0  0  0  0  0  0  0  0  0  0  0
    5.4570   -3.4320   -1.3451 H   0  0  0  0  0  0  0  0  0  0  0  0
    4.4356   -3.7873    0.0871 H   0  0  0  0  0  0  0  0  0  0  0  0
    6.9304   -3.7924    0.6589 H   0  0  0  0  0  0  0  0  0  0  0  0
    6.0153   -2.5436    1.5561 H   0  0  0  0  0  0  0  0  0  0  0  0
  1  2  1  0
  1 23  1  0
  1 24  1  0
  1 25  1  0
  2  3  1  0
 10  2  1  1
  3  4  1  0
  3 26  1  0
  3 27  1  0
  4  5  2  0
  4  8  1  0
  5  6  1  0
  5 28  1  0
  6  7  2  0
  6 29  1  0
  7  8  1  0
  8  9  1  0
 10 11  2  0
 10 12  2  0
 10 13  1  0
 13 14  2  0
 13 18  1  0
 14 15  1  0
 14 30  1  0
 15 16  2  0
 15 31  1  0
 16 17  1  0
 16 32  1  0
 17 18  2  0
 17 22  1  0
 18 19  1  0
 19 20  1  0
 20 21  1  0
 20 33  1  0
 20 34  1  0
 21 22  1  0
 21 35  1  0
 21 36  1  0
M  END

