
     RDKit          3D

 60 64  0  0  0  0  0  0  0  0999 V2000
    9.0755    2.5201   -2.5627 C   0  0  0  0  0  0  0  0  0  0  0  0
    8.0274    1.7773   -1.7560 C   0  0  0  0  0  0  0  0  0  0  0  0
    8.0611    0.4137   -2.1420 O   0  0  0  0  0  0  0  0  0  0  0  0
    7.2091   -0.4723   -1.5658 C   0  0  0  0  0  0  0  0  0  0  0  0
    6.2690   -0.1433   -0.5783 C   0  0  0  0  0  0  0  0  0  0  0  0
    5.4457   -1.1506   -0.0615 C   0  0  0  0  0  0  0  0  0  0  0  0
    5.5336   -2.4661   -0.5079 C   0  0  0  0  0  0  0  0  0  0  0  0
    6.4844   -2.7883   -1.4934 C   0  0  0  0  0  0  0  0  0  0  0  0
    6.5931   -4.1300   -1.9634 N   0  0  0  0  0  0  0  0  0  0  0  0
    6.5144   -5.2836   -1.1443 C   0  0  0  0  0  0  0  0  0  0  0  0
    6.3268   -5.2657    0.0503 O   0  0  0  0  0  0  0  0  0  0  0  0
    6.6840   -6.4807   -2.0274 C   0  0  0  0  0  0  0  0  0  0  0  0
    6.5751   -7.8509   -1.5124 C   0  0  0  0  0  0  0  0  0  0  0  0
    6.9884   -8.1823   -0.2006 C   0  0  0  0  0  0  0  0  0  0  0  0
    6.8638   -9.4762    0.2860 C   0  0  0  0  0  0  0  0  0  0  0  0
    6.3101  -10.4926   -0.5131 C   0  0  0  0  0  0  0  0  0  0  0  0
    6.2291  -11.7217    0.0499 O   0  0  0  0  0  0  0  0  0  0  0  0
    5.6712  -12.7875   -0.6859 C   0  0  0  0  0  0  0  0  0  0  0  0
    5.8807  -10.1817   -1.8138 C   0  0  0  0  0  0  0  0  0  0  0  0
    6.0178   -8.8790   -2.2963 C   0  0  0  0  0  0  0  0  0  0  0  0
    6.8417   -6.0235   -3.3085 C   0  0  0  0  0  0  0  0  0  0  0  0
    7.1614   -6.7137   -4.4597 N   0  0  0  0  0  0  0  0  0  0  0  0
    8.2091   -7.7394   -4.4339 C   0  0  0  0  0  0  0  0  0  0  0  0
    9.2604   -7.4156   -5.4955 C   0  0  0  0  0  0  0  0  0  0  0  0
    8.6208   -7.4144   -6.8848 C   0  0  0  0  0  0  0  0  0  0  0  0
    7.2728   -6.7192   -6.9086 C   0  0  0  0  0  0  0  0  0  0  0  0
    6.6616   -6.4100   -8.1316 C   0  0  0  0  0  0  0  0  0  0  0  0
    5.4103   -5.7978   -8.1971 C   0  0  0  0  0  0  0  0  0  0  0  0
    4.7353   -5.4974   -7.0089 C   0  0  0  0  0  0  0  0  0  0  0  0
    5.3135   -5.8048   -5.7816 C   0  0  0  0  0  0  0  0  0  0  0  0
    6.5910   -6.3937   -5.7135 C   0  0  0  0  0  0  0  0  0  0  0  0
    6.8459   -4.5083   -3.2905 C   0  0  0  0  0  0  0  0  0  0  0  0
    7.0808   -3.7690   -4.2148 O   0  0  0  0  0  0  0  0  0  0  0  0
    7.3194   -1.7984   -2.0160 C   0  0  0  0  0  0  0  0  0  0  0  0
    9.0805    3.5871   -2.2911 H   0  0  0  0  0  0  0  0  0  0  0  0
    8.8684    2.4345   -3.6403 H   0  0  0  0  0  0  0  0  0  0  0  0
   10.0776    2.1065   -2.3719 H   0  0  0  0  0  0  0  0  0  0  0  0
    7.0208    2.1989   -1.9400 H   0  0  0  0  0  0  0  0  0  0  0  0
    8.2296    1.8703   -0.6717 H   0  0  0  0  0  0  0  0  0  0  0  0
    6.1688    0.8771   -0.2094 H   0  0  0  0  0  0  0  0  0  0  0  0
    4.7128   -0.8955    0.7083 H   0  0  0  0  0  0  0  0  0  0  0  0
    4.8896   -3.2383   -0.0921 H   0  0  0  0  0  0  0  0  0  0  0  0
    7.4031   -7.4062    0.4420 H   0  0  0  0  0  0  0  0  0  0  0  0
    7.1876   -9.7319    1.2969 H   0  0  0  0  0  0  0  0  0  0  0  0
    5.7076  -13.6705   -0.0339 H   0  0  0  0  0  0  0  0  0  0  0  0
    6.2466  -12.9983   -1.6055 H   0  0  0  0  0  0  0  0  0  0  0  0
    4.6197  -12.5906   -0.9622 H   0  0  0  0  0  0  0  0  0  0  0  0
    5.4318  -10.9405   -2.4550 H   0  0  0  0  0  0  0  0  0  0  0  0
    5.6573   -8.6528   -3.3017 H   0  0  0  0  0  0  0  0  0  0  0  0
    7.7768   -8.7408   -4.6161 H   0  0  0  0  0  0  0  0  0  0  0  0
    8.6503   -7.7537   -3.4300 H   0  0  0  0  0  0  0  0  0  0  0  0
   10.0797   -8.1507   -5.4448 H   0  0  0  0  0  0  0  0  0  0  0  0
    9.6932   -6.4265   -5.2702 H   0  0  0  0  0  0  0  0  0  0  0  0
    8.4864   -8.4581   -7.2253 H   0  0  0  0  0  0  0  0  0  0  0  0
    9.2950   -6.9446   -7.6196 H   0  0  0  0  0  0  0  0  0  0  0  0
    7.1933   -6.6550   -9.0562 H   0  0  0  0  0  0  0  0  0  0  0  0
    4.9613   -5.5635   -9.1650 H   0  0  0  0  0  0  0  0  0  0  0  0
    3.7469   -5.0321   -7.0371 H   0  0  0  0  0  0  0  0  0  0  0  0
    4.7701   -5.5960   -4.8581 H   0  0  0  0  0  0  0  0  0  0  0  0
    8.0513   -2.0241   -2.7885 H   0  0  0  0  0  0  0  0  0  0  0  0
  1  2  1  0
  1 35  1  0
  1 36  1  0
  1 37  1  0
  2  3  1  0
  2 38  1  0
  2 39  1  0
  3  4  1  0
  4  5  2  0
  4 34  1  0
  5  6  1  0
  5 40  1  0
  6  7  2  0
  6 41  1  0
  7  8  1  0
  7 42  1  0
  8  9  1  0
  8 34  2  0
  9 10  1  0
  9 32  1  0
 10 11  2  0
 10 12  1  0
 12 13  1  0
 12 21  2  0
 13 14  2  0
 13 20  1  0
 14 15  1  0
 14 43  1  0
 15 16  2  0
 15 44  1  0
 16 17  1  0
 16 19  1  0
 17 18  1  0
 18 45  1  0
 18 46  1  0
 18 47  1  0
 19 20  2  0
 19 48  1  0
 20 49  1  0
 21 22  1  0
 21 32  1  0
 22 23  1  0
 22 31  1  0
 23 24  1  0
 23 50  1  0
 23 51  1  0
 24 25  1  0
 24 52  1  0
 24 53  1  0
 25 26  1  0
 25 54  1  0
 25 55  1  0
 26 27  2  0
 26 31  1  0
 27 28  1  0
 27 56  1  0
 28 29  2  0
 28 57  1  0
 29 30  1  0
 29 58  1  0
 30 31  2  0
 30 59  1  0
 32 33  2  0
 34 60  1  0
M  END

