
     RDKit          3D

 32 34  0  0  0  0  0  0  0  0999 V2000
    2.1364   -0.7588    0.2139 C   0  0  0  0  0  0  0  0  0  0  0  0
    3.5300   -1.1150    0.5894 C   0  0  0  0  0  0  0  0  0  0  0  0
    4.6227   -0.4283    0.4286 N   0  0  0  0  0  0  0  0  0  0  0  0
    5.5847   -1.2582    0.9641 C   0  0  0  0  0  0  0  0  0  0  0  0
    7.0334   -0.8910    1.0253 C   0  0  0  0  0  0  0  0  0  0  0  0
    7.5498   -0.4294   -0.3456 C   0  0  0  0  0  0  0  0  0  0  0  0
    8.8871    0.1501   -0.2850 N   0  0  0  0  0  0  0  0  0  0  0  0
    9.2186    1.4580   -0.4468 C   0  0  0  0  0  0  0  0  0  0  0  0
   10.5190    1.6944   -0.3372 N   0  0  0  0  0  0  0  0  0  0  0  0
   11.0579    0.4757   -0.0903 C   0  0  0  0  0  0  0  0  0  0  0  0
   10.0815   -0.5116   -0.0455 C   0  0  0  0  0  0  0  0  0  0  0  0
   10.3900   -1.8989    0.1912 C   0  0  0  0  0  0  0  0  0  0  0  0
    9.6208   -2.8445    0.2559 O   0  0  0  0  0  0  0  0  0  0  0  0
   11.7767   -2.0547    0.3585 N   0  0  0  0  0  0  0  0  0  0  0  0
   12.0956   -3.0043    0.5333 H   0  0  0  0  0  0  0  0  0  0  0  0
   12.8083   -1.1070    0.3283 C   0  0  0  0  0  0  0  0  0  0  0  0
   13.9670   -1.4270    0.4968 O   0  0  0  0  0  0  0  0  0  0  0  0
   12.3972    0.2062    0.0935 N   0  0  0  0  0  0  0  0  0  0  0  0
   13.3810    1.2811    0.0374 C   0  0  0  0  0  0  0  0  0  0  0  0
    5.1167   -2.3905    1.4226 N   0  0  0  0  0  0  0  0  0  0  0  0
    3.7493   -2.2978    1.1800 O   0  0  0  0  0  0  0  0  0  0  0  0
    2.1282    0.2351   -0.2492 H   0  0  0  0  0  0  0  0  0  0  0  0
    1.4856   -0.7542    1.1022 H   0  0  0  0  0  0  0  0  0  0  0  0
    1.7258   -1.4959   -0.4938 H   0  0  0  0  0  0  0  0  0  0  0  0
    7.6123   -1.7560    1.3766 H   0  0  0  0  0  0  0  0  0  0  0  0
    7.1560   -0.0670    1.7491 H   0  0  0  0  0  0  0  0  0  0  0  0
    6.8793    0.3379   -0.7577 H   0  0  0  0  0  0  0  0  0  0  0  0
    7.5681   -1.2802   -1.0427 H   0  0  0  0  0  0  0  0  0  0  0  0
    8.4613    2.2154   -0.6522 H   0  0  0  0  0  0  0  0  0  0  0  0
   14.3670    0.8383    0.2147 H   0  0  0  0  0  0  0  0  0  0  0  0
   13.1620    2.0391    0.8042 H   0  0  0  0  0  0  0  0  0  0  0  0
   13.3569    1.7704   -0.9478 H   0  0  0  0  0  0  0  0  0  0  0  0
  1  2  1  0
  1 22  1  0
  1 23  1  0
  1 24  1  0
  2  3  2  0
  2 21  1  0
  3  4  1  0
  4  5  1  0
  4 20  2  0
  5  6  1  0
  5 25  1  0
  5 26  1  0
  6  7  1  0
  6 27  1  0
  6 28  1  0
  7  8  1  0
  7 11  1  0
  8  9  2  0
  8 29  1  0
  9 10  1  0
 10 11  2  0
 10 18  1  0
 11 12  1  0
 12 13  2  0
 12 14  1  0
 14 15  1  0
 14 16  1  0
 16 17  2  0
 16 18  1  0
 18 19  1  0
 19 30  1  0
 19 31  1  0
 19 32  1  0
 20 21  1  0
M  END

