
     RDKit          3D

 54 57  0  0  0  0  0  0  0  0999 V2000
   10.2804    4.1483   -4.7680 C   0  0  0  0  0  0  0  0  0  0  0  0
    9.2707    4.5596   -5.8509 C   0  0  0  0  0  0  0  0  0  0  0  0
    8.2092    3.5131   -6.1163 C   0  0  0  0  0  0  0  0  0  0  0  0
    7.0274    3.4638   -5.3535 C   0  0  0  0  0  0  0  0  0  0  0  0
    6.0644    2.4823   -5.5638 C   0  0  0  0  0  0  0  0  0  0  0  0
    6.2544    1.5039   -6.5553 C   0  0  0  0  0  0  0  0  0  0  0  0
    5.2637    0.5836   -6.6876 O   0  0  0  0  0  0  0  0  0  0  0  0
    5.3537   -0.4017   -7.6932 C   0  0  0  0  0  0  0  0  0  0  0  0
    4.0685   -1.2327   -7.6519 C   0  0  1  0  0  0  0  0  0  0  0  0
    2.9332   -0.4768   -8.0045 O   0  0  0  0  0  0  0  0  0  0  0  0
    4.1923   -2.5193   -8.4825 C   0  0  0  0  0  0  0  0  0  0  0  0
    4.5177   -2.2719   -9.8934 N   0  0  0  0  0  0  0  0  0  0  0  0
    3.6396   -1.4829  -10.5451 N   0  0  0  0  0  0  0  0  0  0  0  0
    3.8046   -1.1695  -11.7996 C   0  0  0  0  0  0  0  0  0  0  0  0
    2.7637   -0.2714  -12.3769 C   0  0  0  0  0  0  0  0  0  0  0  0
    2.3696    0.8809  -11.6722 C   0  0  0  0  0  0  0  0  0  0  0  0
    1.3708    1.7199  -12.1654 C   0  0  0  0  0  0  0  0  0  0  0  0
    0.7569    1.3983  -13.3744 C   0  0  0  0  0  0  0  0  0  0  0  0
   -0.2008    2.1999  -13.8557 F   0  0  0  0  0  0  0  0  0  0  0  0
    1.1135    0.2589  -14.0927 C   0  0  0  0  0  0  0  0  0  0  0  0
    2.1169   -0.5710  -13.5896 C   0  0  0  0  0  0  0  0  0  0  0  0
    4.9585   -1.6513  -12.5534 C   0  0  0  0  0  0  0  0  0  0  0  0
    5.2502   -1.2785  -13.8849 C   0  0  0  0  0  0  0  0  0  0  0  0
    6.3771   -1.7808  -14.5243 C   0  0  0  0  0  0  0  0  0  0  0  0
    7.2470   -2.6616  -13.8576 C   0  0  0  0  0  0  0  0  0  0  0  0
    6.9921   -3.0192  -12.5400 C   0  0  0  0  0  0  0  0  0  0  0  0
    5.8583   -2.5137  -11.8818 C   0  0  0  0  0  0  0  0  0  0  0  0
    5.6477   -2.8679  -10.4647 C   0  0  0  0  0  0  0  0  0  0  0  0
    6.3869   -3.5935   -9.8174 O   0  0  0  0  0  0  0  0  0  0  0  0
    7.4240    1.5348   -7.3286 C   0  0  0  0  0  0  0  0  0  0  0  0
    8.3801    2.5326   -7.1004 C   0  0  0  0  0  0  0  0  0  0  0  0
   11.0322    4.9376   -4.6031 H   0  0  0  0  0  0  0  0  0  0  0  0
   10.8125    3.2260   -5.0519 H   0  0  0  0  0  0  0  0  0  0  0  0
    9.7760    3.9547   -3.8075 H   0  0  0  0  0  0  0  0  0  0  0  0
    9.8121    4.7762   -6.7875 H   0  0  0  0  0  0  0  0  0  0  0  0
    8.7851    5.5045   -5.5518 H   0  0  0  0  0  0  0  0  0  0  0  0
    6.8558    4.2180   -4.5792 H   0  0  0  0  0  0  0  0  0  0  0  0
    5.1451    2.4503   -4.9754 H   0  0  0  0  0  0  0  0  0  0  0  0
    6.2336   -1.0526   -7.5242 H   0  0  0  0  0  0  0  0  0  0  0  0
    5.4668    0.0690   -8.6879 H   0  0  0  0  0  0  0  0  0  0  0  0
    3.9319   -1.5481   -6.6018 H   0  0  0  0  0  0  0  0  0  0  0  0
    2.8150   -0.5839   -8.9643 H   0  0  0  0  0  0  0  0  0  0  0  0
    3.2332   -3.0597   -8.4341 H   0  0  0  0  0  0  0  0  0  0  0  0
    4.9840   -3.1723   -8.0969 H   0  0  0  0  0  0  0  0  0  0  0  0
    2.8531    1.1203  -10.7227 H   0  0  0  0  0  0  0  0  0  0  0  0
    1.0628    2.6185  -11.6276 H   0  0  0  0  0  0  0  0  0  0  0  0
    0.5969    0.0301  -15.0268 H   0  0  0  0  0  0  0  0  0  0  0  0
    2.3774   -1.4788  -14.1377 H   0  0  0  0  0  0  0  0  0  0  0  0
    4.5961   -0.5816  -14.4086 H   0  0  0  0  0  0  0  0  0  0  0  0
    6.5907   -1.4812  -15.5533 H   0  0  0  0  0  0  0  0  0  0  0  0
    8.1281   -3.0524  -14.3721 H   0  0  0  0  0  0  0  0  0  0  0  0
    7.6555   -3.6827  -11.9824 H   0  0  0  0  0  0  0  0  0  0  0  0
    7.6035    0.7935   -8.1076 H   0  0  0  0  0  0  0  0  0  0  0  0
    9.2850    2.5418   -7.7161 H   0  0  0  0  0  0  0  0  0  0  0  0
  1  2  1  0
  1 32  1  0
  1 33  1  0
  1 34  1  0
  2  3  1  0
  2 35  1  0
  2 36  1  0
  3  4  2  0
  3 31  1  0
  4  5  1  0
  4 37  1  0
  5  6  2  0
  5 38  1  0
  6  7  1  0
  6 30  1  0
  7  8  1  0
  8  9  1  0
  8 39  1  0
  8 40  1  0
  9 10  1  0
  9 11  1  0
  9 41  1  1
 10 42  1  0
 11 12  1  0
 11 43  1  0
 11 44  1  0
 12 13  1  0
 12 28  1  0
 13 14  2  0
 14 15  1  0
 14 22  1  0
 15 16  2  0
 15 21  1  0
 16 17  1  0
 16 45  1  0
 17 18  2  0
 17 46  1  0
 18 19  1  0
 18 20  1  0
 20 21  2  0
 20 47  1  0
 21 48  1  0
 22 23  2  0
 22 27  1  0
 23 24  1  0
 23 49  1  0
 24 25  2  0
 24 50  1  0
 25 26  1  0
 25 51  1  0
 26 27  2  0
 26 52  1  0
 27 28  1  0
 28 29  2  0
 30 31  2  0
 30 53  1  0
 31 54  1  0
M  END

