
     RDKit          3D

 38 38  0  0  0  0  0  0  0  0999 V2000
    2.5920   -6.0715   -3.0243 N   0  0  0  0  0  0  0  0  0  0  0  0
    3.0443   -4.6831   -3.0090 C   0  0  1  0  0  0  0  0  0  0  0  0
    2.2888   -4.0818   -3.5474 H   0  0  0  0  0  0  0  0  0  0  0  0
    3.3046   -4.0309   -1.6441 C   0  0  0  0  0  0  0  0  0  0  0  0
    1.7368   -3.8311   -0.6780 S   0  0  0  0  0  0  0  0  0  0  0  0
    2.3921   -3.8669    1.3077 S   0  0  0  0  0  0  0  0  0  0  0  0
    2.0100   -5.5863    1.8504 C   0  0  0  0  0  0  0  0  0  0  0  0
    2.6317   -6.6872    1.0049 C   0  0  1  0  0  0  0  0  0  0  0  0
    2.2542   -6.5852   -0.0276 H   0  0  0  0  0  0  0  0  0  0  0  0
    4.0905   -6.5770    0.9458 N   0  0  0  0  0  0  0  0  0  0  0  0
    4.8013   -7.0976   -0.0835 C   0  0  0  0  0  0  0  0  0  0  0  0
    4.2339   -7.7813   -0.9543 O   0  0  0  0  0  0  0  0  0  0  0  0
    6.2616   -6.7985   -0.1516 C   0  0  0  0  0  0  0  0  0  0  0  0
    7.0232   -6.4662    0.9825 C   0  0  0  0  0  0  0  0  0  0  0  0
    8.3865   -6.1958    0.8571 C   0  0  0  0  0  0  0  0  0  0  0  0
    8.9977   -6.2482   -0.4000 C   0  0  0  0  0  0  0  0  0  0  0  0
    8.2465   -6.5846   -1.5309 C   0  0  0  0  0  0  0  0  0  0  0  0
    6.8868   -6.8700   -1.4079 C   0  0  0  0  0  0  0  0  0  0  0  0
    2.1886   -8.0891    1.5019 C   0  0  0  0  0  0  0  0  0  0  0  0
    1.5337   -8.2471    2.4980 O   0  0  0  0  0  0  0  0  0  0  0  0
    2.5753   -9.0986    0.7241 O   0  0  0  0  0  0  0  0  0  0  0  0
    4.3277   -4.5686   -3.8796 C   0  0  0  0  0  0  0  0  0  0  0  0
    5.0678   -3.6206   -3.8479 O   0  0  0  0  0  0  0  0  0  0  0  0
    4.5027   -5.6243   -4.6720 O   0  0  0  0  0  0  0  0  0  0  0  0
    1.5890   -6.1601   -2.8776 H   0  0  0  0  0  0  0  0  0  0  0  0
    3.0726   -6.6513   -2.3295 H   0  0  0  0  0  0  0  0  0  0  0  0
    3.7599   -3.0446   -1.8016 H   0  0  0  0  0  0  0  0  0  0  0  0
    4.0012   -4.6355   -1.0484 H   0  0  0  0  0  0  0  0  0  0  0  0
    0.9229   -5.7332    1.8832 H   0  0  0  0  0  0  0  0  0  0  0  0
    2.3652   -5.6332    2.8936 H   0  0  0  0  0  0  0  0  0  0  0  0
    4.5366   -5.9120    1.5682 H   0  0  0  0  0  0  0  0  0  0  0  0
    6.5669   -6.4505    1.9757 H   0  0  0  0  0  0  0  0  0  0  0  0
    8.9749   -5.9497    1.7441 H   0  0  0  0  0  0  0  0  0  0  0  0
   10.0641   -6.0298   -0.4971 H   0  0  0  0  0  0  0  0  0  0  0  0
    8.7212   -6.6241   -2.5139 H   0  0  0  0  0  0  0  0  0  0  0  0
    6.2911   -7.1375   -2.2824 H   0  0  0  0  0  0  0  0  0  0  0  0
    3.1042   -8.7681   -0.0430 H   0  0  0  0  0  0  0  0  0  0  0  0
    3.7458   -6.2264   -4.4507 H   0  0  0  0  0  0  0  0  0  0  0  0
  1  2  1  0
  1 25  1  0
  1 26  1  0
  2  3  1  6
  2  4  1  0
  2 22  1  0
  4  5  1  0
  4 27  1  0
  4 28  1  0
  5  6  1  0
  6  7  1  0
  7  8  1  0
  7 29  1  0
  7 30  1  0
  8  9  1  6
  8 10  1  0
  8 19  1  0
 10 11  1  0
 10 31  1  0
 11 12  2  0
 11 13  1  0
 13 14  2  0
 13 18  1  0
 14 15  1  0
 14 32  1  0
 15 16  2  0
 15 33  1  0
 16 17  1  0
 16 34  1  0
 17 18  2  0
 17 35  1  0
 18 36  1  0
 19 20  2  0
 19 21  1  0
 21 37  1  0
 22 23  2  0
 22 24  1  0
 24 38  1  0
M  END

