
     RDKit          3D

 99101  0  0  0  0  0  0  0  0999 V2000
    7.0131    5.9166    0.4762 C   0  0  0  0  0  0  0  0  0  0  0  0
    6.2489    5.4403   -0.6601 N   0  0  0  0  0  0  0  0  0  0  0  0
    6.5957    4.3475   -1.3864 C   0  0  0  0  0  0  0  0  0  0  0  0
    7.5908    3.6705   -1.1552 O   0  0  0  0  0  0  0  0  0  0  0  0
    5.6249    3.9821   -2.5226 C   0  0  2  0  0  0  0  0  0  0  0  0
    5.4329    4.8816   -3.1345 H   0  0  0  0  0  0  0  0  0  0  0  0
    4.2588    3.4945   -1.9809 C   0  0  0  0  0  0  0  0  0  0  0  0
    4.3282    2.2717   -1.0641 C   0  0  0  0  0  0  0  0  0  0  0  0
    2.9471    1.7739   -0.6301 C   0  0  0  0  0  0  0  0  0  0  0  0
    3.0179    0.5597    0.3042 C   0  0  0  0  0  0  0  0  0  0  0  0
    1.7186    0.0714    0.7313 N   0  0  0  0  0  0  0  0  0  0  0  0
    1.1190    0.5081    1.8814 C   0  0  0  0  0  0  0  0  0  0  0  0
   -0.2665   -0.0586    2.1547 C   0  0  0  0  0  0  0  0  0  0  0  0
    1.6553    1.2943    2.6445 O   0  0  0  0  0  0  0  0  0  0  0  0
    6.2874    2.9966   -3.3506 N   0  0  0  0  0  0  0  0  0  0  0  0
    5.8920    2.7362   -4.6248 C   0  0  0  0  0  0  0  0  0  0  0  0
    4.8972    3.2397   -5.1214 O   0  0  0  0  0  0  0  0  0  0  0  0
    6.7270    1.6536   -5.3508 C   0  0  1  0  0  0  0  0  0  0  0  0
    6.5049    0.7172   -4.8139 H   0  0  0  0  0  0  0  0  0  0  0  0
    6.2916    1.4744   -6.8280 C   0  0  0  0  0  0  0  0  0  0  0  0
    5.1276    0.5227   -7.0276 C   0  0  0  0  0  0  0  0  0  0  0  0
    3.7949    0.9636   -6.9621 C   0  0  0  0  0  0  0  0  0  0  0  0
    2.7372    0.0682   -7.1455 C   0  0  0  0  0  0  0  0  0  0  0  0
    2.9881   -1.2847   -7.3945 C   0  0  0  0  0  0  0  0  0  0  0  0
    4.3089   -1.7372   -7.4614 C   0  0  0  0  0  0  0  0  0  0  0  0
    5.3649   -0.8392   -7.2808 C   0  0  0  0  0  0  0  0  0  0  0  0
    8.1789    1.8522   -5.1924 N   0  0  0  0  0  0  0  0  0  0  0  0
    8.9471    0.6532   -4.8743 C   0  0  0  0  0  0  0  0  0  0  0  0
    8.7038    3.0459   -5.6276 C   0  0  0  0  0  0  0  0  0  0  0  0
    7.9659    3.9319   -6.0393 O   0  0  0  0  0  0  0  0  0  0  0  0
   10.2369    3.2296   -5.5907 C   0  0  1  0  0  0  0  0  0  0  0  0
   10.6808    2.3471   -6.0705 H   0  0  0  0  0  0  0  0  0  0  0  0
   10.7217    4.4340   -6.4462 C   0  0  0  0  0  0  0  0  0  0  0  0
   10.7027    5.8235   -5.8400 C   0  0  0  0  0  0  0  0  0  0  0  0
    9.5151    6.6146   -5.8206 C   0  0  0  0  0  0  0  0  0  0  0  0
    9.5177    7.8846   -5.2863 C   0  0  0  0  0  0  0  0  0  0  0  0
   10.6997    8.4528   -4.7332 C   0  0  0  0  0  0  0  0  0  0  0  0
   10.7368    9.7603   -4.1733 C   0  0  0  0  0  0  0  0  0  0  0  0
   11.9063   10.2745   -3.6522 C   0  0  0  0  0  0  0  0  0  0  0  0
   13.0957    9.5021   -3.6693 C   0  0  0  0  0  0  0  0  0  0  0  0
   13.0924    8.2315   -4.2069 C   0  0  0  0  0  0  0  0  0  0  0  0
   11.9021    7.6706   -4.7505 C   0  0  0  0  0  0  0  0  0  0  0  0
   11.8641    6.3653   -5.3158 C   0  0  0  0  0  0  0  0  0  0  0  0
   10.7524    3.2179   -4.2233 N   0  0  0  0  0  0  0  0  0  0  0  0
   10.1728    4.0896   -3.2003 C   0  0  0  0  0  0  0  0  0  0  0  0
   11.8333    2.4168   -3.9484 C   0  0  0  0  0  0  0  0  0  0  0  0
   12.3249    1.6401   -4.7571 O   0  0  0  0  0  0  0  0  0  0  0  0
   12.2524    2.5897   -2.6848 O   0  0  0  0  0  0  0  0  0  0  0  0
   13.4118    1.8419   -2.0958 C   0  0  1  0  0  0  0  0  0  0  0  0
   13.0927    0.3484   -2.1077 C   0  0  0  0  0  0  0  0  0  0  0  0
   14.6716    2.1963   -2.8830 C   0  0  0  0  0  0  0  0  0  0  0  0
   13.5364    2.2982   -0.7511 N   0  0  0  0  0  0  0  0  0  0  0  0
    6.3902    5.9639    1.3845 H   0  0  0  0  0  0  0  0  0  0  0  0
    7.4365    6.9173    0.2873 H   0  0  0  0  0  0  0  0  0  0  0  0
    7.8371    5.2122    0.6459 H   0  0  0  0  0  0  0  0  0  0  0  0
    5.4258    5.9596   -0.9410 H   0  0  0  0  0  0  0  0  0  0  0  0
    3.6328    3.2784   -2.8609 H   0  0  0  0  0  0  0  0  0  0  0  0
    3.7671    4.3300   -1.4514 H   0  0  0  0  0  0  0  0  0  0  0  0
    4.9275    2.5055   -0.1657 H   0  0  0  0  0  0  0  0  0  0  0  0
    4.8679    1.4612   -1.5848 H   0  0  0  0  0  0  0  0  0  0  0  0
    2.3470    1.5180   -1.5224 H   0  0  0  0  0  0  0  0  0  0  0  0
    2.4034    2.5802   -0.1080 H   0  0  0  0  0  0  0  0  0  0  0  0
    3.5721    0.8287    1.2159 H   0  0  0  0  0  0  0  0  0  0  0  0
    3.5625   -0.2657   -0.1858 H   0  0  0  0  0  0  0  0  0  0  0  0
    1.1972   -0.5306    0.1063 H   0  0  0  0  0  0  0  0  0  0  0  0
   -0.5994   -0.8071    1.4204 H   0  0  0  0  0  0  0  0  0  0  0  0
   -0.9896    0.7714    2.1750 H   0  0  0  0  0  0  0  0  0  0  0  0
   -0.2678   -0.5107    3.1577 H   0  0  0  0  0  0  0  0  0  0  0  0
    7.1673    2.6415   -2.9845 H   0  0  0  0  0  0  0  0  0  0  0  0
    7.1624    1.0802   -7.3748 H   0  0  0  0  0  0  0  0  0  0  0  0
    6.0634    2.4650   -7.2412 H   0  0  0  0  0  0  0  0  0  0  0  0
    3.6007    2.0160   -6.7492 H   0  0  0  0  0  0  0  0  0  0  0  0
    1.7073    0.4323   -7.0955 H   0  0  0  0  0  0  0  0  0  0  0  0
    2.1590   -1.9823   -7.5406 H   0  0  0  0  0  0  0  0  0  0  0  0
    4.5193   -2.7910   -7.6632 H   0  0  0  0  0  0  0  0  0  0  0  0
    6.3955   -1.2021   -7.3504 H   0  0  0  0  0  0  0  0  0  0  0  0
    8.6940   -0.1613   -5.5755 H   0  0  0  0  0  0  0  0  0  0  0  0
    8.7175    0.3022   -3.8537 H   0  0  0  0  0  0  0  0  0  0  0  0
   10.0260    0.8236   -4.9404 H   0  0  0  0  0  0  0  0  0  0  0  0
   10.1372    4.4272   -7.3789 H   0  0  0  0  0  0  0  0  0  0  0  0
   11.7628    4.2014   -6.7177 H   0  0  0  0  0  0  0  0  0  0  0  0
    8.5985    6.1840   -6.2253 H   0  0  0  0  0  0  0  0  0  0  0  0
    8.5988    8.4782   -5.2849 H   0  0  0  0  0  0  0  0  0  0  0  0
    9.8188   10.3550   -4.1646 H   0  0  0  0  0  0  0  0  0  0  0  0
   11.9212   11.2810   -3.2259 H   0  0  0  0  0  0  0  0  0  0  0  0
   14.0175    9.9197   -3.2560 H   0  0  0  0  0  0  0  0  0  0  0  0
   14.0100    7.6364   -4.2235 H   0  0  0  0  0  0  0  0  0  0  0  0
   12.7911    5.7838   -5.3363 H   0  0  0  0  0  0  0  0  0  0  0  0
    9.3194    4.6227   -3.6345 H   0  0  0  0  0  0  0  0  0  0  0  0
   10.8992    4.8370   -2.8504 H   0  0  0  0  0  0  0  0  0  0  0  0
    9.8155    3.5140   -2.3354 H   0  0  0  0  0  0  0  0  0  0  0  0
   12.9764   -0.0156   -3.1355 H   0  0  0  0  0  0  0  0  0  0  0  0
   12.1593    0.1566   -1.5541 H   0  0  0  0  0  0  0  0  0  0  0  0
   13.9066   -0.1997   -1.6117 H   0  0  0  0  0  0  0  0  0  0  0  0
   14.5771    1.8811   -3.9292 H   0  0  0  0  0  0  0  0  0  0  0  0
   15.5386    1.6994   -2.4244 H   0  0  0  0  0  0  0  0  0  0  0  0
   14.8416    3.2847   -2.8542 H   0  0  0  0  0  0  0  0  0  0  0  0
   12.6880    2.1096   -0.2181 H   0  0  0  0  0  0  0  0  0  0  0  0
   13.7087    3.3024   -0.7177 H   0  0  0  0  0  0  0  0  0  0  0  0
  1  2  1  0
  1 53  1  0
  1 54  1  0
  1 55  1  0
  2  3  1  0
  2 56  1  0
  3  4  2  0
  3  5  1  0
  5  6  1  6
  5  7  1  0
  5 15  1  0
  7  8  1  0
  7 57  1  0
  7 58  1  0
  8  9  1  0
  8 59  1  0
  8 60  1  0
  9 10  1  0
  9 61  1  0
  9 62  1  0
 10 11  1  0
 10 63  1  0
 10 64  1  0
 11 12  1  0
 11 65  1  0
 12 13  1  0
 12 14  2  0
 13 66  1  0
 13 67  1  0
 13 68  1  0
 15 16  1  0
 15 69  1  0
 16 17  2  0
 16 18  1  0
 18 19  1  1
 18 20  1  0
 18 27  1  0
 20 21  1  0
 20 70  1  0
 20 71  1  0
 21 22  2  0
 21 26  1  0
 22 23  1  0
 22 72  1  0
 23 24  2  0
 23 73  1  0
 24 25  1  0
 24 74  1  0
 25 26  2  0
 25 75  1  0
 26 76  1  0
 27 28  1  0
 27 29  1  0
 28 77  1  0
 28 78  1  0
 28 79  1  0
 29 30  2  0
 29 31  1  0
 31 32  1  6
 31 33  1  0
 31 44  1  0
 33 34  1  0
 33 80  1  0
 33 81  1  0
 34 35  2  0
 34 43  1  0
 35 36  1  0
 35 82  1  0
 36 37  2  0
 36 83  1  0
 37 38  1  0
 37 42  1  0
 38 39  2  0
 38 84  1  0
 39 40  1  0
 39 85  1  0
 40 41  2  0
 40 86  1  0
 41 42  1  0
 41 87  1  0
 42 43  2  0
 43 88  1  0
 44 45  1  0
 44 46  1  0
 45 89  1  0
 45 90  1  0
 45 91  1  0
 46 47  2  0
 46 48  1  0
 49 48  1  6
 49 50  1  0
 49 51  1  0
 49 52  1  0
 50 92  1  0
 50 93  1  0
 50 94  1  0
 51 95  1  0
 51 96  1  0
 51 97  1  0
 52 98  1  0
 52 99  1  0
M  END

