
     RDKit          3D

 32 33  0  0  0  0  0  0  0  0999 V2000
    1.2346   -1.6472    0.4989 C   0  0  0  0  0  0  0  0  0  0  0  0
    2.2718   -0.6153    0.1842 C   0  0  0  0  0  0  0  0  0  0  0  0
    3.9744   -0.9490    0.4108 S   0  0  0  0  0  0  0  0  0  0  0  0
    4.4684    0.6215   -0.1911 C   0  0  0  0  0  0  0  0  0  0  0  0
    5.9110    1.1101   -0.1868 C   0  0  1  0  0  0  0  0  0  0  0  0
    7.0060    0.0722   -0.6239 C   0  0  1  0  0  0  0  0  0  0  0  0
    7.0474   -1.1897    0.0966 N   0  0  0  0  0  0  0  0  0  0  0  0
    6.9554   -0.1734   -2.1352 C   0  0  0  0  0  0  0  0  0  0  0  0
    7.0758    1.1466   -2.9031 C   0  0  0  0  0  0  0  0  0  0  0  0
    6.0136    2.1417   -2.4131 C   0  0  0  0  0  0  0  0  0  0  0  0
    6.0093    2.3508   -0.9642 N   0  0  0  0  0  0  0  0  0  0  0  0
    6.9761    3.3135   -0.4711 C   0  0  0  0  0  0  0  0  0  0  0  0
    3.3621    1.3572   -0.5291 C   0  0  0  0  0  0  0  0  0  0  0  0
    2.1354    0.6518   -0.3234 C   0  0  0  0  0  0  0  0  0  0  0  0
    0.4548    1.4434   -0.7363 Br  0  0  0  0  0  0  0  0  0  0  0  0
    1.4274   -2.1358    1.4672 H   0  0  0  0  0  0  0  0  0  0  0  0
    1.1979   -2.4382   -0.2700 H   0  0  0  0  0  0  0  0  0  0  0  0
    0.2418   -1.1771    0.5424 H   0  0  0  0  0  0  0  0  0  0  0  0
    6.1452    1.3752    0.8609 H   0  0  0  0  0  0  0  0  0  0  0  0
    7.9626    0.5858   -0.4144 H   0  0  0  0  0  0  0  0  0  0  0  0
    6.2891   -1.8139   -0.1720 H   0  0  0  0  0  0  0  0  0  0  0  0
    7.0100   -1.0654    1.1074 H   0  0  0  0  0  0  0  0  0  0  0  0
    6.0014   -0.6708   -2.3935 H   0  0  0  0  0  0  0  0  0  0  0  0
    7.7625   -0.8728   -2.4065 H   0  0  0  0  0  0  0  0  0  0  0  0
    6.9581    0.9808   -3.9875 H   0  0  0  0  0  0  0  0  0  0  0  0
    8.0868    1.5671   -2.7578 H   0  0  0  0  0  0  0  0  0  0  0  0
    5.0200    1.7668   -2.7150 H   0  0  0  0  0  0  0  0  0  0  0  0
    6.1390    3.1224   -2.8993 H   0  0  0  0  0  0  0  0  0  0  0  0
    6.8641    4.2623   -1.0205 H   0  0  0  0  0  0  0  0  0  0  0  0
    8.0418    3.0071   -0.5592 H   0  0  0  0  0  0  0  0  0  0  0  0
    6.7826    3.5264    0.5927 H   0  0  0  0  0  0  0  0  0  0  0  0
    3.4281    2.3808   -0.8931 H   0  0  0  0  0  0  0  0  0  0  0  0
  1  2  1  0
  1 16  1  0
  1 17  1  0
  1 18  1  0
  2  3  1  0
  2 14  2  0
  3  4  1  0
  4  5  1  0
  4 13  2  0
  5  6  1  0
  5 11  1  0
  5 19  1  1
  6  7  1  0
  6  8  1  0
  6 20  1  6
  7 21  1  0
  7 22  1  0
  8  9  1  0
  8 23  1  0
  8 24  1  0
  9 10  1  0
  9 25  1  0
  9 26  1  0
 10 11  1  0
 10 27  1  0
 10 28  1  0
 11 12  1  0
 12 29  1  0
 12 30  1  0
 12 31  1  0
 13 14  1  0
 13 32  1  0
 14 15  1  0
M  END

