
     RDKit          3D

 34 35  0  0  0  0  0  0  0  0999 V2000
    1.0292   -0.5897    2.4518 N   0  0  0  0  0  0  0  0  0  0  0  0
    2.1475   -0.5906    2.1315 C   0  0  0  0  0  0  0  0  0  0  0  0
    3.5366   -0.5290    1.7870 C   0  0  0  0  0  0  0  0  0  0  0  0
    4.2905    0.4915    2.4165 C   0  0  0  0  0  0  0  0  0  0  0  0
    5.6495    0.6424    2.1918 C   0  0  0  0  0  0  0  0  0  0  0  0
    6.2859   -0.2494    1.3133 C   0  0  0  0  0  0  0  0  0  0  0  0
    5.5690   -1.2512    0.6799 C   0  0  0  0  0  0  0  0  0  0  0  0
    4.1751   -1.4338    0.8848 C   0  0  0  0  0  0  0  0  0  0  0  0
    3.5707   -2.4753    0.2239 N   0  0  0  0  0  0  0  0  0  0  0  0
    2.1483   -2.7553    0.0257 C   0  0  1  0  0  0  0  0  0  0  0  0
    1.4710   -1.7750   -0.9577 C   0  0  0  0  0  0  0  0  0  0  0  0
    1.9345   -1.9978   -2.3995 C   0  0  0  0  0  0  0  0  0  0  0  0
    1.7442   -3.3871   -2.8044 N   0  0  0  0  0  0  0  0  0  0  0  0
    1.3590   -3.7995   -4.0730 C   0  0  0  0  0  0  0  0  0  0  0  0
    0.7535   -2.8371   -4.8682 N   0  0  0  0  0  0  0  0  0  0  0  0
    1.5532   -4.9338   -4.4799 O   0  0  0  0  0  0  0  0  0  0  0  0
    2.4191   -4.3580   -1.9533 C   0  0  0  0  0  0  0  0  0  0  0  0
    1.9831   -4.1951   -0.4935 C   0  0  0  0  0  0  0  0  0  0  0  0
    3.7660    1.1640    3.0985 H   0  0  0  0  0  0  0  0  0  0  0  0
    6.2096    1.4358    2.6897 H   0  0  0  0  0  0  0  0  0  0  0  0
    7.3573   -0.1561    1.1174 H   0  0  0  0  0  0  0  0  0  0  0  0
    6.0824   -1.9320   -0.0054 H   0  0  0  0  0  0  0  0  0  0  0  0
    4.1980   -2.9853   -0.3861 H   0  0  0  0  0  0  0  0  0  0  0  0
    1.6422   -2.6813    0.9964 H   0  0  0  0  0  0  0  0  0  0  0  0
    1.6711   -0.7350   -0.6574 H   0  0  0  0  0  0  0  0  0  0  0  0
    0.3797   -1.9218   -0.8946 H   0  0  0  0  0  0  0  0  0  0  0  0
    3.0076   -1.7275   -2.4891 H   0  0  0  0  0  0  0  0  0  0  0  0
    1.4006   -1.3232   -3.0792 H   0  0  0  0  0  0  0  0  0  0  0  0
    0.1781   -2.1256   -4.4331 H   0  0  0  0  0  0  0  0  0  0  0  0
    0.3556   -3.2355   -5.7117 H   0  0  0  0  0  0  0  0  0  0  0  0
    3.5214   -4.2479   -2.0523 H   0  0  0  0  0  0  0  0  0  0  0  0
    2.1825   -5.3598   -2.3311 H   0  0  0  0  0  0  0  0  0  0  0  0
    2.5454   -4.8914    0.1497 H   0  0  0  0  0  0  0  0  0  0  0  0
    0.9182   -4.4651   -0.4141 H   0  0  0  0  0  0  0  0  0  0  0  0
  1  2  3  0
  2  3  1  0
  3  4  2  0
  3  8  1  0
  4  5  1  0
  4 19  1  0
  5  6  2  0
  5 20  1  0
  6  7  1  0
  6 21  1  0
  7  8  2  0
  7 22  1  0
  8  9  1  0
  9 10  1  0
  9 23  1  0
 10 11  1  0
 10 18  1  0
 10 24  1  1
 11 12  1  0
 11 25  1  0
 11 26  1  0
 12 13  1  0
 12 27  1  0
 12 28  1  0
 13 14  1  0
 13 17  1  0
 14 15  1  0
 14 16  2  0
 15 29  1  0
 15 30  1  0
 17 18  1  0
 17 31  1  0
 17 32  1  0
 18 33  1  0
 18 34  1  0
M  END

