
     RDKit          3D

 32 34  0  0  0  0  0  0  0  0999 V2000
    3.4955    0.8936   -0.5433 O   0  0  0  0  0  0  0  0  0  0  0  0
    2.5154   -0.0036   -0.0546 C   0  0  1  0  0  0  0  0  0  0  0  0
    3.0063   -0.8310    1.1333 C   0  0  0  0  0  0  0  0  0  0  0  0
    4.0180   -0.3615    1.9844 C   0  0  0  0  0  0  0  0  0  0  0  0
    4.4354   -1.1294    3.0722 C   0  0  0  0  0  0  0  0  0  0  0  0
    3.8540   -2.3735    3.3296 C   0  0  0  0  0  0  0  0  0  0  0  0
    2.8497   -2.8598    2.4664 C   0  0  0  0  0  0  0  0  0  0  0  0
    2.4348   -2.0851    1.3814 C   0  0  0  0  0  0  0  0  0  0  0  0
    2.2704   -4.0833    2.6623 O   0  0  0  0  0  0  0  0  0  0  0  0
    2.9768   -4.9337    3.5518 C   0  0  0  0  0  0  0  0  0  0  0  0
    3.4177   -4.1591    4.7824 C   0  0  0  0  0  0  0  0  0  0  0  0
    4.2795   -3.0952    4.4103 O   0  0  0  0  0  0  0  0  0  0  0  0
    1.2693    0.8041    0.2767 C   0  0  0  0  0  0  0  0  0  0  0  0
    0.0202    0.4591   -0.2544 C   0  0  0  0  0  0  0  0  0  0  0  0
   -0.0615   -0.6205   -1.0547 F   0  0  0  0  0  0  0  0  0  0  0  0
   -1.1486    1.1705    0.0069 C   0  0  0  0  0  0  0  0  0  0  0  0
   -1.0785    2.2876    0.8406 C   0  0  0  0  0  0  0  0  0  0  0  0
    0.1411    2.6727    1.4021 C   0  0  0  0  0  0  0  0  0  0  0  0
    1.2830    1.9278    1.1163 C   0  0  0  0  0  0  0  0  0  0  0  0
    2.4363    2.3037    1.6812 F   0  0  0  0  0  0  0  0  0  0  0  0
    4.2966    0.3809   -0.7181 H   0  0  0  0  0  0  0  0  0  0  0  0
    2.2181   -0.7147   -0.8446 H   0  0  0  0  0  0  0  0  0  0  0  0
    4.4666    0.6144    1.7963 H   0  0  0  0  0  0  0  0  0  0  0  0
    5.2139   -0.7763    3.7522 H   0  0  0  0  0  0  0  0  0  0  0  0
    1.6558   -2.4911    0.7307 H   0  0  0  0  0  0  0  0  0  0  0  0
    3.8613   -5.3631    3.0439 H   0  0  0  0  0  0  0  0  0  0  0  0
    2.2952   -5.7538    3.8214 H   0  0  0  0  0  0  0  0  0  0  0  0
    3.9805   -4.8014    5.4756 H   0  0  0  0  0  0  0  0  0  0  0  0
    2.5307   -3.7614    5.3112 H   0  0  0  0  0  0  0  0  0  0  0  0
   -2.0846    0.8400   -0.4458 H   0  0  0  0  0  0  0  0  0  0  0  0
   -1.9821    2.8616    1.0578 H   0  0  0  0  0  0  0  0  0  0  0  0
    0.2279    3.5374    2.0619 H   0  0  0  0  0  0  0  0  0  0  0  0
  1  2  1  0
  1 21  1  0
  2  3  1  0
  2 13  1  0
  2 22  1  6
  3  4  2  0
  3  8  1  0
  4  5  1  0
  4 23  1  0
  5  6  2  0
  5 24  1  0
  6  7  1  0
  6 12  1  0
  7  8  2  0
  7  9  1  0
  8 25  1  0
  9 10  1  0
 10 11  1  0
 10 26  1  0
 10 27  1  0
 11 12  1  0
 11 28  1  0
 11 29  1  0
 13 14  2  0
 13 19  1  0
 14 15  1  0
 14 16  1  0
 16 17  2  0
 16 30  1  0
 17 18  1  0
 17 31  1  0
 18 19  2  0
 18 32  1  0
 19 20  1  0
M  END

