
     RDKit          3D

138137  0  0  0  0  0  0  0  0999 V2000
    1.6380   -2.2115   -0.3319 C   0  0  0  0  0  0  0  0  0  0  0  0
    3.1390   -1.9211   -0.2892 C   0  0  0  0  0  0  0  0  0  0  0  0
    3.4801   -0.4323   -0.4077 C   0  0  0  0  0  0  0  0  0  0  0  0
    4.9813   -0.1328   -0.3660 C   0  0  0  0  0  0  0  0  0  0  0  0
    5.3223    1.3556   -0.4847 C   0  0  0  0  0  0  0  0  0  0  0  0
    6.8239    1.6541   -0.4433 C   0  0  0  0  0  0  0  0  0  0  0  0
    7.1657    3.1422   -0.5625 C   0  0  0  0  0  0  0  0  0  0  0  0
    8.6676    3.4396   -0.5223 C   0  0  0  0  0  0  0  0  0  0  0  0
    9.0107    4.9274   -0.6420 C   0  0  0  0  0  0  0  0  0  0  0  0
   10.5129    5.2232   -0.6031 C   0  0  0  0  0  0  0  0  0  0  0  0
   10.8576    6.7106   -0.7231 C   0  0  0  0  0  0  0  0  0  0  0  0
   12.3603    7.0043   -0.6859 C   0  0  0  0  0  0  0  0  0  0  0  0
   12.7071    8.4912   -0.8064 C   0  0  0  0  0  0  0  0  0  0  0  0
   14.2103    8.7824   -0.7710 C   0  0  0  0  0  0  0  0  0  0  0  0
   14.5597   10.2686   -0.8918 C   0  0  0  0  0  0  0  0  0  0  0  0
   16.0635   10.5567   -0.8582 C   0  0  0  0  0  0  0  0  0  0  0  0
   16.4159   12.0422   -0.9794 C   0  0  0  0  0  0  0  0  0  0  0  0
   17.9205   12.3266   -0.9479 C   0  0  0  0  0  0  0  0  0  0  0  0
   18.2764   13.8113   -1.0693 C   0  0  0  0  0  0  0  0  0  0  0  0
   19.7818   14.0912   -1.0403 C   0  0  0  0  0  0  0  0  0  0  0  0
   20.1420   15.5764   -1.1622 C   0  0  0  0  0  0  0  0  0  0  0  0
   21.6552   15.8248   -1.1384 C   0  0  0  0  0  0  0  0  0  0  0  0
   22.1611   17.2922   -1.2191 C   0  0  1  0  0  0  0  0  0  0  0  0
   21.5819   17.9924   -2.4613 C   0  0  0  0  0  0  0  0  0  0  0  0
   21.7224   18.0906    0.0307 C   0  0  0  0  0  0  0  0  0  0  0  0
   22.3144   17.6542    1.2377 O   0  0  0  0  0  0  0  0  0  0  0  0
   23.7113   17.2291   -1.3016 C   0  0  0  0  0  0  0  0  0  0  0  0
   24.4838   18.5488   -1.1984 C   0  0  0  0  0  0  0  0  0  0  0  0
   25.9915   18.3692   -1.4099 C   0  0  0  0  0  0  0  0  0  0  0  0
   26.7960   19.6655   -1.2772 C   0  0  0  0  0  0  0  0  0  0  0  0
   28.3026   19.4835   -1.4841 C   0  0  0  0  0  0  0  0  0  0  0  0
   29.1113   20.7771   -1.3492 C   0  0  0  0  0  0  0  0  0  0  0  0
   30.6176   20.5905   -1.5542 C   0  0  0  0  0  0  0  0  0  0  0  0
   31.4299   21.8818   -1.4185 C   0  0  0  0  0  0  0  0  0  0  0  0
   32.9358   21.6912   -1.6219 C   0  0  0  0  0  0  0  0  0  0  0  0
   33.7511   22.9806   -1.4860 C   0  0  0  0  0  0  0  0  0  0  0  0
   35.2569   22.7865   -1.6878 C   0  0  0  0  0  0  0  0  0  0  0  0
   36.0745   24.0745   -1.5523 C   0  0  0  0  0  0  0  0  0  0  0  0
   37.5800   23.8777   -1.7530 C   0  0  0  0  0  0  0  0  0  0  0  0
   38.3995   25.1646   -1.6178 C   0  0  0  0  0  0  0  0  0  0  0  0
   39.9049   24.9659   -1.8178 C   0  0  0  0  0  0  0  0  0  0  0  0
   40.7255   26.2520   -1.6828 C   0  0  0  0  0  0  0  0  0  0  0  0
   42.2308   26.0521   -1.8822 C   0  0  0  0  0  0  0  0  0  0  0  0
   43.0523   27.3374   -1.7476 C   0  0  0  0  0  0  0  0  0  0  0  0
   44.5580   27.1373   -1.9470 C   0  0  0  0  0  0  0  0  0  0  0  0
   45.3711   28.4255   -1.8109 C   0  0  0  0  0  0  0  0  0  0  0  0
    1.4304   -3.2900   -0.2444 H   0  0  0  0  0  0  0  0  0  0  0  0
    1.1887   -1.8621   -1.2768 H   0  0  0  0  0  0  0  0  0  0  0  0
    1.1075   -1.7031    0.4909 H   0  0  0  0  0  0  0  0  0  0  0  0
    3.6450   -2.4745   -1.1014 H   0  0  0  0  0  0  0  0  0  0  0  0
    3.5646   -2.3166    0.6512 H   0  0  0  0  0  0  0  0  0  0  0  0
    2.9743    0.1226    0.4048 H   0  0  0  0  0  0  0  0  0  0  0  0
    3.0547   -0.0354   -1.3487 H   0  0  0  0  0  0  0  0  0  0  0  0
    5.4865   -0.6881   -1.1783 H   0  0  0  0  0  0  0  0  0  0  0  0
    5.4062   -0.5300    0.5749 H   0  0  0  0  0  0  0  0  0  0  0  0
    4.8177    1.9112    0.3278 H   0  0  0  0  0  0  0  0  0  0  0  0
    4.8974    1.7531   -1.4254 H   0  0  0  0  0  0  0  0  0  0  0  0
    7.3285    1.0981   -1.2556 H   0  0  0  0  0  0  0  0  0  0  0  0
    7.2488    1.2568    0.4975 H   0  0  0  0  0  0  0  0  0  0  0  0
    6.6620    3.6983    0.2501 H   0  0  0  0  0  0  0  0  0  0  0  0
    6.7405    3.5398   -1.5030 H   0  0  0  0  0  0  0  0  0  0  0  0
    9.1712    2.8831   -1.3347 H   0  0  0  0  0  0  0  0  0  0  0  0
    9.0927    3.0421    0.4183 H   0  0  0  0  0  0  0  0  0  0  0  0
    8.5082    5.4841    0.1711 H   0  0  0  0  0  0  0  0  0  0  0  0
    8.5849    5.3253   -1.5822 H   0  0  0  0  0  0  0  0  0  0  0  0
   11.0151    4.6661   -1.4160 H   0  0  0  0  0  0  0  0  0  0  0  0
   10.9384    4.8252    0.3371 H   0  0  0  0  0  0  0  0  0  0  0  0
   10.3568    7.2679    0.0905 H   0  0  0  0  0  0  0  0  0  0  0  0
   10.4314    7.1090   -1.6628 H   0  0  0  0  0  0  0  0  0  0  0  0
   12.8608    6.4465   -1.4994 H   0  0  0  0  0  0  0  0  0  0  0  0
   12.7863    6.6057    0.2538 H   0  0  0  0  0  0  0  0  0  0  0  0
   12.2081    9.0493    0.0078 H   0  0  0  0  0  0  0  0  0  0  0  0
   12.2804    8.8903   -1.7456 H   0  0  0  0  0  0  0  0  0  0  0  0
   14.7089    8.2237   -1.5851 H   0  0  0  0  0  0  0  0  0  0  0  0
   14.6368    8.3830    0.1682 H   0  0  0  0  0  0  0  0  0  0  0  0
   14.0628   10.8276   -0.0768 H   0  0  0  0  0  0  0  0  0  0  0  0
   14.1326   10.6686   -1.8304 H   0  0  0  0  0  0  0  0  0  0  0  0
   16.5599    9.9971   -1.6730 H   0  0  0  0  0  0  0  0  0  0  0  0
   16.4904   10.1564    0.0804 H   0  0  0  0  0  0  0  0  0  0  0  0
   15.9215   12.6023   -0.1638 H   0  0  0  0  0  0  0  0  0  0  0  0
   15.9885   12.4432   -1.9175 H   0  0  0  0  0  0  0  0  0  0  0  0
   18.4144   11.7660   -1.7635 H   0  0  0  0  0  0  0  0  0  0  0  0
   18.3476   11.9250   -0.0100 H   0  0  0  0  0  0  0  0  0  0  0  0
   17.7846   14.3724   -0.2528 H   0  0  0  0  0  0  0  0  0  0  0  0
   17.8487   14.2137   -2.0065 H   0  0  0  0  0  0  0  0  0  0  0  0
   20.2729   13.5299   -1.8570 H   0  0  0  0  0  0  0  0  0  0  0  0
   20.2098   13.6861   -0.1041 H   0  0  0  0  0  0  0  0  0  0  0  0
   19.6470   16.1309   -0.3445 H   0  0  0  0  0  0  0  0  0  0  0  0
   19.7085   15.9720   -2.0968 H   0  0  0  0  0  0  0  0  0  0  0  0
   22.1160   15.2620   -1.9703 H   0  0  0  0  0  0  0  0  0  0  0  0
   22.0750   15.3634   -0.2238 H   0  0  0  0  0  0  0  0  0  0  0  0
   20.4902   18.1209   -2.3891 H   0  0  0  0  0  0  0  0  0  0  0  0
   21.7893   17.4109   -3.3747 H   0  0  0  0  0  0  0  0  0  0  0  0
   22.0166   18.9946   -2.5986 H   0  0  0  0  0  0  0  0  0  0  0  0
   20.6163   18.0900    0.1013 H   0  0  0  0  0  0  0  0  0  0  0  0
   22.0214   19.1438   -0.0872 H   0  0  0  0  0  0  0  0  0  0  0  0
   22.0160   16.7534    1.4164 H   0  0  0  0  0  0  0  0  0  0  0  0
   23.9774   16.7273   -2.2501 H   0  0  0  0  0  0  0  0  0  0  0  0
   24.0698   16.5655   -0.4966 H   0  0  0  0  0  0  0  0  0  0  0  0
   24.3164   18.9945   -0.2033 H   0  0  0  0  0  0  0  0  0  0  0  0
   24.1061   19.2798   -1.9356 H   0  0  0  0  0  0  0  0  0  0  0  0
   26.1721   17.9288   -2.4085 H   0  0  0  0  0  0  0  0  0  0  0  0
   26.3742   17.6278   -0.6839 H   0  0  0  0  0  0  0  0  0  0  0  0
   26.6150   20.1056   -0.2789 H   0  0  0  0  0  0  0  0  0  0  0  0
   26.4152   20.4079   -2.0035 H   0  0  0  0  0  0  0  0  0  0  0  0
   28.4829   19.0437   -2.4829 H   0  0  0  0  0  0  0  0  0  0  0  0
   28.6821   18.7396   -0.7588 H   0  0  0  0  0  0  0  0  0  0  0  0
   28.9308   21.2173   -0.3507 H   0  0  0  0  0  0  0  0  0  0  0  0
   28.7336   21.5212   -2.0752 H   0  0  0  0  0  0  0  0  0  0  0  0
   30.7976   20.1501   -2.5527 H   0  0  0  0  0  0  0  0  0  0  0  0
   30.9942   19.8456   -0.8284 H   0  0  0  0  0  0  0  0  0  0  0  0
   31.2496   22.3229   -0.4204 H   0  0  0  0  0  0  0  0  0  0  0  0
   31.0550   22.6268   -2.1452 H   0  0  0  0  0  0  0  0  0  0  0  0
   33.1158   21.2499   -2.6200 H   0  0  0  0  0  0  0  0  0  0  0  0
   33.3098   20.9456   -0.8954 H   0  0  0  0  0  0  0  0  0  0  0  0
   33.5709   23.4225   -0.4881 H   0  0  0  0  0  0  0  0  0  0  0  0
   33.3787   23.7261   -2.2132 H   0  0  0  0  0  0  0  0  0  0  0  0
   35.4367   22.3440   -2.6855 H   0  0  0  0  0  0  0  0  0  0  0  0
   35.6287   22.0408   -0.9604 H   0  0  0  0  0  0  0  0  0  0  0  0
   35.8944   24.5174   -0.5549 H   0  0  0  0  0  0  0  0  0  0  0  0
   35.7039   24.8202   -2.2803 H   0  0  0  0  0  0  0  0  0  0  0  0
   37.7599   23.4343   -2.7502 H   0  0  0  0  0  0  0  0  0  0  0  0
   37.9502   23.1319   -1.0249 H   0  0  0  0  0  0  0  0  0  0  0  0
   38.2195   25.6083   -0.6208 H   0  0  0  0  0  0  0  0  0  0  0  0
   38.0301   25.9104   -2.3464 H   0  0  0  0  0  0  0  0  0  0  0  0
   40.0846   24.5218   -2.8147 H   0  0  0  0  0  0  0  0  0  0  0  0
   40.2739   24.2200   -1.0891 H   0  0  0  0  0  0  0  0  0  0  0  0
   40.5455   26.6962   -0.6860 H   0  0  0  0  0  0  0  0  0  0  0  0
   40.3569   26.9978   -2.4118 H   0  0  0  0  0  0  0  0  0  0  0  0
   42.4104   25.6075   -2.8790 H   0  0  0  0  0  0  0  0  0  0  0  0
   42.5989   25.3063   -1.1531 H   0  0  0  0  0  0  0  0  0  0  0  0
   42.8734   27.7824   -0.7507 H   0  0  0  0  0  0  0  0  0  0  0  0
   42.6849   28.0838   -2.4769 H   0  0  0  0  0  0  0  0  0  0  0  0
   44.7356   26.6925   -2.9432 H   0  0  0  0  0  0  0  0  0  0  0  0
   44.9240   26.3913   -1.2180 H   0  0  0  0  0  0  0  0  0  0  0  0
   45.0553   29.1793   -2.5519 H   0  0  0  0  0  0  0  0  0  0  0  0
   46.4476   28.2440   -1.9601 H   0  0  0  0  0  0  0  0  0  0  0  0
   45.2453   28.8755   -0.8117 H   0  0  0  0  0  0  0  0  0  0  0  0
  1  2  1  0
  1 47  1  0
  1 48  1  0
  1 49  1  0
  2  3  1  0
  2 50  1  0
  2 51  1  0
  3  4  1  0
  3 52  1  0
  3 53  1  0
  4  5  1  0
  4 54  1  0
  4 55  1  0
  5  6  1  0
  5 56  1  0
  5 57  1  0
  6  7  1  0
  6 58  1  0
  6 59  1  0
  7  8  1  0
  7 60  1  0
  7 61  1  0
  8  9  1  0
  8 62  1  0
  8 63  1  0
  9 10  1  0
  9 64  1  0
  9 65  1  0
 10 11  1  0
 10 66  1  0
 10 67  1  0
 11 12  1  0
 11 68  1  0
 11 69  1  0
 12 13  1  0
 12 70  1  0
 12 71  1  0
 13 14  1  0
 13 72  1  0
 13 73  1  0
 14 15  1  0
 14 74  1  0
 14 75  1  0
 15 16  1  0
 15 76  1  0
 15 77  1  0
 16 17  1  0
 16 78  1  0
 16 79  1  0
 17 18  1  0
 17 80  1  0
 17 81  1  0
 18 19  1  0
 18 82  1  0
 18 83  1  0
 19 20  1  0
 19 84  1  0
 19 85  1  0
 20 21  1  0
 20 86  1  0
 20 87  1  0
 21 22  1  0
 21 88  1  0
 21 89  1  0
 23 22  1  1
 22 90  1  0
 22 91  1  0
 23 24  1  0
 23 25  1  0
 23 27  1  0
 24 92  1  0
 24 93  1  0
 24 94  1  0
 25 26  1  0
 25 95  1  0
 25 96  1  0
 26 97  1  0
 27 28  1  0
 27 98  1  0
 27 99  1  0
 28 29  1  0
 28100  1  0
 28101  1  0
 29 30  1  0
 29102  1  0
 29103  1  0
 30 31  1  0
 30104  1  0
 30105  1  0
 31 32  1  0
 31106  1  0
 31107  1  0
 32 33  1  0
 32108  1  0
 32109  1  0
 33 34  1  0
 33110  1  0
 33111  1  0
 34 35  1  0
 34112  1  0
 34113  1  0
 35 36  1  0
 35114  1  0
 35115  1  0
 36 37  1  0
 36116  1  0
 36117  1  0
 37 38  1  0
 37118  1  0
 37119  1  0
 38 39  1  0
 38120  1  0
 38121  1  0
 39 40  1  0
 39122  1  0
 39123  1  0
 40 41  1  0
 40124  1  0
 40125  1  0
 41 42  1  0
 41126  1  0
 41127  1  0
 42 43  1  0
 42128  1  0
 42129  1  0
 43 44  1  0
 43130  1  0
 43131  1  0
 44 45  1  0
 44132  1  0
 44133  1  0
 45 46  1  0
 45134  1  0
 45135  1  0
 46136  1  0
 46137  1  0
 46138  1  0
M  END

