
     RDKit          3D

 44 45  0  0  0  0  0  0  0  0999 V2000
    0.1827  -10.2035   -6.4351 C   0  0  0  0  0  0  0  0  0  0  0  0
   -1.0420  -10.0891   -5.5077 C   0  0  1  0  0  0  0  0  0  0  0  0
   -2.1257   -9.2361   -6.2066 C   0  0  0  0  0  0  0  0  0  0  0  0
   -1.6000  -11.5044   -5.2325 C   0  0  0  0  0  0  0  0  0  0  0  0
   -0.6342   -9.4318   -4.1984 C   0  0  0  0  0  0  0  0  0  0  0  0
    0.5904   -8.9675   -3.7849 C   0  0  0  0  0  0  0  0  0  0  0  0
    0.6485   -8.4120   -2.5310 N   0  0  0  0  0  0  0  0  0  0  0  0
   -0.5096   -8.4349   -1.9430 C   0  0  0  0  0  0  0  0  0  0  0  0
   -0.7454   -7.8508   -0.5757 C   0  0  0  0  0  0  0  0  0  0  0  0
    0.4438   -8.0322    0.2504 N   0  0  0  0  0  0  0  0  0  0  0  0
    0.4797   -7.2497    1.4835 C   0  0  2  0  0  0  0  0  0  0  0  0
    0.0106   -6.2535    1.3749 H   0  0  0  0  0  0  0  0  0  0  0  0
    1.9528   -7.0580    1.9297 C   0  0  0  0  0  0  0  0  0  0  0  0
    2.1587   -6.1134    3.0930 C   0  0  0  0  0  0  0  0  0  0  0  0
    2.2172   -6.5844    4.4131 C   0  0  0  0  0  0  0  0  0  0  0  0
    2.4034   -5.7016    5.4798 C   0  0  0  0  0  0  0  0  0  0  0  0
    2.5336   -4.3303    5.2436 C   0  0  0  0  0  0  0  0  0  0  0  0
    2.4784   -3.8476    3.9327 C   0  0  0  0  0  0  0  0  0  0  0  0
    2.2941   -4.7339    2.8687 C   0  0  0  0  0  0  0  0  0  0  0  0
   -0.3177   -8.0061    2.5690 C   0  0  0  0  0  0  0  0  0  0  0  0
   -0.8000   -7.4830    3.5374 O   0  0  0  0  0  0  0  0  0  0  0  0
   -0.3741   -9.3244    2.3348 O   0  0  0  0  0  0  0  0  0  0  0  0
   -1.7812   -9.1540   -2.9013 S   0  0  0  0  0  0  0  0  0  0  0  0
   -0.1111  -10.6791   -7.3837 H   0  0  0  0  0  0  0  0  0  0  0  0
    0.9768  -10.8185   -5.9840 H   0  0  0  0  0  0  0  0  0  0  0  0
    0.6050   -9.2148   -6.6729 H   0  0  0  0  0  0  0  0  0  0  0  0
   -2.4219   -9.7005   -7.1610 H   0  0  0  0  0  0  0  0  0  0  0  0
   -1.7551   -8.2210   -6.4188 H   0  0  0  0  0  0  0  0  0  0  0  0
   -3.0291   -9.1418   -5.5835 H   0  0  0  0  0  0  0  0  0  0  0  0
   -1.8905  -11.9917   -6.1772 H   0  0  0  0  0  0  0  0  0  0  0  0
   -2.4903  -11.4688   -4.5849 H   0  0  0  0  0  0  0  0  0  0  0  0
   -0.8477  -12.1373   -4.7364 H   0  0  0  0  0  0  0  0  0  0  0  0
    1.5008   -9.0140   -4.3827 H   0  0  0  0  0  0  0  0  0  0  0  0
   -1.6182   -8.3302   -0.1010 H   0  0  0  0  0  0  0  0  0  0  0  0
   -1.0076   -6.7760   -0.6906 H   0  0  0  0  0  0  0  0  0  0  0  0
    1.2698   -7.8897   -0.3319 H   0  0  0  0  0  0  0  0  0  0  0  0
    2.5029   -6.6739    1.0536 H   0  0  0  0  0  0  0  0  0  0  0  0
    2.3763   -8.0494    2.1606 H   0  0  0  0  0  0  0  0  0  0  0  0
    2.1113   -7.6541    4.6107 H   0  0  0  0  0  0  0  0  0  0  0  0
    2.4445   -6.0882    6.5013 H   0  0  0  0  0  0  0  0  0  0  0  0
    2.6798   -3.6398    6.0782 H   0  0  0  0  0  0  0  0  0  0  0  0
    2.5840   -2.7773    3.7369 H   0  0  0  0  0  0  0  0  0  0  0  0
    2.2604   -4.3481    1.8450 H   0  0  0  0  0  0  0  0  0  0  0  0
    0.0496   -9.4324    1.4476 H   0  0  0  0  0  0  0  0  0  0  0  0
  2  1  1  6
  1 24  1  0
  1 25  1  0
  1 26  1  0
  2  3  1  0
  2  4  1  0
  2  5  1  0
  3 27  1  0
  3 28  1  0
  3 29  1  0
  4 30  1  0
  4 31  1  0
  4 32  1  0
  5  6  2  0
  5 23  1  0
  6  7  1  0
  6 33  1  0
  7  8  2  0
  8  9  1  0
  8 23  1  0
  9 10  1  0
  9 34  1  0
  9 35  1  0
 10 11  1  0
 10 36  1  0
 11 12  1  6
 11 13  1  0
 11 20  1  0
 13 14  1  0
 13 37  1  0
 13 38  1  0
 14 15  2  0
 14 19  1  0
 15 16  1  0
 15 39  1  0
 16 17  2  0
 16 40  1  0
 17 18  1  0
 17 41  1  0
 18 19  2  0
 18 42  1  0
 19 43  1  0
 20 21  2  0
 20 22  1  0
 22 44  1  0
M  END

