
     RDKit          3D

 46 48  0  0  0  0  0  0  0  0999 V2000
    2.4047    1.1081   -0.4606 C   0  0  0  0  0  0  0  0  0  0  0  0
    2.6740   -0.2147    0.0527 N   0  0  0  0  0  0  0  0  0  0  0  0
    3.3204   -0.4637    1.2190 C   0  0  0  0  0  0  0  0  0  0  0  0
    3.7349    0.5867    1.9384 N   0  0  0  0  0  0  0  0  0  0  0  0
    4.3638    0.2690    3.0842 C   0  0  0  0  0  0  0  0  0  0  0  0
    4.7982    1.3021    3.8748 N   0  0  0  0  0  0  0  0  0  0  0  0
    5.5362    1.0736    5.1083 C   0  0  0  0  0  0  0  0  0  0  0  0
    6.9915    1.5293    4.9908 C   0  0  0  0  0  0  0  0  0  0  0  0
    7.1387    3.3129    4.5935 S   0  0  0  0  0  0  0  0  0  0  0  0
    5.9994    3.3586    3.1387 C   0  0  2  0  0  0  0  0  0  0  0  0
    5.8253    4.8129    2.7099 C   0  0  0  0  0  0  0  0  0  0  0  0
    4.6560    2.6921    3.4665 C   0  0  0  0  0  0  0  0  0  0  0  0
    4.5882   -0.9837    3.5088 N   0  0  0  0  0  0  0  0  0  0  0  0
    4.1330   -1.9609    2.7049 C   0  0  0  0  0  0  0  0  0  0  0  0
    4.3499   -3.2595    3.0917 N   0  0  0  0  0  0  0  0  0  0  0  0
    4.9999   -3.5950    4.3498 C   0  0  0  0  0  0  0  0  0  0  0  0
    4.0355   -4.2751    5.3229 C   0  0  0  0  0  0  0  0  0  0  0  0
    3.3313   -5.8261    4.6459 S   0  0  0  0  0  0  0  0  0  0  0  0
    2.7437   -5.1651    3.0230 C   0  0  2  0  0  0  0  0  0  0  0  0
    2.2385   -6.3338    2.1816 C   0  0  0  0  0  0  0  0  0  0  0  0
    3.8548   -4.3827    2.3096 C   0  0  0  0  0  0  0  0  0  0  0  0
    3.4873   -1.7555    1.5479 N   0  0  0  0  0  0  0  0  0  0  0  0
    1.8697    1.0148   -1.4161 H   0  0  0  0  0  0  0  0  0  0  0  0
    3.3332    1.6780   -0.6334 H   0  0  0  0  0  0  0  0  0  0  0  0
    1.7821    1.6978    0.2332 H   0  0  0  0  0  0  0  0  0  0  0  0
    2.3802   -1.0337   -0.4629 H   0  0  0  0  0  0  0  0  0  0  0  0
    5.4911    0.0021    5.3360 H   0  0  0  0  0  0  0  0  0  0  0  0
    5.0463    1.6300    5.9280 H   0  0  0  0  0  0  0  0  0  0  0  0
    7.5162    0.9327    4.2264 H   0  0  0  0  0  0  0  0  0  0  0  0
    7.5170    1.3932    5.9487 H   0  0  0  0  0  0  0  0  0  0  0  0
    6.4787    2.7872    2.3254 H   0  0  0  0  0  0  0  0  0  0  0  0
    5.3476    5.4067    3.5060 H   0  0  0  0  0  0  0  0  0  0  0  0
    5.1913    4.8727    1.8101 H   0  0  0  0  0  0  0  0  0  0  0  0
    6.7949    5.2780    2.4746 H   0  0  0  0  0  0  0  0  0  0  0  0
    4.0084    2.7151    2.5811 H   0  0  0  0  0  0  0  0  0  0  0  0
    4.1649    3.2589    4.2794 H   0  0  0  0  0  0  0  0  0  0  0  0
    5.3888   -2.6680    4.7869 H   0  0  0  0  0  0  0  0  0  0  0  0
    5.8492   -4.2730    4.1471 H   0  0  0  0  0  0  0  0  0  0  0  0
    3.2206   -3.5845    5.5956 H   0  0  0  0  0  0  0  0  0  0  0  0
    4.5603   -4.5643    6.2467 H   0  0  0  0  0  0  0  0  0  0  0  0
    1.9113   -4.4712    3.2311 H   0  0  0  0  0  0  0  0  0  0  0  0
    3.0521   -7.0433    1.9592 H   0  0  0  0  0  0  0  0  0  0  0  0
    1.8315   -5.9680    1.2247 H   0  0  0  0  0  0  0  0  0  0  0  0
    1.4404   -6.8848    2.7026 H   0  0  0  0  0  0  0  0  0  0  0  0
    3.4733   -3.9846    1.3610 H   0  0  0  0  0  0  0  0  0  0  0  0
    4.6931   -5.0711    2.0929 H   0  0  0  0  0  0  0  0  0  0  0  0
  1  2  1  0
  1 23  1  0
  1 24  1  0
  1 25  1  0
  2  3  1  0
  2 26  1  0
  3  4  2  0
  3 22  1  0
  4  5  1  0
  5  6  1  0
  5 13  2  0
  6  7  1  0
  6 12  1  0
  7  8  1  0
  7 27  1  0
  7 28  1  0
  8  9  1  0
  8 29  1  0
  8 30  1  0
  9 10  1  0
 10 11  1  0
 10 12  1  0
 10 31  1  6
 11 32  1  0
 11 33  1  0
 11 34  1  0
 12 35  1  0
 12 36  1  0
 13 14  1  0
 14 15  1  0
 14 22  2  0
 15 16  1  0
 15 21  1  0
 16 17  1  0
 16 37  1  0
 16 38  1  0
 17 18  1  0
 17 39  1  0
 17 40  1  0
 18 19  1  0
 19 20  1  0
 19 21  1  0
 19 41  1  1
 20 42  1  0
 20 43  1  0
 20 44  1  0
 21 45  1  0
 21 46  1  0
M  END

