
     RDKit          3D

 35 35  0  0  0  0  0  0  0  0999 V2000
    0.5423   -0.4765    0.4472 C   0  0  0  0  0  0  0  0  0  0  0  0
    1.9837   -0.3325   -0.0595 C   0  0  1  0  0  0  0  0  0  0  0  0
    2.2299    1.0968   -0.5635 C   0  0  0  0  0  0  0  0  0  0  0  0
    3.0032   -0.7734    1.0236 C   0  0  1  0  0  0  0  0  0  0  0  0
    2.8272   -2.1425    1.5136 N   0  0  0  0  0  0  0  0  0  0  0  0
    4.4622   -0.6323    0.5483 C   0  0  0  0  0  0  0  0  0  0  0  0
    5.3270   -1.1385    1.6101 N   0  0  0  0  0  0  0  0  0  0  0  0
    6.9522   -1.3517    1.3589 S   0  0  1  0  0  0  0  0  0  0  0  0
    7.3620   -2.5385    2.1063 O   0  0  0  0  0  0  0  0  0  0  0  0
    7.2589   -1.1895   -0.0663 O   0  0  0  0  0  0  0  0  0  0  0  0
    7.7012    0.0766    2.1904 C   0  0  0  0  0  0  0  0  0  0  0  0
    8.5312    0.9039    1.4392 C   0  0  0  0  0  0  0  0  0  0  0  0
    9.1821    1.9809    2.0537 C   0  0  0  0  0  0  0  0  0  0  0  0
    9.0065    2.2304    3.4136 C   0  0  0  0  0  0  0  0  0  0  0  0
    8.1729    1.3938    4.1527 C   0  0  0  0  0  0  0  0  0  0  0  0
    7.9995    1.6339    5.4511 F   0  0  0  0  0  0  0  0  0  0  0  0
    7.5052    0.3023    3.5722 C   0  0  0  0  0  0  0  0  0  0  0  0
    6.6522   -0.5032    4.3958 C   0  0  0  0  0  0  0  0  0  0  0  0
    5.9613   -1.1209    5.0936 N   0  0  0  0  0  0  0  0  0  0  0  0
   -0.1802   -0.2167   -0.3422 H   0  0  0  0  0  0  0  0  0  0  0  0
    0.3553    0.1953    1.3029 H   0  0  0  0  0  0  0  0  0  0  0  0
    0.3200   -1.5043    0.7716 H   0  0  0  0  0  0  0  0  0  0  0  0
    2.1122   -1.0225   -0.9170 H   0  0  0  0  0  0  0  0  0  0  0  0
    2.2074    1.8200    0.2702 H   0  0  0  0  0  0  0  0  0  0  0  0
    1.4473    1.3959   -1.2786 H   0  0  0  0  0  0  0  0  0  0  0  0
    3.1964    1.2047   -1.0781 H   0  0  0  0  0  0  0  0  0  0  0  0
    2.8818   -0.1106    1.8997 H   0  0  0  0  0  0  0  0  0  0  0  0
    2.6764   -2.7988    0.7458 H   0  0  0  0  0  0  0  0  0  0  0  0
    2.0391   -2.2275    2.1508 H   0  0  0  0  0  0  0  0  0  0  0  0
    4.7028    0.4208    0.3457 H   0  0  0  0  0  0  0  0  0  0  0  0
    4.6061   -1.1884   -0.3972 H   0  0  0  0  0  0  0  0  0  0  0  0
    4.9047   -1.9411    2.0923 H   0  0  0  0  0  0  0  0  0  0  0  0
    8.6579    0.6916    0.3771 H   0  0  0  0  0  0  0  0  0  0  0  0
    9.8336    2.6297    1.4638 H   0  0  0  0  0  0  0  0  0  0  0  0
    9.5001    3.0615    3.9204 H   0  0  0  0  0  0  0  0  0  0  0  0
  1  2  1  0
  1 20  1  0
  1 21  1  0
  1 22  1  0
  2  3  1  0
  2  4  1  0
  2 23  1  6
  3 24  1  0
  3 25  1  0
  3 26  1  0
  4  5  1  0
  4  6  1  0
  4 27  1  1
  5 28  1  0
  5 29  1  0
  6  7  1  0
  6 30  1  0
  6 31  1  0
  8  7  1  6
  7 32  1  0
  8  9  2  0
  8 10  2  0
  8 11  1  0
 11 12  2  0
 11 17  1  0
 12 13  1  0
 12 33  1  0
 13 14  2  0
 13 34  1  0
 14 15  1  0
 14 35  1  0
 15 16  1  0
 15 17  2  0
 17 18  1  0
 18 19  3  0
M  END

