
     RDKit          3D

 21 21  0  0  0  0  0  0  0  0999 V2000
    2.3655    0.2422    1.3898 N   0  0  0  0  0  0  0  0  0  0  0  0
    2.4291   -0.0553   -0.0271 C   0  0  1  0  0  0  0  0  0  0  0  0
    2.8261   -1.4777   -0.4313 C   0  0  0  0  0  0  0  0  0  0  0  0
    3.7430   -1.6677   -1.4774 C   0  0  0  0  0  0  0  0  0  0  0  0
    4.1309   -2.9460   -1.8801 C   0  0  0  0  0  0  0  0  0  0  0  0
    5.3818   -3.1562   -3.3015 Br  0  0  0  0  0  0  0  0  0  0  0  0
    3.6129   -4.0801   -1.2479 C   0  0  0  0  0  0  0  0  0  0  0  0
    2.7091   -3.8823   -0.2168 C   0  0  0  0  0  0  0  0  0  0  0  0
    2.1718   -4.9382    0.4340 F   0  0  0  0  0  0  0  0  0  0  0  0
    2.2956   -2.6120    0.2099 C   0  0  0  0  0  0  0  0  0  0  0  0
    1.4084   -2.4966    1.2292 O   0  0  0  0  0  0  0  0  0  0  0  0
    1.1044    0.3635   -0.6860 C   0  0  1  0  0  0  0  0  0  0  0  0
    0.0546   -0.3040   -0.1797 F   0  0  0  0  0  0  0  0  0  0  0  0
    0.8733    1.6705   -0.5239 F   0  0  0  0  0  0  0  0  0  0  0  0
    1.1363    0.1209   -2.0103 F   0  0  0  0  0  0  0  0  0  0  0  0
    3.2926    0.1782    1.8055 H   0  0  0  0  0  0  0  0  0  0  0  0
    1.7677   -0.4310    1.8669 H   0  0  0  0  0  0  0  0  0  0  0  0
    3.1674    0.6253   -0.4807 H   0  0  0  0  0  0  0  0  0  0  0  0
    4.1564   -0.7954   -1.9866 H   0  0  0  0  0  0  0  0  0  0  0  0
    3.8966   -5.0926   -1.5356 H   0  0  0  0  0  0  0  0  0  0  0  0
    1.1424   -3.3847    1.5119 H   0  0  0  0  0  0  0  0  0  0  0  0
  1  2  1  0
  1 16  1  0
  1 17  1  0
  2  3  1  0
  2 12  1  0
  2 18  1  6
  3  4  2  0
  3 10  1  0
  4  5  1  0
  4 19  1  0
  5  6  1  0
  5  7  2  0
  7  8  1  0
  7 20  1  0
  8  9  1  0
  8 10  2  0
 10 11  1  0
 11 21  1  0
 12 13  1  1
 12 14  1  0
 12 15  1  0
M  END

