
     RDKit          3D

 47 49  0  0  0  0  0  0  0  0999 V2000
    2.1021   -2.1093   -2.0790 C   0  0  0  0  0  0  0  0  0  0  0  0
    2.1547   -0.9566   -1.2419 O   0  0  0  0  0  0  0  0  0  0  0  0
    2.8555    0.1476   -1.7226 C   0  0  2  0  0  0  0  0  0  0  0  0
    4.3543   -0.1043   -1.8271 C   0  0  0  0  0  0  0  0  0  0  0  0
    5.1722    1.1574   -2.0642 C   0  0  0  0  0  0  0  0  0  0  0  0
    6.1047    1.1544   -2.8455 O   0  0  0  0  0  0  0  0  0  0  0  0
    4.8325    2.3212   -1.2089 C   0  0  0  0  0  0  0  0  0  0  0  0
    5.7959    3.4806   -1.0587 C   0  0  0  0  0  0  0  0  0  0  0  0
    7.2794    3.1838   -1.0680 C   0  0  0  0  0  0  0  0  0  0  0  0
    5.3754    4.6108   -0.9274 O   0  0  0  0  0  0  0  0  0  0  0  0
    3.6381    2.3251   -0.5539 C   0  0  0  0  0  0  0  0  0  0  0  0
    3.3616    3.2989    0.3570 O   0  0  0  0  0  0  0  0  0  0  0  0
    2.4580    1.3940   -0.8274 C   0  0  2  0  0  0  0  0  0  0  0  0
    1.7613    0.9758    0.4856 C   0  0  0  0  0  0  0  0  0  0  0  0
    1.5023    2.1226   -1.7828 C   0  0  0  0  0  0  0  0  0  0  0  0
    0.7286    3.2825   -1.6336 C   0  0  0  0  0  0  0  0  0  0  0  0
    0.7895    4.0596   -0.5187 O   0  0  0  0  0  0  0  0  0  0  0  0
   -0.1467    3.6739   -2.6666 C   0  0  0  0  0  0  0  0  0  0  0  0
   -1.0122    4.9024   -2.5274 C   0  0  0  0  0  0  0  0  0  0  0  0
   -0.1864    2.9132   -3.8528 C   0  0  0  0  0  0  0  0  0  0  0  0
   -1.0407    3.2755   -4.8415 O   0  0  0  0  0  0  0  0  0  0  0  0
    0.6333    1.7750   -4.0727 C   0  0  0  0  0  0  0  0  0  0  0  0
    0.5949    0.9074   -5.2988 C   0  0  0  0  0  0  0  0  0  0  0  0
    0.1607    1.4977   -6.6277 C   0  0  0  0  0  0  0  0  0  0  0  0
    0.9219   -0.2636   -5.2346 O   0  0  0  0  0  0  0  0  0  0  0  0
    1.4784    1.4429   -3.0007 C   0  0  0  0  0  0  0  0  0  0  0  0
    2.3953    0.4506   -3.0472 O   0  0  0  0  0  0  0  0  0  0  0  0
    1.4195   -2.8126   -1.5832 H   0  0  0  0  0  0  0  0  0  0  0  0
    3.0908   -2.5906   -2.1784 H   0  0  0  0  0  0  0  0  0  0  0  0
    1.7152   -1.8549   -3.0777 H   0  0  0  0  0  0  0  0  0  0  0  0
    4.5668   -0.8024   -2.6464 H   0  0  0  0  0  0  0  0  0  0  0  0
    4.6968   -0.5569   -0.8811 H   0  0  0  0  0  0  0  0  0  0  0  0
    7.8226    4.0947   -0.7842 H   0  0  0  0  0  0  0  0  0  0  0  0
    7.5812    2.8520   -2.0722 H   0  0  0  0  0  0  0  0  0  0  0  0
    7.5244    2.3604   -0.3771 H   0  0  0  0  0  0  0  0  0  0  0  0
    2.7643    2.9205    1.0225 H   0  0  0  0  0  0  0  0  0  0  0  0
    2.4595    0.4836    1.1810 H   0  0  0  0  0  0  0  0  0  0  0  0
    0.9549    0.2701    0.2624 H   0  0  0  0  0  0  0  0  0  0  0  0
    1.2916    1.8419    0.9804 H   0  0  0  0  0  0  0  0  0  0  0  0
    1.7137    4.0981   -0.2129 H   0  0  0  0  0  0  0  0  0  0  0  0
   -0.7625    5.4433   -1.6067 H   0  0  0  0  0  0  0  0  0  0  0  0
   -2.0884    4.6528   -2.4772 H   0  0  0  0  0  0  0  0  0  0  0  0
   -0.8682    5.6066   -3.3675 H   0  0  0  0  0  0  0  0  0  0  0  0
   -1.5445    4.0511   -4.5618 H   0  0  0  0  0  0  0  0  0  0  0  0
    0.4935    0.8180   -7.4235 H   0  0  0  0  0  0  0  0  0  0  0  0
    0.5598    2.5102   -6.7842 H   0  0  0  0  0  0  0  0  0  0  0  0
   -0.9363    1.5824   -6.6590 H   0  0  0  0  0  0  0  0  0  0  0  0
  1  2  1  0
  1 28  1  0
  1 29  1  0
  1 30  1  0
  3  2  1  1
  3  4  1  0
  3 13  1  0
  3 27  1  0
  4  5  1  0
  4 31  1  0
  4 32  1  0
  5  6  2  0
  5  7  1  0
  7  8  1  0
  7 11  2  0
  8  9  1  0
  8 10  2  0
  9 33  1  0
  9 34  1  0
  9 35  1  0
 11 12  1  0
 11 13  1  0
 12 36  1  0
 13 14  1  1
 13 15  1  0
 14 37  1  0
 14 38  1  0
 14 39  1  0
 15 16  2  0
 15 26  1  0
 16 17  1  0
 16 18  1  0
 17 40  1  0
 18 19  1  0
 18 20  2  0
 19 41  1  0
 19 42  1  0
 19 43  1  0
 20 21  1  0
 20 22  1  0
 21 44  1  0
 22 23  1  0
 22 26  2  0
 23 24  1  0
 23 25  2  0
 24 45  1  0
 24 46  1  0
 24 47  1  0
 26 27  1  0
M  END

