
     RDKit          3D

 32 33  0  0  0  0  0  0  0  0999 V2000
    2.4391    1.6643    0.9315 N   0  0  0  0  0  0  0  0  0  0  0  0
    3.0537    0.7721    0.5056 C   0  0  0  0  0  0  0  0  0  0  0  0
    3.8318   -0.2575   -0.1049 C   0  0  0  0  0  0  0  0  0  0  0  0
    4.0747   -1.4847    0.4302 C   0  0  0  0  0  0  0  0  0  0  0  0
    3.6623   -2.1103    1.6802 C   0  0  0  0  0  0  0  0  0  0  0  0
    4.1491   -3.4118    1.9270 C   0  0  0  0  0  0  0  0  0  0  0  0
    3.8033   -4.0866    3.0983 C   0  0  0  0  0  0  0  0  0  0  0  0
    2.9741   -3.4814    4.0394 C   0  0  0  0  0  0  0  0  0  0  0  0
    2.4808   -2.1860    3.8049 C   0  0  0  0  0  0  0  0  0  0  0  0
    1.6458   -1.6878    4.7634 O   0  0  0  0  0  0  0  0  0  0  0  0
    1.2997   -0.3494    4.8043 C   0  0  0  0  0  0  0  0  0  0  0  0
   -0.0450   -0.0106    4.6365 C   0  0  0  0  0  0  0  0  0  0  0  0
   -0.4349    1.3269    4.7513 C   0  0  0  0  0  0  0  0  0  0  0  0
    0.5130    2.3171    5.0246 C   0  0  0  0  0  0  0  0  0  0  0  0
    1.8566    1.9654    5.1912 C   0  0  0  0  0  0  0  0  0  0  0  0
    2.2565    0.6312    5.0879 C   0  0  0  0  0  0  0  0  0  0  0  0
    2.8163   -1.5010    2.6350 C   0  0  0  0  0  0  0  0  0  0  0  0
    4.4513    0.0334   -1.4649 C   0  0  0  0  0  0  0  0  0  0  0  0
    4.1895    1.2655   -1.9751 N   0  0  0  0  0  0  0  0  0  0  0  0
    5.1330   -0.7962   -2.0406 O   0  0  0  0  0  0  0  0  0  0  0  0
    4.7056   -2.1011   -0.2196 H   0  0  0  0  0  0  0  0  0  0  0  0
    4.8016   -3.8871    1.1915 H   0  0  0  0  0  0  0  0  0  0  0  0
    4.1848   -5.0937    3.2819 H   0  0  0  0  0  0  0  0  0  0  0  0
    2.6884   -3.9879    4.9634 H   0  0  0  0  0  0  0  0  0  0  0  0
   -0.7680   -0.8006    4.4242 H   0  0  0  0  0  0  0  0  0  0  0  0
   -1.4864    1.5949    4.6213 H   0  0  0  0  0  0  0  0  0  0  0  0
    0.2063    3.3623    5.1069 H   0  0  0  0  0  0  0  0  0  0  0  0
    2.6014    2.7350    5.4081 H   0  0  0  0  0  0  0  0  0  0  0  0
    3.3010    0.3446    5.2275 H   0  0  0  0  0  0  0  0  0  0  0  0
    2.4152   -0.5028    2.4682 H   0  0  0  0  0  0  0  0  0  0  0  0
    3.6211    1.9495   -1.4917 H   0  0  0  0  0  0  0  0  0  0  0  0
    4.5837    1.4967   -2.8786 H   0  0  0  0  0  0  0  0  0  0  0  0
  1  2  3  0
  2  3  1  0
  3  4  2  0
  3 18  1  0
  4  5  1  0
  4 21  1  0
  5  6  2  0
  5 17  1  0
  6  7  1  0
  6 22  1  0
  7  8  2  0
  7 23  1  0
  8  9  1  0
  8 24  1  0
  9 10  1  0
  9 17  2  0
 10 11  1  0
 11 12  2  0
 11 16  1  0
 12 13  1  0
 12 25  1  0
 13 14  2  0
 13 26  1  0
 14 15  1  0
 14 27  1  0
 15 16  2  0
 15 28  1  0
 16 29  1  0
 17 30  1  0
 18 19  1  0
 18 20  2  0
 19 31  1  0
 19 32  1  0
M  END

