
     RDKit          3D

 36 36  0  0  0  0  0  0  0  0999 V2000
    3.9575   -1.5622   -2.1957 C   0  0  0  0  0  0  0  0  0  0  0  0
    3.8643   -0.6550   -0.9922 C   0  0  0  0  0  0  0  0  0  0  0  0
    4.5745    0.5514   -0.9695 C   0  0  0  0  0  0  0  0  0  0  0  0
    4.4741    1.3958    0.1350 C   0  0  0  0  0  0  0  0  0  0  0  0
    5.4363    3.0456    0.1472 Br  0  0  0  0  0  0  0  0  0  0  0  0
    3.6891    1.0485    1.2322 C   0  0  0  0  0  0  0  0  0  0  0  0
    2.9815   -0.1624    1.2485 C   0  0  0  0  0  0  0  0  0  0  0  0
    2.1767   -0.5407    2.4633 C   0  0  0  0  0  0  0  0  0  0  0  0
    3.0635   -1.0053    0.1179 C   0  0  0  0  0  0  0  0  0  0  0  0
    2.3820   -2.2531    0.0936 N   0  0  0  0  0  0  0  0  0  0  0  0
    0.9972   -2.3778    0.1483 C   0  0  0  0  0  0  0  0  0  0  0  0
    0.2531   -1.4168    0.2861 O   0  0  0  0  0  0  0  0  0  0  0  0
    0.5132   -3.6690    0.0476 N   0  0  0  0  0  0  0  0  0  0  0  0
    1.3699   -4.8285   -0.1228 C   0  0  0  0  0  0  0  0  0  0  0  0
   -0.9387   -3.8254    0.0687 C   0  0  0  0  0  0  0  0  0  0  0  0
   -1.6263   -3.3927   -1.2308 C   0  0  0  0  0  0  0  0  0  0  0  0
   -3.1013   -3.7691   -1.2479 C   0  0  0  0  0  0  0  0  0  0  0  0
   -3.5896   -4.6109   -0.5437 O   0  0  0  0  0  0  0  0  0  0  0  0
   -3.8596   -3.1105   -2.1535 O   0  0  0  0  0  0  0  0  0  0  0  0
    4.5168   -1.0810   -3.0101 H   0  0  0  0  0  0  0  0  0  0  0  0
    2.9588   -1.8284   -2.5789 H   0  0  0  0  0  0  0  0  0  0  0  0
    4.4788   -2.5089   -1.9636 H   0  0  0  0  0  0  0  0  0  0  0  0
    5.1949    0.8346   -1.8216 H   0  0  0  0  0  0  0  0  0  0  0  0
    3.6355    1.7137    2.0958 H   0  0  0  0  0  0  0  0  0  0  0  0
    2.4588    0.0733    3.3304 H   0  0  0  0  0  0  0  0  0  0  0  0
    2.3292   -1.6009    2.7214 H   0  0  0  0  0  0  0  0  0  0  0  0
    1.1009   -0.4144    2.2675 H   0  0  0  0  0  0  0  0  0  0  0  0
    2.9080   -3.0333   -0.2779 H   0  0  0  0  0  0  0  0  0  0  0  0
    2.1820   -4.8428    0.6242 H   0  0  0  0  0  0  0  0  0  0  0  0
    1.8244   -4.8942   -1.1310 H   0  0  0  0  0  0  0  0  0  0  0  0
    0.7772   -5.7407    0.0268 H   0  0  0  0  0  0  0  0  0  0  0  0
   -1.3504   -3.2315    0.8976 H   0  0  0  0  0  0  0  0  0  0  0  0
   -1.1766   -4.8782    0.2699 H   0  0  0  0  0  0  0  0  0  0  0  0
   -1.1520   -3.8853   -2.1000 H   0  0  0  0  0  0  0  0  0  0  0  0
   -1.4988   -2.3064   -1.3657 H   0  0  0  0  0  0  0  0  0  0  0  0
   -3.3314   -2.4404   -2.6105 H   0  0  0  0  0  0  0  0  0  0  0  0
  1  2  1  0
  1 20  1  0
  1 21  1  0
  1 22  1  0
  2  3  2  0
  2  9  1  0
  3  4  1  0
  3 23  1  0
  4  5  1  0
  4  6  2  0
  6  7  1  0
  6 24  1  0
  7  8  1  0
  7  9  2  0
  8 25  1  0
  8 26  1  0
  8 27  1  0
  9 10  1  0
 10 11  1  0
 10 28  1  0
 11 12  2  0
 11 13  1  0
 13 14  1  0
 13 15  1  0
 14 29  1  0
 14 30  1  0
 14 31  1  0
 15 16  1  0
 15 32  1  0
 15 33  1  0
 16 17  1  0
 16 34  1  0
 16 35  1  0
 17 18  2  0
 17 19  1  0
 19 36  1  0
M  END

