
     RDKit          3D

 42 43  0  0  0  0  0  0  0  0999 V2000
    5.7877    4.6491    1.9405 C   0  0  0  0  0  0  0  0  0  0  0  0
    5.6500    3.1748    1.5484 C   0  0  1  0  0  0  0  0  0  0  0  0
    6.0317    2.2564    2.6425 N   0  0  0  0  0  0  0  0  0  0  0  0
    4.2808    2.7785    0.9933 C   0  0  0  0  0  0  0  0  0  0  0  0
    3.2271    3.6969    0.9037 C   0  0  0  0  0  0  0  0  0  0  0  0
    2.0024    3.3587    0.3211 C   0  0  0  0  0  0  0  0  0  0  0  0
    1.8236    2.0749   -0.1942 C   0  0  0  0  0  0  0  0  0  0  0  0
    2.8464    1.1296   -0.1123 C   0  0  0  0  0  0  0  0  0  0  0  0
    4.0723    1.4610    0.4927 C   0  0  0  0  0  0  0  0  0  0  0  0
    5.1148    0.5311    0.6433 N   0  0  0  0  0  0  0  0  0  0  0  0
    5.2851   -0.6714    0.0002 C   0  0  0  0  0  0  0  0  0  0  0  0
    4.5415   -1.0802   -0.8810 O   0  0  0  0  0  0  0  0  0  0  0  0
    6.4885   -1.4762    0.4405 C   0  0  0  0  0  0  0  0  0  0  0  0
    7.2904   -1.1594    1.5503 C   0  0  0  0  0  0  0  0  0  0  0  0
    8.3681   -1.9913    1.8593 C   0  0  0  0  0  0  0  0  0  0  0  0
    8.6636   -3.1178    1.0929 C   0  0  0  0  0  0  0  0  0  0  0  0
    7.8674   -3.4552   -0.0309 C   0  0  0  0  0  0  0  0  0  0  0  0
    8.1439   -4.5669   -0.8066 N   0  0  0  0  0  0  0  0  0  0  0  0
    7.2839   -4.8998   -1.9240 C   0  0  0  0  0  0  0  0  0  0  0  0
    9.2466   -5.4361   -0.4595 C   0  0  0  0  0  0  0  0  0  0  0  0
    6.7743   -2.6093   -0.3280 C   0  0  0  0  0  0  0  0  0  0  0  0
    6.8156    4.8464    2.2854 H   0  0  0  0  0  0  0  0  0  0  0  0
    5.1020    4.9171    2.7609 H   0  0  0  0  0  0  0  0  0  0  0  0
    5.5884    5.3222    1.0926 H   0  0  0  0  0  0  0  0  0  0  0  0
    6.3795    2.9815    0.7383 H   0  0  0  0  0  0  0  0  0  0  0  0
    5.3644    2.3263    3.4132 H   0  0  0  0  0  0  0  0  0  0  0  0
    6.9473    2.5087    3.0171 H   0  0  0  0  0  0  0  0  0  0  0  0
    3.3624    4.7104    1.2834 H   0  0  0  0  0  0  0  0  0  0  0  0
    1.2017    4.0999    0.2630 H   0  0  0  0  0  0  0  0  0  0  0  0
    0.8769    1.7973   -0.6654 H   0  0  0  0  0  0  0  0  0  0  0  0
    2.7201    0.1300   -0.5208 H   0  0  0  0  0  0  0  0  0  0  0  0
    5.7592    0.7879    1.3965 H   0  0  0  0  0  0  0  0  0  0  0  0
    7.0866   -0.2933    2.1827 H   0  0  0  0  0  0  0  0  0  0  0  0
    8.9970   -1.7615    2.7239 H   0  0  0  0  0  0  0  0  0  0  0  0
    9.5152   -3.7360    1.3750 H   0  0  0  0  0  0  0  0  0  0  0  0
    6.2429   -5.1030   -1.6096 H   0  0  0  0  0  0  0  0  0  0  0  0
    7.6666   -5.8001   -2.4219 H   0  0  0  0  0  0  0  0  0  0  0  0
    7.2474   -4.0902   -2.6753 H   0  0  0  0  0  0  0  0  0  0  0  0
   10.2159   -4.9032   -0.4650 H   0  0  0  0  0  0  0  0  0  0  0  0
    9.3136   -6.2513   -1.1915 H   0  0  0  0  0  0  0  0  0  0  0  0
    9.1279   -5.8933    0.5421 H   0  0  0  0  0  0  0  0  0  0  0  0
    6.1076   -2.8077   -1.1649 H   0  0  0  0  0  0  0  0  0  0  0  0
  1  2  1  0
  1 22  1  0
  1 23  1  0
  1 24  1  0
  2  3  1  0
  2  4  1  0
  2 25  1  6
  3 26  1  0
  3 27  1  0
  4  5  2  0
  4  9  1  0
  5  6  1  0
  5 28  1  0
  6  7  2  0
  6 29  1  0
  7  8  1  0
  7 30  1  0
  8  9  2  0
  8 31  1  0
  9 10  1  0
 10 11  1  0
 10 32  1  0
 11 12  2  0
 11 13  1  0
 13 14  2  0
 13 21  1  0
 14 15  1  0
 14 33  1  0
 15 16  2  0
 15 34  1  0
 16 17  1  0
 16 35  1  0
 17 18  1  0
 17 21  2  0
 18 19  1  0
 18 20  1  0
 19 36  1  0
 19 37  1  0
 19 38  1  0
 20 39  1  0
 20 40  1  0
 20 41  1  0
 21 42  1  0
M  END

