
     RDKit          3D

 55 57  0  0  0  0  0  0  0  0999 V2000
    4.6962    4.8729   -1.4237 C   0  0  0  0  0  0  0  0  0  0  0  0
    6.1831    4.7853   -1.7664 C   0  0  0  0  0  0  0  0  0  0  0  0
    7.1184    5.1156   -0.5960 C   0  0  0  0  0  0  0  0  0  0  0  0
    6.9970    4.1982    0.5234 N   0  0  0  0  0  0  0  0  0  0  0  0
    6.6075    4.5881    1.7645 C   0  0  0  0  0  0  0  0  0  0  0  0
    6.2815    5.7280    2.0541 O   0  0  0  0  0  0  0  0  0  0  0  0
    6.5171    3.5046    2.8585 C   0  0  1  0  0  0  0  0  0  0  0  0
    5.0517    3.2454    3.2295 C   0  0  0  0  0  0  0  0  0  0  0  0
    7.3155    1.8842    2.4846 S   0  0  0  0  0  0  0  0  0  0  0  0
    9.0362    2.3134    2.7283 C   0  0  0  0  0  0  0  0  0  0  0  0
    9.3630    3.5033    3.0928 N   0  0  0  0  0  0  0  0  0  0  0  0
   10.6988    3.8085    3.2679 C   0  0  0  0  0  0  0  0  0  0  0  0
   11.0682    5.1100    3.6701 C   0  0  0  0  0  0  0  0  0  0  0  0
   12.4081    5.4285    3.8474 C   0  0  0  0  0  0  0  0  0  0  0  0
   13.4133    4.4659    3.6292 C   0  0  0  0  0  0  0  0  0  0  0  0
   13.0651    3.1818    3.2307 C   0  0  0  0  0  0  0  0  0  0  0  0
   11.7117    2.8457    3.0483 C   0  0  0  0  0  0  0  0  0  0  0  0
   11.3429    1.4863    2.6259 C   0  0  0  0  0  0  0  0  0  0  0  0
   12.1222    0.5836    2.3984 O   0  0  0  0  0  0  0  0  0  0  0  0
    9.9372    1.2833    2.4920 N   0  0  0  0  0  0  0  0  0  0  0  0
    9.4912   -0.0322    2.1022 C   0  0  0  0  0  0  0  0  0  0  0  0
    9.0456   -0.9335    3.0602 C   0  0  0  0  0  0  0  0  0  0  0  0
    8.6235   -2.2114    2.6672 C   0  0  0  0  0  0  0  0  0  0  0  0
    8.6595   -2.5949    1.3253 C   0  0  0  0  0  0  0  0  0  0  0  0
    8.2777   -3.8008    0.8523 O   0  0  0  0  0  0  0  0  0  0  0  0
    7.8101   -4.7766    1.7556 C   0  0  0  0  0  0  0  0  0  0  0  0
    9.1340   -1.6720    0.3474 C   0  0  0  0  0  0  0  0  0  0  0  0
    9.1479   -2.1238   -0.9270 O   0  0  0  0  0  0  0  0  0  0  0  0
    9.6435   -1.2850   -1.9449 C   0  0  0  0  0  0  0  0  0  0  0  0
    9.5416   -0.4012    0.7469 C   0  0  0  0  0  0  0  0  0  0  0  0
    4.0700    4.6378   -2.2988 H   0  0  0  0  0  0  0  0  0  0  0  0
    4.4261    5.8826   -1.0742 H   0  0  0  0  0  0  0  0  0  0  0  0
    4.4290    4.1657   -0.6224 H   0  0  0  0  0  0  0  0  0  0  0  0
    6.4216    5.4805   -2.5906 H   0  0  0  0  0  0  0  0  0  0  0  0
    6.4214    3.7751   -2.1492 H   0  0  0  0  0  0  0  0  0  0  0  0
    6.8979    6.1169   -0.1970 H   0  0  0  0  0  0  0  0  0  0  0  0
    8.1649    5.1251   -0.9506 H   0  0  0  0  0  0  0  0  0  0  0  0
    7.2587    3.2249    0.4000 H   0  0  0  0  0  0  0  0  0  0  0  0
    7.0597    3.9213    3.7167 H   0  0  0  0  0  0  0  0  0  0  0  0
    4.4981    2.7727    2.4022 H   0  0  0  0  0  0  0  0  0  0  0  0
    4.5768    4.2119    3.4512 H   0  0  0  0  0  0  0  0  0  0  0  0
    4.9744    2.5981    4.1153 H   0  0  0  0  0  0  0  0  0  0  0  0
   10.2764    5.8438    3.8318 H   0  0  0  0  0  0  0  0  0  0  0  0
   12.6856    6.4388    4.1596 H   0  0  0  0  0  0  0  0  0  0  0  0
   14.4633    4.7309    3.7732 H   0  0  0  0  0  0  0  0  0  0  0  0
   13.8173    2.4108    3.0516 H   0  0  0  0  0  0  0  0  0  0  0  0
    9.0223   -0.6477    4.1129 H   0  0  0  0  0  0  0  0  0  0  0  0
    8.2705   -2.9084    3.4267 H   0  0  0  0  0  0  0  0  0  0  0  0
    7.5636   -5.6633    1.1565 H   0  0  0  0  0  0  0  0  0  0  0  0
    6.9023   -4.4412    2.2895 H   0  0  0  0  0  0  0  0  0  0  0  0
    8.5798   -5.0496    2.5001 H   0  0  0  0  0  0  0  0  0  0  0  0
    9.5814   -1.8581   -2.8796 H   0  0  0  0  0  0  0  0  0  0  0  0
   10.6963   -1.0009   -1.7667 H   0  0  0  0  0  0  0  0  0  0  0  0
    9.0399   -0.3647   -2.0501 H   0  0  0  0  0  0  0  0  0  0  0  0
    9.9156    0.3181    0.0201 H   0  0  0  0  0  0  0  0  0  0  0  0
  1  2  1  0
  1 31  1  0
  1 32  1  0
  1 33  1  0
  2  3  1  0
  2 34  1  0
  2 35  1  0
  3  4  1  0
  3 36  1  0
  3 37  1  0
  4  5  1  0
  4 38  1  0
  5  6  2  0
  5  7  1  0
  7  8  1  0
  7  9  1  0
  7 39  1  1
  8 40  1  0
  8 41  1  0
  8 42  1  0
  9 10  2  0
 10 11  1  0
 10 20  1  0
 11 12  2  0
 12 13  1  0
 12 17  1  0
 13 14  2  0
 13 43  1  0
 14 15  1  0
 14 44  1  0
 15 16  2  0
 15 45  1  0
 16 17  1  0
 16 46  1  0
 17 18  2  0
 18 19  1  0
 18 20  1  0
 20 21  1  0
 21 22  2  0
 21 30  1  0
 22 23  1  0
 22 47  1  0
 23 24  2  0
 23 48  1  0
 24 25  1  0
 24 27  1  0
 25 26  1  0
 26 49  1  0
 26 50  1  0
 26 51  1  0
 27 28  1  0
 27 30  2  0
 28 29  1  0
 29 52  1  0
 29 53  1  0
 29 54  1  0
 30 55  1  0
M  CHG  2   9   1  19  -1
M  END

