
     RDKit          3D

 43 45  0  0  0  0  0  0  0  0999 V2000
    2.5906    4.5236   -1.3654 C   0  0  0  0  0  0  0  0  0  0  0  0
    3.0379    3.0918   -1.0499 C   0  0  1  0  0  0  0  0  0  0  0  0
    3.2341    3.0347    0.0340 H   0  0  0  0  0  0  0  0  0  0  0  0
    1.9425    2.0645   -1.3778 C   0  0  0  0  0  0  0  0  0  0  0  0
    1.7032    1.9677   -2.7653 O   0  0  0  0  0  0  0  0  0  0  0  0
    2.8328    1.4729   -3.4638 C   0  0  0  0  0  0  0  0  0  0  0  0
    4.0488    2.3871   -3.2929 C   0  0  0  0  0  0  0  0  0  0  0  0
    4.3515    2.7216   -1.8167 C   0  0  2  0  0  0  0  0  0  0  0  0
    5.0114    3.5982   -1.7653 H   0  0  0  0  0  0  0  0  0  0  0  0
    5.0842    1.5796   -1.1279 C   0  0  0  0  0  0  0  0  0  0  0  0
    5.0842    0.4322   -1.5344 O   0  0  0  0  0  0  0  0  0  0  0  0
    5.7893    1.8564    0.0579 N   0  0  0  0  0  0  0  0  0  0  0  0
    6.0192    3.0926    0.6892 C   0  0  0  0  0  0  0  0  0  0  0  0
    5.7362    4.1927    0.3049 O   0  0  0  0  0  0  0  0  0  0  0  0
    6.6522    2.8507    1.8587 O   0  0  0  0  0  0  0  0  0  0  0  0
    6.6743    1.4440    2.1382 C   0  0  0  0  0  0  0  0  0  0  0  0
    6.4900    0.7772    0.7684 C   0  0  2  0  0  0  0  0  0  0  0  0
    7.8127    0.3829    0.0737 C   0  0  0  0  0  0  0  0  0  0  0  0
    8.4804   -0.8114    0.7189 C   0  0  0  0  0  0  0  0  0  0  0  0
    7.9596   -2.1026    0.5220 C   0  0  0  0  0  0  0  0  0  0  0  0
    8.5478   -3.2127    1.1318 C   0  0  0  0  0  0  0  0  0  0  0  0
    9.6717   -3.0529    1.9498 C   0  0  0  0  0  0  0  0  0  0  0  0
   10.2029   -1.7765    2.1497 C   0  0  0  0  0  0  0  0  0  0  0  0
    9.6103   -0.6661    1.5389 C   0  0  0  0  0  0  0  0  0  0  0  0
    1.6984    4.7861   -0.7741 H   0  0  0  0  0  0  0  0  0  0  0  0
    2.3244    4.6369   -2.4268 H   0  0  0  0  0  0  0  0  0  0  0  0
    3.3857    5.2428   -1.1180 H   0  0  0  0  0  0  0  0  0  0  0  0
    0.9903    2.3647   -0.9118 H   0  0  0  0  0  0  0  0  0  0  0  0
    2.2164    1.0697   -0.9675 H   0  0  0  0  0  0  0  0  0  0  0  0
    2.5424    1.4133   -4.5242 H   0  0  0  0  0  0  0  0  0  0  0  0
    3.0787    0.4524   -3.1158 H   0  0  0  0  0  0  0  0  0  0  0  0
    3.8593    3.3337   -3.8238 H   0  0  0  0  0  0  0  0  0  0  0  0
    4.9279    1.9227   -3.7671 H   0  0  0  0  0  0  0  0  0  0  0  0
    5.8505    1.2081    2.8319 H   0  0  0  0  0  0  0  0  0  0  0  0
    7.6290    1.1957    2.6192 H   0  0  0  0  0  0  0  0  0  0  0  0
    5.8354   -0.1028    0.8234 H   0  0  0  0  0  0  0  0  0  0  0  0
    8.4908    1.2521    0.0814 H   0  0  0  0  0  0  0  0  0  0  0  0
    7.5749    0.1550   -0.9755 H   0  0  0  0  0  0  0  0  0  0  0  0
    7.0883   -2.2369   -0.1263 H   0  0  0  0  0  0  0  0  0  0  0  0
    8.1311   -4.2091    0.9628 H   0  0  0  0  0  0  0  0  0  0  0  0
   10.1343   -3.9219    2.4244 H   0  0  0  0  0  0  0  0  0  0  0  0
   11.0857   -1.6422    2.7803 H   0  0  0  0  0  0  0  0  0  0  0  0
   10.0417    0.3279    1.6913 H   0  0  0  0  0  0  0  0  0  0  0  0
  1  2  1  0
  1 25  1  0
  1 26  1  0
  1 27  1  0
  2  3  1  1
  2  4  1  0
  2  8  1  0
  4  5  1  0
  4 28  1  0
  4 29  1  0
  5  6  1  0
  6  7  1  0
  6 30  1  0
  6 31  1  0
  7  8  1  0
  7 32  1  0
  7 33  1  0
  8  9  1  6
  8 10  1  0
 10 11  2  0
 10 12  1  0
 12 13  1  0
 12 17  1  0
 13 14  2  0
 13 15  1  0
 15 16  1  0
 16 17  1  0
 16 34  1  0
 16 35  1  0
 17 18  1  0
 17 36  1  1
 18 19  1  0
 18 37  1  0
 18 38  1  0
 19 20  2  0
 19 24  1  0
 20 21  1  0
 20 39  1  0
 21 22  2  0
 21 40  1  0
 22 23  1  0
 22 41  1  0
 23 24  2  0
 23 42  1  0
 24 43  1  0
M  END

