
     RDKit          3D

 30 30  0  0  0  0  0  0  0  0999 V2000
    1.8545    0.5212   -4.0376 C   0  0  0  0  0  0  0  0  0  0  0  0
    3.5489    0.3517   -3.5078 S   0  0  1  0  0  0  0  0  0  0  0  0
    3.5903   -0.0405   -2.0960 O   0  0  0  0  0  0  0  0  0  0  0  0
    4.3200   -0.4203   -4.4764 O   0  0  0  0  0  0  0  0  0  0  0  0
    3.9506    1.9393   -3.6371 O   0  0  0  0  0  0  0  0  0  0  0  0
    5.3159    2.2716   -3.3265 C   0  0  0  0  0  0  0  0  0  0  0  0
    5.4571    2.8189   -1.9112 C   0  0  2  0  0  0  0  0  0  0  0  0
    4.9684    2.1408   -1.1966 H   0  0  0  0  0  0  0  0  0  0  0  0
    4.8079    4.0901   -1.7673 O   0  0  0  0  0  0  0  0  0  0  0  0
    5.8914    5.3646   -1.8866 S   0  0  0  0  0  0  0  0  0  0  0  0
    6.2343    5.5500   -3.3025 O   0  0  0  0  0  0  0  0  0  0  0  0
    7.0931    4.4185   -1.1782 O   0  0  0  0  0  0  0  0  0  0  0  0
    6.9560    3.0439   -1.5384 C   0  0  1  0  0  0  0  0  0  0  0  0
    7.6044    2.8254   -2.4051 H   0  0  0  0  0  0  0  0  0  0  0  0
    7.4036    2.2133   -0.3430 C   0  0  0  0  0  0  0  0  0  0  0  0
    7.2069    0.8378   -0.6913 O   0  0  0  0  0  0  0  0  0  0  0  0
    6.6510   -0.1548    0.5297 S   0  0  1  0  0  0  0  0  0  0  0  0
    6.1093   -1.4965   -0.5119 C   0  0  0  0  0  0  0  0  0  0  0  0
    7.7875   -0.5675    1.3412 O   0  0  0  0  0  0  0  0  0  0  0  0
    5.5075    0.5095    1.1527 O   0  0  0  0  0  0  0  0  0  0  0  0
    1.4198   -0.4862   -3.9933 H   0  0  0  0  0  0  0  0  0  0  0  0
    1.8521    0.9073   -5.0641 H   0  0  0  0  0  0  0  0  0  0  0  0
    1.3441    1.2017   -3.3453 H   0  0  0  0  0  0  0  0  0  0  0  0
    5.6213    3.0345   -4.0563 H   0  0  0  0  0  0  0  0  0  0  0  0
    5.9580    1.3844   -3.4509 H   0  0  0  0  0  0  0  0  0  0  0  0
    8.4655    2.3946   -0.1163 H   0  0  0  0  0  0  0  0  0  0  0  0
    6.7932    2.4840    0.5328 H   0  0  0  0  0  0  0  0  0  0  0  0
    6.9745   -1.8458   -1.0890 H   0  0  0  0  0  0  0  0  0  0  0  0
    5.2918   -1.1370   -1.1514 H   0  0  0  0  0  0  0  0  0  0  0  0
    5.7615   -2.2794    0.1755 H   0  0  0  0  0  0  0  0  0  0  0  0
  1  2  1  0
  1 21  1  0
  1 22  1  0
  1 23  1  0
  2  3  2  0
  2  4  2  0
  2  5  1  1
  5  6  1  0
  6  7  1  0
  6 24  1  0
  6 25  1  0
  7  8  1  1
  7  9  1  0
  7 13  1  0
  9 10  1  0
 10 11  1  6
 10 12  1  0
 12 13  1  0
 13 14  1  6
 13 15  1  0
 15 16  1  0
 15 26  1  0
 15 27  1  0
 17 16  1  6
 17 18  1  0
 17 19  2  0
 17 20  2  0
 18 28  1  0
 18 29  1  0
 18 30  1  0
M  CHG  2  10   1  11  -1
M  END

