
     RDKit          3D

 24 26  0  0  0  0  0  0  0  0999 V2000
    1.2061   -0.3915   -0.0667 N   0  0  0  0  0  0  0  0  0  0  0  0
    2.3311   -0.1015   -0.0675 C   0  0  0  0  0  0  0  0  0  0  0  0
    3.7686    0.0045   -0.0702 C   0  0  0  0  0  0  0  0  0  0  0  0
    4.4588   -1.2126   -0.0717 C   0  0  0  0  0  0  0  0  0  0  0  0
    5.8617   -1.2511   -0.0743 C   0  0  0  0  0  0  0  0  0  0  0  0
    6.5808   -0.0698   -0.0755 C   0  0  0  0  0  0  0  0  0  0  0  0
    5.9209    1.1824   -0.0741 C   0  0  0  0  0  0  0  0  0  0  0  0
    6.6840    2.4025   -0.0754 C   0  0  0  0  0  0  0  0  0  0  0  0
    6.0783    3.6229   -0.0741 C   0  0  0  0  0  0  0  0  0  0  0  0
    4.6476    3.7254   -0.0713 C   0  0  0  0  0  0  0  0  0  0  0  0
    3.9718    4.9675   -0.0699 C   0  0  0  0  0  0  0  0  0  0  0  0
    2.5895    4.9952   -0.0672 C   0  0  0  0  0  0  0  0  0  0  0  0
    1.8964    3.7654   -0.0660 C   0  0  0  0  0  0  0  0  0  0  0  0
    2.5044    2.5949   -0.0674 N   0  0  0  0  0  0  0  0  0  0  0  0
    3.8490    2.5413   -0.0700 C   0  0  0  0  0  0  0  0  0  0  0  0
    4.4936    1.2364   -0.0714 C   0  0  0  0  0  0  0  0  0  0  0  0
    3.8846   -2.1408   -0.0707 H   0  0  0  0  0  0  0  0  0  0  0  0
    6.3770   -2.2142   -0.0754 H   0  0  0  0  0  0  0  0  0  0  0  0
    7.6738   -0.0874   -0.0775 H   0  0  0  0  0  0  0  0  0  0  0  0
    7.7743    2.3264   -0.0774 H   0  0  0  0  0  0  0  0  0  0  0  0
    6.6718    4.5411   -0.0751 H   0  0  0  0  0  0  0  0  0  0  0  0
    4.5534    5.8938   -0.0709 H   0  0  0  0  0  0  0  0  0  0  0  0
    2.0387    5.9383   -0.0660 H   0  0  0  0  0  0  0  0  0  0  0  0
    0.7998    3.7489   -0.0639 H   0  0  0  0  0  0  0  0  0  0  0  0
  1  2  3  0
  2  3  1  0
  3  4  2  0
  3 16  1  0
  4  5  1  0
  4 17  1  0
  5  6  2  0
  5 18  1  0
  6  7  1  0
  6 19  1  0
  7  8  1  0
  7 16  2  0
  8  9  2  0
  8 20  1  0
  9 10  1  0
  9 21  1  0
 10 11  1  0
 10 15  2  0
 11 12  2  0
 11 22  1  0
 12 13  1  0
 12 23  1  0
 13 14  2  0
 13 24  1  0
 14 15  1  0
 15 16  1  0
M  END

