
     RDKit          3D

 41 42  0  0  0  0  0  0  0  0999 V2000
    1.2040    0.6993   -0.6334 C   0  0  0  0  0  0  0  0  0  0  0  0
    2.2986   -0.0537    0.1234 C   0  0  0  0  0  0  0  0  0  0  0  0
    2.7566   -1.2511   -0.5756 N   0  0  0  0  0  0  0  0  0  0  0  0
    4.1339   -1.6611   -0.3258 C   0  0  0  0  0  0  0  0  0  0  0  0
    4.3164   -2.4575    0.9777 C   0  0  0  0  0  0  0  0  0  0  0  0
    3.3659   -3.6607    1.0092 C   0  0  0  0  0  0  0  0  0  0  0  0
    1.9168   -3.2248    0.7464 C   0  0  2  0  0  0  0  0  0  0  0  0
    1.0555   -4.3931    0.6904 N   0  0  0  0  0  0  0  0  0  0  0  0
   -0.2728   -4.4391    0.9437 C   0  0  0  0  0  0  0  0  0  0  0  0
   -0.9944   -3.2875    1.3758 C   0  0  0  0  0  0  0  0  0  0  0  0
   -2.3482   -3.3312    1.6523 C   0  0  0  0  0  0  0  0  0  0  0  0
   -3.0950   -4.5213    1.5173 C   0  0  0  0  0  0  0  0  0  0  0  0
   -4.5610   -4.6466    1.8147 C   0  0  0  0  0  0  0  0  0  0  0  0
   -5.2595   -3.4697    1.9312 N   0  0  0  0  0  0  0  0  0  0  0  0
   -5.0977   -5.7312    1.9630 O   0  0  0  0  0  0  0  0  0  0  0  0
   -2.4161   -5.6662    1.1126 C   0  0  0  0  0  0  0  0  0  0  0  0
   -1.0496   -5.6428    0.8190 C   0  0  0  0  0  0  0  0  0  0  0  0
   -0.4575   -6.9054    0.3871 N   0  0  0  0  0  0  0  0  0  0  0  0
    0.7512   -6.9327    0.1194 O   0  0  0  0  0  0  0  0  0  0  0  0
   -1.1722   -7.8883    0.3022 O   0  0  0  0  0  0  0  0  0  0  0  0
    1.8505   -2.3873   -0.5618 C   0  0  0  0  0  0  0  0  0  0  0  0
    0.9355    1.6263   -0.1014 H   0  0  0  0  0  0  0  0  0  0  0  0
    0.2829    0.1030   -0.7349 H   0  0  0  0  0  0  0  0  0  0  0  0
    1.5475    0.9608   -1.6462 H   0  0  0  0  0  0  0  0  0  0  0  0
    1.9488   -0.2566    1.1614 H   0  0  0  0  0  0  0  0  0  0  0  0
    3.1702    0.6120    0.2324 H   0  0  0  0  0  0  0  0  0  0  0  0
    4.7790   -0.7683   -0.3317 H   0  0  0  0  0  0  0  0  0  0  0  0
    4.4619   -2.2925   -1.1736 H   0  0  0  0  0  0  0  0  0  0  0  0
    4.1191   -1.8030    1.8454 H   0  0  0  0  0  0  0  0  0  0  0  0
    5.3619   -2.7963    1.0722 H   0  0  0  0  0  0  0  0  0  0  0  0
    3.4285   -4.1973    1.9701 H   0  0  0  0  0  0  0  0  0  0  0  0
    3.6633   -4.3809    0.2231 H   0  0  0  0  0  0  0  0  0  0  0  0
    1.5973   -2.5896    1.5900 H   0  0  0  0  0  0  0  0  0  0  0  0
    1.4464   -5.2800    0.3728 H   0  0  0  0  0  0  0  0  0  0  0  0
   -0.4604   -2.3464    1.4997 H   0  0  0  0  0  0  0  0  0  0  0  0
   -2.8295   -2.4166    2.0083 H   0  0  0  0  0  0  0  0  0  0  0  0
   -4.9156   -2.6109    1.5228 H   0  0  0  0  0  0  0  0  0  0  0  0
   -6.2636   -3.5601    2.0392 H   0  0  0  0  0  0  0  0  0  0  0  0
   -2.9602   -6.6054    1.0212 H   0  0  0  0  0  0  0  0  0  0  0  0
    0.8191   -2.0473   -0.7388 H   0  0  0  0  0  0  0  0  0  0  0  0
    2.1037   -3.0628   -1.4003 H   0  0  0  0  0  0  0  0  0  0  0  0
  1  2  1  0
  1 22  1  0
  1 23  1  0
  1 24  1  0
  2  3  1  0
  2 25  1  0
  2 26  1  0
  3  4  1  0
  3 21  1  0
  4  5  1  0
  4 27  1  0
  4 28  1  0
  5  6  1  0
  5 29  1  0
  5 30  1  0
  6  7  1  0
  6 31  1  0
  6 32  1  0
  7  8  1  0
  7 21  1  0
  7 33  1  1
  8  9  1  0
  8 34  1  0
  9 10  2  0
  9 17  1  0
 10 11  1  0
 10 35  1  0
 11 12  2  0
 11 36  1  0
 12 13  1  0
 12 16  1  0
 13 14  1  0
 13 15  2  0
 14 37  1  0
 14 38  1  0
 16 17  2  0
 16 39  1  0
 17 18  1  0
 18 19  2  0
 18 20  1  0
 21 40  1  0
 21 41  1  0
M  CHG  2  18   1  20  -1
M  END

