
     RDKit          3D

 69 72  0  0  0  0  0  0  0  0999 V2000
    6.0508    3.9420    3.3716 C   0  0  0  0  0  0  0  0  0  0  0  0
    5.4793    2.7917    2.5264 C   0  0  1  0  0  0  0  0  0  0  0  0
    4.6759    3.3796    1.3628 C   0  0  0  0  0  0  0  0  0  0  0  0
    6.5798    1.9004    2.1035 N   0  0  0  0  0  0  0  0  0  0  0  0
    7.0643    1.0203    3.1635 C   0  0  0  0  0  0  0  0  0  0  0  0
    6.2845   -0.2973    3.2901 C   0  0  0  0  0  0  0  0  0  0  0  0
    6.2808   -1.0081    2.0146 N   0  0  0  0  0  0  0  0  0  0  0  0
    5.7126   -2.3608    2.0045 C   0  0  2  0  0  0  0  0  0  0  0  0
    4.6147   -2.3202    1.8150 H   0  0  0  0  0  0  0  0  0  0  0  0
    5.9233   -3.1598    3.2953 C   0  0  0  0  0  0  0  0  0  0  0  0
    5.3598   -4.5750    3.1346 C   0  0  0  0  0  0  0  0  0  0  0  0
    5.9002   -5.3161    1.8997 C   0  0  1  0  0  0  0  0  0  0  0  0
    7.3586   -5.7871    2.1555 C   0  0  0  0  0  0  0  0  0  0  0  0
    7.7392   -6.1645    3.2560 O   0  0  0  0  0  0  0  0  0  0  0  0
    8.1569   -5.7718    1.0553 N   0  0  0  0  0  0  0  0  0  0  0  0
    9.5498   -6.1891    1.0920 C   0  0  0  0  0  0  0  0  0  0  0  0
    9.7642   -7.6628    0.7880 C   0  0  0  0  0  0  0  0  0  0  0  0
   10.2805   -8.0719   -0.4486 C   0  0  0  0  0  0  0  0  0  0  0  0
   10.4476   -9.4304   -0.7077 C   0  0  0  0  0  0  0  0  0  0  0  0
   10.9466   -9.8088   -1.8917 F   0  0  0  0  0  0  0  0  0  0  0  0
   10.1127  -10.4060    0.2261 C   0  0  0  0  0  0  0  0  0  0  0  0
    9.5991   -9.9905    1.4587 C   0  0  0  0  0  0  0  0  0  0  0  0
    9.1930  -11.0096    2.4978 C   0  0  1  0  0  0  0  0  0  0  0  0
    9.5879  -12.2518    2.1706 F   0  0  0  0  0  0  0  0  0  0  0  0
    9.7181  -10.7221    3.7010 F   0  0  0  0  0  0  0  0  0  0  0  0
    7.8564  -11.0433    2.6522 F   0  0  0  0  0  0  0  0  0  0  0  0
    9.4291   -8.6321    1.7454 C   0  0  0  0  0  0  0  0  0  0  0  0
    4.9939   -6.5070    1.5828 C   0  0  2  0  0  0  0  0  0  0  0  0
    5.0322   -7.7964    2.3603 C   0  0  0  0  0  0  0  0  0  0  0  0
    5.4447   -7.7787    0.9099 C   0  0  0  0  0  0  0  0  0  0  0  0
    5.8442   -4.4840    0.7319 O   0  0  0  0  0  0  0  0  0  0  0  0
    6.3605   -3.1658    0.8649 C   0  0  0  0  0  0  0  0  0  0  0  0
    5.7098   -0.1506    0.9770 C   0  0  0  0  0  0  0  0  0  0  0  0
    6.4927    1.1707    0.8310 C   0  0  2  0  0  0  0  0  0  0  0  0
    5.9391    1.7949    0.1187 H   0  0  0  0  0  0  0  0  0  0  0  0
    7.8863    0.9427    0.2254 C   0  0  0  0  0  0  0  0  0  0  0  0
    5.2412    4.5728    3.7735 H   0  0  0  0  0  0  0  0  0  0  0  0
    6.7143    4.5689    2.7545 H   0  0  0  0  0  0  0  0  0  0  0  0
    6.6389    3.5778    4.2271 H   0  0  0  0  0  0  0  0  0  0  0  0
    4.7534    2.2384    3.1634 H   0  0  0  0  0  0  0  0  0  0  0  0
    5.3293    3.9176    0.6562 H   0  0  0  0  0  0  0  0  0  0  0  0
    3.9466    4.1033    1.7575 H   0  0  0  0  0  0  0  0  0  0  0  0
    4.1089    2.6201    0.8042 H   0  0  0  0  0  0  0  0  0  0  0  0
    7.0314    1.5494    4.1267 H   0  0  0  0  0  0  0  0  0  0  0  0
    8.1244    0.7749    2.9804 H   0  0  0  0  0  0  0  0  0  0  0  0
    5.2476   -0.0884    3.6468 H   0  0  0  0  0  0  0  0  0  0  0  0
    6.7724   -0.9080    4.0623 H   0  0  0  0  0  0  0  0  0  0  0  0
    5.4266   -2.6769    4.1502 H   0  0  0  0  0  0  0  0  0  0  0  0
    7.0011   -3.2037    3.5318 H   0  0  0  0  0  0  0  0  0  0  0  0
    4.2632   -4.5204    3.0359 H   0  0  0  0  0  0  0  0  0  0  0  0
    5.5854   -5.1803    4.0228 H   0  0  0  0  0  0  0  0  0  0  0  0
    7.7202   -5.5013    0.1799 H   0  0  0  0  0  0  0  0  0  0  0  0
    9.9220   -5.9683    2.1033 H   0  0  0  0  0  0  0  0  0  0  0  0
   10.1174   -5.5736    0.3779 H   0  0  0  0  0  0  0  0  0  0  0  0
   10.5621   -7.3493   -1.2182 H   0  0  0  0  0  0  0  0  0  0  0  0
   10.2580  -11.4601   -0.0099 H   0  0  0  0  0  0  0  0  0  0  0  0
    9.0336   -8.3127    2.7117 H   0  0  0  0  0  0  0  0  0  0  0  0
    4.0020   -6.1461    1.2904 H   0  0  0  0  0  0  0  0  0  0  0  0
    4.0785   -8.2571    2.6323 H   0  0  0  0  0  0  0  0  0  0  0  0
    5.8228   -7.9179    3.1052 H   0  0  0  0  0  0  0  0  0  0  0  0
    4.7741   -8.2190    0.1666 H   0  0  0  0  0  0  0  0  0  0  0  0
    6.5054   -7.9134    0.6852 H   0  0  0  0  0  0  0  0  0  0  0  0
    6.1893   -2.6932   -0.1124 H   0  0  0  0  0  0  0  0  0  0  0  0
    7.4526   -3.1778    1.0456 H   0  0  0  0  0  0  0  0  0  0  0  0
    4.6420    0.0813    1.2043 H   0  0  0  0  0  0  0  0  0  0  0  0
    5.7145   -0.6806    0.0126 H   0  0  0  0  0  0  0  0  0  0  0  0
    7.7984    0.5481   -0.8001 H   0  0  0  0  0  0  0  0  0  0  0  0
    8.4719    0.2159    0.8066 H   0  0  0  0  0  0  0  0  0  0  0  0
    8.4402    1.8924    0.1882 H   0  0  0  0  0  0  0  0  0  0  0  0
  1  2  1  0
  1 37  1  0
  1 38  1  0
  1 39  1  0
  2  3  1  0
  2  4  1  0
  2 40  1  1
  3 41  1  0
  3 42  1  0
  3 43  1  0
  4  5  1  0
  4 34  1  0
  5  6  1  0
  5 44  1  0
  5 45  1  0
  6  7  1  0
  6 46  1  0
  6 47  1  0
  7  8  1  0
  7 33  1  0
  8  9  1  6
  8 10  1  0
  8 32  1  0
 10 11  1  0
 10 48  1  0
 10 49  1  0
 11 12  1  0
 11 50  1  0
 11 51  1  0
 12 13  1  1
 12 28  1  0
 12 31  1  0
 13 14  2  0
 13 15  1  0
 15 16  1  0
 15 52  1  0
 16 17  1  0
 16 53  1  0
 16 54  1  0
 17 18  2  0
 17 27  1  0
 18 19  1  0
 18 55  1  0
 19 20  1  0
 19 21  2  0
 21 22  1  0
 21 56  1  0
 22 23  1  0
 22 27  2  0
 23 24  1  6
 23 25  1  0
 23 26  1  0
 27 57  1  0
 28 29  1  0
 28 30  1  0
 28 58  1  6
 29 30  1  0
 29 59  1  0
 29 60  1  0
 30 61  1  0
 30 62  1  0
 31 32  1  0
 32 63  1  0
 32 64  1  0
 33 34  1  0
 33 65  1  0
 33 66  1  0
 34 35  1  6
 34 36  1  0
 36 67  1  0
 36 68  1  0
 36 69  1  0
M  END

