
     RDKit          3D

 24 24  0  0  0  0  0  0  0  0999 V2000
    3.0656    0.2837    1.3465 O   0  0  0  0  0  0  0  0  0  0  0  0
    2.9039    0.0374    0.1588 C   0  0  0  0  0  0  0  0  0  0  0  0
    3.2734   -1.2939   -0.4859 C   0  0  0  0  0  0  0  0  0  0  0  0
    2.1451   -2.2986   -0.3731 C   0  0  0  0  0  0  0  0  0  0  0  0
    1.9567   -3.0117    0.8228 C   0  0  0  0  0  0  0  0  0  0  0  0
    0.9196   -3.9295    0.9824 C   0  0  0  0  0  0  0  0  0  0  0  0
    0.0449   -4.1371   -0.0819 C   0  0  0  0  0  0  0  0  0  0  0  0
   -0.9536   -5.0175    0.0490 F   0  0  0  0  0  0  0  0  0  0  0  0
    0.1803   -3.4496   -1.2842 C   0  0  0  0  0  0  0  0  0  0  0  0
    1.2265   -2.5319   -1.4123 C   0  0  0  0  0  0  0  0  0  0  0  0
    1.3616   -1.6630   -2.9325 Cl  0  0  0  0  0  0  0  0  0  0  0  0
    2.3439    0.9545   -0.6784 N   0  0  0  0  0  0  0  0  0  0  0  0
    1.9244    2.1435   -0.1286 N   0  0  0  0  0  0  0  0  0  0  0  0
    1.3462    3.1023   -0.8731 C   0  0  0  0  0  0  0  0  0  0  0  0
    1.0560    2.9602   -2.5036 S   0  0  0  0  0  0  0  0  0  0  0  0
    0.8709    4.5901   -0.0283 S   0  0  0  0  0  0  0  0  0  0  0  0
    4.1534   -1.6595    0.0607 H   0  0  0  0  0  0  0  0  0  0  0  0
    3.5536   -1.1470   -1.5375 H   0  0  0  0  0  0  0  0  0  0  0  0
    2.6458   -2.8307    1.6511 H   0  0  0  0  0  0  0  0  0  0  0  0
    0.7802   -4.4830    1.9124 H   0  0  0  0  0  0  0  0  0  0  0  0
   -0.5210   -3.6258   -2.0998 H   0  0  0  0  0  0  0  0  0  0  0  0
    2.0797    0.8287   -1.6586 H   0  0  0  0  0  0  0  0  0  0  0  0
    2.1160    2.1808    0.8725 H   0  0  0  0  0  0  0  0  0  0  0  0
    1.3056    4.2693    1.2198 H   0  0  0  0  0  0  0  0  0  0  0  0
  1  2  2  0
  2  3  1  0
  2 12  1  0
  3  4  1  0
  3 17  1  0
  3 18  1  0
  4  5  2  0
  4 10  1  0
  5  6  1  0
  5 19  1  0
  6  7  2  0
  6 20  1  0
  7  8  1  0
  7  9  1  0
  9 10  2  0
  9 21  1  0
 10 11  1  0
 12 13  1  0
 12 22  1  0
 13 14  1  0
 13 23  1  0
 14 15  2  0
 14 16  1  0
 16 24  1  0
M  END

