
     RDKit          3D

 47 47  0  0  0  0  0  0  0  0999 V2000
    4.1695    0.5785    2.3687 C   0  0  0  0  0  0  0  0  0  0  0  0
    4.2654    0.4441    0.8604 C   0  0  0  0  0  0  0  0  0  0  0  0
    5.0132   -0.7160    0.5564 O   0  0  0  0  0  0  0  0  0  0  0  0
    5.2231   -0.9776   -0.8210 C   0  0  1  0  0  0  0  0  0  0  0  0
    6.5412   -0.3412   -1.3049 C   0  0  0  0  0  0  0  0  0  0  0  0
    6.7175   -0.3044   -2.8227 C   0  0  0  0  0  0  0  0  0  0  0  0
    5.1784   -2.4805   -0.9861 C   0  0  0  0  0  0  0  0  0  0  0  0
    5.3644   -3.1315   -2.0952 N   0  0  0  0  0  0  0  0  0  0  0  0
    5.2497   -4.4944   -1.9287 C   0  0  0  0  0  0  0  0  0  0  0  0
    5.4173   -5.3932   -3.1250 C   0  0  0  0  0  0  0  0  0  0  0  0
    4.2590   -5.2834   -4.1264 C   0  0  0  0  0  0  0  0  0  0  0  0
    4.9516   -4.8959   -0.6432 C   0  0  0  0  0  0  0  0  0  0  0  0
    4.7588   -6.2879   -0.1005 C   0  0  0  0  0  0  0  0  0  0  0  0
    5.9535   -7.1097   -0.2547 N   0  0  0  0  0  0  0  0  0  0  0  0
    5.8523   -8.4254    0.3551 C   0  0  0  0  0  0  0  0  0  0  0  0
    7.0692   -9.3186    0.0693 C   0  0  1  0  0  0  0  0  0  0  0  0
    8.3728   -8.7228    0.6166 C   0  0  0  0  0  0  0  0  0  0  0  0
    6.8348  -10.7298    0.6213 C   0  0  0  0  0  0  0  0  0  0  0  0
    4.8324   -3.4980    0.3926 S   0  0  0  0  0  0  0  0  0  0  0  0
    3.5821    1.4697    2.6399 H   0  0  0  0  0  0  0  0  0  0  0  0
    5.1721    0.6718    2.8136 H   0  0  0  0  0  0  0  0  0  0  0  0
    3.6828   -0.3074    2.8050 H   0  0  0  0  0  0  0  0  0  0  0  0
    4.7462    1.3440    0.4266 H   0  0  0  0  0  0  0  0  0  0  0  0
    3.2535    0.3722    0.4108 H   0  0  0  0  0  0  0  0  0  0  0  0
    4.3874   -0.5535   -1.4158 H   0  0  0  0  0  0  0  0  0  0  0  0
    7.3754   -0.8792   -0.8244 H   0  0  0  0  0  0  0  0  0  0  0  0
    6.5629    0.6866   -0.9030 H   0  0  0  0  0  0  0  0  0  0  0  0
    6.6899   -1.3163   -3.2499 H   0  0  0  0  0  0  0  0  0  0  0  0
    7.6762    0.1667   -3.0917 H   0  0  0  0  0  0  0  0  0  0  0  0
    5.9141    0.2810   -3.3016 H   0  0  0  0  0  0  0  0  0  0  0  0
    5.5455   -6.4285   -2.7774 H   0  0  0  0  0  0  0  0  0  0  0  0
    6.3574   -5.1123   -3.6307 H   0  0  0  0  0  0  0  0  0  0  0  0
    3.3062   -5.6032   -3.6737 H   0  0  0  0  0  0  0  0  0  0  0  0
    4.4411   -5.9134   -5.0121 H   0  0  0  0  0  0  0  0  0  0  0  0
    4.1356   -4.2431   -4.4658 H   0  0  0  0  0  0  0  0  0  0  0  0
    3.9322   -6.7852   -0.6414 H   0  0  0  0  0  0  0  0  0  0  0  0
    4.4185   -6.2179    0.9569 H   0  0  0  0  0  0  0  0  0  0  0  0
    6.7566   -6.6021    0.1133 H   0  0  0  0  0  0  0  0  0  0  0  0
    4.9508   -8.9152   -0.0547 H   0  0  0  0  0  0  0  0  0  0  0  0
    5.6919   -8.3757    1.4595 H   0  0  0  0  0  0  0  0  0  0  0  0
    7.1622   -9.3847   -1.0299 H   0  0  0  0  0  0  0  0  0  0  0  0
    8.3167   -8.5787    1.7101 H   0  0  0  0  0  0  0  0  0  0  0  0
    8.6087   -7.7506    0.1548 H   0  0  0  0  0  0  0  0  0  0  0  0
    9.2267   -9.3893    0.4141 H   0  0  0  0  0  0  0  0  0  0  0  0
    6.7280  -10.7159    1.7198 H   0  0  0  0  0  0  0  0  0  0  0  0
    7.6777  -11.3969    0.3798 H   0  0  0  0  0  0  0  0  0  0  0  0
    5.9202  -11.1816    0.2035 H   0  0  0  0  0  0  0  0  0  0  0  0
  1  2  1  0
  1 20  1  0
  1 21  1  0
  1 22  1  0
  2  3  1  0
  2 23  1  0
  2 24  1  0
  3  4  1  0
  4  5  1  0
  4  7  1  0
  4 25  1  6
  5  6  1  0
  5 26  1  0
  5 27  1  0
  6 28  1  0
  6 29  1  0
  6 30  1  0
  7  8  2  0
  7 19  1  0
  8  9  1  0
  9 10  1  0
  9 12  2  0
 10 11  1  0
 10 31  1  0
 10 32  1  0
 11 33  1  0
 11 34  1  0
 11 35  1  0
 12 13  1  0
 12 19  1  0
 13 14  1  0
 13 36  1  0
 13 37  1  0
 14 15  1  0
 14 38  1  0
 15 16  1  0
 15 39  1  0
 15 40  1  0
 16 17  1  0
 16 18  1  0
 16 41  1  6
 17 42  1  0
 17 43  1  0
 17 44  1  0
 18 45  1  0
 18 46  1  0
 18 47  1  0
M  END

