
     RDKit          3D

 39 41  0  0  0  0  0  0  0  0999 V2000
   -0.0804    1.7746    2.8367 N   0  0  0  0  0  0  0  0  0  0  0  0
    0.3982    2.0405    1.8143 C   0  0  0  0  0  0  0  0  0  0  0  0
    1.0137    2.3989    0.5540 C   0  0  0  0  0  0  0  0  0  0  0  0
    1.9631    3.4327    0.5186 C   0  0  0  0  0  0  0  0  0  0  0  0
    2.5434    3.7751   -0.7093 C   0  0  0  0  0  0  0  0  0  0  0  0
    3.5710    4.8717   -0.8058 C   0  0  0  0  0  0  0  0  0  0  0  0
    5.2370    4.1408   -0.5150 S   0  0  0  0  0  0  0  0  0  0  0  0
    6.2818    5.5832   -0.7359 C   0  0  0  0  0  0  0  0  0  0  0  0
    5.6517    6.7467   -0.8755 N   0  0  0  0  0  0  0  0  0  0  0  0
    6.3592    7.8735   -0.9764 C   0  0  0  0  0  0  0  0  0  0  0  0
    7.7518    7.8982   -0.9141 C   0  0  0  0  0  0  0  0  0  0  0  0
    8.4151    6.6809   -0.7723 C   0  0  0  0  0  0  0  0  0  0  0  0
    7.6986    5.4783   -0.7080 C   0  0  0  0  0  0  0  0  0  0  0  0
    8.5478    4.2304   -0.5730 C   0  0  0  0  0  0  0  0  0  0  0  0
    9.6482    4.2995   -0.0499 O   0  0  0  0  0  0  0  0  0  0  0  0
    8.0294    3.0840   -1.1188 N   0  0  0  0  0  0  0  0  0  0  0  0
    8.5833    1.7888   -1.1378 C   0  0  0  0  0  0  0  0  0  0  0  0
    9.8329    1.4660   -0.5786 C   0  0  0  0  0  0  0  0  0  0  0  0
   10.3046    0.1535   -0.6411 C   0  0  0  0  0  0  0  0  0  0  0  0
    9.5443   -0.8435   -1.2563 C   0  0  0  0  0  0  0  0  0  0  0  0
   10.1474   -2.4834   -1.3304 Cl  0  0  0  0  0  0  0  0  0  0  0  0
    8.3006   -0.5349   -1.8150 C   0  0  0  0  0  0  0  0  0  0  0  0
    7.8276    0.7735   -1.7531 C   0  0  0  0  0  0  0  0  0  0  0  0
    2.1402    3.0470   -1.8361 C   0  0  0  0  0  0  0  0  0  0  0  0
    1.1854    2.0339   -1.6919 C   0  0  0  0  0  0  0  0  0  0  0  0
    0.6278    1.7089   -0.5278 N   0  0  0  0  0  0  0  0  0  0  0  0
    2.2359    3.9573    1.4366 H   0  0  0  0  0  0  0  0  0  0  0  0
    3.4112    5.6541   -0.0532 H   0  0  0  0  0  0  0  0  0  0  0  0
    3.5700    5.3494   -1.7941 H   0  0  0  0  0  0  0  0  0  0  0  0
    5.7843    8.7979   -1.1034 H   0  0  0  0  0  0  0  0  0  0  0  0
    8.2992    8.8405   -0.9767 H   0  0  0  0  0  0  0  0  0  0  0  0
    9.5037    6.6262   -0.7078 H   0  0  0  0  0  0  0  0  0  0  0  0
    7.1229    3.1635   -1.5714 H   0  0  0  0  0  0  0  0  0  0  0  0
   10.4231    2.2448   -0.1025 H   0  0  0  0  0  0  0  0  0  0  0  0
   11.2743   -0.0968   -0.2073 H   0  0  0  0  0  0  0  0  0  0  0  0
    7.7079   -1.3162   -2.2934 H   0  0  0  0  0  0  0  0  0  0  0  0
    6.8522    1.0110   -2.1873 H   0  0  0  0  0  0  0  0  0  0  0  0
    2.5597    3.2671   -2.8209 H   0  0  0  0  0  0  0  0  0  0  0  0
    0.8568    1.4603   -2.5658 H   0  0  0  0  0  0  0  0  0  0  0  0
  1  2  3  0
  2  3  1  0
  3  4  2  0
  3 26  1  0
  4  5  1  0
  4 27  1  0
  5  6  1  0
  5 24  2  0
  6  7  1  0
  6 28  1  0
  6 29  1  0
  7  8  2  0
  8  9  1  0
  8 13  1  0
  9 10  2  0
 10 11  1  0
 10 30  1  0
 11 12  2  0
 11 31  1  0
 12 13  1  0
 12 32  1  0
 13 14  2  0
 14 15  1  0
 14 16  1  0
 16 17  1  0
 16 33  1  0
 17 18  2  0
 17 23  1  0
 18 19  1  0
 18 34  1  0
 19 20  2  0
 19 35  1  0
 20 21  1  0
 20 22  1  0
 22 23  2  0
 22 36  1  0
 23 37  1  0
 24 25  1  0
 24 38  1  0
 25 26  2  0
 25 39  1  0
M  CHG  2   7   1  15  -1
M  END

