
     RDKit          3D

 36 36  0  0  0  0  0  0  0  0999 V2000
    1.2344   -0.6289   -0.2275 C   0  0  0  0  0  0  0  0  0  0  0  0
    2.6655   -0.3110   -0.2206 N   0  0  0  0  0  0  0  0  0  0  0  0
    3.1413    0.9874   -0.0693 C   0  0  0  0  0  0  0  0  0  0  0  0
    2.2081    2.0060   -0.1918 N   0  0  0  0  0  0  0  0  0  0  0  0
    1.4605    2.2166   -1.4492 C   0  0  0  0  0  0  0  0  0  0  0  0
    0.0979    2.8755   -1.2230 C   0  0  0  0  0  0  0  0  0  0  0  0
    0.1970    4.2797   -0.6414 C   0  0  0  0  0  0  0  0  0  0  0  0
   -1.4344    5.0332   -0.4526 Cl  0  0  0  0  0  0  0  0  0  0  0  0
    4.4647    1.2084    0.2503 C   0  0  0  0  0  0  0  0  0  0  0  0
    5.0886    2.5645    0.4675 C   0  0  0  0  0  0  0  0  0  0  0  0
    5.8812    3.1141   -0.7468 C   0  0  0  0  0  0  0  0  0  0  0  0
    5.0208    3.4604   -1.8777 C   0  0  0  0  0  0  0  0  0  0  0  0
    4.2894    3.7317   -2.7359 N   0  0  0  0  0  0  0  0  0  0  0  0
    5.3940    0.0925    0.3189 C   0  0  0  0  0  0  0  0  0  0  0  0
    6.5910    0.2284    0.5457 O   0  0  0  0  0  0  0  0  0  0  0  0
    4.8541   -1.1803    0.0446 N   0  0  0  0  0  0  0  0  0  0  0  0
    5.7378   -2.3454    0.0475 C   0  0  0  0  0  0  0  0  0  0  0  0
    3.5160   -1.4279   -0.2064 C   0  0  0  0  0  0  0  0  0  0  0  0
    3.0847   -2.5512   -0.3834 O   0  0  0  0  0  0  0  0  0  0  0  0
    0.6853    0.1908    0.2478 H   0  0  0  0  0  0  0  0  0  0  0  0
    1.0855   -1.5603    0.3312 H   0  0  0  0  0  0  0  0  0  0  0  0
    0.8538   -0.7928   -1.2475 H   0  0  0  0  0  0  0  0  0  0  0  0
    2.5949    2.8786    0.1498 H   0  0  0  0  0  0  0  0  0  0  0  0
    1.3114    1.2471   -1.9395 H   0  0  0  0  0  0  0  0  0  0  0  0
    2.0709    2.8206   -2.1447 H   0  0  0  0  0  0  0  0  0  0  0  0
   -0.5224    2.2522   -0.5584 H   0  0  0  0  0  0  0  0  0  0  0  0
   -0.4236    2.9321   -2.1924 H   0  0  0  0  0  0  0  0  0  0  0  0
    0.7835    4.9454   -1.2913 H   0  0  0  0  0  0  0  0  0  0  0  0
    0.6480    4.2760    0.3613 H   0  0  0  0  0  0  0  0  0  0  0  0
    5.8141    2.4647    1.2881 H   0  0  0  0  0  0  0  0  0  0  0  0
    4.3541    3.3191    0.7917 H   0  0  0  0  0  0  0  0  0  0  0  0
    6.6202    2.3610   -1.0623 H   0  0  0  0  0  0  0  0  0  0  0  0
    6.4454    4.0161   -0.4559 H   0  0  0  0  0  0  0  0  0  0  0  0
    6.7527   -1.9858    0.2443 H   0  0  0  0  0  0  0  0  0  0  0  0
    5.6903   -2.8587   -0.9235 H   0  0  0  0  0  0  0  0  0  0  0  0
    5.4252   -3.0593    0.8234 H   0  0  0  0  0  0  0  0  0  0  0  0
  1  2  1  0
  1 20  1  0
  1 21  1  0
  1 22  1  0
  2  3  1  0
  2 18  1  0
  3  4  1  0
  3  9  2  0
  4  5  1  0
  4 23  1  0
  5  6  1  0
  5 24  1  0
  5 25  1  0
  6  7  1  0
  6 26  1  0
  6 27  1  0
  7  8  1  0
  7 28  1  0
  7 29  1  0
  9 10  1  0
  9 14  1  0
 10 11  1  0
 10 30  1  0
 10 31  1  0
 11 12  1  0
 11 32  1  0
 11 33  1  0
 12 13  3  0
 14 15  2  0
 14 16  1  0
 16 17  1  0
 16 18  1  0
 17 34  1  0
 17 35  1  0
 17 36  1  0
 18 19  2  0
M  END

