
     RDKit          3D

 45 47  0  0  0  0  0  0  0  0999 V2000
   11.8303    0.8523    8.1354 C   0  0  0  0  0  0  0  0  0  0  0  0
   11.4443    0.2817    6.7963 C   0  0  0  0  0  0  0  0  0  0  0  0
   11.2663   -1.1234    6.6299 C   0  0  0  0  0  0  0  0  0  0  0  0
   10.9088   -1.6455    5.4011 C   0  0  0  0  0  0  0  0  0  0  0  0
   10.6883   -3.0833    5.0690 C   0  0  0  0  0  0  0  0  0  0  0  0
   10.7493   -0.7267    4.4078 N   0  0  0  0  0  0  0  0  0  0  0  0
   10.4090   -0.9654    3.1239 N   0  0  0  0  0  0  0  0  0  0  0  0
   10.4125    0.2698    2.6132 C   0  0  0  0  0  0  0  0  0  0  0  0
   10.0422    0.5864    0.9168 S   0  0  0  0  0  0  0  0  0  0  0  0
    9.7748   -1.1270    0.3367 C   0  0  0  0  0  0  0  0  0  0  0  0
   10.9859   -2.0710    0.2594 C   0  0  0  0  0  0  0  0  0  0  0  0
   10.8267   -3.2674    0.2554 O   0  0  0  0  0  0  0  0  0  0  0  0
   12.2071   -1.4310    0.1349 N   0  0  0  0  0  0  0  0  0  0  0  0
   13.4639   -1.9917    0.0306 C   0  0  0  0  0  0  0  0  0  0  0  0
   14.6947   -1.3835   -0.0333 C   0  0  0  0  0  0  0  0  0  0  0  0
   15.5972   -2.4847   -0.1385 C   0  0  0  0  0  0  0  0  0  0  0  0
   17.1182   -2.4723   -0.2466 C   0  0  1  0  0  0  0  0  0  0  0  0
   17.6428   -1.0266   -0.2237 C   0  0  0  0  0  0  0  0  0  0  0  0
   17.7102   -3.2572    0.9441 C   0  0  0  0  0  0  0  0  0  0  0  0
   17.5298   -3.1517   -1.5708 C   0  0  0  0  0  0  0  0  0  0  0  0
   14.9531   -3.6311   -0.1354 N   0  0  0  0  0  0  0  0  0  0  0  0
   13.5980   -3.3164   -0.0290 O   0  0  0  0  0  0  0  0  0  0  0  0
   10.7215    1.2757    3.4511 N   0  0  0  0  0  0  0  0  0  0  0  0
   10.9388    0.6506    4.6085 C   0  0  0  0  0  0  0  0  0  0  0  0
   11.2825    1.1419    5.8005 N   0  0  0  0  0  0  0  0  0  0  0  0
   11.9631    0.0732    8.8985 H   0  0  0  0  0  0  0  0  0  0  0  0
   11.0578    1.5592    8.4776 H   0  0  0  0  0  0  0  0  0  0  0  0
   12.7656    1.4264    8.0423 H   0  0  0  0  0  0  0  0  0  0  0  0
   11.4121   -1.8003    7.4720 H   0  0  0  0  0  0  0  0  0  0  0  0
   10.8661   -3.7173    5.9469 H   0  0  0  0  0  0  0  0  0  0  0  0
   11.3528   -3.3950    4.2472 H   0  0  0  0  0  0  0  0  0  0  0  0
    9.6595   -3.2391    4.7063 H   0  0  0  0  0  0  0  0  0  0  0  0
    9.3571   -1.0184   -0.6773 H   0  0  0  0  0  0  0  0  0  0  0  0
    9.0241   -1.6256    0.9621 H   0  0  0  0  0  0  0  0  0  0  0  0
   12.1839   -0.4150    0.1976 H   0  0  0  0  0  0  0  0  0  0  0  0
   14.9142   -0.3209   -0.0083 H   0  0  0  0  0  0  0  0  0  0  0  0
   17.3732   -0.5108    0.7118 H   0  0  0  0  0  0  0  0  0  0  0  0
   17.2475   -0.4373   -1.0664 H   0  0  0  0  0  0  0  0  0  0  0  0
   18.7415   -1.0224   -0.3014 H   0  0  0  0  0  0  0  0  0  0  0  0
   17.4355   -2.7895    1.9032 H   0  0  0  0  0  0  0  0  0  0  0  0
   18.8103   -3.2815    0.8786 H   0  0  0  0  0  0  0  0  0  0  0  0
   17.3363   -4.2912    0.9535 H   0  0  0  0  0  0  0  0  0  0  0  0
   17.1225   -2.6086   -2.4386 H   0  0  0  0  0  0  0  0  0  0  0  0
   17.1535   -4.1841   -1.6124 H   0  0  0  0  0  0  0  0  0  0  0  0
   18.6278   -3.1733   -1.6657 H   0  0  0  0  0  0  0  0  0  0  0  0
  1  2  1  0
  1 26  1  0
  1 27  1  0
  1 28  1  0
  2  3  1  0
  2 25  2  0
  3  4  2  0
  3 29  1  0
  4  5  1  0
  4  6  1  0
  5 30  1  0
  5 31  1  0
  5 32  1  0
  6  7  1  0
  6 24  1  0
  7  8  2  0
  8  9  1  0
  8 23  1  0
  9 10  1  0
 10 11  1  0
 10 33  1  0
 10 34  1  0
 11 12  2  0
 11 13  1  0
 13 14  1  0
 13 35  1  0
 14 15  2  0
 14 22  1  0
 15 16  1  0
 15 36  1  0
 16 17  1  0
 16 21  2  0
 17 18  1  6
 17 19  1  0
 17 20  1  0
 18 37  1  0
 18 38  1  0
 18 39  1  0
 19 40  1  0
 19 41  1  0
 19 42  1  0
 20 43  1  0
 20 44  1  0
 20 45  1  0
 21 22  1  0
 23 24  2  0
 24 25  1  0
M  END

