
     RDKit          3D

 26 26  0  0  0  0  0  0  0  0999 V2000
    0.8418   -0.1534   -0.0036 C   0  0  0  0  0  0  0  0  0  0  0  0
    2.3722   -0.0875   -0.0540 C   0  0  1  0  0  0  0  0  0  0  0  0
    2.9926   -1.4456   -0.3995 C   0  0  0  0  0  0  0  0  0  0  0  0
    2.8252    0.9983   -1.0299 C   0  0  0  0  0  0  0  0  0  0  0  0
    4.2282    1.1293   -0.9818 O   0  0  0  0  0  0  0  0  0  0  0  0
    4.7552    2.0804   -1.8729 C   0  0  0  0  0  0  0  0  0  0  0  0
    6.2538    2.1845   -1.6625 C   0  0  1  0  0  0  0  0  0  0  0  0
    6.6951    2.6425   -0.2923 C   0  0  0  0  0  0  0  0  0  0  0  0
    7.1460    1.3850   -2.5178 C   0  0  0  0  0  0  0  0  0  0  0  0
    6.9350    2.7708   -2.7734 O   0  0  0  0  0  0  0  0  0  0  0  0
    0.5039   -0.9080    0.7242 H   0  0  0  0  0  0  0  0  0  0  0  0
    0.4219   -0.4316   -0.9857 H   0  0  0  0  0  0  0  0  0  0  0  0
    0.3996    0.8134    0.2881 H   0  0  0  0  0  0  0  0  0  0  0  0
    2.7410    0.2151    0.9434 H   0  0  0  0  0  0  0  0  0  0  0  0
    2.6350   -1.8029   -1.3812 H   0  0  0  0  0  0  0  0  0  0  0  0
    2.7248   -2.2071    0.3505 H   0  0  0  0  0  0  0  0  0  0  0  0
    4.0889   -1.3744   -0.4448 H   0  0  0  0  0  0  0  0  0  0  0  0
    2.3429    1.9657   -0.7753 H   0  0  0  0  0  0  0  0  0  0  0  0
    2.4983    0.7394   -2.0609 H   0  0  0  0  0  0  0  0  0  0  0  0
    4.2949    3.0775   -1.7020 H   0  0  0  0  0  0  0  0  0  0  0  0
    4.5522    1.8074   -2.9279 H   0  0  0  0  0  0  0  0  0  0  0  0
    6.3130    1.9545    0.4765 H   0  0  0  0  0  0  0  0  0  0  0  0
    6.2954    3.6481   -0.0805 H   0  0  0  0  0  0  0  0  0  0  0  0
    7.7918    2.6878   -0.2264 H   0  0  0  0  0  0  0  0  0  0  0  0
    6.7194    0.6923   -3.2558 H   0  0  0  0  0  0  0  0  0  0  0  0
    8.1458    1.1158   -2.1519 H   0  0  0  0  0  0  0  0  0  0  0  0
  1  2  1  0
  1 11  1  0
  1 12  1  0
  1 13  1  0
  2  3  1  0
  2  4  1  0
  2 14  1  1
  3 15  1  0
  3 16  1  0
  3 17  1  0
  4  5  1  0
  4 18  1  0
  4 19  1  0
  5  6  1  0
  7  6  1  6
  6 20  1  0
  6 21  1  0
  7  8  1  0
  7  9  1  0
  7 10  1  0
  8 22  1  0
  8 23  1  0
  8 24  1  0
  9 10  1  0
  9 25  1  0
  9 26  1  0
M  END

