
     RDKit          3D

 29 30  0  0  0  0  0  0  0  0999 V2000
    0.8359    0.8362    0.1770 C   0  0  0  0  0  0  0  0  0  0  0  0
    2.1584    0.4590   -0.3111 N   0  0  0  0  0  0  0  0  0  0  0  0
    2.7051   -0.6510    0.4824 C   0  0  0  0  0  0  0  0  0  0  0  0
    3.0781    1.5234   -0.5663 C   0  0  0  0  0  0  0  0  0  0  0  0
    2.8163    2.8148   -0.0731 C   0  0  0  0  0  0  0  0  0  0  0  0
    3.7051    3.8750   -0.2602 C   0  0  0  0  0  0  0  0  0  0  0  0
    4.9100    3.6608   -0.9270 C   0  0  0  0  0  0  0  0  0  0  0  0
    5.1854    2.3892   -1.4219 C   0  0  0  0  0  0  0  0  0  0  0  0
    4.2848    1.3077   -1.3030 C   0  0  0  0  0  0  0  0  0  0  0  0
    4.7169    0.0862   -2.0031 C   0  0  0  0  0  0  0  0  0  0  0  0
    4.0757   -0.9347   -2.5968 C   0  0  0  0  0  0  0  0  0  0  0  0
    4.5437   -2.0847   -3.4529 C   0  0  0  0  0  0  0  0  0  0  0  0
    5.9976   -2.6475   -3.9146 S   0  0  0  0  0  0  0  0  0  0  0  0
    3.2152   -2.4967   -3.7135 N   0  0  0  0  0  0  0  0  0  0  0  0
    2.7569   -1.5069   -2.9433 C   0  0  0  0  0  0  0  0  0  0  0  0
    1.5146   -1.1715   -2.6290 N   0  0  0  0  0  0  0  0  0  0  0  0
    0.1862   -0.0532    0.1627 H   0  0  0  0  0  0  0  0  0  0  0  0
    0.3866    1.6022   -0.4714 H   0  0  0  0  0  0  0  0  0  0  0  0
    0.8428    1.2187    1.2176 H   0  0  0  0  0  0  0  0  0  0  0  0
    2.0313   -1.5191    0.4142 H   0  0  0  0  0  0  0  0  0  0  0  0
    2.8072   -0.3713    1.5495 H   0  0  0  0  0  0  0  0  0  0  0  0
    3.6875   -0.9557    0.1059 H   0  0  0  0  0  0  0  0  0  0  0  0
    1.9051    3.0021    0.4930 H   0  0  0  0  0  0  0  0  0  0  0  0
    3.4580    4.8613    0.1407 H   0  0  0  0  0  0  0  0  0  0  0  0
    5.6278    4.4725   -1.0641 H   0  0  0  0  0  0  0  0  0  0  0  0
    6.1215    2.2158   -1.9584 H   0  0  0  0  0  0  0  0  0  0  0  0
    5.8009    0.0316   -2.1703 H   0  0  0  0  0  0  0  0  0  0  0  0
    0.7377   -1.7282   -2.9666 H   0  0  0  0  0  0  0  0  0  0  0  0
    1.4116   -0.4420   -1.9178 H   0  0  0  0  0  0  0  0  0  0  0  0
  1  2  1  0
  1 17  1  0
  1 18  1  0
  1 19  1  0
  2  3  1  0
  2  4  1  0
  3 20  1  0
  3 21  1  0
  3 22  1  0
  4  5  2  0
  4  9  1  0
  5  6  1  0
  5 23  1  0
  6  7  2  0
  6 24  1  0
  7  8  1  0
  7 25  1  0
  8  9  2  0
  8 26  1  0
  9 10  1  0
 10 11  2  0
 10 27  1  0
 11 12  1  0
 11 15  1  0
 12 13  2  0
 12 14  1  0
 14 15  2  0
 15 16  1  0
 16 28  1  0
 16 29  1  0
M  END

