
     RDKit          3D

 50 51  0  0  0  0  0  0  0  0999 V2000
    0.7731   -0.7702    1.0637 C   0  0  0  0  0  0  0  0  0  0  0  0
    2.2873   -0.8048    0.9912 C   0  0  0  0  0  0  0  0  0  0  0  0
    2.7644    0.5327    1.0506 O   0  0  0  0  0  0  0  0  0  0  0  0
    4.0926    0.7806    0.9614 C   0  0  0  0  0  0  0  0  0  0  0  0
    5.0847   -0.2087    0.8612 C   0  0  0  0  0  0  0  0  0  0  0  0
    6.4304    0.1403    0.7511 C   0  0  0  0  0  0  0  0  0  0  0  0
    6.8369    1.4865    0.7369 C   0  0  0  0  0  0  0  0  0  0  0  0
    8.2302    1.9153    0.6184 C   0  0  0  0  0  0  0  0  0  0  0  0
    9.3334    1.1460    0.5070 C   0  0  0  0  0  0  0  0  0  0  0  0
   10.6735    1.7949    0.4307 C   0  0  0  0  0  0  0  0  0  0  0  0
   10.8064    3.0080    0.5811 O   0  0  0  0  0  0  0  0  0  0  0  0
   11.7663    0.9822    0.2067 N   0  0  0  0  0  0  0  0  0  0  0  0
   11.7067   -0.4252   -0.1452 C   0  0  0  0  0  0  0  0  0  0  0  0
   13.1015    1.5732    0.3166 C   0  0  0  0  0  0  0  0  0  0  0  0
   13.7549    1.8723   -1.0206 C   0  0  0  0  0  0  0  0  0  0  0  0
   13.2146    2.8622   -1.8608 C   0  0  0  0  0  0  0  0  0  0  0  0
   13.8036    3.1417   -3.0950 C   0  0  0  0  0  0  0  0  0  0  0  0
   14.9423    2.4399   -3.5101 C   0  0  0  0  0  0  0  0  0  0  0  0
   15.4889    1.4580   -2.6815 C   0  0  0  0  0  0  0  0  0  0  0  0
   14.8960    1.1775   -1.4446 C   0  0  0  0  0  0  0  0  0  0  0  0
    5.8310    2.4700    0.8475 C   0  0  0  0  0  0  0  0  0  0  0  0
    4.4826    2.1444    0.9590 C   0  0  0  0  0  0  0  0  0  0  0  0
    3.5548    3.1437    0.9984 O   0  0  0  0  0  0  0  0  0  0  0  0
    2.8593    3.3482    2.2310 C   0  0  0  0  0  0  0  0  0  0  0  0
    1.8751    4.4830    2.0313 C   0  0  0  0  0  0  0  0  0  0  0  0
    0.3678   -1.7921    1.0044 H   0  0  0  0  0  0  0  0  0  0  0  0
    0.3581   -0.1812    0.2318 H   0  0  0  0  0  0  0  0  0  0  0  0
    0.4358   -0.3180    2.0089 H   0  0  0  0  0  0  0  0  0  0  0  0
    2.6242   -1.2792    0.0507 H   0  0  0  0  0  0  0  0  0  0  0  0
    2.7077   -1.3931    1.8285 H   0  0  0  0  0  0  0  0  0  0  0  0
    4.8095   -1.2634    0.8614 H   0  0  0  0  0  0  0  0  0  0  0  0
    7.1716   -0.6575    0.6713 H   0  0  0  0  0  0  0  0  0  0  0  0
    8.4055    2.9966    0.6262 H   0  0  0  0  0  0  0  0  0  0  0  0
    9.2580    0.0580    0.5046 H   0  0  0  0  0  0  0  0  0  0  0  0
   10.7870   -0.6659   -0.6927 H   0  0  0  0  0  0  0  0  0  0  0  0
   11.7771   -1.0890    0.7378 H   0  0  0  0  0  0  0  0  0  0  0  0
   12.5460   -0.6639   -0.8164 H   0  0  0  0  0  0  0  0  0  0  0  0
   13.7404    0.8851    0.8963 H   0  0  0  0  0  0  0  0  0  0  0  0
   12.9866    2.5025    0.8898 H   0  0  0  0  0  0  0  0  0  0  0  0
   12.3320    3.4137   -1.5265 H   0  0  0  0  0  0  0  0  0  0  0  0
   13.3759    3.9166   -3.7368 H   0  0  0  0  0  0  0  0  0  0  0  0
   15.4025    2.6620   -4.4765 H   0  0  0  0  0  0  0  0  0  0  0  0
   16.3793    0.9070   -2.9959 H   0  0  0  0  0  0  0  0  0  0  0  0
   15.3325    0.4110   -0.7965 H   0  0  0  0  0  0  0  0  0  0  0  0
    6.0933    3.5304    0.8368 H   0  0  0  0  0  0  0  0  0  0  0  0
    3.5903    3.5954    3.0246 H   0  0  0  0  0  0  0  0  0  0  0  0
    2.3367    2.4236    2.5282 H   0  0  0  0  0  0  0  0  0  0  0  0
    2.3971    5.4042    1.7296 H   0  0  0  0  0  0  0  0  0  0  0  0
    1.3260    4.6821    2.9650 H   0  0  0  0  0  0  0  0  0  0  0  0
    1.1473    4.2281    1.2455 H   0  0  0  0  0  0  0  0  0  0  0  0
  1  2  1  0
  1 26  1  0
  1 27  1  0
  1 28  1  0
  2  3  1  0
  2 29  1  0
  2 30  1  0
  3  4  1  0
  4  5  2  0
  4 22  1  0
  5  6  1  0
  5 31  1  0
  6  7  2  0
  6 32  1  0
  7  8  1  0
  7 21  1  0
  8  9  2  0
  8 33  1  0
  9 10  1  0
  9 34  1  0
 10 11  2  0
 10 12  1  0
 12 13  1  0
 12 14  1  0
 13 35  1  0
 13 36  1  0
 13 37  1  0
 14 15  1  0
 14 38  1  0
 14 39  1  0
 15 16  2  0
 15 20  1  0
 16 17  1  0
 16 40  1  0
 17 18  2  0
 17 41  1  0
 18 19  1  0
 18 42  1  0
 19 20  2  0
 19 43  1  0
 20 44  1  0
 21 22  2  0
 21 45  1  0
 22 23  1  0
 23 24  1  0
 24 25  1  0
 24 46  1  0
 24 47  1  0
 25 48  1  0
 25 49  1  0
 25 50  1  0
M  END

