
     RDKit          3D

 25 27  0  0  0  0  0  0  0  0999 V2000
    1.0059   -0.1093    0.0906 C   0  0  0  0  0  0  0  0  0  0  0  0
    2.5089   -0.0491    0.0906 C   0  0  0  0  0  0  0  0  0  0  0  0
    3.2072    1.1463    0.0905 C   0  0  0  0  0  0  0  0  0  0  0  0
    4.6271    1.1995    0.0905 C   0  0  0  0  0  0  0  0  0  0  0  0
    5.3716    0.0427    0.0906 C   0  0  0  0  0  0  0  0  0  0  0  0
    4.7066   -1.2148    0.0906 C   0  0  0  0  0  0  0  0  0  0  0  0
    5.4326   -2.3562    0.0907 N   0  0  0  0  0  0  0  0  0  0  0  0
    4.7908   -3.5000    0.0907 C   0  0  0  0  0  0  0  0  0  0  0  0
    5.5703   -4.7801    0.0908 C   0  0  0  0  0  0  0  0  0  0  0  0
    6.7741   -4.8646    0.0907 O   0  0  0  0  0  0  0  0  0  0  0  0
    4.7539   -5.9168    0.0908 N   0  0  0  0  0  0  0  0  0  0  0  0
    5.2370   -6.8123    0.0908 H   0  0  0  0  0  0  0  0  0  0  0  0
    3.3618   -6.0024    0.0909 C   0  0  0  0  0  0  0  0  0  0  0  0
    2.7671   -7.0552    0.0910 O   0  0  0  0  0  0  0  0  0  0  0  0
    2.7240   -4.7718    0.0908 N   0  0  0  0  0  0  0  0  0  0  0  0
    1.7079   -4.7855    0.0909 H   0  0  0  0  0  0  0  0  0  0  0  0
    3.3567   -3.5439    0.0908 C   0  0  0  0  0  0  0  0  0  0  0  0
    2.6208   -2.4562    0.0907 N   0  0  0  0  0  0  0  0  0  0  0  0
    3.2665   -1.2645    0.0907 C   0  0  0  0  0  0  0  0  0  0  0  0
    0.5686    0.8993    0.0905 H   0  0  0  0  0  0  0  0  0  0  0  0
    0.6311   -0.6549    0.9713 H   0  0  0  0  0  0  0  0  0  0  0  0
    0.6310   -0.6553   -0.7898 H   0  0  0  0  0  0  0  0  0  0  0  0
    2.6453    2.0845    0.0905 H   0  0  0  0  0  0  0  0  0  0  0  0
    5.1244    2.1724    0.0905 H   0  0  0  0  0  0  0  0  0  0  0  0
    6.4630    0.0448    0.0905 H   0  0  0  0  0  0  0  0  0  0  0  0
  1  2  1  0
  1 20  1  0
  1 21  1  0
  1 22  1  0
  2  3  2  0
  2 19  1  0
  3  4  1  0
  3 23  1  0
  4  5  2  0
  4 24  1  0
  5  6  1  0
  5 25  1  0
  6  7  1  0
  6 19  2  0
  7  8  2  0
  8  9  1  0
  8 17  1  0
  9 10  2  0
  9 11  1  0
 11 12  1  0
 11 13  1  0
 13 14  2  0
 13 15  1  0
 15 16  1  0
 15 17  1  0
 17 18  2  0
 18 19  1  0
M  END

