
     RDKit          3D

 39 40  0  0  0  0  0  0  0  0999 V2000
    1.8066    1.0505   -0.9287 C   0  0  0  0  0  0  0  0  0  0  0  0
    3.0254    0.3903   -0.3622 C   0  0  0  0  0  0  0  0  0  0  0  0
    3.6720    0.9150    0.6740 N   0  0  0  0  0  0  0  0  0  0  0  0
    4.6970    0.0845    0.9320 N   0  0  0  0  0  0  0  0  0  0  0  0
    5.6161    0.3881    2.0050 C   0  0  0  0  0  0  0  0  0  0  0  0
    4.7484   -0.9709    0.0565 C   0  0  0  0  0  0  0  0  0  0  0  0
    5.7831   -1.9170    0.1492 N   0  0  0  0  0  0  0  0  0  0  0  0
    7.0792   -1.5572   -0.4429 C   0  0  0  0  0  0  0  0  0  0  0  0
    7.0907   -1.3758   -1.9658 C   0  0  0  0  0  0  0  0  0  0  0  0
    6.4746   -0.1834   -2.3934 O   0  0  0  0  0  0  0  0  0  0  0  0
    5.4549   -3.3350    0.1083 C   0  0  1  0  0  0  0  0  0  0  0  0
    6.3058   -4.2915    0.9919 C   0  0  0  0  0  0  0  0  0  0  0  0
    5.0026   -5.0537    1.3400 C   0  0  0  0  0  0  0  0  0  0  0  0
    4.1963   -3.8184    0.8650 C   0  0  0  0  0  0  0  0  0  0  0  0
    3.6596   -0.8064   -0.8123 C   0  0  0  0  0  0  0  0  0  0  0  0
    3.2043   -1.6877   -1.9423 C   0  0  0  0  0  0  0  0  0  0  0  0
    1.8479   -2.1929   -1.7136 N   0  0  0  0  0  0  0  0  0  0  0  0
    1.4996    1.8852   -0.2830 H   0  0  0  0  0  0  0  0  0  0  0  0
    0.9834    0.3276   -1.0273 H   0  0  0  0  0  0  0  0  0  0  0  0
    2.0024    1.4522   -1.9383 H   0  0  0  0  0  0  0  0  0  0  0  0
    5.0450    0.7835    2.8559 H   0  0  0  0  0  0  0  0  0  0  0  0
    6.3599    1.1435    1.6996 H   0  0  0  0  0  0  0  0  0  0  0  0
    6.1363   -0.5334    2.2972 H   0  0  0  0  0  0  0  0  0  0  0  0
    7.8002   -2.3426   -0.1610 H   0  0  0  0  0  0  0  0  0  0  0  0
    7.4382   -0.6174    0.0098 H   0  0  0  0  0  0  0  0  0  0  0  0
    6.6459   -2.2705   -2.4514 H   0  0  0  0  0  0  0  0  0  0  0  0
    8.1396   -1.3262   -2.3053 H   0  0  0  0  0  0  0  0  0  0  0  0
    5.5704   -0.1607   -2.0455 H   0  0  0  0  0  0  0  0  0  0  0  0
    5.4366   -3.7308   -0.9277 H   0  0  0  0  0  0  0  0  0  0  0  0
    6.7072   -3.7517    1.8636 H   0  0  0  0  0  0  0  0  0  0  0  0
    7.1200   -4.8538    0.5095 H   0  0  0  0  0  0  0  0  0  0  0  0
    4.8676   -5.3714    2.3843 H   0  0  0  0  0  0  0  0  0  0  0  0
    4.8455   -5.9282    0.6898 H   0  0  0  0  0  0  0  0  0  0  0  0
    3.9552   -3.1411    1.6983 H   0  0  0  0  0  0  0  0  0  0  0  0
    3.2853   -3.9899    0.2729 H   0  0  0  0  0  0  0  0  0  0  0  0
    3.9600   -2.4814   -2.1104 H   0  0  0  0  0  0  0  0  0  0  0  0
    3.1786   -1.1010   -2.8790 H   0  0  0  0  0  0  0  0  0  0  0  0
    1.8039   -2.7194   -0.8414 H   0  0  0  0  0  0  0  0  0  0  0  0
    1.5634   -2.8222   -2.4644 H   0  0  0  0  0  0  0  0  0  0  0  0
  1  2  1  0
  1 18  1  0
  1 19  1  0
  1 20  1  0
  2  3  2  0
  2 15  1  0
  3  4  1  0
  4  5  1  0
  4  6  1  0
  5 21  1  0
  5 22  1  0
  5 23  1  0
  6  7  1  0
  6 15  2  0
  7  8  1  0
  7 11  1  0
  8  9  1  0
  8 24  1  0
  8 25  1  0
  9 10  1  0
  9 26  1  0
  9 27  1  0
 10 28  1  0
 11 12  1  0
 11 14  1  0
 11 29  1  6
 12 13  1  0
 12 30  1  0
 12 31  1  0
 13 14  1  0
 13 32  1  0
 13 33  1  0
 14 34  1  0
 14 35  1  0
 15 16  1  0
 16 17  1  0
 16 36  1  0
 16 37  1  0
 17 38  1  0
 17 39  1  0
M  END

