
     RDKit          3D

 43 44  0  0  0  0  0  0  0  0999 V2000
    2.0054    3.2723   -1.2417 N   0  0  0  0  0  0  0  0  0  0  0  0
    1.7808    1.9568   -0.6474 C   0  0  0  0  0  0  0  0  0  0  0  0
    3.0538    1.3431    0.0197 C   0  0  1  0  0  0  0  0  0  0  0  0
    3.3155    2.1800    1.2984 C   0  0  0  0  0  0  0  0  0  0  0  0
    2.7790    1.8636    2.3408 O   0  0  0  0  0  0  0  0  0  0  0  0
    4.1837    3.4213    1.2033 C   0  0  0  0  0  0  0  0  0  0  0  0
    4.2596    4.2234    2.5005 C   0  0  0  0  0  0  0  0  0  0  0  0
    5.1515    5.4614    2.3836 C   0  0  0  0  0  0  0  0  0  0  0  0
    5.1911    6.3150    3.6465 C   0  0  1  0  0  0  0  0  0  0  0  0
    5.8544    5.6838    4.8781 C   0  0  0  0  0  0  0  0  0  0  0  0
    6.3204    6.9211    5.6537 C   0  0  0  0  0  0  0  0  0  0  0  0
    6.7238    7.8732    4.5183 C   0  0  0  0  0  0  0  0  0  0  0  0
    5.9517    7.4978    3.3837 O   0  0  0  0  0  0  0  0  0  0  0  0
    2.7568   -0.1178    0.4419 C   0  0  0  0  0  0  0  0  0  0  0  0
    2.7376   -1.0906   -0.7385 C   0  0  0  0  0  0  0  0  0  0  0  0
    3.9167   -1.0130   -1.5162 O   0  0  0  0  0  0  0  0  0  0  0  0
    4.1232    0.2777   -2.0456 C   0  0  0  0  0  0  0  0  0  0  0  0
    4.2637    1.3327   -0.9451 C   0  0  0  0  0  0  0  0  0  0  0  0
    1.1364    3.8017   -1.2845 H   0  0  0  0  0  0  0  0  0  0  0  0
    2.3426    3.1959   -2.2004 H   0  0  0  0  0  0  0  0  0  0  0  0
    1.3707    1.2230   -1.3676 H   0  0  0  0  0  0  0  0  0  0  0  0
    1.0209    2.0571    0.1439 H   0  0  0  0  0  0  0  0  0  0  0  0
    3.7729    4.0211    0.3708 H   0  0  0  0  0  0  0  0  0  0  0  0
    5.1936    3.1199    0.8716 H   0  0  0  0  0  0  0  0  0  0  0  0
    4.6169    3.5648    3.3096 H   0  0  0  0  0  0  0  0  0  0  0  0
    3.2390    4.5201    2.7979 H   0  0  0  0  0  0  0  0  0  0  0  0
    4.8015    6.1020    1.5557 H   0  0  0  0  0  0  0  0  0  0  0  0
    6.1872    5.1713    2.1293 H   0  0  0  0  0  0  0  0  0  0  0  0
    4.1508    6.6071    3.9079 H   0  0  0  0  0  0  0  0  0  0  0  0
    6.7196    5.0732    4.5650 H   0  0  0  0  0  0  0  0  0  0  0  0
    5.1737    5.0376    5.4516 H   0  0  0  0  0  0  0  0  0  0  0  0
    7.1433    6.7185    6.3559 H   0  0  0  0  0  0  0  0  0  0  0  0
    5.4830    7.3437    6.2331 H   0  0  0  0  0  0  0  0  0  0  0  0
    7.8004    7.7782    4.2777 H   0  0  0  0  0  0  0  0  0  0  0  0
    6.5328    8.9327    4.7648 H   0  0  0  0  0  0  0  0  0  0  0  0
    1.8054   -0.1682    0.9939 H   0  0  0  0  0  0  0  0  0  0  0  0
    3.5370   -0.4429    1.1489 H   0  0  0  0  0  0  0  0  0  0  0  0
    1.8505   -0.9162   -1.3831 H   0  0  0  0  0  0  0  0  0  0  0  0
    2.6707   -2.1273   -0.3744 H   0  0  0  0  0  0  0  0  0  0  0  0
    3.2968    0.5434   -2.7408 H   0  0  0  0  0  0  0  0  0  0  0  0
    5.0449    0.2288   -2.6460 H   0  0  0  0  0  0  0  0  0  0  0  0
    4.4172    2.3250   -1.3975 H   0  0  0  0  0  0  0  0  0  0  0  0
    5.1772    1.0972   -0.3734 H   0  0  0  0  0  0  0  0  0  0  0  0
  1  2  1  0
  1 19  1  0
  1 20  1  0
  2  3  1  0
  2 21  1  0
  2 22  1  0
  3  4  1  1
  3 14  1  0
  3 18  1  0
  4  5  2  0
  4  6  1  0
  6  7  1  0
  6 23  1  0
  6 24  1  0
  7  8  1  0
  7 25  1  0
  7 26  1  0
  8  9  1  0
  8 27  1  0
  8 28  1  0
  9 10  1  0
  9 13  1  0
  9 29  1  1
 10 11  1  0
 10 30  1  0
 10 31  1  0
 11 12  1  0
 11 32  1  0
 11 33  1  0
 12 13  1  0
 12 34  1  0
 12 35  1  0
 14 15  1  0
 14 36  1  0
 14 37  1  0
 15 16  1  0
 15 38  1  0
 15 39  1  0
 16 17  1  0
 17 18  1  0
 17 40  1  0
 17 41  1  0
 18 42  1  0
 18 43  1  0
M  END

