
     RDKit          3D

 54 55  0  0  0  0  0  0  0  0999 V2000
    3.3465   -0.7001   -5.9412 C   0  0  0  0  0  0  0  0  0  0  0  0
    4.5025    0.0041   -5.2294 C   0  0  0  0  0  0  0  0  0  0  0  0
    4.1104    0.6214   -3.8824 C   0  0  0  0  0  0  0  0  0  0  0  0
    5.2750    1.3170   -3.1706 C   0  0  0  0  0  0  0  0  0  0  0  0
    4.9037    2.0666   -1.8783 C   0  0  1  0  0  0  0  0  0  0  0  0
    4.2561    1.1788   -0.7919 C   0  0  0  0  0  0  0  0  0  0  0  0
    5.0943   -0.0068   -0.3027 C   0  0  0  0  0  0  0  0  0  0  0  0
    6.1115    2.8343   -1.2982 C   0  0  0  0  0  0  0  0  0  0  0  0
    6.6586    3.8524   -2.1758 N   0  0  0  0  0  0  0  0  0  0  0  0
    7.8871    3.7046   -2.7840 C   0  0  0  0  0  0  0  0  0  0  0  0
    8.5715    2.7008   -2.6295 O   0  0  0  0  0  0  0  0  0  0  0  0
    8.3204    4.7701   -3.5677 N   0  0  0  0  0  0  0  0  0  0  0  0
    7.5710    5.9952   -3.8100 C   0  0  0  0  0  0  0  0  0  0  0  0
    8.5276    7.1975   -3.9404 C   0  0  0  0  0  0  0  0  0  0  0  0
    9.6158    6.9902   -4.8866 N   0  0  0  0  0  0  0  0  0  0  0  0
    9.2659    7.1661   -6.2892 C   0  0  0  0  0  0  0  0  0  0  0  0
    9.0828    8.6125   -6.6398 C   0  0  0  0  0  0  0  0  0  0  0  0
    9.6242    9.7730   -6.1575 C   0  0  0  0  0  0  0  0  0  0  0  0
    9.0794   10.8340   -6.9569 C   0  0  0  0  0  0  0  0  0  0  0  0
    8.2517   10.2370   -7.8631 C   0  0  0  0  0  0  0  0  0  0  0  0
    8.2440    8.8905   -7.6758 O   0  0  0  0  0  0  0  0  0  0  0  0
   10.3403    5.7648   -4.5596 C   0  0  0  0  0  0  0  0  0  0  0  0
    9.4394    4.5294   -4.4764 C   0  0  0  0  0  0  0  0  0  0  0  0
    3.6647   -1.1304   -6.9044 H   0  0  0  0  0  0  0  0  0  0  0  0
    2.5168   -0.0027   -6.1467 H   0  0  0  0  0  0  0  0  0  0  0  0
    2.9392   -1.5223   -5.3288 H   0  0  0  0  0  0  0  0  0  0  0  0
    4.9137    0.7939   -5.8843 H   0  0  0  0  0  0  0  0  0  0  0  0
    5.3300   -0.7111   -5.0716 H   0  0  0  0  0  0  0  0  0  0  0  0
    3.6875   -0.1712   -3.2392 H   0  0  0  0  0  0  0  0  0  0  0  0
    3.2895    1.3469   -4.0409 H   0  0  0  0  0  0  0  0  0  0  0  0
    5.7286    2.0422   -3.8673 H   0  0  0  0  0  0  0  0  0  0  0  0
    6.0745    0.5858   -2.9581 H   0  0  0  0  0  0  0  0  0  0  0  0
    4.1407    2.8252   -2.1478 H   0  0  0  0  0  0  0  0  0  0  0  0
    3.2892    0.8045   -1.1679 H   0  0  0  0  0  0  0  0  0  0  0  0
    4.0039    1.8213    0.0712 H   0  0  0  0  0  0  0  0  0  0  0  0
    5.3115   -0.7208   -1.1130 H   0  0  0  0  0  0  0  0  0  0  0  0
    4.5595   -0.5606    0.4855 H   0  0  0  0  0  0  0  0  0  0  0  0
    6.0599    0.3124    0.1208 H   0  0  0  0  0  0  0  0  0  0  0  0
    6.9379    2.1439   -1.0819 H   0  0  0  0  0  0  0  0  0  0  0  0
    5.8096    3.3023   -0.3431 H   0  0  0  0  0  0  0  0  0  0  0  0
    6.0425    4.5998   -2.4636 H   0  0  0  0  0  0  0  0  0  0  0  0
    6.9030    6.2025   -2.9620 H   0  0  0  0  0  0  0  0  0  0  0  0
    6.9381    5.9055   -4.7181 H   0  0  0  0  0  0  0  0  0  0  0  0
    8.9698    7.3896   -2.9468 H   0  0  0  0  0  0  0  0  0  0  0  0
    7.9587    8.0958   -4.2261 H   0  0  0  0  0  0  0  0  0  0  0  0
    8.3542    6.6215   -6.6176 H   0  0  0  0  0  0  0  0  0  0  0  0
   10.0914    6.7467   -6.8923 H   0  0  0  0  0  0  0  0  0  0  0  0
   10.3269    9.8480   -5.3314 H   0  0  0  0  0  0  0  0  0  0  0  0
    9.2786   11.9000   -6.8660 H   0  0  0  0  0  0  0  0  0  0  0  0
    7.6219   10.6129   -8.6652 H   0  0  0  0  0  0  0  0  0  0  0  0
   10.8305    5.9105   -3.5805 H   0  0  0  0  0  0  0  0  0  0  0  0
   11.1355    5.6008   -5.3043 H   0  0  0  0  0  0  0  0  0  0  0  0
    9.9904    3.6591   -4.0991 H   0  0  0  0  0  0  0  0  0  0  0  0
    9.0597    4.2701   -5.4870 H   0  0  0  0  0  0  0  0  0  0  0  0
  1  2  1  0
  1 24  1  0
  1 25  1  0
  1 26  1  0
  2  3  1  0
  2 27  1  0
  2 28  1  0
  3  4  1  0
  3 29  1  0
  3 30  1  0
  4  5  1  0
  4 31  1  0
  4 32  1  0
  5  6  1  0
  5  8  1  0
  5 33  1  6
  6  7  1  0
  6 34  1  0
  6 35  1  0
  7 36  1  0
  7 37  1  0
  7 38  1  0
  8  9  1  0
  8 39  1  0
  8 40  1  0
  9 10  1  0
  9 41  1  0
 10 11  2  0
 10 12  1  0
 12 13  1  0
 12 23  1  0
 13 14  1  0
 13 42  1  0
 13 43  1  0
 14 15  1  0
 14 44  1  0
 14 45  1  0
 15 16  1  0
 15 22  1  0
 16 17  1  0
 16 46  1  0
 16 47  1  0
 17 18  2  0
 17 21  1  0
 18 19  1  0
 18 48  1  0
 19 20  2  0
 19 49  1  0
 20 21  1  0
 20 50  1  0
 22 23  1  0
 22 51  1  0
 22 52  1  0
 23 53  1  0
 23 54  1  0
M  END

