
     RDKit          3D

 66 69  0  0  0  0  0  0  0  0999 V2000
    2.9220    3.0501   -1.3738 C   0  0  0  0  0  0  0  0  0  0  0  0
    2.8750    1.5403   -1.1385 C   0  0  0  0  0  0  0  0  0  0  0  0
    3.9740    0.7460   -1.8745 C   0  0  0  0  0  0  0  0  0  0  0  0
    5.3848    1.0417   -1.4101 C   0  0  0  0  0  0  0  0  0  0  0  0
    5.8692    0.5187   -0.1952 C   0  0  0  0  0  0  0  0  0  0  0  0
    7.1538    0.7971    0.2582 C   0  0  0  0  0  0  0  0  0  0  0  0
    8.0086    1.6183   -0.4977 C   0  0  0  0  0  0  0  0  0  0  0  0
    9.2474    1.8352    0.0271 O   0  0  0  0  0  0  0  0  0  0  0  0
   10.1722    2.6321   -0.6956 C   0  0  0  0  0  0  0  0  0  0  0  0
   11.4532    2.7052    0.0554 C   0  0  0  0  0  0  0  0  0  0  0  0
   12.0648    3.7051    0.7672 C   0  0  0  0  0  0  0  0  0  0  0  0
   13.2876    3.1616    1.2664 C   0  0  0  0  0  0  0  0  0  0  0  0
   13.3351    1.8648    0.8266 C   0  0  0  0  0  0  0  0  0  0  0  0
   14.3572    0.8130    1.0483 C   0  0  0  0  0  0  0  0  0  0  0  0
   15.3668    1.0447    1.6923 O   0  0  0  0  0  0  0  0  0  0  0  0
   14.0581   -0.3973    0.4722 N   0  0  0  0  0  0  0  0  0  0  0  0
   14.8744   -1.5440    0.5506 C   0  0  0  0  0  0  0  0  0  0  0  0
   16.2435   -1.6808    0.1785 C   0  0  0  0  0  0  0  0  0  0  0  0
   17.1710   -0.6371   -0.3548 C   0  0  0  0  0  0  0  0  0  0  0  0
   16.6456   -2.9305    0.3880 N   0  0  0  0  0  0  0  0  0  0  0  0
   15.5784   -3.5945    0.8799 N   0  0  0  0  0  0  0  0  0  0  0  0
   15.6836   -5.0198    1.1389 C   0  0  0  0  0  0  0  0  0  0  0  0
   15.1549   -5.9028    0.0190 C   0  0  0  0  0  0  0  0  0  0  0  0
   15.5321   -5.6665   -1.3079 C   0  0  0  0  0  0  0  0  0  0  0  0
   15.0602   -6.5094   -2.3206 C   0  0  0  0  0  0  0  0  0  0  0  0
   14.2238   -7.5831   -2.0257 C   0  0  0  0  0  0  0  0  0  0  0  0
   13.8437   -7.8273   -0.6956 C   0  0  0  0  0  0  0  0  0  0  0  0
   13.0251   -8.8920   -0.4924 O   0  0  0  0  0  0  0  0  0  0  0  0
   12.6120   -9.2096    0.8161 C   0  0  0  0  0  0  0  0  0  0  0  0
   14.3089   -6.9813    0.3239 C   0  0  0  0  0  0  0  0  0  0  0  0
   14.4764   -2.7997    1.0014 C   0  0  0  0  0  0  0  0  0  0  0  0
   13.1601   -3.2666    1.5285 C   0  0  0  0  0  0  0  0  0  0  0  0
   12.2231    1.5837    0.0870 O   0  0  0  0  0  0  0  0  0  0  0  0
    7.5500    2.1488   -1.7106 C   0  0  0  0  0  0  0  0  0  0  0  0
    6.2513    1.8548   -2.1486 C   0  0  0  0  0  0  0  0  0  0  0  0
    2.1117    3.5630   -0.8312 H   0  0  0  0  0  0  0  0  0  0  0  0
    2.8091    3.2920   -2.4445 H   0  0  0  0  0  0  0  0  0  0  0  0
    3.8767    3.4836   -1.0353 H   0  0  0  0  0  0  0  0  0  0  0  0
    1.8928    1.1492   -1.4579 H   0  0  0  0  0  0  0  0  0  0  0  0
    2.9460    1.3325   -0.0559 H   0  0  0  0  0  0  0  0  0  0  0  0
    3.8973    0.9456   -2.9573 H   0  0  0  0  0  0  0  0  0  0  0  0
    3.7708   -0.3312   -1.7453 H   0  0  0  0  0  0  0  0  0  0  0  0
    5.2242   -0.1283    0.4072 H   0  0  0  0  0  0  0  0  0  0  0  0
    7.5272    0.3862    1.1986 H   0  0  0  0  0  0  0  0  0  0  0  0
    9.7862    3.6577   -0.8350 H   0  0  0  0  0  0  0  0  0  0  0  0
   10.3472    2.1967   -1.6978 H   0  0  0  0  0  0  0  0  0  0  0  0
   11.6781    4.7111    0.9163 H   0  0  0  0  0  0  0  0  0  0  0  0
   14.0468    3.6454    1.8754 H   0  0  0  0  0  0  0  0  0  0  0  0
   13.1759   -0.4640   -0.0247 H   0  0  0  0  0  0  0  0  0  0  0  0
   17.3373    0.1497    0.3972 H   0  0  0  0  0  0  0  0  0  0  0  0
   16.7479   -0.1467   -1.2475 H   0  0  0  0  0  0  0  0  0  0  0  0
   18.1316   -1.0958   -0.6270 H   0  0  0  0  0  0  0  0  0  0  0  0
   15.1639   -5.2530    2.0810 H   0  0  0  0  0  0  0  0  0  0  0  0
   16.7559   -5.2079    1.2993 H   0  0  0  0  0  0  0  0  0  0  0  0
   16.1925   -4.8284   -1.5404 H   0  0  0  0  0  0  0  0  0  0  0  0
   15.3532   -6.3272   -3.3579 H   0  0  0  0  0  0  0  0  0  0  0  0
   13.8483   -8.2499   -2.8043 H   0  0  0  0  0  0  0  0  0  0  0  0
   11.9743  -10.1004    0.7362 H   0  0  0  0  0  0  0  0  0  0  0  0
   12.0253   -8.3925    1.2746 H   0  0  0  0  0  0  0  0  0  0  0  0
   13.4685   -9.4426    1.4748 H   0  0  0  0  0  0  0  0  0  0  0  0
   14.0205   -7.1522    1.3622 H   0  0  0  0  0  0  0  0  0  0  0  0
   12.6927   -4.0235    0.8765 H   0  0  0  0  0  0  0  0  0  0  0  0
   12.4706   -2.4146    1.6131 H   0  0  0  0  0  0  0  0  0  0  0  0
   13.2576   -3.7117    2.5331 H   0  0  0  0  0  0  0  0  0  0  0  0
    8.1842    2.7874   -2.3259 H   0  0  0  0  0  0  0  0  0  0  0  0
    5.9124    2.2742   -3.1004 H   0  0  0  0  0  0  0  0  0  0  0  0
  1  2  1  0
  1 36  1  0
  1 37  1  0
  1 38  1  0
  2  3  1  0
  2 39  1  0
  2 40  1  0
  3  4  1  0
  3 41  1  0
  3 42  1  0
  4  5  2  0
  4 35  1  0
  5  6  1  0
  5 43  1  0
  6  7  2  0
  6 44  1  0
  7  8  1  0
  7 34  1  0
  8  9  1  0
  9 10  1  0
  9 45  1  0
  9 46  1  0
 10 11  2  0
 10 33  1  0
 11 12  1  0
 11 47  1  0
 12 13  2  0
 12 48  1  0
 13 14  1  0
 13 33  1  0
 14 15  2  0
 14 16  1  0
 16 17  1  0
 16 49  1  0
 17 18  1  0
 17 31  2  0
 18 19  1  0
 18 20  2  0
 19 50  1  0
 19 51  1  0
 19 52  1  0
 20 21  1  0
 21 22  1  0
 21 31  1  0
 22 23  1  0
 22 53  1  0
 22 54  1  0
 23 24  2  0
 23 30  1  0
 24 25  1  0
 24 55  1  0
 25 26  2  0
 25 56  1  0
 26 27  1  0
 26 57  1  0
 27 28  1  0
 27 30  2  0
 28 29  1  0
 29 58  1  0
 29 59  1  0
 29 60  1  0
 30 61  1  0
 31 32  1  0
 32 62  1  0
 32 63  1  0
 32 64  1  0
 34 35  2  0
 34 65  1  0
 35 66  1  0
M  END

