
     RDKit          3D

 37 39  0  0  0  0  0  0  0  0999 V2000
    0.9511    0.0066   -0.0592 C   0  0  0  0  0  0  0  0  0  0  0  0
    2.4831    0.0372   -0.0644 C   0  0  2  0  0  0  0  0  0  0  0  0
    3.0157    0.9345    1.0760 C   0  0  0  0  0  0  0  0  0  0  0  0
    4.5538    0.9619    1.0656 C   0  0  2  0  0  0  0  0  0  0  0  0
    5.0514    1.5143   -0.2807 C   0  0  0  0  0  0  0  0  0  0  0  0
    4.5560    0.6256   -1.4443 C   0  0  2  0  0  0  0  0  0  0  0  0
    5.0504    1.1688   -2.7889 C   0  0  0  0  0  0  0  0  0  0  0  0
    3.0117    0.5896   -1.4070 C   0  0  0  0  0  0  0  0  0  0  0  0
    5.0843   -0.8083   -1.2204 C   0  0  0  0  0  0  0  0  0  0  0  0
    4.5931   -1.3876    0.1228 C   0  0  1  0  0  0  0  0  0  0  0  0
    5.1960   -2.7808    0.3367 C   0  0  0  0  0  0  0  0  0  0  0  0
    6.1175   -3.1940   -0.3307 O   0  0  0  0  0  0  0  0  0  0  0  0
    4.6552   -3.6637    1.4692 C   0  0  0  0  0  0  0  0  0  0  0  0
    3.3427   -4.7368    0.8323 Cl  0  0  0  0  0  0  0  0  0  0  0  0
    5.0958   -0.4643    1.2720 C   0  0  0  0  0  0  0  0  0  0  0  0
    3.0431   -1.3910    0.1346 C   0  0  0  0  0  0  0  0  0  0  0  0
    0.5345    1.0177   -0.2003 H   0  0  0  0  0  0  0  0  0  0  0  0
    0.5624   -0.3868    0.8949 H   0  0  0  0  0  0  0  0  0  0  0  0
    0.5627   -0.6330   -0.8690 H   0  0  0  0  0  0  0  0  0  0  0  0
    2.6464    0.5609    2.0477 H   0  0  0  0  0  0  0  0  0  0  0  0
    2.6184    1.9580    0.9592 H   0  0  0  0  0  0  0  0  0  0  0  0
    4.9178    1.6034    1.8864 H   0  0  0  0  0  0  0  0  0  0  0  0
    6.1546    1.5586   -0.2901 H   0  0  0  0  0  0  0  0  0  0  0  0
    4.6906    2.5485   -0.4209 H   0  0  0  0  0  0  0  0  0  0  0  0
    4.6830    2.1939   -2.9631 H   0  0  0  0  0  0  0  0  0  0  0  0
    4.7014    0.5398   -3.6246 H   0  0  0  0  0  0  0  0  0  0  0  0
    6.1520    1.1947   -2.8267 H   0  0  0  0  0  0  0  0  0  0  0  0
    2.6361   -0.0350   -2.2372 H   0  0  0  0  0  0  0  0  0  0  0  0
    2.6113    1.6061   -1.5717 H   0  0  0  0  0  0  0  0  0  0  0  0
    6.1851   -0.8182   -1.2440 H   0  0  0  0  0  0  0  0  0  0  0  0
    4.7549   -1.4649   -2.0433 H   0  0  0  0  0  0  0  0  0  0  0  0
    4.2300   -3.0965    2.3062 H   0  0  0  0  0  0  0  0  0  0  0  0
    5.4637   -4.3178    1.8172 H   0  0  0  0  0  0  0  0  0  0  0  0
    6.1989   -0.4554    1.2839 H   0  0  0  0  0  0  0  0  0  0  0  0
    4.7645   -0.8492    2.2519 H   0  0  0  0  0  0  0  0  0  0  0  0
    2.6586   -1.8001    1.0837 H   0  0  0  0  0  0  0  0  0  0  0  0
    2.6667   -2.0534   -0.6624 H   0  0  0  0  0  0  0  0  0  0  0  0
  2  1  1  6
  1 17  1  0
  1 18  1  0
  1 19  1  0
  2  3  1  0
  2  8  1  0
  2 16  1  0
  3  4  1  0
  3 20  1  0
  3 21  1  0
  4  5  1  0
  4 15  1  0
  4 22  1  1
  5  6  1  0
  5 23  1  0
  5 24  1  0
  6  7  1  6
  6  8  1  0
  6  9  1  0
  7 25  1  0
  7 26  1  0
  7 27  1  0
  8 28  1  0
  8 29  1  0
  9 10  1  0
  9 30  1  0
  9 31  1  0
 10 11  1  1
 10 15  1  0
 10 16  1  0
 11 12  2  0
 11 13  1  0
 13 14  1  0
 13 32  1  0
 13 33  1  0
 15 34  1  0
 15 35  1  0
 16 36  1  0
 16 37  1  0
M  END

