
     RDKit          3D

 52 55  0  0  0  0  0  0  0  0999 V2000
    3.4725    1.2760    1.4167 C   0  0  0  0  0  0  0  0  0  0  0  0
    2.8776    0.4743    0.2679 C   0  0  1  0  0  0  0  0  0  0  0  0
    3.3976    0.9810   -1.1103 C   0  0  0  0  0  0  0  0  0  0  0  0
    3.8129    2.1223   -1.2249 O   0  0  0  0  0  0  0  0  0  0  0  0
    3.3042    0.1089   -2.1417 N   0  0  0  0  0  0  0  0  0  0  0  0
    3.5835    0.5095   -3.4978 C   0  0  1  0  0  0  0  0  0  0  0  0
    5.0368    0.8133   -3.8687 C   0  0  0  0  0  0  0  0  0  0  0  0
    5.0457    0.5209   -5.3753 C   0  0  0  0  0  0  0  0  0  0  0  0
    4.0383   -0.5358   -5.5440 N   0  0  0  0  0  0  0  0  0  0  0  0
    4.1183   -1.3981   -6.7388 C   0  0  1  0  0  0  0  0  0  0  0  0
    3.0949   -2.5480   -6.7970 C   0  0  0  0  0  0  0  0  0  0  0  0
    1.6946   -2.0782   -7.2008 C   0  0  0  0  0  0  0  0  0  0  0  0
    1.7113   -1.3247   -8.4020 O   0  0  0  0  0  0  0  0  0  0  0  0
    2.5342   -0.1838   -8.3097 C   0  0  0  0  0  0  0  0  0  0  0  0
    3.9885   -0.5689   -8.0360 C   0  0  0  0  0  0  0  0  0  0  0  0
    3.2252   -0.6430   -4.4513 C   0  0  0  0  0  0  0  0  0  0  0  0
    2.3660   -1.4748   -4.2097 O   0  0  0  0  0  0  0  0  0  0  0  0
    3.0819   -0.9687    0.4550 N   0  0  0  0  0  0  0  0  0  0  0  0
    3.9258   -1.4925    1.3305 N   0  0  0  0  0  0  0  0  0  0  0  0
    3.8511   -2.7844    1.1901 N   0  0  0  0  0  0  0  0  0  0  0  0
    2.9467   -3.0231    0.2023 C   0  0  0  0  0  0  0  0  0  0  0  0
    2.5812   -4.3593   -0.2832 C   0  0  0  0  0  0  0  0  0  0  0  0
    3.0353   -5.4990    0.4023 C   0  0  0  0  0  0  0  0  0  0  0  0
    2.6915   -6.7724   -0.0532 C   0  0  0  0  0  0  0  0  0  0  0  0
    1.8960   -6.9204   -1.1944 C   0  0  0  0  0  0  0  0  0  0  0  0
    1.4479   -5.7878   -1.8831 C   0  0  0  0  0  0  0  0  0  0  0  0
    1.7872   -4.5110   -1.4337 C   0  0  0  0  0  0  0  0  0  0  0  0
    2.4448   -1.8798   -0.2682 N   0  0  0  0  0  0  0  0  0  0  0  0
    3.2787    2.3389    1.2277 H   0  0  0  0  0  0  0  0  0  0  0  0
    4.5586    1.1295    1.4821 H   0  0  0  0  0  0  0  0  0  0  0  0
    3.0211    0.9794    2.3733 H   0  0  0  0  0  0  0  0  0  0  0  0
    1.7827    0.6090    0.2439 H   0  0  0  0  0  0  0  0  0  0  0  0
    2.7968   -0.7706   -2.0233 H   0  0  0  0  0  0  0  0  0  0  0  0
    2.9532    1.3802   -3.7700 H   0  0  0  0  0  0  0  0  0  0  0  0
    5.6972    0.1086   -3.3383 H   0  0  0  0  0  0  0  0  0  0  0  0
    5.3438    1.8359   -3.6161 H   0  0  0  0  0  0  0  0  0  0  0  0
    6.0260    0.1695   -5.7373 H   0  0  0  0  0  0  0  0  0  0  0  0
    4.7819    1.4204   -5.9603 H   0  0  0  0  0  0  0  0  0  0  0  0
    5.1310   -1.8428   -6.7150 H   0  0  0  0  0  0  0  0  0  0  0  0
    3.0483   -3.0922   -5.8456 H   0  0  0  0  0  0  0  0  0  0  0  0
    3.4642   -3.2445   -7.5686 H   0  0  0  0  0  0  0  0  0  0  0  0
    1.2429   -1.4913   -6.3794 H   0  0  0  0  0  0  0  0  0  0  0  0
    1.0429   -2.9456   -7.3864 H   0  0  0  0  0  0  0  0  0  0  0  0
    2.1663    0.4979   -7.5126 H   0  0  0  0  0  0  0  0  0  0  0  0
    2.4475    0.3520   -9.2677 H   0  0  0  0  0  0  0  0  0  0  0  0
    4.6279    0.3279   -8.0091 H   0  0  0  0  0  0  0  0  0  0  0  0
    4.3493   -1.1915   -8.8714 H   0  0  0  0  0  0  0  0  0  0  0  0
    3.6558   -5.3702    1.2910 H   0  0  0  0  0  0  0  0  0  0  0  0
    3.0456   -7.6547    0.4859 H   0  0  0  0  0  0  0  0  0  0  0  0
    1.6275   -7.9189   -1.5492 H   0  0  0  0  0  0  0  0  0  0  0  0
    0.8323   -5.8994   -2.7792 H   0  0  0  0  0  0  0  0  0  0  0  0
    1.4536   -3.6263   -1.9801 H   0  0  0  0  0  0  0  0  0  0  0  0
  1  2  1  0
  1 29  1  0
  1 30  1  0
  1 31  1  0
  2  3  1  0
  2 18  1  0
  2 32  1  6
  3  4  2  0
  3  5  1  0
  5  6  1  0
  5 33  1  0
  6  7  1  0
  6 16  1  0
  6 34  1  6
  7  8  1  0
  7 35  1  0
  7 36  1  0
  8  9  1  0
  8 37  1  0
  8 38  1  0
  9 10  1  0
  9 16  1  0
 10 11  1  0
 10 15  1  0
 10 39  1  6
 11 12  1  0
 11 40  1  0
 11 41  1  0
 12 13  1  0
 12 42  1  0
 12 43  1  0
 13 14  1  0
 14 15  1  0
 14 44  1  0
 14 45  1  0
 15 46  1  0
 15 47  1  0
 16 17  2  0
 18 19  1  0
 18 28  1  0
 19 20  2  0
 20 21  1  0
 21 22  1  0
 21 28  2  0
 22 23  2  0
 22 27  1  0
 23 24  1  0
 23 48  1  0
 24 25  2  0
 24 49  1  0
 25 26  1  0
 25 50  1  0
 26 27  2  0
 26 51  1  0
 27 52  1  0
M  END

