
     RDKit          3D

 29 30  0  0  0  0  0  0  0  0999 V2000
    0.8437    1.1839    0.1199 O   0  0  0  0  0  0  0  0  0  0  0  0
    1.9721    0.7817   -0.0382 C   0  0  0  0  0  0  0  0  0  0  0  0
    2.3463   -0.6755    0.2206 C   0  0  0  0  0  0  0  0  0  0  0  0
    3.5217   -1.0625   -0.4568 O   0  0  0  0  0  0  0  0  0  0  0  0
    4.5163   -0.0814   -0.1545 N   0  0  0  0  0  0  0  0  0  0  0  0
    4.2372    1.0439   -1.0278 N   0  0  0  0  0  0  0  0  0  0  0  0
    5.4517    1.8601   -1.2053 C   0  0  1  0  0  0  0  0  0  0  0  0
    6.5246    1.0838   -2.0017 C   0  0  0  0  0  0  0  0  0  0  0  0
    6.0867    0.7979   -3.4442 C   0  0  0  0  0  0  0  0  0  0  0  0
    5.7303    2.0936   -4.1848 C   0  0  0  0  0  0  0  0  0  0  0  0
    4.6952    2.9216   -3.4114 C   0  0  0  0  0  0  0  0  0  0  0  0
    5.1418    3.1660   -1.9631 C   0  0  0  0  0  0  0  0  0  0  0  0
    3.1116    1.7339   -0.4043 C   0  0  0  0  0  0  0  0  0  0  0  0
    1.5318   -1.3285   -0.1242 H   0  0  0  0  0  0  0  0  0  0  0  0
    2.4562   -0.7955    1.3187 H   0  0  0  0  0  0  0  0  0  0  0  0
    5.3528   -0.5236   -0.5350 H   0  0  0  0  0  0  0  0  0  0  0  0
    5.8665    2.1250   -0.2067 H   0  0  0  0  0  0  0  0  0  0  0  0
    6.8178    0.1489   -1.4939 H   0  0  0  0  0  0  0  0  0  0  0  0
    7.4394    1.7019   -2.0029 H   0  0  0  0  0  0  0  0  0  0  0  0
    5.2083    0.1313   -3.4261 H   0  0  0  0  0  0  0  0  0  0  0  0
    6.8874    0.2598   -3.9785 H   0  0  0  0  0  0  0  0  0  0  0  0
    5.3579    1.8653   -5.1974 H   0  0  0  0  0  0  0  0  0  0  0  0
    6.6475    2.6970   -4.3205 H   0  0  0  0  0  0  0  0  0  0  0  0
    3.7283    2.3904   -3.4138 H   0  0  0  0  0  0  0  0  0  0  0  0
    4.5252    3.8881   -3.9150 H   0  0  0  0  0  0  0  0  0  0  0  0
    4.4025    3.7739   -1.4197 H   0  0  0  0  0  0  0  0  0  0  0  0
    6.0711    3.7616   -1.9622 H   0  0  0  0  0  0  0  0  0  0  0  0
    2.6892    2.4927   -1.0755 H   0  0  0  0  0  0  0  0  0  0  0  0
    3.4023    2.2410    0.5457 H   0  0  0  0  0  0  0  0  0  0  0  0
  1  2  2  0
  2  3  1  0
  2 13  1  0
  3  4  1  0
  3 14  1  0
  3 15  1  0
  4  5  1  0
  5  6  1  0
  5 16  1  0
  6  7  1  0
  6 13  1  0
  7  8  1  0
  7 12  1  0
  7 17  1  1
  8  9  1  0
  8 18  1  0
  8 19  1  0
  9 10  1  0
  9 20  1  0
  9 21  1  0
 10 11  1  0
 10 22  1  0
 10 23  1  0
 11 12  1  0
 11 24  1  0
 11 25  1  0
 12 26  1  0
 12 27  1  0
 13 28  1  0
 13 29  1  0
M  END

