
     RDKit          3D

 35 37  0  0  0  0  0  0  0  0999 V2000
    6.4738   -1.2836    4.2457 C   0  0  0  0  0  0  0  0  0  0  0  0
    6.3398   -0.7017    2.8716 C   0  0  0  0  0  0  0  0  0  0  0  0
    6.1053    0.6404    2.5165 C   0  0  0  0  0  0  0  0  0  0  0  0
    6.0622    0.6514    1.1138 C   0  0  0  0  0  0  0  0  0  0  0  0
    5.9174    1.6060    0.0326 C   0  0  0  0  0  0  0  0  0  0  0  0
    5.6809    2.9448    0.2886 N   0  0  0  0  0  0  0  0  0  0  0  0
    4.7905    3.3955    1.3567 C   0  0  0  0  0  0  0  0  0  0  0  0
    5.2765    4.7216    1.9426 C   0  0  0  0  0  0  0  0  0  0  0  0
    5.4704    5.7880    0.8659 C   0  0  2  0  0  0  0  0  0  0  0  0
    3.6732    6.4460    0.2524 Br  0  0  0  0  0  0  0  0  0  0  0  0
    6.3159    5.2574   -0.2992 C   0  0  2  0  0  0  0  0  0  0  0  0
    6.5261    6.2535   -1.4401 C   0  0  0  0  0  0  0  0  0  0  0  0
    5.7978    3.9031   -0.8090 C   0  0  0  0  0  0  0  0  0  0  0  0
    6.0718    1.2250   -1.2219 N   0  0  0  0  0  0  0  0  0  0  0  0
    6.3306   -0.0765   -1.5141 C   0  0  0  0  0  0  0  0  0  0  0  0
    6.4231   -1.0581   -0.5696 C   0  0  0  0  0  0  0  0  0  0  0  0
    6.2914   -0.6698    0.7435 N   0  0  0  0  0  0  0  0  0  0  0  0
    6.4499   -1.4860    1.7880 N   0  0  0  0  0  0  0  0  0  0  0  0
    6.3283   -0.5142    5.0170 H   0  0  0  0  0  0  0  0  0  0  0  0
    7.4701   -1.7325    4.3885 H   0  0  0  0  0  0  0  0  0  0  0  0
    5.7325   -2.0822    4.4081 H   0  0  0  0  0  0  0  0  0  0  0  0
    6.0074    1.4786    3.1987 H   0  0  0  0  0  0  0  0  0  0  0  0
    4.7194    2.6346    2.1390 H   0  0  0  0  0  0  0  0  0  0  0  0
    3.7679    3.5314    0.9527 H   0  0  0  0  0  0  0  0  0  0  0  0
    6.2567    4.5622    2.4273 H   0  0  0  0  0  0  0  0  0  0  0  0
    4.5789    5.0759    2.7163 H   0  0  0  0  0  0  0  0  0  0  0  0
    5.9181    6.6976    1.2865 H   0  0  0  0  0  0  0  0  0  0  0  0
    7.3024    5.0595    0.1640 H   0  0  0  0  0  0  0  0  0  0  0  0
    5.5852    6.4568   -1.9734 H   0  0  0  0  0  0  0  0  0  0  0  0
    7.2537    5.8586   -2.1666 H   0  0  0  0  0  0  0  0  0  0  0  0
    6.9120    7.2143   -1.0636 H   0  0  0  0  0  0  0  0  0  0  0  0
    6.4835    3.4874   -1.5562 H   0  0  0  0  0  0  0  0  0  0  0  0
    4.8224    4.0401   -1.3161 H   0  0  0  0  0  0  0  0  0  0  0  0
    6.4496   -0.3284   -2.5718 H   0  0  0  0  0  0  0  0  0  0  0  0
    6.6128   -2.1147   -0.7487 H   0  0  0  0  0  0  0  0  0  0  0  0
  1  2  1  0
  1 19  1  0
  1 20  1  0
  1 21  1  0
  2  3  1  0
  2 18  2  0
  3  4  2  0
  3 22  1  0
  4  5  1  0
  4 17  1  0
  5  6  1  0
  5 14  2  0
  6  7  1  0
  6 13  1  0
  7  8  1  0
  7 23  1  0
  7 24  1  0
  8  9  1  0
  8 25  1  0
  8 26  1  0
  9 10  1  0
  9 11  1  0
  9 27  1  1
 11 12  1  0
 11 13  1  0
 11 28  1  1
 12 29  1  0
 12 30  1  0
 12 31  1  0
 13 32  1  0
 13 33  1  0
 14 15  1  0
 15 16  2  0
 15 34  1  0
 16 17  1  0
 16 35  1  0
 17 18  1  0
M  END

