
     RDKit          3D

 24 25  0  0  0  0  0  0  0  0999 V2000
    1.2345    0.4624   -0.0485 C   0  0  0  0  0  0  0  0  0  0  0  0
    2.6121   -0.0056    0.2884 C   0  0  0  0  0  0  0  0  0  0  0  0
    3.3869    0.7036    1.0714 N   0  0  0  0  0  0  0  0  0  0  0  0
    4.5802    0.0034    1.1837 O   0  0  0  0  0  0  0  0  0  0  0  0
    4.5192   -1.1203    0.4608 C   0  0  0  0  0  0  0  0  0  0  0  0
    5.6889   -2.0221    0.4902 C   0  0  0  0  0  0  0  0  0  0  0  0
    5.5342   -3.3195    1.0193 C   0  0  0  0  0  0  0  0  0  0  0  0
    6.6082   -4.2074    1.0818 C   0  0  0  0  0  0  0  0  0  0  0  0
    7.8641   -3.8064    0.6195 C   0  0  0  0  0  0  0  0  0  0  0  0
    8.0429   -2.5271    0.0880 C   0  0  0  0  0  0  0  0  0  0  0  0
    6.9643   -1.6408    0.0194 C   0  0  0  0  0  0  0  0  0  0  0  0
    7.2510    0.0683   -0.7653 Br  0  0  0  0  0  0  0  0  0  0  0  0
    3.2852   -1.2045   -0.1479 C   0  0  0  0  0  0  0  0  0  0  0  0
    2.7103   -2.2205   -1.0658 C   0  0  0  0  0  0  0  0  0  0  0  0
    1.5572   -2.1983   -1.4136 O   0  0  0  0  0  0  0  0  0  0  0  0
    3.5367   -3.1913   -1.5119 O   0  0  0  0  0  0  0  0  0  0  0  0
    1.0448    1.4309    0.4333 H   0  0  0  0  0  0  0  0  0  0  0  0
    0.4861   -0.2725    0.2824 H   0  0  0  0  0  0  0  0  0  0  0  0
    1.1136    0.5588   -1.1377 H   0  0  0  0  0  0  0  0  0  0  0  0
    4.5536   -3.6197    1.3953 H   0  0  0  0  0  0  0  0  0  0  0  0
    6.4643   -5.2062    1.4990 H   0  0  0  0  0  0  0  0  0  0  0  0
    8.7140   -4.4914    0.6671 H   0  0  0  0  0  0  0  0  0  0  0  0
    9.0193   -2.2127   -0.2838 H   0  0  0  0  0  0  0  0  0  0  0  0
    4.4453   -3.0620   -1.1990 H   0  0  0  0  0  0  0  0  0  0  0  0
  1  2  1  0
  1 17  1  0
  1 18  1  0
  1 19  1  0
  2  3  2  0
  2 13  1  0
  3  4  1  0
  4  5  1  0
  5  6  1  0
  5 13  2  0
  6  7  2  0
  6 11  1  0
  7  8  1  0
  7 20  1  0
  8  9  2  0
  8 21  1  0
  9 10  1  0
  9 22  1  0
 10 11  2  0
 10 23  1  0
 11 12  1  0
 13 14  1  0
 14 15  2  0
 14 16  1  0
 16 24  1  0
M  END

