
     RDKit          3D

 46 48  0  0  0  0  0  0  0  0999 V2000
    5.3179   -2.2607   -5.3502 C   0  0  0  0  0  0  0  0  0  0  0  0
    5.6923   -1.7279   -3.9991 C   0  0  0  0  0  0  0  0  0  0  0  0
    4.8639   -2.2967   -2.5646 S   0  0  0  0  0  0  0  0  0  0  0  0
    5.8221   -1.2647   -1.5482 C   0  0  0  0  0  0  0  0  0  0  0  0
    5.6698   -1.2155   -0.2021 N   0  0  0  0  0  0  0  0  0  0  0  0
    6.4549   -0.3915    0.4155 C   0  0  0  0  0  0  0  0  0  0  0  0
    7.3967    0.4006   -0.1964 N   0  0  0  0  0  0  0  0  0  0  0  0
    8.2133    1.3158    0.6078 C   0  0  0  0  0  0  0  0  0  0  0  0
    9.5730    0.7228    1.0200 C   0  0  0  0  0  0  0  0  0  0  0  0
    9.8073    0.4135    2.1768 O   0  0  0  0  0  0  0  0  0  0  0  0
   10.4665    0.5759    0.0077 N   0  0  0  0  0  0  0  0  0  0  0  0
   11.7972    0.0889    0.2712 C   0  0  1  0  0  0  0  0  0  0  0  0
   11.9702   -1.4171    0.5219 C   0  0  0  0  0  0  0  0  0  0  0  0
   13.2779   -1.7656   -0.1727 C   0  0  0  0  0  0  0  0  0  0  0  0
   13.9210   -2.7806   -0.0717 O   0  0  0  0  0  0  0  0  0  0  0  0
   13.6167   -0.6899   -1.0116 N   0  0  0  0  0  0  0  0  0  0  0  0
   14.7743   -0.7433   -1.9252 C   0  0  1  0  0  0  0  0  0  0  0  0
   14.3211   -0.7931   -3.3883 C   0  0  0  0  0  0  0  0  0  0  0  0
   15.7551    0.3980   -1.6403 C   0  0  0  0  0  0  0  0  0  0  0  0
   12.7289    0.3724   -0.9137 C   0  0  0  0  0  0  0  0  0  0  0  0
   12.7007    1.3507   -1.6239 O   0  0  0  0  0  0  0  0  0  0  0  0
    7.6304    0.3750   -1.5957 C   0  0  0  0  0  0  0  0  0  0  0  0
    8.5251    1.0720   -2.0725 O   0  0  0  0  0  0  0  0  0  0  0  0
    6.7399   -0.5230   -2.3047 C   0  0  0  0  0  0  0  0  0  0  0  0
    6.6636   -0.7917   -3.7178 C   0  0  0  0  0  0  0  0  0  0  0  0
    7.5148   -0.1462   -4.7798 C   0  0  0  0  0  0  0  0  0  0  0  0
    4.4931   -2.9854   -5.2930 H   0  0  0  0  0  0  0  0  0  0  0  0
    6.1740   -2.7651   -5.8303 H   0  0  0  0  0  0  0  0  0  0  0  0
    5.0026   -1.4464   -6.0245 H   0  0  0  0  0  0  0  0  0  0  0  0
    6.3925   -0.2896    1.5042 H   0  0  0  0  0  0  0  0  0  0  0  0
    7.6762    1.5482    1.5342 H   0  0  0  0  0  0  0  0  0  0  0  0
    8.3615    2.2328    0.0208 H   0  0  0  0  0  0  0  0  0  0  0  0
   10.2147    0.9085   -0.9259 H   0  0  0  0  0  0  0  0  0  0  0  0
   12.2077    0.6377    1.1391 H   0  0  0  0  0  0  0  0  0  0  0  0
   11.1635   -1.9903    0.0356 H   0  0  0  0  0  0  0  0  0  0  0  0
   11.9916   -1.7030    1.5811 H   0  0  0  0  0  0  0  0  0  0  0  0
   15.2562   -1.6992   -1.6702 H   0  0  0  0  0  0  0  0  0  0  0  0
   13.8017    0.1333   -3.6733 H   0  0  0  0  0  0  0  0  0  0  0  0
   13.6450   -1.6447   -3.5623 H   0  0  0  0  0  0  0  0  0  0  0  0
   15.1966   -0.9182   -4.0444 H   0  0  0  0  0  0  0  0  0  0  0  0
   15.3024    1.3762   -1.8587 H   0  0  0  0  0  0  0  0  0  0  0  0
   16.6503    0.2827   -2.2707 H   0  0  0  0  0  0  0  0  0  0  0  0
   16.0794    0.3860   -0.5881 H   0  0  0  0  0  0  0  0  0  0  0  0
    8.2457    0.5370   -4.3320 H   0  0  0  0  0  0  0  0  0  0  0  0
    6.8955    0.4270   -5.4910 H   0  0  0  0  0  0  0  0  0  0  0  0
    8.0584   -0.9038   -5.3692 H   0  0  0  0  0  0  0  0  0  0  0  0
  1  2  1  0
  1 27  1  0
  1 28  1  0
  1 29  1  0
  2  3  1  0
  2 25  2  0
  3  4  2  0
  4  5  1  0
  4 24  1  0
  5  6  2  0
  6  7  1  0
  6 30  1  0
  7  8  1  0
  7 22  1  0
  8  9  1  0
  8 31  1  0
  8 32  1  0
  9 10  2  0
  9 11  1  0
 11 12  1  0
 11 33  1  0
 12 13  1  0
 12 20  1  0
 12 34  1  1
 13 14  1  0
 13 35  1  0
 13 36  1  0
 14 15  2  0
 14 16  1  0
 16 17  1  0
 16 20  1  0
 17 18  1  0
 17 19  1  0
 17 37  1  1
 18 38  1  0
 18 39  1  0
 18 40  1  0
 19 41  1  0
 19 42  1  0
 19 43  1  0
 20 21  2  0
 22 23  1  0
 22 24  2  0
 24 25  1  0
 25 26  1  0
 26 44  1  0
 26 45  1  0
 26 46  1  0
M  CHG  2   3   1  23  -1
M  END

