
     RDKit          3D

 52 55  0  0  0  0  0  0  0  0999 V2000
    3.1929   -3.7034   -4.0874 C   0  0  0  0  0  0  0  0  0  0  0  0
    3.9746   -2.7299   -3.2364 C   0  0  0  0  0  0  0  0  0  0  0  0
    4.8990   -1.8599   -3.8314 C   0  0  0  0  0  0  0  0  0  0  0  0
    5.6209   -0.9326   -3.0735 C   0  0  0  0  0  0  0  0  0  0  0  0
    5.4238   -0.8587   -1.6944 C   0  0  0  0  0  0  0  0  0  0  0  0
    4.5130   -1.7241   -1.0839 C   0  0  0  0  0  0  0  0  0  0  0  0
    3.7930   -2.6611   -1.8349 C   0  0  0  0  0  0  0  0  0  0  0  0
    2.8008   -3.5561   -1.1377 C   0  0  0  0  0  0  0  0  0  0  0  0
    1.4977   -2.9680   -1.2453 O   0  0  0  0  0  0  0  0  0  0  0  0
    0.4014   -3.6470   -0.8641 C   0  0  0  0  0  0  0  0  0  0  0  0
    0.3874   -5.0122   -0.5359 C   0  0  0  0  0  0  0  0  0  0  0  0
   -0.8146   -5.6718   -0.2700 C   0  0  0  0  0  0  0  0  0  0  0  0
   -2.0209   -4.9734   -0.3404 C   0  0  0  0  0  0  0  0  0  0  0  0
   -3.6691   -5.8772   -0.0137 Br  0  0  0  0  0  0  0  0  0  0  0  0
   -2.0241   -3.6126   -0.6428 C   0  0  0  0  0  0  0  0  0  0  0  0
   -0.8202   -2.9212   -0.8596 C   0  0  0  0  0  0  0  0  0  0  0  0
   -0.8873   -1.4739   -1.1131 C   0  0  0  0  0  0  0  0  0  0  0  0
   -0.1858   -0.4822   -0.5139 C   0  0  0  0  0  0  0  0  0  0  0  0
   -0.4095    1.2333   -0.9306 S   0  0  0  0  0  0  0  0  0  0  0  0
    0.5644    1.7920    0.4270 C   0  0  0  0  0  0  0  0  0  0  0  0
    0.8191    3.3639    0.8178 S   0  0  0  0  0  0  0  0  0  0  0  0
    1.0359    0.6932    1.1264 N   0  0  0  0  0  0  0  0  0  0  0  0
    1.7722    0.8480    2.2720 N   0  0  0  0  0  0  0  0  0  0  0  0
    3.1614    0.7537    2.2100 C   0  0  0  0  0  0  0  0  0  0  0  0
    3.7437    0.4288    1.1980 O   0  0  0  0  0  0  0  0  0  0  0  0
    3.8607    1.0597    3.5022 C   0  0  0  0  0  0  0  0  0  0  0  0
    5.2041    1.4593    3.4343 C   0  0  0  0  0  0  0  0  0  0  0  0
    5.9035    1.7535    4.6043 C   0  0  0  0  0  0  0  0  0  0  0  0
    5.2819    1.6397    5.8516 C   0  0  0  0  0  0  0  0  0  0  0  0
    3.9489    1.2234    5.9136 C   0  0  0  0  0  0  0  0  0  0  0  0
    3.1675    1.0524    7.4673 Cl  0  0  0  0  0  0  0  0  0  0  0  0
    3.2320    0.9314    4.7506 C   0  0  0  0  0  0  0  0  0  0  0  0
    0.7083   -0.6120    0.6684 C   0  0  0  0  0  0  0  0  0  0  0  0
    1.0799   -1.6117    1.2276 O   0  0  0  0  0  0  0  0  0  0  0  0
    3.4195   -3.5656   -5.1545 H   0  0  0  0  0  0  0  0  0  0  0  0
    2.1070   -3.5749   -3.9528 H   0  0  0  0  0  0  0  0  0  0  0  0
    3.4271   -4.7520   -3.8343 H   0  0  0  0  0  0  0  0  0  0  0  0
    5.0506   -1.9064   -4.9137 H   0  0  0  0  0  0  0  0  0  0  0  0
    6.3313   -0.2636   -3.5667 H   0  0  0  0  0  0  0  0  0  0  0  0
    5.9611   -0.1251   -1.0894 H   0  0  0  0  0  0  0  0  0  0  0  0
    4.3427   -1.6474   -0.0086 H   0  0  0  0  0  0  0  0  0  0  0  0
    3.0506   -3.6662   -0.0694 H   0  0  0  0  0  0  0  0  0  0  0  0
    2.7926   -4.5583   -1.5961 H   0  0  0  0  0  0  0  0  0  0  0  0
    1.3163   -5.5795   -0.4920 H   0  0  0  0  0  0  0  0  0  0  0  0
   -0.8078   -6.7339   -0.0193 H   0  0  0  0  0  0  0  0  0  0  0  0
   -2.9683   -3.0656   -0.6773 H   0  0  0  0  0  0  0  0  0  0  0  0
   -1.6513   -1.1614   -1.8362 H   0  0  0  0  0  0  0  0  0  0  0  0
    1.3569    1.4994    2.9344 H   0  0  0  0  0  0  0  0  0  0  0  0
    5.6796    1.5345    2.4553 H   0  0  0  0  0  0  0  0  0  0  0  0
    6.9468    2.0738    4.5516 H   0  0  0  0  0  0  0  0  0  0  0  0
    5.8223    1.8635    6.7728 H   0  0  0  0  0  0  0  0  0  0  0  0
    2.2046    0.5751    4.8339 H   0  0  0  0  0  0  0  0  0  0  0  0
  1  2  1  0
  1 35  1  0
  1 36  1  0
  1 37  1  0
  2  3  2  0
  2  7  1  0
  3  4  1  0
  3 38  1  0
  4  5  2  0
  4 39  1  0
  5  6  1  0
  5 40  1  0
  6  7  2  0
  6 41  1  0
  7  8  1  0
  8  9  1  0
  8 42  1  0
  8 43  1  0
  9 10  1  0
 10 11  2  0
 10 16  1  0
 11 12  1  0
 11 44  1  0
 12 13  2  0
 12 45  1  0
 13 14  1  0
 13 15  1  0
 15 16  2  0
 15 46  1  0
 16 17  1  0
 17 18  2  0
 17 47  1  0
 18 19  1  0
 18 33  1  0
 19 20  1  0
 20 21  2  0
 20 22  1  0
 22 23  1  0
 22 33  1  0
 23 24  1  0
 23 48  1  0
 24 25  2  0
 24 26  1  0
 26 27  2  0
 26 32  1  0
 27 28  1  0
 27 49  1  0
 28 29  2  0
 28 50  1  0
 29 30  1  0
 29 51  1  0
 30 31  1  0
 30 32  2  0
 32 52  1  0
 33 34  2  0
M  END

