
     RDKit          3D

 62 64  0  0  0  0  0  0  0  0999 V2000
   14.4338   -2.0440   -2.9692 C   0  0  0  0  0  0  0  0  0  0  0  0
   13.1213   -2.4773   -2.7372 O   0  0  0  0  0  0  0  0  0  0  0  0
   12.4241   -2.8240   -3.8991 C   0  0  0  0  0  0  0  0  0  0  0  0
   11.0089   -3.2595   -3.5498 C   0  0  0  0  0  0  0  0  0  0  0  0
   10.2249   -2.1601   -3.0058 N   0  0  0  0  0  0  0  0  0  0  0  0
    8.8785   -2.4173   -2.0569 S   0  0  1  0  0  0  0  0  0  0  0  0
    9.2348   -3.4594   -1.0920 O   0  0  0  0  0  0  0  0  0  0  0  0
    8.4293   -1.0845   -1.6566 O   0  0  0  0  0  0  0  0  0  0  0  0
    7.6046   -3.1069   -3.1277 C   0  0  0  0  0  0  0  0  0  0  0  0
    6.7440   -2.2559   -3.8235 C   0  0  0  0  0  0  0  0  0  0  0  0
    5.7905   -2.8135   -4.6758 C   0  0  0  0  0  0  0  0  0  0  0  0
    5.6635   -4.2019   -4.8522 C   0  0  0  0  0  0  0  0  0  0  0  0
    4.6242   -4.7409   -5.8022 C   0  0  0  0  0  0  0  0  0  0  0  0
    6.5234   -5.0477   -4.1090 C   0  0  0  0  0  0  0  0  0  0  0  0
    6.4414   -6.5513   -4.2449 C   0  0  0  0  0  0  0  0  0  0  0  0
    6.2594   -7.1017   -5.3212 O   0  0  0  0  0  0  0  0  0  0  0  0
    6.5894   -7.2390   -3.0717 N   0  0  0  0  0  0  0  0  0  0  0  0
    6.6054   -8.6842   -2.9969 C   0  0  0  0  0  0  0  0  0  0  0  0
    7.9536   -9.2555   -2.4799 C   0  0  1  0  0  0  0  0  0  0  0  0
    8.3430   -8.5481   -1.1846 C   0  0  0  0  0  0  0  0  0  0  0  0
    7.6647   -8.8684    0.0053 C   0  0  0  0  0  0  0  0  0  0  0  0
    7.9137   -8.1910    1.1986 C   0  0  0  0  0  0  0  0  0  0  0  0
    8.8520   -7.1542    1.2271 C   0  0  0  0  0  0  0  0  0  0  0  0
    9.5495   -6.8162    0.0677 C   0  0  0  0  0  0  0  0  0  0  0  0
    9.2991   -7.5202   -1.1157 C   0  0  0  0  0  0  0  0  0  0  0  0
   10.2428   -7.0683   -2.5371 Cl  0  0  0  0  0  0  0  0  0  0  0  0
    7.8432  -10.6948   -2.2700 N   0  0  0  0  0  0  0  0  0  0  0  0
    7.3651  -11.4794   -3.4107 C   0  0  0  0  0  0  0  0  0  0  0  0
    7.6324  -12.9402   -3.0004 C   0  0  0  0  0  0  0  0  0  0  0  0
    8.7558  -12.8467   -1.9340 C   0  0  0  0  0  0  0  0  0  0  0  0
    9.0905  -11.3494   -1.8706 C   0  0  0  0  0  0  0  0  0  0  0  0
    7.4892   -4.4914   -3.2582 C   0  0  0  0  0  0  0  0  0  0  0  0
   14.8847   -1.8019   -1.9959 H   0  0  0  0  0  0  0  0  0  0  0  0
   14.4663   -1.1368   -3.6074 H   0  0  0  0  0  0  0  0  0  0  0  0
   15.0515   -2.8247   -3.4596 H   0  0  0  0  0  0  0  0  0  0  0  0
   12.9222   -3.6619   -4.4335 H   0  0  0  0  0  0  0  0  0  0  0  0
   12.3951   -1.9712   -4.6147 H   0  0  0  0  0  0  0  0  0  0  0  0
   11.0573   -4.0460   -2.7835 H   0  0  0  0  0  0  0  0  0  0  0  0
   10.5472   -3.6996   -4.4562 H   0  0  0  0  0  0  0  0  0  0  0  0
   10.1333   -1.3193   -3.5721 H   0  0  0  0  0  0  0  0  0  0  0  0
    6.8138   -1.1753   -3.6838 H   0  0  0  0  0  0  0  0  0  0  0  0
    5.1129   -2.1506   -5.2205 H   0  0  0  0  0  0  0  0  0  0  0  0
    3.9951   -3.9287   -6.1940 H   0  0  0  0  0  0  0  0  0  0  0  0
    3.9732   -5.4828   -5.3139 H   0  0  0  0  0  0  0  0  0  0  0  0
    5.1017   -5.2686   -6.6402 H   0  0  0  0  0  0  0  0  0  0  0  0
    6.6618   -6.7138   -2.2084 H   0  0  0  0  0  0  0  0  0  0  0  0
    6.4002   -9.0446   -4.0130 H   0  0  0  0  0  0  0  0  0  0  0  0
    5.7974   -9.0426   -2.3348 H   0  0  0  0  0  0  0  0  0  0  0  0
    8.7219   -9.0270   -3.2469 H   0  0  0  0  0  0  0  0  0  0  0  0
    6.9388   -9.6843   -0.0303 H   0  0  0  0  0  0  0  0  0  0  0  0
    7.3702   -8.4668    2.1057 H   0  0  0  0  0  0  0  0  0  0  0  0
    9.0438   -6.6025    2.1504 H   0  0  0  0  0  0  0  0  0  0  0  0
   10.2710   -5.9986    0.0645 H   0  0  0  0  0  0  0  0  0  0  0  0
    7.9318  -11.2286   -4.3370 H   0  0  0  0  0  0  0  0  0  0  0  0
    6.3017  -11.2906   -3.6180 H   0  0  0  0  0  0  0  0  0  0  0  0
    7.9213  -13.5495   -3.8697 H   0  0  0  0  0  0  0  0  0  0  0  0
    6.7264  -13.3949   -2.5728 H   0  0  0  0  0  0  0  0  0  0  0  0
    9.6402  -13.4490   -2.1898 H   0  0  0  0  0  0  0  0  0  0  0  0
    8.3919  -13.1990   -0.9571 H   0  0  0  0  0  0  0  0  0  0  0  0
    9.9142  -11.1059   -2.5808 H   0  0  0  0  0  0  0  0  0  0  0  0
    9.4133  -11.0179   -0.8728 H   0  0  0  0  0  0  0  0  0  0  0  0
    8.1716   -5.1326   -2.6999 H   0  0  0  0  0  0  0  0  0  0  0  0
  1  2  1  0
  1 33  1  0
  1 34  1  0
  1 35  1  0
  2  3  1  0
  3  4  1  0
  3 36  1  0
  3 37  1  0
  4  5  1  0
  4 38  1  0
  4 39  1  0
  6  5  1  6
  5 40  1  0
  6  7  2  0
  6  8  2  0
  6  9  1  0
  9 10  2  0
  9 32  1  0
 10 11  1  0
 10 41  1  0
 11 12  2  0
 11 42  1  0
 12 13  1  0
 12 14  1  0
 13 43  1  0
 13 44  1  0
 13 45  1  0
 14 15  1  0
 14 32  2  0
 15 16  2  0
 15 17  1  0
 17 18  1  0
 17 46  1  0
 18 19  1  0
 18 47  1  0
 18 48  1  0
 19 20  1  0
 19 27  1  0
 19 49  1  6
 20 21  2  0
 20 25  1  0
 21 22  1  0
 21 50  1  0
 22 23  2  0
 22 51  1  0
 23 24  1  0
 23 52  1  0
 24 25  2  0
 24 53  1  0
 25 26  1  0
 27 28  1  0
 27 31  1  0
 28 29  1  0
 28 54  1  0
 28 55  1  0
 29 30  1  0
 29 56  1  0
 29 57  1  0
 30 31  1  0
 30 58  1  0
 30 59  1  0
 31 60  1  0
 31 61  1  0
 32 62  1  0
M  END

