
     RDKit          3D

 73 79  0  0  0  0  0  0  0  0999 V2000
   10.3806   -4.2322   -5.8534 C   0  0  0  0  0  0  0  0  0  0  0  0
   10.0261   -3.7147   -4.5923 O   0  0  0  0  0  0  0  0  0  0  0  0
    8.7995   -3.9952   -4.0806 C   0  0  0  0  0  0  0  0  0  0  0  0
    8.5085   -3.4413   -2.8214 C   0  0  0  0  0  0  0  0  0  0  0  0
    7.2837   -3.6798   -2.2095 C   0  0  0  0  0  0  0  0  0  0  0  0
    6.3006   -4.4647   -2.8426 C   0  0  0  0  0  0  0  0  0  0  0  0
    5.0392   -4.6881   -2.2195 N   0  0  0  0  0  0  0  0  0  0  0  0
    4.3427   -3.5720   -1.6728 C   0  0  0  0  0  0  0  0  0  0  0  0
    4.1861   -2.3888   -2.4202 C   0  0  0  0  0  0  0  0  0  0  0  0
    3.5251   -1.2897   -1.8849 C   0  0  0  0  0  0  0  0  0  0  0  0
    2.9817   -1.3426   -0.5891 C   0  0  0  0  0  0  0  0  0  0  0  0
    2.3450   -0.2230   -0.1577 O   0  0  0  0  0  0  0  0  0  0  0  0
    1.7837   -0.2049    1.1342 C   0  0  0  0  0  0  0  0  0  0  0  0
    3.1264   -2.5190    0.1619 C   0  0  0  0  0  0  0  0  0  0  0  0
    3.8116   -3.6131   -0.3764 C   0  0  0  0  0  0  0  0  0  0  0  0
    4.4925   -5.9842   -2.1444 C   0  0  0  0  0  0  0  0  0  0  0  0
    5.3202   -7.1205   -2.0326 C   0  0  0  0  0  0  0  0  0  0  0  0
    4.7736   -8.3986   -1.9623 C   0  0  0  0  0  0  0  0  0  0  0  0
    3.3821   -8.6153   -1.9910 C   0  0  0  0  0  0  0  0  0  0  0  0
    2.8059   -9.9796   -1.9106 C   0  0  0  0  0  0  0  0  0  0  0  0
    3.4273  -10.9982   -1.1605 C   0  0  0  0  0  0  0  0  0  0  0  0
    2.8899  -12.2807   -1.0878 C   0  0  0  0  0  0  0  0  0  0  0  0
    1.6957  -12.6119   -1.7560 C   0  0  0  0  0  0  0  0  0  0  0  0
    1.1102  -13.9716   -1.6704 C   0  0  0  0  0  0  0  0  0  0  0  0
    0.3747  -14.5496   -2.7672 C   0  0  0  0  0  0  0  0  0  0  0  0
   -0.1556  -15.8007   -2.6731 C   0  0  0  0  0  0  0  0  0  0  0  0
   -0.0122  -16.6005   -1.4862 C   0  0  0  0  0  0  0  0  0  0  0  0
   -0.5295  -17.7998   -1.4210 N   0  0  0  0  0  0  0  0  0  0  0  0
   -0.3698  -18.5256   -0.2755 C   0  0  0  0  0  0  0  0  0  0  0  0
   -0.9282  -19.8280   -0.1980 C   0  0  0  0  0  0  0  0  0  0  0  0
   -0.7840  -20.5870    0.9498 C   0  0  0  0  0  0  0  0  0  0  0  0
   -0.0797  -20.0846    2.0681 C   0  0  0  0  0  0  0  0  0  0  0  0
    0.4747  -18.8172    2.0180 C   0  0  0  0  0  0  0  0  0  0  0  0
    0.3374  -18.0287    0.8547 C   0  0  0  0  0  0  0  0  0  0  0  0
    0.9260  -16.6991    0.8152 C   0  0  0  0  0  0  0  0  0  0  0  0
    1.5536  -16.1566    1.7057 O   0  0  0  0  0  0  0  0  0  0  0  0
    0.7107  -16.0064   -0.4342 N   0  0  0  0  0  0  0  0  0  0  0  0
    1.2400  -14.7344   -0.5403 C   0  0  0  0  0  0  0  0  0  0  0  0
    1.0738  -11.5980   -2.5084 C   0  0  0  0  0  0  0  0  0  0  0  0
    1.6150  -10.3162   -2.5831 C   0  0  0  0  0  0  0  0  0  0  0  0
    2.5637   -7.4740   -2.0990 C   0  0  0  0  0  0  0  0  0  0  0  0
    3.0979   -6.1912   -2.1780 C   0  0  0  0  0  0  0  0  0  0  0  0
    6.5915   -5.0018   -4.1041 C   0  0  0  0  0  0  0  0  0  0  0  0
    7.8296   -4.7844   -4.7173 C   0  0  0  0  0  0  0  0  0  0  0  0
   11.4012   -3.8830   -6.0608 H   0  0  0  0  0  0  0  0  0  0  0  0
    9.7099   -3.8676   -6.6529 H   0  0  0  0  0  0  0  0  0  0  0  0
   10.3732   -5.3376   -5.8633 H   0  0  0  0  0  0  0  0  0  0  0  0
    9.2725   -2.8318   -2.3343 H   0  0  0  0  0  0  0  0  0  0  0  0
    7.0760   -3.2519   -1.2268 H   0  0  0  0  0  0  0  0  0  0  0  0
    4.5937   -2.3368   -3.4318 H   0  0  0  0  0  0  0  0  0  0  0  0
    3.4033   -0.3699   -2.4607 H   0  0  0  0  0  0  0  0  0  0  0  0
    1.3273    0.7856    1.2646 H   0  0  0  0  0  0  0  0  0  0  0  0
    2.5485   -0.3510    1.9188 H   0  0  0  0  0  0  0  0  0  0  0  0
    1.0016   -0.9767    1.2556 H   0  0  0  0  0  0  0  0  0  0  0  0
    2.7247   -2.5942    1.1726 H   0  0  0  0  0  0  0  0  0  0  0  0
    3.9303   -4.5180    0.2232 H   0  0  0  0  0  0  0  0  0  0  0  0
    6.4038   -6.9965   -2.0056 H   0  0  0  0  0  0  0  0  0  0  0  0
    5.4520   -9.2525   -1.8964 H   0  0  0  0  0  0  0  0  0  0  0  0
    4.3451  -10.7791   -0.6105 H   0  0  0  0  0  0  0  0  0  0  0  0
    3.4171  -13.0436   -0.5102 H   0  0  0  0  0  0  0  0  0  0  0  0
    0.2627  -13.9832   -3.6938 H   0  0  0  0  0  0  0  0  0  0  0  0
   -0.7057  -16.2670   -3.4908 H   0  0  0  0  0  0  0  0  0  0  0  0
   -1.4687  -20.1999   -1.0704 H   0  0  0  0  0  0  0  0  0  0  0  0
   -1.2203  -21.5886    0.9935 H   0  0  0  0  0  0  0  0  0  0  0  0
    0.0250  -20.6967    2.9669 H   0  0  0  0  0  0  0  0  0  0  0  0
    1.0249  -18.3978    2.8626 H   0  0  0  0  0  0  0  0  0  0  0  0
    1.7477  -14.4072    0.3658 H   0  0  0  0  0  0  0  0  0  0  0  0
    0.1394  -11.8058   -3.0352 H   0  0  0  0  0  0  0  0  0  0  0  0
    1.1091   -9.5643   -3.1926 H   0  0  0  0  0  0  0  0  0  0  0  0
    1.4771   -7.5874   -2.1075 H   0  0  0  0  0  0  0  0  0  0  0  0
    2.4285   -5.3337   -2.2616 H   0  0  0  0  0  0  0  0  0  0  0  0
    5.8394   -5.6057   -4.6162 H   0  0  0  0  0  0  0  0  0  0  0  0
    8.0170   -5.2242   -5.6971 H   0  0  0  0  0  0  0  0  0  0  0  0
  1  2  1  0
  1 45  1  0
  1 46  1  0
  1 47  1  0
  2  3  1  0
  3  4  2  0
  3 44  1  0
  4  5  1  0
  4 48  1  0
  5  6  2  0
  5 49  1  0
  6  7  1  0
  6 43  1  0
  7  8  1  0
  7 16  1  0
  8  9  2  0
  8 15  1  0
  9 10  1  0
  9 50  1  0
 10 11  2  0
 10 51  1  0
 11 12  1  0
 11 14  1  0
 12 13  1  0
 13 52  1  0
 13 53  1  0
 13 54  1  0
 14 15  2  0
 14 55  1  0
 15 56  1  0
 16 17  2  0
 16 42  1  0
 17 18  1  0
 17 57  1  0
 18 19  2  0
 18 58  1  0
 19 20  1  0
 19 41  1  0
 20 21  2  0
 20 40  1  0
 21 22  1  0
 21 59  1  0
 22 23  2  0
 22 60  1  0
 23 24  1  0
 23 39  1  0
 24 25  1  0
 24 38  2  0
 25 26  2  0
 25 61  1  0
 26 27  1  0
 26 62  1  0
 27 28  2  0
 27 37  1  0
 28 29  1  0
 29 30  2  0
 29 34  1  0
 30 31  1  0
 30 63  1  0
 31 32  2  0
 31 64  1  0
 32 33  1  0
 32 65  1  0
 33 34  2  0
 33 66  1  0
 34 35  1  0
 35 36  2  0
 35 37  1  0
 37 38  1  0
 38 67  1  0
 39 40  2  0
 39 68  1  0
 40 69  1  0
 41 42  2  0
 41 70  1  0
 42 71  1  0
 43 44  2  0
 43 72  1  0
 44 73  1  0
M  END

