
     RDKit          3D

 41 42  0  0  0  0  0  0  0  0999 V2000
    1.0406    0.0730   -0.1782 C   0  0  0  0  0  0  0  0  0  0  0  0
    2.5084   -0.2794    0.0465 C   0  0  1  0  0  0  0  0  0  0  0  0
    3.0119    0.5546    0.5599 H   0  0  0  0  0  0  0  0  0  0  0  0
    2.7153   -1.5367    0.9262 C   0  0  0  0  0  0  0  0  0  0  0  0
    2.2273   -1.3887    2.2860 N   0  0  0  0  0  0  0  0  0  0  0  0
    1.0022   -1.7827    2.7891 C   0  0  0  0  0  0  0  0  0  0  0  0
    0.9927   -1.3752    4.1053 C   0  0  0  0  0  0  0  0  0  0  0  0
    2.1691   -0.7441    4.4196 N   0  0  0  0  0  0  0  0  0  0  0  0
    2.8829   -0.7668    3.3172 C   0  0  0  0  0  0  0  0  0  0  0  0
    3.1816   -0.4439   -1.2363 N   0  0  0  0  0  0  0  0  0  0  0  0
    4.5493   -0.3295   -1.3442 C   0  0  0  0  0  0  0  0  0  0  0  0
    5.2679   -0.0605   -0.3934 O   0  0  0  0  0  0  0  0  0  0  0  0
    5.0555   -0.5563   -2.6196 N   0  0  0  0  0  0  0  0  0  0  0  0
    6.4629   -0.2612   -2.8855 C   0  0  0  0  0  0  0  0  0  0  0  0
    7.3687   -1.4540   -2.5108 C   0  0  1  0  0  0  0  0  0  0  0  0
    7.3113   -1.5753   -1.4118 H   0  0  0  0  0  0  0  0  0  0  0  0
    6.9179   -2.6201   -3.1659 O   0  0  0  0  0  0  0  0  0  0  0  0
    8.8096   -1.1756   -2.8871 C   0  0  0  0  0  0  0  0  0  0  0  0
    9.5949   -0.3285   -2.0903 C   0  0  0  0  0  0  0  0  0  0  0  0
   10.9091   -0.0328   -2.4584 C   0  0  0  0  0  0  0  0  0  0  0  0
   11.4628   -0.5803   -3.6192 C   0  0  0  0  0  0  0  0  0  0  0  0
   10.6764   -1.4288   -4.4024 C   0  0  0  0  0  0  0  0  0  0  0  0
   11.3566   -2.1328   -5.8559 Cl  0  0  0  0  0  0  0  0  0  0  0  0
    9.3588   -1.7309   -4.0498 C   0  0  0  0  0  0  0  0  0  0  0  0
    0.5246    0.2257    0.7802 H   0  0  0  0  0  0  0  0  0  0  0  0
    0.5136   -0.7344   -0.7172 H   0  0  0  0  0  0  0  0  0  0  0  0
    0.9499    0.9973   -0.7687 H   0  0  0  0  0  0  0  0  0  0  0  0
    3.7935   -1.7467    0.9651 H   0  0  0  0  0  0  0  0  0  0  0  0
    2.2155   -2.4049    0.4672 H   0  0  0  0  0  0  0  0  0  0  0  0
    0.2757   -2.3175    2.1817 H   0  0  0  0  0  0  0  0  0  0  0  0
    0.1999   -1.5135    4.8402 H   0  0  0  0  0  0  0  0  0  0  0  0
    3.8876   -0.3601    3.1902 H   0  0  0  0  0  0  0  0  0  0  0  0
    2.6555   -0.8588   -1.9971 H   0  0  0  0  0  0  0  0  0  0  0  0
    4.4164   -0.4159   -3.3943 H   0  0  0  0  0  0  0  0  0  0  0  0
    6.7797    0.6369   -2.3326 H   0  0  0  0  0  0  0  0  0  0  0  0
    6.5685   -0.0670   -3.9633 H   0  0  0  0  0  0  0  0  0  0  0  0
    5.9586   -2.6427   -3.0359 H   0  0  0  0  0  0  0  0  0  0  0  0
    9.1780    0.0941   -1.1719 H   0  0  0  0  0  0  0  0  0  0  0  0
   11.5164    0.6256   -1.8320 H   0  0  0  0  0  0  0  0  0  0  0  0
   12.4904   -0.3617   -3.9138 H   0  0  0  0  0  0  0  0  0  0  0  0
    8.7596   -2.4049   -4.6609 H   0  0  0  0  0  0  0  0  0  0  0  0
  1  2  1  0
  1 25  1  0
  1 26  1  0
  1 27  1  0
  2  3  1  1
  2  4  1  0
  2 10  1  0
  4  5  1  0
  4 28  1  0
  4 29  1  0
  5  6  1  0
  5  9  1  0
  6  7  2  0
  6 30  1  0
  7  8  1  0
  7 31  1  0
  8  9  2  0
  9 32  1  0
 10 11  1  0
 10 33  1  0
 11 12  2  0
 11 13  1  0
 13 14  1  0
 13 34  1  0
 14 15  1  0
 14 35  1  0
 14 36  1  0
 15 16  1  1
 15 17  1  0
 15 18  1  0
 17 37  1  0
 18 19  2  0
 18 24  1  0
 19 20  1  0
 19 38  1  0
 20 21  2  0
 20 39  1  0
 21 22  1  0
 21 40  1  0
 22 23  1  0
 22 24  2  0
 24 41  1  0
M  END

