
     RDKit          3D

310325  0  0  0  0  0  0  0  0999 V2000
    5.7942    2.8107    0.6274 C   0  0  0  0  0  0  0  0  0  0  0  0
    6.0909    1.4323    0.0352 C   0  0  0  0  0  0  0  0  0  0  0  0
    6.5737    0.4102    1.0700 C   0  0  0  0  0  0  0  0  0  0  0  0
    6.8824   -0.9671    0.4721 C   0  0  0  0  0  0  0  0  0  0  0  0
    7.4313   -2.0089    1.4630 C   0  0  0  0  0  0  0  0  0  0  0  0
    6.4452   -2.5034    2.5455 C   0  0  1  0  0  0  0  0  0  0  0  0
    5.2314   -3.2412    1.9075 C   0  0  0  0  0  0  0  0  0  0  0  0
    3.9482   -2.4077    1.8290 C   0  0  0  0  0  0  0  0  0  0  0  0
    7.1233   -3.3551    3.7017 C   0  0  2  0  0  0  0  0  0  0  0  0
    8.4019   -2.6535    4.3315 C   0  0  1  0  0  0  0  0  0  0  0  0
    8.1607   -1.1772    4.7390 C   0  0  0  0  0  0  0  0  0  0  0  0
    9.4339   -0.3259    4.7736 C   0  0  0  0  0  0  0  0  0  0  0  0
    9.0112   -3.4109    5.5478 C   0  0  0  0  0  0  0  0  0  0  0  0
    9.9713   -4.5919    5.3069 C   0  0  0  0  0  0  0  0  0  0  0  0
   11.2815   -4.2778    4.5677 C   0  0  0  0  0  0  0  0  0  0  0  0
   12.2728   -3.3947    5.3349 C   0  0  0  0  0  0  0  0  0  0  0  0
   13.5870   -3.1678    4.5856 C   0  0  0  0  0  0  0  0  0  0  0  0
    7.4723   -4.7721    3.2255 C   0  0  0  0  0  0  0  0  0  0  0  0
    8.3823   -5.1850    2.2508 C   0  0  0  0  0  0  0  0  0  0  0  0
    8.5432   -6.5525    1.9886 C   0  0  0  0  0  0  0  0  0  0  0  0
    7.8064   -7.5090    2.6992 C   0  0  0  0  0  0  0  0  0  0  0  0
    6.8977   -7.1092    3.6826 C   0  0  0  0  0  0  0  0  0  0  0  0
    6.7342   -5.7429    3.9399 C   0  0  0  0  0  0  0  0  0  0  0  0
    5.8655   -5.0572    4.8987 C   0  0  0  0  0  0  0  0  0  0  0  0
    4.9408   -5.5664    5.8189 C   0  0  0  0  0  0  0  0  0  0  0  0
    4.2057   -4.6843    6.6066 C   0  0  0  0  0  0  0  0  0  0  0  0
    4.3755   -3.2854    6.4787 C   0  0  0  0  0  0  0  0  0  0  0  0
    3.6125   -2.3860    7.2793 C   0  0  0  0  0  0  0  0  0  0  0  0
    2.9645   -1.6073    7.9625 C   0  0  0  0  0  0  0  0  0  0  0  0
    2.2261   -0.6748    8.7450 C   0  0  0  0  0  0  0  0  0  0  0  0
    2.4394    0.6991    8.5527 C   0  0  0  0  0  0  0  0  0  0  0  0
    1.7490    1.6731    9.2907 C   0  0  0  0  0  0  0  0  0  0  0  0
    2.0188    3.0495    9.0450 C   0  0  0  0  0  0  0  0  0  0  0  0
    2.2714    4.2226    8.8153 C   0  0  0  0  0  0  0  0  0  0  0  0
    2.5728    5.5888    8.5415 C   0  0  0  0  0  0  0  0  0  0  0  0
    3.4505    5.9282    7.4847 C   0  0  0  0  0  0  0  0  0  0  0  0
    3.7416    7.2598    7.2000 C   0  0  0  0  0  0  0  0  0  0  0  0
    3.1652    8.2700    7.9800 C   0  0  0  0  0  0  0  0  0  0  0  0
    2.3012    7.9510    9.0520 C   0  0  0  0  0  0  0  0  0  0  0  0
    1.9963    6.6218    9.3215 C   0  0  0  0  0  0  0  0  0  0  0  0
    1.8043    9.2223    9.7554 C   0  0  1  0  0  0  0  0  0  0  0  0
    0.2242    9.2879    9.6285 C   0  0  1  0  0  0  0  0  0  0  0  0
   -0.4312   10.4443   10.4140 C   0  0  0  0  0  0  0  0  0  0  0  0
   -1.9572   10.3550   10.5184 C   0  0  0  0  0  0  0  0  0  0  0  0
   -0.2504    9.2678    8.1468 C   0  0  0  0  0  0  0  0  0  0  0  0
   -1.3054    8.1996    7.8292 C   0  0  0  0  0  0  0  0  0  0  0  0
   -1.7846    8.2284    6.3752 C   0  0  0  0  0  0  0  0  0  0  0  0
   -2.8207    7.1505    6.0410 C   0  0  0  0  0  0  0  0  0  0  0  0
   -3.2945    7.1860    4.5873 C   0  0  0  0  0  0  0  0  0  0  0  0
    2.3162    9.3019   11.2572 C   0  0  1  0  0  0  0  0  0  0  0  0
    1.5963    8.3140   12.2113 C   0  0  0  0  0  0  0  0  0  0  0  0
    1.6064    8.7498   13.6800 C   0  0  0  0  0  0  0  0  0  0  0  0
    3.8535    9.1155   11.4183 C   0  0  0  0  0  0  0  0  0  0  0  0
    4.7935   10.3164   11.1971 C   0  0  0  0  0  0  0  0  0  0  0  0
    4.6218   11.5124   12.1468 C   0  0  0  0  0  0  0  0  0  0  0  0
    5.0067   11.2512   13.6078 C   0  0  0  0  0  0  0  0  0  0  0  0
    4.8842   12.4900   14.4969 C   0  0  0  0  0  0  0  0  0  0  0  0
    2.4816   10.3050    8.9037 C   0  0  0  0  0  0  0  0  0  0  0  0
    2.4251   11.6947    9.0218 C   0  0  0  0  0  0  0  0  0  0  0  0
    3.1446   12.4954    8.1242 C   0  0  0  0  0  0  0  0  0  0  0  0
    3.9247   11.9159    7.1151 C   0  0  0  0  0  0  0  0  0  0  0  0
    3.9949   10.5258    6.9904 C   0  0  0  0  0  0  0  0  0  0  0  0
    3.2720    9.7273    7.8845 C   0  0  0  0  0  0  0  0  0  0  0  0
    0.7930    1.2645   10.2718 C   0  0  0  0  0  0  0  0  0  0  0  0
    0.0582    2.2107   11.0511 C   0  0  0  0  0  0  0  0  0  0  0  0
   -0.8547    1.8078   11.9865 C   0  0  0  0  0  0  0  0  0  0  0  0
   -1.1137    0.4229   12.2261 C   0  0  0  0  0  0  0  0  0  0  0  0
   -2.0652   -0.0107   13.2009 C   0  0  0  0  0  0  0  0  0  0  0  0
   -2.8062    0.9224   13.9804 C   0  0  0  0  0  0  0  0  0  0  0  0
   -3.4563    1.7027   14.6596 C   0  0  0  0  0  0  0  0  0  0  0  0
   -4.2208    2.6056   15.4548 C   0  0  0  0  0  0  0  0  0  0  0  0
   -4.0960    4.0038   15.2767 C   0  0  0  0  0  0  0  0  0  0  0  0
   -4.8521    4.8899   16.0397 C   0  0  0  0  0  0  0  0  0  0  0  0
   -5.7369    4.3854   17.0008 C   0  0  0  0  0  0  0  0  0  0  0  0
   -5.8624    2.9928   17.2069 C   0  0  0  0  0  0  0  0  0  0  0  0
   -5.1204    2.1097   16.4312 C   0  0  0  0  0  0  0  0  0  0  0  0
   -6.8869    2.6899   18.3098 C   0  0  1  0  0  0  0  0  0  0  0  0
   -8.0699    1.8379   17.6834 C   0  0  1  0  0  0  0  0  0  0  0  0
   -9.1099    1.3400   18.7100 C   0  0  0  0  0  0  0  0  0  0  0  0
  -10.0918    0.2985   18.1635 C   0  0  0  0  0  0  0  0  0  0  0  0
   -8.7541    2.5650   16.4899 C   0  0  0  0  0  0  0  0  0  0  0  0
   -8.8526    1.7300   15.2063 C   0  0  0  0  0  0  0  0  0  0  0  0
   -9.5655    2.4535   14.0604 C   0  0  0  0  0  0  0  0  0  0  0  0
   -9.6492    1.6373   12.7667 C   0  0  0  0  0  0  0  0  0  0  0  0
  -10.3631    2.3663   11.6275 C   0  0  0  0  0  0  0  0  0  0  0  0
   -6.2104    1.9926   19.5667 C   0  0  1  0  0  0  0  0  0  0  0  0
   -5.8182    0.5132   19.3185 C   0  0  0  0  0  0  0  0  0  0  0  0
   -5.7374   -0.3312   20.5942 C   0  0  0  0  0  0  0  0  0  0  0  0
   -4.9688    2.7483   20.1246 C   0  0  0  0  0  0  0  0  0  0  0  0
   -5.1687    3.9370   21.0848 C   0  0  0  0  0  0  0  0  0  0  0  0
   -5.8632    3.6363   22.4223 C   0  0  0  0  0  0  0  0  0  0  0  0
   -5.0687    2.7521   23.3908 C   0  0  0  0  0  0  0  0  0  0  0  0
   -5.7719    2.5404   24.7327 C   0  0  0  0  0  0  0  0  0  0  0  0
   -7.3477    4.1088   18.6712 C   0  0  0  0  0  0  0  0  0  0  0  0
   -8.2880    4.5256   19.6149 C   0  0  0  0  0  0  0  0  0  0  0  0
   -8.5420    5.8940   19.7811 C   0  0  0  0  0  0  0  0  0  0  0  0
   -7.8577    6.8471   19.0155 C   0  0  0  0  0  0  0  0  0  0  0  0
   -6.9095    6.4431   18.0719 C   0  0  0  0  0  0  0  0  0  0  0  0
   -6.6603    5.0758   17.9034 C   0  0  0  0  0  0  0  0  0  0  0  0
   -2.2771   -1.3845   13.3945 C   0  0  0  0  0  0  0  0  0  0  0  0
   -1.5845   -2.3586   12.6587 C   0  0  0  0  0  0  0  0  0  0  0  0
   -1.8519   -3.7350   12.9065 C   0  0  0  0  0  0  0  0  0  0  0  0
   -2.1015   -4.9084   13.1383 C   0  0  0  0  0  0  0  0  0  0  0  0
   -2.3997   -6.2749   13.4136 C   0  0  0  0  0  0  0  0  0  0  0  0
   -3.3545   -6.6122   14.4021 C   0  0  0  0  0  0  0  0  0  0  0  0
   -3.6646   -7.9432   14.6685 C   0  0  0  0  0  0  0  0  0  0  0  0
   -3.0127   -8.9559   13.9539 C   0  0  0  0  0  0  0  0  0  0  0  0
   -2.0427   -8.6404   12.9756 C   0  0  0  0  0  0  0  0  0  0  0  0
   -1.7483   -7.3104   12.6984 C   0  0  0  0  0  0  0  0  0  0  0  0
   -1.4725   -9.9141   12.3352 C   0  0  1  0  0  0  0  0  0  0  0  0
   -1.8020   -9.8923   10.7833 C   0  0  1  0  0  0  0  0  0  0  0  0
   -1.1669  -11.0475    9.9798 C   0  0  0  0  0  0  0  0  0  0  0  0
   -1.2515  -10.8828    8.4588 C   0  0  0  0  0  0  0  0  0  0  0  0
   -3.3290   -9.7804   10.5055 C   0  0  0  0  0  0  0  0  0  0  0  0
   -3.7223   -8.6436    9.5527 C   0  0  0  0  0  0  0  0  0  0  0  0
   -5.2251   -8.5800    9.2659 C   0  0  0  0  0  0  0  0  0  0  0  0
   -5.6316   -7.4348    8.3331 C   0  0  0  0  0  0  0  0  0  0  0  0
   -7.1338   -7.3777    8.0516 C   0  0  0  0  0  0  0  0  0  0  0  0
    0.0762  -10.0860   12.6446 C   0  0  1  0  0  0  0  0  0  0  0  0
    0.9795   -9.1055   11.8528 C   0  0  0  0  0  0  0  0  0  0  0  0
    2.4140   -9.6051   11.6535 C   0  0  0  0  0  0  0  0  0  0  0  0
    0.4405   -9.9863   14.1549 C   0  0  0  0  0  0  0  0  0  0  0  0
    0.2791  -11.2229   15.0602 C   0  0  0  0  0  0  0  0  0  0  0  0
    1.1345  -12.4510   14.7115 C   0  0  0  0  0  0  0  0  0  0  0  0
    2.6447  -12.2775   14.9118 C   0  0  0  0  0  0  0  0  0  0  0  0
    3.4444  -13.5479   14.6174 C   0  0  0  0  0  0  0  0  0  0  0  0
   -2.2850  -10.9917   13.0664 C   0  0  0  0  0  0  0  0  0  0  0  0
   -2.2447  -12.3806   12.9323 C   0  0  0  0  0  0  0  0  0  0  0  0
   -3.0832  -13.1770   13.7243 C   0  0  0  0  0  0  0  0  0  0  0  0
   -3.9554  -12.5945   14.6532 C   0  0  0  0  0  0  0  0  0  0  0  0
   -4.0007  -11.2057   14.8015 C   0  0  0  0  0  0  0  0  0  0  0  0
   -3.1662  -10.4112   14.0064 C   0  0  0  0  0  0  0  0  0  0  0  0
   -0.6288   -1.9500   11.6773 C   0  0  0  0  0  0  0  0  0  0  0  0
    0.1055   -2.8962   10.8975 C   0  0  0  0  0  0  0  0  0  0  0  0
    1.0173   -2.4933    9.9609 C   0  0  0  0  0  0  0  0  0  0  0  0
    1.2759   -1.1083    9.7211 C   0  0  0  0  0  0  0  0  0  0  0  0
    0.5609   -0.1311   10.4824 C   0  0  0  0  0  0  0  0  0  0  0  0
   -0.3975   -0.5544   11.4659 C   0  0  0  0  0  0  0  0  0  0  0  0
    5.3137   -2.7847    5.5420 C   0  0  0  0  0  0  0  0  0  0  0  0
    6.0624   -3.6637    4.7682 C   0  0  0  0  0  0  0  0  0  0  0  0
    5.4493    3.5178   -0.1440 H   0  0  0  0  0  0  0  0  0  0  0  0
    6.6910    3.2458    1.1000 H   0  0  0  0  0  0  0  0  0  0  0  0
    5.0098    2.7547    1.4009 H   0  0  0  0  0  0  0  0  0  0  0  0
    6.8509    1.5283   -0.7618 H   0  0  0  0  0  0  0  0  0  0  0  0
    5.1846    1.0421   -0.4629 H   0  0  0  0  0  0  0  0  0  0  0  0
    5.8097    0.3199    1.8629 H   0  0  0  0  0  0  0  0  0  0  0  0
    7.4801    0.8004    1.5701 H   0  0  0  0  0  0  0  0  0  0  0  0
    7.6325   -0.8368   -0.3286 H   0  0  0  0  0  0  0  0  0  0  0  0
    5.9833   -1.3590   -0.0344 H   0  0  0  0  0  0  0  0  0  0  0  0
    8.3300   -1.5790    1.9332 H   0  0  0  0  0  0  0  0  0  0  0  0
    7.7772   -2.8782    0.8811 H   0  0  0  0  0  0  0  0  0  0  0  0
    6.0411   -1.6132    3.0518 H   0  0  0  0  0  0  0  0  0  0  0  0
    5.0024   -4.1566    2.4714 H   0  0  0  0  0  0  0  0  0  0  0  0
    5.5078   -3.5908    0.8978 H   0  0  0  0  0  0  0  0  0  0  0  0
    3.6065   -2.1131    2.8350 H   0  0  0  0  0  0  0  0  0  0  0  0
    3.1325   -2.9813    1.3593 H   0  0  0  0  0  0  0  0  0  0  0  0
    4.0815   -1.4851    1.2423 H   0  0  0  0  0  0  0  0  0  0  0  0
    9.1575   -2.6418    3.5288 H   0  0  0  0  0  0  0  0  0  0  0  0
    7.6808   -1.1518    5.7321 H   0  0  0  0  0  0  0  0  0  0  0  0
    7.4540   -0.6916    4.0515 H   0  0  0  0  0  0  0  0  0  0  0  0
   10.1836   -0.7206    5.4772 H   0  0  0  0  0  0  0  0  0  0  0  0
    9.2088    0.7069    5.0841 H   0  0  0  0  0  0  0  0  0  0  0  0
    9.9095   -0.2768    3.7796 H   0  0  0  0  0  0  0  0  0  0  0  0
    8.1886   -3.7581    6.1944 H   0  0  0  0  0  0  0  0  0  0  0  0
    9.5483   -2.6676    6.1589 H   0  0  0  0  0  0  0  0  0  0  0  0
    9.4524   -5.4011    4.7752 H   0  0  0  0  0  0  0  0  0  0  0  0
   10.2278   -5.0096    6.2979 H   0  0  0  0  0  0  0  0  0  0  0  0
   11.0643   -3.8142    3.5876 H   0  0  0  0  0  0  0  0  0  0  0  0
   11.7796   -5.2350    4.3292 H   0  0  0  0  0  0  0  0  0  0  0  0
   12.4827   -3.8590    6.3160 H   0  0  0  0  0  0  0  0  0  0  0  0
   11.8124   -2.4171    5.5595 H   0  0  0  0  0  0  0  0  0  0  0  0
   14.1005   -4.1219    4.3782 H   0  0  0  0  0  0  0  0  0  0  0  0
   14.2808   -2.5357    5.1630 H   0  0  0  0  0  0  0  0  0  0  0  0
   13.4148   -2.6713    3.6156 H   0  0  0  0  0  0  0  0  0  0  0  0
    8.9870   -4.4615    1.7017 H   0  0  0  0  0  0  0  0  0  0  0  0
    9.2558   -6.8750    1.2252 H   0  0  0  0  0  0  0  0  0  0  0  0
    7.9454   -8.5718    2.4853 H   0  0  0  0  0  0  0  0  0  0  0  0
    6.3258   -7.8546    4.2413 H   0  0  0  0  0  0  0  0  0  0  0  0
    4.7890   -6.6439    5.9199 H   0  0  0  0  0  0  0  0  0  0  0  0
    3.4817   -5.0658    7.3292 H   0  0  0  0  0  0  0  0  0  0  0  0
    3.1667    1.0204    7.8064 H   0  0  0  0  0  0  0  0  0  0  0  0
    3.8920    5.1283    6.8870 H   0  0  0  0  0  0  0  0  0  0  0  0
    4.4104    7.5066    6.3718 H   0  0  0  0  0  0  0  0  0  0  0  0
    1.3135    6.3482   10.1265 H   0  0  0  0  0  0  0  0  0  0  0  0
   -0.1402    8.3538   10.0870 H   0  0  0  0  0  0  0  0  0  0  0  0
   -0.1658   11.4032    9.9394 H   0  0  0  0  0  0  0  0  0  0  0  0
   -0.0236   10.4857   11.4358 H   0  0  0  0  0  0  0  0  0  0  0  0
   -2.4475   10.4163    9.5347 H   0  0  0  0  0  0  0  0  0  0  0  0
   -2.3537   11.1802   11.1318 H   0  0  0  0  0  0  0  0  0  0  0  0
   -2.2757    9.4100   10.9898 H   0  0  0  0  0  0  0  0  0  0  0  0
    0.6025    9.1070    7.4710 H   0  0  0  0  0  0  0  0  0  0  0  0
   -0.6443   10.2629    7.8744 H   0  0  0  0  0  0  0  0  0  0  0  0
   -2.1753    8.3124    8.5001 H   0  0  0  0  0  0  0  0  0  0  0  0
   -0.8825    7.2030    8.0521 H   0  0  0  0  0  0  0  0  0  0  0  0
   -0.9137    8.1174    5.7025 H   0  0  0  0  0  0  0  0  0  0  0  0
   -2.2099    9.2247    6.1496 H   0  0  0  0  0  0  0  0  0  0  0  0
   -3.6900    7.2613    6.7150 H   0  0  0  0  0  0  0  0  0  0  0  0
   -2.3940    6.1561    6.2657 H   0  0  0  0  0  0  0  0  0  0  0  0
   -3.7612    8.1547    4.3408 H   0  0  0  0  0  0  0  0  0  0  0  0
   -4.0369    6.3979    4.3829 H   0  0  0  0  0  0  0  0  0  0  0  0
   -2.4537    7.0398    3.8883 H   0  0  0  0  0  0  0  0  0  0  0  0
    2.0618   10.3178   11.6019 H   0  0  0  0  0  0  0  0  0  0  0  0
    2.0688    7.3208   12.1247 H   0  0  0  0  0  0  0  0  0  0  0  0
    0.5477    8.1742   11.9120 H   0  0  0  0  0  0  0  0  0  0  0  0
    2.6275    8.8710   14.0742 H   0  0  0  0  0  0  0  0  0  0  0  0
    1.0990    8.0064   14.3154 H   0  0  0  0  0  0  0  0  0  0  0  0
    1.0853    9.7125   13.8154 H   0  0  0  0  0  0  0  0  0  0  0  0
    4.1793    8.2933   10.7604 H   0  0  0  0  0  0  0  0  0  0  0  0
    4.0314    8.7400   12.4390 H   0  0  0  0  0  0  0  0  0  0  0  0
    4.7146   10.6750   10.1617 H   0  0  0  0  0  0  0  0  0  0  0  0
    5.8287    9.9421   11.2998 H   0  0  0  0  0  0  0  0  0  0  0  0
    3.5818   11.8855   12.1054 H   0  0  0  0  0  0  0  0  0  0  0  0
    5.2415   12.3447   11.7665 H   0  0  0  0  0  0  0  0  0  0  0  0
    6.0447   10.8725   13.6436 H   0  0  0  0  0  0  0  0  0  0  0  0
    4.3800   10.4444   14.0254 H   0  0  0  0  0  0  0  0  0  0  0  0
    5.5299   13.3084   14.1358 H   0  0  0  0  0  0  0  0  0  0  0  0
    5.1727   12.2738   15.5382 H   0  0  0  0  0  0  0  0  0  0  0  0
    3.8494   12.8721   14.5118 H   0  0  0  0  0  0  0  0  0  0  0  0
    1.8449   12.1699    9.8145 H   0  0  0  0  0  0  0  0  0  0  0  0
    3.1000   13.5836    8.2170 H   0  0  0  0  0  0  0  0  0  0  0  0
    4.4823   12.5538    6.4246 H   0  0  0  0  0  0  0  0  0  0  0  0
    4.6066   10.0724    6.2062 H   0  0  0  0  0  0  0  0  0  0  0  0
    0.2410    3.2732   10.8830 H   0  0  0  0  0  0  0  0  0  0  0  0
   -1.4057    2.5463   12.5710 H   0  0  0  0  0  0  0  0  0  0  0  0
   -3.4020    4.3816   14.5233 H   0  0  0  0  0  0  0  0  0  0  0  0
   -4.7546    5.9667   15.8810 H   0  0  0  0  0  0  0  0  0  0  0  0
   -5.2153    1.0300   16.5504 H   0  0  0  0  0  0  0  0  0  0  0  0
   -7.5877    0.9380   17.2672 H   0  0  0  0  0  0  0  0  0  0  0  0
   -9.6842    2.1996   19.0927 H   0  0  0  0  0  0  0  0  0  0  0  0
   -8.6005    0.9003   19.5811 H   0  0  0  0  0  0  0  0  0  0  0  0
  -10.7190    0.7001   17.3527 H   0  0  0  0  0  0  0  0  0  0  0  0
  -10.7711   -0.0497   18.9583 H   0  0  0  0  0  0  0  0  0  0  0  0
   -9.5646   -0.5861   17.7683 H   0  0  0  0  0  0  0  0  0  0  0  0
   -8.2174    3.4935   16.2449 H   0  0  0  0  0  0  0  0  0  0  0  0
   -9.7649    2.8928   16.7908 H   0  0  0  0  0  0  0  0  0  0  0  0
   -9.3711    0.7767   15.4114 H   0  0  0  0  0  0  0  0  0  0  0  0
   -7.8331    1.4527   14.8818 H   0  0  0  0  0  0  0  0  0  0  0  0
   -9.0477    3.4092   13.8552 H   0  0  0  0  0  0  0  0  0  0  0  0
  -10.5870    2.7317   14.3823 H   0  0  0  0  0  0  0  0  0  0  0  0
  -10.1652    0.6816   12.9735 H   0  0  0  0  0  0  0  0  0  0  0  0
   -8.6282    1.3616   12.4458 H   0  0  0  0  0  0  0  0  0  0  0  0
  -11.4002    2.6228   11.9026 H   0  0  0  0  0  0  0  0  0  0  0  0
  -10.4041    1.7510   10.7143 H   0  0  0  0  0  0  0  0  0  0  0  0
   -9.8495    3.3081   11.3706 H   0  0  0  0  0  0  0  0  0  0  0  0
   -6.9837    1.9882   20.3526 H   0  0  0  0  0  0  0  0  0  0  0  0
   -4.8449    0.4808   18.8000 H   0  0  0  0  0  0  0  0  0  0  0  0
   -6.5346    0.0266   18.6414 H   0  0  0  0  0  0  0  0  0  0  0  0
   -5.0025    0.0639   21.3129 H   0  0  0  0  0  0  0  0  0  0  0  0
   -5.4414   -1.3670   20.3630 H   0  0  0  0  0  0  0  0  0  0  0  0
   -6.7120   -0.3723   21.1093 H   0  0  0  0  0  0  0  0  0  0  0  0
   -4.3522    3.0872   19.2760 H   0  0  0  0  0  0  0  0  0  0  0  0
   -4.3412    2.0060   20.6437 H   0  0  0  0  0  0  0  0  0  0  0  0
   -5.7135    4.7462   20.5796 H   0  0  0  0  0  0  0  0  0  0  0  0
   -4.1667    4.3501   21.3033 H   0  0  0  0  0  0  0  0  0  0  0  0
   -6.8542    3.1800   22.2426 H   0  0  0  0  0  0  0  0  0  0  0  0
   -6.0758    4.5983   22.9228 H   0  0  0  0  0  0  0  0  0  0  0  0
   -4.0764    3.2083   23.5621 H   0  0  0  0  0  0  0  0  0  0  0  0
   -4.8700    1.7696   22.9290 H   0  0  0  0  0  0  0  0  0  0  0  0
   -5.9516    3.4996   25.2472 H   0  0  0  0  0  0  0  0  0  0  0  0
   -5.1758    1.9070   25.4092 H   0  0  0  0  0  0  0  0  0  0  0  0
   -6.7522    2.0523   24.5989 H   0  0  0  0  0  0  0  0  0  0  0  0
   -8.8163    3.8045   20.2407 H   0  0  0  0  0  0  0  0  0  0  0  0
   -9.2783    6.2200   20.5202 H   0  0  0  0  0  0  0  0  0  0  0  0
   -8.0649    7.9106   19.1589 H   0  0  0  0  0  0  0  0  0  0  0  0
   -6.3721    7.1859   17.4768 H   0  0  0  0  0  0  0  0  0  0  0  0
   -3.0050   -1.7058   14.1404 H   0  0  0  0  0  0  0  0  0  0  0  0
   -3.8532   -5.8104   14.9502 H   0  0  0  0  0  0  0  0  0  0  0  0
   -4.4140   -8.1875   15.4254 H   0  0  0  0  0  0  0  0  0  0  0  0
   -1.0233   -7.0378   11.9309 H   0  0  0  0  0  0  0  0  0  0  0  0
   -1.3459   -8.9624   10.4053 H   0  0  0  0  0  0  0  0  0  0  0  0
   -1.6535  -11.9963   10.2594 H   0  0  0  0  0  0  0  0  0  0  0  0
   -0.1053  -11.1570   10.2501 H   0  0  0  0  0  0  0  0  0  0  0  0
   -2.2913  -10.8717    8.0972 H   0  0  0  0  0  0  0  0  0  0  0  0
   -0.7382  -11.7136    7.9486 H   0  0  0  0  0  0  0  0  0  0  0  0
   -0.7746   -9.9454    8.1265 H   0  0  0  0  0  0  0  0  0  0  0  0
   -3.8823   -9.6362   11.4452 H   0  0  0  0  0  0  0  0  0  0  0  0
   -3.6997  -10.7395   10.1026 H   0  0  0  0  0  0  0  0  0  0  0  0
   -3.1748   -8.7402    8.5985 H   0  0  0  0  0  0  0  0  0  0  0  0
   -3.3955   -7.6824    9.9897 H   0  0  0  0  0  0  0  0  0  0  0  0
   -5.7744   -8.4840   10.2212 H   0  0  0  0  0  0  0  0  0  0  0  0
   -5.5553   -9.5410    8.8280 H   0  0  0  0  0  0  0  0  0  0  0  0
   -5.0811   -7.5310    7.3792 H   0  0  0  0  0  0  0  0  0  0  0  0
   -5.3019   -6.4757    8.7722 H   0  0  0  0  0  0  0  0  0  0  0  0
   -7.4889   -8.3081    7.5770 H   0  0  0  0  0  0  0  0  0  0  0  0
   -7.3894   -6.5432    7.3790 H   0  0  0  0  0  0  0  0  0  0  0  0
   -7.7109   -7.2434    8.9820 H   0  0  0  0  0  0  0  0  0  0  0  0
    0.3342  -11.1017   12.3019 H   0  0  0  0  0  0  0  0  0  0  0  0
    1.0033   -8.1349   12.3769 H   0  0  0  0  0  0  0  0  0  0  0  0
    0.5570   -8.8994   10.8591 H   0  0  0  0  0  0  0  0  0  0  0  0
    2.9283   -9.7953   12.6085 H   0  0  0  0  0  0  0  0  0  0  0  0
    3.0162   -8.8652   11.1021 H   0  0  0  0  0  0  0  0  0  0  0  0
    2.4339  -10.5450   11.0764 H   0  0  0  0  0  0  0  0  0  0  0  0
   -0.1279   -9.1533   14.6000 H   0  0  0  0  0  0  0  0  0  0  0  0
    1.4934   -9.6669   14.2163 H   0  0  0  0  0  0  0  0  0  0  0  0
   -0.7753  -11.5285   15.1014 H   0  0  0  0  0  0  0  0  0  0  0  0
    0.5334  -10.9079   16.0890 H   0  0  0  0  0  0  0  0  0  0  0  0
    0.9394  -12.7679   13.6704 H   0  0  0  0  0  0  0  0  0  0  0  0
    0.7945  -13.2956   15.3379 H   0  0  0  0  0  0  0  0  0  0  0  0
    2.8345  -11.9548   15.9520 H   0  0  0  0  0  0  0  0  0  0  0  0
    3.0192  -11.4595   14.2724 H   0  0  0  0  0  0  0  0  0  0  0  0
    3.1276  -14.3810   15.2675 H   0  0  0  0  0  0  0  0  0  0  0  0
    4.5241  -13.3950   14.7754 H   0  0  0  0  0  0  0  0  0  0  0  0
    3.3051  -13.8764   13.5734 H   0  0  0  0  0  0  0  0  0  0  0  0
   -1.5565  -12.8596   12.2341 H   0  0  0  0  0  0  0  0  0  0  0  0
   -3.0513  -14.2644   13.6190 H   0  0  0  0  0  0  0  0  0  0  0  0
   -4.6008  -13.2293   15.2656 H   0  0  0  0  0  0  0  0  0  0  0  0
   -4.6777  -10.7502   15.5288 H   0  0  0  0  0  0  0  0  0  0  0  0
   -0.0774   -3.9587   11.0655 H   0  0  0  0  0  0  0  0  0  0  0  0
    1.5675   -3.2318    9.3757 H   0  0  0  0  0  0  0  0  0  0  0  0
    5.4261   -1.7044    5.4452 H   0  0  0  0  0  0  0  0  0  0  0  0
  1  2  1  0
  1141  1  0
  1142  1  0
  1143  1  0
  2  3  1  0
  2144  1  0
  2145  1  0
  3  4  1  0
  3146  1  0
  3147  1  0
  4  5  1  0
  4148  1  0
  4149  1  0
  5  6  1  0
  5150  1  0
  5151  1  0
  6  7  1  0
  6  9  1  0
  6152  1  1
  7  8  1  0
  7153  1  0
  7154  1  0
  8155  1  0
  8156  1  0
  8157  1  0
  9 10  1  0
  9 18  1  6
  9140  1  0
 10 11  1  0
 10 13  1  0
 10158  1  6
 11 12  1  0
 11159  1  0
 11160  1  0
 12161  1  0
 12162  1  0
 12163  1  0
 13 14  1  0
 13164  1  0
 13165  1  0
 14 15  1  0
 14166  1  0
 14167  1  0
 15 16  1  0
 15168  1  0
 15169  1  0
 16 17  1  0
 16170  1  0
 16171  1  0
 17172  1  0
 17173  1  0
 17174  1  0
 18 19  2  0
 18 23  1  0
 19 20  1  0
 19175  1  0
 20 21  2  0
 20176  1  0
 21 22  1  0
 21177  1  0
 22 23  2  0
 22178  1  0
 23 24  1  0
 24 25  2  0
 24140  1  0
 25 26  1  0
 25179  1  0
 26 27  2  0
 26180  1  0
 27 28  1  0
 27139  1  0
 28 29  3  0
 29 30  1  0
 30 31  2  0
 30136  1  0
 31 32  1  0
 31181  1  0
 32 33  1  0
 32 64  2  0
 33 34  3  0
 34 35  1  0
 35 36  2  0
 35 40  1  0
 36 37  1  0
 36182  1  0
 37 38  2  0
 37183  1  0
 38 39  1  0
 38 63  1  0
 39 40  2  0
 41 39  1  6
 40184  1  0
 41 42  1  0
 41 50  1  0
 41 58  1  0
 42 43  1  0
 42 45  1  0
 42185  1  1
 43 44  1  0
 43186  1  0
 43187  1  0
 44188  1  0
 44189  1  0
 44190  1  0
 45 46  1  0
 45191  1  0
 45192  1  0
 46 47  1  0
 46193  1  0
 46194  1  0
 47 48  1  0
 47195  1  0
 47196  1  0
 48 49  1  0
 48197  1  0
 48198  1  0
 49199  1  0
 49200  1  0
 49201  1  0
 50 51  1  0
 50 53  1  0
 50202  1  1
 51 52  1  0
 51203  1  0
 51204  1  0
 52205  1  0
 52206  1  0
 52207  1  0
 53 54  1  0
 53208  1  0
 53209  1  0
 54 55  1  0
 54210  1  0
 54211  1  0
 55 56  1  0
 55212  1  0
 55213  1  0
 56 57  1  0
 56214  1  0
 56215  1  0
 57216  1  0
 57217  1  0
 57218  1  0
 58 59  1  0
 58 63  2  0
 59 60  2  0
 59219  1  0
 60 61  1  0
 60220  1  0
 61 62  2  0
 61221  1  0
 62 63  1  0
 62222  1  0
 64 65  1  0
 64137  1  0
 65 66  2  0
 65223  1  0
 66 67  1  0
 66224  1  0
 67 68  2  0
 67138  1  0
 68 69  1  0
 68100  1  0
 69 70  3  0
 70 71  1  0
 71 72  2  0
 71 76  1  0
 72 73  1  0
 72225  1  0
 73 74  2  0
 73226  1  0
 74 75  1  0
 74 99  1  0
 75 76  2  0
 77 75  1  6
 76227  1  0
 77 78  1  0
 77 86  1  0
 77 94  1  0
 78 79  1  0
 78 81  1  0
 78228  1  6
 79 80  1  0
 79229  1  0
 79230  1  0
 80231  1  0
 80232  1  0
 80233  1  0
 81 82  1  0
 81234  1  0
 81235  1  0
 82 83  1  0
 82236  1  0
 82237  1  0
 83 84  1  0
 83238  1  0
 83239  1  0
 84 85  1  0
 84240  1  0
 84241  1  0
 85242  1  0
 85243  1  0
 85244  1  0
 86 87  1  0
 86 89  1  0
 86245  1  1
 87 88  1  0
 87246  1  0
 87247  1  0
 88248  1  0
 88249  1  0
 88250  1  0
 89 90  1  0
 89251  1  0
 89252  1  0
 90 91  1  0
 90253  1  0
 90254  1  0
 91 92  1  0
 91255  1  0
 91256  1  0
 92 93  1  0
 92257  1  0
 92258  1  0
 93259  1  0
 93260  1  0
 93261  1  0
 94 95  1  0
 94 99  2  0
 95 96  2  0
 95262  1  0
 96 97  1  0
 96263  1  0
 97 98  2  0
 97264  1  0
 98 99  1  0
 98265  1  0
100101  2  0
100266  1  0
101102  1  0
101133  1  0
102103  3  0
103104  1  0
104105  2  0
104109  1  0
105106  1  0
105267  1  0
106107  2  0
106268  1  0
107108  1  0
107132  1  0
108109  2  0
110108  1  1
109269  1  0
110111  1  0
110119  1  0
110127  1  0
111112  1  0
111114  1  0
111270  1  6
112113  1  0
112271  1  0
112272  1  0
113273  1  0
113274  1  0
113275  1  0
114115  1  0
114276  1  0
114277  1  0
115116  1  0
115278  1  0
115279  1  0
116117  1  0
116280  1  0
116281  1  0
117118  1  0
117282  1  0
117283  1  0
118284  1  0
118285  1  0
118286  1  0
119120  1  0
119122  1  0
119287  1  6
120121  1  0
120288  1  0
120289  1  0
121290  1  0
121291  1  0
121292  1  0
122123  1  0
122293  1  0
122294  1  0
123124  1  0
123295  1  0
123296  1  0
124125  1  0
124297  1  0
124298  1  0
125126  1  0
125299  1  0
125300  1  0
126301  1  0
126302  1  0
126303  1  0
127128  1  0
127132  2  0
128129  2  0
128304  1  0
129130  1  0
129305  1  0
130131  2  0
130306  1  0
131132  1  0
131307  1  0
133134  2  0
133138  1  0
134135  1  0
134308  1  0
135136  2  0
135309  1  0
136137  1  0
137138  2  0
139140  2  0
139310  1  0
M  END

