
     RDKit          3D

 50 52  0  0  0  0  0  0  0  0999 V2000
    0.7772   -4.1410   -0.7948 C   0  0  0  0  0  0  0  0  0  0  0  0
    2.1458   -4.1839   -0.1592 C   0  0  0  0  0  0  0  0  0  0  0  0
    3.3073   -4.3523   -0.9290 C   0  0  0  0  0  0  0  0  0  0  0  0
    4.5700   -4.4071   -0.3346 C   0  0  0  0  0  0  0  0  0  0  0  0
    4.7169   -4.2928    1.0551 C   0  0  0  0  0  0  0  0  0  0  0  0
    6.0792   -4.3873    1.7145 C   0  0  0  0  0  0  0  0  0  0  0  0
    7.0990   -3.6131    1.0309 N   0  0  0  0  0  0  0  0  0  0  0  0
    8.3681   -4.1031    0.8220 C   0  0  0  0  0  0  0  0  0  0  0  0
    8.7061   -5.2379    1.1327 O   0  0  0  0  0  0  0  0  0  0  0  0
    9.2429   -3.2111    0.2319 N   0  0  0  0  0  0  0  0  0  0  0  0
   10.5923   -3.6111   -0.1081 C   0  0  0  0  0  0  0  0  0  0  0  0
   10.6908   -4.3440   -1.4615 C   0  0  0  0  0  0  0  0  0  0  0  0
   12.0532   -4.7175   -1.8067 N   0  0  0  0  0  0  0  0  0  0  0  0
   12.9566   -3.8598   -2.4253 C   0  0  0  0  0  0  0  0  0  0  0  0
   12.6454   -2.4535   -2.8182 C   0  0  0  0  0  0  0  0  0  0  0  0
   14.0979   -4.6103   -2.6080 C   0  0  0  0  0  0  0  0  0  0  0  0
   13.9275   -5.8759   -2.1365 N   0  0  0  0  0  0  0  0  0  0  0  0
   12.6981   -5.9394   -1.6515 C   0  0  0  0  0  0  0  0  0  0  0  0
   12.1361   -7.1907   -1.1003 C   0  0  0  0  0  0  0  0  0  0  0  0
   12.7422   -8.3942   -1.5234 C   0  0  0  0  0  0  0  0  0  0  0  0
   12.3004   -9.6268   -1.0493 C   0  0  0  0  0  0  0  0  0  0  0  0
   11.2393   -9.6949   -0.1382 C   0  0  0  0  0  0  0  0  0  0  0  0
   10.6383   -8.5131    0.2971 C   0  0  0  0  0  0  0  0  0  0  0  0
   11.0816   -7.2709   -0.1699 C   0  0  0  0  0  0  0  0  0  0  0  0
    3.5596   -4.1161    1.8270 C   0  0  0  0  0  0  0  0  0  0  0  0
    2.2977   -4.0657    1.2314 C   0  0  0  0  0  0  0  0  0  0  0  0
    0.8412   -4.0905   -1.8918 H   0  0  0  0  0  0  0  0  0  0  0  0
    0.1986   -3.2690   -0.4484 H   0  0  0  0  0  0  0  0  0  0  0  0
    0.1894   -5.0388   -0.5370 H   0  0  0  0  0  0  0  0  0  0  0  0
    3.2216   -4.4451   -2.0157 H   0  0  0  0  0  0  0  0  0  0  0  0
    5.4578   -4.5375   -0.9589 H   0  0  0  0  0  0  0  0  0  0  0  0
    6.4444   -5.4264    1.7169 H   0  0  0  0  0  0  0  0  0  0  0  0
    5.9930   -4.0854    2.7748 H   0  0  0  0  0  0  0  0  0  0  0  0
    6.9205   -2.6250    0.8948 H   0  0  0  0  0  0  0  0  0  0  0  0
    8.8813   -2.3543   -0.1691 H   0  0  0  0  0  0  0  0  0  0  0  0
   10.9685   -4.2662    0.6901 H   0  0  0  0  0  0  0  0  0  0  0  0
   11.2325   -2.7155   -0.1202 H   0  0  0  0  0  0  0  0  0  0  0  0
   10.2954   -3.6941   -2.2586 H   0  0  0  0  0  0  0  0  0  0  0  0
   10.0644   -5.2443   -1.4404 H   0  0  0  0  0  0  0  0  0  0  0  0
   12.3772   -1.8125   -1.9603 H   0  0  0  0  0  0  0  0  0  0  0  0
   11.8162   -2.3910   -3.5456 H   0  0  0  0  0  0  0  0  0  0  0  0
   13.5300   -2.0076   -3.2947 H   0  0  0  0  0  0  0  0  0  0  0  0
   15.0331   -4.2836   -3.0637 H   0  0  0  0  0  0  0  0  0  0  0  0
   13.5715   -8.3307   -2.2291 H   0  0  0  0  0  0  0  0  0  0  0  0
   12.7858  -10.5434   -1.3955 H   0  0  0  0  0  0  0  0  0  0  0  0
   10.8892  -10.6623    0.2315 H   0  0  0  0  0  0  0  0  0  0  0  0
    9.8164   -8.5407    1.0169 H   0  0  0  0  0  0  0  0  0  0  0  0
   10.5858   -6.3880    0.2307 H   0  0  0  0  0  0  0  0  0  0  0  0
    3.6470   -4.0148    2.9131 H   0  0  0  0  0  0  0  0  0  0  0  0
    1.4131   -3.9251    1.8600 H   0  0  0  0  0  0  0  0  0  0  0  0
  1  2  1  0
  1 27  1  0
  1 28  1  0
  1 29  1  0
  2  3  2  0
  2 26  1  0
  3  4  1  0
  3 30  1  0
  4  5  2  0
  4 31  1  0
  5  6  1  0
  5 25  1  0
  6  7  1  0
  6 32  1  0
  6 33  1  0
  7  8  1  0
  7 34  1  0
  8  9  2  0
  8 10  1  0
 10 11  1  0
 10 35  1  0
 11 12  1  0
 11 36  1  0
 11 37  1  0
 12 13  1  0
 12 38  1  0
 12 39  1  0
 13 14  1  0
 13 18  1  0
 14 15  1  0
 14 16  2  0
 15 40  1  0
 15 41  1  0
 15 42  1  0
 16 17  1  0
 16 43  1  0
 17 18  2  0
 18 19  1  0
 19 20  2  0
 19 24  1  0
 20 21  1  0
 20 44  1  0
 21 22  2  0
 21 45  1  0
 22 23  1  0
 22 46  1  0
 23 24  2  0
 23 47  1  0
 24 48  1  0
 25 26  2  0
 25 49  1  0
 26 50  1  0
M  END

