
     RDKit          3D

 25 26  0  0  0  0  0  0  0  0999 V2000
    2.9361   -1.3173    0.6904 C   0  0  0  0  0  0  0  0  0  0  0  0
    2.3746   -0.1040   -0.0406 C   0  0  1  0  0  0  0  0  0  0  0  0
    2.6262   -0.1763   -1.5432 C   0  0  0  0  0  0  0  0  0  0  0  0
    4.0142   -0.2022   -1.7806 O   0  0  0  0  0  0  0  0  0  0  0  0
    4.3734   -0.2488   -3.1399 C   0  0  0  0  0  0  0  0  0  0  0  0
    5.8765   -0.1680   -3.2444 C   0  0  1  0  0  0  0  0  0  0  0  0
    6.7101   -1.3734   -3.3327 C   0  0  0  0  0  0  0  0  0  0  0  0
    6.4281   -0.5857   -4.4847 O   0  0  0  0  0  0  0  0  0  0  0  0
    0.9156    0.3092    0.2775 C   0  0  0  0  0  0  0  0  0  0  0  0
    1.3161    1.6438    0.6147 O   0  0  0  0  0  0  0  0  0  0  0  0
    2.7075    1.2921    0.5444 C   0  0  0  0  0  0  0  0  0  0  0  0
    2.4587   -2.2465    0.3356 H   0  0  0  0  0  0  0  0  0  0  0  0
    2.7671   -1.2430    1.7761 H   0  0  0  0  0  0  0  0  0  0  0  0
    4.0179   -1.4066    0.5100 H   0  0  0  0  0  0  0  0  0  0  0  0
    2.1656    0.7017   -2.0422 H   0  0  0  0  0  0  0  0  0  0  0  0
    2.1403   -1.0830   -1.9645 H   0  0  0  0  0  0  0  0  0  0  0  0
    3.9182    0.5970   -3.6972 H   0  0  0  0  0  0  0  0  0  0  0  0
    4.0220   -1.1824   -3.6253 H   0  0  0  0  0  0  0  0  0  0  0  0
    6.3185    0.7441   -2.8170 H   0  0  0  0  0  0  0  0  0  0  0  0
    6.2332   -2.3625   -3.3028 H   0  0  0  0  0  0  0  0  0  0  0  0
    7.7487   -1.3435   -2.9777 H   0  0  0  0  0  0  0  0  0  0  0  0
    0.4724   -0.2287    1.1373 H   0  0  0  0  0  0  0  0  0  0  0  0
    0.1965    0.2821   -0.5623 H   0  0  0  0  0  0  0  0  0  0  0  0
    3.1829    1.2644    1.5431 H   0  0  0  0  0  0  0  0  0  0  0  0
    3.2868    1.9696   -0.1062 H   0  0  0  0  0  0  0  0  0  0  0  0
  2  1  1  1
  1 12  1  0
  1 13  1  0
  1 14  1  0
  2  3  1  0
  2  9  1  0
  2 11  1  0
  3  4  1  0
  3 15  1  0
  3 16  1  0
  4  5  1  0
  5  6  1  0
  5 17  1  0
  5 18  1  0
  6  7  1  0
  6  8  1  0
  6 19  1  1
  7  8  1  0
  7 20  1  0
  7 21  1  0
  9 10  1  0
  9 22  1  0
  9 23  1  0
 10 11  1  0
 11 24  1  0
 11 25  1  0
M  END

