
     RDKit          3D

 42 44  0  0  0  0  0  0  0  0999 V2000
    0.9338    0.2143    1.3698 C   0  0  0  0  0  0  0  0  0  0  0  0
    2.1872   -0.5941    1.6888 C   0  0  0  0  0  0  0  0  0  0  0  0
    3.3873    0.2097    1.4748 N   0  0  0  0  0  0  0  0  0  0  0  0
    4.8839   -0.4971    1.2477 S   0  0  1  0  0  0  0  0  0  0  0  0
    4.6868   -1.5956    0.3004 O   0  0  0  0  0  0  0  0  0  0  0  0
    5.8010    0.6120    0.9968 O   0  0  0  0  0  0  0  0  0  0  0  0
    5.3548   -1.2403    2.8252 C   0  0  0  0  0  0  0  0  0  0  0  0
    5.2057   -2.6182    2.9968 C   0  0  0  0  0  0  0  0  0  0  0  0
    5.5682   -3.1951    4.2217 C   0  0  0  0  0  0  0  0  0  0  0  0
    6.0587   -2.3850    5.2394 C   0  0  0  0  0  0  0  0  0  0  0  0
    6.1925   -0.9970    5.0480 C   0  0  0  0  0  0  0  0  0  0  0  0
    5.8572   -0.4005    3.8297 C   0  0  0  0  0  0  0  0  0  0  0  0
    6.7045   -0.3950    6.2225 N   0  0  0  0  0  0  0  0  0  0  0  0
    6.9262    0.9553    6.3785 C   0  0  0  0  0  0  0  0  0  0  0  0
    6.7012    1.7674    5.4985 O   0  0  0  0  0  0  0  0  0  0  0  0
    7.4835    1.4077    7.7384 C   0  0  1  0  0  0  0  0  0  0  0  0
    6.9168    0.9006    8.5447 H   0  0  0  0  0  0  0  0  0  0  0  0
    9.0108    1.1475    7.9190 C   0  0  0  0  0  0  0  0  0  0  0  0
    9.4889    2.3440    8.7511 C   0  0  0  0  0  0  0  0  0  0  0  0
    8.4981    3.4607    8.4009 C   0  0  0  0  0  0  0  0  0  0  0  0
    8.6393    4.6504    8.5717 O   0  0  0  0  0  0  0  0  0  0  0  0
    7.3941    2.8423    7.8697 N   0  0  0  0  0  0  0  0  0  0  0  0
    6.7742   -1.4011    7.3079 C   0  0  0  0  0  0  0  0  0  0  0  0
    6.5693   -2.7632    6.6082 C   0  0  0  0  0  0  0  0  0  0  0  0
    0.0332   -0.4029    1.5137 H   0  0  0  0  0  0  0  0  0  0  0  0
    0.9539    0.5705    0.3288 H   0  0  0  0  0  0  0  0  0  0  0  0
    0.8429    1.0932    2.0300 H   0  0  0  0  0  0  0  0  0  0  0  0
    2.2608   -1.4598    1.0142 H   0  0  0  0  0  0  0  0  0  0  0  0
    2.1325   -0.9877    2.7238 H   0  0  0  0  0  0  0  0  0  0  0  0
    3.4604    1.0822    1.9956 H   0  0  0  0  0  0  0  0  0  0  0  0
    4.8335   -3.2250    2.1704 H   0  0  0  0  0  0  0  0  0  0  0  0
    5.4744   -4.2743    4.3684 H   0  0  0  0  0  0  0  0  0  0  0  0
    5.9971    0.6654    3.6683 H   0  0  0  0  0  0  0  0  0  0  0  0
    9.4950    1.1619    6.9299 H   0  0  0  0  0  0  0  0  0  0  0  0
    9.2224    0.1749    8.3845 H   0  0  0  0  0  0  0  0  0  0  0  0
   10.5160    2.6675    8.5338 H   0  0  0  0  0  0  0  0  0  0  0  0
    9.4240    2.1509    9.8358 H   0  0  0  0  0  0  0  0  0  0  0  0
    6.6474    3.3772    7.4398 H   0  0  0  0  0  0  0  0  0  0  0  0
    5.9754   -1.2093    8.0447 H   0  0  0  0  0  0  0  0  0  0  0  0
    7.7357   -1.3486    7.8338 H   0  0  0  0  0  0  0  0  0  0  0  0
    5.8719   -3.4076    7.1646 H   0  0  0  0  0  0  0  0  0  0  0  0
    7.5203   -3.3168    6.5244 H   0  0  0  0  0  0  0  0  0  0  0  0
  1  2  1  0
  1 25  1  0
  1 26  1  0
  1 27  1  0
  2  3  1  0
  2 28  1  0
  2 29  1  0
  4  3  1  1
  3 30  1  0
  4  5  2  0
  4  6  2  0
  4  7  1  0
  7  8  2  0
  7 12  1  0
  8  9  1  0
  8 31  1  0
  9 10  2  0
  9 32  1  0
 10 11  1  0
 10 24  1  0
 11 12  2  0
 11 13  1  0
 12 33  1  0
 13 14  1  0
 13 23  1  0
 14 15  2  0
 14 16  1  0
 16 17  1  1
 16 18  1  0
 16 22  1  0
 18 19  1  0
 18 34  1  0
 18 35  1  0
 19 20  1  0
 19 36  1  0
 19 37  1  0
 20 21  2  0
 20 22  1  0
 22 38  1  0
 23 24  1  0
 23 39  1  0
 23 40  1  0
 24 41  1  0
 24 42  1  0
M  END

