
     RDKit          3D

 46 49  0  0  0  0  0  0  0  0999 V2000
   -2.0061   -8.0917    3.2817 C   0  0  0  0  0  0  0  0  0  0  0  0
   -2.2658   -6.9583    2.4806 O   0  0  0  0  0  0  0  0  0  0  0  0
   -2.7657   -7.1065    1.2367 C   0  0  0  0  0  0  0  0  0  0  0  0
   -3.0525   -8.3567    0.6622 C   0  0  0  0  0  0  0  0  0  0  0  0
   -3.5687   -8.4413   -0.6317 C   0  0  0  0  0  0  0  0  0  0  0  0
   -3.8095   -7.2849   -1.3788 C   0  0  0  0  0  0  0  0  0  0  0  0
   -3.5287   -6.0425   -0.8182 C   0  0  0  0  0  0  0  0  0  0  0  0
   -3.0076   -5.9261    0.4843 C   0  0  0  0  0  0  0  0  0  0  0  0
   -2.7482   -4.5755    0.9788 C   0  0  0  0  0  0  0  0  0  0  0  0
   -2.9488   -3.4624    0.3309 N   0  0  0  0  0  0  0  0  0  0  0  0
   -2.5735   -2.4330    1.1652 N   0  0  0  0  0  0  0  0  0  0  0  0
   -2.1661   -2.9802    2.2695 C   0  0  0  0  0  0  0  0  0  0  0  0
   -1.5317   -2.4370    3.8315 S   0  0  0  0  0  0  0  0  0  0  0  0
   -1.4635   -0.6594    3.7165 C   0  0  0  0  0  0  0  0  0  0  0  0
   -1.8871    0.0623    2.5804 C   0  0  0  0  0  0  0  0  0  0  0  0
   -1.8181    1.4495    2.5447 C   0  0  0  0  0  0  0  0  0  0  0  0
   -1.2996    2.1947    3.6192 C   0  0  0  0  0  0  0  0  0  0  0  0
   -1.3252    3.6973    3.5221 C   0  0  0  0  0  0  0  0  0  0  0  0
   -2.1378    4.2274    2.7839 O   0  0  0  0  0  0  0  0  0  0  0  0
   -0.3738    4.5337    4.3268 C   0  0  0  0  0  0  0  0  0  0  0  0
   -0.7734    5.8440    4.6484 C   0  0  0  0  0  0  0  0  0  0  0  0
    0.0793    6.6908    5.3536 C   0  0  0  0  0  0  0  0  0  0  0  0
    1.3551    6.2492    5.7254 C   0  0  0  0  0  0  0  0  0  0  0  0
    1.7730    4.9592    5.3873 C   0  0  0  0  0  0  0  0  0  0  0  0
    0.9123    4.1021    4.6962 C   0  0  0  0  0  0  0  0  0  0  0  0
   -0.8852    1.4981    4.7540 C   0  0  0  0  0  0  0  0  0  0  0  0
   -0.9687    0.1036    4.8057 C   0  0  0  0  0  0  0  0  0  0  0  0
   -0.5172   -0.5238    6.0545 N   0  0  0  0  0  0  0  0  0  0  0  0
   -0.5958   -1.7456    6.1251 O   0  0  0  0  0  0  0  0  0  0  0  0
   -0.0899    0.1885    6.9464 O   0  0  0  0  0  0  0  0  0  0  0  0
   -2.2485   -4.3340    2.2237 O   0  0  0  0  0  0  0  0  0  0  0  0
   -1.6128   -7.7111    4.2334 H   0  0  0  0  0  0  0  0  0  0  0  0
   -1.2530   -8.7548    2.8207 H   0  0  0  0  0  0  0  0  0  0  0  0
   -2.9244   -8.6726    3.4786 H   0  0  0  0  0  0  0  0  0  0  0  0
   -2.8724   -9.2709    1.2266 H   0  0  0  0  0  0  0  0  0  0  0  0
   -3.7835   -9.4254   -1.0562 H   0  0  0  0  0  0  0  0  0  0  0  0
   -4.2135   -7.3508   -2.3909 H   0  0  0  0  0  0  0  0  0  0  0  0
   -3.7068   -5.1226   -1.3775 H   0  0  0  0  0  0  0  0  0  0  0  0
   -2.2780   -0.4808    1.7204 H   0  0  0  0  0  0  0  0  0  0  0  0
   -2.1762    1.9869    1.6644 H   0  0  0  0  0  0  0  0  0  0  0  0
   -1.7632    6.1779    4.3311 H   0  0  0  0  0  0  0  0  0  0  0  0
   -0.2465    7.7017    5.6110 H   0  0  0  0  0  0  0  0  0  0  0  0
    2.0265    6.9148    6.2741 H   0  0  0  0  0  0  0  0  0  0  0  0
    2.7745    4.6177    5.6599 H   0  0  0  0  0  0  0  0  0  0  0  0
    1.2597    3.1051    4.4195 H   0  0  0  0  0  0  0  0  0  0  0  0
   -0.5086    2.0060    5.6400 H   0  0  0  0  0  0  0  0  0  0  0  0
  1  2  1  0
  1 32  1  0
  1 33  1  0
  1 34  1  0
  2  3  1  0
  3  4  2  0
  3  8  1  0
  4  5  1  0
  4 35  1  0
  5  6  2  0
  5 36  1  0
  6  7  1  0
  6 37  1  0
  7  8  2  0
  7 38  1  0
  8  9  1  0
  9 10  1  0
  9 31  2  0
 10 11  2  0
 11 12  1  0
 12 13  2  0
 12 31  1  0
 13 14  1  0
 14 15  2  0
 14 27  1  0
 15 16  1  0
 15 39  1  0
 16 17  2  0
 16 40  1  0
 17 18  1  0
 17 26  1  0
 18 19  2  0
 18 20  1  0
 20 21  2  0
 20 25  1  0
 21 22  1  0
 21 41  1  0
 22 23  2  0
 22 42  1  0
 23 24  1  0
 23 43  1  0
 24 25  2  0
 24 44  1  0
 25 45  1  0
 26 27  2  0
 26 46  1  0
 27 28  1  0
 28 29  1  0
 28 30  1  0
M  CHG  4  13   1  29  -1  30  -1  31   1
M  END

