
     RDKit          3D

 40 41  0  0  0  0  0  0  0  0999 V2000
    1.6485   -1.2090    1.3850 O   0  0  0  0  0  0  0  0  0  0  0  0
    2.5905   -0.6741    0.8279 C   0  0  0  0  0  0  0  0  0  0  0  0
    3.1664    0.6464    1.3422 C   0  0  0  0  0  0  0  0  0  0  0  0
    2.1273    1.4250    1.9628 N   0  0  0  0  0  0  0  0  0  0  0  0
    2.5872    2.4907    2.8334 C   0  0  0  0  0  0  0  0  0  0  0  0
    1.4121    3.2835    3.4321 C   0  0  1  0  0  0  0  0  0  0  0  0
    1.8816    4.3186    4.4753 C   0  0  0  0  0  0  0  0  0  0  0  0
    2.5466    5.5533    3.8476 C   0  0  0  0  0  0  0  0  0  0  0  0
    1.6382    6.2068    2.7976 C   0  0  0  0  0  0  0  0  0  0  0  0
    1.1960    5.1957    1.7312 C   0  0  0  0  0  0  0  0  0  0  0  0
    0.5335    3.9602    2.3582 C   0  0  0  0  0  0  0  0  0  0  0  0
    3.2581   -1.1942   -0.2542 N   0  0  0  0  0  0  0  0  0  0  0  0
    3.0597   -2.4173   -0.9097 C   0  0  0  0  0  0  0  0  0  0  0  0
    2.0663   -3.3438   -0.5395 C   0  0  0  0  0  0  0  0  0  0  0  0
    1.9253   -4.5450   -1.2355 C   0  0  0  0  0  0  0  0  0  0  0  0
    2.7603   -4.8552   -2.3116 C   0  0  0  0  0  0  0  0  0  0  0  0
    3.7503   -3.9482   -2.6951 C   0  0  0  0  0  0  0  0  0  0  0  0
    3.8942   -2.7480   -2.0015 C   0  0  0  0  0  0  0  0  0  0  0  0
    5.1515   -1.6226   -2.5058 Cl  0  0  0  0  0  0  0  0  0  0  0  0
    3.6431    1.2105    0.5186 H   0  0  0  0  0  0  0  0  0  0  0  0
    3.9960    0.3674    2.0397 H   0  0  0  0  0  0  0  0  0  0  0  0
    1.4941    0.7881    2.4487 H   0  0  0  0  0  0  0  0  0  0  0  0
    3.2413    3.1576    2.2440 H   0  0  0  0  0  0  0  0  0  0  0  0
    3.2231    2.1121    3.6686 H   0  0  0  0  0  0  0  0  0  0  0  0
    0.7835    2.5422    3.9611 H   0  0  0  0  0  0  0  0  0  0  0  0
    2.5638    3.8432    5.2015 H   0  0  0  0  0  0  0  0  0  0  0  0
    1.0009    4.6509    5.0538 H   0  0  0  0  0  0  0  0  0  0  0  0
    3.5041    5.2675    3.3754 H   0  0  0  0  0  0  0  0  0  0  0  0
    2.8043    6.2797    4.6371 H   0  0  0  0  0  0  0  0  0  0  0  0
    2.1483    7.0655    2.3287 H   0  0  0  0  0  0  0  0  0  0  0  0
    0.7422    6.6161    3.3011 H   0  0  0  0  0  0  0  0  0  0  0  0
    2.0733    4.8880    1.1337 H   0  0  0  0  0  0  0  0  0  0  0  0
    0.4995    5.6704    1.0195 H   0  0  0  0  0  0  0  0  0  0  0  0
    0.2814    3.2232    1.5804 H   0  0  0  0  0  0  0  0  0  0  0  0
   -0.4170    4.2689    2.8302 H   0  0  0  0  0  0  0  0  0  0  0  0
    4.0082   -0.6298   -0.6411 H   0  0  0  0  0  0  0  0  0  0  0  0
    1.4168   -3.0955    0.2966 H   0  0  0  0  0  0  0  0  0  0  0  0
    1.1462   -5.2462   -0.9272 H   0  0  0  0  0  0  0  0  0  0  0  0
    2.6461   -5.7960   -2.8544 H   0  0  0  0  0  0  0  0  0  0  0  0
    4.4179   -4.1606   -3.5317 H   0  0  0  0  0  0  0  0  0  0  0  0
  1  2  2  0
  2  3  1  0
  2 12  1  0
  3  4  1  0
  3 20  1  0
  3 21  1  0
  4  5  1  0
  4 22  1  0
  5  6  1  0
  5 23  1  0
  5 24  1  0
  6  7  1  0
  6 11  1  0
  6 25  1  1
  7  8  1  0
  7 26  1  0
  7 27  1  0
  8  9  1  0
  8 28  1  0
  8 29  1  0
  9 10  1  0
  9 30  1  0
  9 31  1  0
 10 11  1  0
 10 32  1  0
 10 33  1  0
 11 34  1  0
 11 35  1  0
 12 13  1  0
 12 36  1  0
 13 14  2  0
 13 18  1  0
 14 15  1  0
 14 37  1  0
 15 16  2  0
 15 38  1  0
 16 17  1  0
 16 39  1  0
 17 18  2  0
 17 40  1  0
 18 19  1  0
M  END

