
     RDKit          3D

 58 61  0  0  0  0  0  0  0  0999 V2000
    4.9411   -0.4779    1.1885 C   0  0  0  0  0  0  0  0  0  0  0  0
    3.7510   -0.1990    0.3234 C   0  0  0  0  0  0  0  0  0  0  0  0
    3.4382    1.0447   -0.3254 C   0  0  0  0  0  0  0  0  0  0  0  0
    2.2716    0.8526   -1.0077 C   0  0  0  0  0  0  0  0  0  0  0  0
    1.8290   -0.4131   -0.8373 O   0  0  0  0  0  0  0  0  0  0  0  0
    2.7302   -1.0570   -0.0257 C   0  0  0  0  0  0  0  0  0  0  0  0
    2.4701   -2.4736    0.3126 C   0  0  0  0  0  0  0  0  0  0  0  0
    3.2268   -3.1145    1.0282 O   0  0  0  0  0  0  0  0  0  0  0  0
    1.3156   -2.9726   -0.2522 N   0  0  0  0  0  0  0  0  0  0  0  0
    0.7701   -4.2623   -0.1525 C   0  0  0  0  0  0  0  0  0  0  0  0
    1.3758   -5.3056    0.5742 C   0  0  0  0  0  0  0  0  0  0  0  0
    0.7619   -6.5602    0.6101 C   0  0  0  0  0  0  0  0  0  0  0  0
   -0.4372   -6.8072   -0.0548 C   0  0  0  0  0  0  0  0  0  0  0  0
   -1.0548   -5.7680   -0.7829 C   0  0  0  0  0  0  0  0  0  0  0  0
   -2.2862   -5.9932   -1.4725 C   0  0  0  0  0  0  0  0  0  0  0  0
   -3.3366   -6.1930   -2.0594 C   0  0  0  0  0  0  0  0  0  0  0  0
   -4.5609   -6.4448   -2.7468 C   0  0  0  0  0  0  0  0  0  0  0  0
   -5.0001   -7.7684   -2.9869 C   0  0  0  0  0  0  0  0  0  0  0  0
   -6.1261   -8.0693   -3.6277 N   0  0  0  0  0  0  0  0  0  0  0  0
   -6.8892   -7.0684   -4.0701 C   0  0  0  0  0  0  0  0  0  0  0  0
   -6.5663   -5.7130   -3.8859 C   0  0  0  0  0  0  0  0  0  0  0  0
   -7.5036   -4.6676   -4.4201 C   0  0  0  0  0  0  0  0  0  0  0  0
   -8.4809   -4.9820   -5.0911 O   0  0  0  0  0  0  0  0  0  0  0  0
   -7.1626   -3.3774   -4.0535 N   0  0  0  0  0  0  0  0  0  0  0  0
   -7.9881   -2.1844   -4.7038 S   0  0  1  0  0  0  0  0  0  0  0  0
   -7.7744   -1.7947   -6.1052 O   0  0  0  0  0  0  0  0  0  0  0  0
   -9.7770   -2.3258   -4.3607 C   0  0  0  0  0  0  0  0  0  0  0  0
  -10.0514   -2.3498   -2.8540 C   0  0  0  0  0  0  0  0  0  0  0  0
   -9.5371   -1.1697   -2.1594 N   0  0  0  0  0  0  0  0  0  0  0  0
  -10.4131   -0.0919   -2.0353 C   0  0  0  0  0  0  0  0  0  0  0  0
  -11.5253   -0.0844   -2.4966 O   0  0  0  0  0  0  0  0  0  0  0  0
   -9.9388    0.9713   -1.3430 O   0  0  0  0  0  0  0  0  0  0  0  0
   -8.0850   -1.0289   -2.1800 C   0  0  0  0  0  0  0  0  0  0  0  0
   -7.5350   -0.8227   -3.5997 C   0  0  0  0  0  0  0  0  0  0  0  0
   -5.3813   -5.4018   -3.2150 C   0  0  0  0  0  0  0  0  0  0  0  0
   -0.4405   -4.5030   -0.8222 C   0  0  0  0  0  0  0  0  0  0  0  0
    5.8761   -0.3196    0.6256 H   0  0  0  0  0  0  0  0  0  0  0  0
    4.9199   -1.5101    1.5568 H   0  0  0  0  0  0  0  0  0  0  0  0
    4.9643    0.2090    2.0509 H   0  0  0  0  0  0  0  0  0  0  0  0
    4.0187    1.9645   -0.2831 H   0  0  0  0  0  0  0  0  0  0  0  0
    1.6598    1.4964   -1.6349 H   0  0  0  0  0  0  0  0  0  0  0  0
    0.7929   -2.3165   -0.8223 H   0  0  0  0  0  0  0  0  0  0  0  0
    2.3116   -5.1183    1.0946 H   0  0  0  0  0  0  0  0  0  0  0  0
    1.2396   -7.3647    1.1752 H   0  0  0  0  0  0  0  0  0  0  0  0
   -0.9057   -7.7921   -0.0191 H   0  0  0  0  0  0  0  0  0  0  0  0
   -4.3882   -8.6065   -2.6345 H   0  0  0  0  0  0  0  0  0  0  0  0
   -7.8109   -7.3263   -4.6007 H   0  0  0  0  0  0  0  0  0  0  0  0
  -10.0761   -3.2535   -4.8666 H   0  0  0  0  0  0  0  0  0  0  0  0
  -10.2331   -1.4545   -4.8536 H   0  0  0  0  0  0  0  0  0  0  0  0
   -9.6045   -3.2491   -2.4022 H   0  0  0  0  0  0  0  0  0  0  0  0
  -11.1371   -2.3893   -2.7015 H   0  0  0  0  0  0  0  0  0  0  0  0
   -9.2094    0.7177   -0.7614 H   0  0  0  0  0  0  0  0  0  0  0  0
   -7.6264   -1.9319   -1.7472 H   0  0  0  0  0  0  0  0  0  0  0  0
   -7.7604   -0.1782   -1.5641 H   0  0  0  0  0  0  0  0  0  0  0  0
   -6.4361   -0.7984   -3.6267 H   0  0  0  0  0  0  0  0  0  0  0  0
   -7.9369    0.0832   -4.0783 H   0  0  0  0  0  0  0  0  0  0  0  0
   -5.0993   -4.3596   -3.0634 H   0  0  0  0  0  0  0  0  0  0  0  0
   -0.9180   -3.6999   -1.3894 H   0  0  0  0  0  0  0  0  0  0  0  0
  1  2  1  0
  1 37  1  0
  1 38  1  0
  1 39  1  0
  2  3  1  0
  2  6  2  0
  3  4  2  0
  3 40  1  0
  4  5  1  0
  4 41  1  0
  5  6  1  0
  6  7  1  0
  7  8  2  0
  7  9  1  0
  9 10  1  0
  9 42  1  0
 10 11  2  0
 10 36  1  0
 11 12  1  0
 11 43  1  0
 12 13  2  0
 12 44  1  0
 13 14  1  0
 13 45  1  0
 14 15  1  0
 14 36  2  0
 15 16  3  0
 16 17  1  0
 17 18  2  0
 17 35  1  0
 18 19  1  0
 18 46  1  0
 19 20  2  0
 20 21  1  0
 20 47  1  0
 21 22  1  0
 21 35  2  0
 22 23  2  0
 22 24  1  0
 24 25  3  0
 25 26  1  6
 25 27  1  0
 25 34  1  0
 27 28  1  0
 27 48  1  0
 27 49  1  0
 28 29  1  0
 28 50  1  0
 28 51  1  0
 29 30  1  0
 29 33  1  0
 30 31  2  0
 30 32  1  0
 32 52  1  0
 33 34  1  0
 33 53  1  0
 33 54  1  0
 34 55  1  0
 34 56  1  0
 35 57  1  0
 36 58  1  0
M  CHG  2  24   1  26  -1
M  END

