
     RDKit          3D

 46 47  0  0  0  0  0  0  0  0999 V2000
    3.1250    1.1758   -2.7576 C   0  0  0  0  0  0  0  0  0  0  0  0
    2.4957    0.0723   -1.9405 C   0  0  0  0  0  0  0  0  0  0  0  0
    1.3319    0.2910   -1.1902 C   0  0  0  0  0  0  0  0  0  0  0  0
    0.7562   -0.7471   -0.4515 C   0  0  0  0  0  0  0  0  0  0  0  0
    1.3352   -2.0165   -0.4476 C   0  0  0  0  0  0  0  0  0  0  0  0
    2.5021   -2.2657   -1.1874 C   0  0  0  0  0  0  0  0  0  0  0  0
    3.1531   -3.6341   -1.1884 C   0  0  0  0  0  0  0  0  0  0  0  0
    4.3256   -3.8031   -0.2052 C   0  0  1  0  0  0  0  0  0  0  0  0
    3.6556   -3.6288    1.5022 Cl  0  0  0  0  0  0  0  0  0  0  0  0
    5.1330   -5.1181   -0.3748 C   0  0  1  0  0  0  0  0  0  0  0  0
    5.7856   -5.1622   -1.7962 C   0  0  0  0  0  0  0  0  0  0  0  0
    6.4998   -3.9274   -2.3965 C   0  0  1  0  0  0  0  0  0  0  0  0
    7.7102   -3.4163   -1.6028 C   0  0  0  0  0  0  0  0  0  0  0  0
    6.9186   -4.2518   -3.8396 C   0  0  0  0  0  0  0  0  0  0  0  0
    6.1995   -5.3432    0.7358 C   0  0  0  0  0  0  0  0  0  0  0  0
    6.4881   -6.8606    0.7428 C   0  0  0  0  0  0  0  0  0  0  0  0
    5.2303   -7.5363    0.1301 C   0  0  0  0  0  0  0  0  0  0  0  0
    4.2538   -6.3855   -0.1877 C   0  0  0  0  0  0  0  0  0  0  0  0
    3.0613   -1.2130   -1.9255 C   0  0  0  0  0  0  0  0  0  0  0  0
    2.6086    2.1354   -2.6069 H   0  0  0  0  0  0  0  0  0  0  0  0
    3.0928    0.9449   -3.8361 H   0  0  0  0  0  0  0  0  0  0  0  0
    4.1856    1.3188   -2.4920 H   0  0  0  0  0  0  0  0  0  0  0  0
    0.8700    1.2824   -1.1868 H   0  0  0  0  0  0  0  0  0  0  0  0
   -0.1526   -0.5624    0.1275 H   0  0  0  0  0  0  0  0  0  0  0  0
    0.8862   -2.8217    0.1385 H   0  0  0  0  0  0  0  0  0  0  0  0
    3.5357   -3.8405   -2.2001 H   0  0  0  0  0  0  0  0  0  0  0  0
    2.4004   -4.4075   -0.9741 H   0  0  0  0  0  0  0  0  0  0  0  0
    5.0024   -2.9427   -0.2895 H   0  0  0  0  0  0  0  0  0  0  0  0
    5.0034   -5.4571   -2.5161 H   0  0  0  0  0  0  0  0  0  0  0  0
    6.5050   -5.9992   -1.8049 H   0  0  0  0  0  0  0  0  0  0  0  0
    5.7726   -3.0979   -2.4554 H   0  0  0  0  0  0  0  0  0  0  0  0
    8.4570   -4.2147   -1.4527 H   0  0  0  0  0  0  0  0  0  0  0  0
    7.4350   -3.0240   -0.6128 H   0  0  0  0  0  0  0  0  0  0  0  0
    8.2083   -2.5983   -2.1487 H   0  0  0  0  0  0  0  0  0  0  0  0
    7.6583   -5.0707   -3.8610 H   0  0  0  0  0  0  0  0  0  0  0  0
    7.3775   -3.3776   -4.3288 H   0  0  0  0  0  0  0  0  0  0  0  0
    6.0584   -4.5667   -4.4524 H   0  0  0  0  0  0  0  0  0  0  0  0
    5.7652   -5.0431    1.6993 H   0  0  0  0  0  0  0  0  0  0  0  0
    7.1079   -4.7441    0.5937 H   0  0  0  0  0  0  0  0  0  0  0  0
    6.6955   -7.2169    1.7636 H   0  0  0  0  0  0  0  0  0  0  0  0
    7.3849   -7.0983    0.1486 H   0  0  0  0  0  0  0  0  0  0  0  0
    4.7751   -8.2699    0.8132 H   0  0  0  0  0  0  0  0  0  0  0  0
    5.4938   -8.0900   -0.7850 H   0  0  0  0  0  0  0  0  0  0  0  0
    3.5831   -6.2144    0.6688 H   0  0  0  0  0  0  0  0  0  0  0  0
    3.6197   -6.5982   -1.0627 H   0  0  0  0  0  0  0  0  0  0  0  0
    3.9645   -1.3976   -2.5175 H   0  0  0  0  0  0  0  0  0  0  0  0
  1  2  1  0
  1 20  1  0
  1 21  1  0
  1 22  1  0
  2  3  2  0
  2 19  1  0
  3  4  1  0
  3 23  1  0
  4  5  2  0
  4 24  1  0
  5  6  1  0
  5 25  1  0
  6  7  1  0
  6 19  2  0
  7  8  1  0
  7 26  1  0
  7 27  1  0
  8  9  1  0
  8 10  1  0
  8 28  1  6
 10 11  1  6
 10 15  1  0
 10 18  1  0
 11 12  1  0
 11 29  1  0
 11 30  1  0
 12 13  1  0
 12 14  1  0
 12 31  1  6
 13 32  1  0
 13 33  1  0
 13 34  1  0
 14 35  1  0
 14 36  1  0
 14 37  1  0
 15 16  1  0
 15 38  1  0
 15 39  1  0
 16 17  1  0
 16 40  1  0
 16 41  1  0
 17 18  1  0
 17 42  1  0
 17 43  1  0
 18 44  1  0
 18 45  1  0
 19 46  1  0
M  END

