
     RDKit          3D

 86 91  0  0  0  0  0  0  0  0999 V2000
   -7.1431   17.3335    3.4736 C   0  0  0  0  0  0  0  0  0  0  0  0
   -6.5565   16.0666    3.6855 O   0  0  0  0  0  0  0  0  0  0  0  0
   -7.3621   14.9873    3.9045 C   0  0  0  0  0  0  0  0  0  0  0  0
   -8.7490   15.0330    3.9505 C   0  0  0  0  0  0  0  0  0  0  0  0
   -9.4965   13.8651    4.1905 C   0  0  0  0  0  0  0  0  0  0  0  0
  -10.9916   14.0165    4.2222 C   0  0  0  0  0  0  0  0  0  0  0  0
  -11.5395   15.0437    3.8359 O   0  0  0  0  0  0  0  0  0  0  0  0
  -11.7013   12.9483    4.7036 N   0  0  0  0  0  0  0  0  0  0  0  0
  -13.1451   13.0227    4.9602 C   0  0  1  0  0  0  0  0  0  0  0  0
  -13.9646   13.1064    3.6548 C   0  0  0  0  0  0  0  0  0  0  0  0
  -13.9738   11.7811    2.8861 C   0  0  0  0  0  0  0  0  0  0  0  0
  -14.4156   10.6335    3.8028 C   0  0  0  0  0  0  0  0  0  0  0  0
  -13.5346   10.6040    5.0603 C   0  0  0  0  0  0  0  0  0  0  0  0
  -13.4889   11.8736    5.7954 N   0  0  0  0  0  0  0  0  0  0  0  0
  -14.6042   12.0960    6.6971 C   0  0  0  0  0  0  0  0  0  0  0  0
   -8.8200   12.6524    4.3586 C   0  0  0  0  0  0  0  0  0  0  0  0
   -7.4239   12.5913    4.3123 C   0  0  0  0  0  0  0  0  0  0  0  0
   -6.6720   13.7536    4.0903 C   0  0  0  0  0  0  0  0  0  0  0  0
   -5.2825   13.8272    4.0231 N   0  0  0  0  0  0  0  0  0  0  0  0
   -4.3057   12.8762    4.1576 C   0  0  0  0  0  0  0  0  0  0  0  0
   -3.0479   13.3447    4.0245 N   0  0  0  0  0  0  0  0  0  0  0  0
   -2.0620   12.4607    4.1230 C   0  0  0  0  0  0  0  0  0  0  0  0
   -2.2582   11.0919    4.3648 C   0  0  0  0  0  0  0  0  0  0  0  0
   -3.6201   10.7370    4.5102 C   0  0  0  0  0  0  0  0  0  0  0  0
   -4.6297   11.6029    4.4080 N   0  0  0  0  0  0  0  0  0  0  0  0
   -3.8819    9.3427    4.8324 C   0  0  0  0  0  0  0  0  0  0  0  0
   -5.0977    8.7672    4.8600 O   0  0  0  0  0  0  0  0  0  0  0  0
   -4.9512    7.4577    5.2423 N   0  0  0  0  0  0  0  0  0  0  0  0
   -3.6616    7.2613    5.4451 C   0  0  0  0  0  0  0  0  0  0  0  0
   -3.1225    5.9297    5.8799 C   0  0  0  0  0  0  0  0  0  0  0  0
   -1.9223    5.7775    6.0652 O   0  0  0  0  0  0  0  0  0  0  0  0
   -4.0602    4.9635    6.0303 N   0  0  0  0  0  0  0  0  0  0  0  0
   -3.7637    3.6356    6.5133 C   0  0  0  0  0  0  0  0  0  0  0  0
   -4.7818    3.1786    7.5824 C   0  0  2  0  0  0  0  0  0  0  0  0
   -4.4978    2.1362    7.8378 H   0  0  0  0  0  0  0  0  0  0  0  0
   -6.1202    3.2794    6.9982 N   0  0  0  0  0  0  0  0  0  0  0  0
   -4.6793    3.9927    8.8643 C   0  0  0  0  0  0  0  0  0  0  0  0
   -3.7760    3.5994    9.8645 C   0  0  0  0  0  0  0  0  0  0  0  0
   -3.6296    4.3470   11.0350 C   0  0  0  0  0  0  0  0  0  0  0  0
   -4.3917    5.5038   11.2268 C   0  0  0  0  0  0  0  0  0  0  0  0
   -5.2974    5.9027   10.2405 C   0  0  0  0  0  0  0  0  0  0  0  0
   -5.4402    5.1544    9.0674 C   0  0  0  0  0  0  0  0  0  0  0  0
   -2.9125    8.4473    5.1908 C   0  0  0  0  0  0  0  0  0  0  0  0
   -1.4761    8.8469    5.3014 C   0  0  0  0  0  0  0  0  0  0  0  0
   -1.1345   10.0386    4.3565 C   0  0  1  0  0  0  0  0  0  0  0  0
   -0.9877    9.5116    2.9073 C   0  0  0  0  0  0  0  0  0  0  0  0
    0.2107   10.6356    4.8072 C   0  0  0  0  0  0  0  0  0  0  0  0
   -6.3164   18.0389    3.3161 H   0  0  0  0  0  0  0  0  0  0  0  0
   -7.7347   17.6582    4.3474 H   0  0  0  0  0  0  0  0  0  0  0  0
   -7.7957   17.3349    2.5830 H   0  0  0  0  0  0  0  0  0  0  0  0
   -9.3019   15.9595    3.8007 H   0  0  0  0  0  0  0  0  0  0  0  0
  -11.2172   12.2937    5.3085 H   0  0  0  0  0  0  0  0  0  0  0  0
  -13.3462   13.9375    5.5450 H   0  0  0  0  0  0  0  0  0  0  0  0
  -13.5732   13.9337    3.0465 H   0  0  0  0  0  0  0  0  0  0  0  0
  -14.9990   13.3772    3.9330 H   0  0  0  0  0  0  0  0  0  0  0  0
  -12.9603   11.5714    2.5003 H   0  0  0  0  0  0  0  0  0  0  0  0
  -14.6332   11.8573    2.0057 H   0  0  0  0  0  0  0  0  0  0  0  0
  -14.3519    9.6620    3.2834 H   0  0  0  0  0  0  0  0  0  0  0  0
  -15.4749   10.7690    4.0872 H   0  0  0  0  0  0  0  0  0  0  0  0
  -12.5058   10.3384    4.7555 H   0  0  0  0  0  0  0  0  0  0  0  0
  -13.8622    9.8179    5.7592 H   0  0  0  0  0  0  0  0  0  0  0  0
  -14.6954   11.2423    7.3878 H   0  0  0  0  0  0  0  0  0  0  0  0
  -15.5912   12.2273    6.2019 H   0  0  0  0  0  0  0  0  0  0  0  0
  -14.4193   12.9959    7.3050 H   0  0  0  0  0  0  0  0  0  0  0  0
   -9.3711   11.7207    4.5028 H   0  0  0  0  0  0  0  0  0  0  0  0
   -6.9022   11.6463    4.4409 H   0  0  0  0  0  0  0  0  0  0  0  0
   -4.9179   14.7576    3.8420 H   0  0  0  0  0  0  0  0  0  0  0  0
   -1.0507   12.8642    4.0033 H   0  0  0  0  0  0  0  0  0  0  0  0
   -5.0386    5.1961    5.8767 H   0  0  0  0  0  0  0  0  0  0  0  0
   -2.7416    3.6379    6.9158 H   0  0  0  0  0  0  0  0  0  0  0  0
   -3.7842    2.9059    5.6794 H   0  0  0  0  0  0  0  0  0  0  0  0
   -6.8360    3.0583    7.6900 H   0  0  0  0  0  0  0  0  0  0  0  0
   -6.2276    2.6114    6.2344 H   0  0  0  0  0  0  0  0  0  0  0  0
   -3.1800    2.6921    9.7253 H   0  0  0  0  0  0  0  0  0  0  0  0
   -2.9216    4.0225   11.8021 H   0  0  0  0  0  0  0  0  0  0  0  0
   -4.2815    6.0894   12.1431 H   0  0  0  0  0  0  0  0  0  0  0  0
   -5.8983    6.8050   10.3820 H   0  0  0  0  0  0  0  0  0  0  0  0
   -6.1509    5.4705    8.3017 H   0  0  0  0  0  0  0  0  0  0  0  0
   -0.8202    7.9907    5.0896 H   0  0  0  0  0  0  0  0  0  0  0  0
   -1.2714    9.1302    6.3504 H   0  0  0  0  0  0  0  0  0  0  0  0
   -1.9111    9.0252    2.5571 H   0  0  0  0  0  0  0  0  0  0  0  0
   -0.1714    8.7733    2.8476 H   0  0  0  0  0  0  0  0  0  0  0  0
   -0.7576   10.3351    2.2134 H   0  0  0  0  0  0  0  0  0  0  0  0
    0.1322   11.1062    5.7999 H   0  0  0  0  0  0  0  0  0  0  0  0
    0.5885   11.3888    4.0992 H   0  0  0  0  0  0  0  0  0  0  0  0
    0.9697    9.8399    4.8690 H   0  0  0  0  0  0  0  0  0  0  0  0
  1  2  1  0
  1 48  1  0
  1 49  1  0
  1 50  1  0
  2  3  1  0
  3  4  2  0
  3 18  1  0
  4  5  1  0
  4 51  1  0
  5  6  1  0
  5 16  2  0
  6  7  2  0
  6  8  1  0
  8  9  1  0
  8 52  1  0
  9 10  1  0
  9 14  1  0
  9 53  1  1
 10 11  1  0
 10 54  1  0
 10 55  1  0
 11 12  1  0
 11 56  1  0
 11 57  1  0
 12 13  1  0
 12 58  1  0
 12 59  1  0
 13 14  1  0
 13 60  1  0
 13 61  1  0
 14 15  1  0
 15 62  1  0
 15 63  1  0
 15 64  1  0
 16 17  1  0
 16 65  1  0
 17 18  2  0
 17 66  1  0
 18 19  1  0
 19 20  1  0
 19 67  1  0
 20 21  2  0
 20 25  1  0
 21 22  1  0
 22 23  2  0
 22 68  1  0
 23 24  1  0
 23 45  1  0
 24 25  2  0
 24 26  1  0
 26 27  1  0
 26 43  2  0
 27 28  1  0
 28 29  2  0
 29 30  1  0
 29 43  1  0
 30 31  2  0
 30 32  1  0
 32 33  1  0
 32 69  1  0
 33 34  1  0
 33 70  1  0
 33 71  1  0
 34 35  1  1
 34 36  1  0
 34 37  1  0
 36 72  1  0
 36 73  1  0
 37 38  2  0
 37 42  1  0
 38 39  1  0
 38 74  1  0
 39 40  2  0
 39 75  1  0
 40 41  1  0
 40 76  1  0
 41 42  2  0
 41 77  1  0
 42 78  1  0
 43 44  1  0
 44 45  1  0
 44 79  1  0
 44 80  1  0
 45 46  1  6
 45 47  1  0
 46 81  1  0
 46 82  1  0
 46 83  1  0
 47 84  1  0
 47 85  1  0
 47 86  1  0
M  END

