
     RDKit          3D

 63 65  0  0  0  0  0  0  0  0999 V2000
    3.2104    1.5953    2.3429 C   0  0  0  0  0  0  0  0  0  0  0  0
    2.7169    0.8507    1.1073 C   0  0  0  0  0  0  0  0  0  0  0  0
    3.0038   -0.5964    1.1602 N   0  0  0  0  0  0  0  0  0  0  0  0
    2.5964   -1.3591    2.3436 C   0  0  0  0  0  0  0  0  0  0  0  0
    1.0778   -1.3929    2.5816 C   0  0  0  0  0  0  0  0  0  0  0  0
    0.5414   -0.6354    3.3707 O   0  0  0  0  0  0  0  0  0  0  0  0
    0.4069   -2.3207    1.8187 N   0  0  0  0  0  0  0  0  0  0  0  0
   -0.9789   -2.4701    1.7950 C   0  0  0  0  0  0  0  0  0  0  0  0
   -1.9892   -1.7407    2.4028 C   0  0  0  0  0  0  0  0  0  0  0  0
   -3.1927   -2.3408    1.9420 C   0  0  0  0  0  0  0  0  0  0  0  0
   -4.6310   -1.9756    2.2870 C   0  0  1  0  0  0  0  0  0  0  0  0
   -4.6662   -0.7076    3.1567 C   0  0  0  0  0  0  0  0  0  0  0  0
   -5.4203   -1.7295    0.9837 C   0  0  0  0  0  0  0  0  0  0  0  0
   -5.2727   -3.1488    3.0606 C   0  0  0  0  0  0  0  0  0  0  0  0
   -2.9410   -3.3567    1.1248 N   0  0  0  0  0  0  0  0  0  0  0  0
   -1.5882   -3.4494    1.0456 N   0  0  0  0  0  0  0  0  0  0  0  0
   -1.0067   -4.4518    0.2247 C   0  0  0  0  0  0  0  0  0  0  0  0
   -1.5571   -4.6983   -1.0425 C   0  0  0  0  0  0  0  0  0  0  0  0
   -1.0171   -5.6897   -1.8591 C   0  0  0  0  0  0  0  0  0  0  0  0
    0.0811   -6.4206   -1.4065 C   0  0  0  0  0  0  0  0  0  0  0  0
    0.6082   -7.3664   -2.1973 F   0  0  0  0  0  0  0  0  0  0  0  0
    0.6369   -6.1962   -0.1506 C   0  0  0  0  0  0  0  0  0  0  0  0
    0.0786   -5.2171    0.6740 C   0  0  0  0  0  0  0  0  0  0  0  0
    2.9418   -1.4009   -0.3301 S   0  0  1  0  0  0  0  0  0  0  0  0
    2.7451   -2.8270    0.0015 O   0  0  0  0  0  0  0  0  0  0  0  0
    2.0052   -0.7169   -1.2259 O   0  0  0  0  0  0  0  0  0  0  0  0
    4.5800   -1.2072   -1.0075 C   0  0  0  0  0  0  0  0  0  0  0  0
    5.6658   -1.8788   -0.4230 C   0  0  0  0  0  0  0  0  0  0  0  0
    6.9301   -1.7374   -0.9727 C   0  0  0  0  0  0  0  0  0  0  0  0
    7.1269   -0.9318   -2.1151 C   0  0  0  0  0  0  0  0  0  0  0  0
    8.3934   -0.8600   -2.5720 O   0  0  0  0  0  0  0  0  0  0  0  0
    8.6822   -0.0859   -3.7193 C   0  0  0  0  0  0  0  0  0  0  0  0
    6.0322   -0.2735   -2.6993 C   0  0  0  0  0  0  0  0  0  0  0  0
    4.7577   -0.4174   -2.1426 C   0  0  0  0  0  0  0  0  0  0  0  0
    3.0921    2.6782    2.1835 H   0  0  0  0  0  0  0  0  0  0  0  0
    4.2756    1.3906    2.5358 H   0  0  0  0  0  0  0  0  0  0  0  0
    2.6253    1.3283    3.2351 H   0  0  0  0  0  0  0  0  0  0  0  0
    3.2223    1.2444    0.2124 H   0  0  0  0  0  0  0  0  0  0  0  0
    1.6367    1.0306    0.9624 H   0  0  0  0  0  0  0  0  0  0  0  0
    3.0418   -0.8877    3.2287 H   0  0  0  0  0  0  0  0  0  0  0  0
    2.9987   -2.3761    2.2554 H   0  0  0  0  0  0  0  0  0  0  0  0
    0.9576   -2.8262    1.1215 H   0  0  0  0  0  0  0  0  0  0  0  0
   -1.8456   -0.8975    3.0661 H   0  0  0  0  0  0  0  0  0  0  0  0
   -4.2101    0.1508    2.6385 H   0  0  0  0  0  0  0  0  0  0  0  0
   -4.1297   -0.8530    4.1076 H   0  0  0  0  0  0  0  0  0  0  0  0
   -5.7076   -0.4404    3.3980 H   0  0  0  0  0  0  0  0  0  0  0  0
   -4.9947   -0.8859    0.4167 H   0  0  0  0  0  0  0  0  0  0  0  0
   -6.4740   -1.4940    1.2078 H   0  0  0  0  0  0  0  0  0  0  0  0
   -5.3914   -2.6190    0.3376 H   0  0  0  0  0  0  0  0  0  0  0  0
   -4.7345   -3.3423    4.0025 H   0  0  0  0  0  0  0  0  0  0  0  0
   -5.2441   -4.0703    2.4604 H   0  0  0  0  0  0  0  0  0  0  0  0
   -6.3237   -2.9236    3.3076 H   0  0  0  0  0  0  0  0  0  0  0  0
   -2.4155   -4.1101   -1.3670 H   0  0  0  0  0  0  0  0  0  0  0  0
   -1.4295   -5.8991   -2.8479 H   0  0  0  0  0  0  0  0  0  0  0  0
    1.4870   -6.7971    0.1770 H   0  0  0  0  0  0  0  0  0  0  0  0
    0.4821   -5.0622    1.6758 H   0  0  0  0  0  0  0  0  0  0  0  0
    5.5147   -2.5142    0.4516 H   0  0  0  0  0  0  0  0  0  0  0  0
    7.7956   -2.2467   -0.5448 H   0  0  0  0  0  0  0  0  0  0  0  0
    9.7613   -0.1835   -3.8955 H   0  0  0  0  0  0  0  0  0  0  0  0
    8.4383    0.9798   -3.5641 H   0  0  0  0  0  0  0  0  0  0  0  0
    8.1382   -0.4541   -4.6068 H   0  0  0  0  0  0  0  0  0  0  0  0
    6.1558    0.3460   -3.5872 H   0  0  0  0  0  0  0  0  0  0  0  0
    3.8948    0.0756   -2.5934 H   0  0  0  0  0  0  0  0  0  0  0  0
  1  2  1  0
  1 35  1  0
  1 36  1  0
  1 37  1  0
  2  3  1  0
  2 38  1  0
  2 39  1  0
  3  4  1  0
 24  3  1  1
  4  5  1  0
  4 40  1  0
  4 41  1  0
  5  6  2  0
  5  7  1  0
  7  8  1  0
  7 42  1  0
  8  9  2  0
  8 16  1  0
  9 10  1  0
  9 43  1  0
 10 11  1  0
 10 15  2  0
 11 12  1  1
 11 13  1  0
 11 14  1  0
 12 44  1  0
 12 45  1  0
 12 46  1  0
 13 47  1  0
 13 48  1  0
 13 49  1  0
 14 50  1  0
 14 51  1  0
 14 52  1  0
 15 16  1  0
 16 17  1  0
 17 18  2  0
 17 23  1  0
 18 19  1  0
 18 53  1  0
 19 20  2  0
 19 54  1  0
 20 21  1  0
 20 22  1  0
 22 23  2  0
 22 55  1  0
 23 56  1  0
 24 25  2  0
 24 26  2  0
 24 27  1  0
 27 28  2  0
 27 34  1  0
 28 29  1  0
 28 57  1  0
 29 30  2  0
 29 58  1  0
 30 31  1  0
 30 33  1  0
 31 32  1  0
 32 59  1  0
 32 60  1  0
 32 61  1  0
 33 34  2  0
 33 62  1  0
 34 63  1  0
M  END

