
     RDKit          3D

 46 48  0  0  0  0  0  0  0  0999 V2000
    5.2029    1.7657   -2.8858 C   0  0  0  0  0  0  0  0  0  0  0  0
    5.5158    0.3104   -3.1399 C   0  0  0  0  0  0  0  0  0  0  0  0
    5.9448   -0.1449   -4.3916 C   0  0  0  0  0  0  0  0  0  0  0  0
    6.2263   -1.4975   -4.5975 C   0  0  0  0  0  0  0  0  0  0  0  0
    6.0970   -2.4544   -3.5818 C   0  0  0  0  0  0  0  0  0  0  0  0
    6.4422   -3.8951   -3.8748 C   0  0  0  0  0  0  0  0  0  0  0  0
    5.6603   -2.0042   -2.3076 C   0  0  0  0  0  0  0  0  0  0  0  0
    5.4997   -2.9198   -1.1510 C   0  0  0  0  0  0  0  0  0  0  0  0
    5.7797   -2.5983    0.1590 C   0  0  0  0  0  0  0  0  0  0  0  0
    5.4112   -3.9193    1.2238 S   0  0  0  0  0  0  0  0  0  0  0  0
    4.9086   -4.8272   -0.1910 C   0  0  0  0  0  0  0  0  0  0  0  0
    4.4349   -6.1318   -0.1313 N   0  0  0  0  0  0  0  0  0  0  0  0
    4.2667   -6.8474    1.0166 C   0  0  0  0  0  0  0  0  0  0  0  0
    4.5241   -6.4326    2.1318 O   0  0  0  0  0  0  0  0  0  0  0  0
    3.7559   -8.2759    0.8276 C   0  0  0  0  0  0  0  0  0  0  0  0
    3.2775   -8.4491   -0.4941 O   0  0  0  0  0  0  0  0  0  0  0  0
    3.3177   -9.6456   -1.1081 C   0  0  0  0  0  0  0  0  0  0  0  0
    3.3338  -10.8836   -0.4518 C   0  0  0  0  0  0  0  0  0  0  0  0
    3.3291  -12.0579   -1.2047 C   0  0  0  0  0  0  0  0  0  0  0  0
    3.2935  -11.9937   -2.6075 C   0  0  0  0  0  0  0  0  0  0  0  0
    3.2889  -13.2212   -3.4782 C   0  0  0  0  0  0  0  0  0  0  0  0
    3.2630  -10.8050   -3.2228 N   0  0  0  0  0  0  0  0  0  0  0  0
    3.2888   -9.7004   -2.5173 C   0  0  0  0  0  0  0  0  0  0  0  0
    3.2837   -8.4374   -3.3187 N   0  0  0  0  0  0  0  0  0  0  0  0
    4.0196   -7.5340   -2.9400 O   0  0  0  0  0  0  0  0  0  0  0  0
    2.5776   -8.4088   -4.3003 O   0  0  0  0  0  0  0  0  0  0  0  0
    5.0096   -4.1975   -1.3214 N   0  0  0  0  0  0  0  0  0  0  0  0
    5.3790   -0.6401   -2.1195 C   0  0  0  0  0  0  0  0  0  0  0  0
    5.2618    2.3583   -3.8108 H   0  0  0  0  0  0  0  0  0  0  0  0
    5.9074    2.2087   -2.1611 H   0  0  0  0  0  0  0  0  0  0  0  0
    4.1906    1.8936   -2.4677 H   0  0  0  0  0  0  0  0  0  0  0  0
    6.0583    0.5624   -5.2183 H   0  0  0  0  0  0  0  0  0  0  0  0
    6.5653   -1.8251   -5.5845 H   0  0  0  0  0  0  0  0  0  0  0  0
    6.9011   -3.9845   -4.8709 H   0  0  0  0  0  0  0  0  0  0  0  0
    5.5552   -4.5442   -3.8350 H   0  0  0  0  0  0  0  0  0  0  0  0
    7.1489   -4.3019   -3.1340 H   0  0  0  0  0  0  0  0  0  0  0  0
    6.1962   -1.6718    0.5485 H   0  0  0  0  0  0  0  0  0  0  0  0
    4.2016   -6.5570   -1.0325 H   0  0  0  0  0  0  0  0  0  0  0  0
    2.9631   -8.4535    1.5734 H   0  0  0  0  0  0  0  0  0  0  0  0
    4.5938   -8.9620    1.0444 H   0  0  0  0  0  0  0  0  0  0  0  0
    3.3340  -10.9290    0.6386 H   0  0  0  0  0  0  0  0  0  0  0  0
    3.3421  -13.0262   -0.6997 H   0  0  0  0  0  0  0  0  0  0  0  0
    3.2602  -14.1446   -2.8832 H   0  0  0  0  0  0  0  0  0  0  0  0
    4.1878  -13.2416   -4.1153 H   0  0  0  0  0  0  0  0  0  0  0  0
    2.4195  -13.2055   -4.1539 H   0  0  0  0  0  0  0  0  0  0  0  0
    5.0131   -0.3141   -1.1418 H   0  0  0  0  0  0  0  0  0  0  0  0
  1  2  1  0
  1 29  1  0
  1 30  1  0
  1 31  1  0
  2  3  2  0
  2 28  1  0
  3  4  1  0
  3 32  1  0
  4  5  2  0
  4 33  1  0
  5  6  1  0
  5  7  1  0
  6 34  1  0
  6 35  1  0
  6 36  1  0
  7  8  1  0
  7 28  2  0
  8  9  1  0
  8 27  2  0
  9 10  2  0
  9 37  1  0
 10 11  1  0
 11 12  2  0
 11 27  1  0
 12 13  1  0
 12 38  1  0
 13 14  2  0
 13 15  1  0
 15 16  1  0
 15 39  1  0
 15 40  1  0
 16 17  1  0
 17 18  2  0
 17 23  1  0
 18 19  1  0
 18 41  1  0
 19 20  2  0
 19 42  1  0
 20 21  1  0
 20 22  1  0
 21 43  1  0
 21 44  1  0
 21 45  1  0
 22 23  2  0
 23 24  1  0
 24 25  1  0
 24 26  1  0
 28 46  1  0
M  CHG  4  10   1  12   1  25  -1  26  -1
M  END

