
     RDKit          3D

 44 46  0  0  0  0  0  0  0  0999 V2000
    0.9850   -0.0657    0.4318 C   0  0  0  0  0  0  0  0  0  0  0  0
    2.3994   -0.2073    0.1404 N   0  0  0  0  0  0  0  0  0  0  0  0
    2.8076   -1.5140   -0.3606 C   0  0  0  0  0  0  0  0  0  0  0  0
    2.5076   -1.7242   -1.8517 C   0  0  0  0  0  0  0  0  0  0  0  0
    3.0687   -0.6275   -2.6441 N   0  0  0  0  0  0  0  0  0  0  0  0
    3.6894   -0.8657   -3.8410 C   0  0  0  0  0  0  0  0  0  0  0  0
    4.1112    0.1639   -4.7226 C   0  0  0  0  0  0  0  0  0  0  0  0
    4.7343   -0.2151   -5.9044 C   0  0  0  0  0  0  0  0  0  0  0  0
    5.2483    0.9167   -6.7883 C   0  0  0  0  0  0  0  0  0  0  0  0
    5.5205    1.9809   -6.2401 O   0  0  0  0  0  0  0  0  0  0  0  0
    5.4101    0.7282   -8.1336 N   0  0  0  0  0  0  0  0  0  0  0  0
    6.0419    1.7941   -8.9140 C   0  0  0  0  0  0  0  0  0  0  0  0
    7.2269    1.2445   -9.7166 C   0  0  0  0  0  0  0  0  0  0  0  0
    6.8089    0.0523  -10.5870 C   0  0  0  0  0  0  0  0  0  0  0  0
    6.0799   -1.0075   -9.7513 C   0  0  0  0  0  0  0  0  0  0  0  0
    4.9301   -0.3896   -8.9488 C   0  0  0  0  0  0  0  0  0  0  0  0
    4.9601   -1.5044   -6.2214 N   0  0  0  0  0  0  0  0  0  0  0  0
    4.5343   -2.3944   -5.3270 C   0  0  0  0  0  0  0  0  0  0  0  0
    3.9136   -2.1527   -4.1802 N   0  0  0  0  0  0  0  0  0  0  0  0
    2.6937    0.7052   -2.1829 C   0  0  0  0  0  0  0  0  0  0  0  0
    2.9785    0.8481   -0.6752 C   0  0  0  0  0  0  0  0  0  0  0  0
    0.6770   -0.8441    1.1487 H   0  0  0  0  0  0  0  0  0  0  0  0
    0.3032   -0.1380   -0.4447 H   0  0  0  0  0  0  0  0  0  0  0  0
    0.8024    0.9116    0.9076 H   0  0  0  0  0  0  0  0  0  0  0  0
    2.3145   -2.3028    0.2301 H   0  0  0  0  0  0  0  0  0  0  0  0
    3.8967   -1.6206   -0.2056 H   0  0  0  0  0  0  0  0  0  0  0  0
    1.4129   -1.7725   -2.0194 H   0  0  0  0  0  0  0  0  0  0  0  0
    2.9379   -2.6636   -2.2161 H   0  0  0  0  0  0  0  0  0  0  0  0
    3.9996    1.2255   -4.5177 H   0  0  0  0  0  0  0  0  0  0  0  0
    6.3471    2.5841   -8.2185 H   0  0  0  0  0  0  0  0  0  0  0  0
    5.2902    2.2252   -9.6042 H   0  0  0  0  0  0  0  0  0  0  0  0
    8.0170    0.9326   -9.0112 H   0  0  0  0  0  0  0  0  0  0  0  0
    7.6517    2.0515  -10.3371 H   0  0  0  0  0  0  0  0  0  0  0  0
    7.6863   -0.3860  -11.0910 H   0  0  0  0  0  0  0  0  0  0  0  0
    6.1347    0.4078  -11.3887 H   0  0  0  0  0  0  0  0  0  0  0  0
    6.7780   -1.4805   -9.0394 H   0  0  0  0  0  0  0  0  0  0  0  0
    5.6836   -1.8088  -10.3974 H   0  0  0  0  0  0  0  0  0  0  0  0
    4.4668   -1.1420   -8.3074 H   0  0  0  0  0  0  0  0  0  0  0  0
    4.1624    0.0024   -9.6458 H   0  0  0  0  0  0  0  0  0  0  0  0
    4.7154   -3.4509   -5.5648 H   0  0  0  0  0  0  0  0  0  0  0  0
    1.6203    0.8874   -2.3919 H   0  0  0  0  0  0  0  0  0  0  0  0
    3.2620    1.4698   -2.7249 H   0  0  0  0  0  0  0  0  0  0  0  0
    2.6135    1.8273   -0.3253 H   0  0  0  0  0  0  0  0  0  0  0  0
    4.0746    0.8359   -0.5334 H   0  0  0  0  0  0  0  0  0  0  0  0
  1  2  1  0
  1 22  1  0
  1 23  1  0
  1 24  1  0
  2  3  1  0
  2 21  1  0
  3  4  1  0
  3 25  1  0
  3 26  1  0
  4  5  1  0
  4 27  1  0
  4 28  1  0
  5  6  1  0
  5 20  1  0
  6  7  2  0
  6 19  1  0
  7  8  1  0
  7 29  1  0
  8  9  1  0
  8 17  2  0
  9 10  2  0
  9 11  1  0
 11 12  1  0
 11 16  1  0
 12 13  1  0
 12 30  1  0
 12 31  1  0
 13 14  1  0
 13 32  1  0
 13 33  1  0
 14 15  1  0
 14 34  1  0
 14 35  1  0
 15 16  1  0
 15 36  1  0
 15 37  1  0
 16 38  1  0
 16 39  1  0
 17 18  1  0
 18 19  2  0
 18 40  1  0
 20 21  1  0
 20 41  1  0
 20 42  1  0
 21 43  1  0
 21 44  1  0
M  END

