
     RDKit          3D

 33 35  0  0  0  0  0  0  0  0999 V2000
    1.6988   -4.2723   -3.7785 N   0  0  0  0  0  0  0  0  0  0  0  0
    2.7646   -3.4184   -3.5486 C   0  0  0  0  0  0  0  0  0  0  0  0
    3.5409   -2.9020   -4.5994 C   0  0  0  0  0  0  0  0  0  0  0  0
    4.6034   -2.0467   -4.3214 C   0  0  0  0  0  0  0  0  0  0  0  0
    5.3359   -1.5803   -5.3487 F   0  0  0  0  0  0  0  0  0  0  0  0
    4.9341   -1.6723   -3.0239 C   0  0  0  0  0  0  0  0  0  0  0  0
    4.1405   -2.1657   -1.9815 C   0  0  0  0  0  0  0  0  0  0  0  0
    3.0626   -3.0254   -2.2131 C   0  0  0  0  0  0  0  0  0  0  0  0
    2.2761   -3.5670   -1.1591 N   0  0  0  0  0  0  0  0  0  0  0  0
    0.9374   -2.9981   -0.9655 C   0  0  0  0  0  0  0  0  0  0  0  0
    0.1479   -3.8037    0.0609 C   0  0  1  0  0  0  0  0  0  0  0  0
   -1.3983   -3.4860    0.1652 C   0  0  0  0  0  0  0  0  0  0  0  0
   -1.6308   -4.9378   -0.2268 C   0  0  0  0  0  0  0  0  0  0  0  0
   -2.6044   -5.8991   -0.4730 C   0  0  0  0  0  0  0  0  0  0  0  0
   -2.1346   -7.1753   -0.8337 C   0  0  0  0  0  0  0  0  0  0  0  0
   -0.7623   -7.4567   -0.9344 C   0  0  0  0  0  0  0  0  0  0  0  0
    0.2136   -6.4760   -0.6774 C   0  0  0  0  0  0  0  0  0  0  0  0
   -0.2659   -5.2193   -0.3238 C   0  0  0  0  0  0  0  0  0  0  0  0
    1.6919   -4.7484   -4.6732 H   0  0  0  0  0  0  0  0  0  0  0  0
    1.4739   -4.8767   -2.9915 H   0  0  0  0  0  0  0  0  0  0  0  0
    3.3386   -3.1796   -5.6362 H   0  0  0  0  0  0  0  0  0  0  0  0
    5.7792   -1.0066   -2.8441 H   0  0  0  0  0  0  0  0  0  0  0  0
    4.3661   -1.8737   -0.9515 H   0  0  0  0  0  0  0  0  0  0  0  0
    2.7940   -3.5531   -0.2830 H   0  0  0  0  0  0  0  0  0  0  0  0
    0.4118   -3.0233   -1.9333 H   0  0  0  0  0  0  0  0  0  0  0  0
    0.9758   -1.9335   -0.6507 H   0  0  0  0  0  0  0  0  0  0  0  0
    0.6525   -3.7520    1.0436 H   0  0  0  0  0  0  0  0  0  0  0  0
   -1.7554   -2.7360   -0.5600 H   0  0  0  0  0  0  0  0  0  0  0  0
   -1.7476   -3.1958    1.1693 H   0  0  0  0  0  0  0  0  0  0  0  0
   -3.6766   -5.6979   -0.3984 H   0  0  0  0  0  0  0  0  0  0  0  0
   -2.8538   -7.9724   -1.0415 H   0  0  0  0  0  0  0  0  0  0  0  0
   -0.4493   -8.4660   -1.2163 H   0  0  0  0  0  0  0  0  0  0  0  0
    1.2799   -6.7044   -0.7489 H   0  0  0  0  0  0  0  0  0  0  0  0
  1  2  1  0
  1 19  1  0
  1 20  1  0
  2  3  2  0
  2  8  1  0
  3  4  1  0
  3 21  1  0
  4  5  1  0
  4  6  2  0
  6  7  1  0
  6 22  1  0
  7  8  2  0
  7 23  1  0
  8  9  1  0
  9 10  1  0
  9 24  1  0
 10 11  1  0
 10 25  1  0
 10 26  1  0
 11 12  1  0
 11 18  1  0
 11 27  1  1
 12 13  1  0
 12 28  1  0
 12 29  1  0
 13 14  2  0
 13 18  1  0
 14 15  1  0
 14 30  1  0
 15 16  2  0
 15 31  1  0
 16 17  1  0
 16 32  1  0
 17 18  2  0
 17 33  1  0
M  END

