
     RDKit          3D

 38 39  0  0  0  0  0  0  0  0999 V2000
    1.0860   -2.9162    4.3256 C   0  0  0  0  0  0  0  0  0  0  0  0
    2.1555   -2.0065    3.8113 C   0  0  0  0  0  0  0  0  0  0  0  0
    2.6203   -0.9500    4.4475 N   0  0  0  0  0  0  0  0  0  0  0  0
    3.5871   -0.4135    3.6365 C   0  0  0  0  0  0  0  0  0  0  0  0
    3.7135   -1.1574    2.4871 C   0  0  0  0  0  0  0  0  0  0  0  0
    2.7951   -2.1851    2.6044 N   0  0  0  0  0  0  0  0  0  0  0  0
    2.5207   -3.1954    1.5964 C   0  0  0  0  0  0  0  0  0  0  0  0
    1.5302   -2.7153    0.5223 C   0  0  0  0  0  0  0  0  0  0  0  0
    1.2983   -3.7226   -0.4984 N   0  0  0  0  0  0  0  0  0  0  0  0
    0.9637   -3.1726   -1.8094 C   0  0  0  0  0  0  0  0  0  0  0  0
    0.9452   -4.2722   -2.8731 C   0  0  0  0  0  0  0  0  0  0  0  0
   -0.0145   -5.4276   -2.5289 C   0  0  2  0  0  0  0  0  0  0  0  0
   -1.4907   -5.0561   -2.7315 C   0  0  0  0  0  0  0  0  0  0  0  0
    0.3084   -5.9300   -1.1023 C   0  0  2  0  0  0  0  0  0  0  0  0
   -0.5852   -7.0121   -0.7002 N   0  0  0  0  0  0  0  0  0  0  0  0
    0.3603   -4.7640   -0.0951 C   0  0  0  0  0  0  0  0  0  0  0  0
    0.7596   -2.5346    5.3015 H   0  0  0  0  0  0  0  0  0  0  0  0
    1.4471   -3.9501    4.4640 H   0  0  0  0  0  0  0  0  0  0  0  0
    0.2081   -2.9567    3.6587 H   0  0  0  0  0  0  0  0  0  0  0  0
    4.1481    0.4762    3.9217 H   0  0  0  0  0  0  0  0  0  0  0  0
    4.3643   -1.0655    1.6205 H   0  0  0  0  0  0  0  0  0  0  0  0
    2.1397   -4.0932    2.1037 H   0  0  0  0  0  0  0  0  0  0  0  0
    3.4643   -3.4820    1.1079 H   0  0  0  0  0  0  0  0  0  0  0  0
    1.9605   -1.8215    0.0434 H   0  0  0  0  0  0  0  0  0  0  0  0
    0.5883   -2.3794    1.0126 H   0  0  0  0  0  0  0  0  0  0  0  0
    1.7225   -2.4187   -2.0747 H   0  0  0  0  0  0  0  0  0  0  0  0
   -0.0153   -2.6390   -1.7903 H   0  0  0  0  0  0  0  0  0  0  0  0
    1.9698   -4.6707   -2.9667 H   0  0  0  0  0  0  0  0  0  0  0  0
    0.6789   -3.8340   -3.8496 H   0  0  0  0  0  0  0  0  0  0  0  0
    0.1989   -6.2681   -3.2109 H   0  0  0  0  0  0  0  0  0  0  0  0
   -1.8241   -4.2368   -2.0743 H   0  0  0  0  0  0  0  0  0  0  0  0
   -2.1399   -5.9258   -2.5476 H   0  0  0  0  0  0  0  0  0  0  0  0
   -1.6655   -4.7313   -3.7698 H   0  0  0  0  0  0  0  0  0  0  0  0
    1.3283   -6.3508   -1.1414 H   0  0  0  0  0  0  0  0  0  0  0  0
   -1.5089   -6.6500   -0.4598 H   0  0  0  0  0  0  0  0  0  0  0  0
   -0.2335   -7.4727    0.1391 H   0  0  0  0  0  0  0  0  0  0  0  0
    0.6652   -5.1706    0.8832 H   0  0  0  0  0  0  0  0  0  0  0  0
   -0.6686   -4.3518    0.0476 H   0  0  0  0  0  0  0  0  0  0  0  0
  1  2  1  0
  1 17  1  0
  1 18  1  0
  1 19  1  0
  2  3  2  0
  2  6  1  0
  3  4  1  0
  4  5  2  0
  4 20  1  0
  5  6  1  0
  5 21  1  0
  6  7  1  0
  7  8  1  0
  7 22  1  0
  7 23  1  0
  8  9  1  0
  8 24  1  0
  8 25  1  0
  9 10  1  0
  9 16  1  0
 10 11  1  0
 10 26  1  0
 10 27  1  0
 11 12  1  0
 11 28  1  0
 11 29  1  0
 12 13  1  0
 12 14  1  0
 12 30  1  6
 13 31  1  0
 13 32  1  0
 13 33  1  0
 14 15  1  0
 14 16  1  0
 14 34  1  6
 15 35  1  0
 15 36  1  0
 16 37  1  0
 16 38  1  0
M  END

