
     RDKit          3D

 65 71  0  0  0  0  0  0  0  0999 V2000
    4.8769    1.0062   -1.8601 C   0  0  0  0  0  0  0  0  0  0  0  0
    6.1799    1.5277   -1.3339 C   0  0  0  0  0  0  0  0  0  0  0  0
    7.0177    0.8695   -0.4186 C   0  0  0  0  0  0  0  0  0  0  0  0
    6.7706   -0.4250    0.2578 C   0  0  0  0  0  0  0  0  0  0  0  0
    5.6050   -0.6349    1.0201 C   0  0  0  0  0  0  0  0  0  0  0  0
    5.3711   -1.8559    1.6571 C   0  0  0  0  0  0  0  0  0  0  0  0
    6.3013   -2.8944    1.5523 C   0  0  0  0  0  0  0  0  0  0  0  0
    7.4657   -2.7017    0.8029 C   0  0  0  0  0  0  0  0  0  0  0  0
    7.6960   -1.4823    0.1611 C   0  0  0  0  0  0  0  0  0  0  0  0
    8.1762    1.6835   -0.2477 C   0  0  0  0  0  0  0  0  0  0  0  0
    9.3566    1.4450    0.6349 C   0  0  0  0  0  0  0  0  0  0  0  0
    8.0639    2.7864   -1.0092 N   0  0  0  0  0  0  0  0  0  0  0  0
    6.8528    2.7401   -1.6985 C   0  0  0  0  0  0  0  0  0  0  0  0
    6.4949    3.7764   -2.5835 C   0  0  0  0  0  0  0  0  0  0  0  0
    5.1826    3.7383   -3.2681 C   0  0  0  0  0  0  0  0  0  0  0  0
    4.7626    3.2736   -4.5186 C   0  0  0  0  0  0  0  0  0  0  0  0
    5.5957    2.6344   -5.5492 C   0  0  0  0  0  0  0  0  0  0  0  0
    5.0321    2.2369   -6.7756 C   0  0  0  0  0  0  0  0  0  0  0  0
    5.8576    1.6338   -7.7222 C   0  0  0  0  0  0  0  0  0  0  0  0
    7.2098    1.4458   -7.4215 C   0  0  0  0  0  0  0  0  0  0  0  0
    7.6747    1.8749   -6.1733 C   0  0  0  0  0  0  0  0  0  0  0  0
    6.8941    2.4518   -5.2615 N   0  0  0  0  0  0  0  0  0  0  0  0
    3.4278    3.4737   -4.7008 N   0  0  0  0  0  0  0  0  0  0  0  0
    2.9869    4.0548   -3.5958 C   0  0  0  0  0  0  0  0  0  0  0  0
    1.6891    4.4914   -3.2274 C   0  0  0  0  0  0  0  0  0  0  0  0
    1.4941    5.0778   -1.9980 C   0  0  0  0  0  0  0  0  0  0  0  0
    2.5890    5.2469   -1.0991 C   0  0  0  0  0  0  0  0  0  0  0  0
    3.8456    4.8282   -1.4470 C   0  0  0  0  0  0  0  0  0  0  0  0
    4.0395    4.2399   -2.6752 N   0  0  0  0  0  0  0  0  0  0  0  0
    7.3395    4.8859   -2.7776 C   0  0  0  0  0  0  0  0  0  0  0  0
    7.1972    6.0590   -3.5954 C   0  0  0  0  0  0  0  0  0  0  0  0
    6.0727    6.4462   -4.5067 C   0  0  0  0  0  0  0  0  0  0  0  0
    8.3557    6.8055   -3.3930 C   0  0  0  0  0  0  0  0  0  0  0  0
    9.1804    6.1107   -2.4786 C   0  0  0  0  0  0  0  0  0  0  0  0
   10.5170    6.5144   -1.9520 C   0  0  0  0  0  0  0  0  0  0  0  0
    8.5656    4.9677   -2.1170 N   0  0  0  0  0  0  0  0  0  0  0  0
    9.1231    3.9276   -1.1010 B   0  0  1  0  0  0  0  0  0  0  0  0
    9.2865    4.5310    0.1473 F   0  0  0  0  0  0  0  0  0  0  0  0
   10.3375    3.4157   -1.5495 F   0  0  0  0  0  0  0  0  0  0  0  0
    4.8767    0.9619   -2.9588 H   0  0  0  0  0  0  0  0  0  0  0  0
    4.0226    1.6377   -1.5657 H   0  0  0  0  0  0  0  0  0  0  0  0
    4.6858   -0.0060   -1.4788 H   0  0  0  0  0  0  0  0  0  0  0  0
    4.8831    0.1786    1.1260 H   0  0  0  0  0  0  0  0  0  0  0  0
    4.4603   -1.9940    2.2459 H   0  0  0  0  0  0  0  0  0  0  0  0
    6.1200   -3.8489    2.0529 H   0  0  0  0  0  0  0  0  0  0  0  0
    8.1976   -3.5084    0.7105 H   0  0  0  0  0  0  0  0  0  0  0  0
    8.5994   -1.3488   -0.4390 H   0  0  0  0  0  0  0  0  0  0  0  0
    9.5832    2.3510    1.2159 H   0  0  0  0  0  0  0  0  0  0  0  0
    9.1738    0.6056    1.3171 H   0  0  0  0  0  0  0  0  0  0  0  0
   10.2540    1.2274    0.0327 H   0  0  0  0  0  0  0  0  0  0  0  0
    3.9699    2.4094   -6.9519 H   0  0  0  0  0  0  0  0  0  0  0  0
    5.4515    1.3131   -8.6851 H   0  0  0  0  0  0  0  0  0  0  0  0
    7.8922    0.9772   -8.1341 H   0  0  0  0  0  0  0  0  0  0  0  0
    8.7283    1.7445   -5.8994 H   0  0  0  0  0  0  0  0  0  0  0  0
    0.8797    4.3445   -3.9435 H   0  0  0  0  0  0  0  0  0  0  0  0
    0.4992    5.4179   -1.7033 H   0  0  0  0  0  0  0  0  0  0  0  0
    2.4399    5.7127   -0.1240 H   0  0  0  0  0  0  0  0  0  0  0  0
    4.7246    4.9274   -0.8095 H   0  0  0  0  0  0  0  0  0  0  0  0
    5.1026    6.4833   -3.9870 H   0  0  0  0  0  0  0  0  0  0  0  0
    5.9603    5.7373   -5.3415 H   0  0  0  0  0  0  0  0  0  0  0  0
    6.2606    7.4426   -4.9333 H   0  0  0  0  0  0  0  0  0  0  0  0
    8.5967    7.7624   -3.8538 H   0  0  0  0  0  0  0  0  0  0  0  0
   10.8284    7.4764   -2.3804 H   0  0  0  0  0  0  0  0  0  0  0  0
   11.2726    5.7488   -2.1886 H   0  0  0  0  0  0  0  0  0  0  0  0
   10.4909    6.5961   -0.8539 H   0  0  0  0  0  0  0  0  0  0  0  0
  1  2  1  0
  1 40  1  0
  1 41  1  0
  1 42  1  0
  2  3  1  0
  2 13  2  0
  3  4  1  0
  3 10  2  0
  4  5  2  0
  4  9  1  0
  5  6  1  0
  5 43  1  0
  6  7  2  0
  6 44  1  0
  7  8  1  0
  7 45  1  0
  8  9  2  0
  8 46  1  0
  9 47  1  0
 10 11  1  0
 10 12  1  0
 11 48  1  0
 11 49  1  0
 11 50  1  0
 12 13  1  0
 12 37  1  0
 13 14  1  0
 14 15  1  0
 14 30  2  0
 15 16  2  0
 15 29  1  0
 16 17  1  0
 16 23  1  0
 17 18  2  0
 17 22  1  0
 18 19  1  0
 18 51  1  0
 19 20  2  0
 19 52  1  0
 20 21  1  0
 20 53  1  0
 21 22  2  0
 21 54  1  0
 23 24  2  0
 24 25  1  0
 24 29  1  0
 25 26  2  0
 25 55  1  0
 26 27  1  0
 26 56  1  0
 27 28  2  0
 27 57  1  0
 28 29  1  0
 28 58  1  0
 30 31  1  0
 30 36  1  0
 31 32  1  0
 31 33  2  0
 32 59  1  0
 32 60  1  0
 32 61  1  0
 33 34  1  0
 33 62  1  0
 34 35  1  0
 34 36  2  0
 35 63  1  0
 35 64  1  0
 35 65  1  0
 36 37  1  0
 37 38  1  1
 37 39  1  0
M  CHG  2  36   1  37  -1
M  END

