
     RDKit          3D

 41 43  0  0  0  0  0  0  0  0999 V2000
    2.8677    0.6358    1.7962 C   0  0  0  0  0  0  0  0  0  0  0  0
    2.5464    0.1741    0.3647 C   0  0  1  0  0  0  0  0  0  0  0  0
    1.0274    0.1469    0.1325 C   0  0  0  0  0  0  0  0  0  0  0  0
    0.6105   -0.4451   -1.2238 C   0  0  0  0  0  0  0  0  0  0  0  0
   -0.8642   -0.4803   -1.4405 C   0  0  0  0  0  0  0  0  0  0  0  0
   -1.7011    0.1249   -2.3402 C   0  0  0  0  0  0  0  0  0  0  0  0
   -3.0328   -0.3086   -2.0208 C   0  0  0  0  0  0  0  0  0  0  0  0
   -2.9068   -1.1429   -0.9490 C   0  0  0  0  0  0  0  0  0  0  0  0
   -1.6008   -1.2534   -0.5899 O   0  0  0  0  0  0  0  0  0  0  0  0
    3.1923    0.9738   -0.6799 N   0  0  0  0  0  0  0  0  0  0  0  0
    4.6433    0.8738   -0.7957 C   0  0  0  0  0  0  0  0  0  0  0  0
    5.1098   -0.4462   -1.3857 C   0  0  0  0  0  0  0  0  0  0  0  0
    6.1472   -1.1760   -0.7874 C   0  0  0  0  0  0  0  0  0  0  0  0
    6.6300   -2.3738   -1.3352 C   0  0  0  0  0  0  0  0  0  0  0  0
    6.0342   -2.8307   -2.5065 C   0  0  0  0  0  0  0  0  0  0  0  0
    4.9880   -2.1280   -3.1227 C   0  0  0  0  0  0  0  0  0  0  0  0
    4.5221   -0.9438   -2.5669 C   0  0  0  0  0  0  0  0  0  0  0  0
    4.5402   -2.9382   -4.3196 C   0  0  0  0  0  0  0  0  0  0  0  0
    5.6854   -3.9717   -4.4306 C   0  0  0  0  0  0  0  0  0  0  0  0
    6.3712   -3.9729   -3.1625 O   0  0  0  0  0  0  0  0  0  0  0  0
    2.4063   -0.0302    2.5430 H   0  0  0  0  0  0  0  0  0  0  0  0
    2.4820    1.6550    1.9740 H   0  0  0  0  0  0  0  0  0  0  0  0
    3.9516    0.6463    1.9897 H   0  0  0  0  0  0  0  0  0  0  0  0
    2.9254   -0.8567    0.2432 H   0  0  0  0  0  0  0  0  0  0  0  0
    0.6294    1.1756    0.2183 H   0  0  0  0  0  0  0  0  0  0  0  0
    0.5516   -0.4305    0.9421 H   0  0  0  0  0  0  0  0  0  0  0  0
    1.0186   -1.4691   -1.3073 H   0  0  0  0  0  0  0  0  0  0  0  0
    1.0695    0.1402   -2.0328 H   0  0  0  0  0  0  0  0  0  0  0  0
   -1.3998    0.7988   -3.1395 H   0  0  0  0  0  0  0  0  0  0  0  0
   -3.9579   -0.0343   -2.5240 H   0  0  0  0  0  0  0  0  0  0  0  0
   -3.6177   -1.7116   -0.3552 H   0  0  0  0  0  0  0  0  0  0  0  0
    2.9145    1.9507   -0.5904 H   0  0  0  0  0  0  0  0  0  0  0  0
    5.1812    1.0354    0.1626 H   0  0  0  0  0  0  0  0  0  0  0  0
    4.9646    1.6959   -1.4599 H   0  0  0  0  0  0  0  0  0  0  0  0
    6.5998   -0.7970    0.1339 H   0  0  0  0  0  0  0  0  0  0  0  0
    7.4401   -2.9344   -0.8652 H   0  0  0  0  0  0  0  0  0  0  0  0
    3.6989   -0.3903   -3.0253 H   0  0  0  0  0  0  0  0  0  0  0  0
    4.4295   -2.3438   -5.2396 H   0  0  0  0  0  0  0  0  0  0  0  0
    3.5678   -3.4243   -4.1246 H   0  0  0  0  0  0  0  0  0  0  0  0
    6.4097   -3.6839   -5.2136 H   0  0  0  0  0  0  0  0  0  0  0  0
    5.3437   -4.9967   -4.6338 H   0  0  0  0  0  0  0  0  0  0  0  0
  1  2  1  0
  1 21  1  0
  1 22  1  0
  1 23  1  0
  2  3  1  0
  2 10  1  0
  2 24  1  1
  3  4  1  0
  3 25  1  0
  3 26  1  0
  4  5  1  0
  4 27  1  0
  4 28  1  0
  5  6  2  0
  5  9  1  0
  6  7  1  0
  6 29  1  0
  7  8  2  0
  7 30  1  0
  8  9  1  0
  8 31  1  0
 10 11  1  0
 10 32  1  0
 11 12  1  0
 11 33  1  0
 11 34  1  0
 12 13  2  0
 12 17  1  0
 13 14  1  0
 13 35  1  0
 14 15  2  0
 14 36  1  0
 15 16  1  0
 15 20  1  0
 16 17  2  0
 16 18  1  0
 17 37  1  0
 18 19  1  0
 18 38  1  0
 18 39  1  0
 19 20  1  0
 19 40  1  0
 19 41  1  0
M  END

