
     RDKit          3D

 49 49  0  0  0  0  0  0  0  0999 V2000
    3.4776    2.8831    0.4074 C   0  0  0  0  0  0  0  0  0  0  0  0
    2.9779    1.9762    1.5336 C   0  0  0  0  0  0  0  0  0  0  0  0
    3.2638    0.5506    1.3442 N   0  0  0  0  0  0  0  0  0  0  0  0
    2.2526   -0.3343    0.7773 C   0  0  0  0  0  0  0  0  0  0  0  0
    2.3026   -0.4904   -0.7459 C   0  0  0  0  0  0  0  0  0  0  0  0
    4.5008    0.0920    1.6710 C   0  0  0  0  0  0  0  0  0  0  0  0
    5.4511    0.8539    2.1545 N   0  0  0  0  0  0  0  0  0  0  0  0
    6.5815    0.1343    2.4357 C   0  0  0  0  0  0  0  0  0  0  0  0
    7.6557    0.7598    2.9619 N   0  0  0  0  0  0  0  0  0  0  0  0
    6.5325   -1.2365    2.1533 C   0  0  0  0  0  0  0  0  0  0  0  0
    7.6391   -2.1556    2.3557 C   0  0  0  0  0  0  0  0  0  0  0  0
    8.7314   -1.7587    2.7909 O   0  0  0  0  0  0  0  0  0  0  0  0
    7.4447   -3.4791    2.0347 N   0  0  0  0  0  0  0  0  0  0  0  0
    8.4575   -4.4888    2.2740 C   0  0  0  0  0  0  0  0  0  0  0  0
    8.3036   -5.2263    3.6107 C   0  0  0  0  0  0  0  0  0  0  0  0
    9.3759   -6.2970    3.8316 C   0  0  0  0  0  0  0  0  0  0  0  0
    9.2330   -7.0339    5.1675 C   0  0  0  0  0  0  0  0  0  0  0  0
   10.2368   -8.1771    5.4107 C   0  0  1  0  0  0  0  0  0  0  0  0
   11.6892   -7.6860    5.4810 C   0  0  0  0  0  0  0  0  0  0  0  0
    9.8682   -8.9589    6.6785 C   0  0  0  0  0  0  0  0  0  0  0  0
    4.9343   -1.6154    1.4850 S   0  0  0  0  0  0  0  0  0  0  0  0
    3.2347    3.9337    0.6357 H   0  0  0  0  0  0  0  0  0  0  0  0
    3.0157    2.6316   -0.5599 H   0  0  0  0  0  0  0  0  0  0  0  0
    4.5697    2.8004    0.3075 H   0  0  0  0  0  0  0  0  0  0  0  0
    1.8865    2.0726    1.6506 H   0  0  0  0  0  0  0  0  0  0  0  0
    3.4438    2.2857    2.4810 H   0  0  0  0  0  0  0  0  0  0  0  0
    1.2676    0.0529    1.0840 H   0  0  0  0  0  0  0  0  0  0  0  0
    2.3532   -1.3231    1.2581 H   0  0  0  0  0  0  0  0  0  0  0  0
    2.1235    0.4680   -1.2566 H   0  0  0  0  0  0  0  0  0  0  0  0
    1.5292   -1.2015   -1.0787 H   0  0  0  0  0  0  0  0  0  0  0  0
    3.2811   -0.8762   -1.0702 H   0  0  0  0  0  0  0  0  0  0  0  0
    7.6447    1.7648    3.0553 H   0  0  0  0  0  0  0  0  0  0  0  0
    8.4916    0.1915    3.0883 H   0  0  0  0  0  0  0  0  0  0  0  0
    6.5104   -3.7898    1.7979 H   0  0  0  0  0  0  0  0  0  0  0  0
    9.4291   -3.9745    2.2461 H   0  0  0  0  0  0  0  0  0  0  0  0
    8.4424   -5.2137    1.4404 H   0  0  0  0  0  0  0  0  0  0  0  0
    7.3000   -5.6890    3.6605 H   0  0  0  0  0  0  0  0  0  0  0  0
    8.3432   -4.4821    4.4248 H   0  0  0  0  0  0  0  0  0  0  0  0
   10.3704   -5.8223    3.7650 H   0  0  0  0  0  0  0  0  0  0  0  0
    9.3367   -7.0322    3.0053 H   0  0  0  0  0  0  0  0  0  0  0  0
    8.2101   -7.4482    5.2320 H   0  0  0  0  0  0  0  0  0  0  0  0
    9.3122   -6.3052    5.9967 H   0  0  0  0  0  0  0  0  0  0  0  0
   10.1583   -8.8737    4.5533 H   0  0  0  0  0  0  0  0  0  0  0  0
   11.8209   -6.9655    6.3073 H   0  0  0  0  0  0  0  0  0  0  0  0
   12.0072   -7.1886    4.5517 H   0  0  0  0  0  0  0  0  0  0  0  0
   12.3824   -8.5243    5.6588 H   0  0  0  0  0  0  0  0  0  0  0  0
    9.9231   -8.3115    7.5709 H   0  0  0  0  0  0  0  0  0  0  0  0
   10.5526   -9.8073    6.8421 H   0  0  0  0  0  0  0  0  0  0  0  0
    8.8430   -9.3602    6.6227 H   0  0  0  0  0  0  0  0  0  0  0  0
  1  2  1  0
  1 22  1  0
  1 23  1  0
  1 24  1  0
  2  3  1  0
  2 25  1  0
  2 26  1  0
  3  4  1  0
  3  6  1  0
  4  5  1  0
  4 27  1  0
  4 28  1  0
  5 29  1  0
  5 30  1  0
  5 31  1  0
  6  7  2  0
  6 21  1  0
  7  8  1  0
  8  9  1  0
  8 10  2  0
  9 32  1  0
  9 33  1  0
 10 11  1  0
 10 21  1  0
 11 12  2  0
 11 13  1  0
 13 14  1  0
 13 34  1  0
 14 15  1  0
 14 35  1  0
 14 36  1  0
 15 16  1  0
 15 37  1  0
 15 38  1  0
 16 17  1  0
 16 39  1  0
 16 40  1  0
 17 18  1  0
 17 41  1  0
 17 42  1  0
 18 19  1  0
 18 20  1  0
 18 43  1  6
 19 44  1  0
 19 45  1  0
 19 46  1  0
 20 47  1  0
 20 48  1  0
 20 49  1  0
M  END

