
     RDKit          3D

 53 55  0  0  0  0  0  0  0  0999 V2000
    3.7281    2.7084   -3.2113 O   0  0  0  0  0  0  0  0  0  0  0  0
    3.4939    1.5390   -3.4021 C   0  0  0  0  0  0  0  0  0  0  0  0
    4.2259    0.8478   -4.2895 O   0  0  0  0  0  0  0  0  0  0  0  0
    2.3912    0.7889   -2.6704 C   0  0  0  0  0  0  0  0  0  0  0  0
    2.7547    0.4624   -1.1898 C   0  0  1  0  0  0  0  0  0  0  0  0
    3.1820    1.6502   -0.4725 N   0  0  0  0  0  0  0  0  0  0  0  0
    4.5107    1.9424   -0.2854 C   0  0  0  0  0  0  0  0  0  0  0  0
    5.3920    1.1441   -0.5639 O   0  0  0  0  0  0  0  0  0  0  0  0
    4.7518    3.3412    0.2372 C   0  0  0  0  0  0  0  0  0  0  0  0
    5.4090    3.6529    1.3836 C   0  0  0  0  0  0  0  0  0  0  0  0
    6.0472    2.8077    2.4049 C   0  0  0  0  0  0  0  0  0  0  0  0
    6.6151    1.5333    2.1873 C   0  0  0  0  0  0  0  0  0  0  0  0
    7.2065    0.8295    3.2385 C   0  0  0  0  0  0  0  0  0  0  0  0
    7.2574    1.3719    4.5263 C   0  0  0  0  0  0  0  0  0  0  0  0
    6.7193    2.6423    4.7552 C   0  0  0  0  0  0  0  0  0  0  0  0
    6.1327    3.3508    3.7076 C   0  0  0  0  0  0  0  0  0  0  0  0
    4.1410    4.2996   -0.6075 N   0  0  0  0  0  0  0  0  0  0  0  0
    3.9276    5.6411   -0.3652 C   0  0  0  0  0  0  0  0  0  0  0  0
    4.1546    6.1747    0.7108 O   0  0  0  0  0  0  0  0  0  0  0  0
    3.3601    6.4318   -1.5177 C   0  0  0  0  0  0  0  0  0  0  0  0
    3.4282    6.0290   -2.8624 C   0  0  0  0  0  0  0  0  0  0  0  0
    2.8961    6.8432   -3.8666 C   0  0  0  0  0  0  0  0  0  0  0  0
    2.2927    8.0614   -3.5426 C   0  0  0  0  0  0  0  0  0  0  0  0
    2.2308    8.4723   -2.2062 C   0  0  0  0  0  0  0  0  0  0  0  0
    2.7678    7.6666   -1.2029 C   0  0  0  0  0  0  0  0  0  0  0  0
    1.6168   -0.2561   -0.4782 C   0  0  0  0  0  0  0  0  0  0  0  0
    1.8470   -1.4970    0.1333 C   0  0  0  0  0  0  0  0  0  0  0  0
    0.8207   -2.1622    0.8104 C   0  0  0  0  0  0  0  0  0  0  0  0
   -0.4525   -1.5919    0.8884 C   0  0  0  0  0  0  0  0  0  0  0  0
   -0.6937   -0.3537    0.2850 C   0  0  0  0  0  0  0  0  0  0  0  0
    0.3326    0.3064   -0.3954 C   0  0  0  0  0  0  0  0  0  0  0  0
    3.9459   -0.0777   -4.3239 H   0  0  0  0  0  0  0  0  0  0  0  0
    2.1227   -0.1482   -3.1840 H   0  0  0  0  0  0  0  0  0  0  0  0
    1.5054    1.4412   -2.6938 H   0  0  0  0  0  0  0  0  0  0  0  0
    3.6365   -0.1933   -1.1933 H   0  0  0  0  0  0  0  0  0  0  0  0
    2.4898    2.3431   -0.2104 H   0  0  0  0  0  0  0  0  0  0  0  0
    5.3892    4.7142    1.6328 H   0  0  0  0  0  0  0  0  0  0  0  0
    6.6087    1.1092    1.1846 H   0  0  0  0  0  0  0  0  0  0  0  0
    7.6449   -0.1531    3.0433 H   0  0  0  0  0  0  0  0  0  0  0  0
    7.7250    0.8150    5.3426 H   0  0  0  0  0  0  0  0  0  0  0  0
    6.7622    3.0861    5.7535 H   0  0  0  0  0  0  0  0  0  0  0  0
    5.7197    4.3460    3.8934 H   0  0  0  0  0  0  0  0  0  0  0  0
    3.8786    3.9493   -1.5277 H   0  0  0  0  0  0  0  0  0  0  0  0
    3.9071    5.0913   -3.1499 H   0  0  0  0  0  0  0  0  0  0  0  0
    2.9619    6.5234   -4.9097 H   0  0  0  0  0  0  0  0  0  0  0  0
    1.8773    8.6942   -4.3313 H   0  0  0  0  0  0  0  0  0  0  0  0
    1.7664    9.4274   -1.9473 H   0  0  0  0  0  0  0  0  0  0  0  0
    2.7465    7.9749   -0.1560 H   0  0  0  0  0  0  0  0  0  0  0  0
    2.8439   -1.9436    0.0847 H   0  0  0  0  0  0  0  0  0  0  0  0
    1.0190   -3.1282    1.2815 H   0  0  0  0  0  0  0  0  0  0  0  0
   -1.2555   -2.1094    1.4191 H   0  0  0  0  0  0  0  0  0  0  0  0
   -1.6861    0.1005    0.3429 H   0  0  0  0  0  0  0  0  0  0  0  0
    0.1205    1.2728   -0.8631 H   0  0  0  0  0  0  0  0  0  0  0  0
  1  2  2  0
  2  3  1  0
  2  4  1  0
  3 32  1  0
  4  5  1  0
  4 33  1  0
  4 34  1  0
  5  6  1  0
  5 26  1  0
  5 35  1  6
  6  7  1  0
  6 36  1  0
  7  8  2  0
  7  9  1  0
  9 10  2  0
  9 17  1  0
 10 11  1  0
 10 37  1  0
 11 12  2  0
 11 16  1  0
 12 13  1  0
 12 38  1  0
 13 14  2  0
 13 39  1  0
 14 15  1  0
 14 40  1  0
 15 16  2  0
 15 41  1  0
 16 42  1  0
 17 18  1  0
 17 43  1  0
 18 19  2  0
 18 20  1  0
 20 21  2  0
 20 25  1  0
 21 22  1  0
 21 44  1  0
 22 23  2  0
 22 45  1  0
 23 24  1  0
 23 46  1  0
 24 25  2  0
 24 47  1  0
 25 48  1  0
 26 27  2  0
 26 31  1  0
 27 28  1  0
 27 49  1  0
 28 29  2  0
 28 50  1  0
 29 30  1  0
 29 51  1  0
 30 31  2  0
 30 52  1  0
 31 53  1  0
M  END

