
     RDKit          3D

 46 50  0  0  0  0  0  0  0  0999 V2000
    0.5955   -0.0429   -0.2226 C   0  0  0  0  0  0  0  0  0  0  0  0
    2.1027    0.0274   -0.2713 C   0  0  0  0  0  0  0  0  0  0  0  0
    2.7987    0.0053   -1.4885 C   0  0  0  0  0  0  0  0  0  0  0  0
    4.1952    0.0548   -1.5217 C   0  0  0  0  0  0  0  0  0  0  0  0
    4.9433    0.1295   -0.3391 C   0  0  0  0  0  0  0  0  0  0  0  0
    6.4758    0.1851   -0.3736 C   0  0  2  0  0  0  0  0  0  0  0  0
    6.9741    1.4235   -1.1019 C   0  0  0  0  0  0  0  0  0  0  0  0
    7.5135    1.3524   -2.3514 C   0  0  0  0  0  0  0  0  0  0  0  0
    7.9275    2.5621   -3.1511 C   0  0  0  0  0  0  0  0  0  0  0  0
    8.2706    3.7478   -2.2457 C   0  0  0  0  0  0  0  0  0  0  0  0
    7.1714    3.9777   -1.2080 C   0  0  0  0  0  0  0  0  0  0  0  0
    6.8376    2.7205   -0.4107 C   0  0  0  0  0  0  0  0  0  0  0  0
    6.4485    2.7887    0.7434 O   0  0  0  0  0  0  0  0  0  0  0  0
    7.7040    0.1249   -2.9652 N   0  0  0  0  0  0  0  0  0  0  0  0
    7.5838   -1.0664   -2.2719 C   0  0  0  0  0  0  0  0  0  0  0  0
    7.0584   -1.0656   -1.0058 C   0  0  0  0  0  0  0  0  0  0  0  0
    7.0247   -2.2876   -0.2119 C   0  0  0  0  0  0  0  0  0  0  0  0
    6.6459   -2.3797    0.9264 O   0  0  0  0  0  0  0  0  0  0  0  0
    7.4853   -3.4485   -0.8346 O   0  0  0  0  0  0  0  0  0  0  0  0
    7.9564   -3.4747   -2.1012 C   0  0  0  0  0  0  0  0  0  0  0  0
    8.3673   -4.7153   -2.6068 C   0  0  0  0  0  0  0  0  0  0  0  0
    8.8654   -4.8006   -3.9027 C   0  0  0  0  0  0  0  0  0  0  0  0
    8.9562   -3.6516   -4.7038 C   0  0  0  0  0  0  0  0  0  0  0  0
    8.5484   -2.4221   -4.1979 C   0  0  0  0  0  0  0  0  0  0  0  0
    8.0419   -2.3056   -2.8871 C   0  0  0  0  0  0  0  0  0  0  0  0
    4.2511    0.1533    0.8793 C   0  0  0  0  0  0  0  0  0  0  0  0
    2.8577    0.1040    0.9110 C   0  0  0  0  0  0  0  0  0  0  0  0
    0.1518    0.0582   -1.2244 H   0  0  0  0  0  0  0  0  0  0  0  0
    0.1755    0.7515    0.4159 H   0  0  0  0  0  0  0  0  0  0  0  0
    0.2537   -1.0049    0.1970 H   0  0  0  0  0  0  0  0  0  0  0  0
    2.2394   -0.0523   -2.4272 H   0  0  0  0  0  0  0  0  0  0  0  0
    4.7055    0.0346   -2.4892 H   0  0  0  0  0  0  0  0  0  0  0  0
    6.8097    0.2396    0.6727 H   0  0  0  0  0  0  0  0  0  0  0  0
    7.1000    2.8339   -3.8344 H   0  0  0  0  0  0  0  0  0  0  0  0
    8.7870    2.3068   -3.7958 H   0  0  0  0  0  0  0  0  0  0  0  0
    8.4287    4.6521   -2.8545 H   0  0  0  0  0  0  0  0  0  0  0  0
    9.2236    3.5408   -1.7292 H   0  0  0  0  0  0  0  0  0  0  0  0
    6.2375    4.2963   -1.7092 H   0  0  0  0  0  0  0  0  0  0  0  0
    7.4313    4.7707   -0.4916 H   0  0  0  0  0  0  0  0  0  0  0  0
    8.1711    0.1153   -3.8615 H   0  0  0  0  0  0  0  0  0  0  0  0
    8.2838   -5.5907   -1.9606 H   0  0  0  0  0  0  0  0  0  0  0  0
    9.1851   -5.7684   -4.2963 H   0  0  0  0  0  0  0  0  0  0  0  0
    9.3433   -3.7205   -5.7225 H   0  0  0  0  0  0  0  0  0  0  0  0
    8.6185   -1.5434   -4.8443 H   0  0  0  0  0  0  0  0  0  0  0  0
    4.8156    0.2146    1.8120 H   0  0  0  0  0  0  0  0  0  0  0  0
    2.3434    0.1258    1.8767 H   0  0  0  0  0  0  0  0  0  0  0  0
  1  2  1  0
  1 28  1  0
  1 29  1  0
  1 30  1  0
  2  3  2  0
  2 27  1  0
  3  4  1  0
  3 31  1  0
  4  5  2  0
  4 32  1  0
  5  6  1  0
  5 26  1  0
  6  7  1  0
  6 16  1  0
  6 33  1  1
  7  8  2  0
  7 12  1  0
  8  9  1  0
  8 14  1  0
  9 10  1  0
  9 34  1  0
  9 35  1  0
 10 11  1  0
 10 36  1  0
 10 37  1  0
 11 12  1  0
 11 38  1  0
 11 39  1  0
 12 13  2  0
 14 15  1  0
 14 40  1  0
 15 16  2  0
 15 25  1  0
 16 17  1  0
 17 18  2  0
 17 19  1  0
 19 20  1  0
 20 21  1  0
 20 25  2  0
 21 22  2  0
 21 41  1  0
 22 23  1  0
 22 42  1  0
 23 24  2  0
 23 43  1  0
 24 25  1  0
 24 44  1  0
 26 27  2  0
 26 45  1  0
 27 46  1  0
M  END

