
     RDKit          3D

 50 54  0  0  0  0  0  0  0  0999 V2000
    3.2418   -3.7832    0.1987 C   0  0  0  0  0  0  0  0  0  0  0  0
    3.8041   -2.5096   -0.0377 O   0  0  0  0  0  0  0  0  0  0  0  0
    4.1546   -2.1519   -1.2928 C   0  0  0  0  0  0  0  0  0  0  0  0
    3.9920   -2.9795   -2.4264 C   0  0  0  0  0  0  0  0  0  0  0  0
    4.3853   -2.5156   -3.6765 C   0  0  0  0  0  0  0  0  0  0  0  0
    4.9469   -1.2352   -3.8412 C   0  0  0  0  0  0  0  0  0  0  0  0
    5.3784   -0.6902   -5.0956 C   0  0  0  0  0  0  0  0  0  0  0  0
    5.9187    0.5627   -5.2036 C   0  0  0  0  0  0  0  0  0  0  0  0
    6.3930    1.0948   -6.5064 C   0  0  0  0  0  0  0  0  0  0  0  0
    6.2939    2.4580   -6.8457 C   0  0  0  0  0  0  0  0  0  0  0  0
    6.6875    2.8921   -8.1125 C   0  0  0  0  0  0  0  0  0  0  0  0
    7.1884    1.9927   -9.0533 C   0  0  0  0  0  0  0  0  0  0  0  0
    7.3235    0.6276   -8.7341 C   0  0  0  0  0  0  0  0  0  0  0  0
    7.8991   -0.3205   -9.7203 C   0  0  0  0  0  0  0  0  0  0  0  0
    8.8813    0.0493  -10.5978 C   0  0  0  0  0  0  0  0  0  0  0  0
    9.4119   -0.8462  -11.5848 C   0  0  0  0  0  0  0  0  0  0  0  0
   10.4225   -0.5157  -12.5074 C   0  0  0  0  0  0  0  0  0  0  0  0
   10.8858   -1.4386  -13.4380 C   0  0  0  0  0  0  0  0  0  0  0  0
   10.3359   -2.7400  -13.4627 C   0  0  0  0  0  0  0  0  0  0  0  0
   10.7167   -3.7063  -14.3260 O   0  0  0  0  0  0  0  0  0  0  0  0
   11.7251   -3.4407  -15.2787 C   0  0  0  0  0  0  0  0  0  0  0  0
    9.3304   -3.0960  -12.5516 C   0  0  0  0  0  0  0  0  0  0  0  0
    8.8828   -2.1555  -11.6296 C   0  0  0  0  0  0  0  0  0  0  0  0
    7.9150   -2.5290  -10.7567 O   0  0  0  0  0  0  0  0  0  0  0  0
    7.3803   -1.7058   -9.7749 C   0  0  0  0  0  0  0  0  0  0  0  0
    6.5441   -2.1919   -9.0569 O   0  0  0  0  0  0  0  0  0  0  0  0
    6.9228    0.2038   -7.4563 C   0  0  0  0  0  0  0  0  0  0  0  0
    6.0397    1.3965   -3.9889 C   0  0  0  0  0  0  0  0  0  0  0  0
    6.4620    2.5220   -3.9264 O   0  0  0  0  0  0  0  0  0  0  0  0
    5.6224    0.8167   -2.7962 O   0  0  0  0  0  0  0  0  0  0  0  0
    5.0954   -0.4276   -2.6913 C   0  0  0  0  0  0  0  0  0  0  0  0
    4.7089   -0.8706   -1.4304 C   0  0  0  0  0  0  0  0  0  0  0  0
    3.0453   -3.8396    1.2774 H   0  0  0  0  0  0  0  0  0  0  0  0
    3.9352   -4.5958   -0.0820 H   0  0  0  0  0  0  0  0  0  0  0  0
    2.2907   -3.9194   -0.3458 H   0  0  0  0  0  0  0  0  0  0  0  0
    3.5625   -3.9763   -2.3352 H   0  0  0  0  0  0  0  0  0  0  0  0
    4.2611   -3.1542   -4.5549 H   0  0  0  0  0  0  0  0  0  0  0  0
    5.2531   -1.3024   -5.9930 H   0  0  0  0  0  0  0  0  0  0  0  0
    5.9036    3.1697   -6.1202 H   0  0  0  0  0  0  0  0  0  0  0  0
    6.5866    3.9484   -8.3746 H   0  0  0  0  0  0  0  0  0  0  0  0
    7.4580    2.3491  -10.0503 H   0  0  0  0  0  0  0  0  0  0  0  0
    9.2973    1.0590  -10.5454 H   0  0  0  0  0  0  0  0  0  0  0  0
   10.8476    0.4912  -12.4875 H   0  0  0  0  0  0  0  0  0  0  0  0
   11.6683   -1.1481  -14.1378 H   0  0  0  0  0  0  0  0  0  0  0  0
   11.8569   -4.3653  -15.8560 H   0  0  0  0  0  0  0  0  0  0  0  0
   12.6843   -3.1789  -14.7979 H   0  0  0  0  0  0  0  0  0  0  0  0
   11.4346   -2.6274  -15.9670 H   0  0  0  0  0  0  0  0  0  0  0  0
    8.9072   -4.1003  -12.5672 H   0  0  0  0  0  0  0  0  0  0  0  0
    7.0426   -0.8449   -7.1942 H   0  0  0  0  0  0  0  0  0  0  0  0
    4.8325   -0.2303   -0.5570 H   0  0  0  0  0  0  0  0  0  0  0  0
  1  2  1  0
  1 33  1  0
  1 34  1  0
  1 35  1  0
  2  3  1  0
  3  4  2  0
  3 32  1  0
  4  5  1  0
  4 36  1  0
  5  6  2  0
  5 37  1  0
  6  7  1  0
  6 31  1  0
  7  8  2  0
  7 38  1  0
  8  9  1  0
  8 28  1  0
  9 10  2  0
  9 27  1  0
 10 11  1  0
 10 39  1  0
 11 12  2  0
 11 40  1  0
 12 13  1  0
 12 41  1  0
 13 14  1  0
 13 27  2  0
 14 15  2  0
 14 25  1  0
 15 16  1  0
 15 42  1  0
 16 17  2  0
 16 23  1  0
 17 18  1  0
 17 43  1  0
 18 19  2  0
 18 44  1  0
 19 20  1  0
 19 22  1  0
 20 21  1  0
 21 45  1  0
 21 46  1  0
 21 47  1  0
 22 23  2  0
 22 48  1  0
 23 24  1  0
 24 25  1  0
 25 26  2  0
 27 49  1  0
 28 29  2  0
 28 30  1  0
 30 31  1  0
 31 32  2  0
 32 50  1  0
M  END

