
     RDKit          3D

 65 67  0  0  0  0  0  0  0  0999 V2000
    3.5299    4.0278   -0.2935 C   0  0  0  0  0  0  0  0  0  0  0  0
    4.2912    2.8124   -0.7656 C   0  0  0  0  0  0  0  0  0  0  0  0
    4.1719    2.3545   -2.0912 C   0  0  0  0  0  0  0  0  0  0  0  0
    4.8700    1.2393   -2.5417 C   0  0  0  0  0  0  0  0  0  0  0  0
    5.7222    0.5385   -1.6731 C   0  0  0  0  0  0  0  0  0  0  0  0
    6.3375   -0.5587   -2.2043 O   0  0  0  0  0  0  0  0  0  0  0  0
    7.1841   -1.3510   -1.4248 C   0  0  0  0  0  0  0  0  0  0  0  0
    8.5855   -0.7304   -1.2747 C   0  0  0  0  0  0  0  0  0  0  0  0
    8.8344    0.3669   -1.7406 O   0  0  0  0  0  0  0  0  0  0  0  0
    9.5259   -1.4808   -0.5945 N   0  0  0  0  0  0  0  0  0  0  0  0
    9.2201   -2.7744    0.0170 C   0  0  0  0  0  0  0  0  0  0  0  0
    9.1137   -3.9523   -0.9422 C   0  0  0  0  0  0  0  0  0  0  0  0
    9.6863   -3.9461   -2.2207 C   0  0  0  0  0  0  0  0  0  0  0  0
    9.6032   -5.0687   -3.0458 C   0  0  0  0  0  0  0  0  0  0  0  0
    8.9492   -6.2250   -2.6105 C   0  0  0  0  0  0  0  0  0  0  0  0
    8.8607   -7.6078   -3.6627 Cl  0  0  0  0  0  0  0  0  0  0  0  0
    8.3705   -6.2426   -1.3298 C   0  0  0  0  0  0  0  0  0  0  0  0
    7.5373   -7.6524   -0.7406 Cl  0  0  0  0  0  0  0  0  0  0  0  0
    8.4547   -5.1116   -0.5131 C   0  0  0  0  0  0  0  0  0  0  0  0
   10.8306   -0.8335   -0.3765 C   0  0  1  0  0  0  0  0  0  0  0  0
   10.8993    0.0034    0.9374 C   0  0  0  0  0  0  0  0  0  0  0  0
   10.3532   -0.6153    2.2081 C   0  0  0  0  0  0  0  0  0  0  0  0
   11.1206   -1.4771    3.0100 C   0  0  0  0  0  0  0  0  0  0  0  0
   10.5890   -2.0280    4.1788 C   0  0  0  0  0  0  0  0  0  0  0  0
    9.2801   -1.7287    4.5713 C   0  0  0  0  0  0  0  0  0  0  0  0
    8.5083   -0.8654    3.7892 C   0  0  0  0  0  0  0  0  0  0  0  0
    9.0450   -0.3125    2.6219 C   0  0  0  0  0  0  0  0  0  0  0  0
   11.9978   -1.8255   -0.5054 C   0  0  0  0  0  0  0  0  0  0  0  0
   12.2311   -2.6862    0.3339 O   0  0  0  0  0  0  0  0  0  0  0  0
   12.7621   -1.6499   -1.6194 N   0  0  0  0  0  0  0  0  0  0  0  0
   13.9554   -2.4428   -1.9197 C   0  0  1  0  0  0  0  0  0  0  0  0
   13.7673   -3.2457   -3.2111 C   0  0  0  0  0  0  0  0  0  0  0  0
   15.1983   -1.5479   -1.9642 C   0  0  0  0  0  0  0  0  0  0  0  0
    5.8594    0.9776   -0.3519 C   0  0  0  0  0  0  0  0  0  0  0  0
    5.1450    2.1010    0.0842 C   0  0  0  0  0  0  0  0  0  0  0  0
    3.8231    4.9318   -0.8543 H   0  0  0  0  0  0  0  0  0  0  0  0
    3.7091    4.2266    0.7738 H   0  0  0  0  0  0  0  0  0  0  0  0
    2.4425    3.9039   -0.4325 H   0  0  0  0  0  0  0  0  0  0  0  0
    3.5142    2.8849   -2.7866 H   0  0  0  0  0  0  0  0  0  0  0  0
    4.7737    0.8850   -3.5701 H   0  0  0  0  0  0  0  0  0  0  0  0
    7.2678   -2.3164   -1.9455 H   0  0  0  0  0  0  0  0  0  0  0  0
    6.7514   -1.5619   -0.4292 H   0  0  0  0  0  0  0  0  0  0  0  0
    8.2991   -2.7062    0.6176 H   0  0  0  0  0  0  0  0  0  0  0  0
   10.0285   -2.9908    0.7286 H   0  0  0  0  0  0  0  0  0  0  0  0
   10.2027   -3.0550   -2.5812 H   0  0  0  0  0  0  0  0  0  0  0  0
   10.0465   -5.0601   -4.0431 H   0  0  0  0  0  0  0  0  0  0  0  0
    7.9927   -5.1518    0.4760 H   0  0  0  0  0  0  0  0  0  0  0  0
   10.9083   -0.1007   -1.1897 H   0  0  0  0  0  0  0  0  0  0  0  0
   10.3347    0.9256    0.7323 H   0  0  0  0  0  0  0  0  0  0  0  0
   11.9502    0.3040    1.0827 H   0  0  0  0  0  0  0  0  0  0  0  0
   12.1351   -1.7343    2.7014 H   0  0  0  0  0  0  0  0  0  0  0  0
   11.2028   -2.6966    4.7881 H   0  0  0  0  0  0  0  0  0  0  0  0
    8.8673   -2.1598    5.4871 H   0  0  0  0  0  0  0  0  0  0  0  0
    7.4891   -0.6119    4.0928 H   0  0  0  0  0  0  0  0  0  0  0  0
    8.4436    0.3821    2.0276 H   0  0  0  0  0  0  0  0  0  0  0  0
   12.5118   -0.9068   -2.2631 H   0  0  0  0  0  0  0  0  0  0  0  0
   14.0444   -3.1413   -1.0746 H   0  0  0  0  0  0  0  0  0  0  0  0
   13.6222   -2.5787   -4.0787 H   0  0  0  0  0  0  0  0  0  0  0  0
   12.8940   -3.9110   -3.1367 H   0  0  0  0  0  0  0  0  0  0  0  0
   14.6539   -3.8667   -3.4141 H   0  0  0  0  0  0  0  0  0  0  0  0
   15.1259   -0.8034   -2.7761 H   0  0  0  0  0  0  0  0  0  0  0  0
   16.1033   -2.1487   -2.1452 H   0  0  0  0  0  0  0  0  0  0  0  0
   15.3303   -1.0073   -1.0146 H   0  0  0  0  0  0  0  0  0  0  0  0
    6.5234    0.4691    0.3474 H   0  0  0  0  0  0  0  0  0  0  0  0
    5.2675    2.4305    1.1202 H   0  0  0  0  0  0  0  0  0  0  0  0
  1  2  1  0
  1 36  1  0
  1 37  1  0
  1 38  1  0
  2  3  2  0
  2 35  1  0
  3  4  1  0
  3 39  1  0
  4  5  2  0
  4 40  1  0
  5  6  1  0
  5 34  1  0
  6  7  1  0
  7  8  1  0
  7 41  1  0
  7 42  1  0
  8  9  2  0
  8 10  1  0
 10 11  1  0
 10 20  1  0
 11 12  1  0
 11 43  1  0
 11 44  1  0
 12 13  2  0
 12 19  1  0
 13 14  1  0
 13 45  1  0
 14 15  2  0
 14 46  1  0
 15 16  1  0
 15 17  1  0
 17 18  1  0
 17 19  2  0
 19 47  1  0
 20 21  1  0
 20 28  1  0
 20 48  1  6
 21 22  1  0
 21 49  1  0
 21 50  1  0
 22 23  2  0
 22 27  1  0
 23 24  1  0
 23 51  1  0
 24 25  2  0
 24 52  1  0
 25 26  1  0
 25 53  1  0
 26 27  2  0
 26 54  1  0
 27 55  1  0
 28 29  2  0
 28 30  1  0
 30 31  1  0
 30 56  1  0
 31 32  1  0
 31 33  1  0
 31 57  1  1
 32 58  1  0
 32 59  1  0
 32 60  1  0
 33 61  1  0
 33 62  1  0
 33 63  1  0
 34 35  2  0
 34 64  1  0
 35 65  1  0
M  END

