
     RDKit          3D

 58 60  0  0  0  0  0  0  0  0999 V2000
   10.1242    5.8126   -0.3290 C   0  0  0  0  0  0  0  0  0  0  0  0
    9.4707    4.5539   -0.4757 O   0  0  0  0  0  0  0  0  0  0  0  0
    9.2201    3.8813    0.6625 C   0  0  0  0  0  0  0  0  0  0  0  0
    9.5232    4.3038    1.7639 O   0  0  0  0  0  0  0  0  0  0  0  0
    8.5467    2.5977    0.4670 C   0  0  0  0  0  0  0  0  0  0  0  0
    8.2678    1.8790    1.6156 N   0  0  0  0  0  0  0  0  0  0  0  0
    8.4829    2.2451    2.5369 H   0  0  0  0  0  0  0  0  0  0  0  0
    7.6524    0.7088    1.3182 C   0  0  0  0  0  0  0  0  0  0  0  0
    7.2060   -0.2093    2.4136 C   0  0  0  0  0  0  0  0  0  0  0  0
    7.5186    0.6568   -0.0792 C   0  0  0  0  0  0  0  0  0  0  0  0
    6.8643   -0.3764   -0.9285 C   0  0  0  0  0  0  0  0  0  0  0  0
    6.1333   -0.0517   -1.8414 O   0  0  0  0  0  0  0  0  0  0  0  0
    7.0909   -1.8869   -0.6404 C   0  0  1  0  0  0  0  0  0  0  0  0
    6.4940   -2.1174    0.2596 H   0  0  0  0  0  0  0  0  0  0  0  0
    6.5611   -2.7370   -1.7989 C   0  0  0  0  0  0  0  0  0  0  0  0
    8.4884   -2.1798   -0.2666 N   0  0  0  0  0  0  0  0  0  0  0  0
    8.7184   -3.1779    0.7878 C   0  0  0  0  0  0  0  0  0  0  0  0
    8.2335   -4.5624    0.4891 C   0  0  0  0  0  0  0  0  0  0  0  0
    8.8094   -5.6522   -0.1067 C   0  0  0  0  0  0  0  0  0  0  0  0
    7.8139   -6.6843   -0.1176 C   0  0  0  0  0  0  0  0  0  0  0  0
    6.7079   -6.1455    0.4751 C   0  0  0  0  0  0  0  0  0  0  0  0
    6.9520   -4.8636    0.8486 O   0  0  0  0  0  0  0  0  0  0  0  0
    9.4724   -1.7165   -1.1117 C   0  0  0  0  0  0  0  0  0  0  0  0
    9.1889   -1.1246   -2.1458 O   0  0  0  0  0  0  0  0  0  0  0  0
   10.9245   -1.9047   -0.7426 C   0  0  0  0  0  0  0  0  0  0  0  0
   11.4492   -1.4847    0.4859 C   0  0  0  0  0  0  0  0  0  0  0  0
   12.8278   -1.5811    0.7160 C   0  0  0  0  0  0  0  0  0  0  0  0
   13.6763   -2.0964   -0.2582 C   0  0  0  0  0  0  0  0  0  0  0  0
   13.1551   -2.5065   -1.4997 C   0  0  0  0  0  0  0  0  0  0  0  0
   14.0535   -2.9839   -2.3949 O   0  0  0  0  0  0  0  0  0  0  0  0
   13.6120   -3.3751   -3.6771 C   0  0  0  0  0  0  0  0  0  0  0  0
   11.7796   -2.3971   -1.7427 C   0  0  0  0  0  0  0  0  0  0  0  0
    8.0767    1.8644   -0.6219 C   0  0  0  0  0  0  0  0  0  0  0  0
    8.1538    2.2090   -2.0774 C   0  0  0  0  0  0  0  0  0  0  0  0
   10.2442    6.2131   -1.3433 H   0  0  0  0  0  0  0  0  0  0  0  0
   11.1069    5.6926    0.1521 H   0  0  0  0  0  0  0  0  0  0  0  0
    9.5213    6.5002    0.2835 H   0  0  0  0  0  0  0  0  0  0  0  0
    6.7864    0.3646    3.2558 H   0  0  0  0  0  0  0  0  0  0  0  0
    8.0381   -0.8129    2.8156 H   0  0  0  0  0  0  0  0  0  0  0  0
    6.4259   -0.8998    2.0693 H   0  0  0  0  0  0  0  0  0  0  0  0
    5.5063   -2.4929   -1.9832 H   0  0  0  0  0  0  0  0  0  0  0  0
    6.6436   -3.8082   -1.5711 H   0  0  0  0  0  0  0  0  0  0  0  0
    7.1220   -2.5122   -2.7153 H   0  0  0  0  0  0  0  0  0  0  0  0
    8.2314   -2.8380    1.7156 H   0  0  0  0  0  0  0  0  0  0  0  0
    9.7938   -3.2296    0.9835 H   0  0  0  0  0  0  0  0  0  0  0  0
    9.8252   -5.7082   -0.4929 H   0  0  0  0  0  0  0  0  0  0  0  0
    7.9116   -7.6946   -0.5093 H   0  0  0  0  0  0  0  0  0  0  0  0
    5.7182   -6.5323    0.7032 H   0  0  0  0  0  0  0  0  0  0  0  0
   10.7945   -1.0565    1.2477 H   0  0  0  0  0  0  0  0  0  0  0  0
   13.2445   -1.2424    1.6680 H   0  0  0  0  0  0  0  0  0  0  0  0
   14.7522   -2.1821   -0.0937 H   0  0  0  0  0  0  0  0  0  0  0  0
   14.5025   -3.7116   -4.2244 H   0  0  0  0  0  0  0  0  0  0  0  0
   13.1489   -2.5358   -4.2258 H   0  0  0  0  0  0  0  0  0  0  0  0
   12.8875   -4.2079   -3.6260 H   0  0  0  0  0  0  0  0  0  0  0  0
   11.3477   -2.6661   -2.7059 H   0  0  0  0  0  0  0  0  0  0  0  0
    7.1439    2.3360   -2.4959 H   0  0  0  0  0  0  0  0  0  0  0  0
    8.6209    1.3803   -2.6324 H   0  0  0  0  0  0  0  0  0  0  0  0
    8.7308    3.1268   -2.2376 H   0  0  0  0  0  0  0  0  0  0  0  0
  1  2  1  0
  1 35  1  0
  1 36  1  0
  1 37  1  0
  2  3  1  0
  3  4  2  0
  3  5  1  0
  5  6  1  0
  5 33  2  0
  6  7  1  0
  6  8  1  0
  8  9  1  0
  8 10  2  0
  9 38  1  0
  9 39  1  0
  9 40  1  0
 10 11  1  0
 10 33  1  0
 11 12  2  0
 11 13  1  0
 13 14  1  1
 13 15  1  0
 13 16  1  0
 15 41  1  0
 15 42  1  0
 15 43  1  0
 16 17  1  0
 16 23  1  0
 17 18  1  0
 17 44  1  0
 17 45  1  0
 18 19  2  0
 18 22  1  0
 19 20  1  0
 19 46  1  0
 20 21  2  0
 20 47  1  0
 21 22  1  0
 21 48  1  0
 23 24  2  0
 23 25  1  0
 25 26  2  0
 25 32  1  0
 26 27  1  0
 26 49  1  0
 27 28  2  0
 27 50  1  0
 28 29  1  0
 28 51  1  0
 29 30  1  0
 29 32  2  0
 30 31  1  0
 31 52  1  0
 31 53  1  0
 31 54  1  0
 32 55  1  0
 33 34  1  0
 34 56  1  0
 34 57  1  0
 34 58  1  0
M  END

