
     RDKit          3D

 40 41  0  0  0  0  0  0  0  0999 V2000
   -0.3790    1.6183   -7.1347 C   0  0  0  0  0  0  0  0  0  0  0  0
    0.9340    1.4204   -7.6101 O   0  0  0  0  0  0  0  0  0  0  0  0
    1.7957    0.6887   -6.8693 C   0  0  0  0  0  0  0  0  0  0  0  0
    1.5127    0.0913   -5.6320 C   0  0  0  0  0  0  0  0  0  0  0  0
    2.4908   -0.6435   -4.9535 C   0  0  0  0  0  0  0  0  0  0  0  0
    3.7745   -0.8070   -5.4890 C   0  0  0  0  0  0  0  0  0  0  0  0
    4.8204   -1.6167   -4.7490 C   0  0  0  0  0  0  0  0  0  0  0  0
    4.5498   -3.0598   -4.7307 N   0  0  0  0  0  0  0  0  0  0  0  0
    4.8475   -3.8108   -5.9399 C   0  0  0  0  0  0  0  0  0  0  0  0
    4.0237   -5.0796   -6.1204 C   0  0  0  0  0  0  0  0  0  0  0  0
    3.8683   -5.5869   -7.2148 O   0  0  0  0  0  0  0  0  0  0  0  0
    3.4993   -5.5837   -4.9696 N   0  0  0  0  0  0  0  0  0  0  0  0
    3.9083   -5.1663   -3.6326 C   0  0  2  0  0  0  0  0  0  0  0  0
    2.9556   -5.6930   -2.5285 C   0  0  1  0  0  0  0  0  0  0  0  0
    2.4686   -7.1257   -2.7952 C   0  0  0  0  0  0  0  0  0  0  0  0
    3.6366   -5.6223   -1.1539 C   0  0  0  0  0  0  0  0  0  0  0  0
    4.0439   -3.6278   -3.5971 C   0  0  0  0  0  0  0  0  0  0  0  0
    3.7442   -2.9721   -2.6092 O   0  0  0  0  0  0  0  0  0  0  0  0
    4.0616   -0.2091   -6.7273 C   0  0  0  0  0  0  0  0  0  0  0  0
    3.0915    0.5226   -7.3966 C   0  0  0  0  0  0  0  0  0  0  0  0
    3.3814    1.0896   -8.5740 F   0  0  0  0  0  0  0  0  0  0  0  0
   -0.8942    2.2283   -7.8885 H   0  0  0  0  0  0  0  0  0  0  0  0
   -0.3897    2.1566   -6.1697 H   0  0  0  0  0  0  0  0  0  0  0  0
   -0.9208    0.6627   -7.0156 H   0  0  0  0  0  0  0  0  0  0  0  0
    0.5241    0.2017   -5.1858 H   0  0  0  0  0  0  0  0  0  0  0  0
    2.2533   -1.0939   -3.9868 H   0  0  0  0  0  0  0  0  0  0  0  0
    4.8723   -1.2997   -3.6993 H   0  0  0  0  0  0  0  0  0  0  0  0
    5.8113   -1.4603   -5.2059 H   0  0  0  0  0  0  0  0  0  0  0  0
    5.9193   -4.0907   -5.9927 H   0  0  0  0  0  0  0  0  0  0  0  0
    4.6401   -3.1842   -6.8195 H   0  0  0  0  0  0  0  0  0  0  0  0
    3.0365   -6.4807   -5.0754 H   0  0  0  0  0  0  0  0  0  0  0  0
    4.9217   -5.5679   -3.4107 H   0  0  0  0  0  0  0  0  0  0  0  0
    2.0777   -5.0254   -2.5128 H   0  0  0  0  0  0  0  0  0  0  0  0
    3.3111   -7.8290   -2.9149 H   0  0  0  0  0  0  0  0  0  0  0  0
    1.8195   -7.2049   -3.6821 H   0  0  0  0  0  0  0  0  0  0  0  0
    1.8702   -7.4789   -1.9414 H   0  0  0  0  0  0  0  0  0  0  0  0
    4.5024   -6.3063   -1.1109 H   0  0  0  0  0  0  0  0  0  0  0  0
    2.9342   -5.9285   -0.3627 H   0  0  0  0  0  0  0  0  0  0  0  0
    3.9787   -4.6038   -0.9337 H   0  0  0  0  0  0  0  0  0  0  0  0
    5.0485   -0.2945   -7.1892 H   0  0  0  0  0  0  0  0  0  0  0  0
  1  2  1  0
  1 22  1  0
  1 23  1  0
  1 24  1  0
  2  3  1  0
  3  4  2  0
  3 20  1  0
  4  5  1  0
  4 25  1  0
  5  6  2  0
  5 26  1  0
  6  7  1  0
  6 19  1  0
  7  8  1  0
  7 27  1  0
  7 28  1  0
  8  9  1  0
  8 17  1  0
  9 10  1  0
  9 29  1  0
  9 30  1  0
 10 11  2  0
 10 12  1  0
 12 13  1  0
 12 31  1  0
 13 14  1  0
 13 17  1  0
 13 32  1  1
 14 15  1  0
 14 16  1  0
 14 33  1  1
 15 34  1  0
 15 35  1  0
 15 36  1  0
 16 37  1  0
 16 38  1  0
 16 39  1  0
 17 18  2  0
 19 20  2  0
 19 40  1  0
 20 21  1  0
M  END

