
     RDKit          3D

 30 32  0  0  0  0  0  0  0  0999 V2000
    1.0628    0.2085    0.2487 N   0  0  0  0  0  0  0  0  0  0  0  0
    2.3191    0.0789    0.1146 C   0  0  0  0  0  0  0  0  0  0  0  0
    3.1240    1.2058    0.1705 O   0  0  0  0  0  0  0  0  0  0  0  0
    4.4765    1.1852    0.0318 C   0  0  0  0  0  0  0  0  0  0  0  0
    5.1658    2.3980    0.1042 C   0  0  0  0  0  0  0  0  0  0  0  0
    6.5533    2.3977   -0.0418 C   0  0  0  0  0  0  0  0  0  0  0  0
    7.2505    1.1990   -0.2599 C   0  0  0  0  0  0  0  0  0  0  0  0
    6.5536   -0.0038   -0.3309 C   0  0  0  0  0  0  0  0  0  0  0  0
    5.1528   -0.0308   -0.1836 C   0  0  0  0  0  0  0  0  0  0  0  0
    4.3553   -1.2318   -0.2408 C   0  0  0  0  0  0  0  0  0  0  0  0
    2.9993   -1.2182   -0.0972 C   0  0  0  0  0  0  0  0  0  0  0  0
    2.2133   -2.4780   -0.1363 C   0  0  0  0  0  0  0  0  0  0  0  0
    2.7500   -3.6505    0.4366 C   0  0  0  0  0  0  0  0  0  0  0  0
    2.0712   -4.8644    0.3748 C   0  0  0  0  0  0  0  0  0  0  0  0
    0.8341   -4.9075   -0.2680 C   0  0  0  0  0  0  0  0  0  0  0  0
    0.1064   -6.1900   -0.3399 N   0  0  0  0  0  0  0  0  0  0  0  0
    0.6344   -7.1683    0.1657 O   0  0  0  0  0  0  0  0  0  0  0  0
   -0.9769   -6.1948   -0.9022 O   0  0  0  0  0  0  0  0  0  0  0  0
    0.2656   -3.7669   -0.8361 C   0  0  0  0  0  0  0  0  0  0  0  0
    0.9518   -2.5573   -0.7621 C   0  0  0  0  0  0  0  0  0  0  0  0
    0.8136    1.1918    0.3895 H   0  0  0  0  0  0  0  0  0  0  0  0
    4.6042    3.3186    0.2724 H   0  0  0  0  0  0  0  0  0  0  0  0
    7.0986    3.3428    0.0143 H   0  0  0  0  0  0  0  0  0  0  0  0
    8.3365    1.2106   -0.3740 H   0  0  0  0  0  0  0  0  0  0  0  0
    7.0855   -0.9437   -0.5008 H   0  0  0  0  0  0  0  0  0  0  0  0
    4.8701   -2.1773   -0.4275 H   0  0  0  0  0  0  0  0  0  0  0  0
    3.7045   -3.6059    0.9646 H   0  0  0  0  0  0  0  0  0  0  0  0
    2.4746   -5.7723    0.8220 H   0  0  0  0  0  0  0  0  0  0  0  0
   -0.7048   -3.8422   -1.3258 H   0  0  0  0  0  0  0  0  0  0  0  0
    0.5071   -1.6581   -1.1832 H   0  0  0  0  0  0  0  0  0  0  0  0
  1  2  2  0
  1 21  1  0
  2  3  1  0
  2 11  1  0
  3  4  1  0
  4  5  2  0
  4  9  1  0
  5  6  1  0
  5 22  1  0
  6  7  2  0
  6 23  1  0
  7  8  1  0
  7 24  1  0
  8  9  2  0
  8 25  1  0
  9 10  1  0
 10 11  2  0
 10 26  1  0
 11 12  1  0
 12 13  2  0
 12 20  1  0
 13 14  1  0
 13 27  1  0
 14 15  2  0
 14 28  1  0
 15 16  1  0
 15 19  1  0
 16 17  2  0
 16 18  1  0
 19 20  2  0
 19 29  1  0
 20 30  1  0
M  CHG  2  16   1  18  -1
M  END

