
     RDKit          3D

 40 41  0  0  0  0  0  0  0  0999 V2000
    7.6869   -5.3120    0.5998 C   0  0  0  0  0  0  0  0  0  0  0  0
    7.5318   -3.8237    0.3518 C   0  0  0  0  0  0  0  0  0  0  0  0
    6.1696   -3.5596    0.0603 O   0  0  0  0  0  0  0  0  0  0  0  0
    5.7674   -2.2785   -0.2063 C   0  0  0  0  0  0  0  0  0  0  0  0
    6.6041   -1.1647   -0.2154 C   0  0  0  0  0  0  0  0  0  0  0  0
    6.0867    0.1072   -0.5120 C   0  0  0  0  0  0  0  0  0  0  0  0
    4.7333    0.2472   -0.8015 C   0  0  0  0  0  0  0  0  0  0  0  0
    3.8862   -0.8698   -0.7961 C   0  0  0  0  0  0  0  0  0  0  0  0
    4.3763   -2.1488   -0.4918 C   0  0  0  0  0  0  0  0  0  0  0  0
    3.5988   -3.2948   -0.4133 N   0  0  0  0  0  0  0  0  0  0  0  0
    2.2965   -3.4437   -1.0389 C   0  0  1  0  0  0  0  0  0  0  0  0
    2.3969   -3.5808   -2.5802 C   0  0  0  0  0  0  0  0  0  0  0  0
    3.1640   -4.8115   -3.0653 C   0  0  0  0  0  0  0  0  0  0  0  0
    1.5021   -4.5611   -0.3523 C   0  0  0  0  0  0  0  0  0  0  0  0
    1.8334   -4.9935    0.9418 C   0  0  0  0  0  0  0  0  0  0  0  0
    1.0857   -5.9741    1.5999 C   0  0  0  0  0  0  0  0  0  0  0  0
   -0.0195   -6.5376    0.9612 C   0  0  0  0  0  0  0  0  0  0  0  0
   -1.0474   -7.8804    1.8466 Br  0  0  0  0  0  0  0  0  0  0  0  0
   -0.3791   -6.1240   -0.3234 C   0  0  0  0  0  0  0  0  0  0  0  0
    0.3810   -5.1447   -0.9667 C   0  0  0  0  0  0  0  0  0  0  0  0
    8.7359   -5.5511    0.8331 H   0  0  0  0  0  0  0  0  0  0  0  0
    7.3893   -5.8899   -0.2888 H   0  0  0  0  0  0  0  0  0  0  0  0
    7.0613   -5.6338    1.4467 H   0  0  0  0  0  0  0  0  0  0  0  0
    8.1676   -3.4983   -0.4934 H   0  0  0  0  0  0  0  0  0  0  0  0
    7.8443   -3.2438    1.2407 H   0  0  0  0  0  0  0  0  0  0  0  0
    7.6662   -1.2743    0.0057 H   0  0  0  0  0  0  0  0  0  0  0  0
    6.7515    0.9737   -0.5165 H   0  0  0  0  0  0  0  0  0  0  0  0
    4.3186    1.2301   -1.0383 H   0  0  0  0  0  0  0  0  0  0  0  0
    2.8281   -0.7364   -1.0263 H   0  0  0  0  0  0  0  0  0  0  0  0
    4.1519   -4.1423   -0.3446 H   0  0  0  0  0  0  0  0  0  0  0  0
    1.7348   -2.5139   -0.8388 H   0  0  0  0  0  0  0  0  0  0  0  0
    2.8924   -2.6691   -2.9529 H   0  0  0  0  0  0  0  0  0  0  0  0
    1.3852   -3.5652   -3.0186 H   0  0  0  0  0  0  0  0  0  0  0  0
    4.1945   -4.8183   -2.6750 H   0  0  0  0  0  0  0  0  0  0  0  0
    3.2319   -4.8228   -4.1645 H   0  0  0  0  0  0  0  0  0  0  0  0
    2.6791   -5.7495   -2.7508 H   0  0  0  0  0  0  0  0  0  0  0  0
    2.6883   -4.5446    1.4497 H   0  0  0  0  0  0  0  0  0  0  0  0
    1.3618   -6.2942    2.6062 H   0  0  0  0  0  0  0  0  0  0  0  0
   -1.2456   -6.5636   -0.8203 H   0  0  0  0  0  0  0  0  0  0  0  0
    0.0788   -4.8351   -1.9688 H   0  0  0  0  0  0  0  0  0  0  0  0
  1  2  1  0
  1 21  1  0
  1 22  1  0
  1 23  1  0
  2  3  1  0
  2 24  1  0
  2 25  1  0
  3  4  1  0
  4  5  2  0
  4  9  1  0
  5  6  1  0
  5 26  1  0
  6  7  2  0
  6 27  1  0
  7  8  1  0
  7 28  1  0
  8  9  2  0
  8 29  1  0
  9 10  1  0
 10 11  1  0
 10 30  1  0
 11 12  1  0
 11 14  1  0
 11 31  1  6
 12 13  1  0
 12 32  1  0
 12 33  1  0
 13 34  1  0
 13 35  1  0
 13 36  1  0
 14 15  2  0
 14 20  1  0
 15 16  1  0
 15 37  1  0
 16 17  2  0
 16 38  1  0
 17 18  1  0
 17 19  1  0
 19 20  2  0
 19 39  1  0
 20 40  1  0
M  END

