
     RDKit          3D

 44 46  0  0  0  0  0  0  0  0999 V2000
    3.0924   -0.0430    2.1329 N   0  0  0  0  0  0  0  0  0  0  0  0
    3.8604   -0.0678    1.0107 C   0  0  0  0  0  0  0  0  0  0  0  0
    4.7752    0.7222    0.8332 O   0  0  0  0  0  0  0  0  0  0  0  0
    3.5351   -1.1237   -0.0279 C   0  0  0  0  0  0  0  0  0  0  0  0
    4.3353   -1.1109   -1.1805 C   0  0  0  0  0  0  0  0  0  0  0  0
    4.1551   -2.0273   -2.2342 C   0  0  0  0  0  0  0  0  0  0  0  0
    4.9107   -1.9946   -3.3888 N   0  0  0  0  0  0  0  0  0  0  0  0
    6.1003   -1.1791   -3.5962 C   0  0  2  0  0  0  0  0  0  0  0  0
    6.3996   -1.0640   -5.1014 C   0  0  0  0  0  0  0  0  0  0  0  0
    6.9531   -2.3639   -5.7007 C   0  0  0  0  0  0  0  0  0  0  0  0
    8.1871   -2.8746   -4.9422 C   0  0  2  0  0  0  0  0  0  0  0  0
    8.7375   -4.1840   -5.5274 C   0  0  0  0  0  0  0  0  0  0  0  0
    9.9622   -4.6930   -4.7577 C   0  0  0  0  0  0  0  0  0  0  0  0
    9.6627   -4.8373   -3.2605 C   0  0  0  0  0  0  0  0  0  0  0  0
    9.1169   -3.5322   -2.6689 C   0  0  0  0  0  0  0  0  0  0  0  0
    7.8865   -3.0180   -3.4326 C   0  0  1  0  0  0  0  0  0  0  0  0
    7.3460   -1.7053   -2.8479 C   0  0  0  0  0  0  0  0  0  0  0  0
    3.1288   -2.9919   -2.0918 C   0  0  0  0  0  0  0  0  0  0  0  0
    2.3265   -3.0215   -0.9565 C   0  0  0  0  0  0  0  0  0  0  0  0
    2.5305   -2.0943    0.0612 C   0  0  0  0  0  0  0  0  0  0  0  0
    1.7174   -2.1704    1.1502 F   0  0  0  0  0  0  0  0  0  0  0  0
    3.3103    0.6618    2.8262 H   0  0  0  0  0  0  0  0  0  0  0  0
    2.3375   -0.6970    2.2860 H   0  0  0  0  0  0  0  0  0  0  0  0
    5.1081   -0.3436   -1.2091 H   0  0  0  0  0  0  0  0  0  0  0  0
    4.7688   -2.7643   -4.0296 H   0  0  0  0  0  0  0  0  0  0  0  0
    5.8708   -0.1680   -3.2214 H   0  0  0  0  0  0  0  0  0  0  0  0
    7.1470   -0.2641   -5.2368 H   0  0  0  0  0  0  0  0  0  0  0  0
    5.4894   -0.7415   -5.6333 H   0  0  0  0  0  0  0  0  0  0  0  0
    7.2021   -2.2061   -6.7641 H   0  0  0  0  0  0  0  0  0  0  0  0
    6.1768   -3.1537   -5.6964 H   0  0  0  0  0  0  0  0  0  0  0  0
    8.9793   -2.1044   -5.0406 H   0  0  0  0  0  0  0  0  0  0  0  0
    8.9854   -4.0419   -6.5937 H   0  0  0  0  0  0  0  0  0  0  0  0
    7.9412   -4.9520   -5.4955 H   0  0  0  0  0  0  0  0  0  0  0  0
   10.7976   -3.9815   -4.8940 H   0  0  0  0  0  0  0  0  0  0  0  0
   10.3040   -5.6547   -5.1763 H   0  0  0  0  0  0  0  0  0  0  0  0
   10.5685   -5.1540   -2.7164 H   0  0  0  0  0  0  0  0  0  0  0  0
    8.9173   -5.6411   -3.1153 H   0  0  0  0  0  0  0  0  0  0  0  0
    9.9063   -2.7575   -2.7001 H   0  0  0  0  0  0  0  0  0  0  0  0
    8.8632   -3.6696   -1.6037 H   0  0  0  0  0  0  0  0  0  0  0  0
    7.0915   -3.7841   -3.3311 H   0  0  0  0  0  0  0  0  0  0  0  0
    8.1347   -0.9324   -2.8988 H   0  0  0  0  0  0  0  0  0  0  0  0
    7.1096   -1.8360   -1.7792 H   0  0  0  0  0  0  0  0  0  0  0  0
    2.9595   -3.7225   -2.8881 H   0  0  0  0  0  0  0  0  0  0  0  0
    1.5329   -3.7628   -0.8440 H   0  0  0  0  0  0  0  0  0  0  0  0
  1  2  1  0
  1 22  1  0
  1 23  1  0
  2  3  2  0
  2  4  1  0
  4  5  2  0
  4 20  1  0
  5  6  1  0
  5 24  1  0
  6  7  1  0
  6 18  2  0
  7  8  1  0
  7 25  1  0
  8  9  1  0
  8 17  1  0
  8 26  1  1
  9 10  1  0
  9 27  1  0
  9 28  1  0
 10 11  1  0
 10 29  1  0
 10 30  1  0
 11 12  1  0
 11 16  1  0
 11 31  1  1
 12 13  1  0
 12 32  1  0
 12 33  1  0
 13 14  1  0
 13 34  1  0
 13 35  1  0
 14 15  1  0
 14 36  1  0
 14 37  1  0
 15 16  1  0
 15 38  1  0
 15 39  1  0
 16 17  1  0
 16 40  1  6
 17 41  1  0
 17 42  1  0
 18 19  1  0
 18 43  1  0
 19 20  2  0
 19 44  1  0
 20 21  1  0
M  END

