
     RDKit          3D

 46 47  0  0  0  0  0  0  0  0999 V2000
    0.6626   -1.6062    0.9765 C   0  0  0  0  0  0  0  0  0  0  0  0
    2.1115   -1.5815    1.0492 N   0  0  0  0  0  0  0  0  0  0  0  0
    2.7738   -1.8014   -0.2255 C   0  0  0  0  0  0  0  0  0  0  0  0
    4.2921   -1.5693   -0.1466 C   0  0  1  0  0  0  0  0  0  0  0  0
    5.0294   -2.4970    0.8401 C   0  0  0  0  0  0  0  0  0  0  0  0
    5.1252   -3.9351    0.3178 C   0  0  0  0  0  0  0  0  0  0  0  0
    5.7425   -3.9735   -1.0818 C   0  0  0  0  0  0  0  0  0  0  0  0
    4.9972   -3.0787   -1.9772 N   0  0  0  0  0  0  0  0  0  0  0  0
    5.2641   -3.3229   -3.6250 S   0  0  1  0  0  0  0  0  0  0  0  0
    4.6111   -2.2085   -4.3150 O   0  0  0  0  0  0  0  0  0  0  0  0
    6.6714   -3.6292   -3.9024 O   0  0  0  0  0  0  0  0  0  0  0  0
    4.4247   -4.7655   -3.8612 N   0  0  0  0  0  0  0  0  0  0  0  0
    2.9686   -4.6415   -3.8291 C   0  0  0  0  0  0  0  0  0  0  0  0
    4.9991   -5.6821   -4.8647 C   0  0  0  0  0  0  0  0  0  0  0  0
    5.9416   -6.7285   -4.2442 C   0  0  0  0  0  0  0  0  0  0  0  0
    6.4797   -7.7053   -5.2500 C   0  0  0  0  0  0  0  0  0  0  0  0
    7.6776   -7.6628   -5.9248 C   0  0  0  0  0  0  0  0  0  0  0  0
    7.8442   -8.7318   -6.8584 C   0  0  0  0  0  0  0  0  0  0  0  0
    6.7668   -9.5792   -6.8898 C   0  0  0  0  0  0  0  0  0  0  0  0
    5.5397   -9.0809   -5.7744 S   0  0  0  0  0  0  0  0  0  0  0  0
    4.9538   -1.6743   -1.5300 C   0  0  0  0  0  0  0  0  0  0  0  0
    0.2333   -1.4870    1.9838 H   0  0  0  0  0  0  0  0  0  0  0  0
    0.2364   -2.5347    0.5322 H   0  0  0  0  0  0  0  0  0  0  0  0
    0.3014   -0.7622    0.3643 H   0  0  0  0  0  0  0  0  0  0  0  0
    2.4279   -2.2692    1.7306 H   0  0  0  0  0  0  0  0  0  0  0  0
    2.3594   -1.0747   -0.9469 H   0  0  0  0  0  0  0  0  0  0  0  0
    2.5595   -2.8043   -0.6594 H   0  0  0  0  0  0  0  0  0  0  0  0
    4.4280   -0.5301    0.1980 H   0  0  0  0  0  0  0  0  0  0  0  0
    4.5550   -2.4681    1.8347 H   0  0  0  0  0  0  0  0  0  0  0  0
    6.0509   -2.1029    0.9872 H   0  0  0  0  0  0  0  0  0  0  0  0
    4.1261   -4.4016    0.2838 H   0  0  0  0  0  0  0  0  0  0  0  0
    5.7398   -4.5510    0.9949 H   0  0  0  0  0  0  0  0  0  0  0  0
    5.7022   -4.9910   -1.4946 H   0  0  0  0  0  0  0  0  0  0  0  0
    6.8087   -3.6741   -1.0378 H   0  0  0  0  0  0  0  0  0  0  0  0
    2.6747   -4.0061   -2.9830 H   0  0  0  0  0  0  0  0  0  0  0  0
    2.5315   -5.6390   -3.6717 H   0  0  0  0  0  0  0  0  0  0  0  0
    2.5547   -4.2065   -4.7567 H   0  0  0  0  0  0  0  0  0  0  0  0
    5.5357   -5.1296   -5.6523 H   0  0  0  0  0  0  0  0  0  0  0  0
    4.1543   -6.1880   -5.3564 H   0  0  0  0  0  0  0  0  0  0  0  0
    5.4034   -7.2545   -3.4377 H   0  0  0  0  0  0  0  0  0  0  0  0
    6.7853   -6.1952   -3.7824 H   0  0  0  0  0  0  0  0  0  0  0  0
    8.4206   -6.8817   -5.7512 H   0  0  0  0  0  0  0  0  0  0  0  0
    8.7320   -8.8676   -7.4785 H   0  0  0  0  0  0  0  0  0  0  0  0
    6.6274  -10.4734   -7.4958 H   0  0  0  0  0  0  0  0  0  0  0  0
    4.3987   -1.0956   -2.2785 H   0  0  0  0  0  0  0  0  0  0  0  0
    5.9793   -1.2562   -1.4753 H   0  0  0  0  0  0  0  0  0  0  0  0
  1  2  1  0
  1 22  1  0
  1 23  1  0
  1 24  1  0
  2  3  1  0
  2 25  1  0
  3  4  1  0
  3 26  1  0
  3 27  1  0
  4  5  1  0
  4 21  1  0
  4 28  1  1
  5  6  1  0
  5 29  1  0
  5 30  1  0
  6  7  1  0
  6 31  1  0
  6 32  1  0
  7  8  1  0
  7 33  1  0
  7 34  1  0
  8  9  1  0
  8 21  1  0
  9 10  2  0
  9 11  2  0
  9 12  1  6
 12 13  1  0
 12 14  1  0
 13 35  1  0
 13 36  1  0
 13 37  1  0
 14 15  1  0
 14 38  1  0
 14 39  1  0
 15 16  1  0
 15 40  1  0
 15 41  1  0
 16 17  2  0
 16 20  1  0
 17 18  1  0
 17 42  1  0
 18 19  2  0
 18 43  1  0
 19 20  1  0
 19 44  1  0
 21 45  1  0
 21 46  1  0
M  END

