
     RDKit          3D

 29 30  0  0  0  0  0  0  0  0999 V2000
    4.9453   -2.1845   -0.8881 C   0  0  0  0  0  0  0  0  0  0  0  0
    4.2821   -0.9457   -0.3346 C   0  0  0  0  0  0  0  0  0  0  0  0
    5.0012    0.2517   -0.2425 C   0  0  0  0  0  0  0  0  0  0  0  0
    4.4090    1.4081    0.2704 C   0  0  0  0  0  0  0  0  0  0  0  0
    5.5399    3.2053    0.3918 I   0  0  0  0  0  0  0  0  0  0  0  0
    3.0826    1.3856    0.7008 C   0  0  0  0  0  0  0  0  0  0  0  0
    2.3466    0.2023    0.6173 C   0  0  0  0  0  0  0  0  0  0  0  0
    2.9338   -0.9668    0.1043 C   0  0  0  0  0  0  0  0  0  0  0  0
    2.2348   -2.1863    0.0093 N   0  0  0  0  0  0  0  0  0  0  0  0
    0.9228   -2.4627    0.3271 C   0  0  0  0  0  0  0  0  0  0  0  0
    0.1230   -1.6307    0.7205 O   0  0  0  0  0  0  0  0  0  0  0  0
    0.5129   -3.9027    0.1351 C   0  0  0  0  0  0  0  0  0  0  0  0
    1.4056   -4.9862    0.1189 C   0  0  0  0  0  0  0  0  0  0  0  0
    0.9340   -6.2878   -0.0439 C   0  0  0  0  0  0  0  0  0  0  0  0
   -0.4358   -6.5309   -0.1923 C   0  0  0  0  0  0  0  0  0  0  0  0
   -0.9909   -8.1627   -0.3995 Cl  0  0  0  0  0  0  0  0  0  0  0  0
   -1.3391   -5.4516   -0.1620 C   0  0  0  0  0  0  0  0  0  0  0  0
   -3.0491   -5.7120   -0.3317 Cl  0  0  0  0  0  0  0  0  0  0  0  0
   -0.8600   -4.1527    0.0096 C   0  0  0  0  0  0  0  0  0  0  0  0
    5.9829   -1.9764   -1.1829 H   0  0  0  0  0  0  0  0  0  0  0  0
    4.4262   -2.5687   -1.7846 H   0  0  0  0  0  0  0  0  0  0  0  0
    4.9775   -3.0030   -0.1464 H   0  0  0  0  0  0  0  0  0  0  0  0
    6.0396    0.2703   -0.5794 H   0  0  0  0  0  0  0  0  0  0  0  0
    2.6090    2.2830    1.1022 H   0  0  0  0  0  0  0  0  0  0  0  0
    1.3099    0.1745    0.9437 H   0  0  0  0  0  0  0  0  0  0  0  0
    2.7517   -2.9450   -0.4139 H   0  0  0  0  0  0  0  0  0  0  0  0
    2.4777   -4.8386    0.2683 H   0  0  0  0  0  0  0  0  0  0  0  0
    1.6224   -7.1342   -0.0482 H   0  0  0  0  0  0  0  0  0  0  0  0
   -1.5547   -3.3132    0.0507 H   0  0  0  0  0  0  0  0  0  0  0  0
  1  2  1  0
  1 20  1  0
  1 21  1  0
  1 22  1  0
  2  3  2  0
  2  8  1  0
  3  4  1  0
  3 23  1  0
  4  5  1  0
  4  6  2  0
  6  7  1  0
  6 24  1  0
  7  8  2  0
  7 25  1  0
  8  9  1  0
  9 10  1  0
  9 26  1  0
 10 11  2  0
 10 12  1  0
 12 13  2  0
 12 19  1  0
 13 14  1  0
 13 27  1  0
 14 15  2  0
 14 28  1  0
 15 16  1  0
 15 17  1  0
 17 18  1  0
 17 19  2  0
 19 29  1  0
M  END

