
     RDKit          3D

 27 28  0  0  0  0  0  0  0  0999 V2000
    1.7336    1.3955    0.1653 C   0  0  0  0  0  0  0  0  0  0  0  0
    2.2048    0.1182    0.5418 O   0  0  0  0  0  0  0  0  0  0  0  0
    3.0191    0.0123    1.6300 C   0  0  0  0  0  0  0  0  0  0  0  0
    3.4406    1.0796    2.4168 C   0  0  0  0  0  0  0  0  0  0  0  0
    4.2556    0.9404    3.4765 N   0  0  0  0  0  0  0  0  0  0  0  0
    4.6519   -0.2986    3.7332 C   0  0  0  0  0  0  0  0  0  0  0  0
    4.3192   -1.3966    3.0561 N   0  0  0  0  0  0  0  0  0  0  0  0
    3.4983   -1.2828    2.0028 C   0  0  0  0  0  0  0  0  0  0  0  0
    3.1888   -2.4597    1.3804 N   0  0  0  0  0  0  0  0  0  0  0  0
    2.4438   -2.7223    0.1631 C   0  0  1  0  0  0  0  0  0  0  0  0
    3.2632   -2.6169   -1.1380 C   0  0  0  0  0  0  0  0  0  0  0  0
    2.3745   -3.1409   -2.2628 C   0  0  0  0  0  0  0  0  0  0  0  0
    1.3988   -4.5501   -1.5465 S   0  0  0  0  0  0  0  0  0  0  0  0
    1.8676   -4.1471    0.1862 C   0  0  0  0  0  0  0  0  0  0  0  0
    1.1051    1.2473   -0.7229 H   0  0  0  0  0  0  0  0  0  0  0  0
    2.5634    2.0785   -0.0902 H   0  0  0  0  0  0  0  0  0  0  0  0
    1.1254    1.8577    0.9630 H   0  0  0  0  0  0  0  0  0  0  0  0
    3.1114    2.0977    2.1886 H   0  0  0  0  0  0  0  0  0  0  0  0
    5.3241   -0.4415    4.5883 H   0  0  0  0  0  0  0  0  0  0  0  0
    3.7179   -3.2335    1.7733 H   0  0  0  0  0  0  0  0  0  0  0  0
    1.6121   -2.0099    0.1035 H   0  0  0  0  0  0  0  0  0  0  0  0
    4.1711   -3.2367   -1.0412 H   0  0  0  0  0  0  0  0  0  0  0  0
    3.5794   -1.5775   -1.3174 H   0  0  0  0  0  0  0  0  0  0  0  0
    2.9483   -3.5055   -3.1266 H   0  0  0  0  0  0  0  0  0  0  0  0
    1.6731   -2.3694   -2.6166 H   0  0  0  0  0  0  0  0  0  0  0  0
    2.6262   -4.8651    0.5427 H   0  0  0  0  0  0  0  0  0  0  0  0
    0.9859   -4.2265    0.8383 H   0  0  0  0  0  0  0  0  0  0  0  0
  1  2  1  0
  1 15  1  0
  1 16  1  0
  1 17  1  0
  2  3  1  0
  3  4  2  0
  3  8  1  0
  4  5  1  0
  4 18  1  0
  5  6  2  0
  6  7  1  0
  6 19  1  0
  7  8  2  0
  8  9  1  0
  9 10  1  0
  9 20  1  0
 10 11  1  0
 10 14  1  0
 10 21  1  6
 11 12  1  0
 11 22  1  0
 11 23  1  0
 12 13  1  0
 12 24  1  0
 12 25  1  0
 13 14  1  0
 14 26  1  0
 14 27  1  0
M  END

