
     RDKit          3D

 69 72  0  0  0  0  0  0  0  0999 V2000
    7.4987   -2.5941   -3.4195 C   0  0  0  0  0  0  0  0  0  0  0  0
    6.6229   -1.7547   -2.4908 C   0  0  1  0  0  0  0  0  0  0  0  0
    7.3401   -0.4579   -1.9860 C   0  0  0  0  0  0  0  0  0  0  0  0
    6.7184    0.6563   -2.8557 C   0  0  0  0  0  0  0  0  0  0  0  0
    5.9532   -0.1009   -3.8459 N   0  0  0  0  0  0  0  0  0  0  0  0
    5.0711    0.6143   -4.7259 C   0  0  0  0  0  0  0  0  0  0  0  0
    5.4236   -1.2647   -3.1964 N   0  0  0  0  0  0  0  0  0  0  0  0
    4.2532   -1.0145   -2.3234 C   0  0  0  0  0  0  0  0  0  0  0  0
    2.9282   -1.4337   -2.9729 C   0  0  0  0  0  0  0  0  0  0  0  0
    2.8340   -2.9349   -3.2540 C   0  0  0  0  0  0  0  0  0  0  0  0
    1.5352   -3.3472   -3.9556 C   0  0  0  0  0  0  0  0  0  0  0  0
    1.4722   -4.8546   -4.2110 C   0  0  0  0  0  0  0  0  0  0  0  0
    0.1599   -5.3874   -4.8984 C   0  0  1  0  0  0  0  0  0  0  0  0
   -1.0971   -4.9309   -4.0884 C   0  0  0  0  0  0  0  0  0  0  0  0
   -2.0920   -4.2808   -4.5615 N   0  0  0  0  0  0  0  0  0  0  0  0
   -1.0388   -5.2397   -2.7505 N   0  0  0  0  0  0  0  0  0  0  0  0
    0.0932   -4.8420   -6.2961 C   0  0  0  0  0  0  0  0  0  0  0  0
    0.1215   -5.6277   -7.3883 C   0  0  0  0  0  0  0  0  0  0  0  0
    0.1736   -7.0729   -7.2703 C   0  0  0  0  0  0  0  0  0  0  0  0
    0.2272   -7.7320   -6.0793 C   0  0  0  0  0  0  0  0  0  0  0  0
    0.2894   -9.2447   -6.0204 C   0  0  2  0  0  0  0  0  0  0  0  0
   -0.8908   -9.8852   -5.2623 C   0  0  0  0  0  0  0  0  0  0  0  0
   -0.8266  -11.3248   -5.4233 N   0  0  0  0  0  0  0  0  0  0  0  0
    0.3755  -12.0061   -5.2985 C   0  0  0  0  0  0  0  0  0  0  0  0
    0.3922  -13.4114   -5.1786 C   0  0  0  0  0  0  0  0  0  0  0  0
    1.5960  -14.1082   -5.1037 C   0  0  0  0  0  0  0  0  0  0  0  0
    2.8138  -13.4212   -5.1525 C   0  0  0  0  0  0  0  0  0  0  0  0
    2.7996  -12.0293   -5.2731 C   0  0  0  0  0  0  0  0  0  0  0  0
    1.6053  -11.3025   -5.3399 C   0  0  0  0  0  0  0  0  0  0  0  0
    1.6104   -9.7891   -5.4345 C   0  0  0  0  0  0  0  0  0  0  0  0
    0.2409   -6.9369   -4.8313 C   0  0  0  0  0  0  0  0  0  0  0  0
    0.3326   -7.4782   -3.7329 O   0  0  0  0  0  0  0  0  0  0  0  0
    8.4116   -2.9289   -2.9003 H   0  0  0  0  0  0  0  0  0  0  0  0
    7.7933   -2.0021   -4.2989 H   0  0  0  0  0  0  0  0  0  0  0  0
    6.9517   -3.4827   -3.7699 H   0  0  0  0  0  0  0  0  0  0  0  0
    6.2969   -2.3801   -1.6464 H   0  0  0  0  0  0  0  0  0  0  0  0
    8.4304   -0.5267   -2.1162 H   0  0  0  0  0  0  0  0  0  0  0  0
    7.1483   -0.2812   -0.9170 H   0  0  0  0  0  0  0  0  0  0  0  0
    7.4671    1.2811   -3.3693 H   0  0  0  0  0  0  0  0  0  0  0  0
    6.0904    1.3419   -2.2434 H   0  0  0  0  0  0  0  0  0  0  0  0
    5.6554    1.3708   -5.2752 H   0  0  0  0  0  0  0  0  0  0  0  0
    4.2365    1.1501   -4.2190 H   0  0  0  0  0  0  0  0  0  0  0  0
    4.6378   -0.0835   -5.4589 H   0  0  0  0  0  0  0  0  0  0  0  0
    4.1964    0.0475   -2.0181 H   0  0  0  0  0  0  0  0  0  0  0  0
    4.3810   -1.5921   -1.3922 H   0  0  0  0  0  0  0  0  0  0  0  0
    2.7864   -0.8753   -3.9138 H   0  0  0  0  0  0  0  0  0  0  0  0
    2.1012   -1.1254   -2.3073 H   0  0  0  0  0  0  0  0  0  0  0  0
    2.9253   -3.4904   -2.3016 H   0  0  0  0  0  0  0  0  0  0  0  0
    3.7039   -3.2291   -3.8656 H   0  0  0  0  0  0  0  0  0  0  0  0
    1.4537   -2.7898   -4.9051 H   0  0  0  0  0  0  0  0  0  0  0  0
    0.6714   -3.0449   -3.3401 H   0  0  0  0  0  0  0  0  0  0  0  0
    1.5780   -5.3944   -3.2581 H   0  0  0  0  0  0  0  0  0  0  0  0
    2.3264   -5.1622   -4.8391 H   0  0  0  0  0  0  0  0  0  0  0  0
   -1.9821   -4.0922   -5.5575 H   0  0  0  0  0  0  0  0  0  0  0  0
   -0.5266   -6.0870   -2.5147 H   0  0  0  0  0  0  0  0  0  0  0  0
   -1.9168   -5.0985   -2.2605 H   0  0  0  0  0  0  0  0  0  0  0  0
    0.0489   -3.7554   -6.4034 H   0  0  0  0  0  0  0  0  0  0  0  0
    0.1020   -5.1891   -8.3891 H   0  0  0  0  0  0  0  0  0  0  0  0
    0.1723   -7.6590   -8.1953 H   0  0  0  0  0  0  0  0  0  0  0  0
    0.2143   -9.6054   -7.0605 H   0  0  0  0  0  0  0  0  0  0  0  0
   -1.8453   -9.5281   -5.6821 H   0  0  0  0  0  0  0  0  0  0  0  0
   -0.8525   -9.5711   -4.2027 H   0  0  0  0  0  0  0  0  0  0  0  0
   -1.6574  -11.8433   -5.1668 H   0  0  0  0  0  0  0  0  0  0  0  0
   -0.5581  -13.9534   -5.1495 H   0  0  0  0  0  0  0  0  0  0  0  0
    1.5813  -15.1975   -5.0092 H   0  0  0  0  0  0  0  0  0  0  0  0
    3.7613  -13.9619   -5.0980 H   0  0  0  0  0  0  0  0  0  0  0  0
    3.7461  -11.4807   -5.3126 H   0  0  0  0  0  0  0  0  0  0  0  0
    2.4585   -9.4555   -6.0551 H   0  0  0  0  0  0  0  0  0  0  0  0
    1.7586   -9.3495   -4.4345 H   0  0  0  0  0  0  0  0  0  0  0  0
  1  2  1  0
  1 33  1  0
  1 34  1  0
  1 35  1  0
  2  3  1  0
  2  7  1  0
  2 36  1  1
  3  4  1  0
  3 37  1  0
  3 38  1  0
  4  5  1  0
  4 39  1  0
  4 40  1  0
  5  6  1  0
  5  7  1  0
  6 41  1  0
  6 42  1  0
  6 43  1  0
  7  8  1  0
  8  9  1  0
  8 44  1  0
  8 45  1  0
  9 10  1  0
  9 46  1  0
  9 47  1  0
 10 11  1  0
 10 48  1  0
 10 49  1  0
 11 12  1  0
 11 50  1  0
 11 51  1  0
 12 13  1  0
 12 52  1  0
 12 53  1  0
 13 14  1  1
 13 17  1  0
 13 31  1  0
 14 15  2  0
 14 16  1  0
 15 54  1  0
 16 55  1  0
 16 56  1  0
 17 18  2  0
 17 57  1  0
 18 19  1  0
 18 58  1  0
 19 20  2  0
 19 59  1  0
 20 21  1  0
 20 31  1  0
 21 22  1  0
 21 30  1  0
 21 60  1  6
 22 23  1  0
 22 61  1  0
 22 62  1  0
 23 24  1  0
 23 63  1  0
 24 25  2  0
 24 29  1  0
 25 26  1  0
 25 64  1  0
 26 27  2  0
 26 65  1  0
 27 28  1  0
 27 66  1  0
 28 29  2  0
 28 67  1  0
 29 30  1  0
 30 68  1  0
 30 69  1  0
 31 32  2  0
M  END

