
     RDKit          3D

 72 78  0  0  0  0  0  0  0  0999 V2000
    3.7964    0.1264    0.9778 C   0  0  0  0  0  0  0  0  0  0  0  0
    2.6510   -0.1528    0.0021 C   0  0  0  0  0  0  0  0  0  0  0  0
    3.0658   -0.8368   -1.2110 N   0  0  0  0  0  0  0  0  0  0  0  0
    3.1617   -2.2189   -1.3678 C   0  0  0  0  0  0  0  0  0  0  0  0
    2.8516   -3.2404   -0.4609 C   0  0  0  0  0  0  0  0  0  0  0  0
    3.0290   -4.5596   -0.8815 C   0  0  0  0  0  0  0  0  0  0  0  0
    3.5063   -4.8615   -2.1706 C   0  0  0  0  0  0  0  0  0  0  0  0
    3.8178   -3.8419   -3.0698 C   0  0  0  0  0  0  0  0  0  0  0  0
    3.6483   -2.5086   -2.6722 C   0  0  0  0  0  0  0  0  0  0  0  0
    3.8642   -1.2295   -3.3222 C   0  0  0  0  0  0  0  0  0  0  0  0
    4.3219   -0.8567   -4.5854 C   0  0  0  0  0  0  0  0  0  0  0  0
    4.4190    0.5116   -4.9128 C   0  0  0  0  0  0  0  0  0  0  0  0
    4.8861    0.9057   -6.1982 C   0  0  0  0  0  0  0  0  0  0  0  0
    5.2893    1.2213   -7.3062 C   0  0  0  0  0  0  0  0  0  0  0  0
    5.7592    1.5970   -8.5980 C   0  0  0  0  0  0  0  0  0  0  0  0
    5.8713    2.9531   -8.9647 C   0  0  0  0  0  0  0  0  0  0  0  0
    6.3417    3.2513  -10.2542 C   0  0  0  0  0  0  0  0  0  0  0  0
    6.4821    4.5998  -10.6963 C   0  0  0  0  0  0  0  0  0  0  0  0
    6.5966    5.7595  -11.0592 C   0  0  0  0  0  0  0  0  0  0  0  0
    6.7373    7.1062  -11.5001 C   0  0  0  0  0  0  0  0  0  0  0  0
    7.2162    7.3767  -12.8118 C   0  0  0  0  0  0  0  0  0  0  0  0
    7.3666    8.6758  -13.2802 C   0  0  0  0  0  0  0  0  0  0  0  0
    7.0352    9.7345  -12.4195 C   0  0  0  0  0  0  0  0  0  0  0  0
    6.5487    9.4891  -11.1008 C   0  0  0  0  0  0  0  0  0  0  0  0
    6.4037    8.1781  -10.6474 C   0  0  0  0  0  0  0  0  0  0  0  0
    6.3051   10.7890  -10.5044 C   0  0  0  0  0  0  0  0  0  0  0  0
    5.8349   11.2128   -9.2539 C   0  0  0  0  0  0  0  0  0  0  0  0
    5.7171   12.5793   -9.0012 C   0  0  0  0  0  0  0  0  0  0  0  0
    6.0641   13.5228   -9.9863 C   0  0  0  0  0  0  0  0  0  0  0  0
    6.5345   13.1274  -11.2396 C   0  0  0  0  0  0  0  0  0  0  0  0
    6.6553   11.7541  -11.4887 C   0  0  0  0  0  0  0  0  0  0  0  0
    7.1046   11.0987  -12.6336 N   0  0  0  0  0  0  0  0  0  0  0  0
    7.5096   11.7443  -13.8713 C   0  0  0  0  0  0  0  0  0  0  0  0
    6.3561   11.9948  -14.8451 C   0  0  0  0  0  0  0  0  0  0  0  0
    6.6744    2.2551  -11.1109 N   0  0  0  0  0  0  0  0  0  0  0  0
    6.5247    1.0269  -10.6486 C   0  0  0  0  0  0  0  0  0  0  0  0
    6.9654   -0.3510  -11.7852 S   0  0  1  0  0  0  0  0  0  0  0  0
    7.5127    0.4911  -13.2827 C   0  0  0  0  0  0  0  0  0  0  0  0
    8.1205   -1.0473  -11.2079 O   0  0  0  0  0  0  0  0  0  0  0  0
    5.7293   -1.0767  -12.0985 O   0  0  0  0  0  0  0  0  0  0  0  0
    6.0966    0.6208   -9.4686 N   0  0  0  0  0  0  0  0  0  0  0  0
    4.0501    1.4916   -3.9507 C   0  0  0  0  0  0  0  0  0  0  0  0
    3.5927    1.1379   -2.6875 C   0  0  0  0  0  0  0  0  0  0  0  0
    3.4963   -0.2276   -2.3751 C   0  0  0  0  0  0  0  0  0  0  0  0
    3.4170    0.6418    1.8745 H   0  0  0  0  0  0  0  0  0  0  0  0
    4.5652    0.7647    0.5154 H   0  0  0  0  0  0  0  0  0  0  0  0
    4.2805   -0.8085    1.2995 H   0  0  0  0  0  0  0  0  0  0  0  0
    2.1572    0.7870   -0.2911 H   0  0  0  0  0  0  0  0  0  0  0  0
    1.8741   -0.7655    0.4859 H   0  0  0  0  0  0  0  0  0  0  0  0
    2.4857   -3.0233    0.5444 H   0  0  0  0  0  0  0  0  0  0  0  0
    2.7936   -5.3742   -0.1919 H   0  0  0  0  0  0  0  0  0  0  0  0
    3.6346   -5.9050   -2.4669 H   0  0  0  0  0  0  0  0  0  0  0  0
    4.1891   -4.0791   -4.0698 H   0  0  0  0  0  0  0  0  0  0  0  0
    4.6069   -1.6074   -5.3250 H   0  0  0  0  0  0  0  0  0  0  0  0
    5.6013    3.7467   -8.2686 H   0  0  0  0  0  0  0  0  0  0  0  0
    7.4670    6.5349  -13.4600 H   0  0  0  0  0  0  0  0  0  0  0  0
    7.7305    8.8547  -14.2934 H   0  0  0  0  0  0  0  0  0  0  0  0
    6.0346    7.9714   -9.6409 H   0  0  0  0  0  0  0  0  0  0  0  0
    5.5637   10.4826   -8.4873 H   0  0  0  0  0  0  0  0  0  0  0  0
    5.3510   12.9233   -8.0312 H   0  0  0  0  0  0  0  0  0  0  0  0
    5.9616   14.5888   -9.7684 H   0  0  0  0  0  0  0  0  0  0  0  0
    6.7940   13.8719  -11.9946 H   0  0  0  0  0  0  0  0  0  0  0  0
    8.2825   11.1173  -14.3427 H   0  0  0  0  0  0  0  0  0  0  0  0
    8.0059   12.6923  -13.6102 H   0  0  0  0  0  0  0  0  0  0  0  0
    5.8718   11.0506  -15.1385 H   0  0  0  0  0  0  0  0  0  0  0  0
    6.7276   12.4871  -15.7579 H   0  0  0  0  0  0  0  0  0  0  0  0
    5.5895   12.6436  -14.3942 H   0  0  0  0  0  0  0  0  0  0  0  0
    8.3867    1.1119  -13.0552 H   0  0  0  0  0  0  0  0  0  0  0  0
    6.6901    1.0921  -13.6864 H   0  0  0  0  0  0  0  0  0  0  0  0
    7.7757   -0.3305  -13.9633 H   0  0  0  0  0  0  0  0  0  0  0  0
    4.1340    2.5465   -4.2191 H   0  0  0  0  0  0  0  0  0  0  0  0
    3.3219    1.9104   -1.9656 H   0  0  0  0  0  0  0  0  0  0  0  0
  1  2  1  0
  1 45  1  0
  1 46  1  0
  1 47  1  0
  2  3  1  0
  2 48  1  0
  2 49  1  0
  3  4  1  0
  3 44  1  0
  4  5  2  0
  4  9  1  0
  5  6  1  0
  5 50  1  0
  6  7  2  0
  6 51  1  0
  7  8  1  0
  7 52  1  0
  8  9  2  0
  8 53  1  0
  9 10  1  0
 10 11  1  0
 10 44  2  0
 11 12  2  0
 11 54  1  0
 12 13  1  0
 12 42  1  0
 13 14  3  0
 14 15  1  0
 15 16  2  0
 15 41  1  0
 16 17  1  0
 16 55  1  0
 17 18  1  0
 17 35  2  0
 18 19  3  0
 19 20  1  0
 20 21  2  0
 20 25  1  0
 21 22  1  0
 21 56  1  0
 22 23  2  0
 22 57  1  0
 23 24  1  0
 23 32  1  0
 24 25  2  0
 24 26  1  0
 25 58  1  0
 26 27  2  0
 26 31  1  0
 27 28  1  0
 27 59  1  0
 28 29  2  0
 28 60  1  0
 29 30  1  0
 29 61  1  0
 30 31  2  0
 30 62  1  0
 31 32  1  0
 32 33  1  0
 33 34  1  0
 33 63  1  0
 33 64  1  0
 34 65  1  0
 34 66  1  0
 34 67  1  0
 35 36  1  0
 36 37  1  0
 36 41  2  0
 37 38  1  6
 37 39  2  0
 37 40  2  0
 38 68  1  0
 38 69  1  0
 38 70  1  0
 42 43  2  0
 42 71  1  0
 43 44  1  0
 43 72  1  0
M  END

