
     RDKit          3D

 37 38  0  0  0  0  0  0  0  0999 V2000
    5.3567    0.4600    1.2501 C   0  0  0  0  0  0  0  0  0  0  0  0
    4.1844    0.1991    0.3666 C   0  0  0  0  0  0  0  0  0  0  0  0
    3.0611    0.9514    0.0093 C   0  0  0  0  0  0  0  0  0  0  0  0
    2.8013    2.3572    0.4560 C   0  0  0  0  0  0  0  0  0  0  0  0
    3.7316    2.9746    0.9772 O   0  0  0  0  0  0  0  0  0  0  0  0
    1.5689    2.9321    0.2867 N   0  0  0  0  0  0  0  0  0  0  0  0
    1.3948    4.3293    0.6835 C   0  0  0  0  0  0  0  0  0  0  0  0
    0.8440    5.1621   -0.4787 C   0  0  0  0  0  0  0  0  0  0  0  0
   -0.4619    4.5964   -1.0907 C   0  0  2  0  0  0  0  0  0  0  0  0
   -0.7708    5.3316   -2.4050 C   0  0  0  0  0  0  0  0  0  0  0  0
   -1.6486    4.7977   -0.1273 C   0  0  0  0  0  0  0  0  0  0  0  0
   -0.2399    3.0916   -1.3819 C   0  0  0  0  0  0  0  0  0  0  0  0
    0.3391    2.3055   -0.1998 C   0  0  0  0  0  0  0  0  0  0  0  0
    2.3116    0.1980   -0.8511 N   0  0  0  0  0  0  0  0  0  0  0  0
    2.8766   -0.9457   -1.0428 N   0  0  0  0  0  0  0  0  0  0  0  0
    4.0111   -0.9653   -0.3108 N   0  0  0  0  0  0  0  0  0  0  0  0
    4.8619   -2.1368   -0.3289 C   0  0  0  0  0  0  0  0  0  0  0  0
    5.2559    1.4585    1.6888 H   0  0  0  0  0  0  0  0  0  0  0  0
    6.2991    0.4276    0.6771 H   0  0  0  0  0  0  0  0  0  0  0  0
    5.4311   -0.2940    2.0519 H   0  0  0  0  0  0  0  0  0  0  0  0
    2.3688    4.7061    1.0153 H   0  0  0  0  0  0  0  0  0  0  0  0
    0.7103    4.3716    1.5515 H   0  0  0  0  0  0  0  0  0  0  0  0
    1.6165    5.2050   -1.2663 H   0  0  0  0  0  0  0  0  0  0  0  0
    0.6817    6.1995   -0.1377 H   0  0  0  0  0  0  0  0  0  0  0  0
   -0.9173    6.4109   -2.2319 H   0  0  0  0  0  0  0  0  0  0  0  0
   -1.6893    4.9398   -2.8729 H   0  0  0  0  0  0  0  0  0  0  0  0
    0.0509    5.2161   -3.1306 H   0  0  0  0  0  0  0  0  0  0  0  0
   -1.8086    5.8694    0.0762 H   0  0  0  0  0  0  0  0  0  0  0  0
   -1.5029    4.2981    0.8424 H   0  0  0  0  0  0  0  0  0  0  0  0
   -2.5783    4.3991   -0.5656 H   0  0  0  0  0  0  0  0  0  0  0  0
    0.4585    2.9884   -2.2305 H   0  0  0  0  0  0  0  0  0  0  0  0
   -1.1898    2.6243   -1.6950 H   0  0  0  0  0  0  0  0  0  0  0  0
    0.5454    1.2771   -0.5066 H   0  0  0  0  0  0  0  0  0  0  0  0
   -0.3881    2.2759    0.6339 H   0  0  0  0  0  0  0  0  0  0  0  0
    4.3903   -2.8701   -0.9942 H   0  0  0  0  0  0  0  0  0  0  0  0
    4.9594   -2.5665    0.6798 H   0  0  0  0  0  0  0  0  0  0  0  0
    5.8641   -1.8875   -0.7096 H   0  0  0  0  0  0  0  0  0  0  0  0
  1  2  1  0
  1 18  1  0
  1 19  1  0
  1 20  1  0
  2  3  2  0
  2 16  1  0
  3  4  1  0
  3 14  1  0
  4  5  2  0
  4  6  1  0
  6  7  1  0
  6 13  1  0
  7  8  1  0
  7 21  1  0
  7 22  1  0
  8  9  1  0
  8 23  1  0
  8 24  1  0
  9 10  1  6
  9 11  1  0
  9 12  1  0
 10 25  1  0
 10 26  1  0
 10 27  1  0
 11 28  1  0
 11 29  1  0
 11 30  1  0
 12 13  1  0
 12 31  1  0
 12 32  1  0
 13 33  1  0
 13 34  1  0
 14 15  2  0
 15 16  1  0
 16 17  1  0
 17 35  1  0
 17 36  1  0
 17 37  1  0
M  END

