
     RDKit          3D

 35 35  0  0  0  0  0  0  0  0999 V2000
    2.5083   -1.3030    0.5872 C   0  0  0  0  0  0  0  0  0  0  0  0
    2.5325    0.1632    0.1477 C   0  0  0  0  0  0  0  0  0  0  0  0
    3.1593    1.1859    1.1367 C   0  0  1  0  0  0  0  0  0  0  0  0
    4.6293    0.8011    1.4405 C   0  0  0  0  0  0  0  0  0  0  0  0
    5.3593    1.7640    2.3800 C   0  0  0  0  0  0  0  0  0  0  0  0
    6.7663    1.2817    2.7279 C   0  0  0  0  0  0  0  0  0  0  0  0
    7.5775    2.4965    3.8144 S   0  0  1  0  0  0  0  0  0  0  0  0
    9.2127    1.7943    4.1315 C   0  0  0  0  0  0  0  0  0  0  0  0
    7.7734    3.7327    3.0407 O   0  0  0  0  0  0  0  0  0  0  0  0
    6.8533    2.5216    5.0938 O   0  0  0  0  0  0  0  0  0  0  0  0
    3.0263    2.6255    0.5356 C   0  0  0  0  0  0  0  0  0  0  0  0
    2.3112    3.4632    1.6102 C   0  0  0  0  0  0  0  0  0  0  0  0
    1.4841    2.4124    2.3538 C   0  0  0  0  0  0  0  0  0  0  0  0
    2.4061    1.2856    2.4043 N   0  0  0  0  0  0  0  0  0  0  0  0
    1.9643   -1.9170   -0.1480 H   0  0  0  0  0  0  0  0  0  0  0  0
    1.9954   -1.4371    1.5550 H   0  0  0  0  0  0  0  0  0  0  0  0
    3.5179   -1.7314    0.6849 H   0  0  0  0  0  0  0  0  0  0  0  0
    1.4977    0.4913   -0.0543 H   0  0  0  0  0  0  0  0  0  0  0  0
    3.0647    0.2428   -0.8174 H   0  0  0  0  0  0  0  0  0  0  0  0
    5.1797    0.7104    0.4858 H   0  0  0  0  0  0  0  0  0  0  0  0
    4.6378   -0.2035    1.8978 H   0  0  0  0  0  0  0  0  0  0  0  0
    4.7733    1.8738    3.3043 H   0  0  0  0  0  0  0  0  0  0  0  0
    5.4437    2.7657    1.9295 H   0  0  0  0  0  0  0  0  0  0  0  0
    7.4091    1.1855    1.8382 H   0  0  0  0  0  0  0  0  0  0  0  0
    6.7559    0.3265    3.2765 H   0  0  0  0  0  0  0  0  0  0  0  0
    9.7599    1.6908    3.1853 H   0  0  0  0  0  0  0  0  0  0  0  0
    9.1061    0.8339    4.6527 H   0  0  0  0  0  0  0  0  0  0  0  0
    9.7099    2.5277    4.7811 H   0  0  0  0  0  0  0  0  0  0  0  0
    2.4128    2.5847   -0.3785 H   0  0  0  0  0  0  0  0  0  0  0  0
    3.9981    3.0494    0.2425 H   0  0  0  0  0  0  0  0  0  0  0  0
    1.7001    4.2750    1.1872 H   0  0  0  0  0  0  0  0  0  0  0  0
    3.0400    3.9141    2.3019 H   0  0  0  0  0  0  0  0  0  0  0  0
    0.5444    2.2038    1.7938 H   0  0  0  0  0  0  0  0  0  0  0  0
    1.1934    2.7318    3.3686 H   0  0  0  0  0  0  0  0  0  0  0  0
    1.9787    0.4093    2.6927 H   0  0  0  0  0  0  0  0  0  0  0  0
  1  2  1  0
  1 15  1  0
  1 16  1  0
  1 17  1  0
  3  2  1  6
  2 18  1  0
  2 19  1  0
  3  4  1  0
  3 11  1  0
  3 14  1  0
  4  5  1  0
  4 20  1  0
  4 21  1  0
  5  6  1  0
  5 22  1  0
  5 23  1  0
  7  6  1  6
  6 24  1  0
  6 25  1  0
  7  8  1  0
  7  9  2  0
  7 10  2  0
  8 26  1  0
  8 27  1  0
  8 28  1  0
 11 12  1  0
 11 29  1  0
 11 30  1  0
 12 13  1  0
 12 31  1  0
 12 32  1  0
 13 14  1  0
 13 33  1  0
 13 34  1  0
 14 35  1  0
M  END

