
     RDKit          3D

 55 59  0  0  0  0  0  0  0  0999 V2000
    3.2404    0.6929    2.6748 C   0  0  0  0  0  0  0  0  0  0  0  0
    3.4638    0.3032    1.2330 C   0  0  0  0  0  0  0  0  0  0  0  0
    3.0487    1.1298    0.1809 C   0  0  0  0  0  0  0  0  0  0  0  0
    3.2506    0.7363   -1.1448 C   0  0  0  0  0  0  0  0  0  0  0  0
    3.8599   -0.4789   -1.4519 C   0  0  0  0  0  0  0  0  0  0  0  0
    4.2847   -1.3223   -0.4077 C   0  0  0  0  0  0  0  0  0  0  0  0
    4.9104   -2.5661   -0.6884 N   0  0  0  0  0  0  0  0  0  0  0  0
    5.6555   -2.8310   -1.8302 C   0  0  0  0  0  0  0  0  0  0  0  0
    5.8619   -2.0997   -2.7718 O   0  0  0  0  0  0  0  0  0  0  0  0
    6.1790   -4.2506   -1.6643 C   0  0  0  0  0  0  0  0  0  0  0  0
    6.8688   -4.8414   -2.5080 O   0  0  0  0  0  0  0  0  0  0  0  0
    5.7325   -4.7472   -0.4009 C   0  0  0  0  0  0  0  0  0  0  0  0
    6.1016   -6.0411   -0.0262 C   0  0  0  0  0  0  0  0  0  0  0  0
    6.8075   -6.7525   -0.8867 O   0  0  0  0  0  0  0  0  0  0  0  0
    5.7869   -6.7508    1.2224 C   0  0  0  0  0  0  0  0  0  0  0  0
    5.5551   -6.0783    2.4390 C   0  0  0  0  0  0  0  0  0  0  0  0
    5.2842   -6.7673    3.6218 C   0  0  0  0  0  0  0  0  0  0  0  0
    5.2380   -8.1613    3.5642 C   0  0  0  0  0  0  0  0  0  0  0  0
    5.4798   -8.8605    2.3689 C   0  0  0  0  0  0  0  0  0  0  0  0
    5.7683   -8.1680    1.2069 C   0  0  0  0  0  0  0  0  0  0  0  0
    5.4206  -10.3358    2.6878 C   0  0  0  0  0  0  0  0  0  0  0  0
    4.8371  -10.3362    4.1244 C   0  0  1  0  0  0  0  0  0  0  0  0
    5.4972  -11.2793    5.1095 C   0  0  0  0  0  0  0  0  0  0  0  0
    4.9786   -8.9664    4.6101 O   0  0  0  0  0  0  0  0  0  0  0  0
    4.8329   -3.7113    0.2506 C   0  0  2  0  0  0  0  0  0  0  0  0
    3.3872   -4.1727    0.4475 C   0  0  0  0  0  0  0  0  0  0  0  0
    2.6348   -4.6435   -0.6391 C   0  0  0  0  0  0  0  0  0  0  0  0
    1.3166   -5.0552   -0.4655 C   0  0  0  0  0  0  0  0  0  0  0  0
    0.7188   -5.0097    0.8009 C   0  0  0  0  0  0  0  0  0  0  0  0
   -0.9280   -5.5367    0.9870 Cl  0  0  0  0  0  0  0  0  0  0  0  0
    1.4613   -4.5388    1.8934 C   0  0  0  0  0  0  0  0  0  0  0  0
    0.7688   -4.4555    3.4887 Cl  0  0  0  0  0  0  0  0  0  0  0  0
    2.7847   -4.1218    1.7061 C   0  0  0  0  0  0  0  0  0  0  0  0
    4.0849   -0.9153    0.9217 C   0  0  0  0  0  0  0  0  0  0  0  0
    2.9717    1.7554    2.7681 H   0  0  0  0  0  0  0  0  0  0  0  0
    4.1398    0.5160    3.2865 H   0  0  0  0  0  0  0  0  0  0  0  0
    2.4221    0.1035    3.1239 H   0  0  0  0  0  0  0  0  0  0  0  0
    2.5667    2.0861    0.4004 H   0  0  0  0  0  0  0  0  0  0  0  0
    2.9262    1.3885   -1.9598 H   0  0  0  0  0  0  0  0  0  0  0  0
    4.0275   -0.7690   -2.4860 H   0  0  0  0  0  0  0  0  0  0  0  0
    6.9744   -6.1731   -1.7089 H   0  0  0  0  0  0  0  0  0  0  0  0
    5.6238   -4.9920    2.4771 H   0  0  0  0  0  0  0  0  0  0  0  0
    5.1148   -6.2438    4.5638 H   0  0  0  0  0  0  0  0  0  0  0  0
    5.9781   -8.6908    0.2727 H   0  0  0  0  0  0  0  0  0  0  0  0
    6.4299  -10.7845    2.6668 H   0  0  0  0  0  0  0  0  0  0  0  0
    4.7921  -10.9107    1.9911 H   0  0  0  0  0  0  0  0  0  0  0  0
    3.7504  -10.5313    4.0866 H   0  0  0  0  0  0  0  0  0  0  0  0
    6.5785  -11.0804    5.1739 H   0  0  0  0  0  0  0  0  0  0  0  0
    5.3522  -12.3234    4.7898 H   0  0  0  0  0  0  0  0  0  0  0  0
    5.0613  -11.1623    6.1128 H   0  0  0  0  0  0  0  0  0  0  0  0
    5.2316   -3.3903    1.2257 H   0  0  0  0  0  0  0  0  0  0  0  0
    3.0807   -4.6902   -1.6352 H   0  0  0  0  0  0  0  0  0  0  0  0
    0.7302   -5.4199   -1.3103 H   0  0  0  0  0  0  0  0  0  0  0  0
    3.3338   -3.7544    2.5744 H   0  0  0  0  0  0  0  0  0  0  0  0
    4.4252   -1.5452    1.7443 H   0  0  0  0  0  0  0  0  0  0  0  0
  1  2  1  0
  1 35  1  0
  1 36  1  0
  1 37  1  0
  2  3  2  0
  2 34  1  0
  3  4  1  0
  3 38  1  0
  4  5  2  0
  4 39  1  0
  5  6  1  0
  5 40  1  0
  6  7  1  0
  6 34  2  0
  7  8  1  0
  7 25  1  0
  8  9  2  0
  8 10  1  0
 10 11  2  0
 10 12  1  0
 12 13  2  0
 12 25  1  0
 13 14  1  0
 13 15  1  0
 14 41  1  0
 15 16  2  0
 15 20  1  0
 16 17  1  0
 16 42  1  0
 17 18  2  0
 17 43  1  0
 18 19  1  0
 18 24  1  0
 19 20  2  0
 19 21  1  0
 20 44  1  0
 21 22  1  0
 21 45  1  0
 21 46  1  0
 22 23  1  0
 22 24  1  0
 22 47  1  6
 23 48  1  0
 23 49  1  0
 23 50  1  0
 25 26  1  0
 25 51  1  1
 26 27  2  0
 26 33  1  0
 27 28  1  0
 27 52  1  0
 28 29  2  0
 28 53  1  0
 29 30  1  0
 29 31  1  0
 31 32  1  0
 31 33  2  0
 33 54  1  0
 34 55  1  0
M  END

