
     RDKit          3D

 33 35  0  0  0  0  0  0  0  0999 V2000
    5.1028   -1.4204    1.1846 C   0  0  0  0  0  0  0  0  0  0  0  0
    4.0824   -0.5314    0.6648 N   0  0  0  0  0  0  0  0  0  0  0  0
    4.2174    0.8108    0.7633 N   0  0  0  0  0  0  0  0  0  0  0  0
    3.1062    1.2580    0.2074 C   0  0  0  0  0  0  0  0  0  0  0  0
    2.2679    0.2880   -0.2424 N   0  0  0  0  0  0  0  0  0  0  0  0
    2.9037   -0.8378    0.0605 C   0  0  0  0  0  0  0  0  0  0  0  0
    2.4463   -2.2376   -0.2131 C   0  0  0  0  0  0  0  0  0  0  0  0
    0.9217   -2.3449   -0.4355 C   0  0  1  0  0  0  0  0  0  0  0  0
    0.4013   -1.6127   -1.5823 N   0  0  0  0  0  0  0  0  0  0  0  0
    0.4660   -3.8011   -0.4852 C   0  0  0  0  0  0  0  0  0  0  0  0
   -0.8170   -4.1263   -1.0437 C   0  0  0  0  0  0  0  0  0  0  0  0
   -1.2837   -5.3509   -1.0739 N   0  0  0  0  0  0  0  0  0  0  0  0
   -0.4952   -6.3346   -0.5566 C   0  0  0  0  0  0  0  0  0  0  0  0
   -0.9434   -7.6824   -0.5630 C   0  0  0  0  0  0  0  0  0  0  0  0
   -0.1444   -8.6791   -0.0412 C   0  0  0  0  0  0  0  0  0  0  0  0
    1.1289   -8.3704    0.5051 C   0  0  0  0  0  0  0  0  0  0  0  0
    1.5894   -7.0695    0.5247 C   0  0  0  0  0  0  0  0  0  0  0  0
    0.7877   -6.0230   -0.0043 C   0  0  0  0  0  0  0  0  0  0  0  0
    1.2392   -4.7380    0.0169 N   0  0  0  0  0  0  0  0  0  0  0  0
    5.9454   -0.7973    1.5061 H   0  0  0  0  0  0  0  0  0  0  0  0
    5.4433   -2.1223    0.4087 H   0  0  0  0  0  0  0  0  0  0  0  0
    4.7280   -1.9955    2.0460 H   0  0  0  0  0  0  0  0  0  0  0  0
    2.8937    2.3234    0.1225 H   0  0  0  0  0  0  0  0  0  0  0  0
    2.7422   -2.9038    0.6107 H   0  0  0  0  0  0  0  0  0  0  0  0
    2.9647   -2.6331   -1.1076 H   0  0  0  0  0  0  0  0  0  0  0  0
    0.4364   -1.9034    0.4566 H   0  0  0  0  0  0  0  0  0  0  0  0
    0.8666   -1.9203   -2.4387 H   0  0  0  0  0  0  0  0  0  0  0  0
    0.6292   -0.6243   -1.4578 H   0  0  0  0  0  0  0  0  0  0  0  0
   -1.4259   -3.3211   -1.4647 H   0  0  0  0  0  0  0  0  0  0  0  0
   -1.9267   -7.8893   -0.9904 H   0  0  0  0  0  0  0  0  0  0  0  0
   -0.4898   -9.7160   -0.0460 H   0  0  0  0  0  0  0  0  0  0  0  0
    1.7469   -9.1741    0.9136 H   0  0  0  0  0  0  0  0  0  0  0  0
    2.5648   -6.8075    0.9400 H   0  0  0  0  0  0  0  0  0  0  0  0
  1  2  1  0
  1 20  1  0
  1 21  1  0
  1 22  1  0
  2  3  1  0
  2  6  1  0
  3  4  2  0
  4  5  1  0
  4 23  1  0
  5  6  2  0
  6  7  1  0
  7  8  1  0
  7 24  1  0
  7 25  1  0
  8  9  1  0
  8 10  1  0
  8 26  1  1
  9 27  1  0
  9 28  1  0
 10 11  2  0
 10 19  1  0
 11 12  1  0
 11 29  1  0
 12 13  2  0
 13 14  1  0
 13 18  1  0
 14 15  2  0
 14 30  1  0
 15 16  1  0
 15 31  1  0
 16 17  2  0
 16 32  1  0
 17 18  1  0
 17 33  1  0
 18 19  2  0
M  END

