
     RDKit          3D

 28 29  0  0  0  0  0  0  0  0999 V2000
    4.4980    0.0892    3.0215 O   0  0  0  0  0  0  0  0  0  0  0  0
    4.3689    0.4885    1.8928 C   0  0  0  0  0  0  0  0  0  0  0  0
    5.2573    1.4860    1.1466 C   0  0  0  0  0  0  0  0  0  0  0  0
    4.5275    1.6950   -0.0969 N   0  0  0  0  0  0  0  0  0  0  0  0
    5.1306    2.2196   -1.2097 N   0  0  0  0  0  0  0  0  0  0  0  0
    5.9602    1.4217   -1.9783 C   0  0  0  0  0  0  0  0  0  0  0  0
    6.2949    0.3143   -1.6201 O   0  0  0  0  0  0  0  0  0  0  0  0
    6.4187    2.0628   -3.2953 C   0  0  0  0  0  0  0  0  0  0  0  0
    7.1777    3.3614   -3.1452 C   0  0  0  0  0  0  0  0  0  0  0  0
    6.4969    4.5844   -3.0819 C   0  0  0  0  0  0  0  0  0  0  0  0
    5.1437    4.5487   -3.1238 F   0  0  0  0  0  0  0  0  0  0  0  0
    7.1202    5.8197   -2.9649 C   0  0  0  0  0  0  0  0  0  0  0  0
    8.5151    5.8512   -2.9009 C   0  0  0  0  0  0  0  0  0  0  0  0
    9.2487    4.6653   -2.9496 C   0  0  0  0  0  0  0  0  0  0  0  0
    8.5816    3.4406   -3.0664 C   0  0  0  0  0  0  0  0  0  0  0  0
    9.5396    1.9801   -3.1199 Cl  0  0  0  0  0  0  0  0  0  0  0  0
    3.4808    0.7810   -0.2454 C   0  0  0  0  0  0  0  0  0  0  0  0
    2.7973    0.6083   -1.2202 O   0  0  0  0  0  0  0  0  0  0  0  0
    3.3782    0.1351    0.9928 N   0  0  0  0  0  0  0  0  0  0  0  0
    6.2453    1.0281    0.9695 H   0  0  0  0  0  0  0  0  0  0  0  0
    5.3827    2.4079    1.7366 H   0  0  0  0  0  0  0  0  0  0  0  0
    4.7171    3.0621   -1.5994 H   0  0  0  0  0  0  0  0  0  0  0  0
    5.5225    2.2340   -3.9128 H   0  0  0  0  0  0  0  0  0  0  0  0
    7.0441    1.3114   -3.7893 H   0  0  0  0  0  0  0  0  0  0  0  0
    6.5131    6.7254   -2.9248 H   0  0  0  0  0  0  0  0  0  0  0  0
    9.0348    6.8075   -2.8092 H   0  0  0  0  0  0  0  0  0  0  0  0
   10.3379    4.6758   -2.8975 H   0  0  0  0  0  0  0  0  0  0  0  0
    2.6478   -0.5406    1.1916 H   0  0  0  0  0  0  0  0  0  0  0  0
  1  2  2  0
  2  3  1  0
  2 19  1  0
  3  4  1  0
  3 20  1  0
  3 21  1  0
  4  5  1  0
  4 17  1  0
  5  6  1  0
  5 22  1  0
  6  7  2  0
  6  8  1  0
  8  9  1  0
  8 23  1  0
  8 24  1  0
  9 10  2  0
  9 15  1  0
 10 11  1  0
 10 12  1  0
 12 13  2  0
 12 25  1  0
 13 14  1  0
 13 26  1  0
 14 15  2  0
 14 27  1  0
 15 16  1  0
 17 18  2  0
 17 19  1  0
 19 28  1  0
M  END

