
     RDKit          3D

 41 43  0  0  0  0  0  0  0  0999 V2000
    4.9493    0.9397    0.6277 C   0  0  0  0  0  0  0  0  0  0  0  0
    4.3083   -0.4175    0.9680 C   0  0  1  0  0  0  0  0  0  0  0  0
    2.8874   -0.2692    1.2938 N   0  0  0  0  0  0  0  0  0  0  0  0
    2.5113    0.4387    2.5240 C   0  0  1  0  0  0  0  0  0  0  0  0
    0.9885    0.6203    2.5114 C   0  0  0  0  0  0  0  0  0  0  0  0
    0.1589    0.2152    3.5661 C   0  0  0  0  0  0  0  0  0  0  0  0
   -1.2275    0.4056    3.5040 C   0  0  0  0  0  0  0  0  0  0  0  0
   -1.8071    1.0085    2.3872 C   0  0  0  0  0  0  0  0  0  0  0  0
   -0.9894    1.4189    1.3275 C   0  0  0  0  0  0  0  0  0  0  0  0
    0.3902    1.2223    1.3897 C   0  0  0  0  0  0  0  0  0  0  0  0
    3.0431   -0.1965    3.8055 C   0  0  1  0  0  0  0  0  0  0  0  0
    4.4092    0.1591    4.3434 C   0  0  0  0  0  0  0  0  0  0  0  0
    3.1741    0.6142    5.0721 C   0  0  0  0  0  0  0  0  0  0  0  0
    4.4673   -1.3721   -0.2081 C   0  0  0  0  0  0  0  0  0  0  0  0
    3.4675   -1.5244   -1.1762 C   0  0  0  0  0  0  0  0  0  0  0  0
    3.6529   -2.3871   -2.2544 C   0  0  0  0  0  0  0  0  0  0  0  0
    2.6724   -2.5155   -3.1667 F   0  0  0  0  0  0  0  0  0  0  0  0
    4.8255   -3.1170   -2.4074 C   0  0  0  0  0  0  0  0  0  0  0  0
    5.8344   -2.9664   -1.4515 C   0  0  0  0  0  0  0  0  0  0  0  0
    5.6662   -2.1015   -0.3642 C   0  0  0  0  0  0  0  0  0  0  0  0
    6.6412   -1.9233    0.5753 O   0  0  0  0  0  0  0  0  0  0  0  0
    4.9126    1.6345    1.4810 H   0  0  0  0  0  0  0  0  0  0  0  0
    4.4266    1.4073   -0.2210 H   0  0  0  0  0  0  0  0  0  0  0  0
    6.0070    0.8002    0.3613 H   0  0  0  0  0  0  0  0  0  0  0  0
    4.8847   -0.8508    1.8067 H   0  0  0  0  0  0  0  0  0  0  0  0
    2.4380   -1.1846    1.2936 H   0  0  0  0  0  0  0  0  0  0  0  0
    2.9475    1.4526    2.4610 H   0  0  0  0  0  0  0  0  0  0  0  0
    0.5904   -0.2497    4.4532 H   0  0  0  0  0  0  0  0  0  0  0  0
   -1.8547    0.0789    4.3380 H   0  0  0  0  0  0  0  0  0  0  0  0
   -2.8888    1.1587    2.3397 H   0  0  0  0  0  0  0  0  0  0  0  0
   -1.4313    1.8930    0.4469 H   0  0  0  0  0  0  0  0  0  0  0  0
    1.0257    1.5261    0.5550 H   0  0  0  0  0  0  0  0  0  0  0  0
    2.7398   -1.2430    3.9352 H   0  0  0  0  0  0  0  0  0  0  0  0
    4.9950    0.9137    3.8105 H   0  0  0  0  0  0  0  0  0  0  0  0
    5.0131   -0.6382    4.7857 H   0  0  0  0  0  0  0  0  0  0  0  0
    2.9097    1.6752    5.0220 H   0  0  0  0  0  0  0  0  0  0  0  0
    2.9222    0.1392    6.0245 H   0  0  0  0  0  0  0  0  0  0  0  0
    2.5346   -0.9664   -1.0871 H   0  0  0  0  0  0  0  0  0  0  0  0
    4.9426   -3.7887   -3.2597 H   0  0  0  0  0  0  0  0  0  0  0  0
    6.7674   -3.5299   -1.5535 H   0  0  0  0  0  0  0  0  0  0  0  0
    7.3952   -2.4900    0.3679 H   0  0  0  0  0  0  0  0  0  0  0  0
  1  2  1  0
  1 22  1  0
  1 23  1  0
  1 24  1  0
  2  3  1  0
  2 14  1  0
  2 25  1  1
  3  4  1  0
  3 26  1  0
  4  5  1  0
  4 11  1  0
  4 27  1  6
  5  6  2  0
  5 10  1  0
  6  7  1  0
  6 28  1  0
  7  8  2  0
  7 29  1  0
  8  9  1  0
  8 30  1  0
  9 10  2  0
  9 31  1  0
 10 32  1  0
 11 12  1  0
 11 13  1  0
 11 33  1  1
 12 13  1  0
 12 34  1  0
 12 35  1  0
 13 36  1  0
 13 37  1  0
 14 15  2  0
 14 20  1  0
 15 16  1  0
 15 38  1  0
 16 17  1  0
 16 18  2  0
 18 19  1  0
 18 39  1  0
 19 20  2  0
 19 40  1  0
 20 21  1  0
 21 41  1  0
M  END

