
     RDKit          3D

 36 37  0  0  0  0  0  0  0  0999 V2000
    1.5645    0.2856   -1.3583 C   0  0  0  0  0  0  0  0  0  0  0  0
    2.3411   -0.1807   -0.1114 C   0  0  1  0  0  0  0  0  0  0  0  0
    3.0517   -1.4411   -0.2994 N   0  0  0  0  0  0  0  0  0  0  0  0
    4.1498   -1.6729   -1.0853 C   0  0  0  0  0  0  0  0  0  0  0  0
    4.4622   -2.7914   -1.4501 O   0  0  0  0  0  0  0  0  0  0  0  0
    5.0007   -0.4469   -1.3754 C   0  0  0  0  0  0  0  0  0  0  0  0
    5.4563    0.2663   -0.1041 C   0  0  0  0  0  0  0  0  0  0  0  0
    4.4582    1.1039    0.5653 N   0  0  0  0  0  0  0  0  0  0  0  0
    5.0037    2.2235    1.3378 C   0  0  0  0  0  0  0  0  0  0  0  0
    5.0899    3.5299    0.5221 C   0  0  0  0  0  0  0  0  0  0  0  0
    5.7269    4.6549    1.3000 C   0  0  0  0  0  0  0  0  0  0  0  0
    4.9330    5.5812    1.9969 C   0  0  0  0  0  0  0  0  0  0  0  0
    5.4821    6.6191    2.7501 C   0  0  0  0  0  0  0  0  0  0  0  0
    6.8717    6.7456    2.8178 C   0  0  0  0  0  0  0  0  0  0  0  0
    7.5856    8.0392    3.7498 Cl  0  0  0  0  0  0  0  0  0  0  0  0
    7.7024    5.8475    2.1453 C   0  0  0  0  0  0  0  0  0  0  0  0
    7.1206    4.8166    1.4033 C   0  0  0  0  0  0  0  0  0  0  0  0
    8.2028    3.7050    0.5751 Cl  0  0  0  0  0  0  0  0  0  0  0  0
    3.0938    1.0095    0.5256 C   0  0  0  0  0  0  0  0  0  0  0  0
    2.3890    1.8851    1.0152 O   0  0  0  0  0  0  0  0  0  0  0  0
    0.8769   -0.5068   -1.6916 H   0  0  0  0  0  0  0  0  0  0  0  0
    2.2377    0.5249   -2.1962 H   0  0  0  0  0  0  0  0  0  0  0  0
    0.9791    1.1830   -1.1141 H   0  0  0  0  0  0  0  0  0  0  0  0
    1.5927   -0.3863    0.6679 H   0  0  0  0  0  0  0  0  0  0  0  0
    2.5106   -2.2836   -0.1230 H   0  0  0  0  0  0  0  0  0  0  0  0
    4.4707    0.2590   -2.0366 H   0  0  0  0  0  0  0  0  0  0  0  0
    5.8822   -0.8114   -1.9196 H   0  0  0  0  0  0  0  0  0  0  0  0
    6.2903    0.9338   -0.3722 H   0  0  0  0  0  0  0  0  0  0  0  0
    5.8716   -0.4747    0.6052 H   0  0  0  0  0  0  0  0  0  0  0  0
    6.0030    1.9337    1.6958 H   0  0  0  0  0  0  0  0  0  0  0  0
    4.3606    2.3883    2.2121 H   0  0  0  0  0  0  0  0  0  0  0  0
    4.0675    3.8135    0.2348 H   0  0  0  0  0  0  0  0  0  0  0  0
    5.6620    3.3453   -0.4007 H   0  0  0  0  0  0  0  0  0  0  0  0
    3.8456    5.4821    1.9406 H   0  0  0  0  0  0  0  0  0  0  0  0
    4.8427    7.3270    3.2792 H   0  0  0  0  0  0  0  0  0  0  0  0
    8.7864    5.9460    2.1971 H   0  0  0  0  0  0  0  0  0  0  0  0
  1  2  1  0
  1 21  1  0
  1 22  1  0
  1 23  1  0
  2  3  1  0
  2 19  1  0
  2 24  1  1
  3  4  1  0
  3 25  1  0
  4  5  2  0
  4  6  1  0
  6  7  1  0
  6 26  1  0
  6 27  1  0
  7  8  1  0
  7 28  1  0
  7 29  1  0
  8  9  1  0
  8 19  1  0
  9 10  1  0
  9 30  1  0
  9 31  1  0
 10 11  1  0
 10 32  1  0
 10 33  1  0
 11 12  2  0
 11 17  1  0
 12 13  1  0
 12 34  1  0
 13 14  2  0
 13 35  1  0
 14 15  1  0
 14 16  1  0
 16 17  2  0
 16 36  1  0
 17 18  1  0
 19 20  2  0
M  END

