
     RDKit          3D

 39 40  0  0  0  0  0  0  0  0999 V2000
    2.3888    0.7146    0.9361 C   0  0  0  0  0  0  0  0  0  0  0  0
    3.2738    0.0427   -0.4815 S   0  0  1  0  0  0  0  0  0  0  0  0
    3.3057    1.0952   -1.5021 O   0  0  0  0  0  0  0  0  0  0  0  0
    4.5058   -0.5590    0.0358 O   0  0  0  0  0  0  0  0  0  0  0  0
    2.2720   -1.1858   -1.0480 N   0  0  0  0  0  0  0  0  0  0  0  0
    2.5283   -2.5587   -0.6114 C   0  0  0  0  0  0  0  0  0  0  0  0
    3.1938   -3.4527   -1.6637 C   0  0  0  0  0  0  0  0  0  0  0  0
    2.3211   -3.6966   -2.9095 C   0  0  0  0  0  0  0  0  0  0  0  0
    2.3423   -2.6812   -3.9669 N   0  0  0  0  0  0  0  0  0  0  0  0
    3.3286   -2.9373   -5.0062 C   0  0  0  0  0  0  0  0  0  0  0  0
    2.9306   -4.0111   -6.0324 C   0  0  0  0  0  0  0  0  0  0  0  0
    3.7572   -4.5312   -6.7591 O   0  0  0  0  0  0  0  0  0  0  0  0
    1.5924   -4.2751   -6.0713 N   0  0  0  0  0  0  0  0  0  0  0  0
    0.9917   -5.1248   -7.0518 C   0  0  1  0  0  0  0  0  0  0  0  0
    1.1259   -6.6188   -6.9214 C   0  0  0  0  0  0  0  0  0  0  0  0
   -0.1977   -5.9532   -6.6420 C   0  0  0  0  0  0  0  0  0  0  0  0
    2.2936   -1.2685   -3.5737 C   0  0  0  0  0  0  0  0  0  0  0  0
    1.5228   -0.9582   -2.2859 C   0  0  0  0  0  0  0  0  0  0  0  0
    3.0153    1.5208    1.3419 H   0  0  0  0  0  0  0  0  0  0  0  0
    2.2553   -0.0790    1.6826 H   0  0  0  0  0  0  0  0  0  0  0  0
    1.4229    1.1100    0.5969 H   0  0  0  0  0  0  0  0  0  0  0  0
    1.5628   -3.0102   -0.3118 H   0  0  0  0  0  0  0  0  0  0  0  0
    3.1609   -2.5144    0.2847 H   0  0  0  0  0  0  0  0  0  0  0  0
    3.3924   -4.4271   -1.1845 H   0  0  0  0  0  0  0  0  0  0  0  0
    4.1753   -3.0332   -1.9406 H   0  0  0  0  0  0  0  0  0  0  0  0
    1.2795   -3.8570   -2.5711 H   0  0  0  0  0  0  0  0  0  0  0  0
    2.6165   -4.6459   -3.3799 H   0  0  0  0  0  0  0  0  0  0  0  0
    4.3299   -3.2187   -4.6226 H   0  0  0  0  0  0  0  0  0  0  0  0
    3.4826   -2.0139   -5.5893 H   0  0  0  0  0  0  0  0  0  0  0  0
    1.0174   -3.6986   -5.4611 H   0  0  0  0  0  0  0  0  0  0  0  0
    0.9969   -4.7265   -8.0747 H   0  0  0  0  0  0  0  0  0  0  0  0
    1.7020   -6.9919   -6.0713 H   0  0  0  0  0  0  0  0  0  0  0  0
    1.2416   -7.2000   -7.8398 H   0  0  0  0  0  0  0  0  0  0  0  0
   -0.5215   -5.8840   -5.5990 H   0  0  0  0  0  0  0  0  0  0  0  0
   -1.0136   -6.0712   -7.3602 H   0  0  0  0  0  0  0  0  0  0  0  0
    1.8189   -0.7034   -4.3964 H   0  0  0  0  0  0  0  0  0  0  0  0
    3.3047   -0.8330   -3.4487 H   0  0  0  0  0  0  0  0  0  0  0  0
    0.5870   -1.5410   -2.2329 H   0  0  0  0  0  0  0  0  0  0  0  0
    1.2392    0.1015   -2.3191 H   0  0  0  0  0  0  0  0  0  0  0  0
  2  1  1  1
  1 19  1  0
  1 20  1  0
  1 21  1  0
  2  3  2  0
  2  4  2  0
  2  5  1  0
  5  6  1  0
  5 18  1  0
  6  7  1  0
  6 22  1  0
  6 23  1  0
  7  8  1  0
  7 24  1  0
  7 25  1  0
  8  9  1  0
  8 26  1  0
  8 27  1  0
  9 10  1  0
  9 17  1  0
 10 11  1  0
 10 28  1  0
 10 29  1  0
 11 12  2  0
 11 13  1  0
 13 14  1  0
 13 30  1  0
 14 15  1  0
 14 16  1  0
 14 31  1  6
 15 16  1  0
 15 32  1  0
 15 33  1  0
 16 34  1  0
 16 35  1  0
 17 18  1  0
 17 36  1  0
 17 37  1  0
 18 38  1  0
 18 39  1  0
M  END

