
     RDKit          3D

 43 45  0  0  0  0  0  0  0  0999 V2000
    2.6681   -1.6432   -1.2419 O   0  0  0  0  0  0  0  0  0  0  0  0
    2.2289   -2.5061   -0.2090 C   0  0  0  0  0  0  0  0  0  0  0  0
    2.7179   -1.9018    1.1164 C   0  0  1  0  0  0  0  0  0  0  0  0
    2.3348   -0.5094    1.3356 N   0  0  0  0  0  0  0  0  0  0  0  0
    0.9005   -0.1859    1.4164 C   0  0  2  0  0  0  0  0  0  0  0  0
    0.3167    0.3835    0.1013 C   0  0  0  0  0  0  0  0  0  0  0  0
    0.8038    1.8109   -0.1789 C   0  0  0  0  0  0  0  0  0  0  0  0
    0.5381    2.6669    0.9561 N   0  0  0  0  0  0  0  0  0  0  0  0
    0.9023    4.0670    0.8303 C   0  0  0  0  0  0  0  0  0  0  0  0
    0.7816    4.6139    2.2719 C   0  0  0  0  0  0  0  0  0  0  0  0
    0.8097    3.3498    3.1745 C   0  0  0  0  0  0  0  0  0  0  0  0
    1.1401    2.2047    2.2061 C   0  0  1  0  0  0  0  0  0  0  0  0
    0.6252    0.8143    2.5613 C   0  0  0  0  0  0  0  0  0  0  0  0
    2.3967   -2.7594    2.3401 C   0  0  0  0  0  0  0  0  0  0  0  0
    1.7639   -4.0095    2.2743 C   0  0  0  0  0  0  0  0  0  0  0  0
    1.5280   -4.7614    3.4305 C   0  0  0  0  0  0  0  0  0  0  0  0
    1.9211   -4.2764    4.6773 C   0  0  0  0  0  0  0  0  0  0  0  0
    1.6397   -5.1888    6.1322 Cl  0  0  0  0  0  0  0  0  0  0  0  0
    2.5516   -3.0263    4.7480 C   0  0  0  0  0  0  0  0  0  0  0  0
    2.9339   -2.5465    5.9343 F   0  0  0  0  0  0  0  0  0  0  0  0
    2.7831   -2.2782    3.6017 C   0  0  0  0  0  0  0  0  0  0  0  0
    2.3692   -1.9945   -2.0891 H   0  0  0  0  0  0  0  0  0  0  0  0
    2.6557   -3.5203   -0.3296 H   0  0  0  0  0  0  0  0  0  0  0  0
    1.1255   -2.6076   -0.2060 H   0  0  0  0  0  0  0  0  0  0  0  0
    3.8204   -1.8841    1.0283 H   0  0  0  0  0  0  0  0  0  0  0  0
    2.8059    0.0740    0.6491 H   0  0  0  0  0  0  0  0  0  0  0  0
    0.3678   -1.1206    1.6571 H   0  0  0  0  0  0  0  0  0  0  0  0
   -0.7832    0.4039    0.1821 H   0  0  0  0  0  0  0  0  0  0  0  0
    0.5865   -0.2643   -0.7455 H   0  0  0  0  0  0  0  0  0  0  0  0
    0.2890    2.2139   -1.0678 H   0  0  0  0  0  0  0  0  0  0  0  0
    1.8931    1.7984   -0.4370 H   0  0  0  0  0  0  0  0  0  0  0  0
    0.2469    4.5843    0.1095 H   0  0  0  0  0  0  0  0  0  0  0  0
    1.9491    4.1840    0.4615 H   0  0  0  0  0  0  0  0  0  0  0  0
   -0.1576    5.1709    2.4064 H   0  0  0  0  0  0  0  0  0  0  0  0
    1.6040    5.3083    2.5006 H   0  0  0  0  0  0  0  0  0  0  0  0
   -0.1794    3.1759    3.6270 H   0  0  0  0  0  0  0  0  0  0  0  0
    1.5410    3.4217    3.9936 H   0  0  0  0  0  0  0  0  0  0  0  0
    2.2515    2.1416    2.0974 H   0  0  0  0  0  0  0  0  0  0  0  0
   -0.4633    0.8781    2.7346 H   0  0  0  0  0  0  0  0  0  0  0  0
    1.0975    0.4514    3.4872 H   0  0  0  0  0  0  0  0  0  0  0  0
    1.4405   -4.4240    1.3188 H   0  0  0  0  0  0  0  0  0  0  0  0
    1.0327   -5.7322    3.3729 H   0  0  0  0  0  0  0  0  0  0  0  0
    3.2601   -1.3010    3.6926 H   0  0  0  0  0  0  0  0  0  0  0  0
  1  2  1  0
  1 22  1  0
  2  3  1  0
  2 23  1  0
  2 24  1  0
  3  4  1  0
  3 14  1  0
  3 25  1  6
  4  5  1  0
  4 26  1  0
  5  6  1  0
  5 13  1  0
  5 27  1  1
  6  7  1  0
  6 28  1  0
  6 29  1  0
  7  8  1  0
  7 30  1  0
  7 31  1  0
  8  9  1  0
  8 12  1  0
  9 10  1  0
  9 32  1  0
  9 33  1  0
 10 11  1  0
 10 34  1  0
 10 35  1  0
 11 12  1  0
 11 36  1  0
 11 37  1  0
 12 13  1  0
 12 38  1  6
 13 39  1  0
 13 40  1  0
 14 15  2  0
 14 21  1  0
 15 16  1  0
 15 41  1  0
 16 17  2  0
 16 42  1  0
 17 18  1  0
 17 19  1  0
 19 20  1  0
 19 21  2  0
 21 43  1  0
M  END

