
     RDKit          3D

 40 42  0  0  0  0  0  0  0  0999 V2000
    8.3282    0.7612    0.8796 N   0  0  0  0  0  0  0  0  0  0  0  0
    7.0084    1.0753    0.7497 C   0  0  0  0  0  0  0  0  0  0  0  0
    6.5170    2.0729    1.2476 O   0  0  0  0  0  0  0  0  0  0  0  0
    6.1803    0.0602   -0.0397 C   0  0  0  0  0  0  0  0  0  0  0  0
    4.9853    0.7019   -0.7409 C   0  0  0  0  0  0  0  0  0  0  0  0
    5.3857    1.6257   -1.8095 N   0  0  0  0  0  0  0  0  0  0  0  0
    5.0468    2.8922   -1.6603 N   0  0  0  0  0  0  0  0  0  0  0  0
    5.4068    3.7750   -2.5616 C   0  0  0  0  0  0  0  0  0  0  0  0
    4.8940    5.1549   -2.3397 C   0  0  0  0  0  0  0  0  0  0  0  0
    4.8648    5.6763   -1.0335 C   0  0  0  0  0  0  0  0  0  0  0  0
    4.3406    6.9472   -0.7910 C   0  0  0  0  0  0  0  0  0  0  0  0
    3.8300    7.7118   -1.8452 C   0  0  0  0  0  0  0  0  0  0  0  0
    3.8428    7.1952   -3.1445 C   0  0  0  0  0  0  0  0  0  0  0  0
    4.3712    5.9264   -3.3921 C   0  0  0  0  0  0  0  0  0  0  0  0
    6.2499    3.3320   -3.6683 C   0  0  0  0  0  0  0  0  0  0  0  0
    6.9430    4.2649   -4.6013 C   0  0  0  0  0  0  0  0  0  0  0  0
    7.4754    5.4943   -4.1731 C   0  0  0  0  0  0  0  0  0  0  0  0
    8.1859    6.3031   -5.0622 C   0  0  0  0  0  0  0  0  0  0  0  0
    8.3599    5.9052   -6.3912 C   0  0  0  0  0  0  0  0  0  0  0  0
    7.8381    4.6814   -6.8245 C   0  0  0  0  0  0  0  0  0  0  0  0
    7.1470    3.8607   -5.9335 C   0  0  0  0  0  0  0  0  0  0  0  0
    6.4739    2.0573   -3.8545 N   0  0  0  0  0  0  0  0  0  0  0  0
    5.9855    1.1065   -2.9849 C   0  0  0  0  0  0  0  0  0  0  0  0
    6.0766   -0.0959   -3.1444 O   0  0  0  0  0  0  0  0  0  0  0  0
    8.9221    1.3835    1.4154 H   0  0  0  0  0  0  0  0  0  0  0  0
    8.7415   -0.0423    0.4259 H   0  0  0  0  0  0  0  0  0  0  0  0
    5.7935   -0.6797    0.6832 H   0  0  0  0  0  0  0  0  0  0  0  0
    6.7896   -0.4967   -0.7670 H   0  0  0  0  0  0  0  0  0  0  0  0
    4.4055    1.3021   -0.0304 H   0  0  0  0  0  0  0  0  0  0  0  0
    4.3546   -0.0818   -1.1851 H   0  0  0  0  0  0  0  0  0  0  0  0
    5.2560    5.0693   -0.2140 H   0  0  0  0  0  0  0  0  0  0  0  0
    4.3305    7.3425    0.2280 H   0  0  0  0  0  0  0  0  0  0  0  0
    3.4193    8.7065   -1.6543 H   0  0  0  0  0  0  0  0  0  0  0  0
    3.4338    7.7809   -3.9717 H   0  0  0  0  0  0  0  0  0  0  0  0
    4.3666    5.5294   -4.4094 H   0  0  0  0  0  0  0  0  0  0  0  0
    7.3533    5.8138   -3.1373 H   0  0  0  0  0  0  0  0  0  0  0  0
    8.6060    7.2496   -4.7133 H   0  0  0  0  0  0  0  0  0  0  0  0
    8.9072    6.5458   -7.0876 H   0  0  0  0  0  0  0  0  0  0  0  0
    7.9773    4.3619   -7.8603 H   0  0  0  0  0  0  0  0  0  0  0  0
    6.7586    2.8917   -6.2511 H   0  0  0  0  0  0  0  0  0  0  0  0
  1  2  1  0
  1 25  1  0
  1 26  1  0
  2  3  2  0
  2  4  1  0
  4  5  1  0
  4 27  1  0
  4 28  1  0
  5  6  1  0
  5 29  1  0
  5 30  1  0
  6  7  1  0
  6 23  1  0
  7  8  2  0
  8  9  1  0
  8 15  1  0
  9 10  2  0
  9 14  1  0
 10 11  1  0
 10 31  1  0
 11 12  2  0
 11 32  1  0
 12 13  1  0
 12 33  1  0
 13 14  2  0
 13 34  1  0
 14 35  1  0
 15 16  1  0
 15 22  2  0
 16 17  2  0
 16 21  1  0
 17 18  1  0
 17 36  1  0
 18 19  2  0
 18 37  1  0
 19 20  1  0
 19 38  1  0
 20 21  2  0
 20 39  1  0
 21 40  1  0
 22 23  1  0
 23 24  2  0
M  END

