
     RDKit          3D

 48 49  0  0  0  0  0  0  0  0999 V2000
    1.0358    2.3263   -1.8021 C   0  0  0  0  0  0  0  0  0  0  0  0
    2.5477    2.4128   -1.6243 C   0  0  0  0  0  0  0  0  0  0  0  0
    3.0417    1.3387   -0.7754 N   0  0  0  0  0  0  0  0  0  0  0  0
    4.4831    1.3072   -0.5779 C   0  0  1  0  0  0  0  0  0  0  0  0
    5.0295    2.4185    0.3294 C   0  0  0  0  0  0  0  0  0  0  0  0
    6.4138    1.8861    0.7090 C   0  0  0  0  0  0  0  0  0  0  0  0
    6.2202    0.3575    0.9756 C   0  0  2  0  0  0  0  0  0  0  0  0
    5.9071    0.1498    2.4703 C   0  0  0  0  0  0  0  0  0  0  0  0
    7.4522   -0.4580    0.4506 C   0  0  1  0  0  0  0  0  0  0  0  0
    8.8485    0.0237    0.9214 C   0  0  0  0  0  0  0  0  0  0  0  0
    9.3494   -0.5812    2.2402 C   0  0  0  0  0  0  0  0  0  0  0  0
    9.2818   -2.1100    2.2157 C   0  0  0  0  0  0  0  0  0  0  0  0
    7.8645   -2.6177    1.9088 C   0  0  2  0  0  0  0  0  0  0  0  0
    7.8216   -4.1566    1.8842 C   0  0  0  0  0  0  0  0  0  0  0  0
    6.4247   -4.7758    1.7929 C   0  0  0  0  0  0  0  0  0  0  0  0
    7.3507   -2.0003    0.5910 C   0  0  0  0  0  0  0  0  0  0  0  0
    4.9364    0.0159    0.1339 C   0  0  0  0  0  0  0  0  0  0  0  0
    0.6590    3.1609   -2.4139 H   0  0  0  0  0  0  0  0  0  0  0  0
    0.5291    2.3501   -0.8248 H   0  0  0  0  0  0  0  0  0  0  0  0
    0.7465    1.3885   -2.3077 H   0  0  0  0  0  0  0  0  0  0  0  0
    2.8027    3.3764   -1.1505 H   0  0  0  0  0  0  0  0  0  0  0  0
    3.0408    2.4294   -2.6250 H   0  0  0  0  0  0  0  0  0  0  0  0
    2.7360    0.4442   -1.1597 H   0  0  0  0  0  0  0  0  0  0  0  0
    5.0263    1.3832   -1.5503 H   0  0  0  0  0  0  0  0  0  0  0  0
    4.3727    2.5067    1.2117 H   0  0  0  0  0  0  0  0  0  0  0  0
    5.0709    3.4075   -0.1541 H   0  0  0  0  0  0  0  0  0  0  0  0
    6.8581    2.4128    1.5682 H   0  0  0  0  0  0  0  0  0  0  0  0
    7.0975    2.0345   -0.1441 H   0  0  0  0  0  0  0  0  0  0  0  0
    6.7651    0.3961    3.1130 H   0  0  0  0  0  0  0  0  0  0  0  0
    5.6039   -0.8858    2.6861 H   0  0  0  0  0  0  0  0  0  0  0  0
    5.0707    0.7985    2.7772 H   0  0  0  0  0  0  0  0  0  0  0  0
    7.4291   -0.2606   -0.6362 H   0  0  0  0  0  0  0  0  0  0  0  0
    8.8842    1.1230    0.9700 H   0  0  0  0  0  0  0  0  0  0  0  0
    9.5719   -0.2607    0.1352 H   0  0  0  0  0  0  0  0  0  0  0  0
    8.7589   -0.2033    3.0915 H   0  0  0  0  0  0  0  0  0  0  0  0
   10.3864   -0.2502    2.4212 H   0  0  0  0  0  0  0  0  0  0  0  0
    9.6299   -2.5263    3.1769 H   0  0  0  0  0  0  0  0  0  0  0  0
    9.9753   -2.4944    1.4429 H   0  0  0  0  0  0  0  0  0  0  0  0
    7.2117   -2.2867    2.7363 H   0  0  0  0  0  0  0  0  0  0  0  0
    8.3156   -4.5289    2.7996 H   0  0  0  0  0  0  0  0  0  0  0  0
    8.4421   -4.5180    1.0426 H   0  0  0  0  0  0  0  0  0  0  0  0
    5.7796   -4.4319    2.6192 H   0  0  0  0  0  0  0  0  0  0  0  0
    6.4745   -5.8751    1.8490 H   0  0  0  0  0  0  0  0  0  0  0  0
    5.9161   -4.5219    0.8493 H   0  0  0  0  0  0  0  0  0  0  0  0
    6.3139   -2.3211    0.4053 H   0  0  0  0  0  0  0  0  0  0  0  0
    7.9495   -2.4470   -0.2254 H   0  0  0  0  0  0  0  0  0  0  0  0
    4.1168   -0.3107    0.7945 H   0  0  0  0  0  0  0  0  0  0  0  0
    5.1104   -0.7978   -0.5871 H   0  0  0  0  0  0  0  0  0  0  0  0
  1  2  1  0
  1 18  1  0
  1 19  1  0
  1 20  1  0
  2  3  1  0
  2 21  1  0
  2 22  1  0
  3  4  1  0
  3 23  1  0
  4  5  1  0
  4 17  1  0
  4 24  1  6
  5  6  1  0
  5 25  1  0
  5 26  1  0
  6  7  1  0
  6 27  1  0
  6 28  1  0
  7  8  1  1
  7  9  1  0
  7 17  1  0
  8 29  1  0
  8 30  1  0
  8 31  1  0
  9 10  1  0
  9 16  1  0
  9 32  1  6
 10 11  1  0
 10 33  1  0
 10 34  1  0
 11 12  1  0
 11 35  1  0
 11 36  1  0
 12 13  1  0
 12 37  1  0
 12 38  1  0
 13 14  1  0
 13 16  1  0
 13 39  1  1
 14 15  1  0
 14 40  1  0
 14 41  1  0
 15 42  1  0
 15 43  1  0
 15 44  1  0
 16 45  1  0
 16 46  1  0
 17 47  1  0
 17 48  1  0
M  END

