
     RDKit          3D

 60 64  0  0  0  0  0  0  0  0999 V2000
    0.4196   -0.0781    0.3622 C   0  0  0  0  0  0  0  0  0  0  0  0
    1.8754    0.1467   -0.0316 C   0  0  1  0  0  0  0  0  0  0  0  0
    1.9117    0.5580   -1.0528 H   0  0  0  0  0  0  0  0  0  0  0  0
    2.4864    1.1106    0.8508 O   0  0  0  0  0  0  0  0  0  0  0  0
    2.3308    2.4295    0.6129 C   0  0  0  0  0  0  0  0  0  0  0  0
    1.6498    2.8626   -0.4097 N   0  0  0  0  0  0  0  0  0  0  0  0
    1.5154    4.2161   -0.6440 C   0  0  0  0  0  0  0  0  0  0  0  0
    0.7262    4.5627   -1.8336 C   0  0  0  0  0  0  0  0  0  0  0  0
    0.1023    3.6665   -2.7419 C   0  0  0  0  0  0  0  0  0  0  0  0
   -0.5346    4.3099   -3.7141 N   0  0  0  0  0  0  0  0  0  0  0  0
   -0.3433    5.6183   -3.4649 N   0  0  0  0  0  0  0  0  0  0  0  0
   -0.9015    6.6642   -4.3311 C   0  0  1  0  0  0  0  0  0  0  0  0
   -0.3200    6.6218   -5.7613 C   0  0  0  0  0  0  0  0  0  0  0  0
   -1.0020    5.5653   -6.6541 C   0  0  0  0  0  0  0  0  0  0  0  0
   -2.4570    5.6754   -6.6792 N   0  0  0  0  0  0  0  0  0  0  0  0
   -2.9818    6.7498   -7.4973 C   0  0  0  0  0  0  0  0  0  0  0  0
   -3.0129    5.5891   -5.3325 C   0  0  0  0  0  0  0  0  0  0  0  0
   -2.4455    6.6459   -4.3631 C   0  0  0  0  0  0  0  0  0  0  0  0
    0.4059    5.8176   -2.3492 C   0  0  0  0  0  0  0  0  0  0  0  0
    2.0777    5.1791    0.1764 C   0  0  0  0  0  0  0  0  0  0  0  0
    2.8211    4.7283    1.2994 C   0  0  0  0  0  0  0  0  0  0  0  0
    3.4627    5.4359    2.2444 N   0  0  0  0  0  0  0  0  0  0  0  0
    3.9933    4.5052    3.0578 N   0  0  0  0  0  0  0  0  0  0  0  0
    4.7640    4.9418    4.2061 C   0  0  0  0  0  0  0  0  0  0  0  0
    3.7308    3.2291    2.6910 C   0  0  0  0  0  0  0  0  0  0  0  0
    2.9573    3.3221    1.5323 C   0  0  0  0  0  0  0  0  0  0  0  0
    2.7313   -1.1206    0.0327 C   0  0  1  0  0  0  0  0  0  0  0  0
    2.2338   -1.8701   -0.6054 H   0  0  0  0  0  0  0  0  0  0  0  0
    4.1710   -0.9231   -0.5069 C   0  0  0  0  0  0  0  0  0  0  0  0
    4.9299   -1.9172    0.2278 N   0  0  0  0  0  0  0  0  0  0  0  0
    4.3276   -2.3857    1.3666 C   0  0  0  0  0  0  0  0  0  0  0  0
    4.8181   -3.1500    2.1706 O   0  0  0  0  0  0  0  0  0  0  0  0
    2.9439   -1.7331    1.4296 C   0  0  0  0  0  0  0  0  0  0  0  0
   -0.1484    0.8578    0.2673 H   0  0  0  0  0  0  0  0  0  0  0  0
    0.3411   -0.4360    1.4005 H   0  0  0  0  0  0  0  0  0  0  0  0
   -0.0428   -0.8283   -0.2988 H   0  0  0  0  0  0  0  0  0  0  0  0
    0.1059    2.5791   -2.7047 H   0  0  0  0  0  0  0  0  0  0  0  0
   -0.5758    7.6003   -3.8523 H   0  0  0  0  0  0  0  0  0  0  0  0
    0.7674    6.4474   -5.7145 H   0  0  0  0  0  0  0  0  0  0  0  0
   -0.4604    7.6241   -6.2017 H   0  0  0  0  0  0  0  0  0  0  0  0
   -0.7383    4.5631   -6.2817 H   0  0  0  0  0  0  0  0  0  0  0  0
   -0.6181    5.6458   -7.6846 H   0  0  0  0  0  0  0  0  0  0  0  0
   -2.5958    6.6554   -8.5258 H   0  0  0  0  0  0  0  0  0  0  0  0
   -2.7438    7.7830   -7.1538 H   0  0  0  0  0  0  0  0  0  0  0  0
   -4.0804    6.6730   -7.5501 H   0  0  0  0  0  0  0  0  0  0  0  0
   -2.7932    4.5872   -4.9323 H   0  0  0  0  0  0  0  0  0  0  0  0
   -4.1095    5.6884   -5.3899 H   0  0  0  0  0  0  0  0  0  0  0  0
   -2.8355    6.4873   -3.3443 H   0  0  0  0  0  0  0  0  0  0  0  0
   -2.7781    7.6509   -4.6757 H   0  0  0  0  0  0  0  0  0  0  0  0
    0.6532    6.8204   -2.0079 H   0  0  0  0  0  0  0  0  0  0  0  0
    1.9614    6.2451   -0.0188 H   0  0  0  0  0  0  0  0  0  0  0  0
    4.1362    5.5636    4.8612 H   0  0  0  0  0  0  0  0  0  0  0  0
    5.6239    5.5405    3.8716 H   0  0  0  0  0  0  0  0  0  0  0  0
    5.1198    4.0646    4.7616 H   0  0  0  0  0  0  0  0  0  0  0  0
    4.0956    2.3758    3.2571 H   0  0  0  0  0  0  0  0  0  0  0  0
    4.5289    0.1024   -0.3009 H   0  0  0  0  0  0  0  0  0  0  0  0
    4.2277   -1.0879   -1.5956 H   0  0  0  0  0  0  0  0  0  0  0  0
    5.9048   -2.1279    0.0456 H   0  0  0  0  0  0  0  0  0  0  0  0
    2.9772   -0.9549    2.2099 H   0  0  0  0  0  0  0  0  0  0  0  0
    2.1884   -2.4729    1.7285 H   0  0  0  0  0  0  0  0  0  0  0  0
  1  2  1  0
  1 34  1  0
  1 35  1  0
  1 36  1  0
  2  3  1  6
  2  4  1  0
  2 27  1  0
  4  5  1  0
  5  6  2  0
  5 26  1  0
  6  7  1  0
  7  8  1  0
  7 20  2  0
  8  9  1  0
  8 19  2  0
  9 10  2  0
  9 37  1  0
 10 11  1  0
 11 12  1  0
 11 19  1  0
 12 13  1  0
 12 18  1  0
 12 38  1  1
 13 14  1  0
 13 39  1  0
 13 40  1  0
 14 15  1  0
 14 41  1  0
 14 42  1  0
 15 16  1  0
 15 17  1  0
 16 43  1  0
 16 44  1  0
 16 45  1  0
 17 18  1  0
 17 46  1  0
 17 47  1  0
 18 48  1  0
 18 49  1  0
 19 50  1  0
 20 21  1  0
 20 51  1  0
 21 22  2  0
 21 26  1  0
 22 23  1  0
 23 24  1  0
 23 25  1  0
 24 52  1  0
 24 53  1  0
 24 54  1  0
 25 26  2  0
 25 55  1  0
 27 28  1  6
 27 29  1  0
 27 33  1  0
 29 30  1  0
 29 56  1  0
 29 57  1  0
 30 31  1  0
 30 58  1  0
 31 32  2  0
 31 33  1  0
 33 59  1  0
 33 60  1  0
M  END

