
     RDKit          3D

 48 49  0  0  0  0  0  0  0  0999 V2000
    5.8770    4.8405   -2.3791 C   0  0  0  0  0  0  0  0  0  0  0  0
    5.2564    4.1433   -1.1753 C   0  0  0  0  0  0  0  0  0  0  0  0
    4.5678    4.7322   -0.3652 O   0  0  0  0  0  0  0  0  0  0  0  0
    5.5698    2.8003   -1.0940 N   0  0  0  0  0  0  0  0  0  0  0  0
    5.2049    1.8574   -0.1135 C   0  0  0  0  0  0  0  0  0  0  0  0
    4.4038    2.1697    0.9999 C   0  0  0  0  0  0  0  0  0  0  0  0
    4.1006    1.1592    1.9139 C   0  0  0  0  0  0  0  0  0  0  0  0
    4.5612   -0.1502    1.7663 C   0  0  0  0  0  0  0  0  0  0  0  0
    5.3613   -0.4600    0.6526 C   0  0  0  0  0  0  0  0  0  0  0  0
    5.8787   -1.7411    0.4042 N   0  0  0  0  0  0  0  0  0  0  0  0
    5.7365   -2.8877    1.1196 C   0  0  0  0  0  0  0  0  0  0  0  0
    5.1024   -3.0033    2.1572 O   0  0  0  0  0  0  0  0  0  0  0  0
    6.5265   -4.0254    0.3809 C   0  0  0  0  0  0  0  0  0  0  0  0
    7.1275   -3.6949   -0.6450 O   0  0  0  0  0  0  0  0  0  0  0  0
    6.5342   -5.3034    0.8401 N   0  0  0  0  0  0  0  0  0  0  0  0
    5.8872   -5.7532    2.0716 C   0  0  0  0  0  0  0  0  0  0  0  0
    7.3078   -6.2603   -0.0029 C   0  0  1  0  0  0  0  0  0  0  0  0
    8.8298   -6.1932    0.2669 C   0  0  0  0  0  0  0  0  0  0  0  0
    9.2715   -7.0570    1.4599 C   0  0  0  0  0  0  0  0  0  0  0  0
    8.8458   -8.4502    1.3635 N   0  0  0  0  0  0  0  0  0  0  0  0
    9.6135   -9.2651    0.4417 C   0  0  0  0  0  0  0  0  0  0  0  0
    7.3978   -8.5525    1.2267 C   0  0  0  0  0  0  0  0  0  0  0  0
    6.8145   -7.7211    0.0622 C   0  0  0  0  0  0  0  0  0  0  0  0
    5.6753    0.5453   -0.2759 C   0  0  0  0  0  0  0  0  0  0  0  0
    5.4325    5.8389   -2.4684 H   0  0  0  0  0  0  0  0  0  0  0  0
    5.7085    4.2790   -3.3122 H   0  0  0  0  0  0  0  0  0  0  0  0
    6.9656    4.9489   -2.2399 H   0  0  0  0  0  0  0  0  0  0  0  0
    6.1514    2.4356   -1.8392 H   0  0  0  0  0  0  0  0  0  0  0  0
    4.0373    3.1845    1.1288 H   0  0  0  0  0  0  0  0  0  0  0  0
    3.4780    1.4037    2.7786 H   0  0  0  0  0  0  0  0  0  0  0  0
    4.3160   -0.9253    2.4877 H   0  0  0  0  0  0  0  0  0  0  0  0
    6.4589   -1.8815   -0.4245 H   0  0  0  0  0  0  0  0  0  0  0  0
    5.3036   -4.9357    2.4990 H   0  0  0  0  0  0  0  0  0  0  0  0
    6.6348   -6.0778    2.8127 H   0  0  0  0  0  0  0  0  0  0  0  0
    5.2167   -6.6004    1.8663 H   0  0  0  0  0  0  0  0  0  0  0  0
    7.1505   -5.8952   -1.0257 H   0  0  0  0  0  0  0  0  0  0  0  0
    9.1361   -5.1443    0.3965 H   0  0  0  0  0  0  0  0  0  0  0  0
    9.3427   -6.5468   -0.6444 H   0  0  0  0  0  0  0  0  0  0  0  0
    8.8643   -6.6361    2.3976 H   0  0  0  0  0  0  0  0  0  0  0  0
   10.3688   -7.0267    1.5621 H   0  0  0  0  0  0  0  0  0  0  0  0
   10.6833   -9.2075    0.7008 H   0  0  0  0  0  0  0  0  0  0  0  0
    9.5223   -8.9934   -0.6341 H   0  0  0  0  0  0  0  0  0  0  0  0
    9.3082  -10.3200    0.5375 H   0  0  0  0  0  0  0  0  0  0  0  0
    6.9431   -8.2421    2.1820 H   0  0  0  0  0  0  0  0  0  0  0  0
    7.1278   -9.6125    1.0904 H   0  0  0  0  0  0  0  0  0  0  0  0
    5.7131   -7.7663    0.0608 H   0  0  0  0  0  0  0  0  0  0  0  0
    7.1293   -8.1864   -0.8870 H   0  0  0  0  0  0  0  0  0  0  0  0
    6.2987    0.2962   -1.1406 H   0  0  0  0  0  0  0  0  0  0  0  0
  1  2  1  0
  1 25  1  0
  1 26  1  0
  1 27  1  0
  2  3  2  0
  2  4  1  0
  4  5  1  0
  4 28  1  0
  5  6  2  0
  5 24  1  0
  6  7  1  0
  6 29  1  0
  7  8  2  0
  7 30  1  0
  8  9  1  0
  8 31  1  0
  9 10  1  0
  9 24  2  0
 10 11  1  0
 10 32  1  0
 11 12  2  0
 11 13  1  0
 13 14  2  0
 13 15  1  0
 15 16  1  0
 15 17  1  0
 16 33  1  0
 16 34  1  0
 16 35  1  0
 17 18  1  0
 17 23  1  0
 17 36  1  6
 18 19  1  0
 18 37  1  0
 18 38  1  0
 19 20  1  0
 19 39  1  0
 19 40  1  0
 20 21  1  0
 20 22  1  0
 21 41  1  0
 21 42  1  0
 21 43  1  0
 22 23  1  0
 22 44  1  0
 22 45  1  0
 23 46  1  0
 23 47  1  0
 24 48  1  0
M  END

