
     RDKit          3D

 51 54  0  0  0  0  0  0  0  0999 V2000
    1.0525   -0.0933   -0.1039 C   0  0  0  0  0  0  0  0  0  0  0  0
    2.5041    0.0118   -0.0628 N   0  0  0  0  0  0  0  0  0  0  0  0
    3.1606   -0.5253    1.1201 C   0  0  0  0  0  0  0  0  0  0  0  0
    3.1509    0.4019    2.3111 C   0  0  0  0  0  0  0  0  0  0  0  0
    3.4004    0.0802    3.6738 C   0  0  0  0  0  0  0  0  0  0  0  0
    3.3295    1.1479    4.4541 N   0  0  0  0  0  0  0  0  0  0  0  0
    3.0363    2.1754    3.6348 N   0  0  0  0  0  0  0  0  0  0  0  0
    2.8702    3.4862    4.1591 C   0  0  0  0  0  0  0  0  0  0  0  0
    2.7096    3.6584    5.5417 C   0  0  0  0  0  0  0  0  0  0  0  0
    2.5404    4.9416    6.0622 C   0  0  0  0  0  0  0  0  0  0  0  0
    2.5240    6.0578    5.2194 C   0  0  0  0  0  0  0  0  0  0  0  0
    2.6880    5.8795    3.8432 C   0  0  0  0  0  0  0  0  0  0  0  0
    2.8670    4.6014    3.3090 C   0  0  0  0  0  0  0  0  0  0  0  0
    2.9184    1.7654    2.3330 C   0  0  0  0  0  0  0  0  0  0  0  0
    3.1604    0.6452   -1.0959 C   0  0  0  0  0  0  0  0  0  0  0  0
    2.5629    1.1190   -2.0502 O   0  0  0  0  0  0  0  0  0  0  0  0
    4.6859    0.7377   -1.0047 C   0  0  0  0  0  0  0  0  0  0  0  0
    5.2699    1.5482   -2.1700 C   0  0  0  0  0  0  0  0  0  0  0  0
    6.7513    1.6890   -2.0930 C   0  0  0  0  0  0  0  0  0  0  0  0
    7.6589    1.2253   -2.8974 N   0  0  0  0  0  0  0  0  0  0  0  0
    8.8616    1.6373   -2.3597 C   0  0  0  0  0  0  0  0  0  0  0  0
    8.6333    2.3541   -1.2130 C   0  0  0  0  0  0  0  0  0  0  0  0
    9.4751    3.0279   -0.2309 C   0  0  0  0  0  0  0  0  0  0  0  0
   10.8780    3.0196   -0.3671 C   0  0  0  0  0  0  0  0  0  0  0  0
   11.6856    3.6615    0.5701 C   0  0  0  0  0  0  0  0  0  0  0  0
   11.1129    4.3242    1.6619 C   0  0  0  0  0  0  0  0  0  0  0  0
    9.7225    4.3384    1.8060 C   0  0  0  0  0  0  0  0  0  0  0  0
    8.9085    3.6978    0.8706 C   0  0  0  0  0  0  0  0  0  0  0  0
    7.2715    2.3841   -1.0446 O   0  0  0  0  0  0  0  0  0  0  0  0
    0.5993    0.3752    0.7858 H   0  0  0  0  0  0  0  0  0  0  0  0
    0.7384   -1.1514   -0.1340 H   0  0  0  0  0  0  0  0  0  0  0  0
    0.6930    0.4144   -1.0060 H   0  0  0  0  0  0  0  0  0  0  0  0
    4.1946   -0.8068    0.8733 H   0  0  0  0  0  0  0  0  0  0  0  0
    2.6590   -1.4704    1.3923 H   0  0  0  0  0  0  0  0  0  0  0  0
    3.6303   -0.8939    4.1074 H   0  0  0  0  0  0  0  0  0  0  0  0
    2.7239    2.7791    6.1847 H   0  0  0  0  0  0  0  0  0  0  0  0
    2.4157    5.0681    7.1406 H   0  0  0  0  0  0  0  0  0  0  0  0
    2.3878    7.0599    5.6325 H   0  0  0  0  0  0  0  0  0  0  0  0
    2.6864    6.7428    3.1732 H   0  0  0  0  0  0  0  0  0  0  0  0
    3.0175    4.4846    2.2349 H   0  0  0  0  0  0  0  0  0  0  0  0
    2.6503    2.4473    1.5313 H   0  0  0  0  0  0  0  0  0  0  0  0
    5.1158   -0.2789   -1.0084 H   0  0  0  0  0  0  0  0  0  0  0  0
    4.9797    1.1899   -0.0434 H   0  0  0  0  0  0  0  0  0  0  0  0
    4.7990    2.5442   -2.1898 H   0  0  0  0  0  0  0  0  0  0  0  0
    5.0294    1.0688   -3.1271 H   0  0  0  0  0  0  0  0  0  0  0  0
    9.8130    1.3947   -2.8288 H   0  0  0  0  0  0  0  0  0  0  0  0
   11.3390    2.5063   -1.2140 H   0  0  0  0  0  0  0  0  0  0  0  0
   12.7716    3.6446    0.4480 H   0  0  0  0  0  0  0  0  0  0  0  0
   11.7483    4.8265    2.3955 H   0  0  0  0  0  0  0  0  0  0  0  0
    9.2655    4.8529    2.6552 H   0  0  0  0  0  0  0  0  0  0  0  0
    7.8237    3.7120    0.9869 H   0  0  0  0  0  0  0  0  0  0  0  0
  1  2  1  0
  1 30  1  0
  1 31  1  0
  1 32  1  0
  2  3  1  0
  2 15  1  0
  3  4  1  0
  3 33  1  0
  3 34  1  0
  4  5  1  0
  4 14  2  0
  5  6  2  0
  5 35  1  0
  6  7  1  0
  7  8  1  0
  7 14  1  0
  8  9  2  0
  8 13  1  0
  9 10  1  0
  9 36  1  0
 10 11  2  0
 10 37  1  0
 11 12  1  0
 11 38  1  0
 12 13  2  0
 12 39  1  0
 13 40  1  0
 14 41  1  0
 15 16  2  0
 15 17  1  0
 17 18  1  0
 17 42  1  0
 17 43  1  0
 18 19  1  0
 18 44  1  0
 18 45  1  0
 19 20  2  0
 19 29  1  0
 20 21  1  0
 21 22  2  0
 21 46  1  0
 22 23  1  0
 22 29  1  0
 23 24  2  0
 23 28  1  0
 24 25  1  0
 24 47  1  0
 25 26  2  0
 25 48  1  0
 26 27  1  0
 26 49  1  0
 27 28  2  0
 27 50  1  0
 28 51  1  0
M  END

