
     RDKit          3D

 45 47  0  0  0  0  0  0  0  0999 V2000
   -0.0404    0.8192   -0.2916 C   0  0  0  0  0  0  0  0  0  0  0  0
    1.4059    0.3638   -0.1563 C   0  0  1  0  0  0  0  0  0  0  0  0
    1.4363   -0.7256    0.0053 H   0  0  0  0  0  0  0  0  0  0  0  0
    2.1477    0.6556   -1.3583 O   0  0  0  0  0  0  0  0  0  0  0  0
    2.2257   -0.3121   -2.3115 C   0  0  0  0  0  0  0  0  0  0  0  0
    1.7434   -1.4100   -2.1755 O   0  0  0  0  0  0  0  0  0  0  0  0
    2.9760    0.1411   -3.5168 C   0  0  0  0  0  0  0  0  0  0  0  0
    3.2587   -0.8072   -4.5118 C   0  0  0  0  0  0  0  0  0  0  0  0
    3.9600   -0.4461   -5.6583 C   0  0  0  0  0  0  0  0  0  0  0  0
    4.3790    0.8835   -5.8301 C   0  0  0  0  0  0  0  0  0  0  0  0
    5.0971    1.2611   -7.0029 N   0  0  0  0  0  0  0  0  0  0  0  0
    4.8062    0.7675   -8.2954 C   0  0  0  0  0  0  0  0  0  0  0  0
    3.9417   -0.0280   -8.5564 O   0  0  0  0  0  0  0  0  0  0  0  0
    5.7653    1.4259   -9.2775 C   0  0  0  0  0  0  0  0  0  0  0  0
    6.7000    2.2854   -8.4272 C   0  0  0  0  0  0  0  0  0  0  0  0
    6.1801    2.1693   -7.0011 C   0  0  0  0  0  0  0  0  0  0  0  0
    6.6088    2.7366   -6.0298 O   0  0  0  0  0  0  0  0  0  0  0  0
    4.0888    1.8417   -4.8459 C   0  0  0  0  0  0  0  0  0  0  0  0
    3.3951    1.4684   -3.6970 C   0  0  0  0  0  0  0  0  0  0  0  0
    2.0983    1.0167    1.0530 C   0  0  0  0  0  0  0  0  0  0  0  0
    1.5314    1.0303    2.1302 O   0  0  0  0  0  0  0  0  0  0  0  0
    3.3477    1.5152    0.8027 N   0  0  0  0  0  0  0  0  0  0  0  0
    4.2495    2.1291    1.6902 C   0  0  0  0  0  0  0  0  0  0  0  0
    3.9741    2.3278    3.0558 C   0  0  0  0  0  0  0  0  0  0  0  0
    4.9318    2.9472    3.8626 C   0  0  0  0  0  0  0  0  0  0  0  0
    6.1588    3.3766    3.3509 C   0  0  0  0  0  0  0  0  0  0  0  0
    6.4070    3.1684    1.9963 C   0  0  0  0  0  0  0  0  0  0  0  0
    7.5757    3.5687    1.4732 F   0  0  0  0  0  0  0  0  0  0  0  0
    5.4809    2.5561    1.1601 C   0  0  0  0  0  0  0  0  0  0  0  0
   -0.5490    0.2394   -1.0750 H   0  0  0  0  0  0  0  0  0  0  0  0
   -0.0891    1.8895   -0.5448 H   0  0  0  0  0  0  0  0  0  0  0  0
   -0.5557    0.6608    0.6654 H   0  0  0  0  0  0  0  0  0  0  0  0
    2.9230   -1.8356   -4.3675 H   0  0  0  0  0  0  0  0  0  0  0  0
    4.1704   -1.1885   -6.4258 H   0  0  0  0  0  0  0  0  0  0  0  0
    5.1674    2.0049   -9.9986 H   0  0  0  0  0  0  0  0  0  0  0  0
    6.2735    0.6369   -9.8519 H   0  0  0  0  0  0  0  0  0  0  0  0
    6.7166    3.3492   -8.7076 H   0  0  0  0  0  0  0  0  0  0  0  0
    7.7460    1.9411   -8.4357 H   0  0  0  0  0  0  0  0  0  0  0  0
    4.4149    2.8721   -4.9741 H   0  0  0  0  0  0  0  0  0  0  0  0
    3.1632    2.2174   -2.9390 H   0  0  0  0  0  0  0  0  0  0  0  0
    3.6500    1.4341   -0.1623 H   0  0  0  0  0  0  0  0  0  0  0  0
    3.0216    1.9969    3.4614 H   0  0  0  0  0  0  0  0  0  0  0  0
    4.7119    3.0985    4.9224 H   0  0  0  0  0  0  0  0  0  0  0  0
    6.9135    3.8613    3.9722 H   0  0  0  0  0  0  0  0  0  0  0  0
    5.7294    2.4173    0.1054 H   0  0  0  0  0  0  0  0  0  0  0  0
  1  2  1  0
  1 30  1  0
  1 31  1  0
  1 32  1  0
  2  3  1  1
  2  4  1  0
  2 20  1  0
  4  5  1  0
  5  6  2  0
  5  7  1  0
  7  8  2  0
  7 19  1  0
  8  9  1  0
  8 33  1  0
  9 10  2  0
  9 34  1  0
 10 11  1  0
 10 18  1  0
 11 12  1  0
 11 16  1  0
 12 13  2  0
 12 14  1  0
 14 15  1  0
 14 35  1  0
 14 36  1  0
 15 16  1  0
 15 37  1  0
 15 38  1  0
 16 17  2  0
 18 19  2  0
 18 39  1  0
 19 40  1  0
 20 21  2  0
 20 22  1  0
 22 23  1  0
 22 41  1  0
 23 24  2  0
 23 29  1  0
 24 25  1  0
 24 42  1  0
 25 26  2  0
 25 43  1  0
 26 27  1  0
 26 44  1  0
 27 28  1  0
 27 29  2  0
 29 45  1  0
M  END

