
     RDKit          3D

 81 83  0  0  0  0  0  0  0  0999 V2000
    5.5423    1.0098    3.1316 C   0  0  0  0  0  0  0  0  0  0  0  0
    4.6089    0.0447    3.8700 C   0  0  1  0  0  0  0  0  0  0  0  0
    5.0452   -0.1832    5.3208 C   0  0  0  0  0  0  0  0  0  0  0  0
    3.1622    0.5386    3.8085 C   0  0  0  0  0  0  0  0  0  0  0  0
    4.5442   -1.2367    3.1607 O   0  0  0  0  0  0  0  0  0  0  0  0
    5.6250   -2.0248    3.0008 C   0  0  0  0  0  0  0  0  0  0  0  0
    6.7613   -1.7646    3.3549 O   0  0  0  0  0  0  0  0  0  0  0  0
    5.2635   -3.1825    2.3776 N   0  0  0  0  0  0  0  0  0  0  0  0
    6.2118   -4.2141    2.0289 C   0  0  0  0  0  0  0  0  0  0  0  0
    5.5356   -5.5723    2.0767 C   0  0  1  0  0  0  0  0  0  0  0  0
    5.1423   -5.7676    3.0854 H   0  0  0  0  0  0  0  0  0  0  0  0
    4.4345   -5.5183    1.2101 F   0  0  0  0  0  0  0  0  0  0  0  0
    6.3787   -6.7582    1.5952 C   0  0  0  0  0  0  0  0  0  0  0  0
    7.4893   -7.1689    2.4614 N   0  0  0  0  0  0  0  0  0  0  0  0
    7.2611   -7.9713    3.5439 C   0  0  0  0  0  0  0  0  0  0  0  0
    8.0364   -8.5895    4.2111 O   0  0  0  0  0  0  0  0  0  0  0  0
    5.8676   -8.0149    3.7750 O   0  0  0  0  0  0  0  0  0  0  0  0
    5.3043   -8.8686    4.6802 C   0  0  1  0  0  0  0  0  0  0  0  0
    5.8224   -8.5306    6.3661 Cl  0  0  0  0  0  0  0  0  0  0  0  0
    3.5334   -8.5870    4.5518 Cl  0  0  0  0  0  0  0  0  0  0  0  0
    5.6466  -10.5938    4.2781 Cl  0  0  0  0  0  0  0  0  0  0  0  0
    8.8674   -6.7499    2.0935 C   0  0  1  0  0  0  0  0  0  0  0  0
    8.7170   -6.2172    1.1453 H   0  0  0  0  0  0  0  0  0  0  0  0
    9.3903   -5.7387    3.1016 C   0  0  0  0  0  0  0  0  0  0  0  0
    9.1555   -5.8162    4.3904 N   0  0  0  0  0  0  0  0  0  0  0  0
    9.8197   -4.7750    4.9920 C   0  0  0  0  0  0  0  0  0  0  0  0
    9.7735   -4.5668    6.4484 C   0  0  0  0  0  0  0  0  0  0  0  0
    9.0742   -5.4776    7.2620 C   0  0  0  0  0  0  0  0  0  0  0  0
    9.0208   -5.2985    8.6453 C   0  0  0  0  0  0  0  0  0  0  0  0
    9.6631   -4.2103    9.2448 C   0  0  0  0  0  0  0  0  0  0  0  0
   10.3607   -3.2987    8.4449 C   0  0  0  0  0  0  0  0  0  0  0  0
   10.4147   -3.4743    7.0616 C   0  0  0  0  0  0  0  0  0  0  0  0
   10.4735   -4.0410    4.0201 C   0  0  0  0  0  0  0  0  0  0  0  0
   10.1843   -4.6415    2.8111 N   0  0  0  0  0  0  0  0  0  0  0  0
   10.6636   -4.1630    1.5144 C   0  0  0  0  0  0  0  0  0  0  0  0
   10.7323   -2.6533    1.3722 C   0  0  0  0  0  0  0  0  0  0  0  0
    9.6755   -1.8188    1.7701 C   0  0  0  0  0  0  0  0  0  0  0  0
    9.7542   -0.4393    1.5628 C   0  0  0  0  0  0  0  0  0  0  0  0
   10.8802    0.1256    0.9549 C   0  0  0  0  0  0  0  0  0  0  0  0
   11.9372   -0.6983    0.5603 C   0  0  0  0  0  0  0  0  0  0  0  0
   11.8629   -2.0782    0.7728 C   0  0  0  0  0  0  0  0  0  0  0  0
    9.8750   -7.9365    1.7245 C   0  0  1  0  0  0  0  0  0  0  0  0
    9.0854   -9.1554    1.2077 C   0  0  0  0  0  0  0  0  0  0  0  0
   10.7824   -7.4552    0.5708 C   0  0  0  0  0  0  0  0  0  0  0  0
   10.7855   -8.3476    2.8970 C   0  0  0  0  0  0  0  0  0  0  0  0
    5.4884    2.0067    3.5964 H   0  0  0  0  0  0  0  0  0  0  0  0
    5.2373    1.1077    2.0779 H   0  0  0  0  0  0  0  0  0  0  0  0
    6.5811    0.6586    3.1704 H   0  0  0  0  0  0  0  0  0  0  0  0
    4.9932    0.7653    5.8778 H   0  0  0  0  0  0  0  0  0  0  0  0
    6.0731   -0.5647    5.3700 H   0  0  0  0  0  0  0  0  0  0  0  0
    4.3754   -0.9051    5.8136 H   0  0  0  0  0  0  0  0  0  0  0  0
    3.0687    1.5096    4.3180 H   0  0  0  0  0  0  0  0  0  0  0  0
    2.4873   -0.1794    4.2984 H   0  0  0  0  0  0  0  0  0  0  0  0
    2.8376    0.6594    2.7638 H   0  0  0  0  0  0  0  0  0  0  0  0
    4.3161   -3.2642    2.0266 H   0  0  0  0  0  0  0  0  0  0  0  0
    7.0431   -4.1840    2.7483 H   0  0  0  0  0  0  0  0  0  0  0  0
    6.6343   -4.0554    1.0162 H   0  0  0  0  0  0  0  0  0  0  0  0
    6.7894   -6.5220    0.6027 H   0  0  0  0  0  0  0  0  0  0  0  0
    5.6823   -7.5964    1.4614 H   0  0  0  0  0  0  0  0  0  0  0  0
    8.5762   -6.3250    6.7877 H   0  0  0  0  0  0  0  0  0  0  0  0
    8.4732   -6.0168    9.2616 H   0  0  0  0  0  0  0  0  0  0  0  0
    9.6209   -4.0723   10.3283 H   0  0  0  0  0  0  0  0  0  0  0  0
   10.8653   -2.4431    8.9017 H   0  0  0  0  0  0  0  0  0  0  0  0
   10.9601   -2.7492    6.4524 H   0  0  0  0  0  0  0  0  0  0  0  0
   11.0812   -3.1433    4.0709 H   0  0  0  0  0  0  0  0  0  0  0  0
    9.9930   -4.5732    0.7436 H   0  0  0  0  0  0  0  0  0  0  0  0
   11.6628   -4.5807    1.3111 H   0  0  0  0  0  0  0  0  0  0  0  0
    8.7895   -2.2209    2.2667 H   0  0  0  0  0  0  0  0  0  0  0  0
    8.9237    0.1935    1.8842 H   0  0  0  0  0  0  0  0  0  0  0  0
   10.9364    1.2054    0.7954 H   0  0  0  0  0  0  0  0  0  0  0  0
   12.8262   -0.2680    0.0922 H   0  0  0  0  0  0  0  0  0  0  0  0
   12.6976   -2.7168    0.4682 H   0  0  0  0  0  0  0  0  0  0  0  0
    8.3970   -8.8819    0.3906 H   0  0  0  0  0  0  0  0  0  0  0  0
    8.5099   -9.6471    2.0024 H   0  0  0  0  0  0  0  0  0  0  0  0
    9.7891   -9.9007    0.8042 H   0  0  0  0  0  0  0  0  0  0  0  0
   10.2013   -7.1340   -0.3104 H   0  0  0  0  0  0  0  0  0  0  0  0
   11.4408   -8.2773    0.2499 H   0  0  0  0  0  0  0  0  0  0  0  0
   11.4367   -6.6271    0.8752 H   0  0  0  0  0  0  0  0  0  0  0  0
   10.2053   -8.6644    3.7696 H   0  0  0  0  0  0  0  0  0  0  0  0
   11.4399   -7.5166    3.2040 H   0  0  0  0  0  0  0  0  0  0  0  0
   11.4360   -9.1791    2.5794 H   0  0  0  0  0  0  0  0  0  0  0  0
  1  2  1  0
  1 46  1  0
  1 47  1  0
  1 48  1  0
  2  3  1  0
  2  4  1  0
  2  5  1  6
  3 49  1  0
  3 50  1  0
  3 51  1  0
  4 52  1  0
  4 53  1  0
  4 54  1  0
  5  6  1  0
  6  7  2  0
  6  8  1  0
  8  9  1  0
  8 55  1  0
  9 10  1  0
  9 56  1  0
  9 57  1  0
 10 11  1  1
 10 12  1  0
 10 13  1  0
 13 14  1  0
 13 58  1  0
 13 59  1  0
 14 15  1  0
 14 22  1  0
 15 16  2  0
 15 17  1  0
 17 18  1  0
 18 19  1  1
 18 20  1  0
 18 21  1  0
 22 23  1  6
 22 24  1  0
 22 42  1  0
 24 25  2  0
 24 34  1  0
 25 26  1  0
 26 27  1  0
 26 33  2  0
 27 28  2  0
 27 32  1  0
 28 29  1  0
 28 60  1  0
 29 30  2  0
 29 61  1  0
 30 31  1  0
 30 62  1  0
 31 32  2  0
 31 63  1  0
 32 64  1  0
 33 34  1  0
 33 65  1  0
 34 35  1  0
 35 36  1  0
 35 66  1  0
 35 67  1  0
 36 37  2  0
 36 41  1  0
 37 38  1  0
 37 68  1  0
 38 39  2  0
 38 69  1  0
 39 40  1  0
 39 70  1  0
 40 41  2  0
 40 71  1  0
 41 72  1  0
 42 43  1  6
 42 44  1  0
 42 45  1  0
 43 73  1  0
 43 74  1  0
 43 75  1  0
 44 76  1  0
 44 77  1  0
 44 78  1  0
 45 79  1  0
 45 80  1  0
 45 81  1  0
M  END

