
     RDKit          3D

 58 62  0  0  0  0  0  0  0  0999 V2000
    7.6219    1.4952    0.5974 C   0  0  0  0  0  0  0  0  0  0  0  0
    8.2110    0.1096    0.7128 C   0  0  0  0  0  0  0  0  0  0  0  0
    9.4023   -0.1235    1.4146 C   0  0  0  0  0  0  0  0  0  0  0  0
    9.9368   -1.4136    1.5184 C   0  0  0  0  0  0  0  0  0  0  0  0
    9.2914   -2.4940    0.9230 C   0  0  0  0  0  0  0  0  0  0  0  0
    8.0954   -2.2803    0.2141 C   0  0  0  0  0  0  0  0  0  0  0  0
    7.3923   -3.4028   -0.4266 C   0  0  0  0  0  0  0  0  0  0  0  0
    7.8356   -4.6402   -0.3956 N   0  0  0  0  0  0  0  0  0  0  0  0
    6.8848   -5.3513   -1.1098 O   0  0  0  0  0  0  0  0  0  0  0  0
    5.9526   -4.4754   -1.5080 C   0  0  0  0  0  0  0  0  0  0  0  0
    4.7651   -4.9923   -2.2660 C   0  0  0  0  0  0  0  0  0  0  0  0
    3.6798   -5.3457   -1.3618 N   0  0  0  0  0  0  0  0  0  0  0  0
    2.9017   -4.2154   -0.8509 C   0  0  0  0  0  0  0  0  0  0  0  0
    1.8334   -3.7268   -1.8419 C   0  0  0  0  0  0  0  0  0  0  0  0
    0.9286   -4.8808   -2.2910 C   0  0  0  0  0  0  0  0  0  0  0  0
    1.7540   -6.0696   -2.8241 C   0  0  2  0  0  0  0  0  0  0  0  0
    0.8558   -7.2776   -3.0872 C   0  0  0  0  0  0  0  0  0  0  0  0
    0.1716   -7.7566   -2.1986 O   0  0  0  0  0  0  0  0  0  0  0  0
    0.9152   -7.7675   -4.3739 N   0  0  0  0  0  0  0  0  0  0  0  0
    0.2418   -8.8646   -4.9456 C   0  0  0  0  0  0  0  0  0  0  0  0
   -0.7207   -9.5847   -4.2503 C   0  0  0  0  0  0  0  0  0  0  0  0
   -1.3913  -10.6654   -4.8671 C   0  0  0  0  0  0  0  0  0  0  0  0
   -1.1150  -11.0290   -6.1655 C   0  0  0  0  0  0  0  0  0  0  0  0
   -0.1295  -10.3238   -6.9094 C   0  0  0  0  0  0  0  0  0  0  0  0
    0.1794  -10.6855   -8.2511 C   0  0  0  0  0  0  0  0  0  0  0  0
    1.1435  -10.0154   -8.9723 C   0  0  0  0  0  0  0  0  0  0  0  0
    1.8520   -8.9475   -8.3724 C   0  0  0  0  0  0  0  0  0  0  0  0
    1.5750   -8.5696   -7.0739 C   0  0  0  0  0  0  0  0  0  0  0  0
    0.5764   -9.2290   -6.3008 C   0  0  0  0  0  0  0  0  0  0  0  0
    2.8354   -6.4546   -1.7757 C   0  0  0  0  0  0  0  0  0  0  0  0
    6.2092   -3.2620   -1.1250 N   0  0  0  0  0  0  0  0  0  0  0  0
    7.5679   -0.9854    0.1156 C   0  0  0  0  0  0  0  0  0  0  0  0
    8.2628    2.2492    1.0775 H   0  0  0  0  0  0  0  0  0  0  0  0
    6.6278    1.5472    1.0723 H   0  0  0  0  0  0  0  0  0  0  0  0
    7.4886    1.7870   -0.4575 H   0  0  0  0  0  0  0  0  0  0  0  0
    9.9205    0.7157    1.8874 H   0  0  0  0  0  0  0  0  0  0  0  0
   10.8666   -1.5728    2.0704 H   0  0  0  0  0  0  0  0  0  0  0  0
    9.6993   -3.5035    0.9980 H   0  0  0  0  0  0  0  0  0  0  0  0
    5.0839   -5.8966   -2.8044 H   0  0  0  0  0  0  0  0  0  0  0  0
    4.5010   -4.2282   -3.0254 H   0  0  0  0  0  0  0  0  0  0  0  0
    3.5911   -3.4014   -0.5814 H   0  0  0  0  0  0  0  0  0  0  0  0
    2.4090   -4.5408    0.0831 H   0  0  0  0  0  0  0  0  0  0  0  0
    2.3201   -3.2677   -2.7216 H   0  0  0  0  0  0  0  0  0  0  0  0
    1.2313   -2.9299   -1.3744 H   0  0  0  0  0  0  0  0  0  0  0  0
    0.2130   -4.5409   -3.0584 H   0  0  0  0  0  0  0  0  0  0  0  0
    0.3289   -5.2456   -1.4397 H   0  0  0  0  0  0  0  0  0  0  0  0
    2.2615   -5.7645   -3.7580 H   0  0  0  0  0  0  0  0  0  0  0  0
    1.5059   -7.2418   -5.0027 H   0  0  0  0  0  0  0  0  0  0  0  0
   -0.9491   -9.3026   -3.2258 H   0  0  0  0  0  0  0  0  0  0  0  0
   -2.1448  -11.2101   -4.2925 H   0  0  0  0  0  0  0  0  0  0  0  0
   -1.6415  -11.8607   -6.6402 H   0  0  0  0  0  0  0  0  0  0  0  0
   -0.3686  -11.5172   -8.7020 H   0  0  0  0  0  0  0  0  0  0  0  0
    1.3671  -10.3080  -10.0011 H   0  0  0  0  0  0  0  0  0  0  0  0
    2.6263   -8.4224   -8.9370 H   0  0  0  0  0  0  0  0  0  0  0  0
    2.1631   -7.7519   -6.6496 H   0  0  0  0  0  0  0  0  0  0  0  0
    3.4688   -7.2708   -2.1590 H   0  0  0  0  0  0  0  0  0  0  0  0
    2.3079   -6.8484   -0.8902 H   0  0  0  0  0  0  0  0  0  0  0  0
    6.6389   -0.8416   -0.4406 H   0  0  0  0  0  0  0  0  0  0  0  0
  1  2  1  0
  1 33  1  0
  1 34  1  0
  1 35  1  0
  2  3  2  0
  2 32  1  0
  3  4  1  0
  3 36  1  0
  4  5  2  0
  4 37  1  0
  5  6  1  0
  5 38  1  0
  6  7  1  0
  6 32  2  0
  7  8  2  0
  7 31  1  0
  8  9  1  0
  9 10  1  0
 10 11  1  0
 10 31  2  0
 11 12  1  0
 11 39  1  0
 11 40  1  0
 12 13  1  0
 12 30  1  0
 13 14  1  0
 13 41  1  0
 13 42  1  0
 14 15  1  0
 14 43  1  0
 14 44  1  0
 15 16  1  0
 15 45  1  0
 15 46  1  0
 16 17  1  0
 16 30  1  0
 16 47  1  6
 17 18  2  0
 17 19  1  0
 19 20  1  0
 19 48  1  0
 20 21  2  0
 20 29  1  0
 21 22  1  0
 21 49  1  0
 22 23  2  0
 22 50  1  0
 23 24  1  0
 23 51  1  0
 24 25  1  0
 24 29  2  0
 25 26  2  0
 25 52  1  0
 26 27  1  0
 26 53  1  0
 27 28  2  0
 27 54  1  0
 28 29  1  0
 28 55  1  0
 30 56  1  0
 30 57  1  0
 32 58  1  0
M  END

