
     RDKit          3D

 53 56  0  0  0  0  0  0  0  0999 V2000
    6.1261    0.3581   -2.1433 C   0  0  0  0  0  0  0  0  0  0  0  0
    4.8432    0.1890   -1.3458 C   0  0  0  0  0  0  0  0  0  0  0  0
    4.6096    1.3005   -0.4652 O   0  0  0  0  0  0  0  0  0  0  0  0
    5.2107    1.2725    0.7551 C   0  0  0  0  0  0  0  0  0  0  0  0
    5.9047    0.3382    1.1002 O   0  0  0  0  0  0  0  0  0  0  0  0
    4.8971    2.4974    1.5283 C   0  0  0  0  0  0  0  0  0  0  0  0
    5.4111    2.7464    2.7770 C   0  0  0  0  0  0  0  0  0  0  0  0
    6.2683    1.8224    3.5934 C   0  0  0  0  0  0  0  0  0  0  0  0
    5.2166    3.9756    3.4152 N   0  0  0  0  0  0  0  0  0  0  0  0
    4.7373    4.9382    2.7154 C   0  0  0  0  0  0  0  0  0  0  0  0
    4.7636    6.6176    3.2464 S   0  0  0  0  0  0  0  0  0  0  0  0
    4.2665    7.1858    1.6263 C   0  0  0  0  0  0  0  0  0  0  0  0
    4.1291    8.5237    1.4075 C   0  0  0  0  0  0  0  0  0  0  0  0
    3.7831    9.3695    0.2667 C   0  0  0  0  0  0  0  0  0  0  0  0
    3.6782   10.7567    0.5347 C   0  0  0  0  0  0  0  0  0  0  0  0
    3.3555   11.6681   -0.4671 C   0  0  0  0  0  0  0  0  0  0  0  0
    3.1333   11.2178   -1.7727 C   0  0  0  0  0  0  0  0  0  0  0  0
    3.2389    9.8524   -2.0590 C   0  0  0  0  0  0  0  0  0  0  0  0
    3.5587    8.9338   -1.0598 C   0  0  0  0  0  0  0  0  0  0  0  0
    4.0622    6.0148    0.7247 C   0  0  0  0  0  0  0  0  0  0  0  0
    3.7753    6.0244   -0.4581 O   0  0  0  0  0  0  0  0  0  0  0  0
    4.2349    4.8298    1.4400 N   0  0  0  0  0  0  0  0  0  0  0  0
    3.9234    3.4939    0.8972 C   0  0  2  0  0  0  0  0  0  0  0  0
    2.4413    3.0186    1.0967 C   0  0  1  0  0  0  0  0  0  0  0  0
    1.8942    3.1989    2.5293 C   0  0  0  0  0  0  0  0  0  0  0  0
    1.1957    4.5187    2.7514 C   0  0  0  0  0  0  0  0  0  0  0  0
    0.7287    5.2892    1.7598 C   0  0  0  0  0  0  0  0  0  0  0  0
    0.8570    4.9414    0.3017 C   0  0  0  0  0  0  0  0  0  0  0  0
    1.4099    3.5260    0.0639 C   0  0  0  0  0  0  0  0  0  0  0  0
    6.2325   -0.4711   -2.8613 H   0  0  0  0  0  0  0  0  0  0  0  0
    7.0022    0.3489   -1.4784 H   0  0  0  0  0  0  0  0  0  0  0  0
    6.1179    1.3033   -2.7084 H   0  0  0  0  0  0  0  0  0  0  0  0
    4.8705   -0.7368   -0.7526 H   0  0  0  0  0  0  0  0  0  0  0  0
    3.9640    0.1678   -2.0065 H   0  0  0  0  0  0  0  0  0  0  0  0
    6.3531    0.8237    3.1597 H   0  0  0  0  0  0  0  0  0  0  0  0
    5.8489    1.7765    4.6113 H   0  0  0  0  0  0  0  0  0  0  0  0
    7.2746    2.2630    3.6984 H   0  0  0  0  0  0  0  0  0  0  0  0
    4.3201    9.1245    2.3049 H   0  0  0  0  0  0  0  0  0  0  0  0
    3.8535   11.1169    1.5522 H   0  0  0  0  0  0  0  0  0  0  0  0
    3.2789   12.7322   -0.2306 H   0  0  0  0  0  0  0  0  0  0  0  0
    2.8816   11.9286   -2.5639 H   0  0  0  0  0  0  0  0  0  0  0  0
    3.0708    9.4949   -3.0781 H   0  0  0  0  0  0  0  0  0  0  0  0
    3.6391    7.8740   -1.2916 H   0  0  0  0  0  0  0  0  0  0  0  0
    4.1055    3.5582   -0.1823 H   0  0  0  0  0  0  0  0  0  0  0  0
    2.5276    1.9375    0.9113 H   0  0  0  0  0  0  0  0  0  0  0  0
    2.6910    3.0596    3.2766 H   0  0  0  0  0  0  0  0  0  0  0  0
    1.1757    2.3833    2.7380 H   0  0  0  0  0  0  0  0  0  0  0  0
    1.0526    4.8350    3.7906 H   0  0  0  0  0  0  0  0  0  0  0  0
    0.2253    6.2316    2.0049 H   0  0  0  0  0  0  0  0  0  0  0  0
    1.4848    5.6945   -0.2021 H   0  0  0  0  0  0  0  0  0  0  0  0
   -0.1331    5.0311   -0.1814 H   0  0  0  0  0  0  0  0  0  0  0  0
    1.8277    3.4471   -0.9526 H   0  0  0  0  0  0  0  0  0  0  0  0
    0.5655    2.8159    0.1030 H   0  0  0  0  0  0  0  0  0  0  0  0
  1  2  1  0
  1 30  1  0
  1 31  1  0
  1 32  1  0
  2  3  1  0
  2 33  1  0
  2 34  1  0
  3  4  1  0
  4  5  2  0
  4  6  1  0
  6  7  2  0
  6 23  1  0
  7  8  1  0
  7  9  1  0
  8 35  1  0
  8 36  1  0
  8 37  1  0
  9 10  2  0
 10 11  1  0
 10 22  1  0
 11 12  1  0
 12 13  2  0
 12 20  1  0
 13 14  1  0
 13 38  1  0
 14 15  2  0
 14 19  1  0
 15 16  1  0
 15 39  1  0
 16 17  2  0
 16 40  1  0
 17 18  1  0
 17 41  1  0
 18 19  2  0
 18 42  1  0
 19 43  1  0
 20 21  2  0
 20 22  1  0
 22 23  1  0
 23 24  1  0
 23 44  1  6
 24 25  1  0
 24 29  1  0
 24 45  1  6
 25 26  1  0
 25 46  1  0
 25 47  1  0
 26 27  2  0
 26 48  1  0
 27 28  1  0
 27 49  1  0
 28 29  1  0
 28 50  1  0
 28 51  1  0
 29 52  1  0
 29 53  1  0
M  END

