
     RDKit          3D

 40 42  0  0  0  0  0  0  0  0999 V2000
    2.9441    1.6085   -3.7513 O   0  0  0  0  0  0  0  0  0  0  0  0
    3.2589    0.7596   -2.9614 C   0  0  0  0  0  0  0  0  0  0  0  0
    3.7528   -0.4248   -3.3796 O   0  0  0  0  0  0  0  0  0  0  0  0
    3.1401    0.9289   -1.4259 C   0  0  2  0  0  0  0  0  0  0  0  0
    2.5139    0.0913   -1.0679 H   0  0  0  0  0  0  0  0  0  0  0  0
    2.4885    2.1586   -1.0334 N   0  0  0  0  0  0  0  0  0  0  0  0
    1.0492    2.2176   -1.2778 C   0  0  0  0  0  0  0  0  0  0  0  0
    0.5134    3.5912   -0.9482 C   0  0  1  0  0  0  0  0  0  0  0  0
    0.6129    4.7013   -1.9717 C   0  0  0  0  0  0  0  0  0  0  0  0
   -0.7326    4.1101   -1.6190 C   0  0  2  0  0  0  0  0  0  0  0  0
   -1.7672    4.8976   -0.8671 C   0  0  0  0  0  0  0  0  0  0  0  0
   -2.2722    6.0979   -1.3943 C   0  0  0  0  0  0  0  0  0  0  0  0
   -3.2647    6.8165   -0.7226 C   0  0  0  0  0  0  0  0  0  0  0  0
   -3.7714    6.3462    0.4931 C   0  0  0  0  0  0  0  0  0  0  0  0
   -3.2782    5.1532    1.0294 C   0  0  0  0  0  0  0  0  0  0  0  0
   -2.2858    4.4368    0.3537 C   0  0  0  0  0  0  0  0  0  0  0  0
    4.5152    0.7884   -0.7756 C   0  0  0  0  0  0  0  0  0  0  0  0
    4.6769    0.0320    0.3949 C   0  0  0  0  0  0  0  0  0  0  0  0
    5.9242   -0.0612    1.0185 C   0  0  0  0  0  0  0  0  0  0  0  0
    7.0281    0.6064    0.4800 C   0  0  0  0  0  0  0  0  0  0  0  0
    6.8783    1.3641   -0.6855 C   0  0  0  0  0  0  0  0  0  0  0  0
    5.6313    1.4529   -1.3095 C   0  0  0  0  0  0  0  0  0  0  0  0
    4.0487   -0.9494   -2.6195 H   0  0  0  0  0  0  0  0  0  0  0  0
    2.9430    2.9467   -1.4949 H   0  0  0  0  0  0  0  0  0  0  0  0
    0.5612    1.4617   -0.6340 H   0  0  0  0  0  0  0  0  0  0  0  0
    0.7784    1.9694   -2.3248 H   0  0  0  0  0  0  0  0  0  0  0  0
    0.6647    3.8926    0.0941 H   0  0  0  0  0  0  0  0  0  0  0  0
    1.0378    4.4590   -2.9507 H   0  0  0  0  0  0  0  0  0  0  0  0
    0.8370    5.7096   -1.6121 H   0  0  0  0  0  0  0  0  0  0  0  0
   -1.1556    3.4471   -2.3858 H   0  0  0  0  0  0  0  0  0  0  0  0
   -1.8768    6.4717   -2.3428 H   0  0  0  0  0  0  0  0  0  0  0  0
   -3.6427    7.7497   -1.1488 H   0  0  0  0  0  0  0  0  0  0  0  0
   -4.5459    6.9085    1.0211 H   0  0  0  0  0  0  0  0  0  0  0  0
   -3.6669    4.7782    1.9800 H   0  0  0  0  0  0  0  0  0  0  0  0
   -1.9041    3.5046    0.7789 H   0  0  0  0  0  0  0  0  0  0  0  0
    3.8134   -0.4816    0.8275 H   0  0  0  0  0  0  0  0  0  0  0  0
    6.0332   -0.6552    1.9295 H   0  0  0  0  0  0  0  0  0  0  0  0
    8.0042    0.5346    0.9664 H   0  0  0  0  0  0  0  0  0  0  0  0
    7.7372    1.8873   -1.1135 H   0  0  0  0  0  0  0  0  0  0  0  0
    5.5274    2.0443   -2.2240 H   0  0  0  0  0  0  0  0  0  0  0  0
  1  2  2  0
  2  3  1  0
  2  4  1  0
  3 23  1  0
  4  5  1  1
  4  6  1  0
  4 17  1  0
  6  7  1  0
  6 24  1  0
  7  8  1  0
  7 25  1  0
  7 26  1  0
  8  9  1  0
  8 10  1  0
  8 27  1  1
  9 10  1  0
  9 28  1  0
  9 29  1  0
 10 11  1  0
 10 30  1  6
 11 12  2  0
 11 16  1  0
 12 13  1  0
 12 31  1  0
 13 14  2  0
 13 32  1  0
 14 15  1  0
 14 33  1  0
 15 16  2  0
 15 34  1  0
 16 35  1  0
 17 18  2  0
 17 22  1  0
 18 19  1  0
 18 36  1  0
 19 20  2  0
 19 37  1  0
 20 21  1  0
 20 38  1  0
 21 22  2  0
 21 39  1  0
 22 40  1  0
M  END

