
     RDKit          3D

 53 56  0  0  0  0  0  0  0  0999 V2000
    1.1247    0.9665    0.5946 C   0  0  0  0  0  0  0  0  0  0  0  0
    2.0443    0.2483   -0.2042 O   0  0  0  0  0  0  0  0  0  0  0  0
    3.0834    0.8864   -0.7944 C   0  0  0  0  0  0  0  0  0  0  0  0
    3.3061    2.2661   -0.6457 C   0  0  0  0  0  0  0  0  0  0  0  0
    4.3922    2.8767   -1.2739 C   0  0  0  0  0  0  0  0  0  0  0  0
    5.2736    2.1282   -2.0590 C   0  0  0  0  0  0  0  0  0  0  0  0
    5.0525    0.7626   -2.2063 C   0  0  0  0  0  0  0  0  0  0  0  0
    3.9690    0.1111   -1.5891 C   0  0  0  0  0  0  0  0  0  0  0  0
    3.8588   -1.3641   -1.8403 C   0  0  0  0  0  0  0  0  0  0  0  0
    4.6765   -1.9286   -2.5425 O   0  0  0  0  0  0  0  0  0  0  0  0
    2.7167   -2.1857   -1.2179 C   0  0  0  0  0  0  0  0  0  0  0  0
    2.8144   -3.5675   -1.6090 N   0  0  0  0  0  0  0  0  0  0  0  0
    2.2956   -4.0409   -2.8351 C   0  0  0  0  0  0  0  0  0  0  0  0
    1.5873   -3.4083   -3.5824 O   0  0  0  0  0  0  0  0  0  0  0  0
    2.7471   -5.3280   -2.9683 N   0  0  0  0  0  0  0  0  0  0  0  0
    3.7272   -5.7067   -1.9618 C   0  0  2  0  0  0  0  0  0  0  0  0
    5.1687   -5.7779   -2.5757 C   0  0  0  0  0  0  0  0  0  0  0  0
    5.2960   -6.7457   -3.7300 C   0  0  0  0  0  0  0  0  0  0  0  0
    5.1506   -6.2938   -5.0533 C   0  0  0  0  0  0  0  0  0  0  0  0
    5.2407   -7.1808   -6.1311 C   0  0  0  0  0  0  0  0  0  0  0  0
    5.4824   -8.5381   -5.9030 C   0  0  0  0  0  0  0  0  0  0  0  0
    5.6362   -9.0002   -4.5919 C   0  0  0  0  0  0  0  0  0  0  0  0
    5.5429   -8.1131   -3.5167 C   0  0  0  0  0  0  0  0  0  0  0  0
    3.3471   -6.9746   -1.1911 C   0  0  0  0  0  0  0  0  0  0  0  0
    2.2566   -7.7656   -1.5768 C   0  0  0  0  0  0  0  0  0  0  0  0
    1.9343   -8.9307   -0.8729 C   0  0  0  0  0  0  0  0  0  0  0  0
    2.6930   -9.3176    0.2334 C   0  0  0  0  0  0  0  0  0  0  0  0
    3.7744   -8.5263    0.6351 C   0  0  0  0  0  0  0  0  0  0  0  0
    4.1006   -7.3662   -0.0704 C   0  0  0  0  0  0  0  0  0  0  0  0
    3.6916   -4.4613   -1.0371 C   0  0  0  0  0  0  0  0  0  0  0  0
    4.3322   -4.2893   -0.0264 O   0  0  0  0  0  0  0  0  0  0  0  0
    0.3878    0.2340    0.9489 H   0  0  0  0  0  0  0  0  0  0  0  0
    0.6049    1.7479    0.0138 H   0  0  0  0  0  0  0  0  0  0  0  0
    1.6181    1.4309    1.4658 H   0  0  0  0  0  0  0  0  0  0  0  0
    2.6328    2.8701   -0.0386 H   0  0  0  0  0  0  0  0  0  0  0  0
    4.5464    3.9512   -1.1443 H   0  0  0  0  0  0  0  0  0  0  0  0
    6.1234    2.6067   -2.5502 H   0  0  0  0  0  0  0  0  0  0  0  0
    5.7180    0.1444   -2.8112 H   0  0  0  0  0  0  0  0  0  0  0  0
    1.7491   -1.7854   -1.5476 H   0  0  0  0  0  0  0  0  0  0  0  0
    2.7572   -2.1087   -0.1231 H   0  0  0  0  0  0  0  0  0  0  0  0
    2.6862   -5.7839   -3.8715 H   0  0  0  0  0  0  0  0  0  0  0  0
    5.8659   -6.0391   -1.7670 H   0  0  0  0  0  0  0  0  0  0  0  0
    5.4275   -4.7615   -2.9106 H   0  0  0  0  0  0  0  0  0  0  0  0
    4.9808   -5.2298   -5.2420 H   0  0  0  0  0  0  0  0  0  0  0  0
    5.1298   -6.8068   -7.1523 H   0  0  0  0  0  0  0  0  0  0  0  0
    5.5576   -9.2326   -6.7436 H   0  0  0  0  0  0  0  0  0  0  0  0
    5.8331  -10.0590   -4.4044 H   0  0  0  0  0  0  0  0  0  0  0  0
    5.6663   -8.4845   -2.4966 H   0  0  0  0  0  0  0  0  0  0  0  0
    1.6461   -7.4655   -2.4295 H   0  0  0  0  0  0  0  0  0  0  0  0
    1.0821   -9.5357   -1.1934 H   0  0  0  0  0  0  0  0  0  0  0  0
    2.4409  -10.2272    0.7844 H   0  0  0  0  0  0  0  0  0  0  0  0
    4.3673   -8.8108    1.5083 H   0  0  0  0  0  0  0  0  0  0  0  0
    4.9281   -6.7410    0.2682 H   0  0  0  0  0  0  0  0  0  0  0  0
  1  2  1  0
  1 32  1  0
  1 33  1  0
  1 34  1  0
  2  3  1  0
  3  4  2  0
  3  8  1  0
  4  5  1  0
  4 35  1  0
  5  6  2  0
  5 36  1  0
  6  7  1  0
  6 37  1  0
  7  8  2  0
  7 38  1  0
  8  9  1  0
  9 10  2  0
  9 11  1  0
 11 12  1  0
 11 39  1  0
 11 40  1  0
 12 13  1  0
 12 30  1  0
 13 14  2  0
 13 15  1  0
 15 16  1  0
 15 41  1  0
 16 17  1  6
 16 24  1  0
 16 30  1  0
 17 18  1  0
 17 42  1  0
 17 43  1  0
 18 19  2  0
 18 23  1  0
 19 20  1  0
 19 44  1  0
 20 21  2  0
 20 45  1  0
 21 22  1  0
 21 46  1  0
 22 23  2  0
 22 47  1  0
 23 48  1  0
 24 25  2  0
 24 29  1  0
 25 26  1  0
 25 49  1  0
 26 27  2  0
 26 50  1  0
 27 28  1  0
 27 51  1  0
 28 29  2  0
 28 52  1  0
 29 53  1  0
 30 31  2  0
M  END

