
     RDKit          3D

 46 49  0  0  0  0  0  0  0  0999 V2000
    1.0507   -0.4988    1.8074 C   0  0  0  0  0  0  0  0  0  0  0  0
    1.4949    0.5252    0.9349 O   0  0  0  0  0  0  0  0  0  0  0  0
    2.4860    1.3808    1.2905 C   0  0  0  0  0  0  0  0  0  0  0  0
    2.6694    2.5581    0.6138 C   0  0  0  0  0  0  0  0  0  0  0  0
    1.8317    3.0446   -0.5072 C   0  0  0  0  0  0  0  0  0  0  0  0
    0.9044    2.2615   -1.2124 C   0  0  0  0  0  0  0  0  0  0  0  0
    0.1858    2.8811   -2.2494 C   0  0  0  0  0  0  0  0  0  0  0  0
   -0.7498    2.1070   -2.9472 N   0  0  0  0  0  0  0  0  0  0  0  0
   -1.4801    2.4085   -4.0908 C   0  0  0  0  0  0  0  0  0  0  0  0
   -1.3739    3.4220   -4.7415 O   0  0  0  0  0  0  0  0  0  0  0  0
   -2.4628    1.3089   -4.4636 C   0  0  0  0  0  0  0  0  0  0  0  0
   -3.2048    0.7113   -3.4870 C   0  0  0  0  0  0  0  0  0  0  0  0
   -4.2042   -0.3251   -3.7605 C   0  0  0  0  0  0  0  0  0  0  0  0
   -4.8795   -0.8881   -2.9140 O   0  0  0  0  0  0  0  0  0  0  0  0
   -4.3234   -0.6377   -5.1109 N   0  0  0  0  0  0  0  0  0  0  0  0
   -5.0118   -1.3557   -5.3210 H   0  0  0  0  0  0  0  0  0  0  0  0
   -3.6105   -0.0690   -6.1470 C   0  0  0  0  0  0  0  0  0  0  0  0
   -3.8277   -0.4875   -7.4738 C   0  0  0  0  0  0  0  0  0  0  0  0
   -3.1060    0.0885   -8.5104 C   0  0  0  0  0  0  0  0  0  0  0  0
   -2.1574    1.0907   -8.2454 C   0  0  0  0  0  0  0  0  0  0  0  0
   -1.9363    1.5110   -6.9408 C   0  0  0  0  0  0  0  0  0  0  0  0
   -2.6503    0.9416   -5.8613 C   0  0  0  0  0  0  0  0  0  0  0  0
    0.3565    4.1607   -2.5722 N   0  0  0  0  0  0  0  0  0  0  0  0
    1.2707    4.8148   -1.8547 C   0  0  0  0  0  0  0  0  0  0  0  0
    2.0078    4.3392   -0.8615 N   0  0  0  0  0  0  0  0  0  0  0  0
    3.7559    3.4524    1.0598 C   0  0  0  0  0  0  0  0  0  0  0  0
    4.7122    3.0233    1.8891 C   0  0  0  0  0  0  0  0  0  0  0  0
    5.7428    3.8067    2.2529 F   0  0  0  0  0  0  0  0  0  0  0  0
    4.7600    1.6212    2.4077 C   0  0  0  0  0  0  0  0  0  0  0  0
    3.3409    1.0505    2.4984 C   0  0  0  0  0  0  0  0  0  0  0  0
    0.1531   -0.9282    1.3423 H   0  0  0  0  0  0  0  0  0  0  0  0
    0.7802   -0.1069    2.8018 H   0  0  0  0  0  0  0  0  0  0  0  0
    1.8002   -1.2998    1.9248 H   0  0  0  0  0  0  0  0  0  0  0  0
    0.7545    1.2131   -0.9686 H   0  0  0  0  0  0  0  0  0  0  0  0
   -0.8653    1.1644   -2.5946 H   0  0  0  0  0  0  0  0  0  0  0  0
   -3.1137    0.9912   -2.4360 H   0  0  0  0  0  0  0  0  0  0  0  0
   -4.5681   -1.2662   -7.6753 H   0  0  0  0  0  0  0  0  0  0  0  0
   -3.2824   -0.2415   -9.5372 H   0  0  0  0  0  0  0  0  0  0  0  0
   -1.5971    1.5453   -9.0651 H   0  0  0  0  0  0  0  0  0  0  0  0
   -1.2208    2.3056   -6.7347 H   0  0  0  0  0  0  0  0  0  0  0  0
    1.4263    5.8685   -2.1191 H   0  0  0  0  0  0  0  0  0  0  0  0
    3.7740    4.4612    0.6504 H   0  0  0  0  0  0  0  0  0  0  0  0
    5.2427    1.5995    3.3968 H   0  0  0  0  0  0  0  0  0  0  0  0
    5.3880    1.0024    1.7364 H   0  0  0  0  0  0  0  0  0  0  0  0
    2.8389    1.4674    3.3943 H   0  0  0  0  0  0  0  0  0  0  0  0
    3.3939   -0.0360    2.6517 H   0  0  0  0  0  0  0  0  0  0  0  0
  1  2  1  0
  1 31  1  0
  1 32  1  0
  1 33  1  0
  2  3  1  0
  3  4  2  0
  3 30  1  0
  4  5  1  0
  4 26  1  0
  5  6  2  0
  5 25  1  0
  6  7  1  0
  6 34  1  0
  7  8  1  0
  7 23  2  0
  8  9  1  0
  8 35  1  0
  9 10  2  0
  9 11  1  0
 11 12  2  0
 11 22  1  0
 12 13  1  0
 12 36  1  0
 13 14  2  0
 13 15  1  0
 15 16  1  0
 15 17  1  0
 17 18  1  0
 17 22  2  0
 18 19  2  0
 18 37  1  0
 19 20  1  0
 19 38  1  0
 20 21  2  0
 20 39  1  0
 21 22  1  0
 21 40  1  0
 23 24  1  0
 24 25  2  0
 24 41  1  0
 26 27  2  0
 26 42  1  0
 27 28  1  0
 27 29  1  0
 29 30  1  0
 29 43  1  0
 29 44  1  0
 30 45  1  0
 30 46  1  0
M  END

