
     RDKit          3D

 31 32  0  0  0  0  0  0  0  0999 V2000
    1.0139   -0.6070   -0.1461 C   0  0  0  0  0  0  0  0  0  0  0  0
    2.4037    0.0673   -0.0583 C   0  0  1  0  0  0  0  0  0  0  0  0
    2.2668    1.3375    0.8006 C   0  0  0  0  0  0  0  0  0  0  0  0
    3.4085   -0.8818    0.6381 C   0  0  0  0  0  0  0  0  0  0  0  0
    2.9082    0.3963   -1.4737 C   0  0  0  0  0  0  0  0  0  0  0  0
    3.2002    1.6906   -1.9026 C   0  0  0  0  0  0  0  0  0  0  0  0
    3.6596    1.9419   -3.2081 C   0  0  0  0  0  0  0  0  0  0  0  0
    3.9207    3.2404   -3.5208 O   0  0  0  0  0  0  0  0  0  0  0  0
    4.4395    3.5357   -4.7881 C   0  0  1  0  0  0  0  0  0  0  0  0
    3.4904    3.7324   -5.9399 C   0  0  0  0  0  0  0  0  0  0  0  0
    4.1721    4.9168   -5.2874 C   0  0  0  0  0  0  0  0  0  0  0  0
    3.8151    0.8564   -4.0734 C   0  0  0  0  0  0  0  0  0  0  0  0
    3.5404   -0.3924   -3.6746 N   0  0  0  0  0  0  0  0  0  0  0  0
    3.1185   -0.5984   -2.4590 C   0  0  0  0  0  0  0  0  0  0  0  0
    2.8666   -1.8866   -2.1467 F   0  0  0  0  0  0  0  0  0  0  0  0
    0.6475   -0.8462    0.8655 H   0  0  0  0  0  0  0  0  0  0  0  0
    1.0489   -1.5391   -0.7256 H   0  0  0  0  0  0  0  0  0  0  0  0
    0.2807    0.0655   -0.6201 H   0  0  0  0  0  0  0  0  0  0  0  0
    1.9065    1.0643    1.8046 H   0  0  0  0  0  0  0  0  0  0  0  0
    1.5434    2.0494    0.3729 H   0  0  0  0  0  0  0  0  0  0  0  0
    3.2290    1.8583    0.9273 H   0  0  0  0  0  0  0  0  0  0  0  0
    3.0541   -1.1285    1.6524 H   0  0  0  0  0  0  0  0  0  0  0  0
    4.3973   -0.4051    0.7323 H   0  0  0  0  0  0  0  0  0  0  0  0
    3.5307   -1.8214    0.0830 H   0  0  0  0  0  0  0  0  0  0  0  0
    3.0832    2.5495   -1.2426 H   0  0  0  0  0  0  0  0  0  0  0  0
    5.4191    3.0794   -4.9815 H   0  0  0  0  0  0  0  0  0  0  0  0
    2.4265    3.5897   -5.7315 H   0  0  0  0  0  0  0  0  0  0  0  0
    3.8089    3.4184   -6.9384 H   0  0  0  0  0  0  0  0  0  0  0  0
    3.5613    5.5524   -4.6406 H   0  0  0  0  0  0  0  0  0  0  0  0
    4.9687    5.4369   -5.8261 H   0  0  0  0  0  0  0  0  0  0  0  0
    4.1578    0.9838   -5.1031 H   0  0  0  0  0  0  0  0  0  0  0  0
  2  1  1  6
  1 16  1  0
  1 17  1  0
  1 18  1  0
  2  3  1  0
  2  4  1  0
  2  5  1  0
  3 19  1  0
  3 20  1  0
  3 21  1  0
  4 22  1  0
  4 23  1  0
  4 24  1  0
  5  6  2  0
  5 14  1  0
  6  7  1  0
  6 25  1  0
  7  8  1  0
  7 12  2  0
  8  9  1  0
  9 10  1  0
  9 11  1  0
  9 26  1  6
 10 11  1  0
 10 27  1  0
 10 28  1  0
 11 29  1  0
 11 30  1  0
 12 13  1  0
 12 31  1  0
 13 14  2  0
 14 15  1  0
M  END

