
     RDKit          3D

 49 51  0  0  0  0  0  0  0  0999 V2000
    2.4113    0.3803    1.3285 C   0  0  0  0  0  0  0  0  0  0  0  0
    3.6354    0.3373    0.4055 C   0  0  1  0  0  0  0  0  0  0  0  0
    4.8933   -0.1758    1.1170 C   0  0  0  0  0  0  0  0  0  0  0  0
    3.3579   -0.4038   -0.9154 C   0  0  1  0  0  0  0  0  0  0  0  0
    4.3992   -0.0329   -1.8284 O   0  0  0  0  0  0  0  0  0  0  0  0
    4.3445   -0.6282   -3.0411 C   0  0  0  0  0  0  0  0  0  0  0  0
    4.7490    0.0750   -4.1787 C   0  0  0  0  0  0  0  0  0  0  0  0
    4.6928   -0.5338   -5.4303 C   0  0  0  0  0  0  0  0  0  0  0  0
    4.2083   -1.8389   -5.5148 C   0  0  0  0  0  0  0  0  0  0  0  0
    4.1159   -2.4834   -6.8397 N   0  0  0  0  0  0  0  0  0  0  0  0
    4.4679   -1.8289   -7.8083 O   0  0  0  0  0  0  0  0  0  0  0  0
    3.6964   -3.6282   -6.8829 O   0  0  0  0  0  0  0  0  0  0  0  0
    3.8034   -2.5653   -4.3923 C   0  0  0  0  0  0  0  0  0  0  0  0
    3.9013   -1.9652   -3.1344 C   0  0  0  0  0  0  0  0  0  0  0  0
    3.6035   -2.6442   -1.9204 N   0  0  0  0  0  0  0  0  0  0  0  0
    3.6580   -4.1295   -1.8931 C   0  0  1  0  0  0  0  0  0  0  0  0
    4.4674   -4.7003   -0.7212 C   0  0  0  0  0  0  0  0  0  0  0  0
    2.2665   -4.7867   -2.0743 C   0  0  0  0  0  0  0  0  0  0  0  0
    2.0263   -5.4197   -3.0881 O   0  0  0  0  0  0  0  0  0  0  0  0
    1.4022   -4.6026   -1.0300 N   0  0  0  0  0  0  0  0  0  0  0  0
    0.0814   -5.0632   -0.8951 C   0  0  0  0  0  0  0  0  0  0  0  0
   -0.5474   -5.8832   -1.8481 C   0  0  0  0  0  0  0  0  0  0  0  0
   -1.8624   -6.2916   -1.6165 C   0  0  0  0  0  0  0  0  0  0  0  0
   -2.6466   -7.3115   -2.7992 Cl  0  0  0  0  0  0  0  0  0  0  0  0
   -2.5753   -5.9158   -0.4755 C   0  0  0  0  0  0  0  0  0  0  0  0
   -1.9269   -5.0993    0.4545 C   0  0  0  0  0  0  0  0  0  0  0  0
   -2.7821   -4.6032    1.8964 Cl  0  0  0  0  0  0  0  0  0  0  0  0
   -0.6158   -4.6695    0.2625 C   0  0  0  0  0  0  0  0  0  0  0  0
    3.2359   -1.9281   -0.8063 C   0  0  0  0  0  0  0  0  0  0  0  0
    2.7901   -2.4625    0.2031 O   0  0  0  0  0  0  0  0  0  0  0  0
    2.6130    1.0416    2.1856 H   0  0  0  0  0  0  0  0  0  0  0  0
    2.1635   -0.6185    1.7125 H   0  0  0  0  0  0  0  0  0  0  0  0
    1.5248    0.7773    0.8067 H   0  0  0  0  0  0  0  0  0  0  0  0
    3.8379    1.3696    0.0700 H   0  0  0  0  0  0  0  0  0  0  0  0
    4.7410   -1.1897    1.5178 H   0  0  0  0  0  0  0  0  0  0  0  0
    5.1468    0.4831    1.9620 H   0  0  0  0  0  0  0  0  0  0  0  0
    5.7571   -0.1920    0.4350 H   0  0  0  0  0  0  0  0  0  0  0  0
    2.3921   -0.0437   -1.3272 H   0  0  0  0  0  0  0  0  0  0  0  0
    5.1022    1.1003   -4.0571 H   0  0  0  0  0  0  0  0  0  0  0  0
    4.9983   -0.0154   -6.3382 H   0  0  0  0  0  0  0  0  0  0  0  0
    3.4164   -3.5749   -4.5308 H   0  0  0  0  0  0  0  0  0  0  0  0
    4.1852   -4.4143   -2.8083 H   0  0  0  0  0  0  0  0  0  0  0  0
    3.9994   -4.5288    0.2544 H   0  0  0  0  0  0  0  0  0  0  0  0
    5.4731   -4.2525   -0.7082 H   0  0  0  0  0  0  0  0  0  0  0  0
    4.5815   -5.7842   -0.8737 H   0  0  0  0  0  0  0  0  0  0  0  0
    1.7474   -3.9880   -0.2884 H   0  0  0  0  0  0  0  0  0  0  0  0
   -0.0156   -6.1861   -2.7456 H   0  0  0  0  0  0  0  0  0  0  0  0
   -3.6004   -6.2470   -0.3166 H   0  0  0  0  0  0  0  0  0  0  0  0
   -0.1390   -4.0307    1.0078 H   0  0  0  0  0  0  0  0  0  0  0  0
  1  2  1  0
  1 31  1  0
  1 32  1  0
  1 33  1  0
  2  3  1  0
  2  4  1  0
  2 34  1  6
  3 35  1  0
  3 36  1  0
  3 37  1  0
  4  5  1  0
  4 29  1  0
  4 38  1  6
  5  6  1  0
  6  7  1  0
  6 14  2  0
  7  8  2  0
  7 39  1  0
  8  9  1  0
  8 40  1  0
  9 10  1  0
  9 13  2  0
 10 11  2  0
 10 12  1  0
 13 14  1  0
 13 41  1  0
 14 15  1  0
 15 16  1  0
 15 29  1  0
 16 17  1  0
 16 18  1  0
 16 42  1  6
 17 43  1  0
 17 44  1  0
 17 45  1  0
 18 19  2  0
 18 20  1  0
 20 21  1  0
 20 46  1  0
 21 22  2  0
 21 28  1  0
 22 23  1  0
 22 47  1  0
 23 24  1  0
 23 25  2  0
 25 26  1  0
 25 48  1  0
 26 27  1  0
 26 28  2  0
 28 49  1  0
 29 30  2  0
M  CHG  2  10   1  12  -1
M  END

