
     RDKit          3D

 41 42  0  0  0  0  0  0  0  0999 V2000
    3.5946    1.1116    3.0792 C   0  0  0  0  0  0  0  0  0  0  0  0
    3.7748    0.6097    1.6671 C   0  0  0  0  0  0  0  0  0  0  0  0
    3.4199    1.3888    0.5607 C   0  0  0  0  0  0  0  0  0  0  0  0
    3.5694    0.8908   -0.7360 C   0  0  0  0  0  0  0  0  0  0  0  0
    4.0713   -0.3935   -0.9820 C   0  0  0  0  0  0  0  0  0  0  0  0
    4.2220   -0.8852   -2.4024 C   0  0  0  0  0  0  0  0  0  0  0  0
    4.4350   -1.1935    0.1291 C   0  0  0  0  0  0  0  0  0  0  0  0
    4.9977   -2.6044   -0.0841 C   0  0  1  0  0  0  0  0  0  0  0  0
    5.7981   -3.1561    1.0108 N   0  0  0  0  0  0  0  0  0  0  0  0
    3.9251   -3.6417   -0.4493 C   0  0  0  0  0  0  0  0  0  0  0  0
    2.6051   -3.4522   -0.0328 C   0  0  0  0  0  0  0  0  0  0  0  0
    1.6484   -4.4185   -0.3316 C   0  0  0  0  0  0  0  0  0  0  0  0
    0.2571   -4.2154    0.1166 N   0  0  0  0  0  0  0  0  0  0  0  0
    0.0088   -3.2057    0.7573 O   0  0  0  0  0  0  0  0  0  0  0  0
   -0.5643   -5.0705   -0.1780 O   0  0  0  0  0  0  0  0  0  0  0  0
    1.9689   -5.5678   -1.0459 C   0  0  0  0  0  0  0  0  0  0  0  0
    3.2864   -5.7785   -1.4698 C   0  0  0  0  0  0  0  0  0  0  0  0
    3.6080   -7.0329   -2.2503 C   0  0  0  0  0  0  0  0  0  0  0  0
    4.2813   -4.8179   -1.1599 C   0  0  0  0  0  0  0  0  0  0  0  0
    5.7156   -5.0288   -1.5822 C   0  0  0  0  0  0  0  0  0  0  0  0
    4.2867   -0.6744    1.4201 C   0  0  0  0  0  0  0  0  0  0  0  0
    3.5171    2.2088    3.1118 H   0  0  0  0  0  0  0  0  0  0  0  0
    4.4330    0.8098    3.7271 H   0  0  0  0  0  0  0  0  0  0  0  0
    2.6737    0.7039    3.5317 H   0  0  0  0  0  0  0  0  0  0  0  0
    3.0246    2.3977    0.7098 H   0  0  0  0  0  0  0  0  0  0  0  0
    3.2906    1.5213   -1.5854 H   0  0  0  0  0  0  0  0  0  0  0  0
    3.8668   -0.1309   -3.1192 H   0  0  0  0  0  0  0  0  0  0  0  0
    3.6530   -1.8121   -2.5810 H   0  0  0  0  0  0  0  0  0  0  0  0
    5.2749   -1.1058   -2.6509 H   0  0  0  0  0  0  0  0  0  0  0  0
    5.6782   -2.5338   -0.9482 H   0  0  0  0  0  0  0  0  0  0  0  0
    5.2175   -3.3793    1.8183 H   0  0  0  0  0  0  0  0  0  0  0  0
    6.5071   -2.4900    1.3172 H   0  0  0  0  0  0  0  0  0  0  0  0
    2.3034   -2.5601    0.5139 H   0  0  0  0  0  0  0  0  0  0  0  0
    1.1821   -6.2893   -1.2656 H   0  0  0  0  0  0  0  0  0  0  0  0
    2.7003   -7.6280   -2.4233 H   0  0  0  0  0  0  0  0  0  0  0  0
    4.3291   -7.6743   -1.7167 H   0  0  0  0  0  0  0  0  0  0  0  0
    4.0495   -6.8027   -3.2336 H   0  0  0  0  0  0  0  0  0  0  0  0
    5.9116   -6.0600   -1.8989 H   0  0  0  0  0  0  0  0  0  0  0  0
    6.3911   -4.7833   -0.7502 H   0  0  0  0  0  0  0  0  0  0  0  0
    5.9802   -4.3722   -2.4305 H   0  0  0  0  0  0  0  0  0  0  0  0
    4.5852   -1.2886    2.2737 H   0  0  0  0  0  0  0  0  0  0  0  0
  1  2  1  0
  1 22  1  0
  1 23  1  0
  1 24  1  0
  2  3  2  0
  2 21  1  0
  3  4  1  0
  3 25  1  0
  4  5  2  0
  4 26  1  0
  5  6  1  0
  5  7  1  0
  6 27  1  0
  6 28  1  0
  6 29  1  0
  7  8  1  0
  7 21  2  0
  8  9  1  0
  8 10  1  0
  8 30  1  6
  9 31  1  0
  9 32  1  0
 10 11  2  0
 10 19  1  0
 11 12  1  0
 11 33  1  0
 12 13  1  0
 12 16  2  0
 13 14  2  0
 13 15  1  0
 16 17  1  0
 16 34  1  0
 17 18  1  0
 17 19  2  0
 18 35  1  0
 18 36  1  0
 18 37  1  0
 19 20  1  0
 20 38  1  0
 20 39  1  0
 20 40  1  0
 21 41  1  0
M  CHG  2  13   1  15  -1
M  END

