
     RDKit          3D

 42 42  0  0  0  0  0  0  0  0999 V2000
    1.1184   -4.4305    2.7072 C   0  0  0  0  0  0  0  0  0  0  0  0
    2.6051   -4.1435    2.9152 C   0  0  0  0  0  0  0  0  0  0  0  0
    2.9639   -2.6640    2.7768 C   0  0  0  0  0  0  0  0  0  0  0  0
    4.3782   -2.4368    3.0290 N   0  0  0  0  0  0  0  0  0  0  0  0
    4.8727   -1.0757    2.8193 C   0  0  1  0  0  0  0  0  0  0  0  0
    4.2624   -0.0983    3.8315 C   0  0  0  0  0  0  0  0  0  0  0  0
    6.4128   -1.0829    2.8628 C   0  0  0  0  0  0  0  0  0  0  0  0
    7.0380   -1.5305    4.1892 C   0  0  0  0  0  0  0  0  0  0  0  0
    8.5661   -1.6350    4.1232 C   0  0  0  0  0  0  0  0  0  0  0  0
    9.1785   -2.0861    5.4483 C   0  0  0  0  0  0  0  0  0  0  0  0
   11.0122   -2.1949    5.2766 S   0  0  0  0  0  0  0  0  0  0  0  0
   11.5103   -2.7116    6.9071 C   0  0  0  0  0  0  0  0  0  0  0  0
   12.4050   -1.9297    7.6563 C   0  0  0  0  0  0  0  0  0  0  0  0
   12.8830   -2.3490    8.8998 C   0  0  0  0  0  0  0  0  0  0  0  0
   12.4422   -3.5690    9.4076 C   0  0  0  0  0  0  0  0  0  0  0  0
   12.8794   -3.9809   10.6036 F   0  0  0  0  0  0  0  0  0  0  0  0
   11.5502   -4.3773    8.7054 C   0  0  0  0  0  0  0  0  0  0  0  0
   11.1107   -3.9401    7.4593 C   0  0  0  0  0  0  0  0  0  0  0  0
   10.2678   -4.7265    6.7782 F   0  0  0  0  0  0  0  0  0  0  0  0
    0.8987   -5.5048    2.8099 H   0  0  0  0  0  0  0  0  0  0  0  0
    0.7821   -4.1175    1.7044 H   0  0  0  0  0  0  0  0  0  0  0  0
    0.4989   -3.8936    3.4451 H   0  0  0  0  0  0  0  0  0  0  0  0
    3.1983   -4.7277    2.1865 H   0  0  0  0  0  0  0  0  0  0  0  0
    2.9272   -4.4859    3.9134 H   0  0  0  0  0  0  0  0  0  0  0  0
    2.3708   -2.0866    3.5067 H   0  0  0  0  0  0  0  0  0  0  0  0
    2.6438   -2.3003    1.7709 H   0  0  0  0  0  0  0  0  0  0  0  0
    4.9208   -3.0748    2.4462 H   0  0  0  0  0  0  0  0  0  0  0  0
    4.5901   -0.7052    1.8052 H   0  0  0  0  0  0  0  0  0  0  0  0
    4.4161   -0.4501    4.8635 H   0  0  0  0  0  0  0  0  0  0  0  0
    3.1796    0.0228    3.6769 H   0  0  0  0  0  0  0  0  0  0  0  0
    4.7193    0.8988    3.7281 H   0  0  0  0  0  0  0  0  0  0  0  0
    6.7740   -0.0725    2.6020 H   0  0  0  0  0  0  0  0  0  0  0  0
    6.7763   -1.7449    2.0537 H   0  0  0  0  0  0  0  0  0  0  0  0
    6.6069   -2.5031    4.4790 H   0  0  0  0  0  0  0  0  0  0  0  0
    6.7594   -0.8240    4.9904 H   0  0  0  0  0  0  0  0  0  0  0  0
    8.9957   -0.6594    3.8325 H   0  0  0  0  0  0  0  0  0  0  0  0
    8.8556   -2.3468    3.3296 H   0  0  0  0  0  0  0  0  0  0  0  0
    8.7929   -3.0741    5.7387 H   0  0  0  0  0  0  0  0  0  0  0  0
    8.9458   -1.3710    6.2532 H   0  0  0  0  0  0  0  0  0  0  0  0
   12.7257   -0.9707    7.2441 H   0  0  0  0  0  0  0  0  0  0  0  0
   13.5798   -1.7428    9.4807 H   0  0  0  0  0  0  0  0  0  0  0  0
   11.2145   -5.3325    9.1106 H   0  0  0  0  0  0  0  0  0  0  0  0
  1  2  1  0
  1 20  1  0
  1 21  1  0
  1 22  1  0
  2  3  1  0
  2 23  1  0
  2 24  1  0
  3  4  1  0
  3 25  1  0
  3 26  1  0
  4  5  1  0
  4 27  1  0
  5  6  1  0
  5  7  1  0
  5 28  1  6
  6 29  1  0
  6 30  1  0
  6 31  1  0
  7  8  1  0
  7 32  1  0
  7 33  1  0
  8  9  1  0
  8 34  1  0
  8 35  1  0
  9 10  1  0
  9 36  1  0
  9 37  1  0
 10 11  1  0
 10 38  1  0
 10 39  1  0
 11 12  1  0
 12 13  2  0
 12 18  1  0
 13 14  1  0
 13 40  1  0
 14 15  2  0
 14 41  1  0
 15 16  1  0
 15 17  1  0
 17 18  2  0
 17 42  1  0
 18 19  1  0
M  END

