
     RDKit          3D

 65 67  0  0  0  0  0  0  0  0999 V2000
    2.2780   -4.8361    8.1605 C   0  0  0  0  0  0  0  0  0  0  0  0
    3.7127   -4.4183    7.8274 C   0  0  1  0  0  0  0  0  0  0  0  0
    3.8451   -3.3689    8.1675 H   0  0  0  0  0  0  0  0  0  0  0  0
    4.7462   -5.2801    8.5075 C   0  0  0  0  0  0  0  0  0  0  0  0
    6.0427   -5.2267    8.1409 C   0  0  0  0  0  0  0  0  0  0  0  0
    7.0741   -6.0234    8.7942 C   0  0  0  0  0  0  0  0  0  0  0  0
    8.3859   -5.7675    8.6494 C   0  0  0  0  0  0  0  0  0  0  0  0
    8.8946   -4.6252    7.8032 C   0  0  2  0  0  0  0  0  0  0  0  0
    9.8576   -4.9431    7.3662 H   0  0  0  0  0  0  0  0  0  0  0  0
    9.1897   -3.3990    8.6926 C   0  0  0  0  0  0  0  0  0  0  0  0
    7.9274   -4.3550    6.6171 C   0  0  2  0  0  0  0  0  0  0  0  0
    7.9726   -5.2678    6.0011 H   0  0  0  0  0  0  0  0  0  0  0  0
    8.3620   -3.1715    5.7297 C   0  0  0  0  0  0  0  0  0  0  0  0
    9.7648   -3.3185    5.1266 C   0  0  0  0  0  0  0  0  0  0  0  0
   10.0906   -2.3356    4.0002 C   0  0  2  0  0  0  0  0  0  0  0  0
   11.0902   -2.5939    3.6086 H   0  0  0  0  0  0  0  0  0  0  0  0
   10.1017   -0.8624    4.3896 C   0  0  0  0  0  0  0  0  0  0  0  0
   10.2745    0.0236    3.1542 C   0  0  1  0  0  0  0  0  0  0  0  0
   10.2885    1.0897    3.4223 H   0  0  0  0  0  0  0  0  0  0  0  0
   11.4840   -0.2209    2.4548 O   0  0  0  0  0  0  0  0  0  0  0  0
    9.0772   -0.2141    2.2361 C   0  0  0  0  0  0  0  0  0  0  0  0
    8.4909    0.6483    1.6402 O   0  0  0  0  0  0  0  0  0  0  0  0
    8.6203   -1.6976    2.0789 C   0  0  0  0  0  0  0  0  0  0  0  0
    7.8118   -2.0233    1.2576 O   0  0  0  0  0  0  0  0  0  0  0  0
    9.1589   -2.6088    2.9168 O   0  0  0  0  0  0  0  0  0  0  0  0
    6.4597   -4.2032    7.0926 C   0  0  1  0  0  0  0  0  0  0  0  0
    6.3916   -3.2206    7.5998 H   0  0  0  0  0  0  0  0  0  0  0  0
    5.4182   -4.0635    5.9312 C   0  0  1  0  0  0  0  0  0  0  0  0
    5.4204   -3.0067    5.6346 H   0  0  0  0  0  0  0  0  0  0  0  0
    5.7965   -4.6912    4.6720 O   0  0  0  0  0  0  0  0  0  0  0  0
    5.9016   -6.0192    4.5352 C   0  0  0  0  0  0  0  0  0  0  0  0
    5.8481   -6.7893    5.4742 O   0  0  0  0  0  0  0  0  0  0  0  0
    6.0552   -6.4521    3.0711 C   0  0  1  0  0  0  0  0  0  0  0  0
    4.6773   -6.2992    2.3916 C   0  0  0  0  0  0  0  0  0  0  0  0
    7.1115   -5.6005    2.3476 C   0  0  0  0  0  0  0  0  0  0  0  0
    6.4933   -7.9387    3.0485 C   0  0  0  0  0  0  0  0  0  0  0  0
    5.5787   -8.8209    3.6424 O   0  0  0  0  0  0  0  0  0  0  0  0
    3.9798   -4.4642    6.3111 C   0  0  0  0  0  0  0  0  0  0  0  0
    2.0951   -4.7907    9.2460 H   0  0  0  0  0  0  0  0  0  0  0  0
    2.0834   -5.8702    7.8307 H   0  0  0  0  0  0  0  0  0  0  0  0
    1.5428   -4.1808    7.6669 H   0  0  0  0  0  0  0  0  0  0  0  0
    4.4276   -5.9681    9.2981 H   0  0  0  0  0  0  0  0  0  0  0  0
    6.7386   -6.8278    9.4565 H   0  0  0  0  0  0  0  0  0  0  0  0
    9.1233   -6.3625    9.1982 H   0  0  0  0  0  0  0  0  0  0  0  0
    9.8544   -3.6806    9.5246 H   0  0  0  0  0  0  0  0  0  0  0  0
    8.2680   -2.9928    9.1387 H   0  0  0  0  0  0  0  0  0  0  0  0
    9.6872   -2.5886    8.1359 H   0  0  0  0  0  0  0  0  0  0  0  0
    8.2902   -2.2341    6.3086 H   0  0  0  0  0  0  0  0  0  0  0  0
    7.6512   -3.0841    4.8959 H   0  0  0  0  0  0  0  0  0  0  0  0
    9.8781   -4.3347    4.7134 H   0  0  0  0  0  0  0  0  0  0  0  0
   10.5494   -3.2069    5.8934 H   0  0  0  0  0  0  0  0  0  0  0  0
   10.9268   -0.6854    5.0975 H   0  0  0  0  0  0  0  0  0  0  0  0
    9.1629   -0.5876    4.9003 H   0  0  0  0  0  0  0  0  0  0  0  0
   11.4503   -1.0792    2.0096 H   0  0  0  0  0  0  0  0  0  0  0  0
    4.3123   -5.2637    2.4594 H   0  0  0  0  0  0  0  0  0  0  0  0
    3.9436   -6.9774    2.8508 H   0  0  0  0  0  0  0  0  0  0  0  0
    4.7609   -6.5650    1.3256 H   0  0  0  0  0  0  0  0  0  0  0  0
    6.8270   -4.5417    2.2908 H   0  0  0  0  0  0  0  0  0  0  0  0
    7.2386   -5.9692    1.3170 H   0  0  0  0  0  0  0  0  0  0  0  0
    8.0928   -5.6579    2.8455 H   0  0  0  0  0  0  0  0  0  0  0  0
    7.4992   -8.0158    3.5117 H   0  0  0  0  0  0  0  0  0  0  0  0
    6.6023   -8.2433    1.9941 H   0  0  0  0  0  0  0  0  0  0  0  0
    5.5247   -8.5450    4.5722 H   0  0  0  0  0  0  0  0  0  0  0  0
    3.7994   -5.4978    5.9833 H   0  0  0  0  0  0  0  0  0  0  0  0
    3.2693   -3.8187    5.7701 H   0  0  0  0  0  0  0  0  0  0  0  0
  1  2  1  0
  1 39  1  0
  1 40  1  0
  1 41  1  0
  2  3  1  1
  2  4  1  0
  2 38  1  0
  4  5  2  0
  4 42  1  0
  5  6  1  0
  5 26  1  0
  6  7  2  0
  6 43  1  0
  7  8  1  0
  7 44  1  0
  8  9  1  6
  8 10  1  0
  8 11  1  0
 10 45  1  0
 10 46  1  0
 10 47  1  0
 11 12  1  6
 11 13  1  0
 11 26  1  0
 13 14  1  0
 13 48  1  0
 13 49  1  0
 14 15  1  0
 14 50  1  0
 14 51  1  0
 15 16  1  6
 15 17  1  0
 15 25  1  0
 17 18  1  0
 17 52  1  0
 17 53  1  0
 18 19  1  1
 18 20  1  0
 18 21  1  0
 20 54  1  0
 21 22  2  0
 21 23  1  0
 23 24  2  0
 23 25  1  0
 26 27  1  1
 26 28  1  0
 28 29  1  6
 28 30  1  0
 28 38  1  0
 30 31  1  0
 31 32  2  0
 33 31  1  1
 33 34  1  0
 33 35  1  0
 33 36  1  0
 34 55  1  0
 34 56  1  0
 34 57  1  0
 35 58  1  0
 35 59  1  0
 35 60  1  0
 36 37  1  0
 36 61  1  0
 36 62  1  0
 37 63  1  0
 38 64  1  0
 38 65  1  0
M  END

