
     RDKit          3D

 33 33  0  0  0  0  0  0  0  0999 V2000
    6.0026    1.1772    2.0993 C   0  0  0  0  0  0  0  0  0  0  0  0
    4.8225    0.5097    1.4028 C   0  0  0  0  0  0  0  0  0  0  0  0
    5.2596   -0.5940    0.5618 N   0  0  0  0  0  0  0  0  0  0  0  0
    4.1798   -1.2788   -0.1336 C   0  0  0  0  0  0  0  0  0  0  0  0
    4.6817   -2.3602   -1.0330 C   0  0  0  0  0  0  0  0  0  0  0  0
    5.4616   -1.9997   -2.0830 O   0  0  0  0  0  0  0  0  0  0  0  0
    5.7994   -3.1219   -2.7638 C   0  0  0  0  0  0  0  0  0  0  0  0
    5.2423   -4.2174   -2.1718 C   0  0  0  0  0  0  0  0  0  0  0  0
    4.5123   -3.7268   -1.0311 C   0  0  0  0  0  0  0  0  0  0  0  0
    3.7026   -4.5368   -0.0612 C   0  0  0  0  0  0  0  0  0  0  0  0
    2.2998   -4.2165   -0.0602 O   0  0  0  0  0  0  0  0  0  0  0  0
    1.6045   -4.4083   -1.2515 C   0  0  1  0  0  0  0  0  0  0  0  0
    0.8783   -5.7667   -1.2347 C   0  0  1  0  0  0  0  0  0  0  0  0
   -0.0727   -5.8259   -0.3010 F   0  0  0  0  0  0  0  0  0  0  0  0
    0.3190   -6.0342   -2.4225 F   0  0  0  0  0  0  0  0  0  0  0  0
    1.7693   -6.7417   -0.9774 F   0  0  0  0  0  0  0  0  0  0  0  0
    0.6548   -3.2122   -1.4304 C   0  0  1  0  0  0  0  0  0  0  0  0
    1.3731   -2.0891   -1.5851 F   0  0  0  0  0  0  0  0  0  0  0  0
   -0.1065   -3.3625   -2.5236 F   0  0  0  0  0  0  0  0  0  0  0  0
   -0.1491   -3.0447   -0.3802 F   0  0  0  0  0  0  0  0  0  0  0  0
    5.6711    2.0375    2.7014 H   0  0  0  0  0  0  0  0  0  0  0  0
    6.7407    1.5272    1.3611 H   0  0  0  0  0  0  0  0  0  0  0  0
    6.5134    0.4746    2.7802 H   0  0  0  0  0  0  0  0  0  0  0  0
    4.3103    1.2451    0.7563 H   0  0  0  0  0  0  0  0  0  0  0  0
    4.0666    0.2008    2.1626 H   0  0  0  0  0  0  0  0  0  0  0  0
    5.7950   -1.2642    1.1140 H   0  0  0  0  0  0  0  0  0  0  0  0
    3.6380   -0.5336   -0.7435 H   0  0  0  0  0  0  0  0  0  0  0  0
    3.4160   -1.7272    0.5371 H   0  0  0  0  0  0  0  0  0  0  0  0
    6.4336   -2.9829   -3.6354 H   0  0  0  0  0  0  0  0  0  0  0  0
    5.3420   -5.2533   -2.4917 H   0  0  0  0  0  0  0  0  0  0  0  0
    4.0081   -4.3479    0.9780 H   0  0  0  0  0  0  0  0  0  0  0  0
    3.8430   -5.6115   -0.2589 H   0  0  0  0  0  0  0  0  0  0  0  0
    2.2632   -4.4111   -2.1382 H   0  0  0  0  0  0  0  0  0  0  0  0
  1  2  1  0
  1 21  1  0
  1 22  1  0
  1 23  1  0
  2  3  1  0
  2 24  1  0
  2 25  1  0
  3  4  1  0
  3 26  1  0
  4  5  1  0
  4 27  1  0
  4 28  1  0
  5  6  1  0
  5  9  2  0
  6  7  1  0
  7  8  2  0
  7 29  1  0
  8  9  1  0
  8 30  1  0
  9 10  1  0
 10 11  1  0
 10 31  1  0
 10 32  1  0
 11 12  1  0
 12 13  1  0
 12 17  1  0
 12 33  1  6
 13 14  1  1
 13 15  1  0
 13 16  1  0
 17 18  1  6
 17 19  1  0
 17 20  1  0
M  END

