
     RDKit          3D

 33 34  0  0  0  0  0  0  0  0999 V2000
    0.8885    0.1441    0.1793 C   0  0  0  0  0  0  0  0  0  0  0  0
    2.4137    0.0151    0.0693 C   0  0  1  0  0  0  0  0  0  0  0  0
    2.8827   -1.4188   -0.2451 C   0  0  0  0  0  0  0  0  0  0  0  0
    2.5892   -1.8236   -1.7039 C   0  0  2  0  0  0  0  0  0  0  0  0
    3.0933   -3.2144   -2.0516 C   0  0  0  0  0  0  0  0  0  0  0  0
    2.1988   -4.2083   -2.4804 C   0  0  0  0  0  0  0  0  0  0  0  0
    2.6430   -5.4923   -2.8103 C   0  0  0  0  0  0  0  0  0  0  0  0
    4.0008   -5.8090   -2.7199 C   0  0  0  0  0  0  0  0  0  0  0  0
    4.9062   -4.8313   -2.2958 C   0  0  0  0  0  0  0  0  0  0  0  0
    4.4563   -3.5505   -1.9649 C   0  0  0  0  0  0  0  0  0  0  0  0
    3.1407   -0.7504   -2.6624 C   0  0  0  0  0  0  0  0  0  0  0  0
    2.6346    0.5738   -2.3331 N   0  0  0  0  0  0  0  0  0  0  0  0
    2.9850    1.5665   -3.3267 C   0  0  0  0  0  0  0  0  0  0  0  0
    2.9942    0.9762   -0.9803 C   0  0  0  0  0  0  0  0  0  0  0  0
    0.4769   -0.5825    0.8988 H   0  0  0  0  0  0  0  0  0  0  0  0
    0.3996   -0.0154   -0.7934 H   0  0  0  0  0  0  0  0  0  0  0  0
    0.6060    1.1523    0.5246 H   0  0  0  0  0  0  0  0  0  0  0  0
    2.8479    0.3005    1.0442 H   0  0  0  0  0  0  0  0  0  0  0  0
    2.4146   -2.1401    0.4457 H   0  0  0  0  0  0  0  0  0  0  0  0
    3.9712   -1.4812   -0.0697 H   0  0  0  0  0  0  0  0  0  0  0  0
    1.4955   -1.8307   -1.8403 H   0  0  0  0  0  0  0  0  0  0  0  0
    1.1335   -3.9697   -2.5550 H   0  0  0  0  0  0  0  0  0  0  0  0
    1.9240   -6.2474   -3.1394 H   0  0  0  0  0  0  0  0  0  0  0  0
    4.3522   -6.8115   -2.9775 H   0  0  0  0  0  0  0  0  0  0  0  0
    5.9712   -5.0674   -2.2205 H   0  0  0  0  0  0  0  0  0  0  0  0
    5.1813   -2.8027   -1.6327 H   0  0  0  0  0  0  0  0  0  0  0  0
    2.8457   -0.9952   -3.6960 H   0  0  0  0  0  0  0  0  0  0  0  0
    4.2580   -0.7737   -2.6396 H   0  0  0  0  0  0  0  0  0  0  0  0
    2.6236    1.2539   -4.3196 H   0  0  0  0  0  0  0  0  0  0  0  0
    4.0843    1.7405   -3.4086 H   0  0  0  0  0  0  0  0  0  0  0  0
    2.5126    2.5315   -3.0824 H   0  0  0  0  0  0  0  0  0  0  0  0
    2.6129    1.9965   -0.8072 H   0  0  0  0  0  0  0  0  0  0  0  0
    4.1045    1.0270   -0.8576 H   0  0  0  0  0  0  0  0  0  0  0  0
  1  2  1  0
  1 15  1  0
  1 16  1  0
  1 17  1  0
  2  3  1  0
  2 14  1  0
  2 18  1  1
  3  4  1  0
  3 19  1  0
  3 20  1  0
  4  5  1  0
  4 11  1  0
  4 21  1  1
  5  6  2  0
  5 10  1  0
  6  7  1  0
  6 22  1  0
  7  8  2  0
  7 23  1  0
  8  9  1  0
  8 24  1  0
  9 10  2  0
  9 25  1  0
 10 26  1  0
 11 12  1  0
 11 27  1  0
 11 28  1  0
 12 13  1  0
 12 14  1  0
 13 29  1  0
 13 30  1  0
 13 31  1  0
 14 32  1  0
 14 33  1  0
M  END

