
     RDKit          3D

 55 58  0  0  0  0  0  0  0  0999 V2000
    5.4626   -7.3136   -6.2513 C   0  0  0  0  0  0  0  0  0  0  0  0
    6.0866   -7.5097   -5.0028 O   0  0  0  0  0  0  0  0  0  0  0  0
    5.5976   -6.8737   -3.9083 C   0  0  0  0  0  0  0  0  0  0  0  0
    6.2718   -7.1143   -2.6978 C   0  0  0  0  0  0  0  0  0  0  0  0
    5.8446   -6.5066   -1.5220 C   0  0  0  0  0  0  0  0  0  0  0  0
    4.7295   -5.6482   -1.5131 C   0  0  0  0  0  0  0  0  0  0  0  0
    4.2757   -4.9453   -0.2500 C   0  0  2  0  0  0  0  0  0  0  0  0
    3.2092   -4.6702   -0.3590 H   0  0  0  0  0  0  0  0  0  0  0  0
    5.0620   -3.6546    0.1107 C   0  0  1  0  0  0  0  0  0  0  0  0
    6.0440   -3.6674   -0.3892 H   0  0  0  0  0  0  0  0  0  0  0  0
    4.3698   -2.3859   -0.3722 C   0  0  0  0  0  0  0  0  0  0  0  0
    3.6533   -2.3450   -1.3365 O   0  0  0  0  0  0  0  0  0  0  0  0
    4.6340   -1.2434    0.3083 O   0  0  0  0  0  0  0  0  0  0  0  0
    5.2953   -1.2571    1.5872 C   0  0  2  0  0  0  0  0  0  0  0  0
    4.9257   -0.3546    2.0951 H   0  0  0  0  0  0  0  0  0  0  0  0
    6.8017   -1.0677    1.3558 C   0  0  0  0  0  0  0  0  0  0  0  0
    7.5183   -1.0416    2.5929 O   0  0  0  0  0  0  0  0  0  0  0  0
    7.6304    0.1555    3.2260 C   0  0  0  0  0  0  0  0  0  0  0  0
    8.4560    0.0236    4.4797 C   0  0  0  0  0  0  0  0  0  0  0  0
    7.1280    1.1687    2.8130 O   0  0  0  0  0  0  0  0  0  0  0  0
    4.8991   -2.4913    2.3920 C   0  0  0  0  0  0  0  0  0  0  0  0
    5.2528   -3.7724    1.6499 C   0  0  1  0  0  0  0  0  0  0  0  0
    6.2917   -4.0843    1.8626 H   0  0  0  0  0  0  0  0  0  0  0  0
    4.3612   -4.8001    2.0323 O   0  0  0  0  0  0  0  0  0  0  0  0
    4.4754   -5.7653    0.9617 N   0  0  0  0  0  0  0  0  0  0  0  0
    3.4486   -6.7656    1.1886 C   0  0  0  0  0  0  0  0  0  0  0  0
    3.7193   -7.6547    2.3857 C   0  0  0  0  0  0  0  0  0  0  0  0
    2.6543   -8.1104    3.1747 C   0  0  0  0  0  0  0  0  0  0  0  0
    2.8775   -8.9750    4.2507 C   0  0  0  0  0  0  0  0  0  0  0  0
    4.1758   -9.3903    4.5574 C   0  0  0  0  0  0  0  0  0  0  0  0
    5.2461   -8.9346    3.7804 C   0  0  0  0  0  0  0  0  0  0  0  0
    5.0194   -8.0757    2.7026 C   0  0  0  0  0  0  0  0  0  0  0  0
    4.0671   -5.4143   -2.7231 C   0  0  0  0  0  0  0  0  0  0  0  0
    4.4887   -6.0143   -3.9148 C   0  0  0  0  0  0  0  0  0  0  0  0
    6.0211   -7.9174   -6.9792 H   0  0  0  0  0  0  0  0  0  0  0  0
    5.4942   -6.2548   -6.5664 H   0  0  0  0  0  0  0  0  0  0  0  0
    4.4094   -7.6486   -6.2430 H   0  0  0  0  0  0  0  0  0  0  0  0
    7.1316   -7.7874   -2.7090 H   0  0  0  0  0  0  0  0  0  0  0  0
    6.3734   -6.7047   -0.5874 H   0  0  0  0  0  0  0  0  0  0  0  0
    6.9595   -0.1303    0.8042 H   0  0  0  0  0  0  0  0  0  0  0  0
    7.2304   -1.9020    0.7829 H   0  0  0  0  0  0  0  0  0  0  0  0
    8.0062   -0.7231    5.1519 H   0  0  0  0  0  0  0  0  0  0  0  0
    8.5167    0.9956    4.9831 H   0  0  0  0  0  0  0  0  0  0  0  0
    9.4657   -0.3344    4.2261 H   0  0  0  0  0  0  0  0  0  0  0  0
    3.8077   -2.4708    2.5404 H   0  0  0  0  0  0  0  0  0  0  0  0
    5.3710   -2.4596    3.3844 H   0  0  0  0  0  0  0  0  0  0  0  0
    3.4242   -7.3765    0.2696 H   0  0  0  0  0  0  0  0  0  0  0  0
    2.4514   -6.2896    1.2893 H   0  0  0  0  0  0  0  0  0  0  0  0
    1.6360   -7.7812    2.9470 H   0  0  0  0  0  0  0  0  0  0  0  0
    2.0338   -9.3190    4.8550 H   0  0  0  0  0  0  0  0  0  0  0  0
    4.3542  -10.0625    5.4007 H   0  0  0  0  0  0  0  0  0  0  0  0
    6.2659   -9.2508    4.0164 H   0  0  0  0  0  0  0  0  0  0  0  0
    5.8554   -7.7127    2.1012 H   0  0  0  0  0  0  0  0  0  0  0  0
    3.2161   -4.7298   -2.7422 H   0  0  0  0  0  0  0  0  0  0  0  0
    3.9459   -5.8026   -4.8361 H   0  0  0  0  0  0  0  0  0  0  0  0
  1  2  1  0
  1 35  1  0
  1 36  1  0
  1 37  1  0
  2  3  1  0
  3  4  2  0
  3 34  1  0
  4  5  1  0
  4 38  1  0
  5  6  2  0
  5 39  1  0
  6  7  1  0
  6 33  1  0
  7  8  1  6
  7  9  1  0
  7 25  1  0
  9 10  1  6
  9 11  1  0
  9 22  1  0
 11 12  2  0
 11 13  1  0
 13 14  1  0
 14 15  1  1
 14 16  1  0
 14 21  1  0
 16 17  1  0
 16 40  1  0
 16 41  1  0
 17 18  1  0
 18 19  1  0
 18 20  2  0
 19 42  1  0
 19 43  1  0
 19 44  1  0
 21 22  1  0
 21 45  1  0
 21 46  1  0
 22 23  1  6
 22 24  1  0
 24 25  1  0
 25 26  1  0
 26 27  1  0
 26 47  1  0
 26 48  1  0
 27 28  2  0
 27 32  1  0
 28 29  1  0
 28 49  1  0
 29 30  2  0
 29 50  1  0
 30 31  1  0
 30 51  1  0
 31 32  2  0
 31 52  1  0
 32 53  1  0
 33 34  2  0
 33 54  1  0
 34 55  1  0
M  END

