
     RDKit          3D

 65 68  0  0  0  0  0  0  0  0999 V2000
    9.5416   -5.0903    2.4937 C   0  0  0  0  0  0  0  0  0  0  0  0
   10.0368   -4.1202    1.4201 C   0  0  0  0  0  0  0  0  0  0  0  0
   11.3685   -4.5572    0.8208 C   0  0  0  0  0  0  0  0  0  0  0  0
   11.7932   -3.6945   -0.2446 O   0  0  0  0  0  0  0  0  0  0  0  0
   12.4971   -2.5895    0.1008 C   0  0  0  0  0  0  0  0  0  0  0  0
   12.7664   -2.3129    1.2557 O   0  0  0  0  0  0  0  0  0  0  0  0
   12.8597   -1.8585   -1.0055 N   0  0  0  0  0  0  0  0  0  0  0  0
   12.0521   -1.9024   -2.2276 C   0  0  0  0  0  0  0  0  0  0  0  0
   10.9566   -0.8302   -2.1799 C   0  0  0  0  0  0  0  0  0  0  0  0
   11.5391    0.4828   -1.9010 N   0  0  0  0  0  0  0  0  0  0  0  0
   11.0138    1.5751   -2.5580 C   0  0  0  0  0  0  0  0  0  0  0  0
   10.0375    1.4842   -3.2892 O   0  0  0  0  0  0  0  0  0  0  0  0
   11.6897    2.9159   -2.4054 C   0  0  0  0  0  0  0  0  0  0  0  0
   10.8539    4.0590   -2.2580 C   0  0  0  0  0  0  0  0  0  0  0  0
   11.3883    5.3271   -2.2105 C   0  0  0  0  0  0  0  0  0  0  0  0
   12.7901    5.5263   -2.3395 C   0  0  0  0  0  0  0  0  0  0  0  0
   13.4444    6.7910   -2.3450 C   0  0  0  0  0  0  0  0  0  0  0  0
   12.4628    8.2346   -2.1831 Cl  0  0  0  0  0  0  0  0  0  0  0  0
   14.8189    6.9120   -2.4944 C   0  0  0  0  0  0  0  0  0  0  0  0
   15.4706    8.2672   -2.6074 C   0  0  0  0  0  0  0  0  0  0  0  0
   15.5651    5.6769   -2.5896 C   0  0  0  0  0  0  0  0  0  0  0  0
   17.0574    5.6514   -2.6709 C   0  0  0  0  0  0  0  0  0  0  0  0
   17.8749    6.4147   -1.8197 C   0  0  0  0  0  0  0  0  0  0  0  0
   19.2655    6.3086   -1.8808 C   0  0  0  0  0  0  0  0  0  0  0  0
   19.8865    5.4539   -2.8025 C   0  0  0  0  0  0  0  0  0  0  0  0
   21.3998    5.3904   -2.8996 C   0  0  0  0  0  0  0  0  0  0  0  0
   21.8740    4.0992   -3.3787 N   0  0  0  0  0  0  0  0  0  0  0  0
   19.0713    4.6823   -3.6450 C   0  0  0  0  0  0  0  0  0  0  0  0
   17.6821    4.7707   -3.5717 C   0  0  0  0  0  0  0  0  0  0  0  0
   14.9832    4.4920   -2.6270 N   0  0  0  0  0  0  0  0  0  0  0  0
   13.6383    4.3876   -2.5129 C   0  0  0  0  0  0  0  0  0  0  0  0
   13.0540    3.0905   -2.5442 C   0  0  0  0  0  0  0  0  0  0  0  0
   12.4079    0.5232   -0.7221 C   0  0  0  0  0  0  0  0  0  0  0  0
   13.5201   -0.5468   -0.8411 C   0  0  1  0  0  0  0  0  0  0  0  0
   14.0286   -0.3601   -1.8044 H   0  0  0  0  0  0  0  0  0  0  0  0
   14.5307   -0.5499    0.1804 N   0  0  0  0  0  0  0  0  0  0  0  0
    8.5792   -4.7595    2.9136 H   0  0  0  0  0  0  0  0  0  0  0  0
   10.2582   -5.1674    3.3281 H   0  0  0  0  0  0  0  0  0  0  0  0
    9.3943   -6.1051    2.0871 H   0  0  0  0  0  0  0  0  0  0  0  0
   10.1608   -3.1132    1.8506 H   0  0  0  0  0  0  0  0  0  0  0  0
    9.2924   -4.0364    0.6092 H   0  0  0  0  0  0  0  0  0  0  0  0
   11.2832   -5.5529    0.3592 H   0  0  0  0  0  0  0  0  0  0  0  0
   12.1505   -4.5877    1.5940 H   0  0  0  0  0  0  0  0  0  0  0  0
   11.6100   -2.8977   -2.3393 H   0  0  0  0  0  0  0  0  0  0  0  0
   12.7165   -1.7212   -3.0884 H   0  0  0  0  0  0  0  0  0  0  0  0
   10.2235   -1.0949   -1.3931 H   0  0  0  0  0  0  0  0  0  0  0  0
   10.4105   -0.7646   -3.1292 H   0  0  0  0  0  0  0  0  0  0  0  0
    9.7746    3.9096   -2.1929 H   0  0  0  0  0  0  0  0  0  0  0  0
   10.7395    6.1951   -2.0881 H   0  0  0  0  0  0  0  0  0  0  0  0
   14.8299    8.9531   -3.1793 H   0  0  0  0  0  0  0  0  0  0  0  0
   16.4470    8.2030   -3.1021 H   0  0  0  0  0  0  0  0  0  0  0  0
   15.6237    8.7309   -1.6177 H   0  0  0  0  0  0  0  0  0  0  0  0
   17.4252    7.0728   -1.0734 H   0  0  0  0  0  0  0  0  0  0  0  0
   19.8785    6.8968   -1.1910 H   0  0  0  0  0  0  0  0  0  0  0  0
   21.8241    5.7064   -1.9222 H   0  0  0  0  0  0  0  0  0  0  0  0
   21.7325    6.1555   -3.6262 H   0  0  0  0  0  0  0  0  0  0  0  0
   21.7105    3.3741   -2.6791 H   0  0  0  0  0  0  0  0  0  0  0  0
   22.8781    4.1250   -3.5504 H   0  0  0  0  0  0  0  0  0  0  0  0
   19.5498    4.0011   -4.3515 H   0  0  0  0  0  0  0  0  0  0  0  0
   17.0563    4.1496   -4.2153 H   0  0  0  0  0  0  0  0  0  0  0  0
   13.7342    2.2514   -2.6992 H   0  0  0  0  0  0  0  0  0  0  0  0
   11.8196    0.3146    0.1930 H   0  0  0  0  0  0  0  0  0  0  0  0
   12.8506    1.5192   -0.6157 H   0  0  0  0  0  0  0  0  0  0  0  0
   14.1315   -0.7147    1.1027 H   0  0  0  0  0  0  0  0  0  0  0  0
   15.0545    0.3224    0.1669 H   0  0  0  0  0  0  0  0  0  0  0  0
  1  2  1  0
  1 37  1  0
  1 38  1  0
  1 39  1  0
  2  3  1  0
  2 40  1  0
  2 41  1  0
  3  4  1  0
  3 42  1  0
  3 43  1  0
  4  5  1  0
  5  6  2  0
  5  7  1  0
  7  8  1  0
  7 34  1  0
  8  9  1  0
  8 44  1  0
  8 45  1  0
  9 10  1  0
  9 46  1  0
  9 47  1  0
 10 11  1  0
 10 33  1  0
 11 12  2  0
 11 13  1  0
 13 14  2  0
 13 32  1  0
 14 15  1  0
 14 48  1  0
 15 16  2  0
 15 49  1  0
 16 17  1  0
 16 31  1  0
 17 18  1  0
 17 19  2  0
 19 20  1  0
 19 21  1  0
 20 50  1  0
 20 51  1  0
 20 52  1  0
 21 22  1  0
 21 30  2  0
 22 23  2  0
 22 29  1  0
 23 24  1  0
 23 53  1  0
 24 25  2  0
 24 54  1  0
 25 26  1  0
 25 28  1  0
 26 27  1  0
 26 55  1  0
 26 56  1  0
 27 57  1  0
 27 58  1  0
 28 29  2  0
 28 59  1  0
 29 60  1  0
 30 31  1  0
 31 32  2  0
 32 61  1  0
 33 34  1  0
 33 62  1  0
 33 63  1  0
 34 35  1  6
 34 36  1  0
 36 64  1  0
 36 65  1  0
M  END

