
     RDKit          3D

 58 61  0  0  0  0  0  0  0  0999 V2000
    1.0274   -0.2402    1.8336 C   0  0  0  0  0  0  0  0  0  0  0  0
    2.3316   -0.1218    1.0456 C   0  0  2  0  0  0  0  0  0  0  0  0
    2.0369   -0.0444   -0.4593 C   0  0  0  0  0  0  0  0  0  0  0  0
    3.2956   -1.2540    1.4286 C   0  0  0  0  0  0  0  0  0  0  0  0
    4.7269   -1.0748    0.8945 C   0  0  1  0  0  0  0  0  0  0  0  0
    4.9130   -1.5519   -0.4811 N   0  0  0  0  0  0  0  0  0  0  0  0
    5.0356   -2.8803   -0.7744 C   0  0  0  0  0  0  0  0  0  0  0  0
    4.9170   -3.7392    0.0924 O   0  0  0  0  0  0  0  0  0  0  0  0
    5.3503   -3.2012   -2.2374 C   0  0  1  0  0  0  0  0  0  0  0  0
    6.8256   -3.6533   -2.3960 C   0  0  0  0  0  0  0  0  0  0  0  0
    7.0511   -5.0993   -1.9172 C   0  0  0  0  0  0  0  0  0  0  0  0
    6.1509   -6.0637   -2.5489 N   0  0  0  0  0  0  0  0  0  0  0  0
    6.5023   -6.4423   -3.9089 C   0  0  0  0  0  0  0  0  0  0  0  0
    7.7515   -7.3059   -3.9920 C   0  0  0  0  0  0  0  0  0  0  0  0
    7.9945   -8.3062   -3.0374 C   0  0  0  0  0  0  0  0  0  0  0  0
    9.1137   -9.1349   -3.1426 C   0  0  0  0  0  0  0  0  0  0  0  0
   10.0108   -8.9780   -4.2054 C   0  0  0  0  0  0  0  0  0  0  0  0
    9.7811   -7.9825   -5.1585 C   0  0  0  0  0  0  0  0  0  0  0  0
    8.6610   -7.1518   -5.0478 C   0  0  0  0  0  0  0  0  0  0  0  0
    4.7538   -5.6991   -2.3302 C   0  0  0  0  0  0  0  0  0  0  0  0
    4.4006   -4.2787   -2.8131 C   0  0  0  0  0  0  0  0  0  0  0  0
    5.1641    0.3705    1.0135 C   0  0  0  0  0  0  0  0  0  0  0  0
    6.5152    0.7310    0.8750 C   0  0  0  0  0  0  0  0  0  0  0  0
    6.9362    2.0529    1.0039 C   0  0  0  0  0  0  0  0  0  0  0  0
    5.9886    3.0470    1.2860 C   0  0  0  0  0  0  0  0  0  0  0  0
    4.6445    2.7166    1.4263 C   0  0  0  0  0  0  0  0  0  0  0  0
    4.2217    1.3818    1.2877 C   0  0  0  0  0  0  0  0  0  0  0  0
    2.8971    1.1476    1.4605 O   0  0  0  0  0  0  0  0  0  0  0  0
    0.4969   -1.1663    1.5644 H   0  0  0  0  0  0  0  0  0  0  0  0
    0.3715    0.6162    1.6158 H   0  0  0  0  0  0  0  0  0  0  0  0
    1.2292   -0.2528    2.9150 H   0  0  0  0  0  0  0  0  0  0  0  0
    1.6129   -0.9931   -0.8227 H   0  0  0  0  0  0  0  0  0  0  0  0
    2.9425    0.1668   -1.0439 H   0  0  0  0  0  0  0  0  0  0  0  0
    1.3130    0.7609   -0.6558 H   0  0  0  0  0  0  0  0  0  0  0  0
    2.9017   -2.2275    1.1046 H   0  0  0  0  0  0  0  0  0  0  0  0
    3.3533   -1.2858    2.5292 H   0  0  0  0  0  0  0  0  0  0  0  0
    5.3785   -1.7072    1.5198 H   0  0  0  0  0  0  0  0  0  0  0  0
    5.0641   -0.8649   -1.2094 H   0  0  0  0  0  0  0  0  0  0  0  0
    5.2120   -2.2739   -2.8197 H   0  0  0  0  0  0  0  0  0  0  0  0
    7.4966   -2.9666   -1.8519 H   0  0  0  0  0  0  0  0  0  0  0  0
    7.0961   -3.5670   -3.4626 H   0  0  0  0  0  0  0  0  0  0  0  0
    6.8927   -5.1465   -0.8279 H   0  0  0  0  0  0  0  0  0  0  0  0
    8.0926   -5.4010   -2.1093 H   0  0  0  0  0  0  0  0  0  0  0  0
    6.6269   -5.5832   -4.6055 H   0  0  0  0  0  0  0  0  0  0  0  0
    5.6537   -7.0245   -4.3115 H   0  0  0  0  0  0  0  0  0  0  0  0
    7.2955   -8.4134   -2.2048 H   0  0  0  0  0  0  0  0  0  0  0  0
    9.2887   -9.9089   -2.3902 H   0  0  0  0  0  0  0  0  0  0  0  0
   10.8873   -9.6262   -4.2865 H   0  0  0  0  0  0  0  0  0  0  0  0
   10.4793   -7.8463   -5.9888 H   0  0  0  0  0  0  0  0  0  0  0  0
    8.4907   -6.3697   -5.7944 H   0  0  0  0  0  0  0  0  0  0  0  0
    4.5482   -5.7631   -1.2511 H   0  0  0  0  0  0  0  0  0  0  0  0
    4.1093   -6.4368   -2.8361 H   0  0  0  0  0  0  0  0  0  0  0  0
    3.3541   -4.0441   -2.5545 H   0  0  0  0  0  0  0  0  0  0  0  0
    4.4668   -4.2350   -3.9146 H   0  0  0  0  0  0  0  0  0  0  0  0
    7.2465   -0.0569    0.6702 H   0  0  0  0  0  0  0  0  0  0  0  0
    7.9926    2.3085    0.8956 H   0  0  0  0  0  0  0  0  0  0  0  0
    6.3017    4.0885    1.3962 H   0  0  0  0  0  0  0  0  0  0  0  0
    3.8885    3.4738    1.6439 H   0  0  0  0  0  0  0  0  0  0  0  0
  2  1  1  1
  1 29  1  0
  1 30  1  0
  1 31  1  0
  2  3  1  0
  2  4  1  0
  2 28  1  0
  3 32  1  0
  3 33  1  0
  3 34  1  0
  4  5  1  0
  4 35  1  0
  4 36  1  0
  5  6  1  0
  5 22  1  0
  5 37  1  1
  6  7  1  0
  6 38  1  0
  7  8  2  0
  7  9  1  0
  9 10  1  0
  9 21  1  0
  9 39  1  6
 10 11  1  0
 10 40  1  0
 10 41  1  0
 11 12  1  0
 11 42  1  0
 11 43  1  0
 12 13  1  0
 12 20  1  0
 13 14  1  0
 13 44  1  0
 13 45  1  0
 14 15  2  0
 14 19  1  0
 15 16  1  0
 15 46  1  0
 16 17  2  0
 16 47  1  0
 17 18  1  0
 17 48  1  0
 18 19  2  0
 18 49  1  0
 19 50  1  0
 20 21  1  0
 20 51  1  0
 20 52  1  0
 21 53  1  0
 21 54  1  0
 22 23  1  0
 22 27  2  0
 23 24  2  0
 23 55  1  0
 24 25  1  0
 24 56  1  0
 25 26  2  0
 25 57  1  0
 26 27  1  0
 26 58  1  0
 27 28  1  0
M  END

