
     RDKit          3D

 46 47  0  0  0  0  0  0  0  0999 V2000
    2.0414    0.4226    1.8889 C   0  0  0  0  0  0  0  0  0  0  0  0
    1.9834    0.7283    0.4119 C   0  0  0  0  0  0  0  0  0  0  0  0
    2.5936    1.8771   -0.1053 C   0  0  0  0  0  0  0  0  0  0  0  0
    2.5525    2.1555   -1.4724 C   0  0  0  0  0  0  0  0  0  0  0  0
    1.8786    1.2917   -2.3340 C   0  0  0  0  0  0  0  0  0  0  0  0
    1.2378    0.1367   -1.8595 C   0  0  0  0  0  0  0  0  0  0  0  0
    0.4706   -0.7456   -2.8089 C   0  0  0  0  0  0  0  0  0  0  0  0
    1.3153   -0.1450   -0.4777 C   0  0  0  0  0  0  0  0  0  0  0  0
    0.6835   -1.2921    0.0782 N   0  0  0  0  0  0  0  0  0  0  0  0
    0.9076   -2.5959   -0.2716 C   0  0  0  0  0  0  0  0  0  0  0  0
    1.6557   -2.9726   -1.1565 O   0  0  0  0  0  0  0  0  0  0  0  0
    0.1090   -3.5995    0.5857 C   0  0  0  0  0  0  0  0  0  0  0  0
   -1.3413   -3.4932    0.4374 N   0  0  0  0  0  0  0  0  0  0  0  0
   -1.9468   -4.2825   -0.6270 C   0  0  0  0  0  0  0  0  0  0  0  0
   -2.0094   -2.6393    1.2768 C   0  0  0  0  0  0  0  0  0  0  0  0
   -1.3839   -1.8678    2.0138 O   0  0  0  0  0  0  0  0  0  0  0  0
   -3.4962   -2.6874    1.2934 C   0  0  0  0  0  0  0  0  0  0  0  0
   -4.1810   -1.7873    2.0276 C   0  0  0  0  0  0  0  0  0  0  0  0
   -5.6327   -1.6875    2.2028 C   0  0  0  0  0  0  0  0  0  0  0  0
   -6.1481   -0.6524    3.0073 C   0  0  0  0  0  0  0  0  0  0  0  0
   -7.5232   -0.5148    3.2032 C   0  0  0  0  0  0  0  0  0  0  0  0
   -8.4168   -1.4041    2.6037 C   0  0  0  0  0  0  0  0  0  0  0  0
   -7.9084   -2.4355    1.8036 C   0  0  0  0  0  0  0  0  0  0  0  0
   -9.0151   -3.5589    1.0463 Cl  0  0  0  0  0  0  0  0  0  0  0  0
   -6.5391   -2.5838    1.6001 C   0  0  0  0  0  0  0  0  0  0  0  0
    2.6672    1.1557    2.4176 H   0  0  0  0  0  0  0  0  0  0  0  0
    2.4567   -0.5811    2.0770 H   0  0  0  0  0  0  0  0  0  0  0  0
    1.0417    0.4422    2.3574 H   0  0  0  0  0  0  0  0  0  0  0  0
    3.1160    2.5546    0.5757 H   0  0  0  0  0  0  0  0  0  0  0  0
    3.0395    3.0519   -1.8647 H   0  0  0  0  0  0  0  0  0  0  0  0
    1.8292    1.5192   -3.4025 H   0  0  0  0  0  0  0  0  0  0  0  0
    0.2869   -0.2297   -3.7626 H   0  0  0  0  0  0  0  0  0  0  0  0
   -0.5024   -1.0355   -2.3793 H   0  0  0  0  0  0  0  0  0  0  0  0
    1.0197   -1.6794   -3.0056 H   0  0  0  0  0  0  0  0  0  0  0  0
    0.1031   -1.1662    0.9127 H   0  0  0  0  0  0  0  0  0  0  0  0
    0.3582   -3.4501    1.6466 H   0  0  0  0  0  0  0  0  0  0  0  0
    0.4302   -4.6024    0.2757 H   0  0  0  0  0  0  0  0  0  0  0  0
   -1.2585   -4.3149   -1.4848 H   0  0  0  0  0  0  0  0  0  0  0  0
   -2.8807   -3.8281   -0.9788 H   0  0  0  0  0  0  0  0  0  0  0  0
   -2.1508   -5.3223   -0.3125 H   0  0  0  0  0  0  0  0  0  0  0  0
   -4.0134   -3.4708    0.7385 H   0  0  0  0  0  0  0  0  0  0  0  0
   -3.5782   -1.0447    2.5609 H   0  0  0  0  0  0  0  0  0  0  0  0
   -5.4564    0.0484    3.4809 H   0  0  0  0  0  0  0  0  0  0  0  0
   -7.9072    0.2936    3.8299 H   0  0  0  0  0  0  0  0  0  0  0  0
   -9.4940   -1.3087    2.7481 H   0  0  0  0  0  0  0  0  0  0  0  0
   -6.1855   -3.4014    0.9712 H   0  0  0  0  0  0  0  0  0  0  0  0
  1  2  1  0
  1 26  1  0
  1 27  1  0
  1 28  1  0
  2  3  2  0
  2  8  1  0
  3  4  1  0
  3 29  1  0
  4  5  2  0
  4 30  1  0
  5  6  1  0
  5 31  1  0
  6  7  1  0
  6  8  2  0
  7 32  1  0
  7 33  1  0
  7 34  1  0
  8  9  1  0
  9 10  1  0
  9 35  1  0
 10 11  2  0
 10 12  1  0
 12 13  1  0
 12 36  1  0
 12 37  1  0
 13 14  1  0
 13 15  1  0
 14 38  1  0
 14 39  1  0
 14 40  1  0
 15 16  2  0
 15 17  1  0
 17 18  2  0
 17 41  1  0
 18 19  1  0
 18 42  1  0
 19 20  2  0
 19 25  1  0
 20 21  1  0
 20 43  1  0
 21 22  2  0
 21 44  1  0
 22 23  1  0
 22 45  1  0
 23 24  1  0
 23 25  2  0
 25 46  1  0
M  END

