
     RDKit          3D

 51 57  0  0  0  0  0  0  0  0999 V2000
    1.5959   -1.5617   -0.1058 C   0  0  0  0  0  0  0  0  0  0  0  0
    1.7167   -0.2006    0.2638 O   0  0  0  0  0  0  0  0  0  0  0  0
    2.5227    0.1286    1.3015 C   0  0  0  0  0  0  0  0  0  0  0  0
    3.2588   -0.7876    2.0255 C   0  0  0  0  0  0  0  0  0  0  0  0
    4.0339   -0.4027    3.1497 C   0  0  0  0  0  0  0  0  0  0  0  0
    4.0291    0.9713    3.5767 C   0  0  0  0  0  0  0  0  0  0  0  0
    3.3315    1.9158    2.7404 C   0  0  0  0  0  0  0  0  0  0  0  0
    3.3846    3.2412    3.0495 O   0  0  0  0  0  0  0  0  0  0  0  0
    3.7458    4.1990    2.0652 C   0  0  0  0  0  0  0  0  0  0  0  0
    2.5745    1.5098    1.6387 C   0  0  0  0  0  0  0  0  0  0  0  0
    1.8556    2.4539    0.9731 O   0  0  0  0  0  0  0  0  0  0  0  0
    1.9653    2.5561   -0.4421 C   0  0  0  0  0  0  0  0  0  0  0  0
    4.7254    1.3401    4.7967 C   0  0  0  0  0  0  0  0  0  0  0  0
    4.5935    2.6321    5.4139 C   0  0  0  0  0  0  0  0  0  0  0  0
    5.2896    2.9687    6.5397 C   0  0  0  0  0  0  0  0  0  0  0  0
    6.1879    2.0586    7.1696 C   0  0  0  0  0  0  0  0  0  0  0  0
    6.9296    2.4309    8.3115 C   0  0  0  0  0  0  0  0  0  0  0  0
    7.7817    1.5230    8.9179 C   0  0  0  0  0  0  0  0  0  0  0  0
    7.9016    0.2258    8.4027 C   0  0  0  0  0  0  0  0  0  0  0  0
    7.1811   -0.1909    7.2764 C   0  0  0  0  0  0  0  0  0  0  0  0
    7.2891   -1.5545    6.7485 C   0  0  0  0  0  0  0  0  0  0  0  0
    8.1330   -2.5322    7.3081 C   0  0  0  0  0  0  0  0  0  0  0  0
    8.1875   -3.8235    6.7863 C   0  0  0  0  0  0  0  0  0  0  0  0
    7.3979   -4.1843    5.6935 C   0  0  0  0  0  0  0  0  0  0  0  0
    6.5608   -3.2225    5.1326 C   0  0  0  0  0  0  0  0  0  0  0  0
    5.7951   -3.6028    4.0812 O   0  0  0  0  0  0  0  0  0  0  0  0
    4.9034   -2.7823    3.4263 C   0  0  0  0  0  0  0  0  0  0  0  0
    4.2600   -3.3161    2.5532 O   0  0  0  0  0  0  0  0  0  0  0  0
    4.8498   -1.3665    3.8598 C   0  0  0  0  0  0  0  0  0  0  0  0
    5.6215   -0.9630    4.9605 C   0  0  0  0  0  0  0  0  0  0  0  0
    6.4924   -1.9071    5.6266 C   0  0  0  0  0  0  0  0  0  0  0  0
    5.5502    0.3831    5.4541 C   0  0  0  0  0  0  0  0  0  0  0  0
    6.3077    0.7407    6.6288 C   0  0  0  0  0  0  0  0  0  0  0  0
    0.8870   -1.5920   -0.9437 H   0  0  0  0  0  0  0  0  0  0  0  0
    1.2050   -2.1730    0.7253 H   0  0  0  0  0  0  0  0  0  0  0  0
    2.5625   -1.9840   -0.4299 H   0  0  0  0  0  0  0  0  0  0  0  0
    3.2488   -1.8351    1.7524 H   0  0  0  0  0  0  0  0  0  0  0  0
    4.2900    5.0009    2.5881 H   0  0  0  0  0  0  0  0  0  0  0  0
    2.8591    4.6216    1.5713 H   0  0  0  0  0  0  0  0  0  0  0  0
    4.4116    3.7601    1.3030 H   0  0  0  0  0  0  0  0  0  0  0  0
    1.5497    3.5372   -0.7139 H   0  0  0  0  0  0  0  0  0  0  0  0
    1.4020    1.7637   -0.9534 H   0  0  0  0  0  0  0  0  0  0  0  0
    3.0205    2.5129   -0.7664 H   0  0  0  0  0  0  0  0  0  0  0  0
    3.9103    3.3502    4.9773 H   0  0  0  0  0  0  0  0  0  0  0  0
    5.1564    3.9600    6.9818 H   0  0  0  0  0  0  0  0  0  0  0  0
    6.8187    3.4437    8.7074 H   0  0  0  0  0  0  0  0  0  0  0  0
    8.3586    1.8098    9.8005 H   0  0  0  0  0  0  0  0  0  0  0  0
    8.5734   -0.4701    8.9050 H   0  0  0  0  0  0  0  0  0  0  0  0
    8.7597   -2.2892    8.1653 H   0  0  0  0  0  0  0  0  0  0  0  0
    8.8522   -4.5625    7.2402 H   0  0  0  0  0  0  0  0  0  0  0  0
    7.4116   -5.1885    5.2675 H   0  0  0  0  0  0  0  0  0  0  0  0
  1  2  1  0
  1 34  1  0
  1 35  1  0
  1 36  1  0
  2  3  1  0
  3  4  2  0
  3 10  1  0
  4  5  1  0
  4 37  1  0
  5  6  2  0
  5 29  1  0
  6  7  1  0
  6 13  1  0
  7  8  1  0
  7 10  2  0
  8  9  1  0
  9 38  1  0
  9 39  1  0
  9 40  1  0
 10 11  1  0
 11 12  1  0
 12 41  1  0
 12 42  1  0
 12 43  1  0
 13 14  2  0
 13 32  1  0
 14 15  1  0
 14 44  1  0
 15 16  2  0
 15 45  1  0
 16 17  1  0
 16 33  1  0
 17 18  2  0
 17 46  1  0
 18 19  1  0
 18 47  1  0
 19 20  2  0
 19 48  1  0
 20 21  1  0
 20 33  1  0
 21 22  1  0
 21 31  2  0
 22 23  2  0
 22 49  1  0
 23 24  1  0
 23 50  1  0
 24 25  2  0
 24 51  1  0
 25 26  1  0
 25 31  1  0
 26 27  1  0
 27 28  2  0
 27 29  1  0
 29 30  2  0
 30 31  1  0
 30 32  1  0
 32 33  2  0
M  END

