
     RDKit          3D

 28 30  0  0  0  0  0  0  0  0999 V2000
    0.9009   -0.2676   -0.2175 C   0  0  0  0  0  0  0  0  0  0  0  0
    2.3743   -0.0696   -0.0729 C   0  0  0  0  0  0  0  0  0  0  0  0
    3.1173    0.1583    1.0194 C   0  0  0  0  0  0  0  0  0  0  0  0
    4.5681    0.1848    0.6085 C   0  0  2  0  0  0  0  0  0  0  0  0
    4.5001    0.2243   -0.8285 O   0  0  0  0  0  0  0  0  0  0  0  0
    3.1627   -0.0741   -1.2469 N   0  0  0  0  0  0  0  0  0  0  0  0
    5.3390   -1.1008    1.0706 C   0  0  0  0  0  0  0  0  0  0  0  0
    5.0283   -2.2451    0.8276 O   0  0  0  0  0  0  0  0  0  0  0  0
    6.4473   -0.6904    1.7904 N   0  0  0  0  0  0  0  0  0  0  0  0
    7.4191   -1.6024    2.3462 C   0  0  0  0  0  0  0  0  0  0  0  0
    6.5283    0.7117    1.8397 C   0  0  0  0  0  0  0  0  0  0  0  0
    7.5016    1.4983    2.4529 C   0  0  0  0  0  0  0  0  0  0  0  0
    7.3762    2.8931    2.3464 C   0  0  0  0  0  0  0  0  0  0  0  0
    6.3142    3.4766    1.6496 C   0  0  0  0  0  0  0  0  0  0  0  0
    5.3389    2.6677    1.0419 C   0  0  0  0  0  0  0  0  0  0  0  0
    5.4497    1.2894    1.1461 C   0  0  0  0  0  0  0  0  0  0  0  0
    0.4037   -0.2420    0.7613 H   0  0  0  0  0  0  0  0  0  0  0  0
    0.6800   -1.2418   -0.6872 H   0  0  0  0  0  0  0  0  0  0  0  0
    0.4646    0.5103   -0.8648 H   0  0  0  0  0  0  0  0  0  0  0  0
    2.7645    0.2575    2.0437 H   0  0  0  0  0  0  0  0  0  0  0  0
    3.1993   -1.0114   -1.6646 H   0  0  0  0  0  0  0  0  0  0  0  0
    7.0856   -2.6227    2.1140 H   0  0  0  0  0  0  0  0  0  0  0  0
    7.4960   -1.4862    3.4404 H   0  0  0  0  0  0  0  0  0  0  0  0
    8.4173   -1.4396    1.9054 H   0  0  0  0  0  0  0  0  0  0  0  0
    8.3382    1.0526    2.9940 H   0  0  0  0  0  0  0  0  0  0  0  0
    8.1286    3.5310    2.8174 H   0  0  0  0  0  0  0  0  0  0  0  0
    6.2440    4.5642    1.5760 H   0  0  0  0  0  0  0  0  0  0  0  0
    4.5065    3.1105    0.4896 H   0  0  0  0  0  0  0  0  0  0  0  0
  1  2  1  0
  1 17  1  0
  1 18  1  0
  1 19  1  0
  2  3  2  0
  2  6  1  0
  3  4  1  0
  3 20  1  0
  4  5  1  6
  4  7  1  0
  4 16  1  0
  5  6  1  0
  6 21  1  0
  7  8  2  0
  7  9  1  0
  9 10  1  0
  9 11  1  0
 10 22  1  0
 10 23  1  0
 10 24  1  0
 11 12  1  0
 11 16  2  0
 12 13  2  0
 12 25  1  0
 13 14  1  0
 13 26  1  0
 14 15  2  0
 14 27  1  0
 15 16  1  0
 15 28  1  0
M  END

