
     RDKit          3D

 85 89  0  0  0  0  0  0  0  0999 V2000
   -0.1319   -1.5977   -0.4763 C   0  0  0  0  0  0  0  0  0  0  0  0
    1.2136   -1.2237   -0.3682 O   0  0  0  0  0  0  0  0  0  0  0  0
    1.9438   -1.3677   -1.5612 C   0  0  0  0  0  0  0  0  0  0  0  0
    3.3852   -0.9168   -1.3124 C   0  0  0  0  0  0  0  0  0  0  0  0
    4.2629   -1.0481   -2.5239 C   0  0  0  0  0  0  0  0  0  0  0  0
    4.5334   -0.0979   -3.4740 C   0  0  0  0  0  0  0  0  0  0  0  0
    5.3983   -0.7374   -4.4547 C   0  0  0  0  0  0  0  0  0  0  0  0
    5.6585   -2.0259   -4.1032 N   0  0  0  0  0  0  0  0  0  0  0  0
    5.0018   -2.2495   -2.9581 C   0  0  0  0  0  0  0  0  0  0  0  0
    4.9450   -3.5410   -2.3009 C   0  0  0  0  0  0  0  0  0  0  0  0
    5.7261   -4.6269   -2.5854 C   0  0  0  0  0  0  0  0  0  0  0  0
    6.9390   -4.4937   -3.3763 C   0  0  0  0  0  0  0  0  0  0  0  0
    7.0292   -4.9664   -4.6705 N   0  0  0  0  0  0  0  0  0  0  0  0
    6.2200   -5.3186   -5.1684 H   0  0  0  0  0  0  0  0  0  0  0  0
    8.0597   -4.3180   -5.3212 C   0  0  0  0  0  0  0  0  0  0  0  0
    8.7532   -3.5767   -4.3588 C   0  0  0  0  0  0  0  0  0  0  0  0
    8.0602   -3.6770   -3.1387 C   0  0  0  0  0  0  0  0  0  0  0  0
    8.4393   -3.0365   -1.8364 C   0  0  0  0  0  0  0  0  0  0  0  0
    9.6125   -3.7321   -1.1466 C   0  0  0  0  0  0  0  0  0  0  0  0
    9.8979   -3.0574    0.0549 O   0  0  0  0  0  0  0  0  0  0  0  0
   10.9611   -3.6106    0.7776 C   0  0  0  0  0  0  0  0  0  0  0  0
    8.0906   -4.1534   -6.7556 C   0  0  0  0  0  0  0  0  0  0  0  0
    8.2344   -2.9072   -7.2247 N   0  0  0  0  0  0  0  0  0  0  0  0
    8.0836   -2.9460   -8.5787 C   0  0  0  0  0  0  0  0  0  0  0  0
    8.0846   -1.7032   -9.2976 C   0  0  0  0  0  0  0  0  0  0  0  0
    8.5678   -1.7638  -10.6140 N   0  0  0  0  0  0  0  0  0  0  0  0
    8.4680   -0.8491  -11.6484 C   0  0  0  0  0  0  0  0  0  0  0  0
    9.2322   -1.2443  -12.9027 C   0  0  0  0  0  0  0  0  0  0  0  0
    7.8425    0.1964  -11.5953 O   0  0  0  0  0  0  0  0  0  0  0  0
    7.6550   -0.4542   -8.7939 C   0  0  0  0  0  0  0  0  0  0  0  0
    6.9640   -0.0850   -7.6301 C   0  0  0  0  0  0  0  0  0  0  0  0
    6.6905   -0.8459   -6.5296 N   0  0  0  0  0  0  0  0  0  0  0  0
    7.1836   -1.7514   -6.4097 H   0  0  0  0  0  0  0  0  0  0  0  0
    5.8864   -0.1773   -5.6487 C   0  0  0  0  0  0  0  0  0  0  0  0
    5.6402    1.1209   -6.2213 C   0  0  0  0  0  0  0  0  0  0  0  0
    6.2973    1.2002   -7.4288 C   0  0  0  0  0  0  0  0  0  0  0  0
    6.3085    2.3719   -8.3667 C   0  0  0  0  0  0  0  0  0  0  0  0
    7.4914    3.3437   -8.1612 C   0  0  0  0  0  0  0  0  0  0  0  0
    8.7449    2.8190   -8.5189 O   0  0  0  0  0  0  0  0  0  0  0  0
    9.1045    2.9908   -9.8704 C   0  0  0  0  0  0  0  0  0  0  0  0
    7.8488   -4.3271   -9.0113 C   0  0  0  0  0  0  0  0  0  0  0  0
    7.4525   -4.9659  -10.3278 C   0  0  0  0  0  0  0  0  0  0  0  0
    8.2538   -4.6669  -11.6127 C   0  0  0  0  0  0  0  0  0  0  0  0
    9.6102   -4.3070  -11.4115 O   0  0  0  0  0  0  0  0  0  0  0  0
   10.4587   -5.3422  -10.9559 C   0  0  0  0  0  0  0  0  0  0  0  0
    7.8382   -5.0645   -7.8336 C   0  0  0  0  0  0  0  0  0  0  0  0
   -0.6053   -1.4470    0.5053 H   0  0  0  0  0  0  0  0  0  0  0  0
   -0.2478   -2.6640   -0.7622 H   0  0  0  0  0  0  0  0  0  0  0  0
   -0.6765   -0.9878   -1.2266 H   0  0  0  0  0  0  0  0  0  0  0  0
    1.4955   -0.7603   -2.3758 H   0  0  0  0  0  0  0  0  0  0  0  0
    1.9226   -2.4231   -1.9089 H   0  0  0  0  0  0  0  0  0  0  0  0
    3.7847   -1.5047   -0.4699 H   0  0  0  0  0  0  0  0  0  0  0  0
    3.3573    0.1315   -0.9749 H   0  0  0  0  0  0  0  0  0  0  0  0
    4.1738    0.9306   -3.4960 H   0  0  0  0  0  0  0  0  0  0  0  0
    4.1277   -3.6756   -1.5841 H   0  0  0  0  0  0  0  0  0  0  0  0
    5.4051   -5.6162   -2.2345 H   0  0  0  0  0  0  0  0  0  0  0  0
    9.6485   -2.9923   -4.5612 H   0  0  0  0  0  0  0  0  0  0  0  0
    7.5835   -3.0381   -1.1450 H   0  0  0  0  0  0  0  0  0  0  0  0
    8.7152   -1.9815   -2.0006 H   0  0  0  0  0  0  0  0  0  0  0  0
   10.5016   -3.7376   -1.8130 H   0  0  0  0  0  0  0  0  0  0  0  0
    9.3590   -4.7958   -0.9495 H   0  0  0  0  0  0  0  0  0  0  0  0
   11.0992   -3.0122    1.6906 H   0  0  0  0  0  0  0  0  0  0  0  0
   11.9105   -3.5971    0.2024 H   0  0  0  0  0  0  0  0  0  0  0  0
   10.7641   -4.6623    1.0738 H   0  0  0  0  0  0  0  0  0  0  0  0
    9.1484   -2.5836  -10.8086 H   0  0  0  0  0  0  0  0  0  0  0  0
    9.7086   -2.2321  -12.8421 H   0  0  0  0  0  0  0  0  0  0  0  0
   10.0023   -0.4800  -13.0923 H   0  0  0  0  0  0  0  0  0  0  0  0
    8.5381   -1.2151  -13.7562 H   0  0  0  0  0  0  0  0  0  0  0  0
    7.7665    0.3644   -9.4963 H   0  0  0  0  0  0  0  0  0  0  0  0
    5.0112    1.8876   -5.7720 H   0  0  0  0  0  0  0  0  0  0  0  0
    5.3822    2.9513   -8.2165 H   0  0  0  0  0  0  0  0  0  0  0  0
    6.2951    2.0302   -9.4145 H   0  0  0  0  0  0  0  0  0  0  0  0
    7.5510    3.6106   -7.0926 H   0  0  0  0  0  0  0  0  0  0  0  0
    7.2849    4.2763   -8.7250 H   0  0  0  0  0  0  0  0  0  0  0  0
   10.1353    2.6227   -9.9825 H   0  0  0  0  0  0  0  0  0  0  0  0
    9.0821    4.0603  -10.1621 H   0  0  0  0  0  0  0  0  0  0  0  0
    8.4629    2.4213  -10.5680 H   0  0  0  0  0  0  0  0  0  0  0  0
    6.3998   -4.7140  -10.5557 H   0  0  0  0  0  0  0  0  0  0  0  0
    7.4522   -6.0530  -10.1509 H   0  0  0  0  0  0  0  0  0  0  0  0
    7.8100   -3.8163  -12.1481 H   0  0  0  0  0  0  0  0  0  0  0  0
    8.1951   -5.5392  -12.2924 H   0  0  0  0  0  0  0  0  0  0  0  0
   11.4768   -4.9318  -10.9022 H   0  0  0  0  0  0  0  0  0  0  0  0
   10.4554   -6.1944  -11.6621 H   0  0  0  0  0  0  0  0  0  0  0  0
   10.1692   -5.7034   -9.9538 H   0  0  0  0  0  0  0  0  0  0  0  0
    7.6665   -6.1387   -7.7523 H   0  0  0  0  0  0  0  0  0  0  0  0
  1  2  1  0
  1 47  1  0
  1 48  1  0
  1 49  1  0
  2  3  1  0
  3  4  1  0
  3 50  1  0
  3 51  1  0
  4  5  1  0
  4 52  1  0
  4 53  1  0
  5  6  2  0
  5  9  1  0
  6  7  1  0
  6 54  1  0
  7  8  2  0
  7 34  1  0
  8  9  1  0
  9 10  2  0
 10 11  1  0
 10 55  1  0
 11 12  2  0
 11 56  1  0
 12 13  1  0
 12 17  1  0
 13 14  1  0
 13 15  1  0
 15 16  1  0
 15 22  2  0
 16 17  2  0
 16 57  1  0
 17 18  1  0
 18 19  1  0
 18 58  1  0
 18 59  1  0
 19 20  1  0
 19 60  1  0
 19 61  1  0
 20 21  1  0
 21 62  1  0
 21 63  1  0
 21 64  1  0
 22 23  1  0
 22 46  1  0
 23 24  2  0
 24 25  1  0
 24 41  1  0
 25 26  1  0
 25 30  2  0
 26 27  1  0
 26 65  1  0
 27 28  1  0
 27 29  2  0
 28 66  1  0
 28 67  1  0
 28 68  1  0
 30 31  1  0
 30 69  1  0
 31 32  1  0
 31 36  2  0
 32 33  1  0
 32 34  1  0
 34 35  2  0
 35 36  1  0
 35 70  1  0
 36 37  1  0
 37 38  1  0
 37 71  1  0
 37 72  1  0
 38 39  1  0
 38 73  1  0
 38 74  1  0
 39 40  1  0
 40 75  1  0
 40 76  1  0
 40 77  1  0
 41 42  1  0
 41 46  2  0
 42 43  1  0
 42 78  1  0
 42 79  1  0
 43 44  1  0
 43 80  1  0
 43 81  1  0
 44 45  1  0
 45 82  1  0
 45 83  1  0
 45 84  1  0
 46 85  1  0
M  END

