
     RDKit          3D

 48 50  0  0  0  0  0  0  0  0999 V2000
    1.0710    0.0646   -0.0568 C   0  0  0  0  0  0  0  0  0  0  0  0
    2.2696    0.8668   -0.5896 C   0  0  0  0  0  0  0  0  0  0  0  0
    3.0833    1.5397    0.4833 C   0  0  0  0  0  0  0  0  0  0  0  0
    4.1524    0.9959    1.2102 C   0  0  0  0  0  0  0  0  0  0  0  0
    4.7183   -0.3763    0.9838 C   0  0  0  0  0  0  0  0  0  0  0  0
    4.5856    2.0103    2.1326 C   0  0  0  0  0  0  0  0  0  0  0  0
    5.6165    2.0346    3.0975 C   0  0  0  0  0  0  0  0  0  0  0  0
    6.4229    0.7900    3.3667 C   0  0  0  0  0  0  0  0  0  0  0  0
    5.8944    3.2162    3.8194 C   0  0  0  0  0  0  0  0  0  0  0  0
    6.9176    3.5402    4.7759 C   0  0  0  0  0  0  0  0  0  0  0  0
    8.0420    2.6811    5.2771 C   0  0  0  0  0  0  0  0  0  0  0  0
    6.7098    4.8747    5.1543 C   0  0  0  0  0  0  0  0  0  0  0  0
    7.5018    5.6784    6.1508 C   0  0  0  0  0  0  0  0  0  0  0  0
    7.0048    5.5449    7.5998 C   0  0  0  0  0  0  0  0  0  0  0  0
    5.5735    5.3384    4.4385 C   0  0  0  0  0  0  0  0  0  0  0  0
    4.9274    6.6844    4.4949 C   0  0  0  0  0  0  0  0  0  0  0  0
    5.1094    4.3551    3.6451 N   0  0  0  0  0  0  0  0  0  0  0  0
    3.8762    4.4751    2.7057 B   0  0  2  0  0  0  0  0  0  0  0  0
    4.0655    5.5250    1.8056 F   0  0  0  0  0  0  0  0  0  0  0  0
    2.7185    4.6894    3.4536 F   0  0  0  0  0  0  0  0  0  0  0  0
    3.7773    3.1291    1.9327 N   0  0  0  0  0  0  0  0  0  0  0  0
    2.8770    2.8588    0.9695 C   0  0  0  0  0  0  0  0  0  0  0  0
    1.8518    3.8566    0.5383 C   0  0  0  0  0  0  0  0  0  0  0  0
    0.5080   -0.4045   -0.8803 H   0  0  0  0  0  0  0  0  0  0  0  0
    0.3768    0.7111    0.5036 H   0  0  0  0  0  0  0  0  0  0  0  0
    1.3989   -0.7341    0.6279 H   0  0  0  0  0  0  0  0  0  0  0  0
    1.9079    1.6243   -1.3043 H   0  0  0  0  0  0  0  0  0  0  0  0
    2.9179    0.1976   -1.1799 H   0  0  0  0  0  0  0  0  0  0  0  0
    4.2818   -0.8271    0.0815 H   0  0  0  0  0  0  0  0  0  0  0  0
    4.5015   -1.0647    1.8191 H   0  0  0  0  0  0  0  0  0  0  0  0
    5.8105   -0.3649    0.8476 H   0  0  0  0  0  0  0  0  0  0  0  0
    5.8505   -0.1161    3.1505 H   0  0  0  0  0  0  0  0  0  0  0  0
    6.7374    0.7369    4.4136 H   0  0  0  0  0  0  0  0  0  0  0  0
    7.3361    0.7619    2.7465 H   0  0  0  0  0  0  0  0  0  0  0  0
    8.6089    2.2095    4.4597 H   0  0  0  0  0  0  0  0  0  0  0  0
    7.6900    1.8699    5.9377 H   0  0  0  0  0  0  0  0  0  0  0  0
    8.7521    3.2812    5.8632 H   0  0  0  0  0  0  0  0  0  0  0  0
    7.4851    6.7416    5.8598 H   0  0  0  0  0  0  0  0  0  0  0  0
    8.5631    5.3817    6.1047 H   0  0  0  0  0  0  0  0  0  0  0  0
    5.9576    5.8742    7.6934 H   0  0  0  0  0  0  0  0  0  0  0  0
    7.6145    6.1535    8.2876 H   0  0  0  0  0  0  0  0  0  0  0  0
    7.0505    4.4984    7.9416 H   0  0  0  0  0  0  0  0  0  0  0  0
    5.4492    7.3483    5.1959 H   0  0  0  0  0  0  0  0  0  0  0  0
    3.8753    6.5911    4.8074 H   0  0  0  0  0  0  0  0  0  0  0  0
    4.9139    7.1490    3.4971 H   0  0  0  0  0  0  0  0  0  0  0  0
    1.2298    4.1604    1.3949 H   0  0  0  0  0  0  0  0  0  0  0  0
    1.2027    3.4481   -0.2465 H   0  0  0  0  0  0  0  0  0  0  0  0
    2.3363    4.7731    0.1677 H   0  0  0  0  0  0  0  0  0  0  0  0
  1  2  1  0
  1 24  1  0
  1 25  1  0
  1 26  1  0
  2  3  1  0
  2 27  1  0
  2 28  1  0
  3  4  2  0
  3 22  1  0
  4  5  1  0
  4  6  1  0
  5 29  1  0
  5 30  1  0
  5 31  1  0
  6  7  2  0
  6 21  1  0
  7  8  1  0
  7  9  1  0
  8 32  1  0
  8 33  1  0
  8 34  1  0
  9 10  2  0
  9 17  1  0
 10 11  1  0
 10 12  1  0
 11 35  1  0
 11 36  1  0
 11 37  1  0
 12 13  1  0
 12 15  2  0
 13 14  1  0
 13 38  1  0
 13 39  1  0
 14 40  1  0
 14 41  1  0
 14 42  1  0
 15 16  1  0
 15 17  1  0
 16 43  1  0
 16 44  1  0
 16 45  1  0
 17 18  1  0
 18 19  1  6
 18 20  1  0
 18 21  1  0
 21 22  2  0
 22 23  1  0
 23 46  1  0
 23 47  1  0
 23 48  1  0
M  CHG  2  18  -1  21   1
M  END

