
     RDKit          3D

 59 62  0  0  0  0  0  0  0  0999 V2000
    4.2085   -4.4314   -1.5442 C   0  0  0  0  0  0  0  0  0  0  0  0
    4.4953   -2.9508   -1.7659 C   0  0  0  0  0  0  0  0  0  0  0  0
    5.9584   -2.4561   -0.7954 S   0  0  1  0  0  0  0  0  0  0  0  0
    5.6102   -2.5745    0.6363 O   0  0  0  0  0  0  0  0  0  0  0  0
    7.0996   -3.2169   -1.3242 O   0  0  0  0  0  0  0  0  0  0  0  0
    6.2253   -0.7106   -1.2277 C   0  0  0  0  0  0  0  0  0  0  0  0
    7.0068   -0.5308   -2.3782 C   0  0  0  0  0  0  0  0  0  0  0  0
    7.2835    0.7450   -2.8613 C   0  0  0  0  0  0  0  0  0  0  0  0
    6.7744    1.8471   -2.1704 C   0  0  0  0  0  0  0  0  0  0  0  0
    7.1036    3.4549   -2.7520 Cl  0  0  0  0  0  0  0  0  0  0  0  0
    6.0164    1.6790   -1.0098 C   0  0  0  0  0  0  0  0  0  0  0  0
    5.7257    0.3997   -0.5082 C   0  0  0  0  0  0  0  0  0  0  0  0
    4.9556    0.3210    0.8089 C   0  0  0  0  0  0  0  0  0  0  0  0
    3.4898    0.2495    0.6676 N   0  0  0  0  0  0  0  0  0  0  0  0
    2.8291   -0.9468    0.8529 C   0  0  0  0  0  0  0  0  0  0  0  0
    1.5543   -1.1257    0.7618 N   0  0  0  0  0  0  0  0  0  0  0  0
    0.7776   -0.0199    0.4714 C   0  0  0  0  0  0  0  0  0  0  0  0
   -0.6199   -0.1631    0.3479 C   0  0  0  0  0  0  0  0  0  0  0  0
   -1.4570    0.9112    0.0652 C   0  0  0  0  0  0  0  0  0  0  0  0
   -2.9555    0.6554   -0.0314 C   0  0  0  0  0  0  0  0  0  0  0  0
   -3.5133    1.0812   -1.3002 N   0  0  0  0  0  0  0  0  0  0  0  0
   -3.1644    0.2706   -2.4635 C   0  0  0  0  0  0  0  0  0  0  0  0
   -4.0895   -0.9419   -2.6385 C   0  0  0  0  0  0  0  0  0  0  0  0
   -5.4723   -0.4815   -2.6868 N   0  0  0  0  0  0  0  0  0  0  0  0
   -5.8576    0.2453   -1.4824 C   0  0  0  0  0  0  0  0  0  0  0  0
   -4.9243    1.4511   -1.3128 C   0  0  0  0  0  0  0  0  0  0  0  0
   -0.8709    2.2028   -0.1004 C   0  0  0  0  0  0  0  0  0  0  0  0
   -1.6784    3.4462   -0.4310 C   0  0  1  0  0  0  0  0  0  0  0  0
   -2.8474    3.4997    0.2369 F   0  0  0  0  0  0  0  0  0  0  0  0
   -0.9999    4.5620   -0.0935 F   0  0  0  0  0  0  0  0  0  0  0  0
   -1.9504    3.5514   -1.7406 F   0  0  0  0  0  0  0  0  0  0  0  0
    0.5050    2.3600    0.0229 C   0  0  0  0  0  0  0  0  0  0  0  0
    1.3382    1.2646    0.3006 C   0  0  0  0  0  0  0  0  0  0  0  0
    2.7895    1.4498    0.4214 C   0  0  0  0  0  0  0  0  0  0  0  0
    3.3779    2.5147    0.3280 O   0  0  0  0  0  0  0  0  0  0  0  0
    3.3358   -4.7323   -2.1437 H   0  0  0  0  0  0  0  0  0  0  0  0
    3.9890   -4.6367   -0.4864 H   0  0  0  0  0  0  0  0  0  0  0  0
    5.0702   -5.0432   -1.8475 H   0  0  0  0  0  0  0  0  0  0  0  0
    3.6634   -2.3060   -1.4461 H   0  0  0  0  0  0  0  0  0  0  0  0
    4.7443   -2.7215   -2.8126 H   0  0  0  0  0  0  0  0  0  0  0  0
    7.4167   -1.4078   -2.8818 H   0  0  0  0  0  0  0  0  0  0  0  0
    7.8926    0.8868   -3.7551 H   0  0  0  0  0  0  0  0  0  0  0  0
    5.6254    2.5506   -0.4851 H   0  0  0  0  0  0  0  0  0  0  0  0
    5.1729    1.2300    1.3832 H   0  0  0  0  0  0  0  0  0  0  0  0
    5.2781   -0.5542    1.3796 H   0  0  0  0  0  0  0  0  0  0  0  0
    3.4855   -1.7915    1.0897 H   0  0  0  0  0  0  0  0  0  0  0  0
   -1.0355   -1.1635    0.4854 H   0  0  0  0  0  0  0  0  0  0  0  0
   -3.4576    1.2283    0.7632 H   0  0  0  0  0  0  0  0  0  0  0  0
   -3.1256   -0.4160    0.2067 H   0  0  0  0  0  0  0  0  0  0  0  0
   -2.1140   -0.0512   -2.3857 H   0  0  0  0  0  0  0  0  0  0  0  0
   -3.2488    0.9050   -3.3636 H   0  0  0  0  0  0  0  0  0  0  0  0
   -3.9045   -1.6680   -1.8117 H   0  0  0  0  0  0  0  0  0  0  0  0
   -3.8452   -1.4608   -3.5805 H   0  0  0  0  0  0  0  0  0  0  0  0
   -6.1070   -1.2572   -2.8620 H   0  0  0  0  0  0  0  0  0  0  0  0
   -5.8139   -0.3851   -0.5627 H   0  0  0  0  0  0  0  0  0  0  0  0
   -6.8991    0.5933   -1.5854 H   0  0  0  0  0  0  0  0  0  0  0  0
   -5.1627    2.0066   -0.3928 H   0  0  0  0  0  0  0  0  0  0  0  0
   -5.0894    2.1352   -2.1646 H   0  0  0  0  0  0  0  0  0  0  0  0
    0.9680    3.3407   -0.0873 H   0  0  0  0  0  0  0  0  0  0  0  0
  1  2  1  0
  1 36  1  0
  1 37  1  0
  1 38  1  0
  3  2  1  6
  2 39  1  0
  2 40  1  0
  3  4  2  0
  3  5  2  0
  3  6  1  0
  6  7  2  0
  6 12  1  0
  7  8  1  0
  7 41  1  0
  8  9  2  0
  8 42  1  0
  9 10  1  0
  9 11  1  0
 11 12  2  0
 11 43  1  0
 12 13  1  0
 13 14  1  0
 13 44  1  0
 13 45  1  0
 14 15  1  0
 14 34  1  0
 15 16  2  0
 15 46  1  0
 16 17  1  0
 17 18  2  0
 17 33  1  0
 18 19  1  0
 18 47  1  0
 19 20  1  0
 19 27  2  0
 20 21  1  0
 20 48  1  0
 20 49  1  0
 21 22  1  0
 21 26  1  0
 22 23  1  0
 22 50  1  0
 22 51  1  0
 23 24  1  0
 23 52  1  0
 23 53  1  0
 24 25  1  0
 24 54  1  0
 25 26  1  0
 25 55  1  0
 25 56  1  0
 26 57  1  0
 26 58  1  0
 27 28  1  0
 27 32  1  0
 28 29  1  1
 28 30  1  0
 28 31  1  0
 32 33  2  0
 32 59  1  0
 33 34  1  0
 34 35  2  0
M  END

