
     RDKit          3D

 67 71  0  0  0  0  0  0  0  0999 V2000
    0.7413   -0.8445    0.5106 C   0  0  0  0  0  0  0  0  0  0  0  0
    1.6976   -0.1790   -0.4662 C   0  0  0  0  0  0  0  0  0  0  0  0
    1.3645    0.8401   -1.0419 O   0  0  0  0  0  0  0  0  0  0  0  0
    2.9565   -0.7577   -0.6803 N   0  0  0  0  0  0  0  0  0  0  0  0
    3.1934   -2.1452   -0.4492 C   0  0  0  0  0  0  0  0  0  0  0  0
    3.1179   -2.7056    0.8398 C   0  0  0  0  0  0  0  0  0  0  0  0
    3.2812   -4.0721    1.0346 C   0  0  0  0  0  0  0  0  0  0  0  0
    3.5649   -4.9121   -0.0541 C   0  0  0  0  0  0  0  0  0  0  0  0
    3.6612   -6.3930    0.1905 C   0  0  0  0  0  0  0  0  0  0  0  0
    3.1917   -6.9169    1.1910 O   0  0  0  0  0  0  0  0  0  0  0  0
    4.2905   -7.1240   -0.7838 N   0  0  0  0  0  0  0  0  0  0  0  0
    4.3547   -8.5822   -0.7419 C   0  0  1  0  0  0  0  0  0  0  0  0
    3.0049   -9.2183   -1.1458 C   0  0  0  0  0  0  0  0  0  0  0  0
    2.5929   -8.9020   -2.5839 C   0  0  0  0  0  0  0  0  0  0  0  0
    3.8237   -9.5096   -3.7735 S   0  0  2  0  0  0  0  0  0  0  0  0
    3.5584   -8.9128   -5.0923 O   0  0  0  0  0  0  0  0  0  0  0  0
    3.9168  -10.9701   -3.6124 O   0  0  0  0  0  0  0  0  0  0  0  0
    5.3579   -8.7943   -3.1054 C   0  0  0  0  0  0  0  0  0  0  0  0
    5.5187   -9.0907   -1.6103 C   0  0  0  0  0  0  0  0  0  0  0  0
    3.6942   -4.3418   -1.3249 C   0  0  0  0  0  0  0  0  0  0  0  0
    3.5284   -2.9685   -1.5454 C   0  0  0  0  0  0  0  0  0  0  0  0
    3.7631   -2.4170   -2.9582 C   0  0  2  0  0  0  0  0  0  0  0  0
    5.1385   -2.6643   -3.3834 N   0  0  0  0  0  0  0  0  0  0  0  0
    5.5662   -3.7052   -4.1740 C   0  0  0  0  0  0  0  0  0  0  0  0
    6.9087   -3.7366   -4.6380 C   0  0  0  0  0  0  0  0  0  0  0  0
    7.3193   -4.7940   -5.4345 C   0  0  0  0  0  0  0  0  0  0  0  0
    6.3880   -5.7854   -5.7569 C   0  0  0  0  0  0  0  0  0  0  0  0
    6.7527   -6.8310   -6.5141 F   0  0  0  0  0  0  0  0  0  0  0  0
    5.0899   -5.6887   -5.2714 C   0  0  0  0  0  0  0  0  0  0  0  0
    4.6954   -4.6746   -4.4880 N   0  0  0  0  0  0  0  0  0  0  0  0
    3.4067   -0.9076   -3.0730 C   0  0  2  0  0  0  0  0  0  0  0  0
    3.9425   -0.2683   -4.3558 C   0  0  0  0  0  0  0  0  0  0  0  0
    3.8321   -0.2108   -1.7545 C   0  0  1  0  0  0  0  0  0  0  0  0
    3.9519    1.3005   -1.7930 C   0  0  1  0  0  0  0  0  0  0  0  0
    4.6578    2.0059   -0.6659 C   0  0  0  0  0  0  0  0  0  0  0  0
    5.3148    1.9150   -2.0185 C   0  0  0  0  0  0  0  0  0  0  0  0
   -0.2177   -0.3210    0.4158 H   0  0  0  0  0  0  0  0  0  0  0  0
    1.0951   -0.7423    1.5475 H   0  0  0  0  0  0  0  0  0  0  0  0
    0.6012   -1.9160    0.3108 H   0  0  0  0  0  0  0  0  0  0  0  0
    2.9312   -2.0531    1.6927 H   0  0  0  0  0  0  0  0  0  0  0  0
    3.1942   -4.5136    2.0290 H   0  0  0  0  0  0  0  0  0  0  0  0
    4.7639   -6.6282   -1.5274 H   0  0  0  0  0  0  0  0  0  0  0  0
    4.5453   -8.8680    0.3043 H   0  0  0  0  0  0  0  0  0  0  0  0
    2.2274   -8.8544   -0.4569 H   0  0  0  0  0  0  0  0  0  0  0  0
    3.0687  -10.3107   -1.0186 H   0  0  0  0  0  0  0  0  0  0  0  0
    2.4854   -7.8236   -2.7727 H   0  0  0  0  0  0  0  0  0  0  0  0
    1.6615   -9.4065   -2.8829 H   0  0  0  0  0  0  0  0  0  0  0  0
    5.3261   -7.7219   -3.3500 H   0  0  0  0  0  0  0  0  0  0  0  0
    6.1516   -9.2530   -3.7143 H   0  0  0  0  0  0  0  0  0  0  0  0
    6.4656   -8.6478   -1.2584 H   0  0  0  0  0  0  0  0  0  0  0  0
    5.6040  -10.1799   -1.4770 H   0  0  0  0  0  0  0  0  0  0  0  0
    3.8894   -4.9577   -2.2052 H   0  0  0  0  0  0  0  0  0  0  0  0
    3.1375   -2.9896   -3.6586 H   0  0  0  0  0  0  0  0  0  0  0  0
    5.8544   -2.0429   -3.0306 H   0  0  0  0  0  0  0  0  0  0  0  0
    7.6035   -2.9341   -4.3782 H   0  0  0  0  0  0  0  0  0  0  0  0
    8.3410   -4.8623   -5.8150 H   0  0  0  0  0  0  0  0  0  0  0  0
    4.3644   -6.4780   -5.5016 H   0  0  0  0  0  0  0  0  0  0  0  0
    2.3067   -0.8394   -3.1083 H   0  0  0  0  0  0  0  0  0  0  0  0
    5.0391   -0.1813   -4.3610 H   0  0  0  0  0  0  0  0  0  0  0  0
    3.5293    0.7417   -4.4874 H   0  0  0  0  0  0  0  0  0  0  0  0
    3.6552   -0.8687   -5.2336 H   0  0  0  0  0  0  0  0  0  0  0  0
    4.8393   -0.5751   -1.4812 H   0  0  0  0  0  0  0  0  0  0  0  0
    3.1001    1.8247   -2.2240 H   0  0  0  0  0  0  0  0  0  0  0  0
    5.0671    1.3931    0.1433 H   0  0  0  0  0  0  0  0  0  0  0  0
    4.2598    2.9692   -0.3369 H   0  0  0  0  0  0  0  0  0  0  0  0
    6.1795    1.2516   -2.1238 H   0  0  0  0  0  0  0  0  0  0  0  0
    5.3725    2.8157   -2.6359 H   0  0  0  0  0  0  0  0  0  0  0  0
  1  2  1  0
  1 37  1  0
  1 38  1  0
  1 39  1  0
  2  3  2  0
  2  4  1  0
  4  5  1  0
  4 33  1  0
  5  6  1  0
  5 21  2  0
  6  7  2  0
  6 40  1  0
  7  8  1  0
  7 41  1  0
  8  9  1  0
  8 20  2  0
  9 10  2  0
  9 11  1  0
 11 12  1  0
 11 42  1  0
 12 13  1  0
 12 19  1  0
 12 43  1  1
 13 14  1  0
 13 44  1  0
 13 45  1  0
 15 14  1  1
 14 46  1  0
 14 47  1  0
 15 16  2  0
 15 17  2  0
 15 18  1  0
 18 19  1  0
 18 48  1  0
 18 49  1  0
 19 50  1  0
 19 51  1  0
 20 21  1  0
 20 52  1  0
 21 22  1  0
 22 23  1  0
 22 31  1  0
 22 53  1  6
 23 24  1  0
 23 54  1  0
 24 25  2  0
 24 30  1  0
 25 26  1  0
 25 55  1  0
 26 27  2  0
 26 56  1  0
 27 28  1  0
 27 29  1  0
 29 30  2  0
 29 57  1  0
 31 32  1  0
 31 33  1  0
 31 58  1  6
 32 59  1  0
 32 60  1  0
 32 61  1  0
 33 34  1  0
 33 62  1  1
 34 35  1  0
 34 36  1  0
 34 63  1  6
 35 36  1  0
 35 64  1  0
 35 65  1  0
 36 66  1  0
 36 67  1  0
M  END

