
     RDKit          3D

 55 58  0  0  0  0  0  0  0  0999 V2000
    5.3481    4.0918   -1.6726 C   0  0  0  0  0  0  0  0  0  0  0  0
    4.6819    3.0245   -0.8165 C   0  0  0  0  0  0  0  0  0  0  0  0
    3.4758    2.9938   -0.6618 O   0  0  0  0  0  0  0  0  0  0  0  0
    5.5553    2.1126   -0.2601 N   0  0  0  0  0  0  0  0  0  0  0  0
    5.2760    1.0012    0.5574 C   0  0  0  0  0  0  0  0  0  0  0  0
    3.9726    0.6397    0.9523 C   0  0  0  0  0  0  0  0  0  0  0  0
    3.7892   -0.4807    1.7651 C   0  0  0  0  0  0  0  0  0  0  0  0
    4.8681   -1.2531    2.1972 C   0  0  0  0  0  0  0  0  0  0  0  0
    6.1668   -0.8944    1.8054 C   0  0  0  0  0  0  0  0  0  0  0  0
    7.3179   -1.6951    2.2505 C   0  0  0  0  0  0  0  0  0  0  0  0
    8.5602   -1.4059    1.9302 N   0  0  0  0  0  0  0  0  0  0  0  0
    9.3024   -2.4025    2.5488 O   0  0  0  0  0  0  0  0  0  0  0  0
    8.4364   -3.1977    3.1855 C   0  0  0  0  0  0  0  0  0  0  0  0
    8.9564   -4.3521    4.0152 C   0  0  1  0  0  0  0  0  0  0  0  0
    8.9936   -3.9695    5.0429 H   0  0  0  0  0  0  0  0  0  0  0  0
    7.9822   -5.5498    3.9881 C   0  0  0  0  0  0  0  0  0  0  0  0
    8.0375   -6.3124    2.6611 C   0  0  0  0  0  0  0  0  0  0  0  0
    9.4797   -6.7058    2.3236 C   0  0  0  0  0  0  0  0  0  0  0  0
   10.3994   -5.4833    2.3424 C   0  0  0  0  0  0  0  0  0  0  0  0
   10.2994   -4.7553    3.6135 N   0  0  0  0  0  0  0  0  0  0  0  0
   11.4495   -4.5077    4.3268 C   0  0  0  0  0  0  0  0  0  0  0  0
   12.5364   -4.9470    3.9931 O   0  0  0  0  0  0  0  0  0  0  0  0
   11.3533   -3.6791    5.6144 C   0  0  0  0  0  0  0  0  0  0  0  0
   10.6963   -2.4539    5.3654 O   0  0  0  0  0  0  0  0  0  0  0  0
   10.6442   -1.5027    6.3448 C   0  0  0  0  0  0  0  0  0  0  0  0
   11.1288   -1.6862    7.6470 C   0  0  0  0  0  0  0  0  0  0  0  0
   11.0125   -0.6440    8.5763 C   0  0  0  0  0  0  0  0  0  0  0  0
   10.4233    0.5696    8.2220 C   0  0  0  0  0  0  0  0  0  0  0  0
    9.9457    0.7438    6.9159 C   0  0  0  0  0  0  0  0  0  0  0  0
   10.0544   -0.2809    5.9794 C   0  0  0  0  0  0  0  0  0  0  0  0
    7.2029   -2.8218    3.0373 N   0  0  0  0  0  0  0  0  0  0  0  0
    6.3638    0.2281    0.9895 C   0  0  0  0  0  0  0  0  0  0  0  0
    4.9779    5.0761   -1.3508 H   0  0  0  0  0  0  0  0  0  0  0  0
    5.0297    3.9526   -2.7176 H   0  0  0  0  0  0  0  0  0  0  0  0
    6.4472    4.0867   -1.6317 H   0  0  0  0  0  0  0  0  0  0  0  0
    6.5373    2.2513   -0.4658 H   0  0  0  0  0  0  0  0  0  0  0  0
    3.1311    1.2408    0.6166 H   0  0  0  0  0  0  0  0  0  0  0  0
    2.7746   -0.7533    2.0664 H   0  0  0  0  0  0  0  0  0  0  0  0
    4.7227   -2.1276    2.8323 H   0  0  0  0  0  0  0  0  0  0  0  0
    6.9666   -5.1809    4.1931 H   0  0  0  0  0  0  0  0  0  0  0  0
    8.2670   -6.2214    4.8153 H   0  0  0  0  0  0  0  0  0  0  0  0
    7.6265   -5.6785    1.8551 H   0  0  0  0  0  0  0  0  0  0  0  0
    7.3908   -7.2031    2.7146 H   0  0  0  0  0  0  0  0  0  0  0  0
    9.5335   -7.1831    1.3314 H   0  0  0  0  0  0  0  0  0  0  0  0
    9.8475   -7.4460    3.0559 H   0  0  0  0  0  0  0  0  0  0  0  0
   10.1346   -4.7971    1.5168 H   0  0  0  0  0  0  0  0  0  0  0  0
   11.4522   -5.7628    2.2198 H   0  0  0  0  0  0  0  0  0  0  0  0
   12.3937   -3.5195    5.9365 H   0  0  0  0  0  0  0  0  0  0  0  0
   10.8343   -4.2582    6.4052 H   0  0  0  0  0  0  0  0  0  0  0  0
   11.5950   -2.6246    7.9485 H   0  0  0  0  0  0  0  0  0  0  0  0
   11.3923   -0.7929    9.5905 H   0  0  0  0  0  0  0  0  0  0  0  0
   10.3375    1.3761    8.9536 H   0  0  0  0  0  0  0  0  0  0  0  0
    9.4856    1.6910    6.6227 H   0  0  0  0  0  0  0  0  0  0  0  0
    9.6975   -0.1604    4.9544 H   0  0  0  0  0  0  0  0  0  0  0  0
    7.3819    0.4931    0.6931 H   0  0  0  0  0  0  0  0  0  0  0  0
  1  2  1  0
  1 33  1  0
  1 34  1  0
  1 35  1  0
  2  3  2  0
  2  4  1  0
  4  5  1  0
  4 36  1  0
  5  6  2  0
  5 32  1  0
  6  7  1  0
  6 37  1  0
  7  8  2  0
  7 38  1  0
  8  9  1  0
  8 39  1  0
  9 10  1  0
  9 32  2  0
 10 11  2  0
 10 31  1  0
 11 12  1  0
 12 13  1  0
 13 14  1  0
 13 31  2  0
 14 15  1  1
 14 16  1  0
 14 20  1  0
 16 17  1  0
 16 40  1  0
 16 41  1  0
 17 18  1  0
 17 42  1  0
 17 43  1  0
 18 19  1  0
 18 44  1  0
 18 45  1  0
 19 20  1  0
 19 46  1  0
 19 47  1  0
 20 21  1  0
 21 22  2  0
 21 23  1  0
 23 24  1  0
 23 48  1  0
 23 49  1  0
 24 25  1  0
 25 26  2  0
 25 30  1  0
 26 27  1  0
 26 50  1  0
 27 28  2  0
 27 51  1  0
 28 29  1  0
 28 52  1  0
 29 30  2  0
 29 53  1  0
 30 54  1  0
 32 55  1  0
M  END

