
     RDKit          3D

 34 34  0  0  0  0  0  0  0  0999 V2000
    1.7320    1.3665    0.6992 C   0  0  0  0  0  0  0  0  0  0  0  0
    2.3562    0.2516    0.0825 O   0  0  0  0  0  0  0  0  0  0  0  0
    2.8511    0.4160   -1.1612 C   0  0  0  0  0  0  0  0  0  0  0  0
    3.4705   -0.6950   -1.7679 C   0  0  0  0  0  0  0  0  0  0  0  0
    3.9885   -0.5553   -3.0461 C   0  0  0  0  0  0  0  0  0  0  0  0
    3.8765    0.6948   -3.6941 C   0  0  0  0  0  0  0  0  0  0  0  0
    4.3621    0.9551   -4.9849 N   0  0  0  0  0  0  0  0  0  0  0  0
    4.9978    0.1144   -5.8496 C   0  0  0  0  0  0  0  0  0  0  0  0
    5.2637   -1.0601   -5.6389 O   0  0  0  0  0  0  0  0  0  0  0  0
    5.4265    0.8014   -7.1644 C   0  0  1  0  0  0  0  0  0  0  0  0
    5.2816    0.0318   -7.9464 H   0  0  0  0  0  0  0  0  0  0  0  0
    4.6445    2.0178   -7.3965 N   0  0  0  0  0  0  0  0  0  0  0  0
    6.9271    1.1576   -7.1187 C   0  0  0  0  0  0  0  0  0  0  0  0
    7.8657   -0.0446   -7.0309 C   0  0  0  0  0  0  0  0  0  0  0  0
    9.6055    0.5338   -7.0435 S   0  0  0  0  0  0  0  0  0  0  0  0
   10.4539   -1.0649   -6.8559 C   0  0  0  0  0  0  0  0  0  0  0  0
    3.2411    1.7276   -2.9938 C   0  0  0  0  0  0  0  0  0  0  0  0
    2.7428    1.5914   -1.7627 N   0  0  0  0  0  0  0  0  0  0  0  0
    1.4075    1.0222    1.6903 H   0  0  0  0  0  0  0  0  0  0  0  0
    0.8631    1.7146    0.1177 H   0  0  0  0  0  0  0  0  0  0  0  0
    2.4301    2.2126    0.8034 H   0  0  0  0  0  0  0  0  0  0  0  0
    3.5319   -1.6398   -1.2255 H   0  0  0  0  0  0  0  0  0  0  0  0
    4.4756   -1.3824   -3.5593 H   0  0  0  0  0  0  0  0  0  0  0  0
    4.2203    1.8878   -5.3787 H   0  0  0  0  0  0  0  0  0  0  0  0
    3.7407    1.7996   -7.8156 H   0  0  0  0  0  0  0  0  0  0  0  0
    5.1250    2.6481   -8.0372 H   0  0  0  0  0  0  0  0  0  0  0  0
    7.1078    1.8410   -6.2712 H   0  0  0  0  0  0  0  0  0  0  0  0
    7.1628    1.7258   -8.0370 H   0  0  0  0  0  0  0  0  0  0  0  0
    7.7021   -0.7207   -7.8871 H   0  0  0  0  0  0  0  0  0  0  0  0
    7.6760   -0.6238   -6.1156 H   0  0  0  0  0  0  0  0  0  0  0  0
   11.5330   -0.8547   -6.8394 H   0  0  0  0  0  0  0  0  0  0  0  0
   10.2379   -1.7382   -7.7002 H   0  0  0  0  0  0  0  0  0  0  0  0
   10.1743   -1.5587   -5.9123 H   0  0  0  0  0  0  0  0  0  0  0  0
    3.1344    2.7162   -3.4599 H   0  0  0  0  0  0  0  0  0  0  0  0
  1  2  1  0
  1 19  1  0
  1 20  1  0
  1 21  1  0
  2  3  1  0
  3  4  2  0
  3 18  1  0
  4  5  1  0
  4 22  1  0
  5  6  2  0
  5 23  1  0
  6  7  1  0
  6 17  1  0
  7  8  1  0
  7 24  1  0
  8  9  2  0
  8 10  1  0
 10 11  1  6
 10 12  1  0
 10 13  1  0
 12 25  1  0
 12 26  1  0
 13 14  1  0
 13 27  1  0
 13 28  1  0
 14 15  1  0
 14 29  1  0
 14 30  1  0
 15 16  1  0
 16 31  1  0
 16 32  1  0
 16 33  1  0
 17 18  2  0
 17 34  1  0
M  END

