
     RDKit          3D

 46 47  0  0  0  0  0  0  0  0999 V2000
    2.8769    1.2102   -0.4848 C   0  0  0  0  0  0  0  0  0  0  0  0
    2.6438   -0.2885   -0.2984 C   0  0  0  0  0  0  0  0  0  0  0  0
    3.2875   -0.8934    0.9684 C   0  0  1  0  0  0  0  0  0  0  0  0
    2.9913   -0.2738    1.8350 H   0  0  0  0  0  0  0  0  0  0  0  0
    2.8387   -2.2711    1.1267 N   0  0  0  0  0  0  0  0  0  0  0  0
    2.8614   -2.9300    2.3611 C   0  0  0  0  0  0  0  0  0  0  0  0
    3.6219   -2.4485    3.4426 C   0  0  0  0  0  0  0  0  0  0  0  0
    3.6650   -3.1381    4.6572 C   0  0  0  0  0  0  0  0  0  0  0  0
    2.9420   -4.3204    4.8039 C   0  0  0  0  0  0  0  0  0  0  0  0
    2.9933   -5.3838    6.6461 I   0  0  0  0  0  0  0  0  0  0  0  0
    2.1810   -4.8123    3.7388 C   0  0  0  0  0  0  0  0  0  0  0  0
    2.1291   -4.1380    2.5147 C   0  0  0  0  0  0  0  0  0  0  0  0
    1.3066   -4.6843    1.3743 C   0  0  0  0  0  0  0  0  0  0  0  0
    4.8248   -0.7674    0.8955 C   0  0  0  0  0  0  0  0  0  0  0  0
    5.3924    0.2618    1.1911 O   0  0  0  0  0  0  0  0  0  0  0  0
    5.4454   -1.9025    0.4178 N   0  0  0  0  0  0  0  0  0  0  0  0
    6.7772   -1.9345    0.2204 N   0  0  0  0  0  0  0  0  0  0  0  0
    7.3511   -3.0344   -0.1328 C   0  0  0  0  0  0  0  0  0  0  0  0
    6.6060   -4.3384   -0.3179 C   0  0  0  0  0  0  0  0  0  0  0  0
    8.8197   -2.9665   -0.3662 C   0  0  0  0  0  0  0  0  0  0  0  0
    9.5361   -1.8087    0.0047 C   0  0  0  0  0  0  0  0  0  0  0  0
   10.9085   -1.7200   -0.2118 C   0  0  0  0  0  0  0  0  0  0  0  0
   11.6031   -2.7797   -0.8102 C   0  0  0  0  0  0  0  0  0  0  0  0
   10.9064   -3.9278   -1.1902 C   0  0  0  0  0  0  0  0  0  0  0  0
    9.5287   -4.0216   -0.9690 C   0  0  0  0  0  0  0  0  0  0  0  0
    2.3858    1.5606   -1.4060 H   0  0  0  0  0  0  0  0  0  0  0  0
    3.9471    1.4519   -0.5483 H   0  0  0  0  0  0  0  0  0  0  0  0
    2.4610    1.7843    0.3586 H   0  0  0  0  0  0  0  0  0  0  0  0
    3.0108   -0.8446   -1.1796 H   0  0  0  0  0  0  0  0  0  0  0  0
    1.5575   -0.4828   -0.2347 H   0  0  0  0  0  0  0  0  0  0  0  0
    2.0415   -2.5076    0.5470 H   0  0  0  0  0  0  0  0  0  0  0  0
    4.1970   -1.5265    3.3496 H   0  0  0  0  0  0  0  0  0  0  0  0
    4.2647   -2.7415    5.4782 H   0  0  0  0  0  0  0  0  0  0  0  0
    1.6141   -5.7386    3.8536 H   0  0  0  0  0  0  0  0  0  0  0  0
    0.8318   -5.6369    1.6471 H   0  0  0  0  0  0  0  0  0  0  0  0
    1.9212   -4.8623    0.4741 H   0  0  0  0  0  0  0  0  0  0  0  0
    0.4968   -3.9911    1.0793 H   0  0  0  0  0  0  0  0  0  0  0  0
    4.8491   -2.7196    0.2792 H   0  0  0  0  0  0  0  0  0  0  0  0
    5.8129   -4.4541    0.4382 H   0  0  0  0  0  0  0  0  0  0  0  0
    7.2698   -5.2051   -0.2144 H   0  0  0  0  0  0  0  0  0  0  0  0
    6.1324   -4.3982   -1.3141 H   0  0  0  0  0  0  0  0  0  0  0  0
    8.9872   -0.9862    0.4655 H   0  0  0  0  0  0  0  0  0  0  0  0
   11.4449   -0.8163    0.0894 H   0  0  0  0  0  0  0  0  0  0  0  0
   12.6806   -2.7077   -0.9786 H   0  0  0  0  0  0  0  0  0  0  0  0
   11.4345   -4.7594   -1.6639 H   0  0  0  0  0  0  0  0  0  0  0  0
    9.0093   -4.9276   -1.2863 H   0  0  0  0  0  0  0  0  0  0  0  0
  1  2  1  0
  1 26  1  0
  1 27  1  0
  1 28  1  0
  2  3  1  0
  2 29  1  0
  2 30  1  0
  3  4  1  1
  3  5  1  0
  3 14  1  0
  5  6  1  0
  5 31  1  0
  6  7  2  0
  6 12  1  0
  7  8  1  0
  7 32  1  0
  8  9  2  0
  8 33  1  0
  9 10  1  0
  9 11  1  0
 11 12  2  0
 11 34  1  0
 12 13  1  0
 13 35  1  0
 13 36  1  0
 13 37  1  0
 14 15  2  0
 14 16  1  0
 16 17  1  0
 16 38  1  0
 17 18  2  0
 18 19  1  0
 18 20  1  0
 19 39  1  0
 19 40  1  0
 19 41  1  0
 20 21  2  0
 20 25  1  0
 21 22  1  0
 21 42  1  0
 22 23  2  0
 22 43  1  0
 23 24  1  0
 23 44  1  0
 24 25  2  0
 24 45  1  0
 25 46  1  0
M  END

