
     RDKit          3D

 38 40  0  0  0  0  0  0  0  0999 V2000
    0.6986   -0.4876   -0.3479 C   0  0  0  0  0  0  0  0  0  0  0  0
    2.0657   -0.0046   -0.2272 N   0  0  0  0  0  0  0  0  0  0  0  0
    2.9942   -0.5456   -1.2127 C   0  0  1  0  0  0  0  0  0  0  0  0
    2.7086   -0.0188   -2.6223 C   0  0  0  0  0  0  0  0  0  0  0  0
    2.9967   -0.8095   -3.7431 C   0  0  0  0  0  0  0  0  0  0  0  0
    2.7910   -0.3094   -5.0283 C   0  0  0  0  0  0  0  0  0  0  0  0
    2.2824    0.9792   -5.2335 C   0  0  0  0  0  0  0  0  0  0  0  0
    1.9881    1.7822   -4.1083 C   0  0  0  0  0  0  0  0  0  0  0  0
    2.2144    1.2744   -2.8237 C   0  0  0  0  0  0  0  0  0  0  0  0
    1.4090    3.0194   -4.2018 O   0  0  0  0  0  0  0  0  0  0  0  0
    2.0474    4.0199   -4.9838 C   0  0  0  0  0  0  0  0  0  0  0  0
    1.8773    3.8158   -6.4834 C   0  0  0  0  0  0  0  0  0  0  0  0
    2.5770    2.5700   -7.0104 C   0  0  0  0  0  0  0  0  0  0  0  0
    2.0166    1.3589   -6.5210 O   0  0  0  0  0  0  0  0  0  0  0  0
    4.4345   -0.2169   -0.8256 C   0  0  0  0  0  0  0  0  0  0  0  0
    4.7700    0.9697   -0.1544 C   0  0  0  0  0  0  0  0  0  0  0  0
    6.1078    1.2284    0.1411 C   0  0  0  0  0  0  0  0  0  0  0  0
    7.0640    0.2907   -0.2526 C   0  0  0  0  0  0  0  0  0  0  0  0
    8.7579    0.5434    0.0808 Cl  0  0  0  0  0  0  0  0  0  0  0  0
    6.6438   -0.8662   -0.9201 C   0  0  0  0  0  0  0  0  0  0  0  0
    5.3638   -1.1077   -1.1921 N   0  0  0  0  0  0  0  0  0  0  0  0
    0.0924   -0.0855    0.4785 H   0  0  0  0  0  0  0  0  0  0  0  0
    0.6093   -1.5958   -0.3346 H   0  0  0  0  0  0  0  0  0  0  0  0
    0.2513   -0.1347   -1.2897 H   0  0  0  0  0  0  0  0  0  0  0  0
    2.4186   -0.2106    0.7061 H   0  0  0  0  0  0  0  0  0  0  0  0
    2.9536   -1.6531   -1.2702 H   0  0  0  0  0  0  0  0  0  0  0  0
    3.3945   -1.8181   -3.6089 H   0  0  0  0  0  0  0  0  0  0  0  0
    3.0002   -0.9160   -5.9121 H   0  0  0  0  0  0  0  0  0  0  0  0
    1.9655    1.9081   -1.9707 H   0  0  0  0  0  0  0  0  0  0  0  0
    3.1228    4.0710   -4.7219 H   0  0  0  0  0  0  0  0  0  0  0  0
    1.5821    4.9685   -4.6755 H   0  0  0  0  0  0  0  0  0  0  0  0
    2.2854    4.6983   -7.0082 H   0  0  0  0  0  0  0  0  0  0  0  0
    0.8022    3.7584   -6.7232 H   0  0  0  0  0  0  0  0  0  0  0  0
    3.6584    2.6059   -6.7718 H   0  0  0  0  0  0  0  0  0  0  0  0
    2.4770    2.5133   -8.1049 H   0  0  0  0  0  0  0  0  0  0  0  0
    3.9851    1.6729    0.1287 H   0  0  0  0  0  0  0  0  0  0  0  0
    6.4097    2.1383    0.6637 H   0  0  0  0  0  0  0  0  0  0  0  0
    7.3808   -1.6138   -1.2334 H   0  0  0  0  0  0  0  0  0  0  0  0
  1  2  1  0
  1 22  1  0
  1 23  1  0
  1 24  1  0
  2  3  1  0
  2 25  1  0
  3  4  1  0
  3 15  1  0
  3 26  1  6
  4  5  2  0
  4  9  1  0
  5  6  1  0
  5 27  1  0
  6  7  2  0
  6 28  1  0
  7  8  1  0
  7 14  1  0
  8  9  2  0
  8 10  1  0
  9 29  1  0
 10 11  1  0
 11 12  1  0
 11 30  1  0
 11 31  1  0
 12 13  1  0
 12 32  1  0
 12 33  1  0
 13 14  1  0
 13 34  1  0
 13 35  1  0
 15 16  2  0
 15 21  1  0
 16 17  1  0
 16 36  1  0
 17 18  2  0
 17 37  1  0
 18 19  1  0
 18 20  1  0
 20 21  2  0
 20 38  1  0
M  END

