
     RDKit          3D

 96106  0  0  0  0  0  0  0  0999 V2000
    0.2778    2.7634   -3.1841 C   0  0  0  0  0  0  0  0  0  0  0  0
    1.0983    3.5467   -2.3669 C   0  0  0  0  0  0  0  0  0  0  0  0
    2.0656    2.9462   -1.5586 C   0  0  0  0  0  0  0  0  0  0  0  0
    2.2360    1.5489   -1.5490 C   0  0  0  0  0  0  0  0  0  0  0  0
    3.2658    0.9087   -0.6867 C   0  0  0  0  0  0  0  0  0  0  0  0
    3.5470    1.4019    0.6015 C   0  0  0  0  0  0  0  0  0  0  0  0
    4.5118    0.7949    1.4082 C   0  0  0  0  0  0  0  0  0  0  0  0
    5.2191   -0.3189    0.9496 C   0  0  0  0  0  0  0  0  0  0  0  0
    4.9531   -0.8203   -0.3298 C   0  0  0  0  0  0  0  0  0  0  0  0
    5.6731   -1.9653   -0.8242 N   0  0  0  0  0  0  0  0  0  0  0  0
    6.9063   -1.7550   -1.4656 C   0  0  0  0  0  0  0  0  0  0  0  0
    7.4108   -0.4370   -1.5652 C   0  0  0  0  0  0  0  0  0  0  0  0
    8.6620   -0.1667   -2.1249 C   0  0  0  0  0  0  0  0  0  0  0  0
    9.1700    1.2291   -2.2103 C   0  0  0  0  0  0  0  0  0  0  0  0
    8.8924    2.1724   -1.2021 C   0  0  0  0  0  0  0  0  0  0  0  0
    9.3716    3.4811   -1.2883 C   0  0  0  0  0  0  0  0  0  0  0  0
   10.1407    3.8800   -2.3856 C   0  0  0  0  0  0  0  0  0  0  0  0
   10.4260    2.9559   -3.3951 C   0  0  0  0  0  0  0  0  0  0  0  0
    9.9478    1.6470   -3.3074 C   0  0  0  0  0  0  0  0  0  0  0  0
    9.4364   -1.2513   -2.5884 C   0  0  0  0  0  0  0  0  0  0  0  0
    8.9278   -2.5393   -2.5255 C   0  0  0  0  0  0  0  0  0  0  0  0
    7.6477   -2.8465   -2.0066 C   0  0  0  0  0  0  0  0  0  0  0  0
    7.0175   -4.2642   -1.9627 B   0  0  0  0  0  0  0  0  0  0  0  0
    7.4769   -5.5654   -2.6629 C   0  0  0  0  0  0  0  0  0  0  0  0
    8.4565   -5.6420   -3.6833 C   0  0  0  0  0  0  0  0  0  0  0  0
    8.8654   -6.8283   -4.2679 C   0  0  0  0  0  0  0  0  0  0  0  0
    8.2996   -8.0445   -3.8294 C   0  0  0  0  0  0  0  0  0  0  0  0
    8.7141   -9.2749   -4.3969 N   0  0  0  0  0  0  0  0  0  0  0  0
   10.0856   -9.4973   -4.6904 C   0  0  0  0  0  0  0  0  0  0  0  0
   11.0881   -9.0807   -3.7950 C   0  0  0  0  0  0  0  0  0  0  0  0
   12.4347   -9.2961   -4.0922 C   0  0  0  0  0  0  0  0  0  0  0  0
   12.8085   -9.9439   -5.2739 C   0  0  0  0  0  0  0  0  0  0  0  0
   11.8152  -10.3680   -6.1627 C   0  0  0  0  0  0  0  0  0  0  0  0
   10.4670  -10.1419   -5.8819 C   0  0  0  0  0  0  0  0  0  0  0  0
    7.7649  -10.2987   -4.6642 C   0  0  0  0  0  0  0  0  0  0  0  0
    6.5408   -9.9942   -5.2875 C   0  0  0  0  0  0  0  0  0  0  0  0
    5.6126  -11.0026   -5.5507 C   0  0  0  0  0  0  0  0  0  0  0  0
    5.8911  -12.3316   -5.2139 C   0  0  0  0  0  0  0  0  0  0  0  0
    7.1097  -12.6399   -4.6011 C   0  0  0  0  0  0  0  0  0  0  0  0
    8.0371  -11.6349   -4.3201 C   0  0  0  0  0  0  0  0  0  0  0  0
    7.3073   -8.0171   -2.8466 C   0  0  0  0  0  0  0  0  0  0  0  0
    6.8611   -6.7973   -2.2882 C   0  0  0  0  0  0  0  0  0  0  0  0
    5.8074   -6.8236   -1.3593 N   0  0  0  0  0  0  0  0  0  0  0  0
    5.2705   -8.1012   -0.9676 C   0  0  0  0  0  0  0  0  0  0  0  0
    5.7754   -8.7485    0.1658 C   0  0  0  0  0  0  0  0  0  0  0  0
    5.2554   -9.9870    0.5520 C   0  0  0  0  0  0  0  0  0  0  0  0
    4.2315  -10.5812   -0.1923 C   0  0  0  0  0  0  0  0  0  0  0  0
    3.7275   -9.9334   -1.3248 C   0  0  0  0  0  0  0  0  0  0  0  0
    4.2443   -8.6944   -1.7126 C   0  0  0  0  0  0  0  0  0  0  0  0
    5.2061   -5.6730   -0.8275 C   0  0  0  0  0  0  0  0  0  0  0  0
    4.0577   -5.7865   -0.0193 C   0  0  0  0  0  0  0  0  0  0  0  0
    3.4632   -4.6305    0.4801 C   0  0  0  0  0  0  0  0  0  0  0  0
    3.9707   -3.3602    0.2195 C   0  0  0  0  0  0  0  0  0  0  0  0
    5.1337   -3.2339   -0.5657 C   0  0  0  0  0  0  0  0  0  0  0  0
    5.7655   -4.3919   -1.1058 C   0  0  0  0  0  0  0  0  0  0  0  0
    3.9875   -0.2125   -1.1360 C   0  0  0  0  0  0  0  0  0  0  0  0
    1.4027    0.7741   -2.3781 C   0  0  0  0  0  0  0  0  0  0  0  0
    0.4346    1.3742   -3.1857 C   0  0  0  0  0  0  0  0  0  0  0  0
   -0.4792    3.2333   -3.8169 H   0  0  0  0  0  0  0  0  0  0  0  0
    0.9911    4.6346   -2.3646 H   0  0  0  0  0  0  0  0  0  0  0  0
    2.7165    3.5729   -0.9444 H   0  0  0  0  0  0  0  0  0  0  0  0
    2.9852    2.2562    0.9854 H   0  0  0  0  0  0  0  0  0  0  0  0
    4.7070    1.1880    2.4091 H   0  0  0  0  0  0  0  0  0  0  0  0
    5.9734   -0.8042    1.5722 H   0  0  0  0  0  0  0  0  0  0  0  0
    6.8098    0.3974   -1.2111 H   0  0  0  0  0  0  0  0  0  0  0  0
    8.3128    1.8694   -0.3272 H   0  0  0  0  0  0  0  0  0  0  0  0
    9.1492    4.1919   -0.4880 H   0  0  0  0  0  0  0  0  0  0  0  0
   10.5160    4.9044   -2.4531 H   0  0  0  0  0  0  0  0  0  0  0  0
   11.0199    3.2576   -4.2620 H   0  0  0  0  0  0  0  0  0  0  0  0
   10.1596    0.9422   -4.1146 H   0  0  0  0  0  0  0  0  0  0  0  0
   10.4442   -1.0799   -2.9717 H   0  0  0  0  0  0  0  0  0  0  0  0
    9.5630   -3.3569   -2.8665 H   0  0  0  0  0  0  0  0  0  0  0  0
    8.8893   -4.7157   -4.0612 H   0  0  0  0  0  0  0  0  0  0  0  0
    9.6091   -6.8290   -5.0659 H   0  0  0  0  0  0  0  0  0  0  0  0
   10.8039   -8.5868   -2.8640 H   0  0  0  0  0  0  0  0  0  0  0  0
   13.1989   -8.9646   -3.3840 H   0  0  0  0  0  0  0  0  0  0  0  0
   13.8634  -10.1166   -5.5001 H   0  0  0  0  0  0  0  0  0  0  0  0
   12.0915  -10.8696   -7.0940 H   0  0  0  0  0  0  0  0  0  0  0  0
    9.6986  -10.4633   -6.5875 H   0  0  0  0  0  0  0  0  0  0  0  0
    6.3249   -8.9609   -5.5655 H   0  0  0  0  0  0  0  0  0  0  0  0
    4.6680  -10.7479   -6.0389 H   0  0  0  0  0  0  0  0  0  0  0  0
    5.1654  -13.1198   -5.4283 H   0  0  0  0  0  0  0  0  0  0  0  0
    7.3388  -13.6730   -4.3264 H   0  0  0  0  0  0  0  0  0  0  0  0
    8.9820  -11.8801   -3.8314 H   0  0  0  0  0  0  0  0  0  0  0  0
    6.8705   -8.9595   -2.5265 H   0  0  0  0  0  0  0  0  0  0  0  0
    6.5751   -8.2736    0.7383 H   0  0  0  0  0  0  0  0  0  0  0  0
    5.6527  -10.4896    1.4374 H   0  0  0  0  0  0  0  0  0  0  0  0
    3.8270  -11.5506    0.1092 H   0  0  0  0  0  0  0  0  0  0  0  0
    2.9295  -10.3953   -1.9112 H   0  0  0  0  0  0  0  0  0  0  0  0
    3.8589   -8.1790   -2.5949 H   0  0  0  0  0  0  0  0  0  0  0  0
    3.6226   -6.7564    0.2103 H   0  0  0  0  0  0  0  0  0  0  0  0
    2.5661   -4.7235    1.0986 H   0  0  0  0  0  0  0  0  0  0  0  0
    3.4719   -2.4872    0.6341 H   0  0  0  0  0  0  0  0  0  0  0  0
    3.8176   -0.6123   -2.1373 H   0  0  0  0  0  0  0  0  0  0  0  0
    1.4979   -0.3143   -2.3724 H   0  0  0  0  0  0  0  0  0  0  0  0
   -0.2061    0.7511   -3.8151 H   0  0  0  0  0  0  0  0  0  0  0  0
  1  2  2  0
  1 58  1  0
  1 59  1  0
  2  3  1  0
  2 60  1  0
  3  4  2  0
  3 61  1  0
  4  5  1  0
  4 57  1  0
  5  6  2  0
  5 56  1  0
  6  7  1  0
  6 62  1  0
  7  8  2  0
  7 63  1  0
  8  9  1  0
  8 64  1  0
  9 10  1  0
  9 56  2  0
 10 11  1  0
 10 54  1  0
 11 12  2  0
 11 22  1  0
 12 13  1  0
 12 65  1  0
 13 14  1  0
 13 20  2  0
 14 15  2  0
 14 19  1  0
 15 16  1  0
 15 66  1  0
 16 17  2  0
 16 67  1  0
 17 18  1  0
 17 68  1  0
 18 19  2  0
 18 69  1  0
 19 70  1  0
 20 21  1  0
 20 71  1  0
 21 22  2  0
 21 72  1  0
 22 23  1  0
 23 24  1  0
 23 55  1  0
 24 25  2  0
 24 42  1  0
 25 26  1  0
 25 73  1  0
 26 27  2  0
 26 74  1  0
 27 28  1  0
 27 41  1  0
 28 29  1  0
 28 35  1  0
 29 30  2  0
 29 34  1  0
 30 31  1  0
 30 75  1  0
 31 32  2  0
 31 76  1  0
 32 33  1  0
 32 77  1  0
 33 34  2  0
 33 78  1  0
 34 79  1  0
 35 36  2  0
 35 40  1  0
 36 37  1  0
 36 80  1  0
 37 38  2  0
 37 81  1  0
 38 39  1  0
 38 82  1  0
 39 40  2  0
 39 83  1  0
 40 84  1  0
 41 42  2  0
 41 85  1  0
 42 43  1  0
 43 44  1  0
 43 50  1  0
 44 45  2  0
 44 49  1  0
 45 46  1  0
 45 86  1  0
 46 47  2  0
 46 87  1  0
 47 48  1  0
 47 88  1  0
 48 49  2  0
 48 89  1  0
 49 90  1  0
 50 51  1  0
 50 55  2  0
 51 52  2  0
 51 91  1  0
 52 53  1  0
 52 92  1  0
 53 54  2  0
 53 93  1  0
 54 55  1  0
 56 94  1  0
 57 58  2  0
 57 95  1  0
 58 96  1  0
M  END

