
     RDKit          3D

 36 37  0  0  0  0  0  0  0  0999 V2000
    6.0995    0.9810    0.6066 C   0  0  0  0  0  0  0  0  0  0  0  0
    5.2168    1.7872   -0.1387 O   0  0  0  0  0  0  0  0  0  0  0  0
    4.6784    1.2962   -1.2854 C   0  0  0  0  0  0  0  0  0  0  0  0
    4.9347    0.0196   -1.8072 C   0  0  0  0  0  0  0  0  0  0  0  0
    4.3164   -0.4008   -2.9895 C   0  0  0  0  0  0  0  0  0  0  0  0
    3.4555    0.4569   -3.6880 C   0  0  0  0  0  0  0  0  0  0  0  0
    2.8017    0.0448   -4.8766 N   0  0  0  0  0  0  0  0  0  0  0  0
    3.5592   -0.7031   -6.1949 S   0  0  1  0  0  0  0  0  0  0  0  0
    4.2766   -1.8785   -5.7014 O   0  0  0  0  0  0  0  0  0  0  0  0
    2.5037   -0.8057   -7.2033 O   0  0  0  0  0  0  0  0  0  0  0  0
    4.8115    0.5061   -6.7884 C   0  0  0  0  0  0  0  0  0  0  0  0
    5.6111   -0.0551   -7.9242 C   0  0  0  0  0  0  0  0  0  0  0  0
    5.1313    0.0052   -9.2429 C   0  0  0  0  0  0  0  0  0  0  0  0
    5.8465   -0.5531  -10.2975 C   0  0  0  0  0  0  0  0  0  0  0  0
    7.0748   -1.2086  -10.0695 C   0  0  0  0  0  0  0  0  0  0  0  0
    7.8116   -1.7253  -11.1199 N   0  0  0  0  0  0  0  0  0  0  0  0
    7.5508   -1.2806   -8.7436 C   0  0  0  0  0  0  0  0  0  0  0  0
    6.8268   -0.7192   -7.6964 C   0  0  0  0  0  0  0  0  0  0  0  0
    3.2120    1.7413   -3.1665 C   0  0  0  0  0  0  0  0  0  0  0  0
    3.8022    2.1506   -1.9762 C   0  0  0  0  0  0  0  0  0  0  0  0
    6.4085    1.5754    1.4771 H   0  0  0  0  0  0  0  0  0  0  0  0
    6.9987    0.7063    0.0254 H   0  0  0  0  0  0  0  0  0  0  0  0
    5.6123    0.0547    0.9620 H   0  0  0  0  0  0  0  0  0  0  0  0
    5.6021   -0.6724   -1.2932 H   0  0  0  0  0  0  0  0  0  0  0  0
    4.5008   -1.4021   -3.3782 H   0  0  0  0  0  0  0  0  0  0  0  0
    2.0279    0.6210   -5.1971 H   0  0  0  0  0  0  0  0  0  0  0  0
    5.4282    0.7416   -5.9091 H   0  0  0  0  0  0  0  0  0  0  0  0
    4.2264    1.3925   -7.0736 H   0  0  0  0  0  0  0  0  0  0  0  0
    4.1723    0.4887   -9.4456 H   0  0  0  0  0  0  0  0  0  0  0  0
    5.4531   -0.4867  -11.3158 H   0  0  0  0  0  0  0  0  0  0  0  0
    7.3156   -1.9118  -11.9831 H   0  0  0  0  0  0  0  0  0  0  0  0
    8.5108   -2.4224  -10.8937 H   0  0  0  0  0  0  0  0  0  0  0  0
    8.4988   -1.7861   -8.5391 H   0  0  0  0  0  0  0  0  0  0  0  0
    7.2114   -0.8051   -6.6767 H   0  0  0  0  0  0  0  0  0  0  0  0
    2.5442    2.4241   -3.6998 H   0  0  0  0  0  0  0  0  0  0  0  0
    3.6072    3.1418   -1.5620 H   0  0  0  0  0  0  0  0  0  0  0  0
  1  2  1  0
  1 21  1  0
  1 22  1  0
  1 23  1  0
  2  3  1  0
  3  4  2  0
  3 20  1  0
  4  5  1  0
  4 24  1  0
  5  6  2  0
  5 25  1  0
  6  7  1  0
  6 19  1  0
  8  7  1  1
  7 26  1  0
  8  9  2  0
  8 10  2  0
  8 11  1  0
 11 12  1  0
 11 27  1  0
 11 28  1  0
 12 13  2  0
 12 18  1  0
 13 14  1  0
 13 29  1  0
 14 15  2  0
 14 30  1  0
 15 16  1  0
 15 17  1  0
 16 31  1  0
 16 32  1  0
 17 18  2  0
 17 33  1  0
 18 34  1  0
 19 20  2  0
 19 35  1  0
 20 36  1  0
M  END

