
     RDKit          3D

 29 30  0  0  0  0  0  0  0  0999 V2000
    6.6049    1.0059    1.8208 N   0  0  0  0  0  0  0  0  0  0  0  0
    5.3382    2.1225    1.8175 S   0  0  1  0  0  0  0  0  0  0  0  0
    4.2036    1.5731    2.5613 O   0  0  0  0  0  0  0  0  0  0  0  0
    5.9548    3.4040    2.1551 O   0  0  0  0  0  0  0  0  0  0  0  0
    4.8390    2.1652    0.1196 C   0  0  0  0  0  0  0  0  0  0  0  0
    3.6573    1.6627   -0.3720 C   0  0  0  0  0  0  0  0  0  0  0  0
    3.5242    1.8833   -1.7708 C   0  0  0  0  0  0  0  0  0  0  0  0
    4.5977    2.5515   -2.3196 C   0  0  0  0  0  0  0  0  0  0  0  0
    4.7988    2.9248   -3.7690 C   0  0  0  0  0  0  0  0  0  0  0  0
    5.2417    1.7435   -4.6126 C   0  0  0  0  0  0  0  0  0  0  0  0
    4.2718    0.9588   -5.0939 N   0  0  0  0  0  0  0  0  0  0  0  0
    4.5758   -0.1104   -5.8244 C   0  0  0  0  0  0  0  0  0  0  0  0
    5.8944   -0.4666   -6.1302 C   0  0  0  0  0  0  0  0  0  0  0  0
    6.1938   -1.6555   -7.0097 C   0  0  1  0  0  0  0  0  0  0  0  0
    5.2581   -2.6094   -6.8835 F   0  0  0  0  0  0  0  0  0  0  0  0
    6.2344   -1.3074   -8.3082 F   0  0  0  0  0  0  0  0  0  0  0  0
    7.3835   -2.2029   -6.7097 F   0  0  0  0  0  0  0  0  0  0  0  0
    6.9272    0.3316   -5.6368 C   0  0  0  0  0  0  0  0  0  0  0  0
    6.5962    1.4459   -4.8674 C   0  0  0  0  0  0  0  0  0  0  0  0
    7.8778    2.4478   -4.2345 Cl  0  0  0  0  0  0  0  0  0  0  0  0
    5.7986    2.9167   -1.1152 S   0  0  0  0  0  0  0  0  0  0  0  0
    6.2826    0.0899    2.1338 H   0  0  0  0  0  0  0  0  0  0  0  0
    7.3569    1.3658    2.4097 H   0  0  0  0  0  0  0  0  0  0  0  0
    2.9219    1.1707    0.2647 H   0  0  0  0  0  0  0  0  0  0  0  0
    2.6663    1.5628   -2.3636 H   0  0  0  0  0  0  0  0  0  0  0  0
    5.5199    3.7483   -3.8570 H   0  0  0  0  0  0  0  0  0  0  0  0
    3.8365    3.2658   -4.1769 H   0  0  0  0  0  0  0  0  0  0  0  0
    3.7402   -0.7196   -6.1836 H   0  0  0  0  0  0  0  0  0  0  0  0
    7.9724    0.0919   -5.8370 H   0  0  0  0  0  0  0  0  0  0  0  0
  2  1  1  6
  1 22  1  0
  1 23  1  0
  2  3  2  0
  2  4  2  0
  2  5  1  0
  5  6  2  0
  5 21  1  0
  6  7  1  0
  6 24  1  0
  7  8  2  0
  7 25  1  0
  8  9  1  0
  8 21  1  0
  9 10  1  0
  9 26  1  0
  9 27  1  0
 10 11  2  0
 10 19  1  0
 11 12  1  0
 12 13  2  0
 12 28  1  0
 13 14  1  0
 13 18  1  0
 14 15  1  6
 14 16  1  0
 14 17  1  0
 18 19  2  0
 18 29  1  0
 19 20  1  0
M  END

