
     RDKit          3D

 41 42  0  0  0  0  0  0  0  0999 V2000
    2.5079    1.0882    1.5868 C   0  0  0  0  0  0  0  0  0  0  0  0
    2.7130    0.3705    0.3443 N   0  0  0  0  0  0  0  0  0  0  0  0
    2.4959   -1.0621    0.2972 C   0  0  0  0  0  0  0  0  0  0  0  0
    3.1151    1.0485   -0.7862 C   0  0  0  0  0  0  0  0  0  0  0  0
    3.3353    2.4502   -0.7742 C   0  0  0  0  0  0  0  0  0  0  0  0
    3.7404    3.1186   -1.9221 C   0  0  0  0  0  0  0  0  0  0  0  0
    3.9536    2.4552   -3.1494 C   0  0  0  0  0  0  0  0  0  0  0  0
    4.3768    3.2140   -4.3147 C   0  0  0  0  0  0  0  0  0  0  0  0
    4.6288    2.7553   -5.5718 C   0  0  0  0  0  0  0  0  0  0  0  0
    5.0447    3.6048   -6.6544 C   0  0  0  0  0  0  0  0  0  0  0  0
    5.3015    3.1705   -7.9184 C   0  0  0  0  0  0  0  0  0  0  0  0
    5.7240    3.9789   -9.0541 C   0  0  0  0  0  0  0  0  0  0  0  0
    5.9315    5.3868   -8.9711 C   0  0  0  0  0  0  0  0  0  0  0  0
    6.3315    6.1017  -10.0790 C   0  0  0  0  0  0  0  0  0  0  0  0
    6.5425    5.4540  -11.3129 C   0  0  0  0  0  0  0  0  0  0  0  0
    6.9600    6.2408  -12.4447 N   0  0  0  0  0  0  0  0  0  0  0  0
    7.1217    7.4412  -12.3163 O   0  0  0  0  0  0  0  0  0  0  0  0
    7.1427    5.6523  -13.5304 O   0  0  0  0  0  0  0  0  0  0  0  0
    6.3458    4.0503  -11.4340 C   0  0  0  0  0  0  0  0  0  0  0  0
    6.5273    3.3792  -12.5671 O   0  0  0  0  0  0  0  0  0  0  0  0
    5.9381    3.3475  -10.2886 C   0  0  0  0  0  0  0  0  0  0  0  0
    3.7325    1.0595   -3.1549 C   0  0  0  0  0  0  0  0  0  0  0  0
    3.3282    0.3738   -2.0199 C   0  0  0  0  0  0  0  0  0  0  0  0
    2.1977    0.3832    2.3683 H   0  0  0  0  0  0  0  0  0  0  0  0
    1.7210    1.8597    1.4976 H   0  0  0  0  0  0  0  0  0  0  0  0
    3.4292    1.5912    1.9341 H   0  0  0  0  0  0  0  0  0  0  0  0
    2.1801   -1.4152    1.2869 H   0  0  0  0  0  0  0  0  0  0  0  0
    3.4127   -1.6143    0.0199 H   0  0  0  0  0  0  0  0  0  0  0  0
    1.7076   -1.3408   -0.4260 H   0  0  0  0  0  0  0  0  0  0  0  0
    3.1887    3.0245    0.1395 H   0  0  0  0  0  0  0  0  0  0  0  0
    3.8992    4.1998   -1.8708 H   0  0  0  0  0  0  0  0  0  0  0  0
    4.5042    4.2901   -4.1426 H   0  0  0  0  0  0  0  0  0  0  0  0
    4.5170    1.6894   -5.7987 H   0  0  0  0  0  0  0  0  0  0  0  0
    5.1534    4.6690   -6.4165 H   0  0  0  0  0  0  0  0  0  0  0  0
    5.1828    2.1008   -8.1233 H   0  0  0  0  0  0  0  0  0  0  0  0
    5.7756    5.9117   -8.0283 H   0  0  0  0  0  0  0  0  0  0  0  0
    6.4954    7.1783  -10.0357 H   0  0  0  0  0  0  0  0  0  0  0  0
    6.8088    4.0497  -13.2412 H   0  0  0  0  0  0  0  0  0  0  0  0
    5.7907    2.2710  -10.3951 H   0  0  0  0  0  0  0  0  0  0  0  0
    3.8810    0.4901   -4.0752 H   0  0  0  0  0  0  0  0  0  0  0  0
    3.1751   -0.7023   -2.0909 H   0  0  0  0  0  0  0  0  0  0  0  0
  1  2  1  0
  1 24  1  0
  1 25  1  0
  1 26  1  0
  2  3  1  0
  2  4  1  0
  3 27  1  0
  3 28  1  0
  3 29  1  0
  4  5  2  0
  4 23  1  0
  5  6  1  0
  5 30  1  0
  6  7  2  0
  6 31  1  0
  7  8  1  0
  7 22  1  0
  8  9  2  0
  8 32  1  0
  9 10  1  0
  9 33  1  0
 10 11  2  0
 10 34  1  0
 11 12  1  0
 11 35  1  0
 12 13  2  0
 12 21  1  0
 13 14  1  0
 13 36  1  0
 14 15  2  0
 14 37  1  0
 15 16  1  0
 15 19  1  0
 16 17  2  0
 16 18  1  0
 19 20  1  0
 19 21  2  0
 20 38  1  0
 21 39  1  0
 22 23  2  0
 22 40  1  0
 23 41  1  0
M  CHG  2  16   1  18  -1
M  END

