
     RDKit          3D

 42 43  0  0  0  0  0  0  0  0999 V2000
    2.5658    5.1013    1.4913 C   0  0  0  0  0  0  0  0  0  0  0  0
    2.5046    4.9490   -0.0371 C   0  0  1  0  0  0  0  0  0  0  0  0
    3.2033    6.0211   -0.7533 N   0  0  0  0  0  0  0  0  0  0  0  0
    2.9854    3.5849   -0.5415 C   0  0  0  0  0  0  0  0  0  0  0  0
    2.9545    2.4312    0.2592 C   0  0  0  0  0  0  0  0  0  0  0  0
    3.3623    1.2027   -0.2672 C   0  0  0  0  0  0  0  0  0  0  0  0
    3.8097    1.0799   -1.5830 C   0  0  0  0  0  0  0  0  0  0  0  0
    3.8493    2.2289   -2.3934 C   0  0  0  0  0  0  0  0  0  0  0  0
    4.2899    2.2241   -3.7290 N   0  0  0  0  0  0  0  0  0  0  0  0
    4.7311    1.1676   -4.5007 C   0  0  0  0  0  0  0  0  0  0  0  0
    4.7497    0.0104   -4.1058 O   0  0  0  0  0  0  0  0  0  0  0  0
    5.1784    1.5297   -5.8850 C   0  0  0  0  0  0  0  0  0  0  0  0
    5.5237    2.8231   -6.3110 C   0  0  0  0  0  0  0  0  0  0  0  0
    5.9471    3.0769   -7.6119 C   0  0  0  0  0  0  0  0  0  0  0  0
    6.0465    2.0307   -8.5653 C   0  0  0  0  0  0  0  0  0  0  0  0
    6.4545    2.2733   -9.8601 N   0  0  0  0  0  0  0  0  0  0  0  0
    6.5810    1.1771  -10.8002 C   0  0  0  0  0  0  0  0  0  0  0  0
    6.8012    3.6180  -10.2734 C   0  0  0  0  0  0  0  0  0  0  0  0
    5.7144    0.7218   -8.1251 C   0  0  0  0  0  0  0  0  0  0  0  0
    5.3008    0.4887   -6.8209 C   0  0  0  0  0  0  0  0  0  0  0  0
    3.4381    3.4637   -1.8608 C   0  0  0  0  0  0  0  0  0  0  0  0
    2.2368    6.1134    1.7778 H   0  0  0  0  0  0  0  0  0  0  0  0
    3.5939    4.9570    1.8638 H   0  0  0  0  0  0  0  0  0  0  0  0
    1.9121    4.3872    2.0157 H   0  0  0  0  0  0  0  0  0  0  0  0
    1.4403    5.0357   -0.3312 H   0  0  0  0  0  0  0  0  0  0  0  0
    4.1875    6.0381   -0.4770 H   0  0  0  0  0  0  0  0  0  0  0  0
    2.8134    6.9268   -0.4924 H   0  0  0  0  0  0  0  0  0  0  0  0
    2.6110    2.4787    1.2932 H   0  0  0  0  0  0  0  0  0  0  0  0
    3.3328    0.3113    0.3655 H   0  0  0  0  0  0  0  0  0  0  0  0
    4.1233    0.1235   -1.9933 H   0  0  0  0  0  0  0  0  0  0  0  0
    4.2150    3.1184   -4.1964 H   0  0  0  0  0  0  0  0  0  0  0  0
    5.5003    3.6671   -5.6155 H   0  0  0  0  0  0  0  0  0  0  0  0
    6.2138    4.0978   -7.8819 H   0  0  0  0  0  0  0  0  0  0  0  0
    7.3212    0.4247  -10.4700 H   0  0  0  0  0  0  0  0  0  0  0  0
    6.9111    1.5668  -11.7715 H   0  0  0  0  0  0  0  0  0  0  0  0
    5.6213    0.6521  -10.9582 H   0  0  0  0  0  0  0  0  0  0  0  0
    5.9572    4.3207  -10.1482 H   0  0  0  0  0  0  0  0  0  0  0  0
    7.0751    3.6139  -11.3361 H   0  0  0  0  0  0  0  0  0  0  0  0
    7.6593    4.0250   -9.7061 H   0  0  0  0  0  0  0  0  0  0  0  0
    5.7825   -0.1232   -8.8091 H   0  0  0  0  0  0  0  0  0  0  0  0
    5.0593   -0.5241   -6.4922 H   0  0  0  0  0  0  0  0  0  0  0  0
    3.4722    4.3661   -2.4761 H   0  0  0  0  0  0  0  0  0  0  0  0
  1  2  1  0
  1 22  1  0
  1 23  1  0
  1 24  1  0
  2  3  1  0
  2  4  1  0
  2 25  1  6
  3 26  1  0
  3 27  1  0
  4  5  2  0
  4 21  1  0
  5  6  1  0
  5 28  1  0
  6  7  2  0
  6 29  1  0
  7  8  1  0
  7 30  1  0
  8  9  1  0
  8 21  2  0
  9 10  1  0
  9 31  1  0
 10 11  2  0
 10 12  1  0
 12 13  2  0
 12 20  1  0
 13 14  1  0
 13 32  1  0
 14 15  2  0
 14 33  1  0
 15 16  1  0
 15 19  1  0
 16 17  1  0
 16 18  1  0
 17 34  1  0
 17 35  1  0
 17 36  1  0
 18 37  1  0
 18 38  1  0
 18 39  1  0
 19 20  2  0
 19 40  1  0
 20 41  1  0
 21 42  1  0
M  END

