
     RDKit          3D

 42 43  0  0  0  0  0  0  0  0999 V2000
    1.3645   -0.7391    1.8910 N   0  0  0  0  0  0  0  0  0  0  0  0
    2.6142   -0.9594    1.3480 C   0  0  0  0  0  0  0  0  0  0  0  0
    3.4804   -1.9515    1.8508 C   0  0  0  0  0  0  0  0  0  0  0  0
    4.7227   -2.2197    1.2837 C   0  0  0  0  0  0  0  0  0  0  0  0
    5.1579   -1.4877    0.1642 C   0  0  0  0  0  0  0  0  0  0  0  0
    6.3961   -1.6921   -0.4685 N   0  0  0  0  0  0  0  0  0  0  0  0
    7.3752   -2.5833   -0.1756 C   0  0  0  0  0  0  0  0  0  0  0  0
    7.3457   -3.4000    0.7357 O   0  0  0  0  0  0  0  0  0  0  0  0
    8.5358   -2.4018   -1.2087 C   0  0  0  0  0  0  0  0  0  0  0  0
    8.3516   -1.5811   -2.1107 O   0  0  0  0  0  0  0  0  0  0  0  0
    9.6683   -3.1446   -1.1179 N   0  0  0  0  0  0  0  0  0  0  0  0
   10.0584   -4.0261   -0.0050 C   0  0  0  0  0  0  0  0  0  0  0  0
   10.4813   -5.4050   -0.5165 C   0  0  0  0  0  0  0  0  0  0  0  0
   11.5784   -5.2919   -1.5782 C   0  0  0  0  0  0  0  0  0  0  0  0
   11.1348   -4.3426   -2.6966 C   0  0  0  0  0  0  0  0  0  0  0  0
   10.6835   -2.9615   -2.1815 C   0  0  2  0  0  0  0  0  0  0  0  0
   11.8213   -2.0367   -1.7061 C   0  0  0  0  0  0  0  0  0  0  0  0
   12.7392   -1.5463   -2.8285 C   0  0  0  0  0  0  0  0  0  0  0  0
   13.7586   -0.6922   -2.3550 O   0  0  0  0  0  0  0  0  0  0  0  0
    4.3165   -0.4905   -0.3550 C   0  0  0  0  0  0  0  0  0  0  0  0
    3.0785   -0.2366    0.2267 C   0  0  0  0  0  0  0  0  0  0  0  0
    2.0625    1.0315   -0.4463 Cl  0  0  0  0  0  0  0  0  0  0  0  0
    1.2210   -1.0425    2.8461 H   0  0  0  0  0  0  0  0  0  0  0  0
    0.9188    0.1395    1.6532 H   0  0  0  0  0  0  0  0  0  0  0  0
    3.1563   -2.5349    2.7173 H   0  0  0  0  0  0  0  0  0  0  0  0
    5.3643   -2.9942    1.6973 H   0  0  0  0  0  0  0  0  0  0  0  0
    6.6228   -1.1293   -1.2898 H   0  0  0  0  0  0  0  0  0  0  0  0
    9.2216   -4.1012    0.6921 H   0  0  0  0  0  0  0  0  0  0  0  0
   10.9059   -3.5560    0.5278 H   0  0  0  0  0  0  0  0  0  0  0  0
    9.5975   -5.9125   -0.9420 H   0  0  0  0  0  0  0  0  0  0  0  0
   10.8188   -6.0135    0.3387 H   0  0  0  0  0  0  0  0  0  0  0  0
   11.8193   -6.2825   -1.9976 H   0  0  0  0  0  0  0  0  0  0  0  0
   12.5080   -4.9216   -1.1101 H   0  0  0  0  0  0  0  0  0  0  0  0
   10.2840   -4.7955   -3.2344 H   0  0  0  0  0  0  0  0  0  0  0  0
   11.9360   -4.2120   -3.4414 H   0  0  0  0  0  0  0  0  0  0  0  0
   10.1614   -2.4399   -2.9937 H   0  0  0  0  0  0  0  0  0  0  0  0
   12.4469   -2.5154   -0.9351 H   0  0  0  0  0  0  0  0  0  0  0  0
   11.3558   -1.1537   -1.2327 H   0  0  0  0  0  0  0  0  0  0  0  0
   12.1315   -1.0618   -3.6210 H   0  0  0  0  0  0  0  0  0  0  0  0
   13.2578   -2.3941   -3.3042 H   0  0  0  0  0  0  0  0  0  0  0  0
   13.3406    0.0924   -1.9761 H   0  0  0  0  0  0  0  0  0  0  0  0
    4.6245    0.1012   -1.2195 H   0  0  0  0  0  0  0  0  0  0  0  0
  1  2  1  0
  1 23  1  0
  1 24  1  0
  2  3  2  0
  2 21  1  0
  3  4  1  0
  3 25  1  0
  4  5  2  0
  4 26  1  0
  5  6  1  0
  5 20  1  0
  6  7  1  0
  6 27  1  0
  7  8  2  0
  7  9  1  0
  9 10  2  0
  9 11  1  0
 11 12  1  0
 11 16  1  0
 12 13  1  0
 12 28  1  0
 12 29  1  0
 13 14  1  0
 13 30  1  0
 13 31  1  0
 14 15  1  0
 14 32  1  0
 14 33  1  0
 15 16  1  0
 15 34  1  0
 15 35  1  0
 16 17  1  0
 16 36  1  6
 17 18  1  0
 17 37  1  0
 17 38  1  0
 18 19  1  0
 18 39  1  0
 18 40  1  0
 19 41  1  0
 20 21  2  0
 20 42  1  0
 21 22  1  0
M  END

