
     RDKit          3D

 17 18  0  0  0  0  0  0  0  0999 V2000
    1.0309   -2.2107    0.4249 O   0  0  0  0  0  0  0  0  0  0  0  0
    2.2068   -2.4018    0.4270 N   0  0  0  0  0  0  0  0  0  0  0  0
    2.9798   -1.0410    0.4507 C   0  0  0  0  0  0  0  0  0  0  0  0
    2.3637   -0.0105    0.4494 O   0  0  0  0  0  0  0  0  0  0  0  0
    4.4544   -1.1644    0.4675 C   0  0  0  0  0  0  0  0  0  0  0  0
    5.1923    0.0176    0.4755 C   0  0  0  0  0  0  0  0  0  0  0  0
    6.6106    0.0493    0.4911 C   0  0  0  0  0  0  0  0  0  0  0  0
    7.3551   -1.1149    0.4998 C   0  0  0  0  0  0  0  0  0  0  0  0
    6.6433   -2.3364    0.4929 C   0  0  0  0  0  0  0  0  0  0  0  0
    7.1104   -3.6024    0.4997 N   0  0  0  0  0  0  0  0  0  0  0  0
    6.0023   -4.3094    0.4893 N   0  0  0  0  0  0  0  0  0  0  0  0
    6.0342   -5.3261    0.4916 H   0  0  0  0  0  0  0  0  0  0  0  0
    4.8422   -3.6822    0.4751 N   0  0  0  0  0  0  0  0  0  0  0  0
    5.2070   -2.3841    0.4769 C   0  0  0  0  0  0  0  0  0  0  0  0
    4.6336    0.9561    0.4689 H   0  0  0  0  0  0  0  0  0  0  0  0
    7.1147    1.0183    0.4960 H   0  0  0  0  0  0  0  0  0  0  0  0
    8.4465   -1.1088    0.5118 H   0  0  0  0  0  0  0  0  0  0  0  0
  1  2  2  0
  2  3  1  0
  3  4  2  0
  3  5  1  0
  5  6  2  0
  5 14  1  0
  6  7  1  0
  6 15  1  0
  7  8  2  0
  7 16  1  0
  8  9  1  0
  8 17  1  0
  9 10  2  0
  9 14  1  0
 10 11  1  0
 11 12  1  0
 11 13  1  0
 13 14  2  0
M  END

