
     RDKit          3D

 33 34  0  0  0  0  0  0  0  0999 V2000
    7.6610   -0.5784   -5.3122 O   0  0  0  0  0  0  0  0  0  0  0  0
    7.4767   -0.3712   -4.1347 C   0  0  0  0  0  0  0  0  0  0  0  0
    8.4917   -0.5128   -3.0705 C   0  0  0  0  0  0  0  0  0  0  0  0
    8.2543   -0.2831   -1.8260 N   0  0  0  0  0  0  0  0  0  0  0  0
    7.0295    0.0966   -1.4261 N   0  0  0  0  0  0  0  0  0  0  0  0
    6.8792    0.4373   -0.0065 C   0  0  2  0  0  0  0  0  0  0  0  0
    5.8050    0.6246    0.1200 H   0  0  0  0  0  0  0  0  0  0  0  0
    7.6010    1.6013    0.3193 O   0  0  0  0  0  0  0  0  0  0  0  0
    8.7939    1.3227    1.0705 C   0  0  1  0  0  0  0  0  0  0  0  0
    9.6657    1.6851    0.5014 H   0  0  0  0  0  0  0  0  0  0  0  0
    8.6961    2.1432    2.3616 C   0  0  0  0  0  0  0  0  0  0  0  0
    9.9301    2.1652    3.0686 O   0  0  0  0  0  0  0  0  0  0  0  0
   10.1382    1.2929    4.4289 P   0  0  1  0  0  0  0  0  0  0  0  0
    8.8546    0.7669    4.9719 O   0  0  0  0  0  0  0  0  0  0  0  0
   11.2890    0.2525    4.0512 O   0  0  0  0  0  0  0  0  0  0  0  0
   10.9575    2.2827    5.3922 O   0  0  0  0  0  0  0  0  0  0  0  0
    8.8462   -0.2301    1.2139 C   0  0  1  0  0  0  0  0  0  0  0  0
    9.4822   -0.6306    0.4149 H   0  0  0  0  0  0  0  0  0  0  0  0
    9.3294   -0.7371    2.4331 O   0  0  0  0  0  0  0  0  0  0  0  0
    7.3826   -0.6511    0.9520 C   0  0  1  0  0  0  0  0  0  0  0  0
    7.3094   -1.6585    0.5206 H   0  0  0  0  0  0  0  0  0  0  0  0
    6.6478   -0.6815    2.1614 O   0  0  0  0  0  0  0  0  0  0  0  0
    5.9390    0.3053   -2.2944 C   0  0  0  0  0  0  0  0  0  0  0  0
    4.8479    0.6666   -1.9208 O   0  0  0  0  0  0  0  0  0  0  0  0
    6.2445    0.0412   -3.6209 N   0  0  0  0  0  0  0  0  0  0  0  0
    5.4817    0.1724   -4.2832 H   0  0  0  0  0  0  0  0  0  0  0  0
    9.4986   -0.8265   -3.3571 H   0  0  0  0  0  0  0  0  0  0  0  0
    8.4514    3.1780    2.0774 H   0  0  0  0  0  0  0  0  0  0  0  0
    7.8933    1.7685    3.0170 H   0  0  0  0  0  0  0  0  0  0  0  0
   10.9081   -0.3435    3.3696 H   0  0  0  0  0  0  0  0  0  0  0  0
   10.3957    2.5741    6.1251 H   0  0  0  0  0  0  0  0  0  0  0  0
    8.5967   -0.7450    3.0793 H   0  0  0  0  0  0  0  0  0  0  0  0
    6.4238    0.2170    2.4434 H   0  0  0  0  0  0  0  0  0  0  0  0
  1  2  2  0
  2  3  1  0
  2 25  1  0
  3  4  2  0
  3 27  1  0
  4  5  1  0
  5  6  1  0
  5 23  1  0
  6  7  1  1
  6  8  1  0
  6 20  1  0
  8  9  1  0
  9 10  1  6
  9 11  1  0
  9 17  1  0
 11 12  1  0
 11 28  1  0
 11 29  1  0
 13 12  1  6
 13 14  2  0
 13 15  1  0
 13 16  1  0
 15 30  1  0
 16 31  1  0
 17 18  1  6
 17 19  1  0
 17 20  1  0
 19 32  1  0
 20 21  1  6
 20 22  1  0
 22 33  1  0
 23 24  2  0
 23 25  1  0
 25 26  1  0
M  END

