
     RDKit          3D

 60 64  0  0  0  0  0  0  0  0999 V2000
    2.5069    1.5018    1.2605 O   0  0  0  0  0  0  0  0  0  0  0  0
    2.1353    0.3570    1.0600 C   0  0  0  0  0  0  0  0  0  0  0  0
    0.6568   -0.0370    1.0903 C   0  0  0  0  0  0  0  0  0  0  0  0
    0.1846   -0.3529    2.4984 C   0  0  0  0  0  0  0  0  0  0  0  0
    0.3123    0.5973    3.5252 C   0  0  0  0  0  0  0  0  0  0  0  0
   -0.1192    0.3123    4.8195 C   0  0  0  0  0  0  0  0  0  0  0  0
   -0.6956   -0.9317    5.1436 C   0  0  0  0  0  0  0  0  0  0  0  0
   -1.1576   -1.2315    6.5252 C   0  0  0  0  0  0  0  0  0  0  0  0
   -1.7559   -0.2366    7.3221 C   0  0  0  0  0  0  0  0  0  0  0  0
   -2.1903   -0.5175    8.6191 C   0  0  0  0  0  0  0  0  0  0  0  0
   -2.0370   -1.8010    9.1517 C   0  0  0  0  0  0  0  0  0  0  0  0
   -1.4447   -2.8004    8.3739 C   0  0  0  0  0  0  0  0  0  0  0  0
   -1.0105   -2.5186    7.0770 C   0  0  0  0  0  0  0  0  0  0  0  0
   -0.8189   -1.8784    4.1114 C   0  0  0  0  0  0  0  0  0  0  0  0
   -0.3853   -1.5936    2.8147 C   0  0  0  0  0  0  0  0  0  0  0  0
    3.0110   -0.6668    0.8262 N   0  0  0  0  0  0  0  0  0  0  0  0
    4.4466   -0.4667    0.8420 C   0  0  0  0  0  0  0  0  0  0  0  0
    5.0278   -0.4812    2.2660 C   0  0  0  0  0  0  0  0  0  0  0  0
    6.4769   -0.4052    2.2527 N   0  0  0  0  0  0  0  0  0  0  0  0
    7.2165   -1.3875    1.6802 N   0  0  0  0  0  0  0  0  0  0  0  0
    8.4860   -1.0361    1.8166 C   0  0  0  0  0  0  0  0  0  0  0  0
    8.5935    0.2069    2.4938 C   0  0  0  0  0  0  0  0  0  0  0  0
    9.6723    1.0600    2.9269 C   0  0  0  0  0  0  0  0  0  0  0  0
   10.8724    0.8886    2.7993 O   0  0  0  0  0  0  0  0  0  0  0  0
    9.1652    2.2339    3.5834 N   0  0  0  0  0  0  0  0  0  0  0  0
   10.1523    3.2104    4.0810 C   0  0  0  0  0  0  0  0  0  0  0  0
   10.5432    3.0026    5.5320 C   0  0  0  0  0  0  0  0  0  0  0  0
   11.3795    1.9357    5.9018 C   0  0  0  0  0  0  0  0  0  0  0  0
   11.7230    1.7484    7.2419 C   0  0  0  0  0  0  0  0  0  0  0  0
   11.2485    2.6152    8.2314 C   0  0  0  0  0  0  0  0  0  0  0  0
   10.4226    3.6770    7.8575 C   0  0  0  0  0  0  0  0  0  0  0  0
    9.8225    4.7802    9.0759 Cl  0  0  0  0  0  0  0  0  0  0  0  0
   10.0676    3.8756    6.5196 C   0  0  0  0  0  0  0  0  0  0  0  0
    7.8275    2.4678    3.7776 C   0  0  0  0  0  0  0  0  0  0  0  0
    6.8514    1.7011    3.3981 N   0  0  0  0  0  0  0  0  0  0  0  0
    7.2666    0.5787    2.7567 C   0  0  0  0  0  0  0  0  0  0  0  0
    0.4634   -0.8942    0.4268 H   0  0  0  0  0  0  0  0  0  0  0  0
    0.1058    0.8283    0.6904 H   0  0  0  0  0  0  0  0  0  0  0  0
    0.7718    1.5633    3.3019 H   0  0  0  0  0  0  0  0  0  0  0  0
    0.0153    1.0631    5.6016 H   0  0  0  0  0  0  0  0  0  0  0  0
   -1.9049    0.7646    6.9111 H   0  0  0  0  0  0  0  0  0  0  0  0
   -2.6592    0.2703    9.2146 H   0  0  0  0  0  0  0  0  0  0  0  0
   -2.3767   -2.0210   10.1669 H   0  0  0  0  0  0  0  0  0  0  0  0
   -1.3113   -3.8056    8.7824 H   0  0  0  0  0  0  0  0  0  0  0  0
   -0.5265   -3.3033    6.4907 H   0  0  0  0  0  0  0  0  0  0  0  0
   -1.2848   -2.8448    4.3175 H   0  0  0  0  0  0  0  0  0  0  0  0
   -0.5093   -2.3481    2.0320 H   0  0  0  0  0  0  0  0  0  0  0  0
    2.6511   -1.6085    0.7323 H   0  0  0  0  0  0  0  0  0  0  0  0
    4.6671    0.5039    0.3735 H   0  0  0  0  0  0  0  0  0  0  0  0
    4.9277   -1.2563    0.2469 H   0  0  0  0  0  0  0  0  0  0  0  0
    4.7256   -1.4032    2.7887 H   0  0  0  0  0  0  0  0  0  0  0  0
    4.6624    0.3851    2.8336 H   0  0  0  0  0  0  0  0  0  0  0  0
    9.2818   -1.6732    1.4330 H   0  0  0  0  0  0  0  0  0  0  0  0
    9.7329    4.2165    3.9401 H   0  0  0  0  0  0  0  0  0  0  0  0
   11.0327    3.1057    3.4342 H   0  0  0  0  0  0  0  0  0  0  0  0
   11.7543    1.2603    5.1300 H   0  0  0  0  0  0  0  0  0  0  0  0
   12.3747    0.9180    7.5248 H   0  0  0  0  0  0  0  0  0  0  0  0
   11.5156    2.4764    9.2802 H   0  0  0  0  0  0  0  0  0  0  0  0
    9.4256    4.7199    6.2584 H   0  0  0  0  0  0  0  0  0  0  0  0
    7.5929    3.3999    4.3037 H   0  0  0  0  0  0  0  0  0  0  0  0
  1  2  2  0
  2  3  1  0
  2 16  1  0
  3  4  1  0
  3 37  1  0
  3 38  1  0
  4  5  2  0
  4 15  1  0
  5  6  1  0
  5 39  1  0
  6  7  2  0
  6 40  1  0
  7  8  1  0
  7 14  1  0
  8  9  2  0
  8 13  1  0
  9 10  1  0
  9 41  1  0
 10 11  2  0
 10 42  1  0
 11 12  1  0
 11 43  1  0
 12 13  2  0
 12 44  1  0
 13 45  1  0
 14 15  2  0
 14 46  1  0
 15 47  1  0
 16 17  1  0
 16 48  1  0
 17 18  1  0
 17 49  1  0
 17 50  1  0
 18 19  1  0
 18 51  1  0
 18 52  1  0
 19 20  1  0
 19 36  1  0
 20 21  2  0
 21 22  1  0
 21 53  1  0
 22 23  1  0
 22 36  2  0
 23 24  2  0
 23 25  1  0
 25 26  1  0
 25 34  1  0
 26 27  1  0
 26 54  1  0
 26 55  1  0
 27 28  2  0
 27 33  1  0
 28 29  1  0
 28 56  1  0
 29 30  2  0
 29 57  1  0
 30 31  1  0
 30 58  1  0
 31 32  1  0
 31 33  2  0
 33 59  1  0
 34 35  2  0
 34 60  1  0
 35 36  1  0
M  END

