
     RDKit          3D

 44 45  0  0  0  0  0  0  0  0999 V2000
    2.9437    1.8501    0.9835 C   0  0  0  0  0  0  0  0  0  0  0  0
    2.6051    0.5465    0.5606 O   0  0  0  0  0  0  0  0  0  0  0  0
    3.1050   -0.5169    1.2404 C   0  0  0  0  0  0  0  0  0  0  0  0
    3.9683   -0.4185    2.3362 C   0  0  0  0  0  0  0  0  0  0  0  0
    4.4425   -1.5773    2.9782 C   0  0  0  0  0  0  0  0  0  0  0  0
    5.4201   -1.4039    4.1420 C   0  0  1  0  0  0  0  0  0  0  0  0
    5.4821   -2.5819    5.1152 C   0  0  0  0  0  0  0  0  0  0  0  0
    6.7713   -1.0985    3.6541 N   0  0  0  0  0  0  0  0  0  0  0  0
    7.2470    0.1661    3.5488 C   0  0  0  0  0  0  0  0  0  0  0  0
    6.5762    1.1566    3.8156 O   0  0  0  0  0  0  0  0  0  0  0  0
    8.6587    0.3456    3.0066 C   0  0  0  0  0  0  0  0  0  0  0  0
    8.8360    1.5397    2.2840 C   0  0  0  0  0  0  0  0  0  0  0  0
   10.0626    1.8693    1.7158 C   0  0  0  0  0  0  0  0  0  0  0  0
   10.2292    3.3533    0.8117 Cl  0  0  0  0  0  0  0  0  0  0  0  0
   11.1645    1.0232    1.8691 C   0  0  0  0  0  0  0  0  0  0  0  0
   11.0168   -0.1508    2.6039 C   0  0  0  0  0  0  0  0  0  0  0  0
    9.7802   -0.4908    3.1667 C   0  0  0  0  0  0  0  0  0  0  0  0
    9.7657   -2.1095    4.1988 Br  0  0  0  0  0  0  0  0  0  0  0  0
    4.0321   -2.8298    2.5202 C   0  0  0  0  0  0  0  0  0  0  0  0
    3.1692   -2.9403    1.4177 C   0  0  0  0  0  0  0  0  0  0  0  0
    2.8447   -4.1914    0.9747 O   0  0  0  0  0  0  0  0  0  0  0  0
    1.4770   -4.5736    1.0416 C   0  0  0  0  0  0  0  0  0  0  0  0
    2.6990   -1.7890    0.7677 C   0  0  0  0  0  0  0  0  0  0  0  0
    1.8354   -1.9032   -0.2863 O   0  0  0  0  0  0  0  0  0  0  0  0
    2.3858   -1.6573   -1.5732 C   0  0  0  0  0  0  0  0  0  0  0  0
    2.4294    2.5417    0.3027 H   0  0  0  0  0  0  0  0  0  0  0  0
    4.0318    2.0320    0.9289 H   0  0  0  0  0  0  0  0  0  0  0  0
    2.6059    2.0448    2.0166 H   0  0  0  0  0  0  0  0  0  0  0  0
    4.2983    0.5533    2.7028 H   0  0  0  0  0  0  0  0  0  0  0  0
    5.1125   -0.5043    4.6932 H   0  0  0  0  0  0  0  0  0  0  0  0
    5.8811   -3.4916    4.6376 H   0  0  0  0  0  0  0  0  0  0  0  0
    4.4799   -2.8195    5.5013 H   0  0  0  0  0  0  0  0  0  0  0  0
    6.1360   -2.3357    5.9649 H   0  0  0  0  0  0  0  0  0  0  0  0
    7.3489   -1.8734    3.3484 H   0  0  0  0  0  0  0  0  0  0  0  0
    7.9802    2.2084    2.1920 H   0  0  0  0  0  0  0  0  0  0  0  0
   12.1272    1.2848    1.4273 H   0  0  0  0  0  0  0  0  0  0  0  0
   11.8734   -0.8105    2.7499 H   0  0  0  0  0  0  0  0  0  0  0  0
    4.3646   -3.7585    2.9849 H   0  0  0  0  0  0  0  0  0  0  0  0
    1.4212   -5.6060    0.6680 H   0  0  0  0  0  0  0  0  0  0  0  0
    0.8407   -3.9237    0.4220 H   0  0  0  0  0  0  0  0  0  0  0  0
    1.1113   -4.5531    2.0848 H   0  0  0  0  0  0  0  0  0  0  0  0
    1.5790   -1.8243   -2.3010 H   0  0  0  0  0  0  0  0  0  0  0  0
    3.2160   -2.3524   -1.7911 H   0  0  0  0  0  0  0  0  0  0  0  0
    2.7437   -0.6189   -1.6654 H   0  0  0  0  0  0  0  0  0  0  0  0
  1  2  1  0
  1 26  1  0
  1 27  1  0
  1 28  1  0
  2  3  1  0
  3  4  2  0
  3 23  1  0
  4  5  1  0
  4 29  1  0
  5  6  1  0
  5 19  2  0
  6  7  1  0
  6  8  1  0
  6 30  1  1
  7 31  1  0
  7 32  1  0
  7 33  1  0
  8  9  1  0
  8 34  1  0
  9 10  2  0
  9 11  1  0
 11 12  2  0
 11 17  1  0
 12 13  1  0
 12 35  1  0
 13 14  1  0
 13 15  2  0
 15 16  1  0
 15 36  1  0
 16 17  2  0
 16 37  1  0
 17 18  1  0
 19 20  1  0
 19 38  1  0
 20 21  1  0
 20 23  2  0
 21 22  1  0
 22 39  1  0
 22 40  1  0
 22 41  1  0
 23 24  1  0
 24 25  1  0
 25 42  1  0
 25 43  1  0
 25 44  1  0
M  END

