
     RDKit          3D

 51 54  0  0  0  0  0  0  0  0999 V2000
    1.1454    1.7276    1.9904 C   0  0  0  0  0  0  0  0  0  0  0  0
    2.4194    2.3190    1.4180 C   0  0  0  0  0  0  0  0  0  0  0  0
    3.4608    1.3703    1.5899 O   0  0  0  0  0  0  0  0  0  0  0  0
    4.7160    1.6614    1.1687 C   0  0  0  0  0  0  0  0  0  0  0  0
    5.6929    0.6754    1.3953 C   0  0  0  0  0  0  0  0  0  0  0  0
    7.0063    0.8820    0.9954 C   0  0  0  0  0  0  0  0  0  0  0  0
    7.4033    2.0775    0.3534 C   0  0  0  0  0  0  0  0  0  0  0  0
    8.8018    2.3044   -0.0311 C   0  0  0  0  0  0  0  0  0  0  0  0
    9.7987    1.4412   -0.4189 C   0  0  0  0  0  0  0  0  0  0  0  0
    9.9156    0.1305   -0.7562 N   0  0  0  0  0  0  0  0  0  0  0  0
    8.9695   -0.7966   -1.2275 C   0  0  0  0  0  0  0  0  0  0  0  0
    9.2811   -2.1638   -1.1270 C   0  0  0  0  0  0  0  0  0  0  0  0
    8.4167   -3.1540   -1.6248 C   0  0  0  0  0  0  0  0  0  0  0  0
    7.2377   -2.7279   -2.2104 C   0  0  0  0  0  0  0  0  0  0  0  0
    6.9270   -1.3698   -2.3115 C   0  0  0  0  0  0  0  0  0  0  0  0
    7.7639   -0.3763   -1.8395 C   0  0  0  0  0  0  0  0  0  0  0  0
    5.7105   -1.2296   -2.9155 O   0  0  0  0  0  0  0  0  0  0  0  0
    5.3247   -2.5342   -3.3417 C   0  0  0  0  0  0  0  0  0  0  0  0
    6.2156   -3.4681   -2.7396 O   0  0  0  0  0  0  0  0  0  0  0  0
   11.1072    2.1965   -0.4704 C   0  0  0  0  0  0  0  0  0  0  0  0
   12.1851    1.7067   -0.7449 O   0  0  0  0  0  0  0  0  0  0  0  0
   10.8298    3.5052   -0.1577 N   0  0  0  0  0  0  0  0  0  0  0  0
   11.8411    4.5711   -0.1110 C   0  0  1  0  0  0  0  0  0  0  0  0
   11.5646    5.6474   -1.1668 C   0  0  0  0  0  0  0  0  0  0  0  0
   11.9806    5.1481    1.3022 C   0  0  0  0  0  0  0  0  0  0  0  0
    9.4450    3.6479    0.1097 C   0  0  0  0  0  0  0  0  0  0  0  0
    8.9283    4.7033    0.4081 O   0  0  0  0  0  0  0  0  0  0  0  0
    6.4156    3.0586    0.1459 C   0  0  0  0  0  0  0  0  0  0  0  0
    5.0905    2.8597    0.5402 C   0  0  0  0  0  0  0  0  0  0  0  0
    0.3106    2.4360    1.8742 H   0  0  0  0  0  0  0  0  0  0  0  0
    1.2672    1.5046    3.0614 H   0  0  0  0  0  0  0  0  0  0  0  0
    0.8840    0.7922    1.4723 H   0  0  0  0  0  0  0  0  0  0  0  0
    2.6793    3.2633    1.9328 H   0  0  0  0  0  0  0  0  0  0  0  0
    2.2944    2.5531    0.3437 H   0  0  0  0  0  0  0  0  0  0  0  0
    5.3928   -0.2468    1.8968 H   0  0  0  0  0  0  0  0  0  0  0  0
    7.7493    0.1103    1.2056 H   0  0  0  0  0  0  0  0  0  0  0  0
   10.8935   -0.1425   -0.8565 H   0  0  0  0  0  0  0  0  0  0  0  0
   10.2172   -2.4602   -0.6482 H   0  0  0  0  0  0  0  0  0  0  0  0
    8.6603   -4.2142   -1.5446 H   0  0  0  0  0  0  0  0  0  0  0  0
    7.5081    0.6751   -1.9509 H   0  0  0  0  0  0  0  0  0  0  0  0
    5.4005   -2.6018   -4.4453 H   0  0  0  0  0  0  0  0  0  0  0  0
    4.2922   -2.7411   -3.0160 H   0  0  0  0  0  0  0  0  0  0  0  0
   12.7764    4.0521   -0.3732 H   0  0  0  0  0  0  0  0  0  0  0  0
   10.6189    6.1682   -0.9575 H   0  0  0  0  0  0  0  0  0  0  0  0
   11.5067    5.2052   -2.1736 H   0  0  0  0  0  0  0  0  0  0  0  0
   12.3781    6.3896   -1.1680 H   0  0  0  0  0  0  0  0  0  0  0  0
   11.0544    5.6523    1.6139 H   0  0  0  0  0  0  0  0  0  0  0  0
   12.8027    5.8804    1.3287 H   0  0  0  0  0  0  0  0  0  0  0  0
   12.2094    4.3542    2.0301 H   0  0  0  0  0  0  0  0  0  0  0  0
    6.6910    4.0021   -0.3251 H   0  0  0  0  0  0  0  0  0  0  0  0
    4.3610    3.6478    0.3533 H   0  0  0  0  0  0  0  0  0  0  0  0
  1  2  1  0
  1 30  1  0
  1 31  1  0
  1 32  1  0
  2  3  1  0
  2 33  1  0
  2 34  1  0
  3  4  1  0
  4  5  2  0
  4 29  1  0
  5  6  1  0
  5 35  1  0
  6  7  2  0
  6 36  1  0
  7  8  1  0
  7 28  1  0
  8  9  2  0
  8 26  1  0
  9 10  1  0
  9 20  1  0
 10 11  1  0
 10 37  1  0
 11 12  2  0
 11 16  1  0
 12 13  1  0
 12 38  1  0
 13 14  2  0
 13 39  1  0
 14 15  1  0
 14 19  1  0
 15 16  2  0
 15 17  1  0
 16 40  1  0
 17 18  1  0
 18 19  1  0
 18 41  1  0
 18 42  1  0
 20 21  2  0
 20 22  1  0
 22 23  1  0
 22 26  1  0
 23 24  1  0
 23 25  1  0
 23 43  1  6
 24 44  1  0
 24 45  1  0
 24 46  1  0
 25 47  1  0
 25 48  1  0
 25 49  1  0
 26 27  2  0
 28 29  2  0
 28 50  1  0
 29 51  1  0
M  END

