
     RDKit          3D

 71 74  0  0  0  0  0  0  0  0999 V2000
   20.3228   -5.4245    1.9964 C   0  0  0  0  0  0  0  0  0  0  0  0
   20.1957   -4.3711    0.9120 C   0  0  0  0  0  0  0  0  0  0  0  0
   18.9052   -4.4834    0.3385 O   0  0  0  0  0  0  0  0  0  0  0  0
   18.5390   -3.6438   -0.6658 C   0  0  0  0  0  0  0  0  0  0  0  0
   17.2412   -3.8177   -1.1792 C   0  0  0  0  0  0  0  0  0  0  0  0
   16.7772   -3.0057   -2.2079 C   0  0  0  0  0  0  0  0  0  0  0  0
   17.5835   -1.9956   -2.7645 C   0  0  0  0  0  0  0  0  0  0  0  0
   17.0794   -1.1292   -3.9111 C   0  0  0  0  0  0  0  0  0  0  0  0
   15.8110   -0.3564   -3.6059 C   0  0  0  0  0  0  0  0  0  0  0  0
   14.5690   -0.8232   -4.0673 C   0  0  0  0  0  0  0  0  0  0  0  0
   13.3671   -0.1649   -3.7847 C   0  0  0  0  0  0  0  0  0  0  0  0
   12.0440   -0.6998   -4.2990 C   0  0  2  0  0  0  0  0  0  0  0  0
   11.3217   -0.7213   -3.4568 H   0  0  0  0  0  0  0  0  0  0  0  0
   12.2355   -2.0121   -4.8007 O   0  0  0  0  0  0  0  0  0  0  0  0
   11.0569   -2.6975   -5.1852 C   0  0  2  0  0  0  0  0  0  0  0  0
   10.3371   -2.7207   -4.3414 H   0  0  0  0  0  0  0  0  0  0  0  0
   11.4477   -4.1309   -5.5493 C   0  0  0  0  0  0  0  0  0  0  0  0
   11.8672   -4.9167   -4.4049 N   0  0  0  0  0  0  0  0  0  0  0  0
   10.8053   -5.6123   -3.6876 C   0  0  0  0  0  0  0  0  0  0  0  0
   10.4351   -6.9685   -4.3150 C   0  0  0  0  0  0  0  0  0  0  0  0
   11.6817   -7.8487   -4.4787 C   0  0  0  0  0  0  0  0  0  0  0  0
   12.7933   -7.1052   -5.2361 C   0  0  2  0  0  0  0  0  0  0  0  0
   14.0721   -7.9383   -5.3505 C   0  0  0  0  0  0  0  0  0  0  0  0
   15.0966   -7.2980   -6.0855 O   0  0  0  0  0  0  0  0  0  0  0  0
   13.0562   -5.7405   -4.5637 C   0  0  0  0  0  0  0  0  0  0  0  0
   10.3914   -1.9372   -6.3472 C   0  0  1  0  0  0  0  0  0  0  0  0
   11.0798   -1.9352   -7.2147 H   0  0  0  0  0  0  0  0  0  0  0  0
    9.1215   -2.4650   -6.7113 O   0  0  0  0  0  0  0  0  0  0  0  0
   10.1476   -0.4955   -5.9240 C   0  0  2  0  0  0  0  0  0  0  0  0
    9.4197   -0.5162   -5.0861 H   0  0  0  0  0  0  0  0  0  0  0  0
    9.6482    0.2947   -6.9842 O   0  0  0  0  0  0  0  0  0  0  0  0
   11.4191    0.1711   -5.4100 C   0  0  1  0  0  0  0  0  0  0  0  0
   12.1465    0.2276   -6.2450 H   0  0  0  0  0  0  0  0  0  0  0  0
   11.1212    1.4528   -4.9072 O   0  0  0  0  0  0  0  0  0  0  0  0
   13.4047    1.0068   -3.0152 C   0  0  0  0  0  0  0  0  0  0  0  0
   14.6226    1.5046   -2.5556 C   0  0  0  0  0  0  0  0  0  0  0  0
   15.8091    0.8272   -2.8494 C   0  0  0  0  0  0  0  0  0  0  0  0
   17.3168    1.5048   -2.2537 Cl  0  0  0  0  0  0  0  0  0  0  0  0
   18.8693   -1.8322   -2.2414 C   0  0  0  0  0  0  0  0  0  0  0  0
   19.3556   -2.6407   -1.2055 C   0  0  0  0  0  0  0  0  0  0  0  0
   21.3161   -5.3696    2.4683 H   0  0  0  0  0  0  0  0  0  0  0  0
   20.1915   -6.4331    1.5752 H   0  0  0  0  0  0  0  0  0  0  0  0
   19.5581   -5.2753    2.7740 H   0  0  0  0  0  0  0  0  0  0  0  0
   20.9711   -4.5145    0.1351 H   0  0  0  0  0  0  0  0  0  0  0  0
   20.3379   -3.3573    1.3333 H   0  0  0  0  0  0  0  0  0  0  0  0
   16.6151   -4.6022   -0.7490 H   0  0  0  0  0  0  0  0  0  0  0  0
   15.7622   -3.1576   -2.5856 H   0  0  0  0  0  0  0  0  0  0  0  0
   16.8846   -1.7695   -4.7876 H   0  0  0  0  0  0  0  0  0  0  0  0
   17.8758   -0.4276   -4.2013 H   0  0  0  0  0  0  0  0  0  0  0  0
   14.5356   -1.7376   -4.6607 H   0  0  0  0  0  0  0  0  0  0  0  0
   12.2806   -4.0657   -6.2683 H   0  0  0  0  0  0  0  0  0  0  0  0
   10.5918   -4.5872   -6.0927 H   0  0  0  0  0  0  0  0  0  0  0  0
    9.9201   -4.9591   -3.6233 H   0  0  0  0  0  0  0  0  0  0  0  0
   11.1409   -5.7803   -2.6468 H   0  0  0  0  0  0  0  0  0  0  0  0
    9.9685   -6.8048   -5.3036 H   0  0  0  0  0  0  0  0  0  0  0  0
    9.6780   -7.4765   -3.6937 H   0  0  0  0  0  0  0  0  0  0  0  0
   11.4272   -8.7932   -4.9904 H   0  0  0  0  0  0  0  0  0  0  0  0
   12.0607   -8.1301   -3.4773 H   0  0  0  0  0  0  0  0  0  0  0  0
   12.4309   -6.9120   -6.2676 H   0  0  0  0  0  0  0  0  0  0  0  0
   13.8295   -8.9354   -5.7731 H   0  0  0  0  0  0  0  0  0  0  0  0
   14.4878   -8.1157   -4.3435 H   0  0  0  0  0  0  0  0  0  0  0  0
   14.7937   -7.1976   -6.9975 H   0  0  0  0  0  0  0  0  0  0  0  0
   13.8209   -5.1837   -5.1236 H   0  0  0  0  0  0  0  0  0  0  0  0
   13.4843   -5.9304   -3.5596 H   0  0  0  0  0  0  0  0  0  0  0  0
    9.2490   -3.2184   -7.3000 H   0  0  0  0  0  0  0  0  0  0  0  0
    8.8607   -0.1575   -7.3195 H   0  0  0  0  0  0  0  0  0  0  0  0
   10.5882    1.8947   -5.5847 H   0  0  0  0  0  0  0  0  0  0  0  0
   12.4809    1.5424   -2.7925 H   0  0  0  0  0  0  0  0  0  0  0  0
   14.6624    2.4212   -1.9646 H   0  0  0  0  0  0  0  0  0  0  0  0
   19.5171   -1.0494   -2.6450 H   0  0  0  0  0  0  0  0  0  0  0  0
   20.3654   -2.4734   -0.8306 H   0  0  0  0  0  0  0  0  0  0  0  0
  1  2  1  0
  1 41  1  0
  1 42  1  0
  1 43  1  0
  2  3  1  0
  2 44  1  0
  2 45  1  0
  3  4  1  0
  4  5  2  0
  4 40  1  0
  5  6  1  0
  5 46  1  0
  6  7  2  0
  6 47  1  0
  7  8  1  0
  7 39  1  0
  8  9  1  0
  8 48  1  0
  8 49  1  0
  9 10  2  0
  9 37  1  0
 10 11  1  0
 10 50  1  0
 11 12  1  0
 11 35  2  0
 12 13  1  1
 12 14  1  0
 12 32  1  0
 14 15  1  0
 15 16  1  1
 15 17  1  0
 15 26  1  0
 17 18  1  0
 17 51  1  0
 17 52  1  0
 18 19  1  0
 18 25  1  0
 19 20  1  0
 19 53  1  0
 19 54  1  0
 20 21  1  0
 20 55  1  0
 20 56  1  0
 21 22  1  0
 21 57  1  0
 21 58  1  0
 22 23  1  0
 22 25  1  0
 22 59  1  6
 23 24  1  0
 23 60  1  0
 23 61  1  0
 24 62  1  0
 25 63  1  0
 25 64  1  0
 26 27  1  6
 26 28  1  0
 26 29  1  0
 28 65  1  0
 29 30  1  1
 29 31  1  0
 29 32  1  0
 31 66  1  0
 32 33  1  6
 32 34  1  0
 34 67  1  0
 35 36  1  0
 35 68  1  0
 36 37  2  0
 36 69  1  0
 37 38  1  0
 39 40  2  0
 39 70  1  0
 40 71  1  0
M  END

