
     RDKit          3D

 38 39  0  0  0  0  0  0  0  0999 V2000
    1.0100    5.1078    0.6852 C   0  0  0  0  0  0  0  0  0  0  0  0
    2.5239    5.0885    0.9004 C   0  0  0  0  0  0  0  0  0  0  0  0
    3.1760    3.7690    0.4705 C   0  0  0  0  0  0  0  0  0  0  0  0
    4.6900    3.7608    0.6909 C   0  0  0  0  0  0  0  0  0  0  0  0
    5.3743    2.1522    0.1493 S   0  0  0  0  0  0  0  0  0  0  0  0
    7.1091    2.2843    0.4851 C   0  0  0  0  0  0  0  0  0  0  0  0
    7.7448    3.4131    1.0236 C   0  0  0  0  0  0  0  0  0  0  0  0
    9.1260    3.4114    1.2496 C   0  0  0  0  0  0  0  0  0  0  0  0
    9.9090    2.2923    0.9519 C   0  0  0  0  0  0  0  0  0  0  0  0
   11.4185    2.2488    1.1930 C   0  0  1  0  0  0  0  0  0  0  0  0
   12.0321    3.5383    1.4574 N   0  0  0  0  0  0  0  0  0  0  0  0
   12.0569    4.1489    2.6835 C   0  0  0  0  0  0  0  0  0  0  0  0
   12.3403    5.3121    2.8664 O   0  0  0  0  0  0  0  0  0  0  0  0
   11.7140    3.3045    3.7592 N   0  0  0  0  0  0  0  0  0  0  0  0
   11.4992    1.9432    3.7360 C   0  0  0  0  0  0  0  0  0  0  0  0
   11.1454    1.3093    4.6989 O   0  0  0  0  0  0  0  0  0  0  0  0
   11.7938    1.2960    2.3649 C   0  0  2  0  0  0  0  0  0  0  0  0
   13.2062    0.8999    2.3040 C   0  0  0  0  0  0  0  0  0  0  0  0
   14.3202    0.5892    2.2370 N   0  0  0  0  0  0  0  0  0  0  0  0
    9.2688    1.1678    0.4005 C   0  0  0  0  0  0  0  0  0  0  0  0
    7.8979    1.1577    0.1720 C   0  0  0  0  0  0  0  0  0  0  0  0
    0.5716    6.0667    1.0033 H   0  0  0  0  0  0  0  0  0  0  0  0
    0.5133    4.3076    1.2587 H   0  0  0  0  0  0  0  0  0  0  0  0
    0.7540    4.9603   -0.3772 H   0  0  0  0  0  0  0  0  0  0  0  0
    2.7486    5.2752    1.9661 H   0  0  0  0  0  0  0  0  0  0  0  0
    2.9878    5.9223    0.3431 H   0  0  0  0  0  0  0  0  0  0  0  0
    2.9608    3.5803   -0.5961 H   0  0  0  0  0  0  0  0  0  0  0  0
    2.7210    2.9323    1.0294 H   0  0  0  0  0  0  0  0  0  0  0  0
    4.9259    3.9122    1.7568 H   0  0  0  0  0  0  0  0  0  0  0  0
    5.1678    4.5699    0.1151 H   0  0  0  0  0  0  0  0  0  0  0  0
    7.1773    4.3100    1.2716 H   0  0  0  0  0  0  0  0  0  0  0  0
    9.5863    4.3145    1.6554 H   0  0  0  0  0  0  0  0  0  0  0  0
   11.8942    1.8417    0.2872 H   0  0  0  0  0  0  0  0  0  0  0  0
   12.2237    4.1621    0.6813 H   0  0  0  0  0  0  0  0  0  0  0  0
   11.6352    3.7692    4.6609 H   0  0  0  0  0  0  0  0  0  0  0  0
   11.1811    0.3845    2.3246 H   0  0  0  0  0  0  0  0  0  0  0  0
    9.8529    0.2805    0.1360 H   0  0  0  0  0  0  0  0  0  0  0  0
    7.4266    0.2705   -0.2588 H   0  0  0  0  0  0  0  0  0  0  0  0
  1  2  1  0
  1 22  1  0
  1 23  1  0
  1 24  1  0
  2  3  1  0
  2 25  1  0
  2 26  1  0
  3  4  1  0
  3 27  1  0
  3 28  1  0
  4  5  1  0
  4 29  1  0
  4 30  1  0
  5  6  1  0
  6  7  2  0
  6 21  1  0
  7  8  1  0
  7 31  1  0
  8  9  2  0
  8 32  1  0
  9 10  1  0
  9 20  1  0
 10 11  1  0
 10 17  1  0
 10 33  1  6
 11 12  1  0
 11 34  1  0
 12 13  2  0
 12 14  1  0
 14 15  1  0
 14 35  1  0
 15 16  2  0
 15 17  1  0
 17 18  1  0
 17 36  1  6
 18 19  3  0
 20 21  2  0
 20 37  1  0
 21 38  1  0
M  END

