
     RDKit          3D

 46 47  0  0  0  0  0  0  0  0999 V2000
   -2.6490   -0.6042   -0.2462 C   0  0  0  0  0  0  0  0  0  0  0  0
   -1.1525   -0.4923    0.0460 C   0  0  1  0  0  0  0  0  0  0  0  0
   -0.8232   -1.2212    1.2746 N   0  0  0  0  0  0  0  0  0  0  0  0
   -0.0057   -0.7148    2.2436 C   0  0  0  0  0  0  0  0  0  0  0  0
    0.4773    0.4067    2.1831 O   0  0  0  0  0  0  0  0  0  0  0  0
    0.2869   -1.6663    3.4067 C   0  0  0  0  0  0  0  0  0  0  0  0
    0.8333   -0.9513    4.6416 C   0  0  0  0  0  0  0  0  0  0  0  0
   -0.2119   -0.1048    5.3679 C   0  0  0  0  0  0  0  0  0  0  0  0
    0.3729    0.5472    6.5225 N   0  0  0  0  0  0  0  0  0  0  0  0
   -0.3146    1.3099    7.4253 C   0  0  0  0  0  0  0  0  0  0  0  0
    0.3878    1.9868    8.4579 C   0  0  0  0  0  0  0  0  0  0  0  0
   -0.2829    2.7485    9.3992 C   0  0  0  0  0  0  0  0  0  0  0  0
   -1.6787    2.8555    9.3334 C   0  0  0  0  0  0  0  0  0  0  0  0
   -2.3894    3.6574   10.3260 N   0  0  0  0  0  0  0  0  0  0  0  0
   -1.7256    4.2144   11.1913 O   0  0  0  0  0  0  0  0  0  0  0  0
   -3.6088    3.7276   10.2383 O   0  0  0  0  0  0  0  0  0  0  0  0
   -2.3966    2.2063    8.3257 C   0  0  0  0  0  0  0  0  0  0  0  0
   -1.7255    1.4433    7.3779 C   0  0  0  0  0  0  0  0  0  0  0  0
   -0.2317   -0.9172   -1.0999 C   0  0  0  0  0  0  0  0  0  0  0  0
    1.1042   -0.4741   -1.0874 C   0  0  0  0  0  0  0  0  0  0  0  0
    1.9966   -0.8556   -2.0846 C   0  0  0  0  0  0  0  0  0  0  0  0
    1.5678   -1.6976   -3.1296 C   0  0  0  0  0  0  0  0  0  0  0  0
    2.4830   -2.0968   -4.1626 C   0  0  0  0  0  0  0  0  0  0  0  0
    3.2229   -2.4221   -4.9963 N   0  0  0  0  0  0  0  0  0  0  0  0
    0.2347   -2.1412   -3.1533 C   0  0  0  0  0  0  0  0  0  0  0  0
   -0.6505   -1.7503   -2.1475 C   0  0  0  0  0  0  0  0  0  0  0  0
   -3.2254   -0.1844    0.5912 H   0  0  0  0  0  0  0  0  0  0  0  0
   -2.9686   -1.6509   -0.3807 H   0  0  0  0  0  0  0  0  0  0  0  0
   -2.9145   -0.0518   -1.1599 H   0  0  0  0  0  0  0  0  0  0  0  0
   -0.9133    0.5557    0.2786 H   0  0  0  0  0  0  0  0  0  0  0  0
   -1.1198   -2.1888    1.3432 H   0  0  0  0  0  0  0  0  0  0  0  0
    1.0343   -2.3938    3.0434 H   0  0  0  0  0  0  0  0  0  0  0  0
   -0.6160   -2.2526    3.6514 H   0  0  0  0  0  0  0  0  0  0  0  0
    1.6628   -0.2994    4.3213 H   0  0  0  0  0  0  0  0  0  0  0  0
    1.2440   -1.6963    5.3433 H   0  0  0  0  0  0  0  0  0  0  0  0
   -1.0440   -0.7542    5.6976 H   0  0  0  0  0  0  0  0  0  0  0  0
   -0.6375    0.6373    4.6661 H   0  0  0  0  0  0  0  0  0  0  0  0
    1.3827    0.6230    6.5404 H   0  0  0  0  0  0  0  0  0  0  0  0
    1.4767    1.8988    8.5084 H   0  0  0  0  0  0  0  0  0  0  0  0
    0.2506    3.2691   10.1942 H   0  0  0  0  0  0  0  0  0  0  0  0
   -3.4807    2.3150    8.2980 H   0  0  0  0  0  0  0  0  0  0  0  0
   -2.2977    0.9509    6.5917 H   0  0  0  0  0  0  0  0  0  0  0  0
    1.4390    0.1785   -0.2772 H   0  0  0  0  0  0  0  0  0  0  0  0
    3.0293   -0.5019   -2.0661 H   0  0  0  0  0  0  0  0  0  0  0  0
   -0.1041   -2.7898   -3.9635 H   0  0  0  0  0  0  0  0  0  0  0  0
   -1.6822   -2.1034   -2.1941 H   0  0  0  0  0  0  0  0  0  0  0  0
  1  2  1  0
  1 27  1  0
  1 28  1  0
  1 29  1  0
  2  3  1  0
  2 19  1  0
  2 30  1  1
  3  4  1  0
  3 31  1  0
  4  5  2  0
  4  6  1  0
  6  7  1  0
  6 32  1  0
  6 33  1  0
  7  8  1  0
  7 34  1  0
  7 35  1  0
  8  9  1  0
  8 36  1  0
  8 37  1  0
  9 10  1  0
  9 38  1  0
 10 11  2  0
 10 18  1  0
 11 12  1  0
 11 39  1  0
 12 13  2  0
 12 40  1  0
 13 14  1  0
 13 17  1  0
 14 15  2  0
 14 16  1  0
 17 18  2  0
 17 41  1  0
 18 42  1  0
 19 20  2  0
 19 26  1  0
 20 21  1  0
 20 43  1  0
 21 22  2  0
 21 44  1  0
 22 23  1  0
 22 25  1  0
 23 24  3  0
 25 26  2  0
 25 45  1  0
 26 46  1  0
M  CHG  2  14   1  16  -1
M  END

