
     RDKit          3D

 42 44  0  0  0  0  0  0  0  0999 V2000
    9.2823    1.1025   -0.4145 C   0  0  0  0  0  0  0  0  0  0  0  0
    8.9571    0.6061   -1.8325 C   0  0  0  0  0  0  0  0  0  0  0  0
    7.8723    1.4170   -2.5110 C   0  0  0  0  0  0  0  0  0  0  0  0
    8.2396    2.5880   -3.1958 C   0  0  0  0  0  0  0  0  0  0  0  0
    7.2991    3.4186   -3.8075 C   0  0  0  0  0  0  0  0  0  0  0  0
    5.9422    3.0958   -3.7482 C   0  0  0  0  0  0  0  0  0  0  0  0
    5.5422    1.9387   -3.0788 C   0  0  0  0  0  0  0  0  0  0  0  0
    6.4948    1.1085   -2.4734 C   0  0  0  0  0  0  0  0  0  0  0  0
    5.8321   -0.3549   -1.6232 S   0  0  1  0  0  0  0  0  0  0  0  0
    6.4740   -0.4874   -0.3089 O   0  0  0  0  0  0  0  0  0  0  0  0
    4.3730   -0.2429   -1.7256 O   0  0  0  0  0  0  0  0  0  0  0  0
    6.3998   -1.6330   -2.5382 N   0  0  0  0  0  0  0  0  0  0  0  0
    5.7852   -2.0155   -3.8263 C   0  0  2  0  0  0  0  0  0  0  0  0
    4.4360   -2.7452   -3.6902 C   0  0  0  0  0  0  0  0  0  0  0  0
    4.4235   -3.9719   -2.7622 C   0  0  0  0  0  0  0  0  0  0  0  0
    4.7882   -3.6266   -1.3978 N   0  0  0  0  0  0  0  0  0  0  0  0
    6.1822   -3.6499   -1.0155 C   0  0  0  0  0  0  0  0  0  0  0  0
    7.0851   -2.7924   -1.9398 C   0  0  1  0  0  0  0  0  0  0  0  0
    7.6092   -3.5353   -3.2043 C   0  0  0  0  0  0  0  0  0  0  0  0
    6.9155   -2.8795   -4.4220 C   0  0  0  0  0  0  0  0  0  0  0  0
   10.1002    0.5079    0.0235 H   0  0  0  0  0  0  0  0  0  0  0  0
    8.4013    1.0046    0.2346 H   0  0  0  0  0  0  0  0  0  0  0  0
    9.5985    2.1580   -0.4244 H   0  0  0  0  0  0  0  0  0  0  0  0
    8.6725   -0.4522   -1.7921 H   0  0  0  0  0  0  0  0  0  0  0  0
    9.8646    0.6642   -2.4568 H   0  0  0  0  0  0  0  0  0  0  0  0
    9.3006    2.8498   -3.2458 H   0  0  0  0  0  0  0  0  0  0  0  0
    7.6291    4.3196   -4.3310 H   0  0  0  0  0  0  0  0  0  0  0  0
    5.1952    3.7390   -4.2195 H   0  0  0  0  0  0  0  0  0  0  0  0
    4.4897    1.6628   -3.0087 H   0  0  0  0  0  0  0  0  0  0  0  0
    5.6275   -1.1058   -4.4279 H   0  0  0  0  0  0  0  0  0  0  0  0
    4.1116   -3.0483   -4.7022 H   0  0  0  0  0  0  0  0  0  0  0  0
    3.6993   -2.0263   -3.3036 H   0  0  0  0  0  0  0  0  0  0  0  0
    5.0482   -4.7913   -3.1834 H   0  0  0  0  0  0  0  0  0  0  0  0
    3.3940   -4.3644   -2.7499 H   0  0  0  0  0  0  0  0  0  0  0  0
    4.2109   -4.0983   -0.7102 H   0  0  0  0  0  0  0  0  0  0  0  0
    6.6317   -4.6709   -0.9876 H   0  0  0  0  0  0  0  0  0  0  0  0
    6.2477   -3.2420    0.0051 H   0  0  0  0  0  0  0  0  0  0  0  0
    7.9256   -2.4380   -1.3268 H   0  0  0  0  0  0  0  0  0  0  0  0
    7.3904   -4.6106   -3.1339 H   0  0  0  0  0  0  0  0  0  0  0  0
    8.7024   -3.4397   -3.2769 H   0  0  0  0  0  0  0  0  0  0  0  0
    6.5306   -3.6161   -5.1437 H   0  0  0  0  0  0  0  0  0  0  0  0
    7.6220   -2.2302   -4.9598 H   0  0  0  0  0  0  0  0  0  0  0  0
  1  2  1  0
  1 21  1  0
  1 22  1  0
  1 23  1  0
  2  3  1  0
  2 24  1  0
  2 25  1  0
  3  4  2  0
  3  8  1  0
  4  5  1  0
  4 26  1  0
  5  6  2  0
  5 27  1  0
  6  7  1  0
  6 28  1  0
  7  8  2  0
  7 29  1  0
  9  8  1  6
  9 10  2  0
  9 11  2  0
  9 12  1  0
 12 13  1  0
 12 18  1  0
 13 14  1  0
 13 20  1  0
 13 30  1  6
 14 15  1  0
 14 31  1  0
 14 32  1  0
 15 16  1  0
 15 33  1  0
 15 34  1  0
 16 17  1  0
 16 35  1  0
 17 18  1  0
 17 36  1  0
 17 37  1  0
 18 19  1  0
 18 38  1  1
 19 20  1  0
 19 39  1  0
 19 40  1  0
 20 41  1  0
 20 42  1  0
M  END

