
     RDKit          3D

 58 59  0  0  0  0  0  0  0  0999 V2000
   12.9280   -4.5572   -0.2510 C   0  0  0  0  0  0  0  0  0  0  0  0
   11.9805   -4.5279   -1.2925 O   0  0  0  0  0  0  0  0  0  0  0  0
   10.6750   -4.7779   -1.0100 C   0  0  0  0  0  0  0  0  0  0  0  0
    9.7843   -4.7302   -2.0963 C   0  0  0  0  0  0  0  0  0  0  0  0
    8.4280   -4.9701   -1.9017 C   0  0  0  0  0  0  0  0  0  0  0  0
    7.9079   -5.2634   -0.6276 C   0  0  0  0  0  0  0  0  0  0  0  0
    6.4389   -5.5634   -0.4290 C   0  0  0  0  0  0  0  0  0  0  0  0
    6.0973   -7.0477   -0.6219 C   0  0  0  0  0  0  0  0  0  0  0  0
    4.6814   -7.2808   -0.3963 N   0  0  0  0  0  0  0  0  0  0  0  0
    4.1898   -8.5778   -0.3220 C   0  0  0  0  0  0  0  0  0  0  0  0
    2.7986   -8.6203   -0.2345 N   0  0  0  0  0  0  0  0  0  0  0  0
    4.9789   -9.5865   -0.3528 N   0  0  0  0  0  0  0  0  0  0  0  0
    4.4497  -10.9107   -0.1572 C   0  0  0  0  0  0  0  0  0  0  0  0
    5.5239  -11.9720    0.0272 C   0  0  0  0  0  0  0  0  0  0  0  0
    5.1541  -13.2874    0.3554 C   0  0  0  0  0  0  0  0  0  0  0  0
    6.1255  -14.2752    0.5098 C   0  0  0  0  0  0  0  0  0  0  0  0
    7.4820  -13.9706    0.3410 C   0  0  0  0  0  0  0  0  0  0  0  0
    7.8642  -12.6663    0.0154 C   0  0  0  0  0  0  0  0  0  0  0  0
    9.3176  -12.2830   -0.1767 C   0  0  0  0  0  0  0  0  0  0  0  0
   10.1483  -13.4035   -0.0027 O   0  0  0  0  0  0  0  0  0  0  0  0
   11.5717  -13.2500   -0.1064 C   0  0  1  0  0  0  0  0  0  0  0  0
   12.1047  -12.3136    0.9910 C   0  0  0  0  0  0  0  0  0  0  0  0
   12.1037  -14.6702    0.1103 C   0  0  0  0  0  0  0  0  0  0  0  0
   11.9729  -12.7426   -1.5013 C   0  0  0  0  0  0  0  0  0  0  0  0
    6.8784  -11.6774   -0.1389 C   0  0  0  0  0  0  0  0  0  0  0  0
    8.8089   -5.3069    0.4427 C   0  0  0  0  0  0  0  0  0  0  0  0
   10.1775   -5.0681    0.2688 C   0  0  0  0  0  0  0  0  0  0  0  0
   13.9021   -4.3314   -0.7058 H   0  0  0  0  0  0  0  0  0  0  0  0
   12.9816   -5.5504    0.2313 H   0  0  0  0  0  0  0  0  0  0  0  0
   12.7129   -3.7997    0.5250 H   0  0  0  0  0  0  0  0  0  0  0  0
   10.1850   -4.4981   -3.0853 H   0  0  0  0  0  0  0  0  0  0  0  0
    7.7523   -4.9233   -2.7612 H   0  0  0  0  0  0  0  0  0  0  0  0
    5.8434   -4.9601   -1.1385 H   0  0  0  0  0  0  0  0  0  0  0  0
    6.1213   -5.2610    0.5825 H   0  0  0  0  0  0  0  0  0  0  0  0
    6.6597   -7.6645    0.0937 H   0  0  0  0  0  0  0  0  0  0  0  0
    6.4186   -7.3844   -1.6273 H   0  0  0  0  0  0  0  0  0  0  0  0
    4.0646   -6.6396   -0.8875 H   0  0  0  0  0  0  0  0  0  0  0  0
    2.3696   -7.8527    0.2732 H   0  0  0  0  0  0  0  0  0  0  0  0
    2.4029   -9.5197    0.0116 H   0  0  0  0  0  0  0  0  0  0  0  0
    3.8236  -11.2190   -1.0235 H   0  0  0  0  0  0  0  0  0  0  0  0
    3.7693  -10.9671    0.7238 H   0  0  0  0  0  0  0  0  0  0  0  0
    4.0965  -13.5367    0.4915 H   0  0  0  0  0  0  0  0  0  0  0  0
    5.8275  -15.2958    0.7665 H   0  0  0  0  0  0  0  0  0  0  0  0
    8.2492  -14.7358    0.4603 H   0  0  0  0  0  0  0  0  0  0  0  0
    9.5676  -11.4768    0.5421 H   0  0  0  0  0  0  0  0  0  0  0  0
    9.4358  -11.8438   -1.1875 H   0  0  0  0  0  0  0  0  0  0  0  0
   11.7577  -12.6503    1.9803 H   0  0  0  0  0  0  0  0  0  0  0  0
   11.7745  -11.2736    0.8446 H   0  0  0  0  0  0  0  0  0  0  0  0
   13.2059  -12.3109    0.9926 H   0  0  0  0  0  0  0  0  0  0  0  0
   11.7901  -15.0457    1.0962 H   0  0  0  0  0  0  0  0  0  0  0  0
   13.2030  -14.6944    0.0570 H   0  0  0  0  0  0  0  0  0  0  0  0
   11.6981  -15.3473   -0.6568 H   0  0  0  0  0  0  0  0  0  0  0  0
   11.6460  -11.7059   -1.6756 H   0  0  0  0  0  0  0  0  0  0  0  0
   11.5292  -13.3807   -2.2815 H   0  0  0  0  0  0  0  0  0  0  0  0
   13.0677  -12.7653   -1.6177 H   0  0  0  0  0  0  0  0  0  0  0  0
    7.1491  -10.6503   -0.3933 H   0  0  0  0  0  0  0  0  0  0  0  0
    8.4382   -5.5289    1.4481 H   0  0  0  0  0  0  0  0  0  0  0  0
   10.8392   -5.1079    1.1344 H   0  0  0  0  0  0  0  0  0  0  0  0
  1  2  1  0
  1 28  1  0
  1 29  1  0
  1 30  1  0
  2  3  1  0
  3  4  2  0
  3 27  1  0
  4  5  1  0
  4 31  1  0
  5  6  2  0
  5 32  1  0
  6  7  1  0
  6 26  1  0
  7  8  1  0
  7 33  1  0
  7 34  1  0
  8  9  1  0
  8 35  1  0
  8 36  1  0
  9 10  1  0
  9 37  1  0
 10 11  1  0
 10 12  2  0
 11 38  1  0
 11 39  1  0
 12 13  1  0
 13 14  1  0
 13 40  1  0
 13 41  1  0
 14 15  2  0
 14 25  1  0
 15 16  1  0
 15 42  1  0
 16 17  2  0
 16 43  1  0
 17 18  1  0
 17 44  1  0
 18 19  1  0
 18 25  2  0
 19 20  1  0
 19 45  1  0
 19 46  1  0
 21 20  1  6
 21 22  1  0
 21 23  1  0
 21 24  1  0
 22 47  1  0
 22 48  1  0
 22 49  1  0
 23 50  1  0
 23 51  1  0
 23 52  1  0
 24 53  1  0
 24 54  1  0
 24 55  1  0
 25 56  1  0
 26 27  2  0
 26 57  1  0
 27 58  1  0
M  END

