
     RDKit          3D

 52 55  0  0  0  0  0  0  0  0999 V2000
    4.2998    1.0866   -6.8979 C   0  0  0  0  0  0  0  0  0  0  0  0
    3.8710    1.4674   -5.6109 O   0  0  0  0  0  0  0  0  0  0  0  0
    4.6777    2.2311   -4.8279 C   0  0  0  0  0  0  0  0  0  0  0  0
    5.9663    2.6810   -5.2293 C   0  0  0  0  0  0  0  0  0  0  0  0
    6.7261    3.4545   -4.3736 C   0  0  0  0  0  0  0  0  0  0  0  0
    6.2551    3.8223   -3.0864 C   0  0  0  0  0  0  0  0  0  0  0  0
    7.0215    4.6208   -2.1910 C   0  0  0  0  0  0  0  0  0  0  0  0
    6.5448    4.9698   -0.9430 C   0  0  0  0  0  0  0  0  0  0  0  0
    7.3308    5.8514    0.0114 C   0  0  0  0  0  0  0  0  0  0  0  0
    8.7626    5.8126   -0.1874 N   0  0  0  0  0  0  0  0  0  0  0  0
    9.5134    6.9648   -0.3200 C   0  0  0  0  0  0  0  0  0  0  0  0
    9.0253    8.0819   -0.3215 O   0  0  0  0  0  0  0  0  0  0  0  0
   10.8710    6.7286   -0.4611 N   0  0  0  0  0  0  0  0  0  0  0  0
   11.8487    7.7190   -0.6135 C   0  0  0  0  0  0  0  0  0  0  0  0
   11.7131    9.1340   -0.6369 C   0  0  0  0  0  0  0  0  0  0  0  0
   12.8997    9.7196   -0.7889 N   0  0  0  0  0  0  0  0  0  0  0  0
   13.7955    8.7305   -0.8588 N   0  0  0  0  0  0  0  0  0  0  0  0
   15.1940    9.0228   -1.1049 C   0  0  0  0  0  0  0  0  0  0  0  0
   15.5104    9.2982   -2.5791 C   0  0  1  0  0  0  0  0  0  0  0  0
   14.9554   10.6049   -3.1608 C   0  0  0  0  0  0  0  0  0  0  0  0
   16.0079   10.9444   -4.2230 C   0  0  0  0  0  0  0  0  0  0  0  0
   17.2987   10.4825   -3.5394 C   0  0  0  0  0  0  0  0  0  0  0  0
   16.9294    9.3903   -2.6994 O   0  0  0  0  0  0  0  0  0  0  0  0
   13.2121    7.4976   -0.7644 C   0  0  0  0  0  0  0  0  0  0  0  0
    5.2527    4.5101   -0.5530 C   0  0  0  0  0  0  0  0  0  0  0  0
    4.4815    3.7400   -1.3932 C   0  0  0  0  0  0  0  0  0  0  0  0
    4.9530    3.3680   -2.6867 C   0  0  0  0  0  0  0  0  0  0  0  0
    4.1893    2.5741   -3.5754 C   0  0  0  0  0  0  0  0  0  0  0  0
    3.4893    0.4849   -7.3311 H   0  0  0  0  0  0  0  0  0  0  0  0
    5.2180    0.4722   -6.8651 H   0  0  0  0  0  0  0  0  0  0  0  0
    4.4804    1.9598   -7.5509 H   0  0  0  0  0  0  0  0  0  0  0  0
    6.3635    2.4221   -6.2109 H   0  0  0  0  0  0  0  0  0  0  0  0
    7.7146    3.7972   -4.6921 H   0  0  0  0  0  0  0  0  0  0  0  0
    8.0097    4.9642   -2.5081 H   0  0  0  0  0  0  0  0  0  0  0  0
    7.0690    5.5783    1.0513 H   0  0  0  0  0  0  0  0  0  0  0  0
    7.0404    6.9076   -0.1116 H   0  0  0  0  0  0  0  0  0  0  0  0
    9.2232    4.9142   -0.1060 H   0  0  0  0  0  0  0  0  0  0  0  0
   11.1962    5.7706   -0.4859 H   0  0  0  0  0  0  0  0  0  0  0  0
   10.7990    9.7117   -0.5412 H   0  0  0  0  0  0  0  0  0  0  0  0
   15.7921    8.1622   -0.7715 H   0  0  0  0  0  0  0  0  0  0  0  0
   15.4801    9.8921   -0.4945 H   0  0  0  0  0  0  0  0  0  0  0  0
   15.1487    8.4355   -3.1764 H   0  0  0  0  0  0  0  0  0  0  0  0
   14.9215   11.3812   -2.3792 H   0  0  0  0  0  0  0  0  0  0  0  0
   13.9362   10.4962   -3.5559 H   0  0  0  0  0  0  0  0  0  0  0  0
   16.0252   12.0097   -4.4982 H   0  0  0  0  0  0  0  0  0  0  0  0
   15.8297   10.3619   -5.1423 H   0  0  0  0  0  0  0  0  0  0  0  0
   17.7388   11.2924   -2.9259 H   0  0  0  0  0  0  0  0  0  0  0  0
   18.0710   10.1440   -4.2505 H   0  0  0  0  0  0  0  0  0  0  0  0
   13.7966    6.5803   -0.7964 H   0  0  0  0  0  0  0  0  0  0  0  0
    4.8713    4.7771    0.4373 H   0  0  0  0  0  0  0  0  0  0  0  0
    3.4936    3.3975   -1.0735 H   0  0  0  0  0  0  0  0  0  0  0  0
    3.1973    2.2201   -3.2864 H   0  0  0  0  0  0  0  0  0  0  0  0
  1  2  1  0
  1 29  1  0
  1 30  1  0
  1 31  1  0
  2  3  1  0
  3  4  2  0
  3 28  1  0
  4  5  1  0
  4 32  1  0
  5  6  2  0
  5 33  1  0
  6  7  1  0
  6 27  1  0
  7  8  2  0
  7 34  1  0
  8  9  1  0
  8 25  1  0
  9 10  1  0
  9 35  1  0
  9 36  1  0
 10 11  1  0
 10 37  1  0
 11 12  2  0
 11 13  1  0
 13 14  1  0
 13 38  1  0
 14 15  1  0
 14 24  2  0
 15 16  2  0
 15 39  1  0
 16 17  1  0
 17 18  1  0
 17 24  1  0
 18 19  1  0
 18 40  1  0
 18 41  1  0
 19 20  1  0
 19 23  1  0
 19 42  1  6
 20 21  1  0
 20 43  1  0
 20 44  1  0
 21 22  1  0
 21 45  1  0
 21 46  1  0
 22 23  1  0
 22 47  1  0
 22 48  1  0
 24 49  1  0
 25 26  2  0
 25 50  1  0
 26 27  1  0
 26 51  1  0
 27 28  2  0
 28 52  1  0
M  END

