
     RDKit          3D

 94 98  0  0  0  0  0  0  0  0999 V2000
    5.1036   -2.9864   -2.3311 C   0  0  0  0  0  0  0  0  0  0  0  0
    6.0955   -2.3428   -1.7028 C   0  0  0  0  0  0  0  0  0  0  0  0
    6.9691   -1.3845   -2.4513 C   0  0  0  0  0  0  0  0  0  0  0  0
    6.6360   -0.9464   -3.5446 O   0  0  0  0  0  0  0  0  0  0  0  0
    8.1713   -1.0118   -1.8734 N   0  0  0  0  0  0  0  0  0  0  0  0
    8.7342   -1.4470   -0.6037 C   0  0  0  0  0  0  0  0  0  0  0  0
   10.1737   -1.9305   -0.8075 C   0  0  0  0  0  0  0  0  0  0  0  0
   10.9721   -0.9770   -1.4844 O   0  0  0  0  0  0  0  0  0  0  0  0
   10.4388   -0.5404   -2.7329 C   0  0  1  0  0  0  0  0  0  0  0  0
   11.0631    0.3253   -3.0158 H   0  0  0  0  0  0  0  0  0  0  0  0
   10.6235   -1.6413   -3.8042 C   0  0  0  0  0  0  0  0  0  0  0  0
   10.0915   -1.2901   -5.1023 N   0  0  0  0  0  0  0  0  0  0  0  0
    8.9872   -1.8917   -5.6583 C   0  0  0  0  0  0  0  0  0  0  0  0
    8.5381   -3.0109   -5.1143 N   0  0  0  0  0  0  0  0  0  0  0  0
    7.3842   -3.5656   -5.5374 C   0  0  0  0  0  0  0  0  0  0  0  0
    7.1134   -4.7736   -4.9632 N   0  0  0  0  0  0  0  0  0  0  0  0
    6.3016   -5.8905   -5.4601 C   0  0  1  0  0  0  0  0  0  0  0  0
    6.7889   -6.4183   -6.8267 C   0  0  0  0  0  0  0  0  0  0  0  0
    8.1286   -7.1599   -6.7279 C   0  0  0  0  0  0  0  0  0  0  0  0
    8.0985   -8.3341   -5.7273 C   0  0  2  0  0  0  0  0  0  0  0  0
    7.1859   -9.4180   -6.1370 N   0  0  0  0  0  0  0  0  0  0  0  0
    7.1733   -9.8102   -7.5484 C   0  0  0  0  0  0  0  0  0  0  0  0
    8.3930  -10.6427   -7.9755 C   0  0  0  0  0  0  0  0  0  0  0  0
    8.5011  -11.9445   -7.1438 C   0  0  2  0  0  0  0  0  0  0  0  0
    7.4218  -12.8764   -7.5314 N   0  0  0  0  0  0  0  0  0  0  0  0
    7.6218  -13.5172   -8.8368 C   0  0  0  0  0  0  0  0  0  0  0  0
    8.5550  -14.7429   -8.7648 C   0  0  0  0  0  0  0  0  0  0  0  0
    8.1328  -15.7367   -7.7795 N   0  0  0  0  0  0  0  0  0  0  0  0
    7.0889  -16.6394   -8.2262 C   0  0  0  0  0  0  0  0  0  0  0  0
    7.8917  -15.1077   -6.4816 C   0  0  0  0  0  0  0  0  0  0  0  0
    6.9604  -13.8849   -6.5738 C   0  0  0  0  0  0  0  0  0  0  0  0
    8.4647  -11.5314   -5.6591 C   0  0  0  0  0  0  0  0  0  0  0  0
    7.2618  -10.6295   -5.3169 C   0  0  0  0  0  0  0  0  0  0  0  0
    7.6773   -7.7551   -4.3554 C   0  0  0  0  0  0  0  0  0  0  0  0
    6.3294   -7.0221   -4.4202 C   0  0  0  0  0  0  0  0  0  0  0  0
    6.6091   -2.8708   -6.5151 C   0  0  0  0  0  0  0  0  0  0  0  0
    5.1585   -3.0999   -6.7944 C   0  0  0  0  0  0  0  0  0  0  0  0
    4.7133   -2.5204   -7.9460 N   0  0  0  0  0  0  0  0  0  0  0  0
    4.4121   -3.7249   -6.0434 O   0  0  0  0  0  0  0  0  0  0  0  0
    7.1649   -1.8231   -7.1508 N   0  0  0  0  0  0  0  0  0  0  0  0
    8.3330   -1.3240   -6.8039 C   0  0  0  0  0  0  0  0  0  0  0  0
    8.9057   -0.1668   -7.5886 C   0  0  0  0  0  0  0  0  0  0  0  0
   10.0794   -0.5473   -8.5062 C   0  0  0  0  0  0  0  0  0  0  0  0
    9.0045   -0.0298   -2.5531 C   0  0  0  0  0  0  0  0  0  0  0  0
    4.4515   -3.6763   -1.7881 H   0  0  0  0  0  0  0  0  0  0  0  0
    4.9256   -2.8539   -3.4023 H   0  0  0  0  0  0  0  0  0  0  0  0
    6.2541   -2.5030   -0.6339 H   0  0  0  0  0  0  0  0  0  0  0  0
    8.1444   -2.2616   -0.1676 H   0  0  0  0  0  0  0  0  0  0  0  0
    8.7323   -0.6025    0.1134 H   0  0  0  0  0  0  0  0  0  0  0  0
   10.1573   -2.8962   -1.3485 H   0  0  0  0  0  0  0  0  0  0  0  0
   10.6559   -2.1005    0.1676 H   0  0  0  0  0  0  0  0  0  0  0  0
   11.7032   -1.8641   -3.8644 H   0  0  0  0  0  0  0  0  0  0  0  0
   10.1135   -2.5644   -3.5038 H   0  0  0  0  0  0  0  0  0  0  0  0
   10.4171   -0.4376   -5.5374 H   0  0  0  0  0  0  0  0  0  0  0  0
    7.8417   -5.0155   -4.2989 H   0  0  0  0  0  0  0  0  0  0  0  0
    5.2731   -5.5254   -5.5678 H   0  0  0  0  0  0  0  0  0  0  0  0
    6.8686   -5.5834   -7.5420 H   0  0  0  0  0  0  0  0  0  0  0  0
    6.0112   -7.0927   -7.2207 H   0  0  0  0  0  0  0  0  0  0  0  0
    8.9048   -6.4585   -6.3771 H   0  0  0  0  0  0  0  0  0  0  0  0
    8.4650   -7.4896   -7.7226 H   0  0  0  0  0  0  0  0  0  0  0  0
    9.1444   -8.7015   -5.6266 H   0  0  0  0  0  0  0  0  0  0  0  0
    7.0637   -8.9268   -8.1908 H   0  0  0  0  0  0  0  0  0  0  0  0
    6.2723  -10.4256   -7.7092 H   0  0  0  0  0  0  0  0  0  0  0  0
    9.3210  -10.0603   -7.8400 H   0  0  0  0  0  0  0  0  0  0  0  0
    8.3297  -10.8674   -9.0520 H   0  0  0  0  0  0  0  0  0  0  0  0
    9.5001  -12.3928   -7.3340 H   0  0  0  0  0  0  0  0  0  0  0  0
    8.0168  -12.7876   -9.5593 H   0  0  0  0  0  0  0  0  0  0  0  0
    6.6337  -13.8294   -9.2224 H   0  0  0  0  0  0  0  0  0  0  0  0
    9.5747  -14.4076   -8.4987 H   0  0  0  0  0  0  0  0  0  0  0  0
    8.6312  -15.2245   -9.7543 H   0  0  0  0  0  0  0  0  0  0  0  0
    7.4110  -17.1469   -9.1505 H   0  0  0  0  0  0  0  0  0  0  0  0
    6.1005  -16.1726   -8.4368 H   0  0  0  0  0  0  0  0  0  0  0  0
    6.9234  -17.4185   -7.4637 H   0  0  0  0  0  0  0  0  0  0  0  0
    8.8662  -14.7928   -6.0622 H   0  0  0  0  0  0  0  0  0  0  0  0
    7.4754  -15.8590   -5.7891 H   0  0  0  0  0  0  0  0  0  0  0  0
    6.8069  -13.4400   -5.5814 H   0  0  0  0  0  0  0  0  0  0  0  0
    5.9614  -14.2199   -6.9095 H   0  0  0  0  0  0  0  0  0  0  0  0
    9.3977  -10.9795   -5.4570 H   0  0  0  0  0  0  0  0  0  0  0  0
    8.4928  -12.4051   -4.9895 H   0  0  0  0  0  0  0  0  0  0  0  0
    7.2944  -10.3614   -4.2515 H   0  0  0  0  0  0  0  0  0  0  0  0
    6.3250  -11.1943   -5.4630 H   0  0  0  0  0  0  0  0  0  0  0  0
    8.4810   -7.0732   -4.0228 H   0  0  0  0  0  0  0  0  0  0  0  0
    7.6360   -8.5405   -3.5853 H   0  0  0  0  0  0  0  0  0  0  0  0
    6.0584   -6.6177   -3.4303 H   0  0  0  0  0  0  0  0  0  0  0  0
    5.5516   -7.7494   -4.6973 H   0  0  0  0  0  0  0  0  0  0  0  0
    5.3252   -1.8460   -8.3925 H   0  0  0  0  0  0  0  0  0  0  0  0
    3.7106   -2.4505   -8.0667 H   0  0  0  0  0  0  0  0  0  0  0  0
    9.2193    0.6423   -6.9005 H   0  0  0  0  0  0  0  0  0  0  0  0
    8.0842    0.2509   -8.1893 H   0  0  0  0  0  0  0  0  0  0  0  0
   10.9215   -0.9759   -7.9381 H   0  0  0  0  0  0  0  0  0  0  0  0
   10.4563    0.3311   -9.0548 H   0  0  0  0  0  0  0  0  0  0  0  0
    9.7655   -1.3005   -9.2458 H   0  0  0  0  0  0  0  0  0  0  0  0
    8.5341    0.2068   -3.5143 H   0  0  0  0  0  0  0  0  0  0  0  0
    9.0460    0.8948   -1.9464 H   0  0  0  0  0  0  0  0  0  0  0  0
  1  2  2  0
  1 45  1  0
  1 46  1  0
  2  3  1  0
  2 47  1  0
  3  4  2  0
  3  5  1  0
  5  6  1  0
  5 44  1  0
  6  7  1  0
  6 48  1  0
  6 49  1  0
  7  8  1  0
  7 50  1  0
  7 51  1  0
  8  9  1  0
  9 10  1  6
  9 11  1  0
  9 44  1  0
 11 12  1  0
 11 52  1  0
 11 53  1  0
 12 13  1  0
 12 54  1  0
 13 14  2  0
 13 41  1  0
 14 15  1  0
 15 16  1  0
 15 36  2  0
 16 17  1  0
 16 55  1  0
 17 18  1  0
 17 35  1  0
 17 56  1  6
 18 19  1  0
 18 57  1  0
 18 58  1  0
 19 20  1  0
 19 59  1  0
 19 60  1  0
 20 21  1  0
 20 34  1  0
 20 61  1  1
 21 22  1  0
 21 33  1  0
 22 23  1  0
 22 62  1  0
 22 63  1  0
 23 24  1  0
 23 64  1  0
 23 65  1  0
 24 25  1  0
 24 32  1  0
 24 66  1  1
 25 26  1  0
 25 31  1  0
 26 27  1  0
 26 67  1  0
 26 68  1  0
 27 28  1  0
 27 69  1  0
 27 70  1  0
 28 29  1  0
 28 30  1  0
 29 71  1  0
 29 72  1  0
 29 73  1  0
 30 31  1  0
 30 74  1  0
 30 75  1  0
 31 76  1  0
 31 77  1  0
 32 33  1  0
 32 78  1  0
 32 79  1  0
 33 80  1  0
 33 81  1  0
 34 35  1  0
 34 82  1  0
 34 83  1  0
 35 84  1  0
 35 85  1  0
 36 37  1  0
 36 40  1  0
 37 38  1  0
 37 39  2  0
 38 86  1  0
 38 87  1  0
 40 41  2  0
 41 42  1  0
 42 43  1  0
 42 88  1  0
 42 89  1  0
 43 90  1  0
 43 91  1  0
 43 92  1  0
 44 93  1  0
 44 94  1  0
M  END

