
     RDKit          3D

 30 30  0  0  0  0  0  0  0  0999 V2000
    1.0556   -0.6395    0.8327 C   0  0  0  0  0  0  0  0  0  0  0  0
    2.5162   -0.3841    0.4578 C   0  0  0  0  0  0  0  0  0  0  0  0
    3.0992    0.8458    1.1573 C   0  0  0  0  0  0  0  0  0  0  0  0
    4.5761    1.1234    0.8144 C   0  0  1  0  0  0  0  0  0  0  0  0
    4.7726    1.3766   -0.6198 C   0  0  0  0  0  0  0  0  0  0  0  0
    4.9046    1.5851   -1.7526 N   0  0  0  0  0  0  0  0  0  0  0  0
    5.1366    2.3275    1.6328 C   0  0  0  0  0  0  0  0  0  0  0  0
    4.3750    3.1102    2.1627 O   0  0  0  0  0  0  0  0  0  0  0  0
    6.5953    2.4727    1.7464 C   0  0  0  0  0  0  0  0  0  0  0  0
    7.2396    3.5106    2.3934 C   0  0  0  0  0  0  0  0  0  0  0  0
    8.6580    3.4230    2.3693 C   0  0  0  0  0  0  0  0  0  0  0  0
    9.5706    4.4405    3.0056 C   0  0  0  0  0  0  0  0  0  0  0  0
    9.0943    2.2913    1.6908 C   0  0  0  0  0  0  0  0  0  0  0  0
   10.5038    1.8433    1.4457 C   0  0  0  0  0  0  0  0  0  0  0  0
    7.7645    1.3552    1.0885 S   0  0  0  0  0  0  0  0  0  0  0  0
    0.6601   -1.5293    0.3185 H   0  0  0  0  0  0  0  0  0  0  0  0
    0.4174    0.2161    0.5569 H   0  0  0  0  0  0  0  0  0  0  0  0
    0.9396   -0.8015    1.9174 H   0  0  0  0  0  0  0  0  0  0  0  0
    2.5999   -0.2603   -0.6358 H   0  0  0  0  0  0  0  0  0  0  0  0
    3.1234   -1.2728    0.7098 H   0  0  0  0  0  0  0  0  0  0  0  0
    3.0340    0.7275    2.2514 H   0  0  0  0  0  0  0  0  0  0  0  0
    2.5114    1.7456    0.9176 H   0  0  0  0  0  0  0  0  0  0  0  0
    5.1830    0.2345    1.0657 H   0  0  0  0  0  0  0  0  0  0  0  0
    6.6780    4.3151    2.8706 H   0  0  0  0  0  0  0  0  0  0  0  0
    8.9872    5.2441    3.4772 H   0  0  0  0  0  0  0  0  0  0  0  0
   10.2411    4.9091    2.2666 H   0  0  0  0  0  0  0  0  0  0  0  0
   10.2062    3.9913    3.7864 H   0  0  0  0  0  0  0  0  0  0  0  0
   11.2164    2.5559    1.8833 H   0  0  0  0  0  0  0  0  0  0  0  0
   10.7253    1.7653    0.3684 H   0  0  0  0  0  0  0  0  0  0  0  0
   10.7017    0.8541    1.8912 H   0  0  0  0  0  0  0  0  0  0  0  0
  1  2  1  0
  1 16  1  0
  1 17  1  0
  1 18  1  0
  2  3  1  0
  2 19  1  0
  2 20  1  0
  3  4  1  0
  3 21  1  0
  3 22  1  0
  4  5  1  0
  4  7  1  0
  4 23  1  1
  5  6  3  0
  7  8  2  0
  7  9  1  0
  9 10  2  0
  9 15  1  0
 10 11  1  0
 10 24  1  0
 11 12  1  0
 11 13  2  0
 12 25  1  0
 12 26  1  0
 12 27  1  0
 13 14  1  0
 13 15  1  0
 14 28  1  0
 14 29  1  0
 14 30  1  0
M  END

