
     RDKit          3D

 27 29  0  0  0  0  0  0  0  0999 V2000
    5.8725   -1.9483    0.1408 Cl  0  0  0  0  0  0  0  0  0  0  0  0
    4.6107   -0.9276   -0.4861 C   0  0  0  0  0  0  0  0  0  0  0  0
    4.9286    0.3094   -1.0251 C   0  0  0  0  0  0  0  0  0  0  0  0
    3.8667    1.0968   -1.4797 C   0  0  0  0  0  0  0  0  0  0  0  0
    2.5932    0.7103   -1.4143 N   0  0  0  0  0  0  0  0  0  0  0  0
    2.2990   -0.4700   -0.9062 N   0  0  0  0  0  0  0  0  0  0  0  0
    3.2483   -1.2973   -0.4417 C   0  0  0  0  0  0  0  0  0  0  0  0
    2.7505   -2.5956    0.0892 C   0  0  0  0  0  0  0  0  0  0  0  0
    3.2013   -3.8132   -0.4366 C   0  0  0  0  0  0  0  0  0  0  0  0
    2.6477   -5.0088    0.0177 C   0  0  0  0  0  0  0  0  0  0  0  0
    1.6481   -4.9459    0.9914 C   0  0  0  0  0  0  0  0  0  0  0  0
    1.2140   -3.7985    1.5101 N   0  0  0  0  0  0  0  0  0  0  0  0
    1.7455   -2.6506    1.0835 C   0  0  0  0  0  0  0  0  0  0  0  0
    1.2822   -1.4144    1.7846 C   0  0  0  0  0  0  0  0  0  0  0  0
    2.2629   -0.6263    2.2438 N   0  0  0  0  0  0  0  0  0  0  0  0
    2.0119    0.4746    2.9256 N   0  0  0  0  0  0  0  0  0  0  0  0
    0.7465    0.8112    3.1721 C   0  0  0  0  0  0  0  0  0  0  0  0
   -0.3463    0.0637    2.7237 C   0  0  0  0  0  0  0  0  0  0  0  0
   -0.0755   -1.0870    1.9976 C   0  0  0  0  0  0  0  0  0  0  0  0
   -1.3831   -2.0213    1.3482 Cl  0  0  0  0  0  0  0  0  0  0  0  0
    5.9623    0.6549   -1.0767 H   0  0  0  0  0  0  0  0  0  0  0  0
    4.0437    2.0862   -1.9125 H   0  0  0  0  0  0  0  0  0  0  0  0
    3.9719   -3.8203   -1.2102 H   0  0  0  0  0  0  0  0  0  0  0  0
    2.9770   -5.9705   -0.3814 H   0  0  0  0  0  0  0  0  0  0  0  0
    1.1796   -5.8623    1.3690 H   0  0  0  0  0  0  0  0  0  0  0  0
    0.6014    1.7308    3.7475 H   0  0  0  0  0  0  0  0  0  0  0  0
   -1.3731    0.3769    2.9192 H   0  0  0  0  0  0  0  0  0  0  0  0
  1  2  1  0
  2  3  2  0
  2  7  1  0
  3  4  1  0
  3 21  1  0
  4  5  2  0
  4 22  1  0
  5  6  1  0
  6  7  2  0
  7  8  1  0
  8  9  2  0
  8 13  1  0
  9 10  1  0
  9 23  1  0
 10 11  2  0
 10 24  1  0
 11 12  1  0
 11 25  1  0
 12 13  2  0
 13 14  1  0
 14 15  2  0
 14 19  1  0
 15 16  1  0
 16 17  2  0
 17 18  1  0
 17 26  1  0
 18 19  2  0
 18 27  1  0
 19 20  1  0
M  END

