
     RDKit          3D

 51 52  0  0  0  0  0  0  0  0999 V2000
    5.4121    6.6816    7.1870 C   0  0  0  0  0  0  0  0  0  0  0  0
    6.7642    6.9359    7.4959 O   0  0  0  0  0  0  0  0  0  0  0  0
    7.7164    6.0595    7.0789 C   0  0  0  0  0  0  0  0  0  0  0  0
    7.4559    4.8779    6.3710 C   0  0  0  0  0  0  0  0  0  0  0  0
    8.5044    4.0519    5.9495 C   0  0  0  0  0  0  0  0  0  0  0  0
    9.8349    4.3777    6.2349 C   0  0  0  0  0  0  0  0  0  0  0  0
   10.9753    3.5288    5.7040 C   0  0  0  0  0  0  0  0  0  0  0  0
   11.3627    3.8794    4.3468 N   0  0  0  0  0  0  0  0  0  0  0  0
   10.9113    3.2153    3.2530 C   0  0  0  0  0  0  0  0  0  0  0  0
   10.2253    2.2034    3.2858 O   0  0  0  0  0  0  0  0  0  0  0  0
   11.3956    3.8116    1.9104 C   0  0  2  0  0  0  0  0  0  0  0  0
   10.5503    3.6464    1.2140 H   0  0  0  0  0  0  0  0  0  0  0  0
   12.5877    2.9926    1.4056 C   0  0  0  0  0  0  0  0  0  0  0  0
   11.7491    5.2210    2.0459 N   0  0  0  0  0  0  0  0  0  0  0  0
   10.6446    6.1916    1.9377 C   0  0  2  0  0  0  0  0  0  0  0  0
    9.8003    5.7475    2.4897 H   0  0  0  0  0  0  0  0  0  0  0  0
   10.1822    6.4315    0.4912 C   0  0  0  0  0  0  0  0  0  0  0  0
   11.0144    7.4772    2.6716 C   0  0  0  0  0  0  0  0  0  0  0  0
   10.4944    7.7232    3.9517 C   0  0  0  0  0  0  0  0  0  0  0  0
   10.8534    8.8654    4.6740 C   0  0  0  0  0  0  0  0  0  0  0  0
   11.7428    9.7893    4.1177 C   0  0  0  0  0  0  0  0  0  0  0  0
   12.2654    9.5615    2.8406 C   0  0  0  0  0  0  0  0  0  0  0  0
   11.9032    8.4165    2.1243 C   0  0  0  0  0  0  0  0  0  0  0  0
   10.0888    5.5500    6.9632 C   0  0  0  0  0  0  0  0  0  0  0  0
    9.0598    6.3948    7.3798 C   0  0  0  0  0  0  0  0  0  0  0  0
    9.3883    7.5718    7.9952 O   0  0  0  0  0  0  0  0  0  0  0  0
    8.9714    7.7530    9.3407 C   0  0  0  0  0  0  0  0  0  0  0  0
    4.8341    7.5190    7.6006 H   0  0  0  0  0  0  0  0  0  0  0  0
    5.0544    5.7404    7.6423 H   0  0  0  0  0  0  0  0  0  0  0  0
    5.2431    6.6344    6.0962 H   0  0  0  0  0  0  0  0  0  0  0  0
    6.4302    4.5978    6.1296 H   0  0  0  0  0  0  0  0  0  0  0  0
    8.2834    3.1481    5.3762 H   0  0  0  0  0  0  0  0  0  0  0  0
   10.6827    2.4695    5.6822 H   0  0  0  0  0  0  0  0  0  0  0  0
   11.8549    3.6273    6.3607 H   0  0  0  0  0  0  0  0  0  0  0  0
   11.8396    4.7575    4.1471 H   0  0  0  0  0  0  0  0  0  0  0  0
   12.8772    3.3062    0.3890 H   0  0  0  0  0  0  0  0  0  0  0  0
   12.3252    1.9258    1.3779 H   0  0  0  0  0  0  0  0  0  0  0  0
   13.4556    3.1217    2.0725 H   0  0  0  0  0  0  0  0  0  0  0  0
   12.5150    5.4766    1.4253 H   0  0  0  0  0  0  0  0  0  0  0  0
    9.3252    7.1224    0.4574 H   0  0  0  0  0  0  0  0  0  0  0  0
    9.8739    5.4868    0.0160 H   0  0  0  0  0  0  0  0  0  0  0  0
   10.9879    6.8673   -0.1222 H   0  0  0  0  0  0  0  0  0  0  0  0
    9.8007    7.0057    4.3970 H   0  0  0  0  0  0  0  0  0  0  0  0
   10.4382    9.0197    5.6737 H   0  0  0  0  0  0  0  0  0  0  0  0
   12.0277   10.6849    4.6761 H   0  0  0  0  0  0  0  0  0  0  0  0
   12.9595   10.2807    2.3972 H   0  0  0  0  0  0  0  0  0  0  0  0
   12.3230    8.2603    1.1266 H   0  0  0  0  0  0  0  0  0  0  0  0
   11.1111    5.8512    7.2067 H   0  0  0  0  0  0  0  0  0  0  0  0
    9.3833    8.7173    9.6704 H   0  0  0  0  0  0  0  0  0  0  0  0
    9.3720    6.9539    9.9913 H   0  0  0  0  0  0  0  0  0  0  0  0
    7.8744    7.7772    9.4307 H   0  0  0  0  0  0  0  0  0  0  0  0
  1  2  1  0
  1 28  1  0
  1 29  1  0
  1 30  1  0
  2  3  1  0
  3  4  2  0
  3 25  1  0
  4  5  1  0
  4 31  1  0
  5  6  2  0
  5 32  1  0
  6  7  1  0
  6 24  1  0
  7  8  1  0
  7 33  1  0
  7 34  1  0
  8  9  1  0
  8 35  1  0
  9 10  2  0
  9 11  1  0
 11 12  1  6
 11 13  1  0
 11 14  1  0
 13 36  1  0
 13 37  1  0
 13 38  1  0
 14 15  1  0
 14 39  1  0
 15 16  1  1
 15 17  1  0
 15 18  1  0
 17 40  1  0
 17 41  1  0
 17 42  1  0
 18 19  2  0
 18 23  1  0
 19 20  1  0
 19 43  1  0
 20 21  2  0
 20 44  1  0
 21 22  1  0
 21 45  1  0
 22 23  2  0
 22 46  1  0
 23 47  1  0
 24 25  2  0
 24 48  1  0
 25 26  1  0
 26 27  1  0
 27 49  1  0
 27 50  1  0
 27 51  1  0
M  END

