
     RDKit          3D

 47 46  0  0  0  0  0  0  0  0999 V2000
    3.1117    1.7989    0.4550 C   0  0  0  0  0  0  0  0  0  0  0  0
    2.7382    0.3812   -0.0027 C   0  0  1  0  0  0  0  0  0  0  0  0
    2.7953    0.3098   -1.5513 C   0  0  0  0  0  0  0  0  0  0  0  0
    2.1733   -0.9602   -2.1215 C   0  0  0  0  0  0  0  0  0  0  0  0
    2.7499   -2.0400   -2.0975 O   0  0  0  0  0  0  0  0  0  0  0  0
    0.9117   -0.8087   -2.6275 N   0  0  0  0  0  0  0  0  0  0  0  0
    0.1080   -1.9089   -3.1565 C   0  0  1  0  0  0  0  0  0  0  0  0
   -1.0842   -2.2025   -2.2383 C   0  0  0  0  0  0  0  0  0  0  0  0
   -0.3328   -1.6390   -4.6030 C   0  0  0  0  0  0  0  0  0  0  0  0
    0.8164   -1.4601   -5.5974 C   0  0  0  0  0  0  0  0  0  0  0  0
    0.3563   -1.3266   -7.0519 C   0  0  0  0  0  0  0  0  0  0  0  0
   -0.3497   -2.5246   -7.5008 N   0  0  0  0  0  0  0  0  0  0  0  0
    3.6267   -0.7048    0.6587 C   0  0  0  0  0  0  0  0  0  0  0  0
    3.0542   -1.4581    1.8918 C   0  0  1  0  0  0  0  0  0  0  0  0
    1.8294   -2.3012    1.4837 C   0  0  0  0  0  0  0  0  0  0  0  0
    4.1540   -2.4081    2.4054 C   0  0  0  0  0  0  0  0  0  0  0  0
    2.6594   -0.4970    3.0284 C   0  0  0  0  0  0  0  0  0  0  0  0
    2.4253    2.5551    0.0385 H   0  0  0  0  0  0  0  0  0  0  0  0
    4.1324    2.0579    0.1254 H   0  0  0  0  0  0  0  0  0  0  0  0
    3.0857    1.8909    1.5508 H   0  0  0  0  0  0  0  0  0  0  0  0
    1.6856    0.2039    0.2820 H   0  0  0  0  0  0  0  0  0  0  0  0
    3.8472    0.3360   -1.8797 H   0  0  0  0  0  0  0  0  0  0  0  0
    2.2990    1.1994   -1.9746 H   0  0  0  0  0  0  0  0  0  0  0  0
    0.4918    0.1138   -2.6053 H   0  0  0  0  0  0  0  0  0  0  0  0
    0.7862   -2.7759   -3.1448 H   0  0  0  0  0  0  0  0  0  0  0  0
   -1.7704   -1.3391   -2.1880 H   0  0  0  0  0  0  0  0  0  0  0  0
   -0.7452   -2.4304   -1.2162 H   0  0  0  0  0  0  0  0  0  0  0  0
   -1.6614   -3.0636   -2.6106 H   0  0  0  0  0  0  0  0  0  0  0  0
   -0.9836   -0.7423   -4.6239 H   0  0  0  0  0  0  0  0  0  0  0  0
   -0.9652   -2.4738   -4.9441 H   0  0  0  0  0  0  0  0  0  0  0  0
    1.5078   -2.3198   -5.5159 H   0  0  0  0  0  0  0  0  0  0  0  0
    1.4151   -0.5725   -5.3310 H   0  0  0  0  0  0  0  0  0  0  0  0
    1.2368   -1.0616   -7.6769 H   0  0  0  0  0  0  0  0  0  0  0  0
   -0.3415   -0.4737   -7.1325 H   0  0  0  0  0  0  0  0  0  0  0  0
    0.3003   -3.3087   -7.5761 H   0  0  0  0  0  0  0  0  0  0  0  0
   -0.7384   -2.3868   -8.4333 H   0  0  0  0  0  0  0  0  0  0  0  0
    4.5861   -0.2391    0.9497 H   0  0  0  0  0  0  0  0  0  0  0  0
    3.8724   -1.4679   -0.0948 H   0  0  0  0  0  0  0  0  0  0  0  0
    2.0779   -2.9868    0.6583 H   0  0  0  0  0  0  0  0  0  0  0  0
    0.9885   -1.6711    1.1506 H   0  0  0  0  0  0  0  0  0  0  0  0
    1.4677   -2.9017    2.3349 H   0  0  0  0  0  0  0  0  0  0  0  0
    4.4626   -3.1186    1.6214 H   0  0  0  0  0  0  0  0  0  0  0  0
    3.8016   -2.9936    3.2708 H   0  0  0  0  0  0  0  0  0  0  0  0
    5.0497   -1.8481    2.7217 H   0  0  0  0  0  0  0  0  0  0  0  0
    1.8469    0.1844    2.7291 H   0  0  0  0  0  0  0  0  0  0  0  0
    3.5158    0.1178    3.3523 H   0  0  0  0  0  0  0  0  0  0  0  0
    2.3042   -1.0601    3.9076 H   0  0  0  0  0  0  0  0  0  0  0  0
  1  2  1  0
  1 18  1  0
  1 19  1  0
  1 20  1  0
  2  3  1  0
  2 13  1  0
  2 21  1  1
  3  4  1  0
  3 22  1  0
  3 23  1  0
  4  5  2  0
  4  6  1  0
  6  7  1  0
  6 24  1  0
  7  8  1  0
  7  9  1  0
  7 25  1  6
  8 26  1  0
  8 27  1  0
  8 28  1  0
  9 10  1  0
  9 29  1  0
  9 30  1  0
 10 11  1  0
 10 31  1  0
 10 32  1  0
 11 12  1  0
 11 33  1  0
 11 34  1  0
 12 35  1  0
 12 36  1  0
 14 13  1  6
 13 37  1  0
 13 38  1  0
 14 15  1  0
 14 16  1  0
 14 17  1  0
 15 39  1  0
 15 40  1  0
 15 41  1  0
 16 42  1  0
 16 43  1  0
 16 44  1  0
 17 45  1  0
 17 46  1  0
 17 47  1  0
M  END

