
     RDKit          3D

 42 42  0  0  0  0  0  0  0  0999 V2000
    2.7971   -0.5187   -1.5570 O   0  0  0  0  0  0  0  0  0  0  0  0
    2.1905   -0.1087   -0.6071 C   0  0  0  0  0  0  0  0  0  0  0  0
    0.8465    0.0583   -0.6751 O   0  0  0  0  0  0  0  0  0  0  0  0
    2.8199    0.2586    0.7315 C   0  0  0  0  0  0  0  0  0  0  0  0
    4.3335    0.0615    0.7673 C   0  0  0  0  0  0  0  0  0  0  0  0
    4.9615    0.4276    2.1143 C   0  0  0  0  0  0  0  0  0  0  0  0
    6.4802    0.2325    2.1502 C   0  0  0  0  0  0  0  0  0  0  0  0
    7.1219    0.5920    3.4929 C   0  0  0  0  0  0  0  0  0  0  0  0
    8.6488    0.4036    3.5016 C   0  0  0  0  0  0  0  0  0  0  0  0
    9.3485    0.7573    4.7266 N   0  0  0  0  0  0  0  0  0  0  0  0
    9.0816   -0.0602    5.8965 C   0  0  0  0  0  0  0  0  0  0  0  0
   10.0324    0.2414    7.0410 C   0  0  0  0  0  0  0  0  0  0  0  0
    9.6112    0.1262    8.3752 C   0  0  0  0  0  0  0  0  0  0  0  0
   10.4901    0.3529    9.4335 C   0  0  0  0  0  0  0  0  0  0  0  0
   11.8130    0.7185    9.1664 C   0  0  0  0  0  0  0  0  0  0  0  0
   12.6191    0.9529   10.2648 O   0  0  0  0  0  0  0  0  0  0  0  0
   13.9594    0.7154   10.1728 C   0  0  1  0  0  0  0  0  0  0  0  0
   14.6004    1.7629    9.5893 F   0  0  0  0  0  0  0  0  0  0  0  0
   14.4297    0.6040   11.4210 F   0  0  0  0  0  0  0  0  0  0  0  0
   12.2516    0.8652    7.8454 C   0  0  0  0  0  0  0  0  0  0  0  0
   11.3606    0.6153    6.7973 C   0  0  0  0  0  0  0  0  0  0  0  0
    0.5032    0.3940    0.1651 H   0  0  0  0  0  0  0  0  0  0  0  0
    2.3280   -0.3455    1.5173 H   0  0  0  0  0  0  0  0  0  0  0  0
    2.5566    1.3096    0.9564 H   0  0  0  0  0  0  0  0  0  0  0  0
    4.7888    0.6610   -0.0387 H   0  0  0  0  0  0  0  0  0  0  0  0
    4.5608   -0.9878    0.5156 H   0  0  0  0  0  0  0  0  0  0  0  0
    4.4972   -0.1780    2.9152 H   0  0  0  0  0  0  0  0  0  0  0  0
    4.7237    1.4798    2.3594 H   0  0  0  0  0  0  0  0  0  0  0  0
    6.9424    0.8385    1.3489 H   0  0  0  0  0  0  0  0  0  0  0  0
    6.7163   -0.8188    1.9017 H   0  0  0  0  0  0  0  0  0  0  0  0
    6.6639   -0.0190    4.2913 H   0  0  0  0  0  0  0  0  0  0  0  0
    6.8910    1.6449    3.7434 H   0  0  0  0  0  0  0  0  0  0  0  0
    9.0852    0.9984    2.6792 H   0  0  0  0  0  0  0  0  0  0  0  0
    8.8860   -0.6508    3.2685 H   0  0  0  0  0  0  0  0  0  0  0  0
    9.2266    1.7455    4.9462 H   0  0  0  0  0  0  0  0  0  0  0  0
    9.2108   -1.1173    5.5926 H   0  0  0  0  0  0  0  0  0  0  0  0
    8.0405    0.0101    6.2806 H   0  0  0  0  0  0  0  0  0  0  0  0
    8.5753   -0.1505    8.5929 H   0  0  0  0  0  0  0  0  0  0  0  0
   10.1690    0.2580   10.4725 H   0  0  0  0  0  0  0  0  0  0  0  0
   14.1936   -0.1969    9.5934 H   0  0  0  0  0  0  0  0  0  0  0  0
   13.2685    1.1973    7.6325 H   0  0  0  0  0  0  0  0  0  0  0  0
   11.6878    0.7320    5.7622 H   0  0  0  0  0  0  0  0  0  0  0  0
  1  2  2  0
  2  3  1  0
  2  4  1  0
  3 22  1  0
  4  5  1  0
  4 23  1  0
  4 24  1  0
  5  6  1  0
  5 25  1  0
  5 26  1  0
  6  7  1  0
  6 27  1  0
  6 28  1  0
  7  8  1  0
  7 29  1  0
  7 30  1  0
  8  9  1  0
  8 31  1  0
  8 32  1  0
  9 10  1  0
  9 33  1  0
  9 34  1  0
 10 11  1  0
 10 35  1  0
 11 12  1  0
 11 36  1  0
 11 37  1  0
 12 13  2  0
 12 21  1  0
 13 14  1  0
 13 38  1  0
 14 15  2  0
 14 39  1  0
 15 16  1  0
 15 20  1  0
 16 17  1  0
 17 18  1  0
 17 19  1  0
 17 40  1  6
 20 21  2  0
 20 41  1  0
 21 42  1  0
M  END

