
     RDKit          3D

 33 36  0  0  0  0  0  0  0  0999 V2000
    1.0712   -0.1965   -0.1531 N   0  0  0  0  0  0  0  0  0  0  0  0
    2.4382   -0.0024   -0.2363 C   0  0  0  0  0  0  0  0  0  0  0  0
    2.9077    1.1378   -0.6286 N   0  0  0  0  0  0  0  0  0  0  0  0
    4.3391    1.3391   -0.1830 N   0  0  1  0  0  0  0  0  0  0  0  0
    4.6170    2.1052   -0.8279 H   0  0  0  0  0  0  0  0  0  0  0  0
    4.4553    1.6450    1.0835 O   0  0  0  0  0  0  0  0  0  0  0  0
    5.1518    0.1536   -0.4929 C   0  0  0  0  0  0  0  0  0  0  0  0
    6.4824    0.2621   -0.8713 C   0  0  0  0  0  0  0  0  0  0  0  0
    7.2986   -0.8815   -0.9405 C   0  0  0  0  0  0  0  0  0  0  0  0
    8.7278   -0.7827   -1.3383 C   0  0  0  0  0  0  0  0  0  0  0  0
    9.5099    0.3176   -0.9440 C   0  0  0  0  0  0  0  0  0  0  0  0
   10.8648    0.4442   -1.3021 C   0  0  0  0  0  0  0  0  0  0  0  0
   11.4124   -0.5712   -2.0654 C   0  0  0  0  0  0  0  0  0  0  0  0
   10.6514   -1.6736   -2.4613 C   0  0  0  0  0  0  0  0  0  0  0  0
    9.3197   -1.8086   -2.1205 C   0  0  0  0  0  0  0  0  0  0  0  0
   11.4280   -2.5142   -3.2098 O   0  0  0  0  0  0  0  0  0  0  0  0
   12.7242   -1.9248   -3.2736 C   0  0  0  0  0  0  0  0  0  0  0  0
   12.6836   -0.6972   -2.5505 O   0  0  0  0  0  0  0  0  0  0  0  0
    6.7168   -2.1208   -0.6009 C   0  0  0  0  0  0  0  0  0  0  0  0
    5.3751   -2.2286   -0.2359 C   0  0  0  0  0  0  0  0  0  0  0  0
    4.5733   -1.0828   -0.1830 C   0  0  0  0  0  0  0  0  0  0  0  0
    3.2111   -1.0919    0.0957 N   0  0  0  0  0  0  0  0  0  0  0  0
    0.5502    0.6391   -0.4021 H   0  0  0  0  0  0  0  0  0  0  0  0
    0.7125   -1.0363   -0.6013 H   0  0  0  0  0  0  0  0  0  0  0  0
    6.8901    1.2486   -1.1050 H   0  0  0  0  0  0  0  0  0  0  0  0
    9.0641    1.0888   -0.3129 H   0  0  0  0  0  0  0  0  0  0  0  0
   11.4634    1.2990   -0.9839 H   0  0  0  0  0  0  0  0  0  0  0  0
    8.7437   -2.6661   -2.4700 H   0  0  0  0  0  0  0  0  0  0  0  0
   12.9925   -1.7275   -4.3277 H   0  0  0  0  0  0  0  0  0  0  0  0
   13.4657   -2.6038   -2.8136 H   0  0  0  0  0  0  0  0  0  0  0  0
    7.3329   -3.0222   -0.6094 H   0  0  0  0  0  0  0  0  0  0  0  0
    4.9469   -3.2050    0.0061 H   0  0  0  0  0  0  0  0  0  0  0  0
    2.7883   -1.8784    0.5728 H   0  0  0  0  0  0  0  0  0  0  0  0
  1  2  1  0
  1 23  1  0
  1 24  1  0
  2  3  2  0
  2 22  1  0
  3  4  1  0
  4  5  1  6
  4  6  1  0
  4  7  1  0
  7  8  1  0
  7 21  2  0
  8  9  2  0
  8 25  1  0
  9 10  1  0
  9 19  1  0
 10 11  2  0
 10 15  1  0
 11 12  1  0
 11 26  1  0
 12 13  2  0
 12 27  1  0
 13 14  1  0
 13 18  1  0
 14 15  2  0
 14 16  1  0
 15 28  1  0
 16 17  1  0
 17 18  1  0
 17 29  1  0
 17 30  1  0
 19 20  2  0
 19 31  1  0
 20 21  1  0
 20 32  1  0
 21 22  1  0
 22 33  1  0
M  CHG  2   4   1   6  -1
M  END

