
     RDKit          3D

 34 34  0  0  0  0  0  0  0  0999 V2000
    1.1364    0.4479   -0.7394 C   0  0  0  0  0  0  0  0  0  0  0  0
    2.2607    0.1233    0.0526 O   0  0  0  0  0  0  0  0  0  0  0  0
    2.9219    1.1096    0.7445 C   0  0  0  0  0  0  0  0  0  0  0  0
    2.6031    2.4637    0.5759 C   0  0  0  0  0  0  0  0  0  0  0  0
    3.3237    3.4546    1.2510 C   0  0  0  0  0  0  0  0  0  0  0  0
    2.9857    4.9163    1.0825 C   0  0  0  0  0  0  0  0  0  0  0  0
    4.3736    3.0543    2.0832 C   0  0  0  0  0  0  0  0  0  0  0  0
    4.7026    1.7043    2.2707 C   0  0  0  0  0  0  0  0  0  0  0  0
    5.8669    1.3614    3.1753 C   0  0  0  0  0  0  0  0  0  0  0  0
    3.9554    0.6951    1.6161 C   0  0  0  0  0  0  0  0  0  0  0  0
    4.3027   -0.7770    1.8514 C   0  0  1  0  0  0  0  0  0  0  0  0
    3.1194   -1.7053    2.1916 C   0  0  0  0  0  0  0  0  0  0  0  0
    5.2057   -1.3377    0.7333 C   0  0  0  0  0  0  0  0  0  0  0  0
    6.3920   -1.5738    0.9140 O   0  0  0  0  0  0  0  0  0  0  0  0
    4.6002   -1.5511   -0.4695 N   0  0  0  0  0  0  0  0  0  0  0  0
    5.3260   -1.9509   -1.5983 N   0  0  0  0  0  0  0  0  0  0  0  0
    0.7499   -0.5016   -1.1343 H   0  0  0  0  0  0  0  0  0  0  0  0
    1.4038    1.1041   -1.5860 H   0  0  0  0  0  0  0  0  0  0  0  0
    0.3472    0.9364   -0.1422 H   0  0  0  0  0  0  0  0  0  0  0  0
    1.7962    2.7606   -0.0939 H   0  0  0  0  0  0  0  0  0  0  0  0
    2.1845    5.0677    0.3439 H   0  0  0  0  0  0  0  0  0  0  0  0
    3.8641    5.4944    0.7511 H   0  0  0  0  0  0  0  0  0  0  0  0
    2.6514    5.3606    2.0353 H   0  0  0  0  0  0  0  0  0  0  0  0
    4.9610    3.8156    2.6046 H   0  0  0  0  0  0  0  0  0  0  0  0
    6.3845    2.2745    3.5026 H   0  0  0  0  0  0  0  0  0  0  0  0
    6.5991    0.7138    2.6689 H   0  0  0  0  0  0  0  0  0  0  0  0
    5.5379    0.8263    4.0826 H   0  0  0  0  0  0  0  0  0  0  0  0
    4.9706   -0.8095    2.7177 H   0  0  0  0  0  0  0  0  0  0  0  0
    2.4215   -1.8385    1.3571 H   0  0  0  0  0  0  0  0  0  0  0  0
    2.5521   -1.2957    3.0426 H   0  0  0  0  0  0  0  0  0  0  0  0
    3.5000   -2.6960    2.4869 H   0  0  0  0  0  0  0  0  0  0  0  0
    3.6716   -1.1724   -0.6347 H   0  0  0  0  0  0  0  0  0  0  0  0
    5.6218   -2.9204   -1.4576 H   0  0  0  0  0  0  0  0  0  0  0  0
    6.2001   -1.4169   -1.6123 H   0  0  0  0  0  0  0  0  0  0  0  0
  1  2  1  0
  1 17  1  0
  1 18  1  0
  1 19  1  0
  2  3  1  0
  3  4  2  0
  3 10  1  0
  4  5  1  0
  4 20  1  0
  5  6  1  0
  5  7  2  0
  6 21  1  0
  6 22  1  0
  6 23  1  0
  7  8  1  0
  7 24  1  0
  8  9  1  0
  8 10  2  0
  9 25  1  0
  9 26  1  0
  9 27  1  0
 10 11  1  0
 11 12  1  0
 11 13  1  0
 11 28  1  1
 12 29  1  0
 12 30  1  0
 12 31  1  0
 13 14  2  0
 13 15  1  0
 15 16  1  0
 15 32  1  0
 16 33  1  0
 16 34  1  0
M  END

