
     RDKit          3D

 41 43  0  0  0  0  0  0  0  0999 V2000
    2.8323   -2.2554    1.6046 C   0  0  0  0  0  0  0  0  0  0  0  0
    3.6008   -1.3176    0.7440 C   0  0  0  0  0  0  0  0  0  0  0  0
    4.6601   -0.6211    1.0344 N   0  0  0  0  0  0  0  0  0  0  0  0
    4.9122    0.0587   -0.1394 C   0  0  0  0  0  0  0  0  0  0  0  0
    6.0642    1.0192   -0.3416 C   0  0  0  0  0  0  0  0  0  0  0  0
    7.3983    0.4665   -0.4285 N   0  0  0  0  0  0  0  0  0  0  0  0
    8.1163    0.1031    0.7844 C   0  0  0  0  0  0  0  0  0  0  0  0
    8.0073   -1.3897    1.1340 C   0  0  0  0  0  0  0  0  0  0  0  0
    8.3480   -2.2261   -0.0320 N   0  0  0  0  0  0  0  0  0  0  0  0
    9.9337   -2.7778   -0.1685 S   0  0  1  0  0  0  0  0  0  0  0  0
   10.2527   -2.8876   -1.5989 O   0  0  0  0  0  0  0  0  0  0  0  0
   10.7983   -2.0115    0.7396 O   0  0  0  0  0  0  0  0  0  0  0  0
    9.8661   -4.4559    0.5206 C   0  0  1  0  0  0  0  0  0  0  0  0
    9.1116   -5.4766   -0.3312 C   0  0  0  0  0  0  0  0  0  0  0  0
    9.7326   -6.7868    0.1650 C   0  0  0  0  0  0  0  0  0  0  0  0
   11.0765   -6.4812    0.5151 O   0  0  0  0  0  0  0  0  0  0  0  0
   11.2728   -5.0786    0.6137 C   0  0  0  0  0  0  0  0  0  0  0  0
    7.6098   -1.8801   -1.2582 C   0  0  0  0  0  0  0  0  0  0  0  0
    7.7272   -0.3789   -1.5662 C   0  0  0  0  0  0  0  0  0  0  0  0
    4.0604   -0.2072   -1.0968 N   0  0  0  0  0  0  0  0  0  0  0  0
    3.1847   -1.1227   -0.5153 O   0  0  0  0  0  0  0  0  0  0  0  0
    3.2783   -2.2786    2.6061 H   0  0  0  0  0  0  0  0  0  0  0  0
    2.8413   -3.2702    1.1766 H   0  0  0  0  0  0  0  0  0  0  0  0
    1.7808   -1.9374    1.6793 H   0  0  0  0  0  0  0  0  0  0  0  0
    6.0438    1.7411    0.4911 H   0  0  0  0  0  0  0  0  0  0  0  0
    5.8462    1.5807   -1.2649 H   0  0  0  0  0  0  0  0  0  0  0  0
    7.7493    0.7129    1.6247 H   0  0  0  0  0  0  0  0  0  0  0  0
    9.1890    0.3342    0.6458 H   0  0  0  0  0  0  0  0  0  0  0  0
    6.9769   -1.6357    1.4368 H   0  0  0  0  0  0  0  0  0  0  0  0
    8.6836   -1.6351    1.9640 H   0  0  0  0  0  0  0  0  0  0  0  0
    9.4143   -4.3364    1.5174 H   0  0  0  0  0  0  0  0  0  0  0  0
    9.3521   -5.3070   -1.3923 H   0  0  0  0  0  0  0  0  0  0  0  0
    8.0209   -5.4315   -0.2027 H   0  0  0  0  0  0  0  0  0  0  0  0
    9.7292   -7.5772   -0.6036 H   0  0  0  0  0  0  0  0  0  0  0  0
    9.1881   -7.1742    1.0491 H   0  0  0  0  0  0  0  0  0  0  0  0
   11.9079   -4.7218   -0.2181 H   0  0  0  0  0  0  0  0  0  0  0  0
   11.7752   -4.8299    1.5614 H   0  0  0  0  0  0  0  0  0  0  0  0
    6.5553   -2.1647   -1.1010 H   0  0  0  0  0  0  0  0  0  0  0  0
    8.0031   -2.4755   -2.0917 H   0  0  0  0  0  0  0  0  0  0  0  0
    7.0792   -0.1183   -2.4180 H   0  0  0  0  0  0  0  0  0  0  0  0
    8.7722   -0.1805   -1.8721 H   0  0  0  0  0  0  0  0  0  0  0  0
  1  2  1  0
  1 22  1  0
  1 23  1  0
  1 24  1  0
  2  3  2  0
  2 21  1  0
  3  4  1  0
  4  5  1  0
  4 20  2  0
  5  6  1  0
  5 25  1  0
  5 26  1  0
  6  7  1  0
  6 19  1  0
  7  8  1  0
  7 27  1  0
  7 28  1  0
  8  9  1  0
  8 29  1  0
  8 30  1  0
 10  9  1  6
  9 18  1  0
 10 11  2  0
 10 12  2  0
 10 13  1  0
 13 14  1  0
 13 17  1  0
 13 31  1  1
 14 15  1  0
 14 32  1  0
 14 33  1  0
 15 16  1  0
 15 34  1  0
 15 35  1  0
 16 17  1  0
 17 36  1  0
 17 37  1  0
 18 19  1  0
 18 38  1  0
 18 39  1  0
 19 40  1  0
 19 41  1  0
 20 21  1  0
M  END

