
     RDKit          3D

 72 81  0  0  0  0  0  0  0  0999 V2000
    1.1147    2.0659   -1.3523 C   0  0  0  0  0  0  0  0  0  0  0  0
    1.5047    0.6084   -1.0536 C   0  0  0  0  0  0  0  0  0  0  0  0
    2.5120    0.0328   -2.0123 C   0  0  0  0  0  0  0  0  0  0  0  0
    3.9086    0.0756   -1.8856 C   0  0  0  0  0  0  0  0  0  0  0  0
    4.6927    0.6845   -0.7637 C   0  0  0  0  0  0  0  0  0  0  0  0
    4.4423   -0.5439   -3.0482 C   0  0  0  0  0  0  0  0  0  0  0  0
    5.7799   -0.6715   -3.4518 C   0  0  0  0  0  0  0  0  0  0  0  0
    6.1159   -1.1796   -4.6966 C   0  0  0  0  0  0  0  0  0  0  0  0
    7.3334   -1.2013   -5.4664 C   0  0  0  0  0  0  0  0  0  0  0  0
    8.6629   -0.8699   -5.1548 C   0  0  0  0  0  0  0  0  0  0  0  0
    9.6219   -0.9534   -6.1574 C   0  0  0  0  0  0  0  0  0  0  0  0
    9.2728   -1.3444   -7.4693 C   0  0  0  0  0  0  0  0  0  0  0  0
    7.9608   -1.6668   -7.7960 C   0  0  0  0  0  0  0  0  0  0  0  0
    6.9767   -1.6132   -6.7897 C   0  0  0  0  0  0  0  0  0  0  0  0
    5.5462   -1.8515   -6.7733 C   0  0  0  0  0  0  0  0  0  0  0  0
    5.1017   -1.6264   -5.5283 N   0  0  0  0  0  0  0  0  0  0  0  0
    3.6103   -1.8855   -5.1158 B   0  0  2  0  0  0  0  0  0  0  0  0
    3.4024   -3.4752   -4.7182 C   0  0  0  0  0  0  0  0  0  0  0  0
    4.4372   -4.0565   -3.9570 C   0  0  0  0  0  0  0  0  0  0  0  0
    4.4140   -5.3720   -3.5065 C   0  0  0  0  0  0  0  0  0  0  0  0
    3.3271   -6.2094   -3.7982 C   0  0  0  0  0  0  0  0  0  0  0  0
    3.2753   -7.5754   -3.3518 C   0  0  0  0  0  0  0  0  0  0  0  0
    2.2114   -8.3766   -3.6417 C   0  0  0  0  0  0  0  0  0  0  0  0
    1.0990   -7.8804   -4.4062 C   0  0  0  0  0  0  0  0  0  0  0  0
   -0.0107   -8.6889   -4.7153 C   0  0  0  0  0  0  0  0  0  0  0  0
   -1.0800   -8.1852   -5.4571 C   0  0  0  0  0  0  0  0  0  0  0  0
   -1.0656   -6.8642   -5.9060 C   0  0  0  0  0  0  0  0  0  0  0  0
    0.0230   -6.0194   -5.6212 C   0  0  0  0  0  0  0  0  0  0  0  0
    0.0760   -4.6549   -6.0624 C   0  0  0  0  0  0  0  0  0  0  0  0
    1.1411   -3.8506   -5.7799 C   0  0  0  0  0  0  0  0  0  0  0  0
    2.2827   -4.3086   -5.0200 C   0  0  0  0  0  0  0  0  0  0  0  0
    2.2443   -5.6756   -4.5634 C   0  0  0  0  0  0  0  0  0  0  0  0
    1.1262   -6.5221   -4.8633 C   0  0  0  0  0  0  0  0  0  0  0  0
    2.8244   -1.4127   -6.2743 O   0  0  0  0  0  0  0  0  0  0  0  0
    3.2101   -1.7573   -7.5101 C   0  0  0  0  0  0  0  0  0  0  0  0
    2.2599   -1.7526   -8.5458 C   0  0  0  0  0  0  0  0  0  0  0  0
    2.6129   -2.1501   -9.8321 C   0  0  0  0  0  0  0  0  0  0  0  0
    3.9256   -2.5539  -10.1216 C   0  0  0  0  0  0  0  0  0  0  0  0
    4.8887   -2.5151   -9.1206 C   0  0  0  0  0  0  0  0  0  0  0  0
    4.5658   -2.0987   -7.8119 C   0  0  0  0  0  0  0  0  0  0  0  0
    3.3820   -0.9650   -3.8609 N   0  0  0  0  0  0  0  0  0  0  0  0
    2.2268   -0.6212   -3.2397 C   0  0  0  0  0  0  0  0  0  0  0  0
    0.8803   -0.9162   -3.8117 C   0  0  0  0  0  0  0  0  0  0  0  0
    0.3859    2.4418   -0.6156 H   0  0  0  0  0  0  0  0  0  0  0  0
    0.6641    2.1613   -2.3532 H   0  0  0  0  0  0  0  0  0  0  0  0
    1.9947    2.7283   -1.3256 H   0  0  0  0  0  0  0  0  0  0  0  0
    0.5952   -0.0153   -1.0475 H   0  0  0  0  0  0  0  0  0  0  0  0
    1.9092    0.5480   -0.0290 H   0  0  0  0  0  0  0  0  0  0  0  0
    4.6362    1.7870   -0.7751 H   0  0  0  0  0  0  0  0  0  0  0  0
    5.7568    0.4098   -0.8026 H   0  0  0  0  0  0  0  0  0  0  0  0
    4.3058    0.3575    0.2155 H   0  0  0  0  0  0  0  0  0  0  0  0
    6.5665   -0.2963   -2.7956 H   0  0  0  0  0  0  0  0  0  0  0  0
    8.9405   -0.5545   -4.1460 H   0  0  0  0  0  0  0  0  0  0  0  0
   10.6626   -0.7073   -5.9317 H   0  0  0  0  0  0  0  0  0  0  0  0
   10.0467   -1.3890   -8.2392 H   0  0  0  0  0  0  0  0  0  0  0  0
    7.7114   -1.9481   -8.8192 H   0  0  0  0  0  0  0  0  0  0  0  0
    5.3133   -3.4567   -3.7019 H   0  0  0  0  0  0  0  0  0  0  0  0
    5.2502   -5.7659   -2.9215 H   0  0  0  0  0  0  0  0  0  0  0  0
    4.1168   -7.9606   -2.7690 H   0  0  0  0  0  0  0  0  0  0  0  0
    2.1853   -9.4137   -3.2961 H   0  0  0  0  0  0  0  0  0  0  0  0
   -0.0253   -9.7245   -4.3644 H   0  0  0  0  0  0  0  0  0  0  0  0
   -1.9330   -8.8290   -5.6872 H   0  0  0  0  0  0  0  0  0  0  0  0
   -1.9047   -6.4709   -6.4865 H   0  0  0  0  0  0  0  0  0  0  0  0
   -0.7653   -4.2635   -6.6417 H   0  0  0  0  0  0  0  0  0  0  0  0
    1.1389   -2.8243   -6.1341 H   0  0  0  0  0  0  0  0  0  0  0  0
    1.2387   -1.4481   -8.3093 H   0  0  0  0  0  0  0  0  0  0  0  0
    1.8534   -2.1602  -10.6183 H   0  0  0  0  0  0  0  0  0  0  0  0
    4.1914   -2.8891  -11.1262 H   0  0  0  0  0  0  0  0  0  0  0  0
    5.9103   -2.8225   -9.3451 H   0  0  0  0  0  0  0  0  0  0  0  0
    0.8018   -0.5448   -4.8442 H   0  0  0  0  0  0  0  0  0  0  0  0
    0.0900   -0.4511   -3.2084 H   0  0  0  0  0  0  0  0  0  0  0  0
    0.6887   -2.0008   -3.8459 H   0  0  0  0  0  0  0  0  0  0  0  0
  1  2  1  0
  1 44  1  0
  1 45  1  0
  1 46  1  0
  2  3  1  0
  2 47  1  0
  2 48  1  0
  3  4  2  0
  3 42  1  0
  4  5  1  0
  4  6  1  0
  5 49  1  0
  5 50  1  0
  5 51  1  0
  6  7  2  0
  6 41  1  0
  7  8  1  0
  7 52  1  0
  8  9  2  0
  8 16  1  0
  9 10  1  0
  9 14  1  0
 10 11  2  0
 10 53  1  0
 11 12  1  0
 11 54  1  0
 12 13  2  0
 12 55  1  0
 13 14  1  0
 13 56  1  0
 14 15  2  0
 15 16  1  0
 15 40  1  0
 16 17  1  0
 17 18  1  1
 17 34  1  0
 17 41  1  0
 18 19  2  0
 18 31  1  0
 19 20  1  0
 19 57  1  0
 20 21  2  0
 20 58  1  0
 21 22  1  0
 21 32  1  0
 22 23  2  0
 22 59  1  0
 23 24  1  0
 23 60  1  0
 24 25  2  0
 24 33  1  0
 25 26  1  0
 25 61  1  0
 26 27  2  0
 26 62  1  0
 27 28  1  0
 27 63  1  0
 28 29  2  0
 28 33  1  0
 29 30  1  0
 29 64  1  0
 30 31  2  0
 30 65  1  0
 31 32  1  0
 32 33  2  0
 34 35  1  0
 35 36  1  0
 35 40  2  0
 36 37  2  0
 36 66  1  0
 37 38  1  0
 37 67  1  0
 38 39  2  0
 38 68  1  0
 39 40  1  0
 39 69  1  0
 41 42  2  0
 42 43  1  0
 43 70  1  0
 43 71  1  0
 43 72  1  0
M  CHG  2  17  -1  41   1
M  END

