
     RDKit          3D

 37 38  0  0  0  0  0  0  0  0999 V2000
    3.1172    0.0091    1.1318 C   0  0  0  0  0  0  0  0  0  0  0  0
    2.1151    0.0036   -0.0379 C   0  0  1  0  0  0  0  0  0  0  0  0
    1.4126    1.3555   -0.1989 C   0  0  0  0  0  0  0  0  0  0  0  0
    2.7787   -0.4246   -1.3152 C   0  0  0  0  0  0  0  0  0  0  0  0
    2.9723    0.1630   -2.5342 C   0  0  0  0  0  0  0  0  0  0  0  0
    3.6986   -0.8193   -3.2780 C   0  0  0  0  0  0  0  0  0  0  0  0
    4.1468   -0.7538   -4.7217 C   0  0  1  0  0  0  0  0  0  0  0  0
    2.9333   -1.0005   -5.6313 C   0  0  0  0  0  0  0  0  0  0  0  0
    4.7914    0.5461   -4.9609 N   0  0  0  0  0  0  0  0  0  0  0  0
    6.0446    0.7368   -4.2228 C   0  0  0  0  0  0  0  0  0  0  0  0
    7.2533    0.0807   -4.9042 C   0  0  0  0  0  0  0  0  0  0  0  0
    7.3665    0.5812   -6.2702 N   0  0  0  0  0  0  0  0  0  0  0  0
    6.1602    0.3322   -7.0505 C   0  0  0  0  0  0  0  0  0  0  0  0
    4.9677    0.9902   -6.3436 C   0  0  0  0  0  0  0  0  0  0  0  0
    3.9246   -1.8932   -2.5586 N   0  0  0  0  0  0  0  0  0  0  0  0
    3.3432   -1.6501   -1.3235 O   0  0  0  0  0  0  0  0  0  0  0  0
    2.6034    0.2454    2.0770 H   0  0  0  0  0  0  0  0  0  0  0  0
    3.9020    0.7661    0.9704 H   0  0  0  0  0  0  0  0  0  0  0  0
    3.6053   -0.9705    1.2391 H   0  0  0  0  0  0  0  0  0  0  0  0
    1.3488   -0.7615    0.1870 H   0  0  0  0  0  0  0  0  0  0  0  0
    2.1377    2.1554   -0.4216 H   0  0  0  0  0  0  0  0  0  0  0  0
    0.8889    1.6288    0.7300 H   0  0  0  0  0  0  0  0  0  0  0  0
    0.6706    1.3339   -1.0120 H   0  0  0  0  0  0  0  0  0  0  0  0
    2.6643    1.1476   -2.8709 H   0  0  0  0  0  0  0  0  0  0  0  0
    4.8378   -1.6108   -4.8622 H   0  0  0  0  0  0  0  0  0  0  0  0
    2.2222   -0.1606   -5.5809 H   0  0  0  0  0  0  0  0  0  0  0  0
    2.4147   -1.9128   -5.3030 H   0  0  0  0  0  0  0  0  0  0  0  0
    3.2287   -1.1474   -6.6806 H   0  0  0  0  0  0  0  0  0  0  0  0
    5.9317    0.3527   -3.1982 H   0  0  0  0  0  0  0  0  0  0  0  0
    6.2366    1.8221   -4.1518 H   0  0  0  0  0  0  0  0  0  0  0  0
    7.1462   -1.0274   -4.8566 H   0  0  0  0  0  0  0  0  0  0  0  0
    8.1700    0.3361   -4.3466 H   0  0  0  0  0  0  0  0  0  0  0  0
    8.1841    0.1883   -6.7318 H   0  0  0  0  0  0  0  0  0  0  0  0
    5.9501   -0.7542   -7.1935 H   0  0  0  0  0  0  0  0  0  0  0  0
    6.2807    0.7707   -8.0556 H   0  0  0  0  0  0  0  0  0  0  0  0
    4.0443    0.8377   -6.9178 H   0  0  0  0  0  0  0  0  0  0  0  0
    5.1536    2.0787   -6.3168 H   0  0  0  0  0  0  0  0  0  0  0  0
  1  2  1  0
  1 17  1  0
  1 18  1  0
  1 19  1  0
  2  3  1  0
  2  4  1  0
  2 20  1  1
  3 21  1  0
  3 22  1  0
  3 23  1  0
  4  5  2  0
  4 16  1  0
  5  6  1  0
  5 24  1  0
  6  7  1  0
  6 15  2  0
  7  8  1  0
  7  9  1  0
  7 25  1  1
  8 26  1  0
  8 27  1  0
  8 28  1  0
  9 10  1  0
  9 14  1  0
 10 11  1  0
 10 29  1  0
 10 30  1  0
 11 12  1  0
 11 31  1  0
 11 32  1  0
 12 13  1  0
 12 33  1  0
 13 14  1  0
 13 34  1  0
 13 35  1  0
 14 36  1  0
 14 37  1  0
 15 16  1  0
M  END

