
     RDKit          3D

 41 43  0  0  0  0  0  0  0  0999 V2000
    1.6505   -0.9594    1.8440 C   0  0  0  0  0  0  0  0  0  0  0  0
    2.9268   -0.5084    1.1795 C   0  0  0  0  0  0  0  0  0  0  0  0
    4.0843   -0.2458    1.9304 C   0  0  0  0  0  0  0  0  0  0  0  0
    5.2633    0.1803    1.3166 C   0  0  0  0  0  0  0  0  0  0  0  0
    5.2772    0.3446   -0.0697 C   0  0  0  0  0  0  0  0  0  0  0  0
    6.7799    0.8813   -0.8613 S   0  0  1  0  0  0  0  0  0  0  0  0
    6.4448    1.5259   -2.1362 O   0  0  0  0  0  0  0  0  0  0  0  0
    7.6649    1.5135    0.1146 O   0  0  0  0  0  0  0  0  0  0  0  0
    7.5709   -0.7032   -1.1579 N   0  0  0  0  0  0  0  0  0  0  0  0
    6.9603   -1.3392   -2.3222 O   0  0  0  0  0  0  0  0  0  0  0  0
    8.2348   -0.7561   -2.4452 C   0  0  2  0  0  0  0  0  0  0  0  0
    8.2435    0.1755   -3.0271 H   0  0  0  0  0  0  0  0  0  0  0  0
    9.4217   -1.6371   -2.6032 C   0  0  0  0  0  0  0  0  0  0  0  0
    9.4453   -2.9265   -2.0543 C   0  0  0  0  0  0  0  0  0  0  0  0
   10.5726   -3.7316   -2.2116 C   0  0  0  0  0  0  0  0  0  0  0  0
   11.7034   -3.2816   -2.9148 C   0  0  0  0  0  0  0  0  0  0  0  0
   12.9261   -4.1758   -3.0747 C   0  0  1  0  0  0  0  0  0  0  0  0
   13.1983   -4.5189   -4.5497 C   0  0  0  0  0  0  0  0  0  0  0  0
   14.1711   -3.5725   -2.4013 C   0  0  0  0  0  0  0  0  0  0  0  0
   11.6645   -1.9889   -3.4630 C   0  0  0  0  0  0  0  0  0  0  0  0
   10.5389   -1.1778   -3.3124 C   0  0  0  0  0  0  0  0  0  0  0  0
    4.1420    0.0969   -0.8485 C   0  0  0  0  0  0  0  0  0  0  0  0
    2.9766   -0.3299   -0.2154 C   0  0  0  0  0  0  0  0  0  0  0  0
    1.7968   -1.1546    2.9161 H   0  0  0  0  0  0  0  0  0  0  0  0
    1.2629   -1.8800    1.3783 H   0  0  0  0  0  0  0  0  0  0  0  0
    0.8626   -0.1936    1.7454 H   0  0  0  0  0  0  0  0  0  0  0  0
    4.0626   -0.3749    3.0157 H   0  0  0  0  0  0  0  0  0  0  0  0
    6.1622    0.3927    1.8980 H   0  0  0  0  0  0  0  0  0  0  0  0
    8.5733   -3.2916   -1.5081 H   0  0  0  0  0  0  0  0  0  0  0  0
   10.5787   -4.7361   -1.7787 H   0  0  0  0  0  0  0  0  0  0  0  0
   12.6967   -5.1218   -2.5543 H   0  0  0  0  0  0  0  0  0  0  0  0
   13.4538   -3.6185   -5.1323 H   0  0  0  0  0  0  0  0  0  0  0  0
   12.3193   -4.9845   -5.0223 H   0  0  0  0  0  0  0  0  0  0  0  0
   14.0439   -5.2206   -4.6362 H   0  0  0  0  0  0  0  0  0  0  0  0
   14.4721   -2.6279   -2.8834 H   0  0  0  0  0  0  0  0  0  0  0  0
   15.0248   -4.2663   -2.4696 H   0  0  0  0  0  0  0  0  0  0  0  0
   13.9882   -3.3605   -1.3363 H   0  0  0  0  0  0  0  0  0  0  0  0
   12.5236   -1.6053   -4.0193 H   0  0  0  0  0  0  0  0  0  0  0  0
   10.5287   -0.1757   -3.7506 H   0  0  0  0  0  0  0  0  0  0  0  0
    4.1817    0.2433   -1.9288 H   0  0  0  0  0  0  0  0  0  0  0  0
    2.0838   -0.5268   -0.8154 H   0  0  0  0  0  0  0  0  0  0  0  0
  1  2  1  0
  1 24  1  0
  1 25  1  0
  1 26  1  0
  2  3  2  0
  2 23  1  0
  3  4  1  0
  3 27  1  0
  4  5  2  0
  4 28  1  0
  6  5  1  1
  5 22  1  0
  6  7  2  0
  6  8  2  0
  6  9  1  0
  9 10  1  0
  9 11  1  0
 10 11  1  0
 11 12  1  6
 11 13  1  0
 13 14  2  0
 13 21  1  0
 14 15  1  0
 14 29  1  0
 15 16  2  0
 15 30  1  0
 16 17  1  0
 16 20  1  0
 17 18  1  0
 17 19  1  0
 17 31  1  1
 18 32  1  0
 18 33  1  0
 18 34  1  0
 19 35  1  0
 19 36  1  0
 19 37  1  0
 20 21  2  0
 20 38  1  0
 21 39  1  0
 22 23  2  0
 22 40  1  0
 23 41  1  0
M  END

