
     RDKit          3D

 40 40  0  0  0  0  0  0  0  0999 V2000
    5.7460   -0.3573    1.7654 C   0  0  0  0  0  0  0  0  0  0  0  0
    4.6498   -0.5712    0.7276 C   0  0  0  0  0  0  0  0  0  0  0  0
    5.1820   -0.5081   -0.6253 N   0  0  0  0  0  0  0  0  0  0  0  0
    4.1801   -0.7157   -1.6643 C   0  0  0  0  0  0  0  0  0  0  0  0
    4.7991   -0.6796   -3.0450 C   0  0  0  0  0  0  0  0  0  0  0  0
    4.8491    0.5422   -3.7398 C   0  0  0  0  0  0  0  0  0  0  0  0
    5.4360    0.6441   -5.0082 C   0  0  0  0  0  0  0  0  0  0  0  0
    5.5038    1.7782   -5.7499 O   0  0  0  0  0  0  0  0  0  0  0  0
    5.0683    3.0465   -5.2384 C   0  0  1  0  0  0  0  0  0  0  0  0
    6.1140    3.6369   -4.2947 C   0  0  0  0  0  0  0  0  0  0  0  0
    4.8104    3.9367   -6.4510 C   0  0  0  0  0  0  0  0  0  0  0  0
    3.7308    3.4122   -7.3869 C   0  0  0  0  0  0  0  0  0  0  0  0
    3.5372    4.3526   -8.4153 O   0  0  0  0  0  0  0  0  0  0  0  0
    2.5899    3.9609   -9.3703 C   0  0  0  0  0  0  0  0  0  0  0  0
    5.9920   -0.5061   -5.5962 C   0  0  0  0  0  0  0  0  0  0  0  0
    5.9613   -1.7204   -4.9215 C   0  0  0  0  0  0  0  0  0  0  0  0
    5.3739   -1.8041   -3.6531 C   0  0  0  0  0  0  0  0  0  0  0  0
    5.3992   -3.5074   -2.7672 Br  0  0  0  0  0  0  0  0  0  0  0  0
    5.3324   -0.3655    2.7861 H   0  0  0  0  0  0  0  0  0  0  0  0
    6.2549    0.6049    1.5993 H   0  0  0  0  0  0  0  0  0  0  0  0
    6.5069   -1.1546    1.7099 H   0  0  0  0  0  0  0  0  0  0  0  0
    3.8849    0.2205    0.8300 H   0  0  0  0  0  0  0  0  0  0  0  0
    4.1193   -1.5295    0.9368 H   0  0  0  0  0  0  0  0  0  0  0  0
    5.9224   -1.2026   -0.7335 H   0  0  0  0  0  0  0  0  0  0  0  0
    3.4357    0.0953   -1.5874 H   0  0  0  0  0  0  0  0  0  0  0  0
    3.6186   -1.6667   -1.5412 H   0  0  0  0  0  0  0  0  0  0  0  0
    4.4189    1.4165   -3.2516 H   0  0  0  0  0  0  0  0  0  0  0  0
    4.1139    2.9036   -4.6981 H   0  0  0  0  0  0  0  0  0  0  0  0
    7.0605    3.7997   -4.8333 H   0  0  0  0  0  0  0  0  0  0  0  0
    6.3144    2.9707   -3.4429 H   0  0  0  0  0  0  0  0  0  0  0  0
    5.7696    4.6046   -3.8978 H   0  0  0  0  0  0  0  0  0  0  0  0
    5.7479    4.0622   -7.0179 H   0  0  0  0  0  0  0  0  0  0  0  0
    4.5131    4.9376   -6.0975 H   0  0  0  0  0  0  0  0  0  0  0  0
    2.7840    3.2470   -6.8261 H   0  0  0  0  0  0  0  0  0  0  0  0
    4.0316    2.4293   -7.8012 H   0  0  0  0  0  0  0  0  0  0  0  0
    2.5220    4.7574  -10.1261 H   0  0  0  0  0  0  0  0  0  0  0  0
    1.5841    3.8128   -8.9249 H   0  0  0  0  0  0  0  0  0  0  0  0
    2.8752    3.0165   -9.8781 H   0  0  0  0  0  0  0  0  0  0  0  0
    6.4450   -0.4222   -6.5859 H   0  0  0  0  0  0  0  0  0  0  0  0
    6.3976   -2.6107   -5.3775 H   0  0  0  0  0  0  0  0  0  0  0  0
  1  2  1  0
  1 19  1  0
  1 20  1  0
  1 21  1  0
  2  3  1  0
  2 22  1  0
  2 23  1  0
  3  4  1  0
  3 24  1  0
  4  5  1  0
  4 25  1  0
  4 26  1  0
  5  6  2  0
  5 17  1  0
  6  7  1  0
  6 27  1  0
  7  8  1  0
  7 15  2  0
  8  9  1  0
  9 10  1  0
  9 11  1  0
  9 28  1  1
 10 29  1  0
 10 30  1  0
 10 31  1  0
 11 12  1  0
 11 32  1  0
 11 33  1  0
 12 13  1  0
 12 34  1  0
 12 35  1  0
 13 14  1  0
 14 36  1  0
 14 37  1  0
 14 38  1  0
 15 16  1  0
 15 39  1  0
 16 17  2  0
 16 40  1  0
 17 18  1  0
M  END

