
     RDKit          3D

 44 46  0  0  0  0  0  0  0  0999 V2000
    1.4719    0.8583   -0.7640 C   0  0  0  0  0  0  0  0  0  0  0  0
    2.9215    0.5352   -0.4957 C   0  0  0  0  0  0  0  0  0  0  0  0
    3.8383    1.5190   -0.1013 C   0  0  0  0  0  0  0  0  0  0  0  0
    5.1752    1.2026    0.1503 C   0  0  0  0  0  0  0  0  0  0  0  0
    5.6608   -0.1059    0.0239 C   0  0  0  0  0  0  0  0  0  0  0  0
    7.1079   -0.4323    0.2874 C   0  0  0  0  0  0  0  0  0  0  0  0
    4.7332   -1.0849   -0.3769 C   0  0  0  0  0  0  0  0  0  0  0  0
    5.1440   -2.4583   -0.5265 N   0  0  0  0  0  0  0  0  0  0  0  0
    5.9394   -2.8518   -1.6108 C   0  0  0  0  0  0  0  0  0  0  0  0
    6.4265   -2.1175   -2.4240 O   0  0  0  0  0  0  0  0  0  0  0  0
    6.1757   -4.6384   -1.6028 S   0  0  0  0  0  0  0  0  0  0  0  0
    5.0957   -4.8555   -0.1387 C   0  0  2  0  0  0  0  0  0  0  0  0
    3.9182   -5.8123   -0.3481 C   0  0  0  0  0  0  0  0  0  0  0  0
    2.9718   -5.3625   -1.4610 C   0  0  0  0  0  0  0  0  0  0  0  0
    2.7822   -4.1804   -1.6974 O   0  0  0  0  0  0  0  0  0  0  0  0
    2.3431   -6.3902   -2.1098 N   0  0  0  0  0  0  0  0  0  0  0  0
    1.3661   -6.3294   -3.1182 C   0  0  0  0  0  0  0  0  0  0  0  0
    0.8713   -5.1437   -3.6756 C   0  0  0  0  0  0  0  0  0  0  0  0
   -0.1037   -5.2097   -4.6765 C   0  0  0  0  0  0  0  0  0  0  0  0
   -0.7149   -3.7206   -5.3634 Cl  0  0  0  0  0  0  0  0  0  0  0  0
   -0.5951   -6.4309   -5.1359 C   0  0  0  0  0  0  0  0  0  0  0  0
   -0.0975   -7.6135   -4.5786 C   0  0  0  0  0  0  0  0  0  0  0  0
    0.8725   -7.5726   -3.5800 C   0  0  0  0  0  0  0  0  0  0  0  0
    1.4016   -8.6871   -2.9918 O   0  0  0  0  0  0  0  0  0  0  0  0
    4.6246   -3.4599    0.2902 C   0  0  0  0  0  0  0  0  0  0  0  0
    3.9178   -3.2794    1.2497 O   0  0  0  0  0  0  0  0  0  0  0  0
    3.3962   -0.7760   -0.6336 C   0  0  0  0  0  0  0  0  0  0  0  0
    1.2780    1.9384   -0.6866 H   0  0  0  0  0  0  0  0  0  0  0  0
    0.8095    0.3452   -0.0465 H   0  0  0  0  0  0  0  0  0  0  0  0
    1.1678    0.5309   -1.7718 H   0  0  0  0  0  0  0  0  0  0  0  0
    3.5020    2.5535    0.0134 H   0  0  0  0  0  0  0  0  0  0  0  0
    5.8649    1.9936    0.4580 H   0  0  0  0  0  0  0  0  0  0  0  0
    7.6059    0.3901    0.8208 H   0  0  0  0  0  0  0  0  0  0  0  0
    7.6471   -0.6046   -0.6585 H   0  0  0  0  0  0  0  0  0  0  0  0
    7.2156   -1.3464    0.8928 H   0  0  0  0  0  0  0  0  0  0  0  0
    5.7075   -5.2416    0.6912 H   0  0  0  0  0  0  0  0  0  0  0  0
    3.3390   -5.8228    0.5927 H   0  0  0  0  0  0  0  0  0  0  0  0
    4.2855   -6.8366   -0.5171 H   0  0  0  0  0  0  0  0  0  0  0  0
    2.5885   -7.3362   -1.8376 H   0  0  0  0  0  0  0  0  0  0  0  0
    1.2521   -4.1884   -3.3253 H   0  0  0  0  0  0  0  0  0  0  0  0
   -1.3546   -6.4603   -5.9179 H   0  0  0  0  0  0  0  0  0  0  0  0
   -0.4714   -8.5809   -4.9275 H   0  0  0  0  0  0  0  0  0  0  0  0
    1.0132   -9.4838   -3.3750 H   0  0  0  0  0  0  0  0  0  0  0  0
    2.7280   -1.5816   -0.9459 H   0  0  0  0  0  0  0  0  0  0  0  0
  1  2  1  0
  1 28  1  0
  1 29  1  0
  1 30  1  0
  2  3  2  0
  2 27  1  0
  3  4  1  0
  3 31  1  0
  4  5  2  0
  4 32  1  0
  5  6  1  0
  5  7  1  0
  6 33  1  0
  6 34  1  0
  6 35  1  0
  7  8  1  0
  7 27  2  0
  8  9  1  0
  8 25  1  0
  9 10  2  0
  9 11  1  0
 11 12  1  0
 12 13  1  0
 12 25  1  0
 12 36  1  1
 13 14  1  0
 13 37  1  0
 13 38  1  0
 14 15  2  0
 14 16  1  0
 16 17  1  0
 16 39  1  0
 17 18  2  0
 17 23  1  0
 18 19  1  0
 18 40  1  0
 19 20  1  0
 19 21  2  0
 21 22  1  0
 21 41  1  0
 22 23  2  0
 22 42  1  0
 23 24  1  0
 24 43  1  0
 25 26  2  0
 27 44  1  0
M  END

