
     RDKit          3D

 43 44  0  0  0  0  0  0  0  0999 V2000
    3.6810   -1.9211   -2.3232 C   0  0  0  0  0  0  0  0  0  0  0  0
    3.6067   -3.2297   -1.6030 C   0  0  0  0  0  0  0  0  0  0  0  0
    3.8860   -4.3993   -2.1389 N   0  0  0  0  0  0  0  0  0  0  0  0
    3.7075   -5.3269   -1.1449 C   0  0  0  0  0  0  0  0  0  0  0  0
    3.3129   -4.7107    0.0183 C   0  0  0  0  0  0  0  0  0  0  0  0
    3.2493   -3.3591   -0.2765 N   0  0  0  0  0  0  0  0  0  0  0  0
    2.8359   -2.3014    0.6280 C   0  0  0  0  0  0  0  0  0  0  0  0
    1.3258   -1.9798    0.5510 C   0  0  1  0  0  0  0  0  0  0  0  0
    0.4213   -3.1241    1.0675 C   0  0  0  0  0  0  0  0  0  0  0  0
   -0.7313   -2.4121    1.7871 C   0  0  0  0  0  0  0  0  0  0  0  0
   -0.0390   -1.2043    2.4206 C   0  0  0  0  0  0  0  0  0  0  0  0
    0.9638   -0.8426    1.4097 N   0  0  0  0  0  0  0  0  0  0  0  0
    1.2930    0.4751    1.2118 C   0  0  0  0  0  0  0  0  0  0  0  0
    0.9605    1.3356    2.0363 O   0  0  0  0  0  0  0  0  0  0  0  0
    2.0074    0.7785    0.0821 N   0  0  0  0  0  0  0  0  0  0  0  0
    2.4768    2.1265   -0.2249 C   0  0  0  0  0  0  0  0  0  0  0  0
    1.5044    2.9836   -1.0491 C   0  0  0  0  0  0  0  0  0  0  0  0
    0.2327    3.4548   -0.3169 C   0  0  0  0  0  0  0  0  0  0  0  0
    0.5450    4.4880    0.7696 C   0  0  0  0  0  0  0  0  0  0  0  0
    0.5178    5.6737    0.5502 O   0  0  0  0  0  0  0  0  0  0  0  0
    0.9020    4.0050    1.9635 O   0  0  0  0  0  0  0  0  0  0  0  0
    4.0954   -2.1094   -3.3218 H   0  0  0  0  0  0  0  0  0  0  0  0
    4.3340   -1.1944   -1.8107 H   0  0  0  0  0  0  0  0  0  0  0  0
    2.6889   -1.4538   -2.4590 H   0  0  0  0  0  0  0  0  0  0  0  0
    3.8804   -6.3895   -1.3125 H   0  0  0  0  0  0  0  0  0  0  0  0
    3.0947   -5.0930    1.0123 H   0  0  0  0  0  0  0  0  0  0  0  0
    3.4209   -1.3979    0.4067 H   0  0  0  0  0  0  0  0  0  0  0  0
    3.0880   -2.5963    1.6578 H   0  0  0  0  0  0  0  0  0  0  0  0
    1.0691   -1.7587   -0.5038 H   0  0  0  0  0  0  0  0  0  0  0  0
    0.9840   -3.7389    1.7893 H   0  0  0  0  0  0  0  0  0  0  0  0
    0.0959   -3.7922    0.2582 H   0  0  0  0  0  0  0  0  0  0  0  0
   -1.2364   -3.0534    2.5242 H   0  0  0  0  0  0  0  0  0  0  0  0
   -1.4890   -2.0723    1.0618 H   0  0  0  0  0  0  0  0  0  0  0  0
    0.4430   -1.4702    3.3792 H   0  0  0  0  0  0  0  0  0  0  0  0
   -0.6980   -0.3483    2.6144 H   0  0  0  0  0  0  0  0  0  0  0  0
    2.0633    0.0923   -0.6597 H   0  0  0  0  0  0  0  0  0  0  0  0
    3.4236    2.0247   -0.7795 H   0  0  0  0  0  0  0  0  0  0  0  0
    2.7191    2.6222    0.7258 H   0  0  0  0  0  0  0  0  0  0  0  0
    1.2121    2.4192   -1.9522 H   0  0  0  0  0  0  0  0  0  0  0  0
    2.0514    3.8734   -1.4055 H   0  0  0  0  0  0  0  0  0  0  0  0
   -0.3101    2.5955    0.1074 H   0  0  0  0  0  0  0  0  0  0  0  0
   -0.4281    3.9545   -1.0389 H   0  0  0  0  0  0  0  0  0  0  0  0
    0.8837    3.0147    1.9923 H   0  0  0  0  0  0  0  0  0  0  0  0
  1  2  1  0
  1 22  1  0
  1 23  1  0
  1 24  1  0
  2  3  2  0
  2  6  1  0
  3  4  1  0
  4  5  2  0
  4 25  1  0
  5  6  1  0
  5 26  1  0
  6  7  1  0
  7  8  1  0
  7 27  1  0
  7 28  1  0
  8  9  1  0
  8 12  1  0
  8 29  1  6
  9 10  1  0
  9 30  1  0
  9 31  1  0
 10 11  1  0
 10 32  1  0
 10 33  1  0
 11 12  1  0
 11 34  1  0
 11 35  1  0
 12 13  1  0
 13 14  2  0
 13 15  1  0
 15 16  1  0
 15 36  1  0
 16 17  1  0
 16 37  1  0
 16 38  1  0
 17 18  1  0
 17 39  1  0
 17 40  1  0
 18 19  1  0
 18 41  1  0
 18 42  1  0
 19 20  2  0
 19 21  1  0
 21 43  1  0
M  END

