
     RDKit          3D

 62 65  0  0  0  0  0  0  0  0999 V2000
   13.3093    4.2190   -1.2690 C   0  0  0  0  0  0  0  0  0  0  0  0
   13.7976    3.0406   -0.5804 N   0  0  0  0  0  0  0  0  0  0  0  0
   13.9487    1.8582   -1.2416 C   0  0  0  0  0  0  0  0  0  0  0  0
   13.5423    1.6339   -2.4561 N   0  0  0  0  0  0  0  0  0  0  0  0
   13.7888    0.3308   -2.8504 C   0  0  0  0  0  0  0  0  0  0  0  0
   13.3892   -0.0954   -4.2077 C   0  0  0  0  0  0  0  0  0  0  0  0
   13.5581   -1.4157   -4.6614 C   0  0  0  0  0  0  0  0  0  0  0  0
   13.1696   -1.7867   -5.9481 C   0  0  0  0  0  0  0  0  0  0  0  0
   12.6040   -0.8560   -6.8319 C   0  0  0  0  0  0  0  0  0  0  0  0
   12.2214   -1.2624   -8.2411 C   0  0  0  0  0  0  0  0  0  0  0  0
   10.9089   -0.7872   -8.6387 N   0  0  0  0  0  0  0  0  0  0  0  0
   10.6595   -0.1867   -9.8205 C   0  0  0  0  0  0  0  0  0  0  0  0
   11.5117    0.0573  -10.6744 O   0  0  0  0  0  0  0  0  0  0  0  0
    9.1877    0.1958  -10.0316 C   0  0  2  0  0  0  0  0  0  0  0  0
    9.0706    1.2309   -9.6386 H   0  0  0  0  0  0  0  0  0  0  0  0
    8.3834   -0.7080   -9.3215 O   0  0  0  0  0  0  0  0  0  0  0  0
    8.9035    0.2623  -11.5497 C   0  0  1  0  0  0  0  0  0  0  0  0
    9.3909    1.1900  -11.9136 H   0  0  0  0  0  0  0  0  0  0  0  0
    9.3896   -0.8596  -12.2516 O   0  0  0  0  0  0  0  0  0  0  0  0
    7.3979    0.3974  -11.8273 C   0  0  0  0  0  0  0  0  0  0  0  0
    6.5638    0.3375  -10.9196 O   0  0  0  0  0  0  0  0  0  0  0  0
    7.0229    0.6098  -13.1122 N   0  0  0  0  0  0  0  0  0  0  0  0
    7.9004    0.6325  -14.2981 C   0  0  0  0  0  0  0  0  0  0  0  0
    6.9369    0.9383  -15.4512 C   0  0  0  0  0  0  0  0  0  0  0  0
    5.6111    0.3344  -14.9717 C   0  0  0  0  0  0  0  0  0  0  0  0
    5.5937    0.6582  -13.4588 C   0  0  2  0  0  0  0  0  0  0  0  0
    4.9226    1.9909  -13.1380 C   0  0  0  0  0  0  0  0  0  0  0  0
    3.5246    2.0409  -13.0234 C   0  0  0  0  0  0  0  0  0  0  0  0
    2.8728    3.2509  -12.7808 C   0  0  0  0  0  0  0  0  0  0  0  0
    3.6005    4.4365  -12.6433 C   0  0  0  0  0  0  0  0  0  0  0  0
    4.9912    4.3823  -12.7511 C   0  0  0  0  0  0  0  0  0  0  0  0
    5.9293    5.8507  -12.5736 Cl  0  0  0  0  0  0  0  0  0  0  0  0
    5.6540    3.1758  -12.9952 C   0  0  0  0  0  0  0  0  0  0  0  0
   12.4313    0.4609   -6.3799 C   0  0  0  0  0  0  0  0  0  0  0  0
   12.8145    0.8357   -5.0934 C   0  0  0  0  0  0  0  0  0  0  0  0
   14.4111   -0.4505   -1.9071 C   0  0  0  0  0  0  0  0  0  0  0  0
   14.6979    0.4603   -0.4491 S   0  0  0  0  0  0  0  0  0  0  0  0
   13.1267    5.0137   -0.5319 H   0  0  0  0  0  0  0  0  0  0  0  0
   12.3637    3.9871   -1.7803 H   0  0  0  0  0  0  0  0  0  0  0  0
   14.0168    4.5927   -2.0325 H   0  0  0  0  0  0  0  0  0  0  0  0
   14.3448    3.1746    0.2597 H   0  0  0  0  0  0  0  0  0  0  0  0
   13.9887   -2.1725   -4.0021 H   0  0  0  0  0  0  0  0  0  0  0  0
   13.3063   -2.8230   -6.2713 H   0  0  0  0  0  0  0  0  0  0  0  0
   12.2746   -2.3621   -8.3321 H   0  0  0  0  0  0  0  0  0  0  0  0
   12.9297   -0.8485   -8.9766 H   0  0  0  0  0  0  0  0  0  0  0  0
   10.0916   -1.0292   -8.0844 H   0  0  0  0  0  0  0  0  0  0  0  0
    7.4659   -0.4668   -9.5671 H   0  0  0  0  0  0  0  0  0  0  0  0
   10.3568   -0.8153  -12.1495 H   0  0  0  0  0  0  0  0  0  0  0  0
    8.3970   -0.3416  -14.4133 H   0  0  0  0  0  0  0  0  0  0  0  0
    8.6915    1.3919  -14.1919 H   0  0  0  0  0  0  0  0  0  0  0  0
    7.2862    0.5155  -16.4045 H   0  0  0  0  0  0  0  0  0  0  0  0
    6.8310    2.0263  -15.5891 H   0  0  0  0  0  0  0  0  0  0  0  0
    5.6196   -0.7597  -15.1077 H   0  0  0  0  0  0  0  0  0  0  0  0
    4.7310    0.7341  -15.4944 H   0  0  0  0  0  0  0  0  0  0  0  0
    5.0676   -0.1197  -12.8856 H   0  0  0  0  0  0  0  0  0  0  0  0
    2.9414    1.1205  -13.1169 H   0  0  0  0  0  0  0  0  0  0  0  0
    1.7840    3.2750  -12.6884 H   0  0  0  0  0  0  0  0  0  0  0  0
    3.1034    5.3879  -12.4483 H   0  0  0  0  0  0  0  0  0  0  0  0
    6.7427    3.1672  -13.0557 H   0  0  0  0  0  0  0  0  0  0  0  0
   11.9854    1.2040   -7.0465 H   0  0  0  0  0  0  0  0  0  0  0  0
   12.6772    1.8613   -4.7491 H   0  0  0  0  0  0  0  0  0  0  0  0
   14.7266   -1.4883   -1.9738 H   0  0  0  0  0  0  0  0  0  0  0  0
  1  2  1  0
  1 38  1  0
  1 39  1  0
  1 40  1  0
  2  3  1  0
  2 41  1  0
  3  4  2  0
  3 37  1  0
  4  5  1  0
  5  6  1  0
  5 36  2  0
  6  7  2  0
  6 35  1  0
  7  8  1  0
  7 42  1  0
  8  9  2  0
  8 43  1  0
  9 10  1  0
  9 34  1  0
 10 11  1  0
 10 44  1  0
 10 45  1  0
 11 12  1  0
 11 46  1  0
 12 13  2  0
 12 14  1  0
 14 15  1  1
 14 16  1  0
 14 17  1  0
 16 47  1  0
 17 18  1  6
 17 19  1  0
 17 20  1  0
 19 48  1  0
 20 21  2  0
 20 22  1  0
 22 23  1  0
 22 26  1  0
 23 24  1  0
 23 49  1  0
 23 50  1  0
 24 25  1  0
 24 51  1  0
 24 52  1  0
 25 26  1  0
 25 53  1  0
 25 54  1  0
 26 27  1  0
 26 55  1  1
 27 28  2  0
 27 33  1  0
 28 29  1  0
 28 56  1  0
 29 30  2  0
 29 57  1  0
 30 31  1  0
 30 58  1  0
 31 32  1  0
 31 33  2  0
 33 59  1  0
 34 35  2  0
 34 60  1  0
 35 61  1  0
 36 37  1  0
 36 62  1  0
M  END

