
     RDKit          3D

 49 48  0  0  0  0  0  0  0  0999 V2000
    8.0351    5.4192    0.5800 C   0  0  0  0  0  0  0  0  0  0  0  0
    8.4314    4.2547    1.1086 C   0  0  0  0  0  0  0  0  0  0  0  0
    9.8381    3.7339    0.9809 C   0  0  0  0  0  0  0  0  0  0  0  0
    7.4643    3.3841    1.9020 C   0  0  0  0  0  0  0  0  0  0  0  0
    7.2855    2.0357    1.3512 C   0  0  0  0  0  0  0  0  0  0  0  0
    7.1520    0.9247    0.8829 C   0  0  0  0  0  0  0  0  0  0  0  0
    6.9834   -0.4199    0.3315 C   0  0  0  0  0  0  0  0  0  0  0  0
    7.9492   -1.4653    0.9162 C   0  0  1  0  0  0  0  0  0  0  0  0
    7.6844   -2.8373    0.3620 C   0  0  0  0  0  0  0  0  0  0  0  0
    7.5145   -3.9718    1.0665 C   0  0  0  0  0  0  0  0  0  0  0  0
    7.5883   -4.0428    2.5752 C   0  0  0  0  0  0  0  0  0  0  0  0
    7.2110   -5.3009    0.4039 C   0  0  0  0  0  0  0  0  0  0  0  0
    7.0265   -5.3243   -1.1205 C   0  0  0  0  0  0  0  0  0  0  0  0
    6.6509   -6.6898   -1.6299 C   0  0  0  0  0  0  0  0  0  0  0  0
    7.3306   -7.4899   -2.4722 C   0  0  0  0  0  0  0  0  0  0  0  0
    8.6582   -7.1480   -3.1019 C   0  0  0  0  0  0  0  0  0  0  0  0
    6.7841   -8.8411   -2.8656 C   0  0  0  0  0  0  0  0  0  0  0  0
    9.2853   -1.0308    0.5424 O   0  0  0  0  0  0  0  0  0  0  0  0
   10.2896   -1.2359    1.4159 C   0  0  0  0  0  0  0  0  0  0  0  0
   11.5953   -0.7177    0.8619 C   0  0  0  0  0  0  0  0  0  0  0  0
   10.1541   -1.7547    2.4978 O   0  0  0  0  0  0  0  0  0  0  0  0
    8.7278    6.0580    0.0241 H   0  0  0  0  0  0  0  0  0  0  0  0
    7.0059    5.7756    0.6830 H   0  0  0  0  0  0  0  0  0  0  0  0
   10.4728    4.4141    0.3947 H   0  0  0  0  0  0  0  0  0  0  0  0
    9.8427    2.7426    0.4966 H   0  0  0  0  0  0  0  0  0  0  0  0
   10.2996    3.6007    1.9757 H   0  0  0  0  0  0  0  0  0  0  0  0
    6.4855    3.8874    1.9707 H   0  0  0  0  0  0  0  0  0  0  0  0
    7.8366    3.2924    2.9410 H   0  0  0  0  0  0  0  0  0  0  0  0
    7.1130   -0.3955   -0.7651 H   0  0  0  0  0  0  0  0  0  0  0  0
    5.9540   -0.7737    0.5145 H   0  0  0  0  0  0  0  0  0  0  0  0
    7.8859   -1.4546    2.0105 H   0  0  0  0  0  0  0  0  0  0  0  0
    7.6231   -2.8704   -0.7305 H   0  0  0  0  0  0  0  0  0  0  0  0
    8.2057   -3.2435    3.0051 H   0  0  0  0  0  0  0  0  0  0  0  0
    8.0229   -5.0052    2.8909 H   0  0  0  0  0  0  0  0  0  0  0  0
    6.5784   -3.9947    3.0207 H   0  0  0  0  0  0  0  0  0  0  0  0
    6.3053   -5.7172    0.8866 H   0  0  0  0  0  0  0  0  0  0  0  0
    8.0151   -6.0095    0.6791 H   0  0  0  0  0  0  0  0  0  0  0  0
    7.9421   -4.9580   -1.6090 H   0  0  0  0  0  0  0  0  0  0  0  0
    6.2262   -4.6107   -1.3911 H   0  0  0  0  0  0  0  0  0  0  0  0
    5.6958   -7.0720   -1.2444 H   0  0  0  0  0  0  0  0  0  0  0  0
    9.0499   -6.1692   -2.7950 H   0  0  0  0  0  0  0  0  0  0  0  0
    8.5779   -7.1496   -4.2038 H   0  0  0  0  0  0  0  0  0  0  0  0
    9.4159   -7.9103   -2.8475 H   0  0  0  0  0  0  0  0  0  0  0  0
    5.8168   -9.0520   -2.3860 H   0  0  0  0  0  0  0  0  0  0  0  0
    7.4866   -9.6488   -2.5913 H   0  0  0  0  0  0  0  0  0  0  0  0
    6.6463   -8.9103   -3.9599 H   0  0  0  0  0  0  0  0  0  0  0  0
   11.7838   -1.1504   -0.1321 H   0  0  0  0  0  0  0  0  0  0  0  0
   12.4124   -0.9680    1.5489 H   0  0  0  0  0  0  0  0  0  0  0  0
   11.5355    0.3747    0.7357 H   0  0  0  0  0  0  0  0  0  0  0  0
  1  2  2  0
  1 22  1  0
  1 23  1  0
  2  3  1  0
  2  4  1  0
  3 24  1  0
  3 25  1  0
  3 26  1  0
  4  5  1  0
  4 27  1  0
  4 28  1  0
  5  6  3  0
  6  7  1  0
  7  8  1  0
  7 29  1  0
  7 30  1  0
  8  9  1  0
  8 18  1  0
  8 31  1  1
  9 10  2  0
  9 32  1  0
 10 11  1  0
 10 12  1  0
 11 33  1  0
 11 34  1  0
 11 35  1  0
 12 13  1  0
 12 36  1  0
 12 37  1  0
 13 14  1  0
 13 38  1  0
 13 39  1  0
 14 15  2  0
 14 40  1  0
 15 16  1  0
 15 17  1  0
 16 41  1  0
 16 42  1  0
 16 43  1  0
 17 44  1  0
 17 45  1  0
 17 46  1  0
 18 19  1  0
 19 20  1  0
 19 21  2  0
 20 47  1  0
 20 48  1  0
 20 49  1  0
M  END

