
     RDKit          3D

 55 57  0  0  0  0  0  0  0  0999 V2000
    1.5998   -0.0564    0.6431 C   0  0  0  0  0  0  0  0  0  0  0  0
    2.7767   -0.5299   -0.1934 C   0  0  0  0  0  0  0  0  0  0  0  0
    3.4964   -1.5945    0.4557 O   0  0  0  0  0  0  0  0  0  0  0  0
    4.4621   -1.2499    1.3303 C   0  0  0  0  0  0  0  0  0  0  0  0
    4.7679   -0.1214    1.6064 O   0  0  0  0  0  0  0  0  0  0  0  0
    5.0899   -2.5137    1.8888 C   0  0  0  0  0  0  0  0  0  0  0  0
    6.0817   -2.1581    2.8210 O   0  0  0  0  0  0  0  0  0  0  0  0
    6.7517   -3.1706    3.3973 C   0  0  0  0  0  0  0  0  0  0  0  0
    7.7783   -3.0111    4.3591 C   0  0  0  0  0  0  0  0  0  0  0  0
    8.1624   -4.3077    4.6749 C   0  0  0  0  0  0  0  0  0  0  0  0
    9.1384   -4.7404    5.6927 C   0  0  0  0  0  0  0  0  0  0  0  0
    8.8489   -5.7572    6.6272 C   0  0  0  0  0  0  0  0  0  0  0  0
    9.7622   -6.1055    7.6131 C   0  0  0  0  0  0  0  0  0  0  0  0
   11.0010   -5.4444    7.7052 C   0  0  0  0  0  0  0  0  0  0  0  0
   11.8254   -5.8550    8.6999 O   0  0  0  0  0  0  0  0  0  0  0  0
   13.0784   -5.2293    8.8629 C   0  0  0  0  0  0  0  0  0  0  0  0
   11.3024   -4.4253    6.7893 C   0  0  0  0  0  0  0  0  0  0  0  0
   10.3748   -4.0860    5.7992 C   0  0  0  0  0  0  0  0  0  0  0  0
    7.3847   -5.1417    3.8993 N   0  0  0  0  0  0  0  0  0  0  0  0
    7.4298   -6.5549    3.7483 C   0  0  0  0  0  0  0  0  0  0  0  0
    6.2320   -7.2666    3.6075 C   0  0  0  0  0  0  0  0  0  0  0  0
    6.2615   -8.6512    3.4360 C   0  0  0  0  0  0  0  0  0  0  0  0
    7.4697   -9.3647    3.4058 C   0  0  0  0  0  0  0  0  0  0  0  0
    7.4814  -10.8771    3.2242 C   0  0  1  0  0  0  0  0  0  0  0  0
    8.1783  -11.2951    1.9176 C   0  0  0  0  0  0  0  0  0  0  0  0
    8.0920  -11.5990    4.4380 C   0  0  0  0  0  0  0  0  0  0  0  0
    8.6598   -8.6300    3.5392 C   0  0  0  0  0  0  0  0  0  0  0  0
    8.6494   -7.2440    3.6974 C   0  0  0  0  0  0  0  0  0  0  0  0
    6.5122   -4.4408    3.1225 N   0  0  0  0  0  0  0  0  0  0  0  0
    1.0248    0.7013    0.0868 H   0  0  0  0  0  0  0  0  0  0  0  0
    1.9470    0.4003    1.5819 H   0  0  0  0  0  0  0  0  0  0  0  0
    0.9250   -0.8928    0.8832 H   0  0  0  0  0  0  0  0  0  0  0  0
    3.4723    0.2977   -0.3973 H   0  0  0  0  0  0  0  0  0  0  0  0
    2.4410   -0.9603   -1.1482 H   0  0  0  0  0  0  0  0  0  0  0  0
    5.5062   -3.1115    1.0583 H   0  0  0  0  0  0  0  0  0  0  0  0
    4.3032   -3.1387    2.3481 H   0  0  0  0  0  0  0  0  0  0  0  0
    8.1404   -2.0863    4.7986 H   0  0  0  0  0  0  0  0  0  0  0  0
    7.8872   -6.2723    6.5867 H   0  0  0  0  0  0  0  0  0  0  0  0
    9.5381   -6.8883    8.3406 H   0  0  0  0  0  0  0  0  0  0  0  0
   13.5615   -5.7149    9.7213 H   0  0  0  0  0  0  0  0  0  0  0  0
   12.9748   -4.1497    9.0749 H   0  0  0  0  0  0  0  0  0  0  0  0
   13.7208   -5.3558    7.9726 H   0  0  0  0  0  0  0  0  0  0  0  0
   12.2528   -3.8932    6.8311 H   0  0  0  0  0  0  0  0  0  0  0  0
   10.6249   -3.2981    5.0848 H   0  0  0  0  0  0  0  0  0  0  0  0
    5.2875   -6.7218    3.6234 H   0  0  0  0  0  0  0  0  0  0  0  0
    5.3169   -9.1922    3.3269 H   0  0  0  0  0  0  0  0  0  0  0  0
    6.4267  -11.1947    3.1495 H   0  0  0  0  0  0  0  0  0  0  0  0
    9.2464  -11.0220    1.9260 H   0  0  0  0  0  0  0  0  0  0  0  0
    7.7166  -10.8088    1.0441 H   0  0  0  0  0  0  0  0  0  0  0  0
    8.1163  -12.3863    1.7736 H   0  0  0  0  0  0  0  0  0  0  0  0
    9.1560  -11.3402    4.5667 H   0  0  0  0  0  0  0  0  0  0  0  0
    8.0295  -12.6927    4.3143 H   0  0  0  0  0  0  0  0  0  0  0  0
    7.5685  -11.3307    5.3690 H   0  0  0  0  0  0  0  0  0  0  0  0
    9.6246   -9.1430    3.5046 H   0  0  0  0  0  0  0  0  0  0  0  0
    9.5889   -6.6957    3.7724 H   0  0  0  0  0  0  0  0  0  0  0  0
  1  2  1  0
  1 30  1  0
  1 31  1  0
  1 32  1  0
  2  3  1  0
  2 33  1  0
  2 34  1  0
  3  4  1  0
  4  5  2  0
  4  6  1  0
  6  7  1  0
  6 35  1  0
  6 36  1  0
  7  8  1  0
  8  9  1  0
  8 29  2  0
  9 10  2  0
  9 37  1  0
 10 11  1  0
 10 19  1  0
 11 12  2  0
 11 18  1  0
 12 13  1  0
 12 38  1  0
 13 14  2  0
 13 39  1  0
 14 15  1  0
 14 17  1  0
 15 16  1  0
 16 40  1  0
 16 41  1  0
 16 42  1  0
 17 18  2  0
 17 43  1  0
 18 44  1  0
 19 20  1  0
 19 29  1  0
 20 21  2  0
 20 28  1  0
 21 22  1  0
 21 45  1  0
 22 23  2  0
 22 46  1  0
 23 24  1  0
 23 27  1  0
 24 25  1  0
 24 26  1  0
 24 47  1  6
 25 48  1  0
 25 49  1  0
 25 50  1  0
 26 51  1  0
 26 52  1  0
 26 53  1  0
 27 28  2  0
 27 54  1  0
 28 55  1  0
M  END

