
     RDKit          3D

 57 60  0  0  0  0  0  0  0  0999 V2000
    8.9369    4.9314   -0.5215 C   0  0  0  0  0  0  0  0  0  0  0  0
    8.1801    3.7541   -0.6803 O   0  0  0  0  0  0  0  0  0  0  0  0
    7.0158    3.8026   -1.3775 C   0  0  0  0  0  0  0  0  0  0  0  0
    6.4901    4.9562   -1.9739 C   0  0  0  0  0  0  0  0  0  0  0  0
    5.2778    4.8879   -2.6747 C   0  0  0  0  0  0  0  0  0  0  0  0
    4.5616    3.6928   -2.7949 C   0  0  0  0  0  0  0  0  0  0  0  0
    3.2376    3.5792   -3.5100 C   0  0  1  0  0  0  0  0  0  0  0  0
    3.1238    2.3782   -4.4558 C   0  0  0  0  0  0  0  0  0  0  0  0
    2.3827    1.4408   -4.1913 O   0  0  0  0  0  0  0  0  0  0  0  0
    3.9035    2.3879   -5.5869 N   0  0  0  0  0  0  0  0  0  0  0  0
    3.9013    1.2207   -6.4676 C   0  0  0  0  0  0  0  0  0  0  0  0
    3.4713    1.6010   -7.8880 C   0  0  0  0  0  0  0  0  0  0  0  0
    4.3274    2.7504   -8.4429 C   0  0  2  0  0  0  0  0  0  0  0  0
    5.6855    2.3407   -8.6136 O   0  0  0  0  0  0  0  0  0  0  0  0
    5.9974    1.6697   -9.8118 C   0  0  0  0  0  0  0  0  0  0  0  0
    6.5574    2.6492  -10.8396 C   0  0  0  0  0  0  0  0  0  0  0  0
    6.8745    1.9045  -12.0018 O   0  0  0  0  0  0  0  0  0  0  0  0
    7.4044    2.5301  -13.0807 C   0  0  0  0  0  0  0  0  0  0  0  0
    7.6943    1.7352  -14.2009 C   0  0  0  0  0  0  0  0  0  0  0  0
    8.2381    2.3416  -15.3277 C   0  0  0  0  0  0  0  0  0  0  0  0
    8.4764    3.7229  -15.3039 C   0  0  0  0  0  0  0  0  0  0  0  0
    8.2036    4.4809  -14.2440 N   0  0  0  0  0  0  0  0  0  0  0  0
    7.6813    3.9069  -13.1567 C   0  0  0  0  0  0  0  0  0  0  0  0
    4.3307    3.9269   -7.4638 C   0  0  0  0  0  0  0  0  0  0  0  0
    4.7396    3.4900   -6.0498 C   0  0  0  0  0  0  0  0  0  0  0  0
    1.9747    3.8783   -2.7334 C   0  0  0  0  0  0  0  0  0  0  0  0
    2.3972    4.7976   -3.8439 C   0  0  0  0  0  0  0  0  0  0  0  0
    5.1060    2.5432   -2.1849 C   0  0  0  0  0  0  0  0  0  0  0  0
    6.3092    2.5914   -1.4929 C   0  0  0  0  0  0  0  0  0  0  0  0
    9.8213    4.6592    0.0703 H   0  0  0  0  0  0  0  0  0  0  0  0
    8.3738    5.7145    0.0185 H   0  0  0  0  0  0  0  0  0  0  0  0
    9.2701    5.3422   -1.4922 H   0  0  0  0  0  0  0  0  0  0  0  0
    7.0106    5.9119   -1.9072 H   0  0  0  0  0  0  0  0  0  0  0  0
    4.8975    5.8017   -3.1376 H   0  0  0  0  0  0  0  0  0  0  0  0
    3.2247    0.4776   -6.0303 H   0  0  0  0  0  0  0  0  0  0  0  0
    4.9204    0.7950   -6.4973 H   0  0  0  0  0  0  0  0  0  0  0  0
    2.4129    1.9128   -7.8855 H   0  0  0  0  0  0  0  0  0  0  0  0
    3.5432    0.7202   -8.5476 H   0  0  0  0  0  0  0  0  0  0  0  0
    3.9162    3.0847   -9.4151 H   0  0  0  0  0  0  0  0  0  0  0  0
    5.1233    1.1468  -10.2414 H   0  0  0  0  0  0  0  0  0  0  0  0
    6.7587    0.9030   -9.5927 H   0  0  0  0  0  0  0  0  0  0  0  0
    7.4542    3.1458  -10.4268 H   0  0  0  0  0  0  0  0  0  0  0  0
    5.8126    3.4342  -11.0698 H   0  0  0  0  0  0  0  0  0  0  0  0
    7.4860    0.6637  -14.1585 H   0  0  0  0  0  0  0  0  0  0  0  0
    8.4763    1.7536  -16.2174 H   0  0  0  0  0  0  0  0  0  0  0  0
    8.9040    4.2283  -16.1775 H   0  0  0  0  0  0  0  0  0  0  0  0
    7.4752    4.5690  -12.3101 H   0  0  0  0  0  0  0  0  0  0  0  0
    3.3190    4.3653   -7.4344 H   0  0  0  0  0  0  0  0  0  0  0  0
    5.0232    4.7022   -7.8284 H   0  0  0  0  0  0  0  0  0  0  0  0
    4.6642    4.3325   -5.3565 H   0  0  0  0  0  0  0  0  0  0  0  0
    5.7955    3.1668   -6.0618 H   0  0  0  0  0  0  0  0  0  0  0  0
    2.1015    4.2279   -1.7060 H   0  0  0  0  0  0  0  0  0  0  0  0
    1.1322    3.2023   -2.8960 H   0  0  0  0  0  0  0  0  0  0  0  0
    2.7808    5.7887   -3.5871 H   0  0  0  0  0  0  0  0  0  0  0  0
    1.8264    4.7732   -4.7771 H   0  0  0  0  0  0  0  0  0  0  0  0
    4.5629    1.5967   -2.2529 H   0  0  0  0  0  0  0  0  0  0  0  0
    6.7281    1.7002   -1.0210 H   0  0  0  0  0  0  0  0  0  0  0  0
  1  2  1  0
  1 30  1  0
  1 31  1  0
  1 32  1  0
  2  3  1  0
  3  4  2  0
  3 29  1  0
  4  5  1  0
  4 33  1  0
  5  6  2  0
  5 34  1  0
  6  7  1  0
  6 28  1  0
  7  8  1  6
  7 26  1  0
  7 27  1  0
  8  9  2  0
  8 10  1  0
 10 11  1  0
 10 25  1  0
 11 12  1  0
 11 35  1  0
 11 36  1  0
 12 13  1  0
 12 37  1  0
 12 38  1  0
 13 14  1  0
 13 24  1  0
 13 39  1  6
 14 15  1  0
 15 16  1  0
 15 40  1  0
 15 41  1  0
 16 17  1  0
 16 42  1  0
 16 43  1  0
 17 18  1  0
 18 19  2  0
 18 23  1  0
 19 20  1  0
 19 44  1  0
 20 21  2  0
 20 45  1  0
 21 22  1  0
 21 46  1  0
 22 23  2  0
 23 47  1  0
 24 25  1  0
 24 48  1  0
 24 49  1  0
 25 50  1  0
 25 51  1  0
 26 27  1  0
 26 52  1  0
 26 53  1  0
 27 54  1  0
 27 55  1  0
 28 29  2  0
 28 56  1  0
 29 57  1  0
M  END

