
     RDKit          3D

 36 36  0  0  0  0  0  0  0  0999 V2000
    6.5165   -1.5825   -7.7950 C   0  0  0  0  0  0  0  0  0  0  0  0
    6.1347   -0.6722   -6.6422 C   0  0  0  0  0  0  0  0  0  0  0  0
    5.8711    0.4982   -6.8151 O   0  0  0  0  0  0  0  0  0  0  0  0
    6.1168   -1.3132   -5.2574 C   0  0  0  0  0  0  0  0  0  0  0  0
    5.4967   -0.4407   -4.1659 C   0  0  1  0  0  0  0  0  0  0  0  0
    3.9809   -0.2937   -4.3025 C   0  0  0  0  0  0  0  0  0  0  0  0
    5.8293   -1.1333   -2.4733 S   0  0  0  0  0  0  0  0  0  0  0  0
    7.6025   -0.9308   -2.3266 C   0  0  0  0  0  0  0  0  0  0  0  0
    8.1944    0.3407   -2.2783 C   0  0  0  0  0  0  0  0  0  0  0  0
    9.5760    0.4706   -2.1226 C   0  0  0  0  0  0  0  0  0  0  0  0
   10.4079   -0.6523   -1.9833 C   0  0  0  0  0  0  0  0  0  0  0  0
   11.9116   -0.4910   -1.8005 C   0  0  1  0  0  0  0  0  0  0  0  0
   12.3882   -1.0358   -0.4428 C   0  0  0  0  0  0  0  0  0  0  0  0
   12.7030   -1.1162   -2.9625 C   0  0  0  0  0  0  0  0  0  0  0  0
    9.8027   -1.9195   -2.0148 C   0  0  0  0  0  0  0  0  0  0  0  0
    8.4244   -2.0610   -2.1911 C   0  0  0  0  0  0  0  0  0  0  0  0
    6.6816   -0.9862   -8.7021 H   0  0  0  0  0  0  0  0  0  0  0  0
    5.6999   -2.3016   -7.9794 H   0  0  0  0  0  0  0  0  0  0  0  0
    7.4159   -2.1735   -7.5580 H   0  0  0  0  0  0  0  0  0  0  0  0
    7.1711   -1.5397   -5.0122 H   0  0  0  0  0  0  0  0  0  0  0  0
    5.6151   -2.2960   -5.3093 H   0  0  0  0  0  0  0  0  0  0  0  0
    5.9569    0.5572   -4.2100 H   0  0  0  0  0  0  0  0  0  0  0  0
    3.4765   -1.2721   -4.2343 H   0  0  0  0  0  0  0  0  0  0  0  0
    3.7380    0.1580   -5.2758 H   0  0  0  0  0  0  0  0  0  0  0  0
    3.5743    0.3547   -3.5119 H   0  0  0  0  0  0  0  0  0  0  0  0
    7.5683    1.2330   -2.3542 H   0  0  0  0  0  0  0  0  0  0  0  0
   10.0178    1.4711   -2.0935 H   0  0  0  0  0  0  0  0  0  0  0  0
   12.1172    0.5936   -1.8097 H   0  0  0  0  0  0  0  0  0  0  0  0
   12.2295   -2.1242   -0.3676 H   0  0  0  0  0  0  0  0  0  0  0  0
   11.8482   -0.5613    0.3913 H   0  0  0  0  0  0  0  0  0  0  0  0
   13.4654   -0.8474   -0.3034 H   0  0  0  0  0  0  0  0  0  0  0  0
   12.5581   -2.2083   -3.0066 H   0  0  0  0  0  0  0  0  0  0  0  0
   13.7830   -0.9299   -2.8438 H   0  0  0  0  0  0  0  0  0  0  0  0
   12.3898   -0.6980   -3.9319 H   0  0  0  0  0  0  0  0  0  0  0  0
   10.4147   -2.8195   -1.9079 H   0  0  0  0  0  0  0  0  0  0  0  0
    7.9731   -3.0554   -2.2249 H   0  0  0  0  0  0  0  0  0  0  0  0
  1  2  1  0
  1 17  1  0
  1 18  1  0
  1 19  1  0
  2  3  2  0
  2  4  1  0
  4  5  1  0
  4 20  1  0
  4 21  1  0
  5  6  1  0
  5  7  1  0
  5 22  1  1
  6 23  1  0
  6 24  1  0
  6 25  1  0
  7  8  1  0
  8  9  2  0
  8 16  1  0
  9 10  1  0
  9 26  1  0
 10 11  2  0
 10 27  1  0
 11 12  1  0
 11 15  1  0
 12 13  1  0
 12 14  1  0
 12 28  1  1
 13 29  1  0
 13 30  1  0
 13 31  1  0
 14 32  1  0
 14 33  1  0
 14 34  1  0
 15 16  2  0
 15 35  1  0
 16 36  1  0
M  END

