
     RDKit          3D

 30 32  0  0  0  0  0  0  0  0999 V2000
    0.8632    0.3029   -0.5215 C   0  0  0  0  0  0  0  0  0  0  0  0
    2.3393    0.0361   -0.2452 C   0  0  1  0  0  0  0  0  0  0  0  0
    2.6403   -0.0909    1.2539 C   0  0  2  0  0  0  0  0  0  0  0  0
    4.0171   -0.6412    1.7504 C   0  0  0  0  0  0  0  0  0  0  0  0
    3.5748   -1.6641    2.8242 C   0  0  2  0  0  0  0  0  0  0  0  0
    3.0886   -2.9593    2.1389 C   0  0  0  0  0  0  0  0  0  0  0  0
    1.7328   -2.4787    1.5437 C   0  0  0  0  0  0  0  0  0  0  0  0
    1.6829   -1.0201    2.0605 C   0  0  1  0  0  0  0  0  0  0  0  0
    2.3541   -1.1058    3.3188 O   0  0  0  0  0  0  0  0  0  0  0  0
    3.0897   -0.7478   -1.2977 C   0  0  0  0  0  0  0  0  0  0  0  0
    3.2876    0.7538   -1.1929 C   0  0  2  0  0  0  0  0  0  0  0  0
    4.6205    1.3269   -0.8157 C   0  0  0  0  0  0  0  0  0  0  0  0
    4.4524    3.0775    0.1161 Br  0  0  0  0  0  0  0  0  0  0  0  0
    0.2307   -0.5524   -0.2348 H   0  0  0  0  0  0  0  0  0  0  0  0
    0.6858    0.4971   -1.5906 H   0  0  0  0  0  0  0  0  0  0  0  0
    0.5143    1.1855    0.0402 H   0  0  0  0  0  0  0  0  0  0  0  0
    2.5077    0.9157    1.6826 H   0  0  0  0  0  0  0  0  0  0  0  0
    4.6271    0.1602    2.1910 H   0  0  0  0  0  0  0  0  0  0  0  0
    4.6149   -1.1285    0.9673 H   0  0  0  0  0  0  0  0  0  0  0  0
    4.2830   -1.8066    3.6514 H   0  0  0  0  0  0  0  0  0  0  0  0
    2.9414   -3.7540    2.8850 H   0  0  0  0  0  0  0  0  0  0  0  0
    3.7931   -3.3323    1.3799 H   0  0  0  0  0  0  0  0  0  0  0  0
    0.8875   -3.0558    1.9460 H   0  0  0  0  0  0  0  0  0  0  0  0
    1.6955   -2.5445    0.4471 H   0  0  0  0  0  0  0  0  0  0  0  0
    0.6751   -0.6135    2.2126 H   0  0  0  0  0  0  0  0  0  0  0  0
    2.5358   -1.1351   -2.1585 H   0  0  0  0  0  0  0  0  0  0  0  0
    3.9187   -1.3891   -0.9863 H   0  0  0  0  0  0  0  0  0  0  0  0
    2.7827    1.3486   -1.9619 H   0  0  0  0  0  0  0  0  0  0  0  0
    5.2296    1.5455   -1.7020 H   0  0  0  0  0  0  0  0  0  0  0  0
    5.1973    0.6969   -0.1330 H   0  0  0  0  0  0  0  0  0  0  0  0
  2  1  1  1
  1 14  1  0
  1 15  1  0
  1 16  1  0
  2  3  1  0
  2 10  1  0
  2 11  1  0
  3  4  1  0
  3  8  1  0
  3 17  1  1
  4  5  1  0
  4 18  1  0
  4 19  1  0
  5  6  1  0
  5  9  1  0
  5 20  1  1
  6  7  1  0
  6 21  1  0
  6 22  1  0
  7  8  1  0
  7 23  1  0
  7 24  1  0
  8  9  1  0
  8 25  1  1
 10 11  1  0
 10 26  1  0
 10 27  1  0
 11 12  1  0
 11 28  1  6
 12 13  1  0
 12 29  1  0
 12 30  1  0
M  END

