
     RDKit          3D

 57 60  0  0  0  0  0  0  0  0999 V2000
    1.3700    0.4778    2.0455 C   0  0  0  0  0  0  0  0  0  0  0  0
    2.6858    0.2969    1.3295 C   0  0  0  0  0  0  0  0  0  0  0  0
    3.0780   -0.9592    0.8508 C   0  0  0  0  0  0  0  0  0  0  0  0
    4.2858   -1.1741    0.1834 C   0  0  0  0  0  0  0  0  0  0  0  0
    5.1523   -0.0900   -0.0231 C   0  0  0  0  0  0  0  0  0  0  0  0
    6.3927   -0.1852   -0.6819 N   0  0  0  0  0  0  0  0  0  0  0  0
    6.9829   -1.3106   -1.2414 C   0  0  0  0  0  0  0  0  0  0  0  0
    6.4857   -2.4264   -1.2238 O   0  0  0  0  0  0  0  0  0  0  0  0
    8.2063   -1.0735   -1.8337 N   0  0  0  0  0  0  0  0  0  0  0  0
    8.9198    0.1980   -1.9085 C   0  0  0  0  0  0  0  0  0  0  0  0
   10.1450   -0.1284   -2.7742 C   0  0  0  0  0  0  0  0  0  0  0  0
   10.3920   -1.6231   -2.5021 C   0  0  2  0  0  0  0  0  0  0  0  0
   11.2970   -2.2836   -3.5489 C   0  0  0  0  0  0  0  0  0  0  0  0
   11.5967   -3.6867   -3.2840 N   0  0  0  0  0  0  0  0  0  0  0  0
   12.4768   -4.1290   -2.3020 C   0  0  0  0  0  0  0  0  0  0  0  0
   13.4333   -3.2428   -1.5744 C   0  0  0  0  0  0  0  0  0  0  0  0
   12.2751   -5.4906   -2.2261 C   0  0  0  0  0  0  0  0  0  0  0  0
   11.3168   -5.8942   -3.1115 N   0  0  0  0  0  0  0  0  0  0  0  0
   10.9213   -4.8076   -3.7463 C   0  0  0  0  0  0  0  0  0  0  0  0
    9.9100   -4.8208   -4.8235 C   0  0  0  0  0  0  0  0  0  0  0  0
    8.7611   -5.6172   -4.6593 C   0  0  0  0  0  0  0  0  0  0  0  0
    7.7989   -5.6948   -5.6665 C   0  0  0  0  0  0  0  0  0  0  0  0
    7.9666   -4.9842   -6.8600 C   0  0  0  0  0  0  0  0  0  0  0  0
    9.1139   -4.2077   -7.0448 C   0  0  0  0  0  0  0  0  0  0  0  0
   10.0809   -4.1312   -6.0389 C   0  0  0  0  0  0  0  0  0  0  0  0
    8.9639   -2.1848   -2.4096 C   0  0  0  0  0  0  0  0  0  0  0  0
    4.7690    1.1777    0.4533 C   0  0  0  0  0  0  0  0  0  0  0  0
    3.5599    1.3893    1.1216 C   0  0  0  0  0  0  0  0  0  0  0  0
    3.1973    2.7698    1.6123 C   0  0  0  0  0  0  0  0  0  0  0  0
    0.8224   -0.4734    2.1168 H   0  0  0  0  0  0  0  0  0  0  0  0
    0.7154    1.2011    1.5287 H   0  0  0  0  0  0  0  0  0  0  0  0
    1.5081    0.8605    3.0718 H   0  0  0  0  0  0  0  0  0  0  0  0
    2.4122   -1.8138    1.0047 H   0  0  0  0  0  0  0  0  0  0  0  0
    4.5658   -2.1608   -0.1767 H   0  0  0  0  0  0  0  0  0  0  0  0
    6.9017    0.6865   -0.7410 H   0  0  0  0  0  0  0  0  0  0  0  0
    9.2280    0.5501   -0.9036 H   0  0  0  0  0  0  0  0  0  0  0  0
    8.3022    0.9934   -2.3638 H   0  0  0  0  0  0  0  0  0  0  0  0
   11.0101    0.5097   -2.5381 H   0  0  0  0  0  0  0  0  0  0  0  0
    9.9018    0.0204   -3.8404 H   0  0  0  0  0  0  0  0  0  0  0  0
   10.8641   -1.7198   -1.5091 H   0  0  0  0  0  0  0  0  0  0  0  0
   12.2491   -1.7325   -3.6102 H   0  0  0  0  0  0  0  0  0  0  0  0
   10.8221   -2.2095   -4.5354 H   0  0  0  0  0  0  0  0  0  0  0  0
   14.1152   -2.7108   -2.2611 H   0  0  0  0  0  0  0  0  0  0  0  0
   14.0537   -3.8529   -0.9027 H   0  0  0  0  0  0  0  0  0  0  0  0
   12.9323   -2.4790   -0.9548 H   0  0  0  0  0  0  0  0  0  0  0  0
   12.7956   -6.1964   -1.5783 H   0  0  0  0  0  0  0  0  0  0  0  0
    8.6396   -6.1740   -3.7285 H   0  0  0  0  0  0  0  0  0  0  0  0
    6.9094   -6.3122   -5.5176 H   0  0  0  0  0  0  0  0  0  0  0  0
    7.2104   -5.0436   -7.6469 H   0  0  0  0  0  0  0  0  0  0  0  0
    9.2667   -3.6700   -7.9843 H   0  0  0  0  0  0  0  0  0  0  0  0
   10.9955   -3.5612   -6.2190 H   0  0  0  0  0  0  0  0  0  0  0  0
    8.8782   -3.0783   -1.7758 H   0  0  0  0  0  0  0  0  0  0  0  0
    8.5751   -2.4607   -3.4079 H   0  0  0  0  0  0  0  0  0  0  0  0
    5.4393    2.0301    0.2961 H   0  0  0  0  0  0  0  0  0  0  0  0
    3.9813    3.5032    1.3729 H   0  0  0  0  0  0  0  0  0  0  0  0
    3.0452    2.7857    2.7051 H   0  0  0  0  0  0  0  0  0  0  0  0
    2.2552    3.1266    1.1618 H   0  0  0  0  0  0  0  0  0  0  0  0
  1  2  1  0
  1 30  1  0
  1 31  1  0
  1 32  1  0
  2  3  2  0
  2 28  1  0
  3  4  1  0
  3 33  1  0
  4  5  2  0
  4 34  1  0
  5  6  1  0
  5 27  1  0
  6  7  1  0
  6 35  1  0
  7  8  2  0
  7  9  1  0
  9 10  1  0
  9 26  1  0
 10 11  1  0
 10 36  1  0
 10 37  1  0
 11 12  1  0
 11 38  1  0
 11 39  1  0
 12 13  1  0
 12 26  1  0
 12 40  1  1
 13 14  1  0
 13 41  1  0
 13 42  1  0
 14 15  1  0
 14 19  1  0
 15 16  1  0
 15 17  2  0
 16 43  1  0
 16 44  1  0
 16 45  1  0
 17 18  1  0
 17 46  1  0
 18 19  2  0
 19 20  1  0
 20 21  2  0
 20 25  1  0
 21 22  1  0
 21 47  1  0
 22 23  2  0
 22 48  1  0
 23 24  1  0
 23 49  1  0
 24 25  2  0
 24 50  1  0
 25 51  1  0
 26 52  1  0
 26 53  1  0
 27 28  2  0
 27 54  1  0
 28 29  1  0
 29 55  1  0
 29 56  1  0
 29 57  1  0
M  END

