
     RDKit          3D

 57 58  0  0  0  0  0  0  0  0999 V2000
    7.0012  -10.1084   12.8835 C   0  0  0  0  0  0  0  0  0  0  0  0
    7.1080   -8.7727   12.3371 N   0  0  0  0  0  0  0  0  0  0  0  0
    8.2880   -8.1045   12.2423 C   0  0  0  0  0  0  0  0  0  0  0  0
    9.3693   -8.5416   12.5976 O   0  0  0  0  0  0  0  0  0  0  0  0
    8.1878   -6.6881   11.6714 C   0  0  2  0  0  0  0  0  0  0  0  0
    8.9940   -6.5858   10.9238 H   0  0  0  0  0  0  0  0  0  0  0  0
    8.1664   -5.5397   12.7248 C   0  0  0  0  0  0  0  0  0  0  0  0
    6.8612   -5.0330   12.0580 C   0  0  0  0  0  0  0  0  0  0  0  0
    6.8781   -6.2209   11.1920 N   0  0  0  0  0  0  0  0  0  0  0  0
    6.3687   -6.2904    9.9192 C   0  0  0  0  0  0  0  0  0  0  0  0
    6.7781   -7.2896    9.0075 C   0  0  0  0  0  0  0  0  0  0  0  0
    6.1910   -7.3136    7.7444 C   0  0  0  0  0  0  0  0  0  0  0  0
    6.6491   -8.3896    6.7874 C   0  0  0  0  0  0  0  0  0  0  0  0
    7.7297   -8.9494    6.9390 O   0  0  0  0  0  0  0  0  0  0  0  0
    5.7964   -8.6989    5.7743 N   0  0  0  0  0  0  0  0  0  0  0  0
    6.1364   -9.6288    4.7011 C   0  0  0  0  0  0  0  0  0  0  0  0
    5.9304  -11.1223    5.0106 C   0  0  2  0  0  0  0  0  0  0  0  0
    6.0618  -11.6586    4.0539 H   0  0  0  0  0  0  0  0  0  0  0  0
    4.5207  -11.4369    5.5254 C   0  0  0  0  0  0  0  0  0  0  0  0
    6.9721  -11.5868    5.9166 N   0  0  0  0  0  0  0  0  0  0  0  0
    7.3039  -12.9045    5.9880 C   0  0  0  0  0  0  0  0  0  0  0  0
    6.7512  -13.7857    5.3521 O   0  0  0  0  0  0  0  0  0  0  0  0
    8.3240  -13.0781    6.8589 O   0  0  0  0  0  0  0  0  0  0  0  0
    8.8994  -14.3947    7.1249 C   0  0  1  0  0  0  0  0  0  0  0  0
    9.5034  -14.9758    5.8412 C   0  0  0  0  0  0  0  0  0  0  0  0
    9.9962  -14.0878    8.1470 C   0  0  0  0  0  0  0  0  0  0  0  0
    7.8393  -15.3220    7.7304 C   0  0  0  0  0  0  0  0  0  0  0  0
    5.2339   -6.3410    7.4083 C   0  0  0  0  0  0  0  0  0  0  0  0
    4.9173   -5.4012    8.3935 C   0  0  0  0  0  0  0  0  0  0  0  0
    3.7337   -4.1620    8.0112 Cl  0  0  0  0  0  0  0  0  0  0  0  0
    5.4481   -5.3657    9.5971 N   0  0  0  0  0  0  0  0  0  0  0  0
    6.5486  -10.8043   12.1579 H   0  0  0  0  0  0  0  0  0  0  0  0
    6.3959  -10.1243   13.8063 H   0  0  0  0  0  0  0  0  0  0  0  0
    8.0158  -10.4535   13.1232 H   0  0  0  0  0  0  0  0  0  0  0  0
    6.2744   -8.2778   12.0387 H   0  0  0  0  0  0  0  0  0  0  0  0
    9.0218   -4.8546   12.6753 H   0  0  0  0  0  0  0  0  0  0  0  0
    8.0468   -5.8927   13.7580 H   0  0  0  0  0  0  0  0  0  0  0  0
    6.9578   -4.0931   11.4901 H   0  0  0  0  0  0  0  0  0  0  0  0
    5.9708   -4.9576   12.7023 H   0  0  0  0  0  0  0  0  0  0  0  0
    7.5301   -8.0358    9.2628 H   0  0  0  0  0  0  0  0  0  0  0  0
    4.8700   -8.2920    5.7821 H   0  0  0  0  0  0  0  0  0  0  0  0
    7.1891   -9.4609    4.4257 H   0  0  0  0  0  0  0  0  0  0  0  0
    5.5152   -9.3622    3.8330 H   0  0  0  0  0  0  0  0  0  0  0  0
    4.4192  -12.5215    5.6699 H   0  0  0  0  0  0  0  0  0  0  0  0
    3.7534  -11.1156    4.8008 H   0  0  0  0  0  0  0  0  0  0  0  0
    4.3283  -10.9360    6.4876 H   0  0  0  0  0  0  0  0  0  0  0  0
    7.5188  -10.8994    6.4357 H   0  0  0  0  0  0  0  0  0  0  0  0
   10.2327  -14.2720    5.4101 H   0  0  0  0  0  0  0  0  0  0  0  0
    8.7230  -15.1777    5.0967 H   0  0  0  0  0  0  0  0  0  0  0  0
   10.0301  -15.9160    6.0687 H   0  0  0  0  0  0  0  0  0  0  0  0
   10.7323  -13.3868    7.7253 H   0  0  0  0  0  0  0  0  0  0  0  0
   10.5186  -15.0121    8.4376 H   0  0  0  0  0  0  0  0  0  0  0  0
    9.5660  -13.6296    9.0504 H   0  0  0  0  0  0  0  0  0  0  0  0
    7.0396  -15.5284    7.0080 H   0  0  0  0  0  0  0  0  0  0  0  0
    7.3973  -14.8613    8.6281 H   0  0  0  0  0  0  0  0  0  0  0  0
    8.3036  -16.2749    8.0298 H   0  0  0  0  0  0  0  0  0  0  0  0
    4.7739   -6.2729    6.4232 H   0  0  0  0  0  0  0  0  0  0  0  0
  1  2  1  0
  1 32  1  0
  1 33  1  0
  1 34  1  0
  2  3  1  0
  2 35  1  0
  3  4  2  0
  3  5  1  0
  5  6  1  6
  5  7  1  0
  5  9  1  0
  7  8  1  0
  7 36  1  0
  7 37  1  0
  8  9  1  0
  8 38  1  0
  8 39  1  0
  9 10  1  0
 10 11  2  0
 10 31  1  0
 11 12  1  0
 11 40  1  0
 12 13  1  0
 12 28  2  0
 13 14  2  0
 13 15  1  0
 15 16  1  0
 15 41  1  0
 16 17  1  0
 16 42  1  0
 16 43  1  0
 17 18  1  6
 17 19  1  0
 17 20  1  0
 19 44  1  0
 19 45  1  0
 19 46  1  0
 20 21  1  0
 20 47  1  0
 21 22  2  0
 21 23  1  0
 24 23  1  6
 24 25  1  0
 24 26  1  0
 24 27  1  0
 25 48  1  0
 25 49  1  0
 25 50  1  0
 26 51  1  0
 26 52  1  0
 26 53  1  0
 27 54  1  0
 27 55  1  0
 27 56  1  0
 28 29  1  0
 28 57  1  0
 29 30  1  0
 29 31  2  0
M  END

