
     RDKit          3D

 59 62  0  0  0  0  0  0  0  0999 V2000
    7.7030    0.1913    0.7009 C   0  0  0  0  0  0  0  0  0  0  0  0
    6.5045    1.0730    0.3258 C   0  0  1  0  0  0  0  0  0  0  0  0
    7.0038    2.2844   -0.4681 C   0  0  0  0  0  0  0  0  0  0  0  0
    5.4862    0.2515   -0.3987 N   0  0  0  0  0  0  0  0  0  0  0  0
    5.1341   -1.0502    0.1962 C   0  0  0  0  0  0  0  0  0  0  0  0
    4.6687   -1.0303    1.6450 C   0  0  0  0  0  0  0  0  0  0  0  0
    3.7663   -0.0639    2.1189 C   0  0  0  0  0  0  0  0  0  0  0  0
    3.3083   -0.1070    3.4385 C   0  0  0  0  0  0  0  0  0  0  0  0
    3.7381   -1.1170    4.3053 C   0  0  0  0  0  0  0  0  0  0  0  0
    4.6352   -2.0837    3.8438 C   0  0  0  0  0  0  0  0  0  0  0  0
    5.0980   -2.0350    2.5253 C   0  0  0  0  0  0  0  0  0  0  0  0
    4.2395    1.0276   -1.2466 S   0  0  1  0  0  0  0  0  0  0  0  0
    3.2033    0.0161   -1.4977 O   0  0  0  0  0  0  0  0  0  0  0  0
    3.8548    2.2811   -0.5753 O   0  0  0  0  0  0  0  0  0  0  0  0
    4.9426    1.5130   -2.7949 C   0  0  0  0  0  0  0  0  0  0  0  0
    4.8148    2.8152   -3.2586 C   0  0  0  0  0  0  0  0  0  0  0  0
    5.4452    2.8638   -4.4503 N   0  0  0  0  0  0  0  0  0  0  0  0
    5.5791    4.0170   -5.3387 C   0  0  1  0  0  0  0  0  0  0  0  0
    7.0355    4.4317   -5.6085 C   0  0  0  0  0  0  0  0  0  0  0  0
    6.9055    5.3136   -6.8540 C   0  0  0  0  0  0  0  0  0  0  0  0
    5.8843    4.5591   -7.7335 C   0  0  0  0  0  0  0  0  0  0  0  0
    4.9597    3.7981   -6.7453 C   0  0  0  0  0  0  0  0  0  0  0  0
    5.9707    1.6776   -4.7955 N   0  0  0  0  0  0  0  0  0  0  0  0
    5.6749    0.8225   -3.8137 C   0  0  0  0  0  0  0  0  0  0  0  0
    6.1258   -0.5812   -3.9037 C   0  0  0  0  0  0  0  0  0  0  0  0
    7.3358   -0.8803   -4.5573 C   0  0  0  0  0  0  0  0  0  0  0  0
    7.7687   -2.2010   -4.6787 C   0  0  0  0  0  0  0  0  0  0  0  0
    6.9990   -3.2451   -4.1545 C   0  0  0  0  0  0  0  0  0  0  0  0
    5.7903   -2.9576   -3.5139 C   0  0  0  0  0  0  0  0  0  0  0  0
    5.3533   -1.6363   -3.3877 C   0  0  0  0  0  0  0  0  0  0  0  0
    8.4720    0.8172    1.1785 H   0  0  0  0  0  0  0  0  0  0  0  0
    8.1444   -0.2699   -0.1973 H   0  0  0  0  0  0  0  0  0  0  0  0
    7.4424   -0.6014    1.4147 H   0  0  0  0  0  0  0  0  0  0  0  0
    6.0461    1.4483    1.2593 H   0  0  0  0  0  0  0  0  0  0  0  0
    7.4784    1.9790   -1.4133 H   0  0  0  0  0  0  0  0  0  0  0  0
    7.7595    2.8057    0.1394 H   0  0  0  0  0  0  0  0  0  0  0  0
    6.2021    3.0003   -0.6824 H   0  0  0  0  0  0  0  0  0  0  0  0
    5.9994   -1.7208    0.0921 H   0  0  0  0  0  0  0  0  0  0  0  0
    4.3362   -1.4791   -0.4227 H   0  0  0  0  0  0  0  0  0  0  0  0
    3.4211    0.7327    1.4558 H   0  0  0  0  0  0  0  0  0  0  0  0
    2.6073    0.6546    3.7902 H   0  0  0  0  0  0  0  0  0  0  0  0
    3.3769   -1.1484    5.3365 H   0  0  0  0  0  0  0  0  0  0  0  0
    4.9808   -2.8766    4.5125 H   0  0  0  0  0  0  0  0  0  0  0  0
    5.8031   -2.7942    2.1724 H   0  0  0  0  0  0  0  0  0  0  0  0
    4.3320    3.6752   -2.8015 H   0  0  0  0  0  0  0  0  0  0  0  0
    5.0593    4.8395   -4.8235 H   0  0  0  0  0  0  0  0  0  0  0  0
    7.6218    3.5258   -5.8328 H   0  0  0  0  0  0  0  0  0  0  0  0
    7.5007    4.9340   -4.7461 H   0  0  0  0  0  0  0  0  0  0  0  0
    7.8664    5.4880   -7.3615 H   0  0  0  0  0  0  0  0  0  0  0  0
    6.5075    6.3035   -6.5694 H   0  0  0  0  0  0  0  0  0  0  0  0
    6.4105    3.8412   -8.3823 H   0  0  0  0  0  0  0  0  0  0  0  0
    5.3269    5.2362   -8.3981 H   0  0  0  0  0  0  0  0  0  0  0  0
    4.9437    2.7212   -6.9631 H   0  0  0  0  0  0  0  0  0  0  0  0
    3.9188    4.1542   -6.7753 H   0  0  0  0  0  0  0  0  0  0  0  0
    7.9311   -0.0627   -4.9677 H   0  0  0  0  0  0  0  0  0  0  0  0
    8.7133   -2.4173   -5.1847 H   0  0  0  0  0  0  0  0  0  0  0  0
    7.3383   -4.2798   -4.2503 H   0  0  0  0  0  0  0  0  0  0  0  0
    5.1748   -3.7686   -3.1158 H   0  0  0  0  0  0  0  0  0  0  0  0
    4.3959   -1.4190   -2.9121 H   0  0  0  0  0  0  0  0  0  0  0  0
  1  2  1  0
  1 31  1  0
  1 32  1  0
  1 33  1  0
  2  3  1  0
  2  4  1  0
  2 34  1  1
  3 35  1  0
  3 36  1  0
  3 37  1  0
  4  5  1  0
 12  4  1  1
  5  6  1  0
  5 38  1  0
  5 39  1  0
  6  7  2  0
  6 11  1  0
  7  8  1  0
  7 40  1  0
  8  9  2  0
  8 41  1  0
  9 10  1  0
  9 42  1  0
 10 11  2  0
 10 43  1  0
 11 44  1  0
 12 13  2  0
 12 14  2  0
 12 15  1  0
 15 16  2  0
 15 24  1  0
 16 17  1  0
 16 45  1  0
 17 18  1  0
 17 23  1  0
 18 19  1  0
 18 22  1  0
 18 46  1  1
 19 20  1  0
 19 47  1  0
 19 48  1  0
 20 21  1  0
 20 49  1  0
 20 50  1  0
 21 22  1  0
 21 51  1  0
 21 52  1  0
 22 53  1  0
 22 54  1  0
 23 24  2  0
 24 25  1  0
 25 26  2  0
 25 30  1  0
 26 27  1  0
 26 55  1  0
 27 28  2  0
 27 56  1  0
 28 29  1  0
 28 57  1  0
 29 30  2  0
 29 58  1  0
 30 59  1  0
M  END

