
     RDKit          3D

 28 29  0  0  0  0  0  0  0  0999 V2000
    2.8577    1.2452    0.6006 O   0  0  0  0  0  0  0  0  0  0  0  0
    3.3263    0.3642   -0.0705 C   0  0  0  0  0  0  0  0  0  0  0  0
    4.1055    0.3412   -1.1917 N   0  0  0  0  0  0  0  0  0  0  0  0
    4.3063   -1.1055   -1.2332 C   0  0  0  0  0  0  0  0  0  0  0  0
    3.2899   -1.1993   -0.0373 C   0  0  1  0  0  0  0  0  0  0  0  0
    2.2871   -1.5074   -0.3898 H   0  0  0  0  0  0  0  0  0  0  0  0
    3.6427   -1.8783    1.1813 N   0  0  0  0  0  0  0  0  0  0  0  0
    4.2294   -1.1301    2.3088 C   0  0  0  0  0  0  0  0  0  0  0  0
    5.6891   -0.7528    2.1188 C   0  0  0  0  0  0  0  0  0  0  0  0
    6.0728    0.5898    1.9846 C   0  0  0  0  0  0  0  0  0  0  0  0
    7.4190    0.9342    1.8162 C   0  0  0  0  0  0  0  0  0  0  0  0
    8.3972   -0.0620    1.7757 C   0  0  0  0  0  0  0  0  0  0  0  0
    8.0246   -1.4048    1.9114 C   0  0  0  0  0  0  0  0  0  0  0  0
    6.6823   -1.7486    2.0852 C   0  0  0  0  0  0  0  0  0  0  0  0
    3.6047   -3.2621    1.2817 C   0  0  0  0  0  0  0  0  0  0  0  0
    4.0183   -3.8803    2.2320 O   0  0  0  0  0  0  0  0  0  0  0  0
    3.0724   -3.9166    0.2206 O   0  0  0  0  0  0  0  0  0  0  0  0
    4.5141    1.1017   -1.7270 H   0  0  0  0  0  0  0  0  0  0  0  0
    5.3215   -1.4302   -0.9587 H   0  0  0  0  0  0  0  0  0  0  0  0
    3.9948   -1.5852   -2.1759 H   0  0  0  0  0  0  0  0  0  0  0  0
    4.1238   -1.7826    3.1846 H   0  0  0  0  0  0  0  0  0  0  0  0
    3.6232   -0.2293    2.4710 H   0  0  0  0  0  0  0  0  0  0  0  0
    5.3090    1.3720    2.0126 H   0  0  0  0  0  0  0  0  0  0  0  0
    7.7023    1.9856    1.7179 H   0  0  0  0  0  0  0  0  0  0  0  0
    9.4491    0.2054    1.6452 H   0  0  0  0  0  0  0  0  0  0  0  0
    8.7868   -2.1884    1.8923 H   0  0  0  0  0  0  0  0  0  0  0  0
    6.3918   -2.7948    2.2110 H   0  0  0  0  0  0  0  0  0  0  0  0
    2.7105   -3.3101   -0.4384 H   0  0  0  0  0  0  0  0  0  0  0  0
  1  2  2  0
  2  3  1  0
  2  5  1  0
  3  4  1  0
  3 18  1  0
  4  5  1  0
  4 19  1  0
  4 20  1  0
  5  6  1  6
  5  7  1  0
  7  8  1  0
  7 15  1  0
  8  9  1  0
  8 21  1  0
  8 22  1  0
  9 10  2  0
  9 14  1  0
 10 11  1  0
 10 23  1  0
 11 12  2  0
 11 24  1  0
 12 13  1  0
 12 25  1  0
 13 14  2  0
 13 26  1  0
 14 27  1  0
 15 16  2  0
 15 17  1  0
 17 28  1  0
M  END

