
     RDKit          3D

 31 31  0  0  0  0  0  0  0  0999 V2000
    4.1351    4.5045   -0.7218 C   0  0  0  0  0  0  0  0  0  0  0  0
    3.8344    3.6778   -1.5552 C   0  0  0  0  0  0  0  0  0  0  0  0
    3.4834    2.6684   -2.5568 C   0  0  0  0  0  0  0  0  0  0  0  0
    4.3958    1.4274   -2.5525 C   0  0  0  0  0  0  0  0  0  0  0  0
    5.8436    1.7499   -2.8893 C   0  0  0  0  0  0  0  0  0  0  0  0
    6.5720    0.5308   -2.8791 O   0  0  0  0  0  0  0  0  0  0  0  0
    7.9002    0.5340   -3.1357 C   0  0  0  0  0  0  0  0  0  0  0  0
    8.6398    1.6946   -3.4219 C   0  0  0  0  0  0  0  0  0  0  0  0
   10.0053    1.5627   -3.6707 C   0  0  0  0  0  0  0  0  0  0  0  0
   10.7073    2.6712   -3.9433 F   0  0  0  0  0  0  0  0  0  0  0  0
   10.6589    0.3387   -3.6471 C   0  0  0  0  0  0  0  0  0  0  0  0
    9.9152   -0.8251   -3.3591 C   0  0  0  0  0  0  0  0  0  0  0  0
   10.6252   -2.1081   -3.3385 C   0  0  0  0  0  0  0  0  0  0  0  0
   10.1215   -3.3312   -3.0848 C   0  0  0  0  0  0  0  0  0  0  0  0
   11.0146   -4.5241   -3.1120 C   0  0  0  0  0  0  0  0  0  0  0  0
   12.1939   -4.4877   -3.3528 O   0  0  0  0  0  0  0  0  0  0  0  0
   10.4111   -5.7077   -2.8407 O   0  0  0  0  0  0  0  0  0  0  0  0
    8.5393   -0.7140   -3.1060 C   0  0  0  0  0  0  0  0  0  0  0  0
    4.3934    5.2409    0.0159 H   0  0  0  0  0  0  0  0  0  0  0  0
    3.4928    3.1360   -3.5584 H   0  0  0  0  0  0  0  0  0  0  0  0
    2.4421    2.3450   -2.3873 H   0  0  0  0  0  0  0  0  0  0  0  0
    4.0142    0.6994   -3.2865 H   0  0  0  0  0  0  0  0  0  0  0  0
    4.3607    0.9390   -1.5655 H   0  0  0  0  0  0  0  0  0  0  0  0
    6.2653    2.4551   -2.1508 H   0  0  0  0  0  0  0  0  0  0  0  0
    5.9140    2.2253   -3.8865 H   0  0  0  0  0  0  0  0  0  0  0  0
    8.1952    2.6878   -3.4564 H   0  0  0  0  0  0  0  0  0  0  0  0
   11.7299    0.2939   -3.8495 H   0  0  0  0  0  0  0  0  0  0  0  0
   11.6984   -2.0717   -3.5555 H   0  0  0  0  0  0  0  0  0  0  0  0
    9.0601   -3.4739   -2.8560 H   0  0  0  0  0  0  0  0  0  0  0  0
    9.4687   -5.5773   -2.6671 H   0  0  0  0  0  0  0  0  0  0  0  0
    7.9267   -1.5872   -2.8798 H   0  0  0  0  0  0  0  0  0  0  0  0
  1  2  3  0
  1 19  1  0
  2  3  1  0
  3  4  1  0
  3 20  1  0
  3 21  1  0
  4  5  1  0
  4 22  1  0
  4 23  1  0
  5  6  1  0
  5 24  1  0
  5 25  1  0
  6  7  1  0
  7  8  2  0
  7 18  1  0
  8  9  1  0
  8 26  1  0
  9 10  1  0
  9 11  2  0
 11 12  1  0
 11 27  1  0
 12 13  1  0
 12 18  2  0
 13 14  2  0
 13 28  1  0
 14 15  1  0
 14 29  1  0
 15 16  2  0
 15 17  1  0
 17 30  1  0
 18 31  1  0
M  END

