
     RDKit          3D

 45 45  0  0  0  0  0  0  0  0999 V2000
    3.0174    0.6429   -1.7848 C   0  0  0  0  0  0  0  0  0  0  0  0
    3.0687    1.1508   -0.3428 C   0  0  0  0  0  0  0  0  0  0  0  0
    2.8107    2.6616   -0.1771 C   0  0  1  0  0  0  0  0  0  0  0  0
    1.4298    3.1162   -0.6844 C   0  0  0  0  0  0  0  0  0  0  0  0
    0.2786    2.3897   -0.1658 N   0  0  0  0  0  0  0  0  0  0  0  0
   -0.4775    2.8695    0.8691 C   0  0  0  0  0  0  0  0  0  0  0  0
   -0.1431    3.8837    1.4964 O   0  0  0  0  0  0  0  0  0  0  0  0
   -1.6061    2.1653    1.1787 N   0  0  0  0  0  0  0  0  0  0  0  0
   -2.5140    2.6119    2.2272 C   0  0  0  0  0  0  0  0  0  0  0  0
   -3.5817    3.5963    1.7353 C   0  0  0  0  0  0  0  0  0  0  0  0
   -4.5891    4.0356    2.8166 C   0  0  1  0  0  0  0  0  0  0  0  0
   -3.9488    4.8133    3.9895 C   0  0  0  0  0  0  0  0  0  0  0  0
   -3.4932    6.2254    3.5936 C   0  0  0  0  0  0  0  0  0  0  0  0
   -4.6457    7.0343    2.9824 C   0  0  0  0  0  0  0  0  0  0  0  0
   -5.3022    6.2908    1.8112 C   0  0  0  0  0  0  0  0  0  0  0  0
   -5.7388    4.8744    2.2159 C   0  0  0  0  0  0  0  0  0  0  0  0
    3.2404    3.1034    1.2462 C   0  0  0  0  0  0  0  0  0  0  0  0
    4.3261    2.7710    1.6592 O   0  0  0  0  0  0  0  0  0  0  0  0
    2.4494    3.8913    1.9662 O   0  0  0  0  0  0  0  0  0  0  0  0
    3.2837   -0.4248   -1.8327 H   0  0  0  0  0  0  0  0  0  0  0  0
    3.7283    1.1890   -2.4275 H   0  0  0  0  0  0  0  0  0  0  0  0
    2.0193    0.7454   -2.2448 H   0  0  0  0  0  0  0  0  0  0  0  0
    4.0600    0.9491    0.0875 H   0  0  0  0  0  0  0  0  0  0  0  0
    2.3474    0.5923    0.2810 H   0  0  0  0  0  0  0  0  0  0  0  0
    3.5434    3.1865   -0.8190 H   0  0  0  0  0  0  0  0  0  0  0  0
    1.4151    3.0261   -1.7823 H   0  0  0  0  0  0  0  0  0  0  0  0
    1.2742    4.1808   -0.4589 H   0  0  0  0  0  0  0  0  0  0  0  0
    0.0517    1.4914   -0.5736 H   0  0  0  0  0  0  0  0  0  0  0  0
   -1.9561    1.4930    0.5061 H   0  0  0  0  0  0  0  0  0  0  0  0
   -1.8917    3.0758    3.0035 H   0  0  0  0  0  0  0  0  0  0  0  0
   -2.9875    1.7204    2.6727 H   0  0  0  0  0  0  0  0  0  0  0  0
   -4.1418    3.1237    0.9074 H   0  0  0  0  0  0  0  0  0  0  0  0
   -3.0648    4.4666    1.3001 H   0  0  0  0  0  0  0  0  0  0  0  0
   -5.0344    3.1118    3.2317 H   0  0  0  0  0  0  0  0  0  0  0  0
   -3.1076    4.2488    4.4239 H   0  0  0  0  0  0  0  0  0  0  0  0
   -4.7016    4.8956    4.7944 H   0  0  0  0  0  0  0  0  0  0  0  0
   -2.6582    6.1618    2.8733 H   0  0  0  0  0  0  0  0  0  0  0  0
   -3.0888    6.7468    4.4774 H   0  0  0  0  0  0  0  0  0  0  0  0
   -4.2895    8.0260    2.6560 H   0  0  0  0  0  0  0  0  0  0  0  0
   -5.4077    7.2204    3.7624 H   0  0  0  0  0  0  0  0  0  0  0  0
   -4.5915    6.2381    0.9670 H   0  0  0  0  0  0  0  0  0  0  0  0
   -6.1728    6.8571    1.4389 H   0  0  0  0  0  0  0  0  0  0  0  0
   -6.1793    4.3475    1.3516 H   0  0  0  0  0  0  0  0  0  0  0  0
   -6.5425    4.9546    2.9701 H   0  0  0  0  0  0  0  0  0  0  0  0
    1.4995    3.9652    1.6776 H   0  0  0  0  0  0  0  0  0  0  0  0
  1  2  1  0
  1 20  1  0
  1 21  1  0
  1 22  1  0
  2  3  1  0
  2 23  1  0
  2 24  1  0
  3  4  1  0
  3 17  1  0
  3 25  1  6
  4  5  1  0
  4 26  1  0
  4 27  1  0
  5  6  1  0
  5 28  1  0
  6  7  2  0
  6  8  1  0
  8  9  1  0
  8 29  1  0
  9 10  1  0
  9 30  1  0
  9 31  1  0
 10 11  1  0
 10 32  1  0
 10 33  1  0
 11 12  1  0
 11 16  1  0
 11 34  1  1
 12 13  1  0
 12 35  1  0
 12 36  1  0
 13 14  1  0
 13 37  1  0
 13 38  1  0
 14 15  1  0
 14 39  1  0
 14 40  1  0
 15 16  1  0
 15 41  1  0
 15 42  1  0
 16 43  1  0
 16 44  1  0
 17 18  2  0
 17 19  1  0
 19 45  1  0
M  END

