
     RDKit          3D

 44 44  0  0  0  0  0  0  0  0999 V2000
    8.2652    3.9926    1.3561 C   0  0  0  0  0  0  0  0  0  0  0  0
    7.9326    2.6419    1.5252 O   0  0  0  0  0  0  0  0  0  0  0  0
    6.9941    2.1585    0.5904 C   0  0  0  0  0  0  0  0  0  0  0  0
    6.7293    0.6864    0.8704 C   0  0  0  0  0  0  0  0  0  0  0  0
    6.1548    0.4035    2.2767 C   0  0  1  0  0  0  0  0  0  0  0  0
    4.7041    0.8897    2.4260 C   0  0  0  0  0  0  0  0  0  0  0  0
    6.2074   -1.1119    2.5405 C   0  0  0  0  0  0  0  0  0  0  0  0
    5.5155   -1.8484    1.8669 O   0  0  0  0  0  0  0  0  0  0  0  0
    7.1054   -1.6538    3.6755 C   0  0  1  0  0  0  0  0  0  0  0  0
    6.5507   -1.0446    5.0035 C   0  0  0  0  0  0  0  0  0  0  0  0
    7.2742   -1.5074    6.1835 N   0  0  0  0  0  0  0  0  0  0  0  0
    7.0175   -3.1961    3.7390 C   0  0  0  0  0  0  0  0  0  0  0  0
    7.7602   -3.9185    2.6058 C   0  0  0  0  0  0  0  0  0  0  0  0
    9.2361   -3.4927    2.4860 C   0  0  2  0  0  0  0  0  0  0  0  0
   10.1100   -4.0272    3.6306 C   0  0  0  0  0  0  0  0  0  0  0  0
    9.3071   -1.9593    2.3517 C   0  0  0  0  0  0  0  0  0  0  0  0
    8.5821   -1.2156    3.4827 C   0  0  0  0  0  0  0  0  0  0  0  0
    8.9969    4.2612    2.1323 H   0  0  0  0  0  0  0  0  0  0  0  0
    7.3818    4.6559    1.4600 H   0  0  0  0  0  0  0  0  0  0  0  0
    8.7185    4.1884    0.3626 H   0  0  0  0  0  0  0  0  0  0  0  0
    7.3834    2.2747   -0.4432 H   0  0  0  0  0  0  0  0  0  0  0  0
    6.0579    2.7534    0.6428 H   0  0  0  0  0  0  0  0  0  0  0  0
    7.6843    0.1498    0.7476 H   0  0  0  0  0  0  0  0  0  0  0  0
    6.0424    0.2841    0.1075 H   0  0  0  0  0  0  0  0  0  0  0  0
    6.7892    0.9356    2.9990 H   0  0  0  0  0  0  0  0  0  0  0  0
    4.0462    0.3350    1.7398 H   0  0  0  0  0  0  0  0  0  0  0  0
    4.6165    1.9651    2.2081 H   0  0  0  0  0  0  0  0  0  0  0  0
    4.3316    0.7312    3.4506 H   0  0  0  0  0  0  0  0  0  0  0  0
    5.4615   -1.2537    5.0508 H   0  0  0  0  0  0  0  0  0  0  0  0
    6.6567    0.0503    4.9563 H   0  0  0  0  0  0  0  0  0  0  0  0
    6.8905   -2.3836    6.5332 H   0  0  0  0  0  0  0  0  0  0  0  0
    7.1940   -0.8328    6.9417 H   0  0  0  0  0  0  0  0  0  0  0  0
    5.9579   -3.4975    3.7333 H   0  0  0  0  0  0  0  0  0  0  0  0
    7.4435   -3.5151    4.7036 H   0  0  0  0  0  0  0  0  0  0  0  0
    7.2450   -3.7103    1.6551 H   0  0  0  0  0  0  0  0  0  0  0  0
    7.6946   -5.0092    2.7640 H   0  0  0  0  0  0  0  0  0  0  0  0
    9.6324   -3.9262    1.5501 H   0  0  0  0  0  0  0  0  0  0  0  0
    9.7991   -3.6433    4.6152 H   0  0  0  0  0  0  0  0  0  0  0  0
   11.1656   -3.7428    3.4869 H   0  0  0  0  0  0  0  0  0  0  0  0
   10.0656   -5.1279    3.6772 H   0  0  0  0  0  0  0  0  0  0  0  0
    8.8665   -1.6749    1.3793 H   0  0  0  0  0  0  0  0  0  0  0  0
   10.3599   -1.6292    2.3156 H   0  0  0  0  0  0  0  0  0  0  0  0
    8.6404   -0.1286    3.3074 H   0  0  0  0  0  0  0  0  0  0  0  0
    9.0874   -1.3946    4.4444 H   0  0  0  0  0  0  0  0  0  0  0  0
  1  2  1  0
  1 18  1  0
  1 19  1  0
  1 20  1  0
  2  3  1  0
  3  4  1  0
  3 21  1  0
  3 22  1  0
  4  5  1  0
  4 23  1  0
  4 24  1  0
  5  6  1  0
  5  7  1  0
  5 25  1  1
  6 26  1  0
  6 27  1  0
  6 28  1  0
  7  8  2  0
  9  7  1  6
  9 10  1  0
  9 12  1  0
  9 17  1  0
 10 11  1  0
 10 29  1  0
 10 30  1  0
 11 31  1  0
 11 32  1  0
 12 13  1  0
 12 33  1  0
 12 34  1  0
 13 14  1  0
 13 35  1  0
 13 36  1  0
 14 15  1  0
 14 16  1  0
 14 37  1  6
 15 38  1  0
 15 39  1  0
 15 40  1  0
 16 17  1  0
 16 41  1  0
 16 42  1  0
 17 43  1  0
 17 44  1  0
M  END

