
     RDKit          3D

 44 43  0  0  0  0  0  0  0  0999 V2000
    1.2553    0.2550   -0.2575 C   0  0  0  0  0  0  0  0  0  0  0  0
    2.3649   -0.4181    0.0543 C   0  0  0  0  0  0  0  0  0  0  0  0
    2.9803   -0.4730    1.4210 C   0  0  0  0  0  0  0  0  0  0  0  0
    4.3589   -0.1979    1.3235 O   0  0  0  0  0  0  0  0  0  0  0  0
    5.0571   -0.3265    2.5417 C   0  0  0  0  0  0  0  0  0  0  0  0
    6.5345   -0.0750    2.2732 C   0  0  0  0  0  0  0  0  0  0  0  0
    7.3714   -0.0704    3.5507 C   0  0  1  0  0  0  0  0  0  0  0  0
    7.0575    0.7931    4.1736 H   0  0  0  0  0  0  0  0  0  0  0  0
    7.1073   -1.2776    4.2332 O   0  0  0  0  0  0  0  0  0  0  0  0
    8.8951    0.0656    3.2781 C   0  0  1  0  0  0  0  0  0  0  0  0
    9.1879   -0.8717    2.7668 H   0  0  0  0  0  0  0  0  0  0  0  0
    9.3044    1.2473    2.3706 C   0  0  0  0  0  0  0  0  0  0  0  0
    9.0359    2.6464    2.9427 C   0  0  0  0  0  0  0  0  0  0  0  0
    9.5306    3.7989    2.0564 C   0  0  0  0  0  0  0  0  0  0  0  0
    8.8003    3.9545    0.7176 C   0  0  0  0  0  0  0  0  0  0  0  0
    9.2753    5.1596   -0.1010 C   0  0  0  0  0  0  0  0  0  0  0  0
    8.5472    5.3171   -1.4365 C   0  0  0  0  0  0  0  0  0  0  0  0
    9.6622    0.0421    4.6091 C   0  0  0  0  0  0  0  0  0  0  0  0
    9.1731   -0.2718    5.6682 O   0  0  0  0  0  0  0  0  0  0  0  0
   10.9682    0.3637    4.5597 O   0  0  0  0  0  0  0  0  0  0  0  0
    0.8344    0.2294   -1.2665 H   0  0  0  0  0  0  0  0  0  0  0  0
    0.7199    0.8550    0.4862 H   0  0  0  0  0  0  0  0  0  0  0  0
    2.8893   -1.0031   -0.7111 H   0  0  0  0  0  0  0  0  0  0  0  0
    2.8287   -1.4869    1.8552 H   0  0  0  0  0  0  0  0  0  0  0  0
    2.4743    0.2415    2.1041 H   0  0  0  0  0  0  0  0  0  0  0  0
    4.9156   -1.3331    2.9780 H   0  0  0  0  0  0  0  0  0  0  0  0
    4.6753    0.4029    3.2889 H   0  0  0  0  0  0  0  0  0  0  0  0
    6.6222    0.8899    1.7503 H   0  0  0  0  0  0  0  0  0  0  0  0
    6.9074   -0.8535    1.5854 H   0  0  0  0  0  0  0  0  0  0  0  0
    7.5900   -1.2151    5.0750 H   0  0  0  0  0  0  0  0  0  0  0  0
    8.7950    1.1259    1.4033 H   0  0  0  0  0  0  0  0  0  0  0  0
   10.3796    1.1649    2.1117 H   0  0  0  0  0  0  0  0  0  0  0  0
    9.5190    2.7307    3.9319 H   0  0  0  0  0  0  0  0  0  0  0  0
    7.9540    2.7687    3.1244 H   0  0  0  0  0  0  0  0  0  0  0  0
   10.6146    3.6770    1.8700 H   0  0  0  0  0  0  0  0  0  0  0  0
    9.4320    4.7407    2.6244 H   0  0  0  0  0  0  0  0  0  0  0  0
    7.7141    4.0470    0.9054 H   0  0  0  0  0  0  0  0  0  0  0  0
    8.9221    3.0406    0.1081 H   0  0  0  0  0  0  0  0  0  0  0  0
   10.3623    5.0693   -0.2811 H   0  0  0  0  0  0  0  0  0  0  0  0
    9.1480    6.0783    0.5002 H   0  0  0  0  0  0  0  0  0  0  0  0
    8.6872    4.4304   -2.0773 H   0  0  0  0  0  0  0  0  0  0  0  0
    8.9137    6.1924   -1.9962 H   0  0  0  0  0  0  0  0  0  0  0  0
    7.4620    5.4472   -1.2889 H   0  0  0  0  0  0  0  0  0  0  0  0
   11.2210    0.6076    3.6573 H   0  0  0  0  0  0  0  0  0  0  0  0
  1  2  2  0
  1 21  1  0
  1 22  1  0
  2  3  1  0
  2 23  1  0
  3  4  1  0
  3 24  1  0
  3 25  1  0
  4  5  1  0
  5  6  1  0
  5 26  1  0
  5 27  1  0
  6  7  1  0
  6 28  1  0
  6 29  1  0
  7  8  1  1
  7  9  1  0
  7 10  1  0
  9 30  1  0
 10 11  1  6
 10 12  1  0
 10 18  1  0
 12 13  1  0
 12 31  1  0
 12 32  1  0
 13 14  1  0
 13 33  1  0
 13 34  1  0
 14 15  1  0
 14 35  1  0
 14 36  1  0
 15 16  1  0
 15 37  1  0
 15 38  1  0
 16 17  1  0
 16 39  1  0
 16 40  1  0
 17 41  1  0
 17 42  1  0
 17 43  1  0
 18 19  2  0
 18 20  1  0
 20 44  1  0
M  END

