
     RDKit          3D

 51 54  0  0  0  0  0  0  0  0999 V2000
    3.0346   -1.0330   -0.6964 C   0  0  0  0  0  0  0  0  0  0  0  0
    2.5466    0.2324   -0.3184 O   0  0  0  0  0  0  0  0  0  0  0  0
    3.2415    0.9686    0.5884 C   0  0  0  0  0  0  0  0  0  0  0  0
    4.4378    0.5614    1.1972 C   0  0  0  0  0  0  0  0  0  0  0  0
    5.0701    1.4001    2.1215 C   0  0  0  0  0  0  0  0  0  0  0  0
    4.5338    2.6488    2.4708 C   0  0  0  0  0  0  0  0  0  0  0  0
    5.1849    3.5662    3.4254 C   0  0  0  0  0  0  0  0  0  0  0  0
    5.0000    4.9216    3.3107 N   0  0  0  0  0  0  0  0  0  0  0  0
    5.7277    5.4990    4.2485 C   0  0  0  0  0  0  0  0  0  0  0  0
    5.8235    6.9433    4.4886 C   0  0  0  0  0  0  0  0  0  0  0  0
    4.9530    7.8056    3.8038 C   0  0  0  0  0  0  0  0  0  0  0  0
    5.0252    9.1828    4.0251 C   0  0  0  0  0  0  0  0  0  0  0  0
    5.9504    9.7184    4.9181 C   0  0  0  0  0  0  0  0  0  0  0  0
    6.8307    8.8639    5.6041 C   0  0  0  0  0  0  0  0  0  0  0  0
    7.7083    9.4667    6.4492 O   0  0  0  0  0  0  0  0  0  0  0  0
    8.6250    8.6824    7.1736 C   0  0  0  0  0  0  0  0  0  0  0  0
    6.7691    7.4813    5.3868 C   0  0  0  0  0  0  0  0  0  0  0  0
    6.3933    4.5494    4.9788 N   0  0  0  0  0  0  0  0  0  0  0  0
    6.9255    4.7039    5.8254 H   0  0  0  0  0  0  0  0  0  0  0  0
    6.0508    3.2999    4.4941 C   0  0  0  0  0  0  0  0  0  0  0  0
    6.5581    2.0807    5.1403 C   0  0  0  0  0  0  0  0  0  0  0  0
    5.7217    0.9674    5.3784 C   0  0  0  0  0  0  0  0  0  0  0  0
    6.1982   -0.1656    6.0229 C   0  0  0  0  0  0  0  0  0  0  0  0
    7.5324   -0.2299    6.4672 C   0  0  0  0  0  0  0  0  0  0  0  0
    7.9022   -1.3773    7.0884 O   0  0  0  0  0  0  0  0  0  0  0  0
    9.2223   -1.5116    7.5636 C   0  0  0  0  0  0  0  0  0  0  0  0
    8.3777    0.8674    6.2480 C   0  0  0  0  0  0  0  0  0  0  0  0
    7.8876    2.0000    5.5886 C   0  0  0  0  0  0  0  0  0  0  0  0
    3.3396    3.0480    1.8334 C   0  0  0  0  0  0  0  0  0  0  0  0
    2.7021    2.2258    0.9139 C   0  0  0  0  0  0  0  0  0  0  0  0
    2.3207   -1.4407   -1.4253 H   0  0  0  0  0  0  0  0  0  0  0  0
    3.1002   -1.7248    0.1634 H   0  0  0  0  0  0  0  0  0  0  0  0
    4.0304   -0.9672   -1.1719 H   0  0  0  0  0  0  0  0  0  0  0  0
    4.8951   -0.3979    0.9539 H   0  0  0  0  0  0  0  0  0  0  0  0
    6.0130    1.0716    2.5620 H   0  0  0  0  0  0  0  0  0  0  0  0
    4.2321    7.3769    3.1073 H   0  0  0  0  0  0  0  0  0  0  0  0
    4.3454    9.8523    3.4917 H   0  0  0  0  0  0  0  0  0  0  0  0
    6.0187   10.7922    5.1027 H   0  0  0  0  0  0  0  0  0  0  0  0
    9.2175    9.3759    7.7857 H   0  0  0  0  0  0  0  0  0  0  0  0
    9.3089    8.1238    6.5081 H   0  0  0  0  0  0  0  0  0  0  0  0
    8.1168    7.9638    7.8430 H   0  0  0  0  0  0  0  0  0  0  0  0
    7.4706    6.8225    5.8986 H   0  0  0  0  0  0  0  0  0  0  0  0
    4.6789    1.0039    5.0580 H   0  0  0  0  0  0  0  0  0  0  0  0
    5.5494   -1.0237    6.2100 H   0  0  0  0  0  0  0  0  0  0  0  0
    9.2896   -2.5058    8.0256 H   0  0  0  0  0  0  0  0  0  0  0  0
    9.4662   -0.7474    8.3238 H   0  0  0  0  0  0  0  0  0  0  0  0
    9.9631   -1.4471    6.7460 H   0  0  0  0  0  0  0  0  0  0  0  0
    9.4187    0.8498    6.5712 H   0  0  0  0  0  0  0  0  0  0  0  0
    8.5718    2.8321    5.4003 H   0  0  0  0  0  0  0  0  0  0  0  0
    2.9229    4.0274    2.0740 H   0  0  0  0  0  0  0  0  0  0  0  0
    1.7752    2.5335    0.4251 H   0  0  0  0  0  0  0  0  0  0  0  0
  1  2  1  0
  1 31  1  0
  1 32  1  0
  1 33  1  0
  2  3  1  0
  3  4  2  0
  3 30  1  0
  4  5  1  0
  4 34  1  0
  5  6  2  0
  5 35  1  0
  6  7  1  0
  6 29  1  0
  7  8  1  0
  7 20  2  0
  8  9  2  0
  9 10  1  0
  9 18  1  0
 10 11  2  0
 10 17  1  0
 11 12  1  0
 11 36  1  0
 12 13  2  0
 12 37  1  0
 13 14  1  0
 13 38  1  0
 14 15  1  0
 14 17  2  0
 15 16  1  0
 16 39  1  0
 16 40  1  0
 16 41  1  0
 17 42  1  0
 18 19  1  0
 18 20  1  0
 20 21  1  0
 21 22  2  0
 21 28  1  0
 22 23  1  0
 22 43  1  0
 23 24  2  0
 23 44  1  0
 24 25  1  0
 24 27  1  0
 25 26  1  0
 26 45  1  0
 26 46  1  0
 26 47  1  0
 27 28  2  0
 27 48  1  0
 28 49  1  0
 29 30  2  0
 29 50  1  0
 30 51  1  0
M  END

