
     RDKit          3D

 78 82  0  0  0  0  0  0  0  0999 V2000
    9.7442    2.5094    4.3119 N   0  0  0  0  0  0  0  0  0  0  0  0
   10.1844    1.8407    3.1696 C   0  0  0  0  0  0  0  0  0  0  0  0
   10.8868    0.6760    3.4580 N   0  0  0  0  0  0  0  0  0  0  0  0
    9.9274    2.3138    2.0086 N   0  0  0  0  0  0  0  0  0  0  0  0
   10.5047    1.7003    0.8367 C   0  0  0  0  0  0  0  0  0  0  0  0
   10.3347    2.6037   -0.3858 C   0  0  0  0  0  0  0  0  0  0  0  0
   10.9339    2.0265   -1.6648 C   0  0  0  0  0  0  0  0  0  0  0  0
   10.6980    2.8960   -2.8059 N   0  0  0  0  0  0  0  0  0  0  0  0
   11.2703    2.4321   -4.0554 C   0  0  0  0  0  0  0  0  0  0  0  0
   10.9151    3.3259   -5.2270 C   0  0  0  0  0  0  0  0  0  0  0  0
   11.8185    3.5278   -6.2780 C   0  0  0  0  0  0  0  0  0  0  0  0
   11.4726    4.3104   -7.3825 C   0  0  0  0  0  0  0  0  0  0  0  0
   10.2164    4.9245   -7.4411 C   0  0  0  0  0  0  0  0  0  0  0  0
    9.8897    5.7658   -8.5593 N   0  0  0  0  0  0  0  0  0  0  0  0
   10.7497    6.7604   -8.9041 C   0  0  0  0  0  0  0  0  0  0  0  0
   10.4882    7.5318  -10.0110 C   0  0  0  0  0  0  0  0  0  0  0  0
   11.0959    8.6336  -10.7094 C   0  0  0  0  0  0  0  0  0  0  0  0
   10.2787    8.9377  -11.7763 C   0  0  0  0  0  0  0  0  0  0  0  0
   10.4174    9.9799  -12.7940 C   0  0  0  0  0  0  0  0  0  0  0  0
   11.6705   10.5785  -13.0457 C   0  0  0  0  0  0  0  0  0  0  0  0
   11.8071   11.5780  -14.0008 C   0  0  0  0  0  0  0  0  0  0  0  0
   10.7057   12.0050  -14.7617 C   0  0  0  0  0  0  0  0  0  0  0  0
   10.9421   13.0933  -15.7770 C   0  0  0  0  0  0  0  0  0  0  0  0
   11.9373   13.8027  -15.7244 O   0  0  0  0  0  0  0  0  0  0  0  0
    9.9816   13.2339  -16.7399 N   0  0  0  0  0  0  0  0  0  0  0  0
   10.1098   14.1829  -17.8315 C   0  0  0  0  0  0  0  0  0  0  0  0
   10.0861   13.4943  -19.1709 C   0  0  0  0  0  0  0  0  0  0  0  0
   10.9875   13.6676  -20.1804 C   0  0  0  0  0  0  0  0  0  0  0  0
   10.5448   12.6804  -21.5541 S   0  0  0  0  0  0  0  0  0  0  0  0
    9.1616   12.0924  -20.6208 C   0  0  0  0  0  0  0  0  0  0  0  0
    8.2778   11.1993  -21.1612 N   0  0  0  0  0  0  0  0  0  0  0  0
    7.2484   10.5565  -20.3452 C   0  0  0  0  0  0  0  0  0  0  0  0
    5.9914   11.4187  -20.2172 C   0  0  0  0  0  0  0  0  0  0  0  0
    5.4166   11.7040  -21.4710 O   0  0  0  0  0  0  0  0  0  0  0  0
    9.0617   12.6031  -19.4250 N   0  0  0  0  0  0  0  0  0  0  0  0
    9.4544   11.4234  -14.5099 C   0  0  0  0  0  0  0  0  0  0  0  0
    9.3112   10.4295  -13.5421 C   0  0  0  0  0  0  0  0  0  0  0  0
    9.1751    8.0687  -11.7602 N   0  0  0  0  0  0  0  0  0  0  0  0
    8.4533    8.0059  -12.4666 H   0  0  0  0  0  0  0  0  0  0  0  0
    9.2724    7.1968  -10.7117 C   0  0  0  0  0  0  0  0  0  0  0  0
    8.4193    6.2517  -10.4187 N   0  0  0  0  0  0  0  0  0  0  0  0
    8.6560    5.4727   -9.3215 C   0  0  0  0  0  0  0  0  0  0  0  0
    7.9443    4.5726   -8.9320 O   0  0  0  0  0  0  0  0  0  0  0  0
    9.3019    4.7310   -6.3974 C   0  0  0  0  0  0  0  0  0  0  0  0
    9.6541    3.9404   -5.3056 C   0  0  0  0  0  0  0  0  0  0  0  0
    9.3477    1.9047    5.0274 H   0  0  0  0  0  0  0  0  0  0  0  0
    9.1198    3.2728    4.0680 H   0  0  0  0  0  0  0  0  0  0  0  0
   11.4177    0.6837    4.3230 H   0  0  0  0  0  0  0  0  0  0  0  0
   11.3887    0.2572    2.6841 H   0  0  0  0  0  0  0  0  0  0  0  0
   10.0241    0.7208    0.6221 H   0  0  0  0  0  0  0  0  0  0  0  0
   11.5900    1.4771    0.9675 H   0  0  0  0  0  0  0  0  0  0  0  0
   10.7991    3.5806   -0.1590 H   0  0  0  0  0  0  0  0  0  0  0  0
    9.2617    2.8014   -0.5399 H   0  0  0  0  0  0  0  0  0  0  0  0
   10.4703    1.0459   -1.8822 H   0  0  0  0  0  0  0  0  0  0  0  0
   12.0186    1.8158   -1.5052 H   0  0  0  0  0  0  0  0  0  0  0  0
   11.0260    3.8403   -2.6021 H   0  0  0  0  0  0  0  0  0  0  0  0
   10.8694    1.4182   -4.2488 H   0  0  0  0  0  0  0  0  0  0  0  0
   12.3771    2.3070   -4.0188 H   0  0  0  0  0  0  0  0  0  0  0  0
   12.8064    3.0597   -6.2422 H   0  0  0  0  0  0  0  0  0  0  0  0
   12.1786    4.4351   -8.2070 H   0  0  0  0  0  0  0  0  0  0  0  0
   11.6180    6.9023   -8.2571 H   0  0  0  0  0  0  0  0  0  0  0  0
   12.0068    9.1602  -10.4358 H   0  0  0  0  0  0  0  0  0  0  0  0
   12.5492   10.2399  -12.4931 H   0  0  0  0  0  0  0  0  0  0  0  0
   12.7735   12.0494  -14.1886 H   0  0  0  0  0  0  0  0  0  0  0  0
    9.2831   12.5102  -16.8634 H   0  0  0  0  0  0  0  0  0  0  0  0
   11.0501   14.7290  -17.6837 H   0  0  0  0  0  0  0  0  0  0  0  0
    9.2816   14.9151  -17.7891 H   0  0  0  0  0  0  0  0  0  0  0  0
   11.8747   14.2967  -20.2027 H   0  0  0  0  0  0  0  0  0  0  0  0
    8.5785   10.7145  -21.9968 H   0  0  0  0  0  0  0  0  0  0  0  0
    7.6507   10.3244  -19.3439 H   0  0  0  0  0  0  0  0  0  0  0  0
    6.9849    9.6101  -20.8414 H   0  0  0  0  0  0  0  0  0  0  0  0
    6.2403   12.3381  -19.6532 H   0  0  0  0  0  0  0  0  0  0  0  0
    5.2384   10.8652  -19.6323 H   0  0  0  0  0  0  0  0  0  0  0  0
    6.0873   12.1766  -21.9838 H   0  0  0  0  0  0  0  0  0  0  0  0
    8.5645   11.7668  -15.0428 H   0  0  0  0  0  0  0  0  0  0  0  0
    8.3142   10.0279  -13.3463 H   0  0  0  0  0  0  0  0  0  0  0  0
    8.3163    5.1923   -6.4501 H   0  0  0  0  0  0  0  0  0  0  0  0
    8.9511    3.7949   -4.4832 H   0  0  0  0  0  0  0  0  0  0  0  0
  1  2  1  0
  1 46  1  0
  1 47  1  0
  2  3  1  0
  2  4  2  0
  3 48  1  0
  3 49  1  0
  4  5  1  0
  5  6  1  0
  5 50  1  0
  5 51  1  0
  6  7  1  0
  6 52  1  0
  6 53  1  0
  7  8  1  0
  7 54  1  0
  7 55  1  0
  8  9  1  0
  8 56  1  0
  9 10  1  0
  9 57  1  0
  9 58  1  0
 10 11  2  0
 10 45  1  0
 11 12  1  0
 11 59  1  0
 12 13  2  0
 12 60  1  0
 13 14  1  0
 13 44  1  0
 14 15  1  0
 14 42  1  0
 15 16  2  0
 15 61  1  0
 16 17  1  0
 16 40  1  0
 17 18  2  0
 17 62  1  0
 18 19  1  0
 18 38  1  0
 19 20  2  0
 19 37  1  0
 20 21  1  0
 20 63  1  0
 21 22  2  0
 21 64  1  0
 22 23  1  0
 22 36  1  0
 23 24  2  0
 23 25  1  0
 25 26  1  0
 25 65  1  0
 26 27  1  0
 26 66  1  0
 26 67  1  0
 27 28  2  0
 27 35  1  0
 28 29  1  0
 28 68  1  0
 29 30  1  0
 30 31  1  0
 30 35  2  0
 31 32  1  0
 31 69  1  0
 32 33  1  0
 32 70  1  0
 32 71  1  0
 33 34  1  0
 33 72  1  0
 33 73  1  0
 34 74  1  0
 36 37  2  0
 36 75  1  0
 37 76  1  0
 38 39  1  0
 38 40  1  0
 40 41  2  0
 41 42  1  0
 42 43  2  0
 44 45  2  0
 44 77  1  0
 45 78  1  0
M  END

