
     RDKit          3D

 46 48  0  0  0  0  0  0  0  0999 V2000
    4.5601    1.1218    2.7652 C   0  0  0  0  0  0  0  0  0  0  0  0
    3.7126    1.0461    1.5878 N   0  0  0  0  0  0  0  0  0  0  0  0
    2.9733   -0.1919    1.3535 C   0  0  1  0  0  0  0  0  0  0  0  0
    2.4960   -0.0555    0.3636 H   0  0  0  0  0  0  0  0  0  0  0  0
    3.8235   -1.4717    1.2523 C   0  0  0  0  0  0  0  0  0  0  0  0
    2.9290   -2.6975    1.0863 C   0  0  0  0  0  0  0  0  0  0  0  0
    2.0391   -2.9182    2.3321 C   0  0  1  0  0  0  0  0  0  0  0  0
    1.2357   -3.6154    2.0400 H   0  0  0  0  0  0  0  0  0  0  0  0
    2.8068   -3.6098    3.4612 C   0  0  0  0  0  0  0  0  0  0  0  0
    3.4246   -2.9070    4.5049 C   0  0  0  0  0  0  0  0  0  0  0  0
    4.1556   -3.5832    5.4843 C   0  0  0  0  0  0  0  0  0  0  0  0
    4.2713   -4.9723    5.4300 C   0  0  0  0  0  0  0  0  0  0  0  0
    5.1925   -5.7919    6.6793 Cl  0  0  0  0  0  0  0  0  0  0  0  0
    3.6623   -5.7221    4.4071 C   0  0  0  0  0  0  0  0  0  0  0  0
    3.7736   -7.2229    4.3507 C   0  0  0  0  0  0  0  0  0  0  0  0
    2.9386   -5.0075    3.4420 C   0  0  0  0  0  0  0  0  0  0  0  0
    1.3655   -1.6226    2.7711 C   0  0  0  0  0  0  0  0  0  0  0  0
    0.2557   -1.6994    3.6328 C   0  0  0  0  0  0  0  0  0  0  0  0
   -0.4055   -0.5600    4.0758 C   0  0  0  0  0  0  0  0  0  0  0  0
    0.0432    0.7039    3.6568 C   0  0  0  0  0  0  0  0  0  0  0  0
   -0.6131    1.9722    4.0903 C   0  0  0  0  0  0  0  0  0  0  0  0
   -0.2594    3.0812    3.7606 O   0  0  0  0  0  0  0  0  0  0  0  0
   -1.6666    1.7549    4.9066 O   0  0  0  0  0  0  0  0  0  0  0  0
   -2.3522    2.9154    5.3691 C   0  0  0  0  0  0  0  0  0  0  0  0
    1.1440    0.7908    2.7988 C   0  0  0  0  0  0  0  0  0  0  0  0
    1.8165   -0.3542    2.3473 C   0  0  0  0  0  0  0  0  0  0  0  0
    5.0042    2.1278    2.8269 H   0  0  0  0  0  0  0  0  0  0  0  0
    5.3912    0.3864    2.8051 H   0  0  0  0  0  0  0  0  0  0  0  0
    3.9532    0.9827    3.6746 H   0  0  0  0  0  0  0  0  0  0  0  0
    4.2306    1.3042    0.7515 H   0  0  0  0  0  0  0  0  0  0  0  0
    4.4481   -1.5900    2.1531 H   0  0  0  0  0  0  0  0  0  0  0  0
    4.5163   -1.3766    0.3991 H   0  0  0  0  0  0  0  0  0  0  0  0
    3.5267   -3.6022    0.8947 H   0  0  0  0  0  0  0  0  0  0  0  0
    2.2767   -2.5573    0.2055 H   0  0  0  0  0  0  0  0  0  0  0  0
    3.3270   -1.8216    4.5692 H   0  0  0  0  0  0  0  0  0  0  0  0
    4.6353   -3.0365    6.2979 H   0  0  0  0  0  0  0  0  0  0  0  0
    4.8267   -7.5420    4.2862 H   0  0  0  0  0  0  0  0  0  0  0  0
    3.2348   -7.6270    3.4818 H   0  0  0  0  0  0  0  0  0  0  0  0
    3.3633   -7.6879    5.2619 H   0  0  0  0  0  0  0  0  0  0  0  0
    2.4540   -5.5739    2.6402 H   0  0  0  0  0  0  0  0  0  0  0  0
   -0.0893   -2.6838    3.9619 H   0  0  0  0  0  0  0  0  0  0  0  0
   -1.2654   -0.6374    4.7419 H   0  0  0  0  0  0  0  0  0  0  0  0
   -3.1594    2.5565    6.0199 H   0  0  0  0  0  0  0  0  0  0  0  0
   -2.7687    3.4880    4.5261 H   0  0  0  0  0  0  0  0  0  0  0  0
   -1.6737    3.5754    5.9311 H   0  0  0  0  0  0  0  0  0  0  0  0
    1.4928    1.7723    2.4752 H   0  0  0  0  0  0  0  0  0  0  0  0
  1  2  1  0
  1 27  1  0
  1 28  1  0
  1 29  1  0
  2  3  1  0
  2 30  1  0
  3  4  1  6
  3  5  1  0
  3 26  1  0
  5  6  1  0
  5 31  1  0
  5 32  1  0
  6  7  1  0
  6 33  1  0
  6 34  1  0
  7  8  1  6
  7  9  1  0
  7 17  1  0
  9 10  2  0
  9 16  1  0
 10 11  1  0
 10 35  1  0
 11 12  2  0
 11 36  1  0
 12 13  1  0
 12 14  1  0
 14 15  1  0
 14 16  2  0
 15 37  1  0
 15 38  1  0
 15 39  1  0
 16 40  1  0
 17 18  1  0
 17 26  2  0
 18 19  2  0
 18 41  1  0
 19 20  1  0
 19 42  1  0
 20 21  1  0
 20 25  2  0
 21 22  2  0
 21 23  1  0
 23 24  1  0
 24 43  1  0
 24 44  1  0
 24 45  1  0
 25 26  1  0
 25 46  1  0
M  END

