
     RDKit          3D

 65 68  0  0  0  0  0  0  0  0999 V2000
   10.8942    9.2603    0.2891 C   0  0  0  0  0  0  0  0  0  0  0  0
   10.4840    7.9949   -0.1696 O   0  0  0  0  0  0  0  0  0  0  0  0
    9.7218    7.2012    0.6426 C   0  0  0  0  0  0  0  0  0  0  0  0
    9.3276    7.5760    1.9343 C   0  0  0  0  0  0  0  0  0  0  0  0
    8.5432    6.7384    2.7319 C   0  0  0  0  0  0  0  0  0  0  0  0
    8.1264    5.4903    2.2566 C   0  0  0  0  0  0  0  0  0  0  0  0
    7.3135    4.5496    3.1190 C   0  0  0  0  0  0  0  0  0  0  0  0
    8.1746    3.6138    3.9844 C   0  0  0  0  0  0  0  0  0  0  0  0
    7.3317    2.6683    4.8493 C   0  0  0  0  0  0  0  0  0  0  0  0
    8.1180    1.7745    5.6812 N   0  0  0  0  0  0  0  0  0  0  0  0
    8.4919    2.1139    6.9547 C   0  0  0  0  0  0  0  0  0  0  0  0
    8.1502    3.1647    7.4788 O   0  0  0  0  0  0  0  0  0  0  0  0
    9.3523    1.1131    7.6821 C   0  0  0  0  0  0  0  0  0  0  0  0
   10.0988    1.5728    8.7791 C   0  0  0  0  0  0  0  0  0  0  0  0
   10.9128    0.7035    9.5014 C   0  0  0  0  0  0  0  0  0  0  0  0
   10.9900   -0.6575    9.1621 C   0  0  0  0  0  0  0  0  0  0  0  0
   11.9208   -1.5937    9.9128 C   0  0  0  0  0  0  0  0  0  0  0  0
   11.9895   -1.3350   11.3397 N   0  0  0  0  0  0  0  0  0  0  0  0
   13.1547   -1.9120   11.9951 C   0  0  0  0  0  0  0  0  0  0  0  0
   13.3404   -1.2846   13.3751 C   0  0  0  0  0  0  0  0  0  0  0  0
   12.0582   -1.2864   14.1795 C   0  0  0  0  0  0  0  0  0  0  0  0
   12.0772   -1.1041   15.5714 C   0  0  0  0  0  0  0  0  0  0  0  0
   10.8959   -1.0797   16.3124 C   0  0  0  0  0  0  0  0  0  0  0  0
    9.6674   -1.2381   15.6614 C   0  0  0  0  0  0  0  0  0  0  0  0
    9.6380   -1.4192   14.2789 C   0  0  0  0  0  0  0  0  0  0  0  0
   10.8229   -1.4448   13.5271 C   0  0  0  0  0  0  0  0  0  0  0  0
   10.7574   -1.6841   12.0325 C   0  0  0  0  0  0  0  0  0  0  0  0
   10.2217   -1.1214    8.0859 C   0  0  0  0  0  0  0  0  0  0  0  0
    9.4149   -0.2488    7.3512 C   0  0  0  0  0  0  0  0  0  0  0  0
    8.5225    5.1185    0.9659 C   0  0  0  0  0  0  0  0  0  0  0  0
    9.3081    5.9378    0.1442 C   0  0  0  0  0  0  0  0  0  0  0  0
    9.5843    5.4092   -1.0775 O   0  0  0  0  0  0  0  0  0  0  0  0
   10.3849    6.0377   -2.0619 C   0  0  0  0  0  0  0  0  0  0  0  0
   11.4792    9.7128   -0.5235 H   0  0  0  0  0  0  0  0  0  0  0  0
   11.5318    9.1883    1.1893 H   0  0  0  0  0  0  0  0  0  0  0  0
   10.0345    9.9165    0.5178 H   0  0  0  0  0  0  0  0  0  0  0  0
    9.6335    8.5446    2.3297 H   0  0  0  0  0  0  0  0  0  0  0  0
    8.2540    7.0703    3.7327 H   0  0  0  0  0  0  0  0  0  0  0  0
    6.6514    3.9423    2.4771 H   0  0  0  0  0  0  0  0  0  0  0  0
    6.6515    5.1363    3.7789 H   0  0  0  0  0  0  0  0  0  0  0  0
    8.8240    4.2125    4.6440 H   0  0  0  0  0  0  0  0  0  0  0  0
    8.8448    3.0251    3.3325 H   0  0  0  0  0  0  0  0  0  0  0  0
    6.6670    2.0605    4.2108 H   0  0  0  0  0  0  0  0  0  0  0  0
    6.6950    3.2564    5.5262 H   0  0  0  0  0  0  0  0  0  0  0  0
    8.5860    0.9960    5.2344 H   0  0  0  0  0  0  0  0  0  0  0  0
   10.0202    2.6280    9.0479 H   0  0  0  0  0  0  0  0  0  0  0  0
   11.4916    1.0635   10.3550 H   0  0  0  0  0  0  0  0  0  0  0  0
   12.9392   -1.4663    9.5039 H   0  0  0  0  0  0  0  0  0  0  0  0
   11.6320   -2.6473    9.6893 H   0  0  0  0  0  0  0  0  0  0  0  0
   14.0427   -1.7179   11.3732 H   0  0  0  0  0  0  0  0  0  0  0  0
   13.0668   -3.0204   12.0904 H   0  0  0  0  0  0  0  0  0  0  0  0
   13.6831   -0.2423   13.2449 H   0  0  0  0  0  0  0  0  0  0  0  0
   14.1368   -1.8121   13.9263 H   0  0  0  0  0  0  0  0  0  0  0  0
   13.0391   -0.9803   16.0785 H   0  0  0  0  0  0  0  0  0  0  0  0
   10.9314   -0.9377   17.3956 H   0  0  0  0  0  0  0  0  0  0  0  0
    8.7347   -1.2176   16.2307 H   0  0  0  0  0  0  0  0  0  0  0  0
    8.6780   -1.5409   13.7678 H   0  0  0  0  0  0  0  0  0  0  0  0
    9.9281   -1.0989   11.6037 H   0  0  0  0  0  0  0  0  0  0  0  0
   10.4969   -2.7578   11.8570 H   0  0  0  0  0  0  0  0  0  0  0  0
   10.2447   -2.1832    7.8236 H   0  0  0  0  0  0  0  0  0  0  0  0
    8.8040   -0.6518    6.5392 H   0  0  0  0  0  0  0  0  0  0  0  0
    8.2197    4.1567    0.5438 H   0  0  0  0  0  0  0  0  0  0  0  0
   10.4164    5.3328   -2.9055 H   0  0  0  0  0  0  0  0  0  0  0  0
   11.4105    6.2235   -1.7074 H   0  0  0  0  0  0  0  0  0  0  0  0
    9.9535    6.9912   -2.4029 H   0  0  0  0  0  0  0  0  0  0  0  0
  1  2  1  0
  1 34  1  0
  1 35  1  0
  1 36  1  0
  2  3  1  0
  3  4  2  0
  3 31  1  0
  4  5  1  0
  4 37  1  0
  5  6  2  0
  5 38  1  0
  6  7  1  0
  6 30  1  0
  7  8  1  0
  7 39  1  0
  7 40  1  0
  8  9  1  0
  8 41  1  0
  8 42  1  0
  9 10  1  0
  9 43  1  0
  9 44  1  0
 10 11  1  0
 10 45  1  0
 11 12  2  0
 11 13  1  0
 13 14  2  0
 13 29  1  0
 14 15  1  0
 14 46  1  0
 15 16  2  0
 15 47  1  0
 16 17  1  0
 16 28  1  0
 17 18  1  0
 17 48  1  0
 17 49  1  0
 18 19  1  0
 18 27  1  0
 19 20  1  0
 19 50  1  0
 19 51  1  0
 20 21  1  0
 20 52  1  0
 20 53  1  0
 21 22  2  0
 21 26  1  0
 22 23  1  0
 22 54  1  0
 23 24  2  0
 23 55  1  0
 24 25  1  0
 24 56  1  0
 25 26  2  0
 25 57  1  0
 26 27  1  0
 27 58  1  0
 27 59  1  0
 28 29  2  0
 28 60  1  0
 29 61  1  0
 30 31  2  0
 30 62  1  0
 31 32  1  0
 32 33  1  0
 33 63  1  0
 33 64  1  0
 33 65  1  0
M  END

