
     RDKit          3D

 32 33  0  0  0  0  0  0  0  0999 V2000
    0.4645    0.5212    0.1930 C   0  0  0  0  0  0  0  0  0  0  0  0
    1.8900    0.4842    0.4488 N   0  0  0  0  0  0  0  0  0  0  0  0
    2.7811    1.4983    0.3456 C   0  0  0  0  0  0  0  0  0  0  0  0
    4.0299    0.9841    0.7080 C   0  0  0  0  0  0  0  0  0  0  0  0
    5.3246    1.6296    0.7718 C   0  0  0  0  0  0  0  0  0  0  0  0
    5.6193    2.9153    0.4846 C   0  0  0  0  0  0  0  0  0  0  0  0
    7.0186    3.4061    0.6100 C   0  0  0  0  0  0  0  0  0  0  0  0
    7.9469    2.7117    0.9626 O   0  0  0  0  0  0  0  0  0  0  0  0
    7.1227    4.7642    0.2578 N   0  0  0  0  0  0  0  0  0  0  0  0
    8.2156    5.6006    0.2823 C   0  0  0  0  0  0  0  0  0  0  0  0
    9.3422    5.1877    0.8720 N   0  0  0  0  0  0  0  0  0  0  0  0
   10.3856    6.0030    0.9353 C   0  0  0  0  0  0  0  0  0  0  0  0
   10.3901    7.3085    0.4290 C   0  0  0  0  0  0  0  0  0  0  0  0
    9.2303    7.7473   -0.2000 C   0  0  0  0  0  0  0  0  0  0  0  0
    8.1149    6.9045   -0.3173 C   0  0  0  0  0  0  0  0  0  0  0  0
    6.8715    7.3518   -1.0103 C   0  0  0  0  0  0  0  0  0  0  0  0
    5.7946    6.8029   -0.8968 O   0  0  0  0  0  0  0  0  0  0  0  0
    6.9658    8.4308   -1.8114 O   0  0  0  0  0  0  0  0  0  0  0  0
    3.7431   -0.3786    1.0136 C   0  0  0  0  0  0  0  0  0  0  0  0
    2.4590   -0.6657    0.8557 N   0  0  0  0  0  0  0  0  0  0  0  0
    0.1893    1.5156   -0.1820 H   0  0  0  0  0  0  0  0  0  0  0  0
   -0.0945    0.3130    1.1179 H   0  0  0  0  0  0  0  0  0  0  0  0
    0.1991   -0.2381   -0.5571 H   0  0  0  0  0  0  0  0  0  0  0  0
    2.4781    2.4940    0.0284 H   0  0  0  0  0  0  0  0  0  0  0  0
    6.1662    1.0041    1.0904 H   0  0  0  0  0  0  0  0  0  0  0  0
    4.8450    3.6174    0.1583 H   0  0  0  0  0  0  0  0  0  0  0  0
    6.2807    5.2217   -0.0980 H   0  0  0  0  0  0  0  0  0  0  0  0
   11.2786    5.6038    1.4327 H   0  0  0  0  0  0  0  0  0  0  0  0
   11.2644    7.9528    0.5332 H   0  0  0  0  0  0  0  0  0  0  0  0
    9.1913    8.7731   -0.5802 H   0  0  0  0  0  0  0  0  0  0  0  0
    7.8896    8.6857   -1.9397 H   0  0  0  0  0  0  0  0  0  0  0  0
    4.4430   -1.1478    1.3419 H   0  0  0  0  0  0  0  0  0  0  0  0
  1  2  1  0
  1 21  1  0
  1 22  1  0
  1 23  1  0
  2  3  1  0
  2 20  1  0
  3  4  2  0
  3 24  1  0
  4  5  1  0
  4 19  1  0
  5  6  2  0
  5 25  1  0
  6  7  1  0
  6 26  1  0
  7  8  2  0
  7  9  1  0
  9 10  1  0
  9 27  1  0
 10 11  2  0
 10 15  1  0
 11 12  1  0
 12 13  2  0
 12 28  1  0
 13 14  1  0
 13 29  1  0
 14 15  2  0
 14 30  1  0
 15 16  1  0
 16 17  2  0
 16 18  1  0
 18 31  1  0
 19 20  2  0
 19 32  1  0
M  END

