
     RDKit          3D

 51 54  0  0  0  0  0  0  0  0999 V2000
    0.8702   -0.6458    0.4663 C   0  0  0  0  0  0  0  0  0  0  0  0
    1.7131   -0.0841   -0.5104 O   0  0  0  0  0  0  0  0  0  0  0  0
    2.6297   -0.8676   -1.1393 C   0  0  0  0  0  0  0  0  0  0  0  0
    3.4404   -0.2254   -2.0791 C   0  0  0  0  0  0  0  0  0  0  0  0
    4.4092   -0.9505   -2.7973 C   0  0  0  0  0  0  0  0  0  0  0  0
    5.1865   -0.2012   -3.6870 N   0  0  0  0  0  0  0  0  0  0  0  0
    5.7915   -0.5825   -4.7489 C   0  0  0  0  0  0  0  0  0  0  0  0
    5.6880   -1.8969   -5.1651 O   0  0  0  0  0  0  0  0  0  0  0  0
    6.2682   -2.3868   -6.2901 C   0  0  0  0  0  0  0  0  0  0  0  0
    6.0659   -3.7349   -6.5877 C   0  0  0  0  0  0  0  0  0  0  0  0
    6.6570   -4.2697   -7.7389 C   0  0  0  0  0  0  0  0  0  0  0  0
    6.5064   -5.5645   -8.0931 O   0  0  0  0  0  0  0  0  0  0  0  0
    7.4436   -3.4559   -8.5820 C   0  0  0  0  0  0  0  0  0  0  0  0
    7.6293   -2.1193   -8.2678 C   0  0  0  0  0  0  0  0  0  0  0  0
    7.0467   -1.5506   -7.1144 C   0  0  0  0  0  0  0  0  0  0  0  0
    7.1806   -0.1794   -6.7178 C   0  0  0  0  0  0  0  0  0  0  0  0
    6.5888    0.3141   -5.5918 C   0  0  0  0  0  0  0  0  0  0  0  0
    6.8015    1.7939   -5.3187 C   0  0  0  0  0  0  0  0  0  0  0  0
    7.4589    2.4712   -6.1025 O   0  0  0  0  0  0  0  0  0  0  0  0
    6.2390    2.2763   -4.1863 N   0  0  0  0  0  0  0  0  0  0  0  0
    6.2860    3.6835   -3.8341 C   0  0  0  0  0  0  0  0  0  0  0  0
    4.9471    4.3480   -3.8777 C   0  0  0  0  0  0  0  0  0  0  0  0
    4.4002    5.3172   -4.6730 C   0  0  0  0  0  0  0  0  0  0  0  0
    3.0530    5.5089   -4.2141 C   0  0  0  0  0  0  0  0  0  0  0  0
    2.8821    4.6377   -3.1780 C   0  0  0  0  0  0  0  0  0  0  0  0
    4.0229    3.9317   -2.9636 O   0  0  0  0  0  0  0  0  0  0  0  0
    4.5736   -2.3247   -2.5405 C   0  0  0  0  0  0  0  0  0  0  0  0
    3.7701   -2.9530   -1.5824 C   0  0  0  0  0  0  0  0  0  0  0  0
    4.0081   -4.2813   -1.3976 O   0  0  0  0  0  0  0  0  0  0  0  0
    3.2601   -4.9957   -0.4435 C   0  0  0  0  0  0  0  0  0  0  0  0
    2.7859   -2.2402   -0.8772 C   0  0  0  0  0  0  0  0  0  0  0  0
    0.2279    0.1671    0.8318 H   0  0  0  0  0  0  0  0  0  0  0  0
    1.4403   -1.0579    1.3192 H   0  0  0  0  0  0  0  0  0  0  0  0
    0.2285   -1.4447    0.0510 H   0  0  0  0  0  0  0  0  0  0  0  0
    3.3186    0.8442   -2.2516 H   0  0  0  0  0  0  0  0  0  0  0  0
    5.4499   -4.3438   -5.9218 H   0  0  0  0  0  0  0  0  0  0  0  0
    5.9513   -6.0224   -7.4474 H   0  0  0  0  0  0  0  0  0  0  0  0
    7.8897   -3.9032   -9.4714 H   0  0  0  0  0  0  0  0  0  0  0  0
    8.2354   -1.4837   -8.9181 H   0  0  0  0  0  0  0  0  0  0  0  0
    7.7639    0.5202   -7.3218 H   0  0  0  0  0  0  0  0  0  0  0  0
    5.6821    1.6090   -3.6398 H   0  0  0  0  0  0  0  0  0  0  0  0
    6.9570    4.1801   -4.5468 H   0  0  0  0  0  0  0  0  0  0  0  0
    6.7178    3.7942   -2.8228 H   0  0  0  0  0  0  0  0  0  0  0  0
    4.9009    5.8297   -5.4917 H   0  0  0  0  0  0  0  0  0  0  0  0
    2.3121    6.2024   -4.6068 H   0  0  0  0  0  0  0  0  0  0  0  0
    2.0473    4.4104   -2.5202 H   0  0  0  0  0  0  0  0  0  0  0  0
    5.3228   -2.9198   -3.0552 H   0  0  0  0  0  0  0  0  0  0  0  0
    3.6309   -6.0298   -0.4638 H   0  0  0  0  0  0  0  0  0  0  0  0
    2.1804   -5.0018   -0.6816 H   0  0  0  0  0  0  0  0  0  0  0  0
    3.3943   -4.5914    0.5765 H   0  0  0  0  0  0  0  0  0  0  0  0
    2.1613   -2.7385   -0.1408 H   0  0  0  0  0  0  0  0  0  0  0  0
  1  2  1  0
  1 32  1  0
  1 33  1  0
  1 34  1  0
  2  3  1  0
  3  4  2  0
  3 31  1  0
  4  5  1  0
  4 35  1  0
  5  6  1  0
  5 27  2  0
  6  7  2  0
  7  8  1  0
  7 17  1  0
  8  9  1  0
  9 10  2  0
  9 15  1  0
 10 11  1  0
 10 36  1  0
 11 12  1  0
 11 13  2  0
 12 37  1  0
 13 14  1  0
 13 38  1  0
 14 15  2  0
 14 39  1  0
 15 16  1  0
 16 17  2  0
 16 40  1  0
 17 18  1  0
 18 19  2  0
 18 20  1  0
 20 21  1  0
 20 41  1  0
 21 22  1  0
 21 42  1  0
 21 43  1  0
 22 23  2  0
 22 26  1  0
 23 24  1  0
 23 44  1  0
 24 25  2  0
 24 45  1  0
 25 26  1  0
 25 46  1  0
 27 28  1  0
 27 47  1  0
 28 29  1  0
 28 31  2  0
 29 30  1  0
 30 48  1  0
 30 49  1  0
 30 50  1  0
 31 51  1  0
M  END

