
     RDKit          3D

 49 52  0  0  0  0  0  0  0  0999 V2000
    1.0506    0.2102    0.3292 C   0  0  0  0  0  0  0  0  0  0  0  0
    2.5426    0.0376    0.0245 C   0  0  1  0  0  0  0  0  0  0  0  0
    2.9458    1.0284   -0.2349 H   0  0  0  0  0  0  0  0  0  0  0  0
    3.2872   -0.3643    1.2240 N   0  0  0  0  0  0  0  0  0  0  0  0
    3.8593    0.5354    2.0715 C   0  0  0  0  0  0  0  0  0  0  0  0
    3.7874    1.7446    1.9060 O   0  0  0  0  0  0  0  0  0  0  0  0
    4.6277   -0.0585    3.2516 C   0  0  1  0  0  0  0  0  0  0  0  0
    4.4792   -1.1496    3.3018 H   0  0  0  0  0  0  0  0  0  0  0  0
    6.1374    0.2446    3.1957 C   0  0  0  0  0  0  0  0  0  0  0  0
    6.5675    0.3630    4.6581 C   0  0  0  0  0  0  0  0  0  0  0  0
    7.7049    0.3811    5.0773 O   0  0  0  0  0  0  0  0  0  0  0  0
    5.4151    0.4769    5.4121 N   0  0  0  0  0  0  0  0  0  0  0  0
    5.4045    0.8254    6.7989 C   0  0  1  0  0  0  0  0  0  0  0  0
    4.7041   -0.0918    7.7784 C   0  0  0  0  0  0  0  0  0  0  0  0
    6.2064    0.0051    7.7673 C   0  0  0  0  0  0  0  0  0  0  0  0
    4.2082    0.5692    4.5997 C   0  0  0  0  0  0  0  0  0  0  0  0
    2.8674   -0.9229   -1.1131 C   0  0  0  0  0  0  0  0  0  0  0  0
    4.0797   -0.7834   -1.8099 C   0  0  0  0  0  0  0  0  0  0  0  0
    4.4198   -1.6719   -2.8261 C   0  0  0  0  0  0  0  0  0  0  0  0
    3.5747   -2.7347   -3.1769 C   0  0  0  0  0  0  0  0  0  0  0  0
    2.3533   -2.8858   -2.4861 C   0  0  0  0  0  0  0  0  0  0  0  0
    2.0191   -1.9750   -1.4729 C   0  0  0  0  0  0  0  0  0  0  0  0
    1.4939   -3.9303   -2.6894 O   0  0  0  0  0  0  0  0  0  0  0  0
    1.0031   -4.1800   -4.0011 C   0  0  0  0  0  0  0  0  0  0  0  0
    2.0339   -4.8181   -4.9221 C   0  0  0  0  0  0  0  0  0  0  0  0
    3.2070   -3.9037   -5.2471 C   0  0  0  0  0  0  0  0  0  0  0  0
    4.0261   -3.6131   -4.1212 O   0  0  0  0  0  0  0  0  0  0  0  0
    0.9221    0.9906    1.0937 H   0  0  0  0  0  0  0  0  0  0  0  0
    0.5998   -0.7183    0.7143 H   0  0  0  0  0  0  0  0  0  0  0  0
    0.4975    0.5143   -0.5730 H   0  0  0  0  0  0  0  0  0  0  0  0
    3.3795   -1.3551    1.4153 H   0  0  0  0  0  0  0  0  0  0  0  0
    6.3150    1.2222    2.7164 H   0  0  0  0  0  0  0  0  0  0  0  0
    6.7392   -0.5089    2.6687 H   0  0  0  0  0  0  0  0  0  0  0  0
    5.3344    1.9041    6.9994 H   0  0  0  0  0  0  0  0  0  0  0  0
    4.2519   -1.0023    7.3746 H   0  0  0  0  0  0  0  0  0  0  0  0
    4.1467    0.3673    8.5996 H   0  0  0  0  0  0  0  0  0  0  0  0
    6.7803   -0.8273    7.3568 H   0  0  0  0  0  0  0  0  0  0  0  0
    6.7078    0.5383    8.5791 H   0  0  0  0  0  0  0  0  0  0  0  0
    3.9003    1.6200    4.4477 H   0  0  0  0  0  0  0  0  0  0  0  0
    3.3729    0.0309    5.0757 H   0  0  0  0  0  0  0  0  0  0  0  0
    4.7613    0.0323   -1.5542 H   0  0  0  0  0  0  0  0  0  0  0  0
    5.3610   -1.5761   -3.3718 H   0  0  0  0  0  0  0  0  0  0  0  0
    1.0642   -2.1382   -0.9705 H   0  0  0  0  0  0  0  0  0  0  0  0
    0.6219   -3.2381   -4.4428 H   0  0  0  0  0  0  0  0  0  0  0  0
    0.1464   -4.8564   -3.8627 H   0  0  0  0  0  0  0  0  0  0  0  0
    1.5349   -5.0997   -5.8667 H   0  0  0  0  0  0  0  0  0  0  0  0
    2.4113   -5.7460   -4.4602 H   0  0  0  0  0  0  0  0  0  0  0  0
    2.8459   -2.9593   -5.7000 H   0  0  0  0  0  0  0  0  0  0  0  0
    3.8776   -4.3885   -5.9722 H   0  0  0  0  0  0  0  0  0  0  0  0
  1  2  1  0
  1 28  1  0
  1 29  1  0
  1 30  1  0
  2  3  1  6
  2  4  1  0
  2 17  1  0
  4  5  1  0
  4 31  1  0
  5  6  2  0
  5  7  1  0
  7  8  1  1
  7  9  1  0
  7 16  1  0
  9 10  1  0
  9 32  1  0
  9 33  1  0
 10 11  2  0
 10 12  1  0
 12 13  1  0
 12 16  1  0
 13 14  1  0
 13 15  1  0
 13 34  1  6
 14 15  1  0
 14 35  1  0
 14 36  1  0
 15 37  1  0
 15 38  1  0
 16 39  1  0
 16 40  1  0
 17 18  2  0
 17 22  1  0
 18 19  1  0
 18 41  1  0
 19 20  2  0
 19 42  1  0
 20 21  1  0
 20 27  1  0
 21 22  2  0
 21 23  1  0
 22 43  1  0
 23 24  1  0
 24 25  1  0
 24 44  1  0
 24 45  1  0
 25 26  1  0
 25 46  1  0
 25 47  1  0
 26 27  1  0
 26 48  1  0
 26 49  1  0
M  END

