
     RDKit          3D

 48 50  0  0  0  0  0  0  0  0999 V2000
    7.8560   -1.8894   -0.4353 C   0  0  0  0  0  0  0  0  0  0  0  0
    7.1322   -0.6441   -0.8862 C   0  0  0  0  0  0  0  0  0  0  0  0
    6.6261    0.1741   -0.1573 O   0  0  0  0  0  0  0  0  0  0  0  0
    7.1226   -0.5523   -2.2317 O   0  0  0  0  0  0  0  0  0  0  0  0
    6.4789    0.6003   -2.8098 C   0  0  0  0  0  0  0  0  0  0  0  0
    4.9773    0.4334   -2.8557 C   0  0  2  0  0  0  0  0  0  0  0  0
    4.5067    0.5636   -1.8769 H   0  0  0  0  0  0  0  0  0  0  0  0
    4.3131   -0.5763   -3.7555 C   0  0  0  0  0  0  0  0  0  0  0  0
    4.1240    0.9027   -4.0237 C   0  0  2  0  0  0  0  0  0  0  0  0
    4.8039    1.4522   -5.2603 C   0  0  0  0  0  0  0  0  0  0  0  0
    5.3242    2.7708   -4.9613 O   0  0  0  0  0  0  0  0  0  0  0  0
    6.5273    3.2925   -5.9628 S   0  0  1  0  0  0  0  0  0  0  0  0
    7.7138    2.4708   -5.7179 O   0  0  0  0  0  0  0  0  0  0  0  0
    5.9981    3.4172   -7.3176 O   0  0  0  0  0  0  0  0  0  0  0  0
    6.7294    4.9335   -5.2051 C   0  0  0  0  0  0  0  0  0  0  0  0
    7.8073    5.7100   -5.9095 C   0  0  0  0  0  0  0  0  0  0  0  0
    7.4973    6.4968   -7.0296 C   0  0  0  0  0  0  0  0  0  0  0  0
    8.5033    7.1936   -7.7021 C   0  0  0  0  0  0  0  0  0  0  0  0
    9.8293    7.1040   -7.2674 C   0  0  0  0  0  0  0  0  0  0  0  0
   10.1470    6.3115   -6.1600 C   0  0  0  0  0  0  0  0  0  0  0  0
    9.1420    5.6141   -5.4869 C   0  0  0  0  0  0  0  0  0  0  0  0
    2.7957    1.5508   -3.7149 C   0  0  0  0  0  0  0  0  0  0  0  0
    1.5983    1.0147   -4.2148 C   0  0  0  0  0  0  0  0  0  0  0  0
    0.3765    1.6478   -3.9669 C   0  0  0  0  0  0  0  0  0  0  0  0
    0.3265    2.8266   -3.2191 C   0  0  0  0  0  0  0  0  0  0  0  0
    1.5218    3.3508   -2.7315 C   0  0  0  0  0  0  0  0  0  0  0  0
    1.4914    4.4833   -2.0121 F   0  0  0  0  0  0  0  0  0  0  0  0
    2.7487    2.7360   -2.9657 C   0  0  0  0  0  0  0  0  0  0  0  0
    7.8517   -1.9423    0.6598 H   0  0  0  0  0  0  0  0  0  0  0  0
    8.8909   -1.8784   -0.8104 H   0  0  0  0  0  0  0  0  0  0  0  0
    7.3676   -2.7803   -0.8591 H   0  0  0  0  0  0  0  0  0  0  0  0
    6.9304    0.7037   -3.8035 H   0  0  0  0  0  0  0  0  0  0  0  0
    6.7387    1.4875   -2.2141 H   0  0  0  0  0  0  0  0  0  0  0  0
    3.4662   -1.1405   -3.3570 H   0  0  0  0  0  0  0  0  0  0  0  0
    4.9454   -1.1409   -4.4474 H   0  0  0  0  0  0  0  0  0  0  0  0
    5.6339    0.8038   -5.5791 H   0  0  0  0  0  0  0  0  0  0  0  0
    4.0885    1.5362   -6.0933 H   0  0  0  0  0  0  0  0  0  0  0  0
    6.9605    4.7333   -4.1503 H   0  0  0  0  0  0  0  0  0  0  0  0
    5.7381    5.4002   -5.2830 H   0  0  0  0  0  0  0  0  0  0  0  0
    6.4634    6.5580   -7.3782 H   0  0  0  0  0  0  0  0  0  0  0  0
    8.2508    7.8074   -8.5702 H   0  0  0  0  0  0  0  0  0  0  0  0
   10.6160    7.6507   -7.7933 H   0  0  0  0  0  0  0  0  0  0  0  0
   11.1825    6.2342   -5.8196 H   0  0  0  0  0  0  0  0  0  0  0  0
    9.3940    4.9857   -4.6289 H   0  0  0  0  0  0  0  0  0  0  0  0
    1.6237    0.0922   -4.8000 H   0  0  0  0  0  0  0  0  0  0  0  0
   -0.5491    1.2180   -4.3577 H   0  0  0  0  0  0  0  0  0  0  0  0
   -0.6132    3.3403   -3.0074 H   0  0  0  0  0  0  0  0  0  0  0  0
    3.6576    3.1851   -2.5624 H   0  0  0  0  0  0  0  0  0  0  0  0
  1  2  1  0
  1 29  1  0
  1 30  1  0
  1 31  1  0
  2  3  2  0
  2  4  1  0
  4  5  1  0
  5  6  1  0
  5 32  1  0
  5 33  1  0
  6  7  1  1
  6  8  1  0
  6  9  1  0
  8  9  1  0
  8 34  1  0
  8 35  1  0
  9 10  1  6
  9 22  1  0
 10 11  1  0
 10 36  1  0
 10 37  1  0
 12 11  1  1
 12 13  2  0
 12 14  2  0
 12 15  1  0
 15 16  1  0
 15 38  1  0
 15 39  1  0
 16 17  2  0
 16 21  1  0
 17 18  1  0
 17 40  1  0
 18 19  2  0
 18 41  1  0
 19 20  1  0
 19 42  1  0
 20 21  2  0
 20 43  1  0
 21 44  1  0
 22 23  2  0
 22 28  1  0
 23 24  1  0
 23 45  1  0
 24 25  2  0
 24 46  1  0
 25 26  1  0
 25 47  1  0
 26 27  1  0
 26 28  2  0
 28 48  1  0
M  END

