
     RDKit          3D

 72 79  0  0  0  0  0  0  0  0999 V2000
    1.7254   -3.6420   -0.3966 C   0  0  0  0  0  0  0  0  0  0  0  0
    1.0044   -4.0169   -1.5250 C   0  0  0  0  0  0  0  0  0  0  0  0
    1.7869   -3.8909   -2.7779 C   0  0  1  0  0  0  0  0  0  0  0  0
    1.3459   -4.4264   -4.1083 C   0  0  0  0  0  0  0  0  0  0  0  0
    1.6448   -3.7902   -5.2533 C   0  0  0  0  0  0  0  0  0  0  0  0
    2.5281   -2.5509   -5.2763 C   0  0  2  0  0  0  0  0  0  0  0  0
    3.9295   -3.0854   -5.6902 C   0  0  0  0  0  0  0  0  0  0  0  0
    3.9109   -3.9102   -7.0164 C   0  0  1  0  0  0  0  0  0  0  0  0
    4.6557   -5.2441   -6.8615 C   0  0  0  0  0  0  0  0  0  0  0  0
    4.6985   -6.0097   -8.1840 C   0  0  0  0  0  0  0  0  0  0  0  0
    3.2765   -6.2962   -8.6630 C   0  0  0  0  0  0  0  0  0  0  0  0
    2.4081   -5.0323   -8.8349 C   0  0  1  0  0  0  0  0  0  0  0  0
    0.9468   -5.4722   -9.1161 C   0  0  0  0  0  0  0  0  0  0  0  0
   -0.2001   -4.5247   -8.7010 C   0  0  2  0  0  0  0  0  0  0  0  0
   -0.4933   -3.3835   -9.7084 C   0  0  0  0  0  0  0  0  0  0  0  0
    0.3223   -2.1063   -9.4960 C   0  0  0  0  0  0  0  0  0  0  0  0
    0.1264   -1.5335   -8.0704 C   0  0  0  0  0  0  0  0  0  0  0  0
   -0.4915   -2.5481   -7.0846 C   0  0  0  0  0  0  0  0  0  0  0  0
   -0.0426   -4.0224   -7.2142 C   0  0  2  0  0  0  0  0  0  0  0  0
    1.3597   -4.3900   -6.6168 C   0  0  1  0  0  0  0  0  0  0  0  0
    2.4853   -4.0597   -7.6244 C   0  0  1  0  0  0  0  0  0  0  0  0
    2.5111   -1.6981   -4.0088 C   0  0  0  0  0  0  0  0  0  0  0  0
    3.0408   -0.4366   -3.9459 C   0  0  0  0  0  0  0  0  0  0  0  0
    3.7975    0.1759   -5.1185 C   0  0  0  0  0  0  0  0  0  0  0  0
    3.8496    1.7069   -5.1206 C   0  0  0  0  0  0  0  0  0  0  0  0
    4.3057    2.2246   -3.7587 C   0  0  0  0  0  0  0  0  0  0  0  0
    3.2844    1.8231   -2.6943 C   0  0  0  0  0  0  0  0  0  0  0  0
    2.8863    0.3571   -2.7190 C   0  0  0  0  0  0  0  0  0  0  0  0
    2.3606   -0.1998   -1.5845 C   0  0  0  0  0  0  0  0  0  0  0  0
    1.9044   -1.5596   -1.5159 C   0  0  0  0  0  0  0  0  0  0  0  0
    1.7950   -2.2131   -0.2837 C   0  0  0  0  0  0  0  0  0  0  0  0
    1.7147   -2.2521   -2.8618 C   0  0  2  0  0  0  0  0  0  0  0  0
    2.6011   -4.2154   -0.0503 H   0  0  0  0  0  0  0  0  0  0  0  0
    0.0303   -3.5126   -1.6108 H   0  0  0  0  0  0  0  0  0  0  0  0
    2.8439   -4.1613   -2.5920 H   0  0  0  0  0  0  0  0  0  0  0  0
    0.8239   -5.3896   -4.1295 H   0  0  0  0  0  0  0  0  0  0  0  0
    2.1874   -1.8981   -6.0968 H   0  0  0  0  0  0  0  0  0  0  0  0
    4.3003   -3.7171   -4.8665 H   0  0  0  0  0  0  0  0  0  0  0  0
    4.6429   -2.2550   -5.7825 H   0  0  0  0  0  0  0  0  0  0  0  0
    4.4824   -3.3357   -7.7682 H   0  0  0  0  0  0  0  0  0  0  0  0
    4.1595   -5.8628   -6.0907 H   0  0  0  0  0  0  0  0  0  0  0  0
    5.6763   -5.0483   -6.4890 H   0  0  0  0  0  0  0  0  0  0  0  0
    5.2580   -6.9535   -8.0700 H   0  0  0  0  0  0  0  0  0  0  0  0
    5.2430   -5.4133   -8.9394 H   0  0  0  0  0  0  0  0  0  0  0  0
    2.7938   -6.9628   -7.9243 H   0  0  0  0  0  0  0  0  0  0  0  0
    3.2842   -6.8574   -9.6135 H   0  0  0  0  0  0  0  0  0  0  0  0
    2.7989   -4.4871   -9.7135 H   0  0  0  0  0  0  0  0  0  0  0  0
    0.7830   -6.4187   -8.5737 H   0  0  0  0  0  0  0  0  0  0  0  0
    0.8379   -5.7313  -10.1830 H   0  0  0  0  0  0  0  0  0  0  0  0
   -1.1023   -5.1580   -8.7249 H   0  0  0  0  0  0  0  0  0  0  0  0
   -1.5641   -3.1239   -9.6397 H   0  0  0  0  0  0  0  0  0  0  0  0
   -0.3468   -3.7629  -10.7340 H   0  0  0  0  0  0  0  0  0  0  0  0
    1.3878   -2.3189   -9.6822 H   0  0  0  0  0  0  0  0  0  0  0  0
    0.0376   -1.3552  -10.2509 H   0  0  0  0  0  0  0  0  0  0  0  0
   -0.5373   -0.6536   -8.1079 H   0  0  0  0  0  0  0  0  0  0  0  0
    1.0868   -1.1522   -7.6875 H   0  0  0  0  0  0  0  0  0  0  0  0
   -1.5836   -2.5446   -7.2407 H   0  0  0  0  0  0  0  0  0  0  0  0
   -0.3502   -2.2027   -6.0477 H   0  0  0  0  0  0  0  0  0  0  0  0
   -0.7568   -4.5916   -6.5973 H   0  0  0  0  0  0  0  0  0  0  0  0
    1.3388   -5.4825   -6.4709 H   0  0  0  0  0  0  0  0  0  0  0  0
    2.2511   -3.0636   -8.0202 H   0  0  0  0  0  0  0  0  0  0  0  0
    3.3760   -0.1837   -6.0704 H   0  0  0  0  0  0  0  0  0  0  0  0
    4.8390   -0.1953   -5.0972 H   0  0  0  0  0  0  0  0  0  0  0  0
    2.8514    2.1212   -5.3532 H   0  0  0  0  0  0  0  0  0  0  0  0
    4.5247    2.0488   -5.9223 H   0  0  0  0  0  0  0  0  0  0  0  0
    4.4250    3.3204   -3.7687 H   0  0  0  0  0  0  0  0  0  0  0  0
    5.2976    1.8009   -3.5164 H   0  0  0  0  0  0  0  0  0  0  0  0
    2.3674    2.4216   -2.8606 H   0  0  0  0  0  0  0  0  0  0  0  0
    3.6341    2.0923   -1.6843 H   0  0  0  0  0  0  0  0  0  0  0  0
    2.3460    0.3900   -0.6622 H   0  0  0  0  0  0  0  0  0  0  0  0
    2.0894   -1.6675    0.6231 H   0  0  0  0  0  0  0  0  0  0  0  0
    0.6574   -2.1265   -3.1620 H   0  0  0  0  0  0  0  0  0  0  0  0
  1  2  2  0
  1 31  1  0
  1 33  1  0
  2  3  1  0
  2 34  1  0
  3  4  1  0
  3 32  1  0
  3 35  1  1
  4  5  2  0
  4 36  1  0
  5  6  1  0
  5 20  1  0
  6  7  1  0
  6 22  1  0
  6 37  1  6
  7  8  1  0
  7 38  1  0
  7 39  1  0
  8  9  1  0
  8 21  1  0
  8 40  1  6
  9 10  1  0
  9 41  1  0
  9 42  1  0
 10 11  1  0
 10 43  1  0
 10 44  1  0
 11 12  1  0
 11 45  1  0
 11 46  1  0
 12 13  1  0
 12 21  1  0
 12 47  1  6
 13 14  1  0
 13 48  1  0
 13 49  1  0
 14 15  1  0
 14 19  1  0
 14 50  1  1
 15 16  1  0
 15 51  1  0
 15 52  1  0
 16 17  1  0
 16 53  1  0
 16 54  1  0
 17 18  1  0
 17 55  1  0
 17 56  1  0
 18 19  1  0
 18 57  1  0
 18 58  1  0
 19 20  1  0
 19 59  1  1
 20 21  1  0
 20 60  1  1
 21 61  1  6
 22 23  2  0
 22 32  1  0
 23 24  1  0
 23 28  1  0
 24 25  1  0
 24 62  1  0
 24 63  1  0
 25 26  1  0
 25 64  1  0
 25 65  1  0
 26 27  1  0
 26 66  1  0
 26 67  1  0
 27 28  1  0
 27 68  1  0
 27 69  1  0
 28 29  2  0
 29 30  1  0
 29 70  1  0
 30 31  2  0
 30 32  1  0
 31 71  1  0
 32 72  1  6
M  END

