
     RDKit          3D

 39 40  0  0  0  0  0  0  0  0999 V2000
    1.1951   -0.1199    0.0760 C   0  0  0  0  0  0  0  0  0  0  0  0
    2.5593   -0.1916   -0.2469 O   0  0  0  0  0  0  0  0  0  0  0  0
    2.9928   -0.4737   -1.6042 C   0  0  1  0  0  0  0  0  0  0  0  0
    4.5365   -0.1218   -1.4342 C   0  0  1  0  0  0  0  0  0  0  0  0
    5.1678   -0.8090   -0.3146 N   0  0  0  0  0  0  0  0  0  0  0  0
    5.4293   -0.2288   -2.6590 C   0  0  0  0  0  0  0  0  0  0  0  0
    5.9433   -1.4427   -3.1370 C   0  0  0  0  0  0  0  0  0  0  0  0
    6.7888   -1.4451   -4.2474 C   0  0  0  0  0  0  0  0  0  0  0  0
    7.1069   -0.2237   -4.8484 C   0  0  0  0  0  0  0  0  0  0  0  0
    6.6493    0.9459   -4.3972 N   0  0  0  0  0  0  0  0  0  0  0  0
    5.8451    0.9325   -3.3339 C   0  0  0  0  0  0  0  0  0  0  0  0
    2.7262   -1.9763   -1.8701 C   0  0  0  0  0  0  0  0  0  0  0  0
    2.5895   -2.5187   -3.3044 C   0  0  0  0  0  0  0  0  0  0  0  0
    1.3419   -2.0171   -4.0495 C   0  0  0  0  0  0  0  0  0  0  0  0
    1.5070   -0.6584   -4.7586 C   0  0  0  0  0  0  0  0  0  0  0  0
    2.4771    0.3219   -4.0831 C   0  0  0  0  0  0  0  0  0  0  0  0
    2.2842    0.5070   -2.5668 C   0  0  0  0  0  0  0  0  0  0  0  0
    1.1270   -0.1552    1.1743 H   0  0  0  0  0  0  0  0  0  0  0  0
    0.6041   -0.9657   -0.3246 H   0  0  0  0  0  0  0  0  0  0  0  0
    0.7199    0.8195   -0.2628 H   0  0  0  0  0  0  0  0  0  0  0  0
    4.5032    0.9465   -1.1631 H   0  0  0  0  0  0  0  0  0  0  0  0
    5.3599   -1.7861   -0.5300 H   0  0  0  0  0  0  0  0  0  0  0  0
    4.5236   -0.7952    0.4756 H   0  0  0  0  0  0  0  0  0  0  0  0
    5.6939   -2.3882   -2.6490 H   0  0  0  0  0  0  0  0  0  0  0  0
    7.2004   -2.3784   -4.6391 H   0  0  0  0  0  0  0  0  0  0  0  0
    7.7665   -0.1911   -5.7239 H   0  0  0  0  0  0  0  0  0  0  0  0
    5.4961    1.9104   -2.9779 H   0  0  0  0  0  0  0  0  0  0  0  0
    1.7891   -2.2350   -1.3502 H   0  0  0  0  0  0  0  0  0  0  0  0
    3.5045   -2.5418   -1.3308 H   0  0  0  0  0  0  0  0  0  0  0  0
    2.5281   -3.6169   -3.2171 H   0  0  0  0  0  0  0  0  0  0  0  0
    3.4939   -2.3214   -3.9017 H   0  0  0  0  0  0  0  0  0  0  0  0
    0.5077   -1.9657   -3.3271 H   0  0  0  0  0  0  0  0  0  0  0  0
    1.0320   -2.7671   -4.7961 H   0  0  0  0  0  0  0  0  0  0  0  0
    0.5135   -0.1871   -4.8606 H   0  0  0  0  0  0  0  0  0  0  0  0
    1.8632   -0.8246   -5.7901 H   0  0  0  0  0  0  0  0  0  0  0  0
    2.3610    1.3054   -4.5682 H   0  0  0  0  0  0  0  0  0  0  0  0
    3.5100    0.0194   -4.2996 H   0  0  0  0  0  0  0  0  0  0  0  0
    1.2014    0.4810   -2.3603 H   0  0  0  0  0  0  0  0  0  0  0  0
    2.6102    1.5196   -2.2736 H   0  0  0  0  0  0  0  0  0  0  0  0
  1  2  1  0
  1 18  1  0
  1 19  1  0
  1 20  1  0
  3  2  1  1
  3  4  1  0
  3 12  1  0
  3 17  1  0
  4  5  1  0
  4  6  1  0
  4 21  1  1
  5 22  1  0
  5 23  1  0
  6  7  2  0
  6 11  1  0
  7  8  1  0
  7 24  1  0
  8  9  2  0
  8 25  1  0
  9 10  1  0
  9 26  1  0
 10 11  2  0
 11 27  1  0
 12 13  1  0
 12 28  1  0
 12 29  1  0
 13 14  1  0
 13 30  1  0
 13 31  1  0
 14 15  1  0
 14 32  1  0
 14 33  1  0
 15 16  1  0
 15 34  1  0
 15 35  1  0
 16 17  1  0
 16 36  1  0
 16 37  1  0
 17 38  1  0
 17 39  1  0
M  END

