
     RDKit          3D

 53 55  0  0  0  0  0  0  0  0999 V2000
    1.7196    1.3578    0.5587 C   0  0  0  0  0  0  0  0  0  0  0  0
    2.8372    1.0072    0.4288 N   0  0  0  0  0  0  0  0  0  0  0  0
    4.1328    0.5768    0.2863 C   0  0  0  0  0  0  0  0  0  0  0  0
    5.2830    1.3861    0.0485 C   0  0  0  0  0  0  0  0  0  0  0  0
    5.2456    2.8520   -0.1374 C   0  0  0  0  0  0  0  0  0  0  0  0
    6.0809    3.7230    0.5783 C   0  0  0  0  0  0  0  0  0  0  0  0
    5.9951    5.1086    0.4295 C   0  0  0  0  0  0  0  0  0  0  0  0
    5.0635    5.6639   -0.4636 C   0  0  0  0  0  0  0  0  0  0  0  0
    4.9089    6.9896   -0.7081 O   0  0  0  0  0  0  0  0  0  0  0  0
    5.7051    7.9655   -0.0254 C   0  0  1  0  0  0  0  0  0  0  0  0
    5.5320    9.3009   -0.7887 C   0  0  0  0  0  0  0  0  0  0  0  0
    4.6155   10.1952    0.0872 C   0  0  0  0  0  0  0  0  0  0  0  0
    4.0166    9.2415    1.1357 C   0  0  0  0  0  0  0  0  0  0  0  0
    5.1545    8.2431    1.3858 C   0  0  0  0  0  0  0  0  0  0  0  0
    4.2182    4.8030   -1.1853 C   0  0  0  0  0  0  0  0  0  0  0  0
    4.3062    3.4264   -1.0186 C   0  0  0  0  0  0  0  0  0  0  0  0
    6.3648    0.4889    0.0122 C   0  0  0  0  0  0  0  0  0  0  0  0
    7.7565    0.8191   -0.3328 C   0  0  0  0  0  0  0  0  0  0  0  0
    8.2074    1.9425   -0.3754 O   0  0  0  0  0  0  0  0  0  0  0  0
    8.5059   -0.2740   -0.6307 O   0  0  0  0  0  0  0  0  0  0  0  0
    9.8786   -0.0460   -0.9991 C   0  0  0  0  0  0  0  0  0  0  0  0
   10.7842    0.0766    0.2155 C   0  0  0  0  0  0  0  0  0  0  0  0
    5.8758   -0.8051    0.2311 N   0  0  0  0  0  0  0  0  0  0  0  0
    6.6572   -2.0345    0.3014 C   0  0  0  0  0  0  0  0  0  0  0  0
    4.5216   -0.7602    0.3998 C   0  0  0  0  0  0  0  0  0  0  0  0
    3.6406   -1.9302    0.7205 C   0  0  0  0  0  0  0  0  0  0  0  0
    3.5932   -2.2958    2.2149 C   0  0  0  0  0  0  0  0  0  0  0  0
    6.8171    3.3133    1.2693 H   0  0  0  0  0  0  0  0  0  0  0  0
    6.6590    5.7424    1.0168 H   0  0  0  0  0  0  0  0  0  0  0  0
    6.7545    7.6280   -0.0175 H   0  0  0  0  0  0  0  0  0  0  0  0
    5.0839    9.0775   -1.7676 H   0  0  0  0  0  0  0  0  0  0  0  0
    6.5068    9.7748   -0.9787 H   0  0  0  0  0  0  0  0  0  0  0  0
    3.8484   10.7204   -0.5020 H   0  0  0  0  0  0  0  0  0  0  0  0
    5.2146   10.9711    0.5932 H   0  0  0  0  0  0  0  0  0  0  0  0
    3.1496    8.7066    0.7142 H   0  0  0  0  0  0  0  0  0  0  0  0
    3.6778    9.7545    2.0492 H   0  0  0  0  0  0  0  0  0  0  0  0
    4.8440    7.3253    1.9067 H   0  0  0  0  0  0  0  0  0  0  0  0
    5.9482    8.7165    1.9911 H   0  0  0  0  0  0  0  0  0  0  0  0
    3.4975    5.2431   -1.8774 H   0  0  0  0  0  0  0  0  0  0  0  0
    3.6390    2.7811   -1.5937 H   0  0  0  0  0  0  0  0  0  0  0  0
    9.9337    0.8596   -1.6203 H   0  0  0  0  0  0  0  0  0  0  0  0
   10.1491   -0.9185   -1.6119 H   0  0  0  0  0  0  0  0  0  0  0  0
   10.5217    0.9645    0.8088 H   0  0  0  0  0  0  0  0  0  0  0  0
   11.8322    0.1801   -0.1092 H   0  0  0  0  0  0  0  0  0  0  0  0
   10.7123   -0.8157    0.8574 H   0  0  0  0  0  0  0  0  0  0  0  0
    7.5073   -1.9108    0.9832 H   0  0  0  0  0  0  0  0  0  0  0  0
    7.0517   -2.3108   -0.6855 H   0  0  0  0  0  0  0  0  0  0  0  0
    6.0176   -2.8410    0.6750 H   0  0  0  0  0  0  0  0  0  0  0  0
    3.9378   -2.8087    0.1244 H   0  0  0  0  0  0  0  0  0  0  0  0
    2.6251   -1.6689    0.3854 H   0  0  0  0  0  0  0  0  0  0  0  0
    4.5840   -2.5865    2.5992 H   0  0  0  0  0  0  0  0  0  0  0  0
    2.9050   -3.1387    2.3849 H   0  0  0  0  0  0  0  0  0  0  0  0
    3.2406   -1.4427    2.8142 H   0  0  0  0  0  0  0  0  0  0  0  0
  1  2  3  0
  2  3  1  0
  3  4  1  0
  3 25  2  0
  4  5  1  0
  4 17  2  0
  5  6  1  0
  5 16  1  0
  6  7  2  0
  6 28  1  0
  7  8  1  0
  7 29  1  0
  8  9  2  0
  8 15  1  0
  9 10  1  0
 10 11  1  0
 10 14  1  0
 10 30  1  1
 11 12  1  0
 11 31  1  0
 11 32  1  0
 12 13  1  0
 12 33  1  0
 12 34  1  0
 13 14  1  0
 13 35  1  0
 13 36  1  0
 14 37  1  0
 14 38  1  0
 15 16  2  0
 15 39  1  0
 16 40  1  0
 17 18  1  0
 17 23  1  0
 18 19  1  0
 18 20  2  0
 20 21  1  0
 21 22  1  0
 21 41  1  0
 21 42  1  0
 22 43  1  0
 22 44  1  0
 22 45  1  0
 23 24  1  0
 23 25  1  0
 24 46  1  0
 24 47  1  0
 24 48  1  0
 25 26  1  0
 26 27  1  0
 26 49  1  0
 26 50  1  0
 27 51  1  0
 27 52  1  0
 27 53  1  0
M  CHG  6   1  -1   2   1   5  -1   9   1  19  -1  20   1
M  END

