
     RDKit          3D

 53 57  0  0  0  0  0  0  0  0999 V2000
    2.8639    2.5639   -4.0757 C   0  0  0  0  0  0  0  0  0  0  0  0
    2.8390    1.0519   -4.2216 C   0  0  2  0  0  0  0  0  0  0  0  0
    2.4969    0.7905   -5.2425 H   0  0  0  0  0  0  0  0  0  0  0  0
    1.8934    0.3796   -3.2214 C   0  0  0  0  0  0  0  0  0  0  0  0
    2.0452   -1.0723   -3.2770 N   0  0  0  0  0  0  0  0  0  0  0  0
    0.9440   -1.8668   -3.4513 C   0  0  0  0  0  0  0  0  0  0  0  0
   -0.1821   -1.3993   -3.5811 O   0  0  0  0  0  0  0  0  0  0  0  0
    1.1645   -3.3796   -3.4769 C   0  0  0  0  0  0  0  0  0  0  0  0
   -0.1244   -4.1340   -3.8353 C   0  0  2  0  0  0  0  0  0  0  0  0
   -0.5140   -3.7222   -4.7748 H   0  0  0  0  0  0  0  0  0  0  0  0
   -1.2152   -4.0982   -2.7550 C   0  0  0  0  0  0  0  0  0  0  0  0
   -0.9093   -5.5510   -1.6655 S   0  0  0  0  0  0  0  0  0  0  0  0
   -0.1282   -6.4068   -2.9992 C   0  0  0  0  0  0  0  0  0  0  0  0
    0.1293   -7.6789   -2.9515 N   0  0  0  0  0  0  0  0  0  0  0  0
    0.7457   -8.1601   -4.0628 C   0  0  0  0  0  0  0  0  0  0  0  0
    1.0912   -7.4094   -5.1979 C   0  0  0  0  0  0  0  0  0  0  0  0
    1.6973   -8.3422   -6.0773 C   0  0  0  0  0  0  0  0  0  0  0  0
    1.7218   -9.5452   -5.5423 N   0  0  0  0  0  0  0  0  0  0  0  0
    1.1434   -9.4502   -4.3086 N   0  0  0  0  0  0  0  0  0  0  0  0
    1.0403  -10.6222   -3.5004 C   0  0  0  0  0  0  0  0  0  0  0  0
    1.5574  -11.8291   -3.9986 C   0  0  0  0  0  0  0  0  0  0  0  0
    1.4689  -12.9891   -3.2294 C   0  0  0  0  0  0  0  0  0  0  0  0
    0.8703  -12.9637   -1.9659 C   0  0  0  0  0  0  0  0  0  0  0  0
    0.3583  -11.7592   -1.4781 C   0  0  0  0  0  0  0  0  0  0  0  0
    0.4371  -10.5864   -2.2335 C   0  0  0  0  0  0  0  0  0  0  0  0
    0.8250   -5.9920   -5.2429 C   0  0  0  0  0  0  0  0  0  0  0  0
    1.0993   -5.1874   -6.1154 O   0  0  0  0  0  0  0  0  0  0  0  0
    0.1668   -5.5641   -4.0477 N   0  0  0  0  0  0  0  0  0  0  0  0
    3.4204   -1.5157   -3.0879 C   0  0  0  0  0  0  0  0  0  0  0  0
    4.3505   -0.8226   -4.1009 C   0  0  1  0  0  0  0  0  0  0  0  0
    5.3876   -0.9866   -3.7644 H   0  0  0  0  0  0  0  0  0  0  0  0
    4.2099   -1.3690   -5.5234 C   0  0  0  0  0  0  0  0  0  0  0  0
    4.1738    0.5877   -4.0297 O   0  0  0  0  0  0  0  0  0  0  0  0
    3.1990    2.8476   -3.0655 H   0  0  0  0  0  0  0  0  0  0  0  0
    1.8640    2.9905   -4.2502 H   0  0  0  0  0  0  0  0  0  0  0  0
    3.5642    3.0012   -4.8023 H   0  0  0  0  0  0  0  0  0  0  0  0
    0.8449    0.6201   -3.4362 H   0  0  0  0  0  0  0  0  0  0  0  0
    2.1363    0.7326   -2.2008 H   0  0  0  0  0  0  0  0  0  0  0  0
    1.5457   -3.7245   -2.4999 H   0  0  0  0  0  0  0  0  0  0  0  0
    1.9206   -3.6330   -4.2344 H   0  0  0  0  0  0  0  0  0  0  0  0
   -2.2173   -4.1963   -3.1965 H   0  0  0  0  0  0  0  0  0  0  0  0
   -1.1789   -3.1713   -2.1733 H   0  0  0  0  0  0  0  0  0  0  0  0
    2.1084   -8.1707   -7.0715 H   0  0  0  0  0  0  0  0  0  0  0  0
    2.0205  -11.8373   -4.9837 H   0  0  0  0  0  0  0  0  0  0  0  0
    1.8743  -13.9235   -3.6262 H   0  0  0  0  0  0  0  0  0  0  0  0
    0.8036  -13.8755   -1.3675 H   0  0  0  0  0  0  0  0  0  0  0  0
   -0.1133  -11.7230   -0.4927 H   0  0  0  0  0  0  0  0  0  0  0  0
    0.0367   -9.6506   -1.8497 H   0  0  0  0  0  0  0  0  0  0  0  0
    3.4991   -2.6044   -3.1857 H   0  0  0  0  0  0  0  0  0  0  0  0
    3.7482   -1.2452   -2.0668 H   0  0  0  0  0  0  0  0  0  0  0  0
    3.1698   -1.3492   -5.8826 H   0  0  0  0  0  0  0  0  0  0  0  0
    4.5574   -2.4133   -5.5695 H   0  0  0  0  0  0  0  0  0  0  0  0
    4.8246   -0.7720   -6.2138 H   0  0  0  0  0  0  0  0  0  0  0  0
  1  2  1  0
  1 34  1  0
  1 35  1  0
  1 36  1  0
  2  3  1  6
  2  4  1  0
  2 33  1  0
  4  5  1  0
  4 37  1  0
  4 38  1  0
  5  6  1  0
  5 29  1  0
  6  7  2  0
  6  8  1  0
  8  9  1  0
  8 39  1  0
  8 40  1  0
  9 10  1  6
  9 11  1  0
  9 28  1  0
 11 12  1  0
 11 41  1  0
 11 42  1  0
 12 13  2  0
 13 14  1  0
 13 28  1  0
 14 15  2  0
 15 16  1  0
 15 19  1  0
 16 17  1  0
 16 26  2  0
 17 18  2  0
 17 43  1  0
 18 19  1  0
 19 20  1  0
 20 21  2  0
 20 25  1  0
 21 22  1  0
 21 44  1  0
 22 23  2  0
 22 45  1  0
 23 24  1  0
 23 46  1  0
 24 25  2  0
 24 47  1  0
 25 48  1  0
 26 27  1  0
 26 28  1  0
 29 30  1  0
 29 49  1  0
 29 50  1  0
 30 31  1  1
 30 32  1  0
 30 33  1  0
 32 51  1  0
 32 52  1  0
 32 53  1  0
M  CHG  2  12   1  27  -1
M  END

