
     RDKit          3D

 50 51  0  0  0  0  0  0  0  0999 V2000
    6.6238    5.8560   -9.1846 C   0  0  0  0  0  0  0  0  0  0  0  0
    6.0440    5.2836   -8.0143 O   0  0  0  0  0  0  0  0  0  0  0  0
    5.7039    6.0980   -7.0129 C   0  0  0  0  0  0  0  0  0  0  0  0
    5.1548    5.5151   -5.8579 C   0  0  0  0  0  0  0  0  0  0  0  0
    4.8118    6.3988   -4.8331 C   0  0  0  0  0  0  0  0  0  0  0  0
    4.2304    5.9471   -3.6576 N   0  0  0  0  0  0  0  0  0  0  0  0
    4.5007    6.6268   -2.0957 S   0  0  1  0  0  0  0  0  0  0  0  0
    3.9953    5.5637   -1.2265 O   0  0  0  0  0  0  0  0  0  0  0  0
    5.8745    7.1087   -2.0071 O   0  0  0  0  0  0  0  0  0  0  0  0
    3.3965    8.0263   -2.0082 C   0  0  0  0  0  0  0  0  0  0  0  0
    2.0356    7.8103   -1.7727 C   0  0  0  0  0  0  0  0  0  0  0  0
    1.1812    8.9087   -1.6917 C   0  0  0  0  0  0  0  0  0  0  0  0
    1.6751   10.2180   -1.8361 C   0  0  0  0  0  0  0  0  0  0  0  0
    0.7554   11.4117   -1.7485 C   0  0  0  0  0  0  0  0  0  0  0  0
    0.0936   11.6098   -0.3694 C   0  0  0  0  0  0  0  0  0  0  0  0
   -0.2204   10.6525    0.2997 O   0  0  0  0  0  0  0  0  0  0  0  0
   -0.1801   13.0544    0.1030 C   0  0  1  0  0  0  0  0  0  0  0  0
   -0.9241   13.8413   -0.9975 C   0  0  0  0  0  0  0  0  0  0  0  0
   -1.0331   13.0083    1.3794 C   0  0  0  0  0  0  0  0  0  0  0  0
    1.1764   13.7301    0.4100 C   0  0  0  0  0  0  0  0  0  0  0  0
    3.0501   10.4021   -2.0519 C   0  0  0  0  0  0  0  0  0  0  0  0
    3.9197    9.3135   -2.1352 C   0  0  0  0  0  0  0  0  0  0  0  0
    4.9973    7.7245   -4.9588 N   0  0  0  0  0  0  0  0  0  0  0  0
    5.5357    8.1617   -6.0910 C   0  0  0  0  0  0  0  0  0  0  0  0
    5.7340    9.6602   -6.1943 C   0  0  0  0  0  0  0  0  0  0  0  0
    5.1876   10.3511   -5.1101 O   0  0  0  0  0  0  0  0  0  0  0  0
    5.8994    7.4087   -7.1328 N   0  0  0  0  0  0  0  0  0  0  0  0
    6.8255    5.0139   -9.8587 H   0  0  0  0  0  0  0  0  0  0  0  0
    7.5585    6.3853   -8.9459 H   0  0  0  0  0  0  0  0  0  0  0  0
    5.9340    6.5688   -9.6610 H   0  0  0  0  0  0  0  0  0  0  0  0
    5.0265    4.4353   -5.7838 H   0  0  0  0  0  0  0  0  0  0  0  0
    4.0795    4.9457   -3.5584 H   0  0  0  0  0  0  0  0  0  0  0  0
    1.6563    6.7949   -1.6456 H   0  0  0  0  0  0  0  0  0  0  0  0
    0.1194    8.7519   -1.4986 H   0  0  0  0  0  0  0  0  0  0  0  0
   -0.0882   11.2882   -2.4528 H   0  0  0  0  0  0  0  0  0  0  0  0
    1.2824   12.3212   -2.0654 H   0  0  0  0  0  0  0  0  0  0  0  0
   -1.8814   13.3612   -1.2579 H   0  0  0  0  0  0  0  0  0  0  0  0
   -0.3310   13.9454   -1.9188 H   0  0  0  0  0  0  0  0  0  0  0  0
   -1.1497   14.8579   -0.6376 H   0  0  0  0  0  0  0  0  0  0  0  0
   -2.0028   12.5225    1.1934 H   0  0  0  0  0  0  0  0  0  0  0  0
   -1.2213   14.0297    1.7462 H   0  0  0  0  0  0  0  0  0  0  0  0
   -0.5300   12.4380    2.1731 H   0  0  0  0  0  0  0  0  0  0  0  0
    1.8190   13.8093   -0.4807 H   0  0  0  0  0  0  0  0  0  0  0  0
    1.7314   13.1777    1.1846 H   0  0  0  0  0  0  0  0  0  0  0  0
    1.0049   14.7523    0.7840 H   0  0  0  0  0  0  0  0  0  0  0  0
    3.4527   11.4118   -2.1666 H   0  0  0  0  0  0  0  0  0  0  0  0
    4.9869    9.4536   -2.3117 H   0  0  0  0  0  0  0  0  0  0  0  0
    5.2943    9.9894   -7.1571 H   0  0  0  0  0  0  0  0  0  0  0  0
    6.8237    9.8472   -6.2782 H   0  0  0  0  0  0  0  0  0  0  0  0
    4.7526    9.6731   -4.5638 H   0  0  0  0  0  0  0  0  0  0  0  0
  1  2  1  0
  1 28  1  0
  1 29  1  0
  1 30  1  0
  2  3  1  0
  3  4  2  0
  3 27  1  0
  4  5  1  0
  4 31  1  0
  5  6  1  0
  5 23  2  0
  7  6  1  6
  6 32  1  0
  7  8  2  0
  7  9  2  0
  7 10  1  0
 10 11  2  0
 10 22  1  0
 11 12  1  0
 11 33  1  0
 12 13  2  0
 12 34  1  0
 13 14  1  0
 13 21  1  0
 14 15  1  0
 14 35  1  0
 14 36  1  0
 15 16  2  0
 17 15  1  6
 17 18  1  0
 17 19  1  0
 17 20  1  0
 18 37  1  0
 18 38  1  0
 18 39  1  0
 19 40  1  0
 19 41  1  0
 19 42  1  0
 20 43  1  0
 20 44  1  0
 20 45  1  0
 21 22  2  0
 21 46  1  0
 22 47  1  0
 23 24  1  0
 24 25  1  0
 24 27  2  0
 25 26  1  0
 25 48  1  0
 25 49  1  0
 26 50  1  0
M  END

