
     RDKit          3D

 33 34  0  0  0  0  0  0  0  0999 V2000
    1.1355   -0.0144    0.3600 C   0  0  0  0  0  0  0  0  0  0  0  0
    2.6029   -0.0536    0.6638 C   0  0  0  0  0  0  0  0  0  0  0  0
    3.2792    0.8206    1.4758 C   0  0  0  0  0  0  0  0  0  0  0  0
    4.9609    0.3903    1.5623 S   0  0  0  0  0  0  0  0  0  0  0  0
    4.6202   -0.9333    0.4405 C   0  0  0  0  0  0  0  0  0  0  0  0
    5.6524   -1.7666    0.0260 N   0  0  0  0  0  0  0  0  0  0  0  0
    5.5414   -3.1621   -0.1178 C   0  0  0  0  0  0  0  0  0  0  0  0
    4.5815   -3.8062    0.2360 O   0  0  0  0  0  0  0  0  0  0  0  0
    6.6777   -3.7122   -0.6825 N   0  0  0  0  0  0  0  0  0  0  0  0
    6.7570   -5.1313   -0.9645 C   0  0  0  0  0  0  0  0  0  0  0  0
    8.0795   -5.7587   -0.5660 C   0  0  0  0  0  0  0  0  0  0  0  0
    8.7603   -5.3543    0.5906 C   0  0  0  0  0  0  0  0  0  0  0  0
    9.9568   -5.9664    0.9694 C   0  0  0  0  0  0  0  0  0  0  0  0
   10.4917   -6.9976    0.1915 C   0  0  0  0  0  0  0  0  0  0  0  0
   11.7820   -7.6775    0.5742 C   0  0  1  0  0  0  0  0  0  0  0  0
   12.3226   -7.1564    1.6882 F   0  0  0  0  0  0  0  0  0  0  0  0
   11.6006   -8.9938    0.7943 F   0  0  0  0  0  0  0  0  0  0  0  0
   12.7028   -7.5751   -0.4043 F   0  0  0  0  0  0  0  0  0  0  0  0
    9.8226   -7.4106   -0.9678 C   0  0  0  0  0  0  0  0  0  0  0  0
    8.6304   -6.7919   -1.3406 C   0  0  0  0  0  0  0  0  0  0  0  0
    3.3826   -1.0272    0.0774 N   0  0  0  0  0  0  0  0  0  0  0  0
    0.6403    0.8248    0.8687 H   0  0  0  0  0  0  0  0  0  0  0  0
    0.6532   -0.9530    0.6781 H   0  0  0  0  0  0  0  0  0  0  0  0
    0.9675    0.0811   -0.7251 H   0  0  0  0  0  0  0  0  0  0  0  0
    2.8924    1.6867    2.0094 H   0  0  0  0  0  0  0  0  0  0  0  0
    6.5854   -1.3708    0.0393 H   0  0  0  0  0  0  0  0  0  0  0  0
    7.3143   -3.1026   -1.1838 H   0  0  0  0  0  0  0  0  0  0  0  0
    6.5610   -5.3387   -2.0325 H   0  0  0  0  0  0  0  0  0  0  0  0
    5.9288   -5.5957   -0.4049 H   0  0  0  0  0  0  0  0  0  0  0  0
    8.3477   -4.5469    1.1995 H   0  0  0  0  0  0  0  0  0  0  0  0
   10.4767   -5.6437    1.8727 H   0  0  0  0  0  0  0  0  0  0  0  0
   10.2385   -8.2116   -1.5832 H   0  0  0  0  0  0  0  0  0  0  0  0
    8.1186   -7.1156   -2.2514 H   0  0  0  0  0  0  0  0  0  0  0  0
  1  2  1  0
  1 22  1  0
  1 23  1  0
  1 24  1  0
  2  3  2  0
  2 21  1  0
  3  4  1  0
  3 25  1  0
  4  5  1  0
  5  6  1  0
  5 21  2  0
  6  7  1  0
  6 26  1  0
  7  8  2  0
  7  9  1  0
  9 10  1  0
  9 27  1  0
 10 11  1  0
 10 28  1  0
 10 29  1  0
 11 12  2  0
 11 20  1  0
 12 13  1  0
 12 30  1  0
 13 14  2  0
 13 31  1  0
 14 15  1  0
 14 19  1  0
 15 16  1  1
 15 17  1  0
 15 18  1  0
 19 20  2  0
 19 32  1  0
 20 33  1  0
M  END

