
     RDKit          3D

 38 40  0  0  0  0  0  0  0  0999 V2000
    3.4838   -0.4016    1.2387 C   0  0  0  0  0  0  0  0  0  0  0  0
    2.5659    0.1602    0.1526 C   0  0  0  0  0  0  0  0  0  0  0  0
    2.9777    1.4698   -0.3445 N   0  0  0  0  0  0  0  0  0  0  0  0
    2.4219    2.7090   -0.0697 C   0  0  0  0  0  0  0  0  0  0  0  0
    1.2191    2.8968    0.8083 C   0  0  0  0  0  0  0  0  0  0  0  0
    1.4850    2.6557    2.3070 C   0  0  0  0  0  0  0  0  0  0  0  0
    1.1539    1.5877    2.8007 O   0  0  0  0  0  0  0  0  0  0  0  0
    2.1318    3.7227    3.1044 C   0  0  0  0  0  0  0  0  0  0  0  0
    2.2464    3.5401    4.4989 C   0  0  0  0  0  0  0  0  0  0  0  0
    2.8311    4.5003    5.3072 C   0  0  0  0  0  0  0  0  0  0  0  0
    3.3434    5.6960    4.7473 C   0  0  0  0  0  0  0  0  0  0  0  0
    3.9532    6.6362    5.5376 N   0  0  0  0  0  0  0  0  0  0  0  0
    3.2410    5.8771    3.3494 C   0  0  0  0  0  0  0  0  0  0  0  0
    2.6447    4.9128    2.5472 C   0  0  0  0  0  0  0  0  0  0  0  0
    3.0516    3.7000   -0.6584 N   0  0  0  0  0  0  0  0  0  0  0  0
    4.0782    3.1157   -1.3728 C   0  0  0  0  0  0  0  0  0  0  0  0
    5.0538    3.6955   -2.1986 C   0  0  0  0  0  0  0  0  0  0  0  0
    5.9717    2.8533   -2.8226 C   0  0  0  0  0  0  0  0  0  0  0  0
    5.9273    1.4546   -2.6376 C   0  0  0  0  0  0  0  0  0  0  0  0
    4.9669    0.8573   -1.8203 C   0  0  0  0  0  0  0  0  0  0  0  0
    4.0494    1.7086   -1.1916 C   0  0  0  0  0  0  0  0  0  0  0  0
    3.1396   -1.4062    1.5306 H   0  0  0  0  0  0  0  0  0  0  0  0
    3.4628    0.2342    2.1354 H   0  0  0  0  0  0  0  0  0  0  0  0
    4.5243   -0.4842    0.8892 H   0  0  0  0  0  0  0  0  0  0  0  0
    1.5472    0.2545    0.5518 H   0  0  0  0  0  0  0  0  0  0  0  0
    2.5208   -0.5267   -0.7095 H   0  0  0  0  0  0  0  0  0  0  0  0
    0.4171    2.1984    0.5267 H   0  0  0  0  0  0  0  0  0  0  0  0
    0.8614    3.9191    0.6327 H   0  0  0  0  0  0  0  0  0  0  0  0
    1.8536    2.6163    4.9288 H   0  0  0  0  0  0  0  0  0  0  0  0
    2.9036    4.3396    6.3868 H   0  0  0  0  0  0  0  0  0  0  0  0
    3.8437    6.5837    6.5415 H   0  0  0  0  0  0  0  0  0  0  0  0
    4.1365    7.5557    5.1587 H   0  0  0  0  0  0  0  0  0  0  0  0
    3.6439    6.7868    2.8954 H   0  0  0  0  0  0  0  0  0  0  0  0
    2.6146    5.0763    1.4677 H   0  0  0  0  0  0  0  0  0  0  0  0
    5.0775    4.7779   -2.3415 H   0  0  0  0  0  0  0  0  0  0  0  0
    6.7418    3.2793   -3.4708 H   0  0  0  0  0  0  0  0  0  0  0  0
    6.6621    0.8248   -3.1455 H   0  0  0  0  0  0  0  0  0  0  0  0
    4.9406   -0.2258   -1.6841 H   0  0  0  0  0  0  0  0  0  0  0  0
  1  2  1  0
  1 22  1  0
  1 23  1  0
  1 24  1  0
  2  3  1  0
  2 25  1  0
  2 26  1  0
  3  4  1  0
  3 21  1  0
  4  5  1  0
  4 15  2  0
  5  6  1  0
  5 27  1  0
  5 28  1  0
  6  7  2  0
  6  8  1  0
  8  9  2  0
  8 14  1  0
  9 10  1  0
  9 29  1  0
 10 11  2  0
 10 30  1  0
 11 12  1  0
 11 13  1  0
 12 31  1  0
 12 32  1  0
 13 14  2  0
 13 33  1  0
 14 34  1  0
 15 16  1  0
 16 17  1  0
 16 21  2  0
 17 18  2  0
 17 35  1  0
 18 19  1  0
 18 36  1  0
 19 20  2  0
 19 37  1  0
 20 21  1  0
 20 38  1  0
M  END

