
     RDKit          3D

 39 41  0  0  0  0  0  0  0  0999 V2000
    1.1959   -0.2761    0.0635 O   0  0  0  0  0  0  0  0  0  0  0  0
    2.4148   -0.1446    0.1662 C   0  0  0  0  0  0  0  0  0  0  0  0
    2.9981    1.0251    0.5267 N   0  0  0  0  0  0  0  0  0  0  0  0
    2.2193    2.1978    0.8147 C   0  0  0  0  0  0  0  0  0  0  0  0
    3.1812    3.3343    1.1825 C   0  0  0  0  0  0  0  0  0  0  0  0
    4.3899    3.1311    1.1845 O   0  0  0  0  0  0  0  0  0  0  0  0
    2.6351    4.5448    1.4951 N   0  0  0  0  0  0  0  0  0  0  0  0
    3.5074    5.6538    1.8847 C   0  0  0  0  0  0  0  0  0  0  0  0
    3.1631    6.9066    1.0808 C   0  0  0  0  0  0  0  0  0  0  0  0
    1.7453    7.2056    1.2349 N   0  0  0  0  0  0  0  0  0  0  0  0
    0.9054    6.1205    0.7539 C   0  0  0  0  0  0  0  0  0  0  0  0
    1.2080    4.8499    1.5531 C   0  0  0  0  0  0  0  0  0  0  0  0
    3.3212   -1.2863   -0.1067 C   0  0  0  0  0  0  0  0  0  0  0  0
    4.6945   -1.4524   -0.0778 C   0  0  0  0  0  0  0  0  0  0  0  0
    4.9573   -2.8121   -0.4478 C   0  0  0  0  0  0  0  0  0  0  0  0
    6.1295   -3.5826   -0.6003 C   0  0  0  0  0  0  0  0  0  0  0  0
    6.0165   -4.9128   -0.9831 C   0  0  0  0  0  0  0  0  0  0  0  0
    4.7508   -5.5006   -1.2198 C   0  0  0  0  0  0  0  0  0  0  0  0
    3.5759   -4.7712   -1.0787 C   0  0  0  0  0  0  0  0  0  0  0  0
    3.6881   -3.4257   -0.6920 C   0  0  0  0  0  0  0  0  0  0  0  0
    2.7271   -2.4738   -0.4756 N   0  0  0  0  0  0  0  0  0  0  0  0
    1.7203   -2.5591   -0.5573 H   0  0  0  0  0  0  0  0  0  0  0  0
    4.0052    1.1437    0.6100 H   0  0  0  0  0  0  0  0  0  0  0  0
    1.5095    2.0094    1.6409 H   0  0  0  0  0  0  0  0  0  0  0  0
    1.5975    2.4821   -0.0540 H   0  0  0  0  0  0  0  0  0  0  0  0
    4.5447    5.3382    1.7211 H   0  0  0  0  0  0  0  0  0  0  0  0
    3.3659    5.8638    2.9609 H   0  0  0  0  0  0  0  0  0  0  0  0
    3.4579    6.7379    0.0201 H   0  0  0  0  0  0  0  0  0  0  0  0
    3.7577    7.7534    1.4594 H   0  0  0  0  0  0  0  0  0  0  0  0
    1.5040    8.0822    0.7779 H   0  0  0  0  0  0  0  0  0  0  0  0
    1.0581    5.8953   -0.3270 H   0  0  0  0  0  0  0  0  0  0  0  0
   -0.1549    6.3877    0.8909 H   0  0  0  0  0  0  0  0  0  0  0  0
    0.6176    4.0136    1.1614 H   0  0  0  0  0  0  0  0  0  0  0  0
    0.9118    5.0119    2.6064 H   0  0  0  0  0  0  0  0  0  0  0  0
    5.4355   -0.6970    0.1778 H   0  0  0  0  0  0  0  0  0  0  0  0
    7.1109   -3.1363   -0.4194 H   0  0  0  0  0  0  0  0  0  0  0  0
    6.9168   -5.5203   -1.1048 H   0  0  0  0  0  0  0  0  0  0  0  0
    4.6970   -6.5503   -1.5198 H   0  0  0  0  0  0  0  0  0  0  0  0
    2.6002   -5.2276   -1.2622 H   0  0  0  0  0  0  0  0  0  0  0  0
  1  2  2  0
  2  3  1  0
  2 13  1  0
  3  4  1  0
  3 23  1  0
  4  5  1  0
  4 24  1  0
  4 25  1  0
  5  6  2  0
  5  7  1  0
  7  8  1  0
  7 12  1  0
  8  9  1  0
  8 26  1  0
  8 27  1  0
  9 10  1  0
  9 28  1  0
  9 29  1  0
 10 11  1  0
 10 30  1  0
 11 12  1  0
 11 31  1  0
 11 32  1  0
 12 33  1  0
 12 34  1  0
 13 14  2  0
 13 21  1  0
 14 15  1  0
 14 35  1  0
 15 16  2  0
 15 20  1  0
 16 17  1  0
 16 36  1  0
 17 18  2  0
 17 37  1  0
 18 19  1  0
 18 38  1  0
 19 20  2  0
 19 39  1  0
 20 21  1  0
 21 22  1  0
M  END

