
     RDKit          3D

 42 43  0  0  0  0  0  0  0  0999 V2000
    2.8222   -0.6217   -0.7286 C   0  0  0  0  0  0  0  0  0  0  0  0
    1.9497    0.1456    0.2683 C   0  0  1  0  0  0  0  0  0  0  0  0
    0.5025   -0.3530    0.2930 C   0  0  0  0  0  0  0  0  0  0  0  0
    2.5363    0.0920    1.6142 N   0  0  0  0  0  0  0  0  0  0  0  0
    2.9834    1.1447    2.3654 C   0  0  0  0  0  0  0  0  0  0  0  0
    3.4424    0.5898    3.5556 C   0  0  0  0  0  0  0  0  0  0  0  0
    3.9880    1.1831    4.6486 O   0  0  0  0  0  0  0  0  0  0  0  0
    4.1099    2.5893    4.6170 C   0  0  0  0  0  0  0  0  0  0  0  0
    4.7315    3.0882    5.9423 C   0  0  1  0  0  0  0  0  0  0  0  0
    6.1347    2.4335    5.9687 C   0  0  0  0  0  0  0  0  0  0  0  0
    7.1423    2.6762    7.4665 S   0  0  1  0  0  0  0  0  0  0  0  0
    7.4914    4.0816    7.6356 O   0  0  0  0  0  0  0  0  0  0  0  0
    6.6266    1.8844    8.5752 O   0  0  0  0  0  0  0  0  0  0  0  0
    8.9216    1.6786    6.7741 Cl  0  0  0  0  0  0  0  0  0  0  0  0
    4.8200    4.6353    5.9073 C   0  0  0  0  0  0  0  0  0  0  0  0
    3.4551    5.3102    6.0876 C   0  0  0  0  0  0  0  0  0  0  0  0
    2.7921    4.8590    7.2467 O   0  0  0  0  0  0  0  0  0  0  0  0
    2.5547    3.4658    7.2262 C   0  0  0  0  0  0  0  0  0  0  0  0
    3.8578    2.6679    7.1515 C   0  0  0  0  0  0  0  0  0  0  0  0
    3.2270   -0.8021    3.4193 C   0  0  0  0  0  0  0  0  0  0  0  0
    2.6788   -1.0777    2.2379 N   0  0  0  0  0  0  0  0  0  0  0  0
    2.4006   -0.5463   -1.7429 H   0  0  0  0  0  0  0  0  0  0  0  0
    2.8754   -1.6840   -0.4480 H   0  0  0  0  0  0  0  0  0  0  0  0
    3.8466   -0.2191   -0.7483 H   0  0  0  0  0  0  0  0  0  0  0  0
    1.9552    1.2147   -0.0003 H   0  0  0  0  0  0  0  0  0  0  0  0
    0.4684   -1.4056    0.6109 H   0  0  0  0  0  0  0  0  0  0  0  0
    0.0533   -0.2734   -0.7092 H   0  0  0  0  0  0  0  0  0  0  0  0
   -0.1069    0.2383    0.9937 H   0  0  0  0  0  0  0  0  0  0  0  0
    2.9404    2.1681    2.0032 H   0  0  0  0  0  0  0  0  0  0  0  0
    3.1177    3.0479    4.4614 H   0  0  0  0  0  0  0  0  0  0  0  0
    4.7496    2.8965    3.7659 H   0  0  0  0  0  0  0  0  0  0  0  0
    6.7739    2.8252    5.1640 H   0  0  0  0  0  0  0  0  0  0  0  0
    6.0634    1.3417    5.8746 H   0  0  0  0  0  0  0  0  0  0  0  0
    5.2828    4.9746    4.9634 H   0  0  0  0  0  0  0  0  0  0  0  0
    5.4805    4.9704    6.7196 H   0  0  0  0  0  0  0  0  0  0  0  0
    2.8124    5.1548    5.1948 H   0  0  0  0  0  0  0  0  0  0  0  0
    3.5894    6.3966    6.2007 H   0  0  0  0  0  0  0  0  0  0  0  0
    1.8779    3.2052    6.3853 H   0  0  0  0  0  0  0  0  0  0  0  0
    2.0202    3.2232    8.1568 H   0  0  0  0  0  0  0  0  0  0  0  0
    3.6418    1.5894    7.1047 H   0  0  0  0  0  0  0  0  0  0  0  0
    4.4152    2.8440    8.0828 H   0  0  0  0  0  0  0  0  0  0  0  0
    3.4529   -1.5900    4.1365 H   0  0  0  0  0  0  0  0  0  0  0  0
  1  2  1  0
  1 22  1  0
  1 23  1  0
  1 24  1  0
  2  3  1  0
  2  4  1  0
  2 25  1  6
  3 26  1  0
  3 27  1  0
  3 28  1  0
  4  5  1  0
  4 21  1  0
  5  6  2  0
  5 29  1  0
  6  7  1  0
  6 20  1  0
  7  8  1  0
  9  8  1  6
  8 30  1  0
  8 31  1  0
  9 10  1  0
  9 15  1  0
  9 19  1  0
 10 11  1  0
 10 32  1  0
 10 33  1  0
 11 12  2  0
 11 13  2  0
 11 14  1  6
 15 16  1  0
 15 34  1  0
 15 35  1  0
 16 17  1  0
 16 36  1  0
 16 37  1  0
 17 18  1  0
 18 19  1  0
 18 38  1  0
 18 39  1  0
 19 40  1  0
 19 41  1  0
 20 21  2  0
 20 42  1  0
M  END

