
     RDKit          3D

 73 79  0  0  0  0  0  0  0  0999 V2000
    2.3865   -7.9435   -1.1762 O   0  0  0  0  0  0  0  0  0  0  0  0
    3.4222   -7.4196   -0.8290 C   0  0  0  0  0  0  0  0  0  0  0  0
    4.5191   -7.4199   -1.5784 O   0  0  0  0  0  0  0  0  0  0  0  0
    3.5588   -6.7144    0.4927 C   0  0  0  0  0  0  0  0  0  0  0  0
    2.4599   -6.6782    1.3098 C   0  0  0  0  0  0  0  0  0  0  0  0
    2.4248   -6.0673    2.5226 N   0  0  0  0  0  0  0  0  0  0  0  0
    1.2207   -6.1279    3.3270 C   0  0  1  0  0  0  0  0  0  0  0  0
    0.3946   -4.8849    3.5484 C   0  0  0  0  0  0  0  0  0  0  0  0
   -0.1280   -5.9953    2.6772 C   0  0  0  0  0  0  0  0  0  0  0  0
    3.5883   -5.4665    3.0317 C   0  0  0  0  0  0  0  0  0  0  0  0
    3.6074   -4.8957    4.3176 C   0  0  0  0  0  0  0  0  0  0  0  0
    4.7608   -4.2905    4.8514 C   0  0  0  0  0  0  0  0  0  0  0  0
    4.7745   -3.6752    6.0917 N   0  0  0  0  0  0  0  0  0  0  0  0
    3.5436   -3.3189    6.7858 C   0  0  0  0  0  0  0  0  0  0  0  0
    3.1836   -4.3284    7.8807 C   0  0  0  0  0  0  0  0  0  0  0  0
    4.3067   -4.4583    8.8027 N   0  0  0  0  0  0  0  0  0  0  0  0
    4.0433   -5.1248   10.0422 C   0  0  0  0  0  0  0  0  0  0  0  0
    3.8379   -6.5820    9.9663 N   0  0  0  0  0  0  0  0  0  0  0  0
    2.6579   -7.0902    9.5131 N   0  0  0  0  0  0  0  0  0  0  0  0
    2.8026   -8.3867    9.5065 C   0  0  0  0  0  0  0  0  0  0  0  0
    1.7305   -9.3133    9.1002 C   0  0  0  0  0  0  0  0  0  0  0  0
    0.3984   -8.9625    9.3963 C   0  0  0  0  0  0  0  0  0  0  0  0
   -0.6393   -9.8036    8.9997 C   0  0  0  0  0  0  0  0  0  0  0  0
   -0.3747  -10.9913    8.3115 C   0  0  0  0  0  0  0  0  0  0  0  0
    0.9490  -11.3383    8.0076 C   0  0  0  0  0  0  0  0  0  0  0  0
    1.2780  -12.4649    7.3298 O   0  0  0  0  0  0  0  0  0  0  0  0
    2.0000  -10.4975    8.4009 C   0  0  0  0  0  0  0  0  0  0  0  0
    4.0761   -8.7289    9.9573 N   0  0  0  0  0  0  0  0  0  0  0  0
    4.6330  -10.0215   10.1766 C   0  0  0  0  0  0  0  0  0  0  0  0
    4.3672  -10.7070   11.3659 C   0  0  0  0  0  0  0  0  0  0  0  0
    4.9280  -11.9583   11.6143 C   0  0  0  0  0  0  0  0  0  0  0  0
    5.7790  -12.5222   10.6589 C   0  0  0  0  0  0  0  0  0  0  0  0
    6.4945  -14.0836   10.9543 Cl  0  0  0  0  0  0  0  0  0  0  0  0
    6.0673  -11.8551    9.4655 C   0  0  0  0  0  0  0  0  0  0  0  0
    5.4922  -10.6052    9.2302 C   0  0  0  0  0  0  0  0  0  0  0  0
    5.8149   -9.7936    7.7246 Cl  0  0  0  0  0  0  0  0  0  0  0  0
    4.7607   -7.5492   10.2679 C   0  0  0  0  0  0  0  0  0  0  0  0
    6.2965   -7.3929   10.8857 S   0  0  0  0  0  0  0  0  0  0  0  0
    5.5527   -4.8223    8.1332 C   0  0  0  0  0  0  0  0  0  0  0  0
    5.8913   -3.8106    7.0332 C   0  0  0  0  0  0  0  0  0  0  0  0
    5.9141   -4.2832    4.0083 C   0  0  0  0  0  0  0  0  0  0  0  0
    7.0290   -3.6593    4.4358 F   0  0  0  0  0  0  0  0  0  0  0  0
    5.9210   -4.8617    2.7637 C   0  0  0  0  0  0  0  0  0  0  0  0
    4.7630   -5.4713    2.2419 C   0  0  0  0  0  0  0  0  0  0  0  0
    4.8014   -6.0903    0.9135 C   0  0  0  0  0  0  0  0  0  0  0  0
    5.8300   -6.0879    0.2095 O   0  0  0  0  0  0  0  0  0  0  0  0
    5.2382   -6.9293   -1.0857 H   0  0  0  0  0  0  0  0  0  0  0  0
    1.5441   -7.1663    0.9738 H   0  0  0  0  0  0  0  0  0  0  0  0
    1.3017   -6.8271    4.1679 H   0  0  0  0  0  0  0  0  0  0  0  0
    0.7272   -3.9718    3.0475 H   0  0  0  0  0  0  0  0  0  0  0  0
   -0.0426   -4.7311    4.5389 H   0  0  0  0  0  0  0  0  0  0  0  0
   -0.1733   -5.8121    1.6010 H   0  0  0  0  0  0  0  0  0  0  0  0
   -0.9273   -6.6375    3.0557 H   0  0  0  0  0  0  0  0  0  0  0  0
    2.7129   -4.9469    4.9300 H   0  0  0  0  0  0  0  0  0  0  0  0
    2.7220   -3.2027    6.0671 H   0  0  0  0  0  0  0  0  0  0  0  0
    3.7044   -2.3356    7.2638 H   0  0  0  0  0  0  0  0  0  0  0  0
    2.9030   -5.2999    7.4219 H   0  0  0  0  0  0  0  0  0  0  0  0
    2.3024   -3.9718    8.4389 H   0  0  0  0  0  0  0  0  0  0  0  0
    3.1327   -4.7069   10.4962 H   0  0  0  0  0  0  0  0  0  0  0  0
    4.8947   -4.9976   10.7256 H   0  0  0  0  0  0  0  0  0  0  0  0
    0.1960   -8.0374    9.9368 H   0  0  0  0  0  0  0  0  0  0  0  0
   -1.6733   -9.5384    9.2334 H   0  0  0  0  0  0  0  0  0  0  0  0
   -1.1948  -11.6494    8.0078 H   0  0  0  0  0  0  0  0  0  0  0  0
    0.4783  -12.9548    7.0966 H   0  0  0  0  0  0  0  0  0  0  0  0
    3.0122  -10.7789    8.1157 H   0  0  0  0  0  0  0  0  0  0  0  0
    3.7143  -10.2412   12.1062 H   0  0  0  0  0  0  0  0  0  0  0  0
    4.7174  -12.4918   12.5417 H   0  0  0  0  0  0  0  0  0  0  0  0
    6.7285  -12.3016    8.7234 H   0  0  0  0  0  0  0  0  0  0  0  0
    5.4981   -5.8378    7.6826 H   0  0  0  0  0  0  0  0  0  0  0  0
    6.3636   -4.8520    8.8769 H   0  0  0  0  0  0  0  0  0  0  0  0
    6.7995   -4.1201    6.5090 H   0  0  0  0  0  0  0  0  0  0  0  0
    6.0845   -2.8250    7.4921 H   0  0  0  0  0  0  0  0  0  0  0  0
    6.8219   -4.8335    2.1488 H   0  0  0  0  0  0  0  0  0  0  0  0
  1  2  2  0
  2  3  1  0
  2  4  1  0
  3 47  1  0
  4  5  2  0
  4 45  1  0
  5  6  1  0
  5 48  1  0
  6  7  1  0
  6 10  1  0
  7  8  1  0
  7  9  1  0
  7 49  1  1
  8  9  1  0
  8 50  1  0
  8 51  1  0
  9 52  1  0
  9 53  1  0
 10 11  1  0
 10 44  2  0
 11 12  2  0
 11 54  1  0
 12 13  1  0
 12 41  1  0
 13 14  1  0
 13 40  1  0
 14 15  1  0
 14 55  1  0
 14 56  1  0
 15 16  1  0
 15 57  1  0
 15 58  1  0
 16 17  1  0
 16 39  1  0
 17 18  1  0
 17 59  1  0
 17 60  1  0
 18 19  1  0
 18 37  1  0
 19 20  2  0
 20 21  1  0
 20 28  1  0
 21 22  2  0
 21 27  1  0
 22 23  1  0
 22 61  1  0
 23 24  2  0
 23 62  1  0
 24 25  1  0
 24 63  1  0
 25 26  1  0
 25 27  2  0
 26 64  1  0
 27 65  1  0
 28 29  1  0
 28 37  1  0
 29 30  2  0
 29 35  1  0
 30 31  1  0
 30 66  1  0
 31 32  2  0
 31 67  1  0
 32 33  1  0
 32 34  1  0
 34 35  2  0
 34 68  1  0
 35 36  1  0
 37 38  2  0
 39 40  1  0
 39 69  1  0
 39 70  1  0
 40 71  1  0
 40 72  1  0
 41 42  1  0
 41 43  2  0
 43 44  1  0
 43 73  1  0
 44 45  1  0
 45 46  2  0
M  END

