
     RDKit          3D

126135  0  0  0  0  0  0  0  0999 V2000
    5.4921   -4.2663   -8.9425 C   0  0  0  0  0  0  0  0  0  0  0  0
    4.2885   -4.2596   -7.9715 C   0  0  1  0  0  0  0  0  0  0  0  0
    2.9888   -4.5333   -8.7637 C   0  0  0  0  0  0  0  0  0  0  0  0
    4.4831   -5.4043   -6.9610 C   0  0  0  0  0  0  0  0  0  0  0  0
    4.1896   -2.8844   -7.2803 C   0  0  0  0  0  0  0  0  0  0  0  0
    4.0160   -1.7190   -8.0677 C   0  0  0  0  0  0  0  0  0  0  0  0
    3.9116   -0.4414   -7.5218 C   0  0  0  0  0  0  0  0  0  0  0  0
    3.9757   -0.3132   -6.1292 C   0  0  0  0  0  0  0  0  0  0  0  0
    4.1681   -1.4531   -5.3117 C   0  0  0  0  0  0  0  0  0  0  0  0
    4.2693   -2.7267   -5.8923 C   0  0  0  0  0  0  0  0  0  0  0  0
    4.2392   -0.9801   -3.9417 C   0  0  0  0  0  0  0  0  0  0  0  0
    4.3956   -1.6328   -2.7094 C   0  0  0  0  0  0  0  0  0  0  0  0
    4.4011   -0.9056   -1.5139 C   0  0  0  0  0  0  0  0  0  0  0  0
    4.5743   -1.5703   -0.1330 C   0  0  1  0  0  0  0  0  0  0  0  0
    5.8332   -0.9996    0.5605 C   0  0  0  0  0  0  0  0  0  0  0  0
    3.3316   -1.2809    0.7409 C   0  0  0  0  0  0  0  0  0  0  0  0
    4.7382   -3.0971   -0.2405 C   0  0  0  0  0  0  0  0  0  0  0  0
    4.2334    0.4992   -1.5958 C   0  0  0  0  0  0  0  0  0  0  0  0
    4.0768    1.1765   -2.8034 C   0  0  0  0  0  0  0  0  0  0  0  0
    4.0927    0.4276   -3.9861 C   0  0  0  0  0  0  0  0  0  0  0  0
    3.9308    0.8323   -5.3198 N   0  0  0  0  0  0  0  0  0  0  0  0
    3.7487    2.1583   -5.7671 C   0  0  0  0  0  0  0  0  0  0  0  0
    4.6144    3.1802   -5.3398 C   0  0  0  0  0  0  0  0  0  0  0  0
    4.4212    4.4924   -5.7632 C   0  0  0  0  0  0  0  0  0  0  0  0
    3.3758    4.8209   -6.6463 C   0  0  0  0  0  0  0  0  0  0  0  0
    3.1983    6.1914   -7.1897 C   0  0  0  0  0  0  0  0  0  0  0  0
    2.8174    6.2664   -8.4509 N   0  0  0  0  0  0  0  0  0  0  0  0
    2.7976    7.4601   -9.0786 C   0  0  0  0  0  0  0  0  0  0  0  0
    2.3730    7.5571  -10.4430 C   0  0  0  0  0  0  0  0  0  0  0  0
    1.8834    6.3918  -11.1211 C   0  0  0  0  0  0  0  0  0  0  0  0
    1.4766    5.4709  -11.6989 N   0  0  0  0  0  0  0  0  0  0  0  0
    2.4539    8.7813  -11.1004 C   0  0  0  0  0  0  0  0  0  0  0  0
    2.9485    9.9247  -10.4427 C   0  0  0  0  0  0  0  0  0  0  0  0
    3.3469    9.8670   -9.1102 C   0  0  0  0  0  0  0  0  0  0  0  0
    3.8370   11.0369   -8.4405 C   0  0  0  0  0  0  0  0  0  0  0  0
    4.2349   12.0018   -7.9327 N   0  0  0  0  0  0  0  0  0  0  0  0
    3.2528    8.6273   -8.3993 C   0  0  0  0  0  0  0  0  0  0  0  0
    3.5432    8.5686   -7.0833 N   0  0  0  0  0  0  0  0  0  0  0  0
    3.4654    7.4182   -6.4421 C   0  0  0  0  0  0  0  0  0  0  0  0
    3.6082    7.4878   -4.9644 C   0  0  0  0  0  0  0  0  0  0  0  0
    2.8368    6.6912   -4.0982 C   0  0  0  0  0  0  0  0  0  0  0  0
    2.9381    6.8316   -2.7162 C   0  0  0  0  0  0  0  0  0  0  0  0
    3.8152    7.7779   -2.1586 C   0  0  0  0  0  0  0  0  0  0  0  0
    3.9267    7.9146   -0.7576 N   0  0  0  0  0  0  0  0  0  0  0  0
    5.1222    7.9100   -0.0231 C   0  0  0  0  0  0  0  0  0  0  0  0
    6.4435    7.7456   -0.4450 C   0  0  0  0  0  0  0  0  0  0  0  0
    7.4531    7.7530    0.5213 C   0  0  0  0  0  0  0  0  0  0  0  0
    7.1920    7.9137    1.9005 C   0  0  0  0  0  0  0  0  0  0  0  0
    8.3127    7.9281    2.9616 C   0  0  1  0  0  0  0  0  0  0  0  0
    8.2917    9.2785    3.7148 C   0  0  0  0  0  0  0  0  0  0  0  0
    8.0866    6.7764    3.9685 C   0  0  0  0  0  0  0  0  0  0  0  0
    9.7098    7.7502    2.3393 C   0  0  0  0  0  0  0  0  0  0  0  0
    5.8542    8.0597    2.2986 C   0  0  0  0  0  0  0  0  0  0  0  0
    4.8207    8.0559    1.3558 C   0  0  0  0  0  0  0  0  0  0  0  0
    3.3763    8.1590    1.4605 C   0  0  0  0  0  0  0  0  0  0  0  0
    2.5048    8.3377    2.5453 C   0  0  0  0  0  0  0  0  0  0  0  0
    1.1236    8.4335    2.3410 C   0  0  0  0  0  0  0  0  0  0  0  0
    0.1199    8.6265    3.4959 C   0  0  1  0  0  0  0  0  0  0  0  0
    0.8179    8.6924    4.8663 C   0  0  0  0  0  0  0  0  0  0  0  0
   -0.6594    9.9462    3.2898 C   0  0  0  0  0  0  0  0  0  0  0  0
   -0.8742    7.4420    3.5196 C   0  0  0  0  0  0  0  0  0  0  0  0
    0.6476    8.3546    1.0087 C   0  0  0  0  0  0  0  0  0  0  0  0
    1.4870    8.1767   -0.0893 C   0  0  0  0  0  0  0  0  0  0  0  0
    2.8627    8.0657    0.1444 C   0  0  0  0  0  0  0  0  0  0  0  0
    4.5755    8.5896   -3.0183 C   0  0  0  0  0  0  0  0  0  0  0  0
    4.4665    8.4494   -4.3988 C   0  0  0  0  0  0  0  0  0  0  0  0
    2.5355    3.7859   -7.0986 C   0  0  0  0  0  0  0  0  0  0  0  0
    2.7036    2.4789   -6.6517 C   0  0  0  0  0  0  0  0  0  0  0  0
    5.5755   -5.2430   -9.4475 H   0  0  0  0  0  0  0  0  0  0  0  0
    6.4346   -4.0799   -8.4034 H   0  0  0  0  0  0  0  0  0  0  0  0
    5.3962   -3.4966   -9.7234 H   0  0  0  0  0  0  0  0  0  0  0  0
    3.0426   -5.5121   -9.2687 H   0  0  0  0  0  0  0  0  0  0  0  0
    2.8099   -3.7702   -9.5366 H   0  0  0  0  0  0  0  0  0  0  0  0
    2.1137   -4.5427   -8.0945 H   0  0  0  0  0  0  0  0  0  0  0  0
    4.5478   -6.3660   -7.4941 H   0  0  0  0  0  0  0  0  0  0  0  0
    3.6423   -5.4753   -6.2534 H   0  0  0  0  0  0  0  0  0  0  0  0
    5.4112   -5.2863   -6.3800 H   0  0  0  0  0  0  0  0  0  0  0  0
    3.9629   -1.8109   -9.1548 H   0  0  0  0  0  0  0  0  0  0  0  0
    3.7923    0.4256   -8.1730 H   0  0  0  0  0  0  0  0  0  0  0  0
    4.4166   -3.5879   -5.2404 H   0  0  0  0  0  0  0  0  0  0  0  0
    4.5072   -2.7171   -2.7032 H   0  0  0  0  0  0  0  0  0  0  0  0
    5.7639    0.0890    0.7081 H   0  0  0  0  0  0  0  0  0  0  0  0
    6.7370   -1.1990   -0.0371 H   0  0  0  0  0  0  0  0  0  0  0  0
    5.9714   -1.4616    1.5522 H   0  0  0  0  0  0  0  0  0  0  0  0
    3.1798   -0.2019    0.8967 H   0  0  0  0  0  0  0  0  0  0  0  0
    3.4403   -1.7480    1.7338 H   0  0  0  0  0  0  0  0  0  0  0  0
    2.4187   -1.6829    0.2733 H   0  0  0  0  0  0  0  0  0  0  0  0
    5.6259   -3.3746   -0.8302 H   0  0  0  0  0  0  0  0  0  0  0  0
    3.8584   -3.5736   -0.7006 H   0  0  0  0  0  0  0  0  0  0  0  0
    4.8606   -3.5312    0.7643 H   0  0  0  0  0  0  0  0  0  0  0  0
    4.2221    1.0910   -0.6778 H   0  0  0  0  0  0  0  0  0  0  0  0
    3.9394    2.2586   -2.8121 H   0  0  0  0  0  0  0  0  0  0  0  0
    5.4551    2.9358   -4.6890 H   0  0  0  0  0  0  0  0  0  0  0  0
    5.1178    5.2621   -5.4275 H   0  0  0  0  0  0  0  0  0  0  0  0
    2.1367    8.8534  -12.1419 H   0  0  0  0  0  0  0  0  0  0  0  0
    3.0138   10.8710  -10.9820 H   0  0  0  0  0  0  0  0  0  0  0  0
    2.1425    5.9535   -4.5034 H   0  0  0  0  0  0  0  0  0  0  0  0
    2.3434    6.1953   -2.0590 H   0  0  0  0  0  0  0  0  0  0  0  0
    6.6954    7.6083   -1.4974 H   0  0  0  0  0  0  0  0  0  0  0  0
    8.4789    7.6264    0.1759 H   0  0  0  0  0  0  0  0  0  0  0  0
    7.3311    9.4496    4.2243 H   0  0  0  0  0  0  0  0  0  0  0  0
    8.4565   10.1191    3.0221 H   0  0  0  0  0  0  0  0  0  0  0  0
    9.0847    9.3071    4.4806 H   0  0  0  0  0  0  0  0  0  0  0  0
    7.1202    6.8677    4.4874 H   0  0  0  0  0  0  0  0  0  0  0  0
    8.8776    6.7734    4.7368 H   0  0  0  0  0  0  0  0  0  0  0  0
    8.1018    5.7992    3.4601 H   0  0  0  0  0  0  0  0  0  0  0  0
    9.9504    8.5575    1.6298 H   0  0  0  0  0  0  0  0  0  0  0  0
    9.8058    6.7890    1.8104 H   0  0  0  0  0  0  0  0  0  0  0  0
   10.4751    7.7684    3.1312 H   0  0  0  0  0  0  0  0  0  0  0  0
    5.6031    8.1740    3.3557 H   0  0  0  0  0  0  0  0  0  0  0  0
    2.9261    8.4063    3.5483 H   0  0  0  0  0  0  0  0  0  0  0  0
    1.5214    9.5373    4.9291 H   0  0  0  0  0  0  0  0  0  0  0  0
    1.3721    7.7674    5.0902 H   0  0  0  0  0  0  0  0  0  0  0  0
    0.0678    8.8283    5.6613 H   0  0  0  0  0  0  0  0  0  0  0  0
    0.0243   10.8099    3.2759 H   0  0  0  0  0  0  0  0  0  0  0  0
   -1.3846   10.0983    4.1064 H   0  0  0  0  0  0  0  0  0  0  0  0
   -1.2207    9.9496    2.3429 H   0  0  0  0  0  0  0  0  0  0  0  0
   -0.3464    6.4873    3.6733 H   0  0  0  0  0  0  0  0  0  0  0  0
   -1.4418    7.3624    2.5799 H   0  0  0  0  0  0  0  0  0  0  0  0
   -1.6024    7.5648    4.3385 H   0  0  0  0  0  0  0  0  0  0  0  0
   -0.4245    8.4397    0.8181 H   0  0  0  0  0  0  0  0  0  0  0  0
    1.0723    8.1367   -1.0974 H   0  0  0  0  0  0  0  0  0  0  0  0
    5.2355    9.3496   -2.5970 H   0  0  0  0  0  0  0  0  0  0  0  0
    5.0356    9.1039   -5.0607 H   0  0  0  0  0  0  0  0  0  0  0  0
    1.7360    4.0244   -7.8018 H   0  0  0  0  0  0  0  0  0  0  0  0
    2.0155    1.6977   -6.9784 H   0  0  0  0  0  0  0  0  0  0  0  0
  2  1  1  6
  1 69  1  0
  1 70  1  0
  1 71  1  0
  2  3  1  0
  2  4  1  0
  2  5  1  0
  3 72  1  0
  3 73  1  0
  3 74  1  0
  4 75  1  0
  4 76  1  0
  4 77  1  0
  5  6  2  0
  5 10  1  0
  6  7  1  0
  6 78  1  0
  7  8  2  0
  7 79  1  0
  8  9  1  0
  8 21  1  0
  9 10  2  0
  9 11  1  0
 10 80  1  0
 11 12  2  0
 11 20  1  0
 12 13  1  0
 12 81  1  0
 13 14  1  0
 13 18  2  0
 14 15  1  1
 14 16  1  0
 14 17  1  0
 15 82  1  0
 15 83  1  0
 15 84  1  0
 16 85  1  0
 16 86  1  0
 16 87  1  0
 17 88  1  0
 17 89  1  0
 17 90  1  0
 18 19  1  0
 18 91  1  0
 19 20  2  0
 19 92  1  0
 20 21  1  0
 21 22  1  0
 22 23  2  0
 22 68  1  0
 23 24  1  0
 23 93  1  0
 24 25  2  0
 24 94  1  0
 25 26  1  0
 25 67  1  0
 26 27  2  0
 26 39  1  0
 27 28  1  0
 28 29  2  0
 28 37  1  0
 29 30  1  0
 29 32  1  0
 30 31  3  0
 32 33  2  0
 32 95  1  0
 33 34  1  0
 33 96  1  0
 34 35  1  0
 34 37  2  0
 35 36  3  0
 37 38  1  0
 38 39  2  0
 39 40  1  0
 40 41  2  0
 40 66  1  0
 41 42  1  0
 41 97  1  0
 42 43  2  0
 42 98  1  0
 43 44  1  0
 43 65  1  0
 44 45  1  0
 44 64  1  0
 45 46  2  0
 45 54  1  0
 46 47  1  0
 46 99  1  0
 47 48  2  0
 47100  1  0
 48 49  1  0
 48 53  1  0
 49 50  1  1
 49 51  1  0
 49 52  1  0
 50101  1  0
 50102  1  0
 50103  1  0
 51104  1  0
 51105  1  0
 51106  1  0
 52107  1  0
 52108  1  0
 52109  1  0
 53 54  2  0
 53110  1  0
 54 55  1  0
 55 56  1  0
 55 64  2  0
 56 57  2  0
 56111  1  0
 57 58  1  0
 57 62  1  0
 58 59  1  1
 58 60  1  0
 58 61  1  0
 59112  1  0
 59113  1  0
 59114  1  0
 60115  1  0
 60116  1  0
 60117  1  0
 61118  1  0
 61119  1  0
 61120  1  0
 62 63  2  0
 62121  1  0
 63 64  1  0
 63122  1  0
 65 66  2  0
 65123  1  0
 66124  1  0
 67 68  2  0
 67125  1  0
 68126  1  0
M  END

