
     RDKit          3D

 44 46  0  0  0  0  0  0  0  0999 V2000
    2.2468   -0.7083    2.2770 C   0  0  0  0  0  0  0  0  0  0  0  0
    2.9909   -0.3549    1.0286 C   0  0  0  0  0  0  0  0  0  0  0  0
    3.4291    0.9418    0.8178 N   0  0  0  0  0  0  0  0  0  0  0  0
    3.3381    1.6941    1.4867 H   0  0  0  0  0  0  0  0  0  0  0  0
    4.0040    1.0488   -0.4294 C   0  0  0  0  0  0  0  0  0  0  0  0
    4.5866    2.1477   -1.0736 C   0  0  0  0  0  0  0  0  0  0  0  0
    5.0898    1.9529   -2.3586 C   0  0  0  0  0  0  0  0  0  0  0  0
    5.0193    0.6893   -2.9830 C   0  0  0  0  0  0  0  0  0  0  0  0
    4.4474   -0.4040   -2.3366 C   0  0  0  0  0  0  0  0  0  0  0  0
    3.9236   -0.2372   -1.0383 C   0  0  0  0  0  0  0  0  0  0  0  0
    3.2816   -1.1185   -0.0860 C   0  0  0  0  0  0  0  0  0  0  0  0
    2.8385   -2.5412   -0.3229 C   0  0  1  0  0  0  0  0  0  0  0  0
    1.5895   -2.5175   -1.2476 C   0  0  0  0  0  0  0  0  0  0  0  0
    0.4334   -1.9899   -0.5232 N   0  0  0  0  0  0  0  0  0  0  0  0
    3.9097   -3.3815   -0.8984 N   0  0  0  0  0  0  0  0  0  0  0  0
    5.2570   -3.2137   -0.3342 C   0  0  0  0  0  0  0  0  0  0  0  0
    5.4455   -3.9318    1.0136 C   0  0  0  0  0  0  0  0  0  0  0  0
    5.1126   -5.3560    0.9641 N   0  0  0  0  0  0  0  0  0  0  0  0
    6.1558   -6.2092    0.4278 C   0  0  0  0  0  0  0  0  0  0  0  0
    3.7922   -5.5510    0.3701 C   0  0  0  0  0  0  0  0  0  0  0  0
    3.6111   -4.8181   -0.9746 C   0  0  0  0  0  0  0  0  0  0  0  0
    2.4883   -0.0172    3.1006 H   0  0  0  0  0  0  0  0  0  0  0  0
    2.4938   -1.7262    2.6136 H   0  0  0  0  0  0  0  0  0  0  0  0
    1.1583   -0.6792    2.1020 H   0  0  0  0  0  0  0  0  0  0  0  0
    4.6431    3.1256   -0.5878 H   0  0  0  0  0  0  0  0  0  0  0  0
    5.5474    2.7918   -2.8893 H   0  0  0  0  0  0  0  0  0  0  0  0
    5.4256    0.5686   -3.9907 H   0  0  0  0  0  0  0  0  0  0  0  0
    4.4077   -1.3849   -2.8146 H   0  0  0  0  0  0  0  0  0  0  0  0
    2.4836   -2.9424    0.6518 H   0  0  0  0  0  0  0  0  0  0  0  0
    1.4087   -3.5216   -1.6747 H   0  0  0  0  0  0  0  0  0  0  0  0
    1.8071   -1.8560   -2.0993 H   0  0  0  0  0  0  0  0  0  0  0  0
   -0.0244   -2.7305    0.0089 H   0  0  0  0  0  0  0  0  0  0  0  0
   -0.2654   -1.6309   -1.1714 H   0  0  0  0  0  0  0  0  0  0  0  0
    5.4886   -2.1462   -0.2313 H   0  0  0  0  0  0  0  0  0  0  0  0
    5.9739   -3.6232   -1.0694 H   0  0  0  0  0  0  0  0  0  0  0  0
    4.8009   -3.4507    1.7730 H   0  0  0  0  0  0  0  0  0  0  0  0
    6.4848   -3.8172    1.3653 H   0  0  0  0  0  0  0  0  0  0  0  0
    7.0823   -6.0683    1.0087 H   0  0  0  0  0  0  0  0  0  0  0  0
    6.4135   -6.0460   -0.6427 H   0  0  0  0  0  0  0  0  0  0  0  0
    5.8590   -7.2661    0.5327 H   0  0  0  0  0  0  0  0  0  0  0  0
    3.0341   -5.1872    1.0891 H   0  0  0  0  0  0  0  0  0  0  0  0
    3.6080   -6.6312    0.2418 H   0  0  0  0  0  0  0  0  0  0  0  0
    2.5914   -4.9795   -1.3524 H   0  0  0  0  0  0  0  0  0  0  0  0
    4.2891   -5.2621   -1.7261 H   0  0  0  0  0  0  0  0  0  0  0  0
  1  2  1  0
  1 22  1  0
  1 23  1  0
  1 24  1  0
  2  3  1  0
  2 11  2  0
  3  4  1  0
  3  5  1  0
  5  6  2  0
  5 10  1  0
  6  7  1  0
  6 25  1  0
  7  8  2  0
  7 26  1  0
  8  9  1  0
  8 27  1  0
  9 10  2  0
  9 28  1  0
 10 11  1  0
 11 12  1  0
 12 13  1  0
 12 15  1  0
 12 29  1  1
 13 14  1  0
 13 30  1  0
 13 31  1  0
 14 32  1  0
 14 33  1  0
 15 16  1  0
 15 21  1  0
 16 17  1  0
 16 34  1  0
 16 35  1  0
 17 18  1  0
 17 36  1  0
 17 37  1  0
 18 19  1  0
 18 20  1  0
 19 38  1  0
 19 39  1  0
 19 40  1  0
 20 21  1  0
 20 41  1  0
 20 42  1  0
 21 43  1  0
 21 44  1  0
M  END

