
     RDKit          3D

 40 42  0  0  0  0  0  0  0  0999 V2000
    1.1014   -0.1389    0.2861 C   0  0  0  0  0  0  0  0  0  0  0  0
    2.0363   -0.5015   -0.8470 C   0  0  1  0  0  0  0  0  0  0  0  0
    3.0202   -1.4217   -0.3463 O   0  0  0  0  0  0  0  0  0  0  0  0
    3.5228   -2.4504   -1.0766 C   0  0  0  0  0  0  0  0  0  0  0  0
    4.5819   -2.9212   -0.7573 O   0  0  0  0  0  0  0  0  0  0  0  0
    2.6304   -2.9629   -2.2072 C   0  0  2  0  0  0  0  0  0  0  0  0
    1.4507   -3.8483   -1.6181 C   0  0  0  0  0  0  0  0  0  0  0  0
    1.6156   -5.2158   -2.3561 C   0  0  2  0  0  0  0  0  0  0  0  0
    2.8773   -5.8584   -1.8024 C   0  0  0  0  0  0  0  0  0  0  0  0
    3.9147   -5.1346   -2.2463 C   0  0  0  0  0  0  0  0  0  0  0  0
    3.3578   -4.0192   -3.1288 C   0  0  1  0  0  0  0  0  0  0  0  0
    2.1352   -4.7518   -3.7346 C   0  0  0  0  0  0  0  0  0  0  0  0
    1.9899   -1.7296   -2.9290 C   0  0  2  0  0  0  0  0  0  0  0  0
    2.8487   -0.8108   -3.8747 C   0  0  1  0  0  0  0  0  0  0  0  0
    2.9261   -1.4607   -5.2760 C   0  0  0  0  0  0  0  0  0  0  0  0
    2.1027    0.5303   -4.0537 C   0  0  0  0  0  0  0  0  0  0  0  0
    4.2831   -0.5380   -3.3754 C   0  0  0  0  0  0  0  0  0  0  0  0
    1.2900   -1.0081   -1.9039 O   0  0  0  0  0  0  0  0  0  0  0  0
    1.6762    0.2576    1.1348 H   0  0  0  0  0  0  0  0  0  0  0  0
    0.5457   -1.0309    0.6105 H   0  0  0  0  0  0  0  0  0  0  0  0
    0.3861    0.6238   -0.0544 H   0  0  0  0  0  0  0  0  0  0  0  0
    2.6118    0.3882   -1.1670 H   0  0  0  0  0  0  0  0  0  0  0  0
    0.4808   -3.3777   -1.8336 H   0  0  0  0  0  0  0  0  0  0  0  0
    1.5165   -3.9679   -0.5274 H   0  0  0  0  0  0  0  0  0  0  0  0
    0.7065   -5.8335   -2.3444 H   0  0  0  0  0  0  0  0  0  0  0  0
    2.9018   -6.6809   -1.0849 H   0  0  0  0  0  0  0  0  0  0  0  0
    4.9638   -5.2375   -1.9749 H   0  0  0  0  0  0  0  0  0  0  0  0
    4.0862   -3.5843   -3.8207 H   0  0  0  0  0  0  0  0  0  0  0  0
    2.4295   -5.5902   -4.3821 H   0  0  0  0  0  0  0  0  0  0  0  0
    1.4345   -4.1022   -4.2820 H   0  0  0  0  0  0  0  0  0  0  0  0
    1.1676   -2.1019   -3.5559 H   0  0  0  0  0  0  0  0  0  0  0  0
    1.9198   -1.6413   -5.6876 H   0  0  0  0  0  0  0  0  0  0  0  0
    3.4680   -2.4151   -5.2821 H   0  0  0  0  0  0  0  0  0  0  0  0
    3.4496   -0.7845   -5.9705 H   0  0  0  0  0  0  0  0  0  0  0  0
    1.0637    0.3703   -4.3826 H   0  0  0  0  0  0  0  0  0  0  0  0
    2.6095    1.1370   -4.8211 H   0  0  0  0  0  0  0  0  0  0  0  0
    2.0686    1.1238   -3.1298 H   0  0  0  0  0  0  0  0  0  0  0  0
    4.8719   -1.4599   -3.2641 H   0  0  0  0  0  0  0  0  0  0  0  0
    4.3067   -0.0146   -2.4087 H   0  0  0  0  0  0  0  0  0  0  0  0
    4.8111    0.1020   -4.1008 H   0  0  0  0  0  0  0  0  0  0  0  0
  1  2  1  0
  1 19  1  0
  1 20  1  0
  1 21  1  0
  2  3  1  0
  2 18  1  0
  2 22  1  6
  3  4  1  0
  4  5  2  0
  6  4  1  1
  6  7  1  0
  6 11  1  0
  6 13  1  0
  7  8  1  0
  7 23  1  0
  7 24  1  0
  8  9  1  0
  8 12  1  0
  8 25  1  6
  9 10  2  0
  9 26  1  0
 10 11  1  0
 10 27  1  0
 11 12  1  0
 11 28  1  6
 12 29  1  0
 12 30  1  0
 13 14  1  0
 13 18  1  0
 13 31  1  6
 14 15  1  6
 14 16  1  0
 14 17  1  0
 15 32  1  0
 15 33  1  0
 15 34  1  0
 16 35  1  0
 16 36  1  0
 16 37  1  0
 17 38  1  0
 17 39  1  0
 17 40  1  0
M  END

