
     RDKit          3D

 50 56  0  0  0  0  0  0  0  0999 V2000
   -2.7470    0.6466   -3.3798 C   0  0  0  0  0  0  0  0  0  0  0  0
   -3.1075   -0.6854   -3.0626 C   0  0  0  0  0  0  0  0  0  0  0  0
   -2.5200   -1.3370   -1.9972 C   0  0  0  0  0  0  0  0  0  0  0  0
   -1.5380   -0.6969   -1.1876 C   0  0  0  0  0  0  0  0  0  0  0  0
   -0.8926   -1.3370   -0.0668 C   0  0  0  0  0  0  0  0  0  0  0  0
   -1.1305   -2.7556    0.2677 C   0  0  0  0  0  0  0  0  0  0  0  0
   -1.0930   -3.8618   -0.5462 C   0  0  0  0  0  0  0  0  0  0  0  0
   -1.3114   -5.0987    0.1460 C   0  0  0  0  0  0  0  0  0  0  0  0
   -1.5233   -4.9040    1.5319 C   0  0  0  0  0  0  0  0  0  0  0  0
   -1.7614   -5.9723    2.4212 C   0  0  0  0  0  0  0  0  0  0  0  0
   -1.7852   -7.2700    1.9297 C   0  0  0  0  0  0  0  0  0  0  0  0
   -1.5708   -7.4883    0.5529 C   0  0  0  0  0  0  0  0  0  0  0  0
   -1.5583   -9.0330   -0.2654 S   0  0  0  0  0  0  0  0  0  0  0  0
   -1.2326   -8.2715   -1.8220 C   0  0  0  0  0  0  0  0  0  0  0  0
   -1.0374   -9.1193   -3.0155 C   0  0  0  0  0  0  0  0  0  0  0  0
   -0.1911  -10.2199   -2.9299 C   0  0  0  0  0  0  0  0  0  0  0  0
    0.0746  -11.0429   -4.0467 C   0  0  0  0  0  0  0  0  0  0  0  0
   -0.5049  -10.7650   -5.2649 C   0  0  0  0  0  0  0  0  0  0  0  0
   -1.3976   -9.6674   -5.4068 C   0  0  0  0  0  0  0  0  0  0  0  0
   -2.0232   -9.3874   -6.6548 C   0  0  0  0  0  0  0  0  0  0  0  0
   -2.9194   -8.3491   -6.7857 C   0  0  0  0  0  0  0  0  0  0  0  0
   -3.2394   -7.5510   -5.6607 C   0  0  0  0  0  0  0  0  0  0  0  0
   -2.6424   -7.7880   -4.4391 C   0  0  0  0  0  0  0  0  0  0  0  0
   -1.6910   -8.8351   -4.2703 C   0  0  0  0  0  0  0  0  0  0  0  0
   -1.1493   -6.9057   -1.6994 C   0  0  0  0  0  0  0  0  0  0  0  0
   -1.3360   -6.4314   -0.3588 C   0  0  0  0  0  0  0  0  0  0  0  0
   -1.4511   -3.2061    1.9419 S   0  0  0  0  0  0  0  0  0  0  0  0
   -0.0133   -0.5977    0.7175 C   0  0  0  0  0  0  0  0  0  0  0  0
    0.2934    0.7495    0.4239 C   0  0  0  0  0  0  0  0  0  0  0  0
   -0.2779    1.3675   -0.6663 C   0  0  0  0  0  0  0  0  0  0  0  0
   -1.2030    0.6694   -1.4902 C   0  0  0  0  0  0  0  0  0  0  0  0
   -1.8201    1.3074   -2.6035 C   0  0  0  0  0  0  0  0  0  0  0  0
   -3.2142    1.1505   -4.2296 H   0  0  0  0  0  0  0  0  0  0  0  0
   -3.8637   -1.1992   -3.6616 H   0  0  0  0  0  0  0  0  0  0  0  0
   -2.8246   -2.3553   -1.7561 H   0  0  0  0  0  0  0  0  0  0  0  0
   -0.8764   -3.7971   -1.6128 H   0  0  0  0  0  0  0  0  0  0  0  0
   -1.9232   -5.7837    3.4846 H   0  0  0  0  0  0  0  0  0  0  0  0
   -1.9658   -8.1103    2.6033 H   0  0  0  0  0  0  0  0  0  0  0  0
    0.3032  -10.4350   -1.9798 H   0  0  0  0  0  0  0  0  0  0  0  0
    0.7555  -11.8906   -3.9383 H   0  0  0  0  0  0  0  0  0  0  0  0
   -0.2919  -11.3872   -6.1382 H   0  0  0  0  0  0  0  0  0  0  0  0
   -1.7826  -10.0223   -7.5120 H   0  0  0  0  0  0  0  0  0  0  0  0
   -3.3935   -8.1480   -7.7496 H   0  0  0  0  0  0  0  0  0  0  0  0
   -3.9718   -6.7457   -5.7586 H   0  0  0  0  0  0  0  0  0  0  0  0
   -2.9157   -7.1762   -3.5797 H   0  0  0  0  0  0  0  0  0  0  0  0
   -0.9233   -6.2545   -2.5441 H   0  0  0  0  0  0  0  0  0  0  0  0
    0.4744   -1.0824    1.5664 H   0  0  0  0  0  0  0  0  0  0  0  0
    0.9992    1.2896    1.0596 H   0  0  0  0  0  0  0  0  0  0  0  0
   -0.0338    2.4049   -0.9103 H   0  0  0  0  0  0  0  0  0  0  0  0
   -1.5478    2.3425   -2.8271 H   0  0  0  0  0  0  0  0  0  0  0  0
  1  2  2  0
  1 32  1  0
  1 33  1  0
  2  3  1  0
  2 34  1  0
  3  4  2  0
  3 35  1  0
  4  5  1  0
  4 31  1  0
  5  6  1  0
  5 28  2  0
  6  7  2  0
  6 27  1  0
  7  8  1  0
  7 36  1  0
  8  9  2  0
  8 26  1  0
  9 10  1  0
  9 27  1  0
 10 11  2  0
 10 37  1  0
 11 12  1  0
 11 38  1  0
 12 13  1  0
 12 26  2  0
 13 14  1  0
 14 15  1  0
 14 25  2  0
 15 16  2  0
 15 24  1  0
 16 17  1  0
 16 39  1  0
 17 18  2  0
 17 40  1  0
 18 19  1  0
 18 41  1  0
 19 20  1  0
 19 24  2  0
 20 21  2  0
 20 42  1  0
 21 22  1  0
 21 43  1  0
 22 23  2  0
 22 44  1  0
 23 24  1  0
 23 45  1  0
 25 26  1  0
 25 46  1  0
 28 29  1  0
 28 47  1  0
 29 30  2  0
 29 48  1  0
 30 31  1  0
 30 49  1  0
 31 32  2  0
 32 50  1  0
M  END

