
     RDKit          3D

 49 51  0  0  0  0  0  0  0  0999 V2000
    1.4375    0.7001    1.9174 C   0  0  0  0  0  0  0  0  0  0  0  0
    2.7030    0.5452    1.1098 C   0  0  0  0  0  0  0  0  0  0  0  0
    3.1184   -0.6996    0.6161 C   0  0  0  0  0  0  0  0  0  0  0  0
    4.2877   -0.8534   -0.1299 C   0  0  0  0  0  0  0  0  0  0  0  0
    5.0988    0.2626   -0.4099 C   0  0  0  0  0  0  0  0  0  0  0  0
    6.2871    0.1631   -1.1757 N   0  0  0  0  0  0  0  0  0  0  0  0
    6.9907    1.3555   -1.6441 C   0  0  0  0  0  0  0  0  0  0  0  0
    8.0080    0.8077   -2.6441 C   0  0  0  0  0  0  0  0  0  0  0  0
    8.3247   -0.6017   -2.1202 C   0  0  2  0  0  0  0  0  0  0  0  0
    8.7948   -1.5029   -3.1608 N   0  0  0  0  0  0  0  0  0  0  0  0
   10.0138   -1.0753   -3.8478 C   0  0  0  0  0  0  0  0  0  0  0  0
   11.3057   -1.5165   -3.1420 C   0  0  0  0  0  0  0  0  0  0  0  0
   11.3559   -3.0462   -2.9547 C   0  0  2  0  0  0  0  0  0  0  0  0
   11.6702   -3.6680   -4.2443 N   0  0  0  0  0  0  0  0  0  0  0  0
   10.0502   -3.5524   -2.2412 C   0  0  2  0  0  0  0  0  0  0  0  0
   10.0841   -3.1557   -0.7512 C   0  0  0  0  0  0  0  0  0  0  0  0
    9.9453   -5.0851   -2.3097 C   0  0  0  0  0  0  0  0  0  0  0  0
    8.8057   -2.9547   -2.9603 C   0  0  0  0  0  0  0  0  0  0  0  0
    6.9971   -0.9982   -1.4346 C   0  0  0  0  0  0  0  0  0  0  0  0
    6.6548   -2.1196   -1.1093 O   0  0  0  0  0  0  0  0  0  0  0  0
    4.6933    1.5189    0.0829 C   0  0  0  0  0  0  0  0  0  0  0  0
    3.5193    1.6492    0.8242 C   0  0  0  0  0  0  0  0  0  0  0  0
    0.9002   -0.2551    2.0122 H   0  0  0  0  0  0  0  0  0  0  0  0
    0.7498    1.4278    1.4548 H   0  0  0  0  0  0  0  0  0  0  0  0
    1.6519    1.0652    2.9363 H   0  0  0  0  0  0  0  0  0  0  0  0
    2.5084   -1.5854    0.8163 H   0  0  0  0  0  0  0  0  0  0  0  0
    4.5844   -1.8345   -0.4901 H   0  0  0  0  0  0  0  0  0  0  0  0
    7.4833    1.8748   -0.8007 H   0  0  0  0  0  0  0  0  0  0  0  0
    6.2876    2.0659   -2.1046 H   0  0  0  0  0  0  0  0  0  0  0  0
    8.8852    1.4633   -2.7286 H   0  0  0  0  0  0  0  0  0  0  0  0
    7.5503    0.7048   -3.6407 H   0  0  0  0  0  0  0  0  0  0  0  0
    9.0388   -0.4956   -1.2670 H   0  0  0  0  0  0  0  0  0  0  0  0
   10.0071    0.0152   -3.9871 H   0  0  0  0  0  0  0  0  0  0  0  0
    9.9938   -1.5027   -4.8680 H   0  0  0  0  0  0  0  0  0  0  0  0
   11.3828   -1.0110   -2.1654 H   0  0  0  0  0  0  0  0  0  0  0  0
   12.1822   -1.2093   -3.7344 H   0  0  0  0  0  0  0  0  0  0  0  0
   12.2073   -3.2828   -2.2906 H   0  0  0  0  0  0  0  0  0  0  0  0
   10.8847   -3.6016   -4.8917 H   0  0  0  0  0  0  0  0  0  0  0  0
   11.8602   -4.6619   -4.1306 H   0  0  0  0  0  0  0  0  0  0  0  0
   10.8814   -3.7067   -0.2243 H   0  0  0  0  0  0  0  0  0  0  0  0
    9.1260   -3.3886   -0.2611 H   0  0  0  0  0  0  0  0  0  0  0  0
   10.2786   -2.0850   -0.5967 H   0  0  0  0  0  0  0  0  0  0  0  0
   10.8337   -5.5657   -1.8648 H   0  0  0  0  0  0  0  0  0  0  0  0
    9.8455   -5.4505   -3.3435 H   0  0  0  0  0  0  0  0  0  0  0  0
    9.0639   -5.4380   -1.7500 H   0  0  0  0  0  0  0  0  0  0  0  0
    7.8952   -3.2571   -2.4328 H   0  0  0  0  0  0  0  0  0  0  0  0
    8.7519   -3.4047   -3.9705 H   0  0  0  0  0  0  0  0  0  0  0  0
    5.2950    2.4092   -0.1000 H   0  0  0  0  0  0  0  0  0  0  0  0
    3.2363    2.6404    1.1913 H   0  0  0  0  0  0  0  0  0  0  0  0
  1  2  1  0
  1 23  1  0
  1 24  1  0
  1 25  1  0
  2  3  2  0
  2 22  1  0
  3  4  1  0
  3 26  1  0
  4  5  2  0
  4 27  1  0
  5  6  1  0
  5 21  1  0
  6  7  1  0
  6 19  1  0
  7  8  1  0
  7 28  1  0
  7 29  1  0
  8  9  1  0
  8 30  1  0
  8 31  1  0
  9 10  1  0
  9 19  1  0
  9 32  1  1
 10 11  1  0
 10 18  1  0
 11 12  1  0
 11 33  1  0
 11 34  1  0
 12 13  1  0
 12 35  1  0
 12 36  1  0
 13 14  1  0
 13 15  1  0
 13 37  1  1
 14 38  1  0
 14 39  1  0
 15 16  1  1
 15 17  1  0
 15 18  1  0
 16 40  1  0
 16 41  1  0
 16 42  1  0
 17 43  1  0
 17 44  1  0
 17 45  1  0
 18 46  1  0
 18 47  1  0
 19 20  2  0
 21 22  2  0
 21 48  1  0
 22 49  1  0
M  END

