
     RDKit          3D

 49 52  0  0  0  0  0  0  0  0999 V2000
    1.0682   -0.0520    0.1942 C   0  0  0  0  0  0  0  0  0  0  0  0
    2.5928    0.0229    0.0108 C   0  0  1  0  0  0  0  0  0  0  0  0
    3.2463    0.1889    1.4006 C   0  0  0  0  0  0  0  0  0  0  0  0
    3.0941   -1.3244   -0.5876 C   0  0  0  0  0  0  0  0  0  0  0  0
    2.5750   -1.6204   -1.9025 N   0  0  0  0  0  0  0  0  0  0  0  0
    1.7870   -2.6895   -2.1729 C   0  0  0  0  0  0  0  0  0  0  0  0
    1.4205   -3.5205   -1.3517 O   0  0  0  0  0  0  0  0  0  0  0  0
    1.3742   -2.7939   -3.6308 C   0  0  0  0  0  0  0  0  0  0  0  0
    0.5441   -3.8817   -4.0151 C   0  0  0  0  0  0  0  0  0  0  0  0
    0.1677   -3.9858   -5.3338 C   0  0  0  0  0  0  0  0  0  0  0  0
    0.6126   -3.0143   -6.2715 C   0  0  0  0  0  0  0  0  0  0  0  0
    0.2737   -3.0438   -7.6518 C   0  0  0  0  0  0  0  0  0  0  0  0
    0.7408   -2.0686   -8.5085 C   0  0  0  0  0  0  0  0  0  0  0  0
    1.5667   -1.0216   -8.0224 C   0  0  0  0  0  0  0  0  0  0  0  0
    1.9135   -0.9640   -6.6892 C   0  0  0  0  0  0  0  0  0  0  0  0
    1.4479   -1.9552   -5.7803 C   0  0  0  0  0  0  0  0  0  0  0  0
    1.8059   -1.8752   -4.4711 N   0  0  0  0  0  0  0  0  0  0  0  0
    3.0182    1.1862   -0.9069 C   0  0  0  0  0  0  0  0  0  0  0  0
    4.3825    1.4097   -1.1859 C   0  0  0  0  0  0  0  0  0  0  0  0
    4.7955    2.4479   -2.0187 C   0  0  0  0  0  0  0  0  0  0  0  0
    3.8587    3.3088   -2.5974 C   0  0  0  0  0  0  0  0  0  0  0  0
    2.4948    3.1148   -2.3166 C   0  0  0  0  0  0  0  0  0  0  0  0
    2.0913    2.0605   -1.4897 C   0  0  0  0  0  0  0  0  0  0  0  0
    1.5336    3.9379   -2.8384 O   0  0  0  0  0  0  0  0  0  0  0  0
    2.0308    5.1567   -3.3668 C   0  0  0  0  0  0  0  0  0  0  0  0
    3.2698    4.9007   -4.2093 C   0  0  0  0  0  0  0  0  0  0  0  0
    4.2910    4.3144   -3.4184 O   0  0  0  0  0  0  0  0  0  0  0  0
    0.8094   -0.9026    0.8430 H   0  0  0  0  0  0  0  0  0  0  0  0
    0.5469   -0.1987   -0.7631 H   0  0  0  0  0  0  0  0  0  0  0  0
    0.6736    0.8623    0.6636 H   0  0  0  0  0  0  0  0  0  0  0  0
    2.9542   -0.6396    2.0668 H   0  0  0  0  0  0  0  0  0  0  0  0
    2.9276    1.1326    1.8697 H   0  0  0  0  0  0  0  0  0  0  0  0
    4.3455    0.1996    1.3428 H   0  0  0  0  0  0  0  0  0  0  0  0
    2.7864   -2.1530    0.0668 H   0  0  0  0  0  0  0  0  0  0  0  0
    4.1977   -1.3218   -0.6169 H   0  0  0  0  0  0  0  0  0  0  0  0
    2.7906   -1.0167   -2.6926 H   0  0  0  0  0  0  0  0  0  0  0  0
    0.2367   -4.5944   -3.2494 H   0  0  0  0  0  0  0  0  0  0  0  0
   -0.4701   -4.8068   -5.6738 H   0  0  0  0  0  0  0  0  0  0  0  0
   -0.3627   -3.8520   -8.0226 H   0  0  0  0  0  0  0  0  0  0  0  0
    0.4760   -2.0988   -9.5683 H   0  0  0  0  0  0  0  0  0  0  0  0
    1.9287   -0.2571   -8.7146 H   0  0  0  0  0  0  0  0  0  0  0  0
    2.5473   -0.1687   -6.2920 H   0  0  0  0  0  0  0  0  0  0  0  0
    5.1460    0.7614   -0.7508 H   0  0  0  0  0  0  0  0  0  0  0  0
    5.8523    2.6113   -2.2413 H   0  0  0  0  0  0  0  0  0  0  0  0
    1.0200    1.9633   -1.3176 H   0  0  0  0  0  0  0  0  0  0  0  0
    2.2770    5.8547   -2.5441 H   0  0  0  0  0  0  0  0  0  0  0  0
    1.2246    5.5982   -3.9712 H   0  0  0  0  0  0  0  0  0  0  0  0
    3.6751    5.8398   -4.6143 H   0  0  0  0  0  0  0  0  0  0  0  0
    3.0143    4.2335   -5.0546 H   0  0  0  0  0  0  0  0  0  0  0  0
  2  1  1  1
  1 28  1  0
  1 29  1  0
  1 30  1  0
  2  3  1  0
  2  4  1  0
  2 18  1  0
  3 31  1  0
  3 32  1  0
  3 33  1  0
  4  5  1  0
  4 34  1  0
  4 35  1  0
  5  6  1  0
  5 36  1  0
  6  7  2  0
  6  8  1  0
  8  9  2  0
  8 17  1  0
  9 10  1  0
  9 37  1  0
 10 11  2  0
 10 38  1  0
 11 12  1  0
 11 16  1  0
 12 13  2  0
 12 39  1  0
 13 14  1  0
 13 40  1  0
 14 15  2  0
 14 41  1  0
 15 16  1  0
 15 42  1  0
 16 17  2  0
 18 19  2  0
 18 23  1  0
 19 20  1  0
 19 43  1  0
 20 21  2  0
 20 44  1  0
 21 22  1  0
 21 27  1  0
 22 23  2  0
 22 24  1  0
 23 45  1  0
 24 25  1  0
 25 26  1  0
 25 46  1  0
 25 47  1  0
 26 27  1  0
 26 48  1  0
 26 49  1  0
M  END

