
     RDKit          3D

 67 69  0  0  0  0  0  0  0  0999 V2000
    2.9960   -3.5083   -4.9605 C   0  0  0  0  0  0  0  0  0  0  0  0
    3.8501   -4.2017   -3.8922 C   0  0  1  0  0  0  0  0  0  0  0  0
    5.0644   -4.9167   -4.5067 C   0  0  0  0  0  0  0  0  0  0  0  0
    5.9065   -5.7182   -3.4984 C   0  0  0  0  0  0  0  0  0  0  0  0
    7.0835   -6.4161   -4.1438 C   0  0  0  0  0  0  0  0  0  0  0  0
    8.2568   -5.7076   -4.4571 C   0  0  0  0  0  0  0  0  0  0  0  0
    9.3280   -6.3332   -5.1008 C   0  0  0  0  0  0  0  0  0  0  0  0
    9.2500   -7.6875   -5.4419 C   0  0  0  0  0  0  0  0  0  0  0  0
    8.0922   -8.4071   -5.1334 C   0  0  0  0  0  0  0  0  0  0  0  0
    7.0214   -7.7753   -4.4922 C   0  0  0  0  0  0  0  0  0  0  0  0
    4.2628   -3.2623   -2.8559 N   0  0  0  0  0  0  0  0  0  0  0  0
    3.7662   -3.2818   -1.5840 C   0  0  0  0  0  0  0  0  0  0  0  0
    2.9166   -4.0692   -1.2059 O   0  0  0  0  0  0  0  0  0  0  0  0
    4.3150   -2.1910   -0.6485 C   0  0  0  0  0  0  0  0  0  0  0  0
    5.7567   -1.8149   -0.8407 C   0  0  0  0  0  0  0  0  0  0  0  0
    6.2243   -0.6310   -1.3537 C   0  0  0  0  0  0  0  0  0  0  0  0
    7.9661   -0.6040   -1.3700 S   0  0  0  0  0  0  0  0  0  0  0  0
    7.9265   -2.2206   -0.6786 C   0  0  0  0  0  0  0  0  0  0  0  0
    9.0709   -2.9249   -0.3508 N   0  0  0  0  0  0  0  0  0  0  0  0
   10.3502   -2.4632   -0.5105 C   0  0  0  0  0  0  0  0  0  0  0  0
   10.6049   -1.3731   -0.9968 O   0  0  0  0  0  0  0  0  0  0  0  0
   11.4486   -3.4017    0.0147 C   0  0  0  0  0  0  0  0  0  0  0  0
   11.6303   -4.6708   -0.6943 N   0  0  0  0  0  0  0  0  0  0  0  0
   10.7903   -5.6971   -0.3401 C   0  0  0  0  0  0  0  0  0  0  0  0
    9.8145   -5.4968    0.3871 O   0  0  0  0  0  0  0  0  0  0  0  0
   11.0712   -7.0973   -0.8091 C   0  0  0  0  0  0  0  0  0  0  0  0
   12.3206   -7.7161   -0.6436 C   0  0  0  0  0  0  0  0  0  0  0  0
   12.5050   -9.0561   -0.9871 C   0  0  0  0  0  0  0  0  0  0  0  0
   11.4312   -9.7810   -1.5133 C   0  0  0  0  0  0  0  0  0  0  0  0
   11.6596  -11.4531   -1.9618 Cl  0  0  0  0  0  0  0  0  0  0  0  0
   10.1768   -9.1852   -1.6789 C   0  0  0  0  0  0  0  0  0  0  0  0
    9.9994   -7.8525   -1.3103 C   0  0  0  0  0  0  0  0  0  0  0  0
   12.5776   -4.7113   -1.8333 C   0  0  1  0  0  0  0  0  0  0  0  0
   12.1393   -3.7672   -2.9610 C   0  0  0  0  0  0  0  0  0  0  0  0
   14.0243   -4.4507   -1.3970 C   0  0  0  0  0  0  0  0  0  0  0  0
    6.7372   -2.7102   -0.4731 N   0  0  0  0  0  0  0  0  0  0  0  0
    2.6440   -4.2310   -5.7139 H   0  0  0  0  0  0  0  0  0  0  0  0
    3.5727   -2.7287   -5.4875 H   0  0  0  0  0  0  0  0  0  0  0  0
    2.1150   -3.0326   -4.5039 H   0  0  0  0  0  0  0  0  0  0  0  0
    3.2250   -4.9400   -3.3665 H   0  0  0  0  0  0  0  0  0  0  0  0
    5.7071   -4.1731   -5.0151 H   0  0  0  0  0  0  0  0  0  0  0  0
    4.7059   -5.5921   -5.3019 H   0  0  0  0  0  0  0  0  0  0  0  0
    5.2609   -6.4610   -3.0015 H   0  0  0  0  0  0  0  0  0  0  0  0
    6.2615   -5.0392   -2.7059 H   0  0  0  0  0  0  0  0  0  0  0  0
    8.3289   -4.6478   -4.1933 H   0  0  0  0  0  0  0  0  0  0  0  0
   10.2285   -5.7602   -5.3384 H   0  0  0  0  0  0  0  0  0  0  0  0
   10.0871   -8.1789   -5.9440 H   0  0  0  0  0  0  0  0  0  0  0  0
    8.0200   -9.4663   -5.3950 H   0  0  0  0  0  0  0  0  0  0  0  0
    6.1185   -8.3467   -4.2571 H   0  0  0  0  0  0  0  0  0  0  0  0
    4.9712   -2.5709   -3.0813 H   0  0  0  0  0  0  0  0  0  0  0  0
    4.1543   -2.5700    0.3706 H   0  0  0  0  0  0  0  0  0  0  0  0
    3.6756   -1.3017   -0.7730 H   0  0  0  0  0  0  0  0  0  0  0  0
    5.6480    0.2296   -1.6900 H   0  0  0  0  0  0  0  0  0  0  0  0
    8.9552   -3.8638    0.0566 H   0  0  0  0  0  0  0  0  0  0  0  0
   11.2293   -3.6306    1.0690 H   0  0  0  0  0  0  0  0  0  0  0  0
   12.3798   -2.8263   -0.0335 H   0  0  0  0  0  0  0  0  0  0  0  0
   13.1578   -7.1575   -0.2198 H   0  0  0  0  0  0  0  0  0  0  0  0
   13.4717   -9.5418   -0.8457 H   0  0  0  0  0  0  0  0  0  0  0  0
    9.3481   -9.7629   -2.0899 H   0  0  0  0  0  0  0  0  0  0  0  0
    9.0185   -7.3864   -1.4178 H   0  0  0  0  0  0  0  0  0  0  0  0
   12.5220   -5.7355   -2.2225 H   0  0  0  0  0  0  0  0  0  0  0  0
   12.1566   -2.7117   -2.6494 H   0  0  0  0  0  0  0  0  0  0  0  0
   11.1186   -4.0080   -3.2960 H   0  0  0  0  0  0  0  0  0  0  0  0
   12.8158   -3.8777   -3.8229 H   0  0  0  0  0  0  0  0  0  0  0  0
   14.1774   -3.4124   -1.0629 H   0  0  0  0  0  0  0  0  0  0  0  0
   14.7050   -4.6201   -2.2455 H   0  0  0  0  0  0  0  0  0  0  0  0
   14.3273   -5.1209   -0.5780 H   0  0  0  0  0  0  0  0  0  0  0  0
  1  2  1  0
  1 37  1  0
  1 38  1  0
  1 39  1  0
  2  3  1  0
  2 11  1  0
  2 40  1  1
  3  4  1  0
  3 41  1  0
  3 42  1  0
  4  5  1  0
  4 43  1  0
  4 44  1  0
  5  6  2  0
  5 10  1  0
  6  7  1  0
  6 45  1  0
  7  8  2  0
  7 46  1  0
  8  9  1  0
  8 47  1  0
  9 10  2  0
  9 48  1  0
 10 49  1  0
 11 12  1  0
 11 50  1  0
 12 13  2  0
 12 14  1  0
 14 15  1  0
 14 51  1  0
 14 52  1  0
 15 16  2  0
 15 36  1  0
 16 17  1  0
 16 53  1  0
 17 18  1  0
 18 19  1  0
 18 36  2  0
 19 20  1  0
 19 54  1  0
 20 21  2  0
 20 22  1  0
 22 23  1  0
 22 55  1  0
 22 56  1  0
 23 24  1  0
 23 33  1  0
 24 25  2  0
 24 26  1  0
 26 27  2  0
 26 32  1  0
 27 28  1  0
 27 57  1  0
 28 29  2  0
 28 58  1  0
 29 30  1  0
 29 31  1  0
 31 32  2  0
 31 59  1  0
 32 60  1  0
 33 34  1  0
 33 35  1  0
 33 61  1  6
 34 62  1  0
 34 63  1  0
 34 64  1  0
 35 65  1  0
 35 66  1  0
 35 67  1  0
M  END

