
     RDKit          3D

 22 23  0  0  0  0  0  0  0  0999 V2000
    1.2677    0.5494   -0.1360 N   0  0  0  0  0  0  0  0  0  0  0  0
    2.4103    0.3465   -0.1454 C   0  0  0  0  0  0  0  0  0  0  0  0
    3.8351    0.1348   -0.1274 C   0  0  0  0  0  0  0  0  0  0  0  0
    4.5733    0.9103    0.7137 C   0  0  0  0  0  0  0  0  0  0  0  0
    6.0115    0.9003    1.0096 C   0  0  0  0  0  0  0  0  0  0  0  0
    6.6774    2.1282    1.1960 C   0  0  0  0  0  0  0  0  0  0  0  0
    8.0357    2.1765    1.5008 C   0  0  0  0  0  0  0  0  0  0  0  0
    8.7626    0.9930    1.6588 C   0  0  0  0  0  0  0  0  0  0  0  0
    8.1172   -0.2392    1.5192 C   0  0  0  0  0  0  0  0  0  0  0  0
    9.1773   -2.0511    1.7922 I   0  0  0  0  0  0  0  0  0  0  0  0
    6.7568   -0.2780    1.2055 C   0  0  0  0  0  0  0  0  0  0  0  0
    6.1391   -1.4564    1.1256 F   0  0  0  0  0  0  0  0  0  0  0  0
    4.3349   -0.8647   -1.0815 C   0  0  0  0  0  0  0  0  0  0  0  0
    3.5355   -1.8152   -1.6433 N   0  0  0  0  0  0  0  0  0  0  0  0
    4.2816   -2.4965   -2.4575 N   0  0  0  0  0  0  0  0  0  0  0  0
    5.4877   -1.9537   -2.3778 N   0  0  0  0  0  0  0  0  0  0  0  0
    6.2758   -2.2996   -2.9195 H   0  0  0  0  0  0  0  0  0  0  0  0
    5.5809   -0.9360   -1.5471 N   0  0  0  0  0  0  0  0  0  0  0  0
    4.0134    1.6871    1.2441 H   0  0  0  0  0  0  0  0  0  0  0  0
    6.1107    3.0550    1.0792 H   0  0  0  0  0  0  0  0  0  0  0  0
    8.5363    3.1394    1.6229 H   0  0  0  0  0  0  0  0  0  0  0  0
    9.8259    1.0245    1.9025 H   0  0  0  0  0  0  0  0  0  0  0  0
  1  2  3  0
  2  3  1  0
  3  4  2  0
  3 13  1  0
  4  5  1  0
  4 19  1  0
  5  6  2  0
  5 11  1  0
  6  7  1  0
  6 20  1  0
  7  8  2  0
  7 21  1  0
  8  9  1  0
  8 22  1  0
  9 10  1  0
  9 11  2  0
 11 12  1  0
 13 14  1  0
 13 18  2  0
 14 15  2  0
 15 16  1  0
 16 17  1  0
 16 18  1  0
M  END

