
     RDKit          3D

 84 89  0  0  0  0  0  0  0  0999 V2000
    8.4559    4.9658   -3.0863 C   0  0  0  0  0  0  0  0  0  0  0  0
    8.0033    3.6989   -2.4022 C   0  0  0  0  0  0  0  0  0  0  0  0
    7.4960    3.7153   -1.0935 C   0  0  0  0  0  0  0  0  0  0  0  0
    7.1141    2.5424   -0.4418 C   0  0  0  0  0  0  0  0  0  0  0  0
    7.2092    1.2994   -1.0915 C   0  0  0  0  0  0  0  0  0  0  0  0
    6.8066    0.1042   -0.4381 N   0  0  0  0  0  0  0  0  0  0  0  0
    5.6082    0.0913    0.3257 C   0  0  0  0  0  0  0  0  0  0  0  0
    4.4377    0.6981   -0.1596 C   0  0  0  0  0  0  0  0  0  0  0  0
    3.2688    0.6963    0.6029 C   0  0  0  0  0  0  0  0  0  0  0  0
    3.2122    0.0782    1.8615 C   0  0  0  0  0  0  0  0  0  0  0  0
    1.9351    0.0414    2.6650 C   0  0  0  0  0  0  0  0  0  0  0  0
    4.3867   -0.5292    2.3356 C   0  0  0  0  0  0  0  0  0  0  0  0
    5.5660   -0.5191    1.5920 C   0  0  0  0  0  0  0  0  0  0  0  0
    7.5918   -1.0717   -0.5512 C   0  0  0  0  0  0  0  0  0  0  0  0
    8.9950   -0.9949   -0.5220 C   0  0  0  0  0  0  0  0  0  0  0  0
    9.7803   -2.1527   -0.6407 C   0  0  0  0  0  0  0  0  0  0  0  0
   11.2672   -2.0610   -0.6185 C   0  0  0  0  0  0  0  0  0  0  0  0
   11.9253   -1.1371    0.2155 C   0  0  0  0  0  0  0  0  0  0  0  0
   13.3190   -1.0510    0.2369 C   0  0  0  0  0  0  0  0  0  0  0  0
   14.0898   -1.8867   -0.5766 C   0  0  0  0  0  0  0  0  0  0  0  0
   13.4520   -2.8094   -1.4110 C   0  0  0  0  0  0  0  0  0  0  0  0
   12.0584   -2.8955   -1.4310 C   0  0  0  0  0  0  0  0  0  0  0  0
    9.1467   -3.3980   -0.7806 C   0  0  0  0  0  0  0  0  0  0  0  0
    7.7447   -3.4933   -0.7931 C   0  0  0  0  0  0  0  0  0  0  0  0
    7.1125   -4.7565   -0.9285 N   0  0  0  0  0  0  0  0  0  0  0  0
    5.9560   -4.8909   -1.7435 C   0  0  0  0  0  0  0  0  0  0  0  0
    5.8914   -4.2897   -3.0112 C   0  0  0  0  0  0  0  0  0  0  0  0
    4.7483   -4.4211   -3.8019 C   0  0  0  0  0  0  0  0  0  0  0  0
    3.6401   -5.1672   -3.3742 C   0  0  0  0  0  0  0  0  0  0  0  0
    2.4135   -5.3310   -4.2384 C   0  0  0  0  0  0  0  0  0  0  0  0
    3.7180   -5.7712   -2.1078 C   0  0  0  0  0  0  0  0  0  0  0  0
    4.8458   -5.6330   -1.3008 C   0  0  0  0  0  0  0  0  0  0  0  0
    7.6292   -5.8925   -0.2516 C   0  0  0  0  0  0  0  0  0  0  0  0
    8.0803   -5.8027    1.0761 C   0  0  0  0  0  0  0  0  0  0  0  0
    8.5914   -6.9257    1.7287 C   0  0  0  0  0  0  0  0  0  0  0  0
    8.6579   -8.1793    1.1021 C   0  0  0  0  0  0  0  0  0  0  0  0
    9.2111   -9.3953    1.8336 C   0  0  1  0  0  0  0  0  0  0  0  0
    8.1532  -10.4999    2.0019 C   0  0  0  0  0  0  0  0  0  0  0  0
   10.4846   -9.9417    1.1646 C   0  0  0  0  0  0  0  0  0  0  0  0
    8.1951   -8.2597   -0.2226 C   0  0  0  0  0  0  0  0  0  0  0  0
    7.6988   -7.1429   -0.8933 C   0  0  0  0  0  0  0  0  0  0  0  0
    6.9734   -2.3254   -0.6824 C   0  0  0  0  0  0  0  0  0  0  0  0
    7.7032    1.2737   -2.4079 C   0  0  0  0  0  0  0  0  0  0  0  0
    8.0983    2.4519   -3.0409 C   0  0  0  0  0  0  0  0  0  0  0  0
    7.9151    5.8466   -2.7072 H   0  0  0  0  0  0  0  0  0  0  0  0
    8.3017    4.9151   -4.1755 H   0  0  0  0  0  0  0  0  0  0  0  0
    9.5327    5.1491   -2.9203 H   0  0  0  0  0  0  0  0  0  0  0  0
    7.4070    4.6683   -0.5632 H   0  0  0  0  0  0  0  0  0  0  0  0
    6.7327    2.5861    0.5802 H   0  0  0  0  0  0  0  0  0  0  0  0
    4.4485    1.1776   -1.1403 H   0  0  0  0  0  0  0  0  0  0  0  0
    2.3735    1.1794    0.2005 H   0  0  0  0  0  0  0  0  0  0  0  0
    1.2510    0.8537    2.3758 H   0  0  0  0  0  0  0  0  0  0  0  0
    2.1334    0.1323    3.7448 H   0  0  0  0  0  0  0  0  0  0  0  0
    1.3943   -0.9101    2.5156 H   0  0  0  0  0  0  0  0  0  0  0  0
    4.3843   -1.0098    3.3187 H   0  0  0  0  0  0  0  0  0  0  0  0
    6.4682   -0.9855    1.9928 H   0  0  0  0  0  0  0  0  0  0  0  0
    9.4728   -0.0194   -0.4318 H   0  0  0  0  0  0  0  0  0  0  0  0
   11.3374   -0.4931    0.8735 H   0  0  0  0  0  0  0  0  0  0  0  0
   13.8057   -0.3306    0.8997 H   0  0  0  0  0  0  0  0  0  0  0  0
   15.1806   -1.8193   -0.5604 H   0  0  0  0  0  0  0  0  0  0  0  0
   14.0431   -3.4633   -2.0578 H   0  0  0  0  0  0  0  0  0  0  0  0
   11.5739   -3.6056   -2.1050 H   0  0  0  0  0  0  0  0  0  0  0  0
    9.7428   -4.3076   -0.8545 H   0  0  0  0  0  0  0  0  0  0  0  0
    6.7434   -3.7128   -3.3761 H   0  0  0  0  0  0  0  0  0  0  0  0
    4.7249   -3.9391   -4.7837 H   0  0  0  0  0  0  0  0  0  0  0  0
    2.4464   -4.6694   -5.1168 H   0  0  0  0  0  0  0  0  0  0  0  0
    1.4915   -5.1029   -3.6785 H   0  0  0  0  0  0  0  0  0  0  0  0
    2.3160   -6.3671   -4.6071 H   0  0  0  0  0  0  0  0  0  0  0  0
    2.8686   -6.3524   -1.7360 H   0  0  0  0  0  0  0  0  0  0  0  0
    4.8729   -6.1014   -0.3150 H   0  0  0  0  0  0  0  0  0  0  0  0
    8.0310   -4.8451    1.5977 H   0  0  0  0  0  0  0  0  0  0  0  0
    8.9370   -6.8248    2.7620 H   0  0  0  0  0  0  0  0  0  0  0  0
    9.4931   -9.0545    2.8453 H   0  0  0  0  0  0  0  0  0  0  0  0
    7.8315  -10.9004    1.0263 H   0  0  0  0  0  0  0  0  0  0  0  0
    7.2573  -10.1207    2.5182 H   0  0  0  0  0  0  0  0  0  0  0  0
    8.5553  -11.3418    2.5894 H   0  0  0  0  0  0  0  0  0  0  0  0
   10.2762  -10.3147    0.1481 H   0  0  0  0  0  0  0  0  0  0  0  0
   10.9041  -10.7796    1.7456 H   0  0  0  0  0  0  0  0  0  0  0  0
   11.2585   -9.1627    1.0817 H   0  0  0  0  0  0  0  0  0  0  0  0
    8.2330   -9.2137   -0.7560 H   0  0  0  0  0  0  0  0  0  0  0  0
    7.3589   -7.2346   -1.9267 H   0  0  0  0  0  0  0  0  0  0  0  0
    5.8860   -2.3927   -0.6993 H   0  0  0  0  0  0  0  0  0  0  0  0
    7.7748    0.3210   -2.9361 H   0  0  0  0  0  0  0  0  0  0  0  0
    8.4770    2.4005   -4.0662 H   0  0  0  0  0  0  0  0  0  0  0  0
  1  2  1  0
  1 45  1  0
  1 46  1  0
  1 47  1  0
  2  3  2  0
  2 44  1  0
  3  4  1  0
  3 48  1  0
  4  5  2  0
  4 49  1  0
  5  6  1  0
  5 43  1  0
  6  7  1  0
  6 14  1  0
  7  8  2  0
  7 13  1  0
  8  9  1  0
  8 50  1  0
  9 10  2  0
  9 51  1  0
 10 11  1  0
 10 12  1  0
 11 52  1  0
 11 53  1  0
 11 54  1  0
 12 13  2  0
 12 55  1  0
 13 56  1  0
 14 15  2  0
 14 42  1  0
 15 16  1  0
 15 57  1  0
 16 17  1  0
 16 23  2  0
 17 18  2  0
 17 22  1  0
 18 19  1  0
 18 58  1  0
 19 20  2  0
 19 59  1  0
 20 21  1  0
 20 60  1  0
 21 22  2  0
 21 61  1  0
 22 62  1  0
 23 24  1  0
 23 63  1  0
 24 25  1  0
 24 42  2  0
 25 26  1  0
 25 33  1  0
 26 27  2  0
 26 32  1  0
 27 28  1  0
 27 64  1  0
 28 29  2  0
 28 65  1  0
 29 30  1  0
 29 31  1  0
 30 66  1  0
 30 67  1  0
 30 68  1  0
 31 32  2  0
 31 69  1  0
 32 70  1  0
 33 34  2  0
 33 41  1  0
 34 35  1  0
 34 71  1  0
 35 36  2  0
 35 72  1  0
 36 37  1  0
 36 40  1  0
 37 38  1  0
 37 39  1  0
 37 73  1  1
 38 74  1  0
 38 75  1  0
 38 76  1  0
 39 77  1  0
 39 78  1  0
 39 79  1  0
 40 41  2  0
 40 80  1  0
 41 81  1  0
 42 82  1  0
 43 44  2  0
 43 83  1  0
 44 84  1  0
M  END

