
     RDKit          3D

 38 41  0  0  0  0  0  0  0  0999 V2000
    1.5034   -1.1016   -1.5423 O   0  0  0  0  0  0  0  0  0  0  0  0
    2.4941   -0.6434   -1.0251 C   0  0  0  0  0  0  0  0  0  0  0  0
    3.3037    0.5577   -1.4990 C   0  0  0  0  0  0  0  0  0  0  0  0
    4.5116    0.6151   -0.5627 C   0  0  0  0  0  0  0  0  0  0  0  0
    4.2492   -0.4492    0.5004 C   0  0  0  0  0  0  0  0  0  0  0  0
    4.9213   -0.6613    1.4808 O   0  0  0  0  0  0  0  0  0  0  0  0
    3.0916   -1.1441    0.1382 N   0  0  0  0  0  0  0  0  0  0  0  0
    2.5413   -2.3498    0.8018 C   0  0  2  0  0  0  0  0  0  0  0  0
    1.8110   -2.7095    0.0633 H   0  0  0  0  0  0  0  0  0  0  0  0
    1.7831   -2.0473    2.0992 C   0  0  0  0  0  0  0  0  0  0  0  0
    2.7098   -1.8435    3.2915 C   0  0  0  0  0  0  0  0  0  0  0  0
    3.6850   -2.9123    3.4200 N   0  0  0  0  0  0  0  0  0  0  0  0
    4.3673   -2.9569    4.7082 C   0  0  0  0  0  0  0  0  0  0  0  0
    5.7323   -3.6316    4.6361 C   0  0  0  0  0  0  0  0  0  0  0  0
    5.6178   -4.9547    3.8790 C   0  0  0  0  0  0  0  0  0  0  0  0
    5.0544   -4.7056    2.5002 C   0  0  0  0  0  0  0  0  0  0  0  0
    5.4617   -5.4567    1.3980 C   0  0  0  0  0  0  0  0  0  0  0  0
    4.9391   -5.2352    0.1197 C   0  0  0  0  0  0  0  0  0  0  0  0
    3.9948   -4.2241   -0.0442 C   0  0  0  0  0  0  0  0  0  0  0  0
    3.5804   -3.4281    1.0300 C   0  0  0  0  0  0  0  0  0  0  0  0
    4.1030   -3.6592    2.3300 C   0  0  0  0  0  0  0  0  0  0  0  0
    2.6601    1.4498   -1.4387 H   0  0  0  0  0  0  0  0  0  0  0  0
    3.5539    0.4202   -2.5613 H   0  0  0  0  0  0  0  0  0  0  0  0
    4.6613    1.5852   -0.0664 H   0  0  0  0  0  0  0  0  0  0  0  0
    5.4610    0.3641   -1.0619 H   0  0  0  0  0  0  0  0  0  0  0  0
    1.1252   -2.9107    2.2943 H   0  0  0  0  0  0  0  0  0  0  0  0
    1.1321   -1.1685    1.9728 H   0  0  0  0  0  0  0  0  0  0  0  0
    2.1036   -1.8160    4.2153 H   0  0  0  0  0  0  0  0  0  0  0  0
    3.2242   -0.8671    3.2168 H   0  0  0  0  0  0  0  0  0  0  0  0
    3.7306   -3.4758    5.4547 H   0  0  0  0  0  0  0  0  0  0  0  0
    4.4885   -1.9207    5.0727 H   0  0  0  0  0  0  0  0  0  0  0  0
    6.1144   -3.7821    5.6584 H   0  0  0  0  0  0  0  0  0  0  0  0
    6.4431   -2.9707    4.1123 H   0  0  0  0  0  0  0  0  0  0  0  0
    4.9585   -5.6403    4.4460 H   0  0  0  0  0  0  0  0  0  0  0  0
    6.5955   -5.4565    3.8043 H   0  0  0  0  0  0  0  0  0  0  0  0
    6.2061   -6.2442    1.5520 H   0  0  0  0  0  0  0  0  0  0  0  0
    5.2599   -5.8442   -0.7281 H   0  0  0  0  0  0  0  0  0  0  0  0
    3.5600   -4.0370   -1.0312 H   0  0  0  0  0  0  0  0  0  0  0  0
  1  2  2  0
  2  3  1  0
  2  7  1  0
  3  4  1  0
  3 22  1  0
  3 23  1  0
  4  5  1  0
  4 24  1  0
  4 25  1  0
  5  6  2  0
  5  7  1  0
  7  8  1  0
  8  9  1  6
  8 10  1  0
  8 20  1  0
 10 11  1  0
 10 26  1  0
 10 27  1  0
 11 12  1  0
 11 28  1  0
 11 29  1  0
 12 13  1  0
 12 21  1  0
 13 14  1  0
 13 30  1  0
 13 31  1  0
 14 15  1  0
 14 32  1  0
 14 33  1  0
 15 16  1  0
 15 34  1  0
 15 35  1  0
 16 17  1  0
 16 21  2  0
 17 18  2  0
 17 36  1  0
 18 19  1  0
 18 37  1  0
 19 20  2  0
 19 38  1  0
 20 21  1  0
M  END

