
     RDKit          3D

 55 58  0  0  0  0  0  0  0  0999 V2000
    8.5582   -5.0111   -2.4292 C   0  0  0  0  0  0  0  0  0  0  0  0
    7.7566   -4.3243   -1.3232 C   0  0  0  0  0  0  0  0  0  0  0  0
    7.2466   -5.2626   -0.3262 N   0  0  0  0  0  0  0  0  0  0  0  0
    7.0327   -4.7249    1.0128 C   0  0  0  0  0  0  0  0  0  0  0  0
    5.7107   -3.9595    1.1775 C   0  0  0  0  0  0  0  0  0  0  0  0
    4.5995   -4.8083    0.7499 N   0  0  0  0  0  0  0  0  0  0  0  0
    3.4285   -4.7803    1.4781 C   0  0  0  0  0  0  0  0  0  0  0  0
    3.2903   -4.0141    2.4276 O   0  0  0  0  0  0  0  0  0  0  0  0
    2.3672   -5.7631    1.1117 C   0  0  0  0  0  0  0  0  0  0  0  0
    2.5366   -7.1576    0.8660 C   0  0  0  0  0  0  0  0  0  0  0  0
    1.3872   -7.7796    0.7182 N   0  0  0  0  0  0  0  0  0  0  0  0
    0.4473   -6.8104    0.8442 N   0  0  0  0  0  0  0  0  0  0  0  0
   -0.9118   -7.1989    0.6712 C   0  0  0  0  0  0  0  0  0  0  0  0
   -1.2680   -8.3453    1.2459 N   0  0  0  0  0  0  0  0  0  0  0  0
   -2.5278   -8.7275    1.0366 C   0  0  0  0  0  0  0  0  0  0  0  0
   -3.4312   -7.9754    0.2893 C   0  0  0  0  0  0  0  0  0  0  0  0
   -2.9573   -6.7673   -0.2546 C   0  0  0  0  0  0  0  0  0  0  0  0
   -3.7880   -5.8653   -1.0545 C   0  0  0  0  0  0  0  0  0  0  0  0
   -3.3827   -4.7034   -1.6843 C   0  0  0  0  0  0  0  0  0  0  0  0
   -4.4330   -4.0537   -2.3870 C   0  0  0  0  0  0  0  0  0  0  0  0
   -5.6291   -4.7250   -2.2871 C   0  0  0  0  0  0  0  0  0  0  0  0
   -5.4879   -6.1564   -1.3355 S   0  0  0  0  0  0  0  0  0  0  0  0
   -1.6773   -6.4001   -0.0619 N   0  0  0  0  0  0  0  0  0  0  0  0
    0.9853   -5.5642    1.1010 C   0  0  0  0  0  0  0  0  0  0  0  0
    0.1483   -4.3442    1.4159 C   0  0  1  0  0  0  0  0  0  0  0  0
    0.0605   -4.1260    2.9408 C   0  0  0  0  0  0  0  0  0  0  0  0
    0.6425   -3.0822    0.6896 C   0  0  0  0  0  0  0  0  0  0  0  0
    4.7584   -5.3311   -0.6061 C   0  0  0  0  0  0  0  0  0  0  0  0
    6.1024   -6.0674   -0.7399 C   0  0  0  0  0  0  0  0  0  0  0  0
    8.9739   -4.2644   -3.1250 H   0  0  0  0  0  0  0  0  0  0  0  0
    7.9379   -5.7005   -3.0242 H   0  0  0  0  0  0  0  0  0  0  0  0
    9.3878   -5.5927   -1.9983 H   0  0  0  0  0  0  0  0  0  0  0  0
    6.9609   -3.6979   -1.7853 H   0  0  0  0  0  0  0  0  0  0  0  0
    8.4194   -3.6184   -0.7963 H   0  0  0  0  0  0  0  0  0  0  0  0
    7.8782   -4.0721    1.2823 H   0  0  0  0  0  0  0  0  0  0  0  0
    7.0308   -5.5677    1.7285 H   0  0  0  0  0  0  0  0  0  0  0  0
    5.7249   -3.0285    0.5764 H   0  0  0  0  0  0  0  0  0  0  0  0
    5.5366   -3.6698    2.2213 H   0  0  0  0  0  0  0  0  0  0  0  0
    3.4681   -7.7223    0.8187 H   0  0  0  0  0  0  0  0  0  0  0  0
   -2.8359   -9.6745    1.4947 H   0  0  0  0  0  0  0  0  0  0  0  0
   -4.4570   -8.3150    0.1382 H   0  0  0  0  0  0  0  0  0  0  0  0
   -2.3525   -4.3523   -1.6326 H   0  0  0  0  0  0  0  0  0  0  0  0
   -4.3117   -3.1254   -2.9469 H   0  0  0  0  0  0  0  0  0  0  0  0
   -6.5912   -4.4554   -2.7210 H   0  0  0  0  0  0  0  0  0  0  0  0
   -0.8621   -4.5527    1.0417 H   0  0  0  0  0  0  0  0  0  0  0  0
    1.0594   -3.9276    3.3542 H   0  0  0  0  0  0  0  0  0  0  0  0
   -0.3573   -5.0111    3.4470 H   0  0  0  0  0  0  0  0  0  0  0  0
   -0.5967   -3.2690    3.1622 H   0  0  0  0  0  0  0  0  0  0  0  0
    1.6275   -2.7653    1.0604 H   0  0  0  0  0  0  0  0  0  0  0  0
   -0.0622   -2.2534    0.8646 H   0  0  0  0  0  0  0  0  0  0  0  0
    0.7088   -3.2452   -0.3980 H   0  0  0  0  0  0  0  0  0  0  0  0
    4.7247   -4.4861   -1.3227 H   0  0  0  0  0  0  0  0  0  0  0  0
    3.9247   -5.9960   -0.8581 H   0  0  0  0  0  0  0  0  0  0  0  0
    6.2375   -6.4015   -1.7799 H   0  0  0  0  0  0  0  0  0  0  0  0
    6.0675   -6.9770   -0.1124 H   0  0  0  0  0  0  0  0  0  0  0  0
  1  2  1  0
  1 30  1  0
  1 31  1  0
  1 32  1  0
  2  3  1  0
  2 33  1  0
  2 34  1  0
  3  4  1  0
  3 29  1  0
  4  5  1  0
  4 35  1  0
  4 36  1  0
  5  6  1  0
  5 37  1  0
  5 38  1  0
  6  7  1  0
  6 28  1  0
  7  8  2  0
  7  9  1  0
  9 10  1  0
  9 24  2  0
 10 11  2  0
 10 39  1  0
 11 12  1  0
 12 13  1  0
 12 24  1  0
 13 14  2  0
 13 23  1  0
 14 15  1  0
 15 16  2  0
 15 40  1  0
 16 17  1  0
 16 41  1  0
 17 18  1  0
 17 23  2  0
 18 19  2  0
 18 22  1  0
 19 20  1  0
 19 42  1  0
 20 21  2  0
 20 43  1  0
 21 22  1  0
 21 44  1  0
 24 25  1  0
 25 26  1  0
 25 27  1  0
 25 45  1  6
 26 46  1  0
 26 47  1  0
 26 48  1  0
 27 49  1  0
 27 50  1  0
 27 51  1  0
 28 29  1  0
 28 52  1  0
 28 53  1  0
 29 54  1  0
 29 55  1  0
M  END

