
     RDKit          3D

 48 50  0  0  0  0  0  0  0  0999 V2000
    3.4385    3.1681   -3.6157 C   0  0  0  0  0  0  0  0  0  0  0  0
    4.3698    2.1191   -3.2340 N   0  0  0  0  0  0  0  0  0  0  0  0
    5.0631    1.4872   -4.3417 C   0  0  0  0  0  0  0  0  0  0  0  0
    6.1387    2.3932   -4.9478 C   0  0  0  0  0  0  0  0  0  0  0  0
    6.9812    2.9025   -3.8757 N   0  0  0  0  0  0  0  0  0  0  0  0
    6.6773    2.9260   -2.5467 C   0  0  0  0  0  0  0  0  0  0  0  0
    7.4984    3.2674   -1.7063 O   0  0  0  0  0  0  0  0  0  0  0  0
    5.2668    2.4743   -2.1323 C   0  0  2  0  0  0  0  0  0  0  0  0
    4.8274    3.3332   -1.6008 H   0  0  0  0  0  0  0  0  0  0  0  0
    5.3844    1.3637   -1.0619 C   0  0  0  0  0  0  0  0  0  0  0  0
    5.6303    1.9520    0.3272 C   0  0  0  0  0  0  0  0  0  0  0  0
    4.9184    2.8437    0.7633 O   0  0  0  0  0  0  0  0  0  0  0  0
    6.6478    1.3906    1.0387 N   0  0  0  0  0  0  0  0  0  0  0  0
    6.9818    1.7931    2.4012 C   0  0  1  0  0  0  0  0  0  0  0  0
    6.7471    0.6259    3.3586 C   0  0  0  0  0  0  0  0  0  0  0  0
    7.6406   -0.4562    3.4212 C   0  0  0  0  0  0  0  0  0  0  0  0
    7.3802   -1.5511    4.2484 C   0  0  0  0  0  0  0  0  0  0  0  0
    6.2226   -1.5792    5.0338 C   0  0  0  0  0  0  0  0  0  0  0  0
    5.3290   -0.5063    4.9832 C   0  0  0  0  0  0  0  0  0  0  0  0
    5.5898    0.5858    4.1491 C   0  0  0  0  0  0  0  0  0  0  0  0
    8.3727    2.4298    2.4986 C   0  0  0  0  0  0  0  0  0  0  0  0
    9.0281    2.5208    3.7383 C   0  0  0  0  0  0  0  0  0  0  0  0
   10.2662    3.1583    3.8491 C   0  0  0  0  0  0  0  0  0  0  0  0
   10.8730    3.7172    2.7202 C   0  0  0  0  0  0  0  0  0  0  0  0
   10.2246    3.6391    1.4855 C   0  0  0  0  0  0  0  0  0  0  0  0
    8.9827    3.0044    1.3721 C   0  0  0  0  0  0  0  0  0  0  0  0
    2.7391    2.7832   -4.3754 H   0  0  0  0  0  0  0  0  0  0  0  0
    3.9119    4.0870   -4.0279 H   0  0  0  0  0  0  0  0  0  0  0  0
    2.8426    3.4710   -2.7411 H   0  0  0  0  0  0  0  0  0  0  0  0
    4.3370    1.1946   -5.1168 H   0  0  0  0  0  0  0  0  0  0  0  0
    5.5394    0.5585   -3.9801 H   0  0  0  0  0  0  0  0  0  0  0  0
    5.6733    3.2219   -5.5141 H   0  0  0  0  0  0  0  0  0  0  0  0
    6.7594    1.8273   -5.6636 H   0  0  0  0  0  0  0  0  0  0  0  0
    7.9135    3.2432   -4.0937 H   0  0  0  0  0  0  0  0  0  0  0  0
    6.1392    0.6081   -1.3330 H   0  0  0  0  0  0  0  0  0  0  0  0
    4.4060    0.8609   -1.0209 H   0  0  0  0  0  0  0  0  0  0  0  0
    7.2251    0.6875    0.5938 H   0  0  0  0  0  0  0  0  0  0  0  0
    6.2406    2.5745    2.6323 H   0  0  0  0  0  0  0  0  0  0  0  0
    8.5585   -0.4359    2.8265 H   0  0  0  0  0  0  0  0  0  0  0  0
    8.0871   -2.3844    4.2855 H   0  0  0  0  0  0  0  0  0  0  0  0
    6.0207   -2.4336    5.6851 H   0  0  0  0  0  0  0  0  0  0  0  0
    4.4231   -0.5178    5.5950 H   0  0  0  0  0  0  0  0  0  0  0  0
    4.8829    1.4190    4.1061 H   0  0  0  0  0  0  0  0  0  0  0  0
    8.5668    2.0880    4.6289 H   0  0  0  0  0  0  0  0  0  0  0  0
   10.7591    3.2167    4.8234 H   0  0  0  0  0  0  0  0  0  0  0  0
   11.8434    4.2136    2.8050 H   0  0  0  0  0  0  0  0  0  0  0  0
   10.6816    4.0807    0.5959 H   0  0  0  0  0  0  0  0  0  0  0  0
    8.4836    2.9768    0.4012 H   0  0  0  0  0  0  0  0  0  0  0  0
  1  2  1  0
  1 27  1  0
  1 28  1  0
  1 29  1  0
  2  3  1  0
  2  8  1  0
  3  4  1  0
  3 30  1  0
  3 31  1  0
  4  5  1  0
  4 32  1  0
  4 33  1  0
  5  6  1  0
  5 34  1  0
  6  7  2  0
  6  8  1  0
  8  9  1  1
  8 10  1  0
 10 11  1  0
 10 35  1  0
 10 36  1  0
 11 12  2  0
 11 13  1  0
 13 14  1  0
 13 37  1  0
 14 15  1  0
 14 21  1  0
 14 38  1  1
 15 16  2  0
 15 20  1  0
 16 17  1  0
 16 39  1  0
 17 18  2  0
 17 40  1  0
 18 19  1  0
 18 41  1  0
 19 20  2  0
 19 42  1  0
 20 43  1  0
 21 22  2  0
 21 26  1  0
 22 23  1  0
 22 44  1  0
 23 24  2  0
 23 45  1  0
 24 25  1  0
 24 46  1  0
 25 26  2  0
 25 47  1  0
 26 48  1  0
M  END

