
     RDKit          3D

132141  0  0  0  0  0  0  0  0999 V2000
    7.1117   -5.3558    1.7806 C   0  0  0  0  0  0  0  0  0  0  0  0
    5.9427   -4.5171    1.2621 C   0  0  0  0  0  0  0  0  0  0  0  0
    6.3725   -3.3662    0.3469 C   0  0  0  0  0  0  0  0  0  0  0  0
    5.2073   -2.5217   -0.1770 C   0  0  0  0  0  0  0  0  0  0  0  0
    5.6407   -1.3733   -1.0923 C   0  0  0  0  0  0  0  0  0  0  0  0
    4.4640   -0.5276   -1.6131 C   0  0  0  0  0  0  0  0  0  0  0  0
    4.8880    0.5973   -2.5297 C   0  0  0  0  0  0  0  0  0  0  0  0
    5.1791    0.3461   -3.8940 C   0  0  0  0  0  0  0  0  0  0  0  0
    5.6028    1.3487   -4.7490 C   0  0  0  0  0  0  0  0  0  0  0  0
    5.7698    2.6786   -4.2917 C   0  0  0  0  0  0  0  0  0  0  0  0
    6.2152    3.7761   -5.1324 C   0  0  0  0  0  0  0  0  0  0  0  0
    6.3270    5.0855   -4.5974 C   0  0  0  0  0  0  0  0  0  0  0  0
    6.0360    5.3167   -3.2217 C   0  0  0  0  0  0  0  0  0  0  0  0
    5.6244    4.2814   -2.4244 C   0  0  0  0  0  0  0  0  0  0  0  0
    5.4750    2.9462   -2.9195 C   0  0  0  0  0  0  0  0  0  0  0  0
    5.0407    1.8970   -2.0712 C   0  0  0  0  0  0  0  0  0  0  0  0
    6.7201    6.1000   -5.3243 O   0  0  0  0  0  0  0  0  0  0  0  0
    6.8683    6.1014   -6.7881 B   0  0  2  0  0  0  0  0  0  0  0  0
    8.0175    6.7628   -7.1468 F   0  0  0  0  0  0  0  0  0  0  0  0
    5.7442    6.6545   -7.3822 F   0  0  0  0  0  0  0  0  0  0  0  0
    6.9819    4.5780   -7.2678 N   0  0  0  0  0  0  0  0  0  0  0  0
    7.4795    4.3045   -8.5740 C   0  0  0  0  0  0  0  0  0  0  0  0
    7.1385    5.1684   -9.6241 C   0  0  0  0  0  0  0  0  0  0  0  0
    7.6290    4.9193  -10.9085 C   0  0  0  0  0  0  0  0  0  0  0  0
    7.3355    5.8150  -11.9787 N   0  0  0  0  0  0  0  0  0  0  0  0
    7.2912    7.1107  -11.7527 C   0  0  0  0  0  0  0  0  0  0  0  0
    6.9304    8.0676  -12.7322 C   0  0  0  0  0  0  0  0  0  0  0  0
    6.5102    7.5757  -13.9948 C   0  0  0  0  0  0  0  0  0  0  0  0
    6.0610    8.4846  -14.9969 C   0  0  0  0  0  0  0  0  0  0  0  0
    6.0551    9.8314  -14.7478 C   0  0  0  0  0  0  0  0  0  0  0  0
    6.4839   10.3807  -13.4966 C   0  0  0  0  0  0  0  0  0  0  0  0
    6.4704   11.7799  -13.2710 C   0  0  0  0  0  0  0  0  0  0  0  0
    6.8803   12.3343  -12.0678 C   0  0  0  0  0  0  0  0  0  0  0  0
    6.8267   13.8241  -11.8166 C   0  0  0  0  0  0  0  0  0  0  0  0
    5.5748   14.2729  -11.0406 C   0  0  0  0  0  0  0  0  0  0  0  0
    5.5306   15.7803  -10.7756 C   0  0  0  0  0  0  0  0  0  0  0  0
    4.2862   16.2358  -10.0081 C   0  0  0  0  0  0  0  0  0  0  0  0
    4.2393   17.7435   -9.7404 C   0  0  0  0  0  0  0  0  0  0  0  0
    2.9935   18.1904   -8.9741 C   0  0  0  0  0  0  0  0  0  0  0  0
    7.3228   11.4464  -11.0557 C   0  0  0  0  0  0  0  0  0  0  0  0
    7.3506   10.0755  -11.2451 C   0  0  0  0  0  0  0  0  0  0  0  0
    6.9303    9.4960  -12.4672 C   0  0  0  0  0  0  0  0  0  0  0  0
    6.5003    6.2985  -14.2719 O   0  0  0  0  0  0  0  0  0  0  0  0
    7.0685    5.2213  -13.4439 B   0  0  1  0  0  0  0  0  0  0  0  0
    8.2895    4.8201  -13.9688 F   0  0  0  0  0  0  0  0  0  0  0  0
    6.1793    4.1854  -13.3403 F   0  0  0  0  0  0  0  0  0  0  0  0
    8.3999    3.7748  -11.1653 C   0  0  0  0  0  0  0  0  0  0  0  0
    8.7295    2.9174  -10.1116 C   0  0  0  0  0  0  0  0  0  0  0  0
    9.5164    1.7491  -10.3288 N   0  0  0  0  0  0  0  0  0  0  0  0
   10.4723    1.7356  -11.2320 C   0  0  0  0  0  0  0  0  0  0  0  0
   11.2114    0.5762  -11.5735 C   0  0  0  0  0  0  0  0  0  0  0  0
   10.7923   -0.6509  -10.9976 C   0  0  0  0  0  0  0  0  0  0  0  0
   11.4140   -1.8705  -11.3936 C   0  0  0  0  0  0  0  0  0  0  0  0
   12.4354   -1.8547  -12.3061 C   0  0  0  0  0  0  0  0  0  0  0  0
   12.9144   -0.6415  -12.8973 C   0  0  0  0  0  0  0  0  0  0  0  0
   13.9805   -0.6561  -13.8310 C   0  0  0  0  0  0  0  0  0  0  0  0
   14.4630    0.5058  -14.4144 C   0  0  0  0  0  0  0  0  0  0  0  0
   15.5737    0.4819  -15.4397 C   0  0  0  0  0  0  0  0  0  0  0  0
   15.0709    0.5385  -16.8939 C   0  0  0  0  0  0  0  0  0  0  0  0
   16.1994    0.5279  -17.9287 C   0  0  0  0  0  0  0  0  0  0  0  0
   15.7083    0.5797  -19.3783 C   0  0  0  0  0  0  0  0  0  0  0  0
   16.8354    0.5695  -20.4159 C   0  0  0  0  0  0  0  0  0  0  0  0
   16.3371    0.6212  -21.8609 C   0  0  0  0  0  0  0  0  0  0  0  0
   13.8518    1.7281  -14.0395 C   0  0  0  0  0  0  0  0  0  0  0  0
   12.8107    1.7764  -13.1286 C   0  0  0  0  0  0  0  0  0  0  0  0
   12.3028    0.5970  -12.5317 C   0  0  0  0  0  0  0  0  0  0  0  0
    9.8196   -0.7084  -10.1251 O   0  0  0  0  0  0  0  0  0  0  0  0
    9.2217    0.4468   -9.4381 B   0  0  1  0  0  0  0  0  0  0  0  0
    9.8246    0.6355   -8.2041 F   0  0  0  0  0  0  0  0  0  0  0  0
    7.8645    0.2782   -9.3293 F   0  0  0  0  0  0  0  0  0  0  0  0
    8.2944    3.1952   -8.8073 C   0  0  0  0  0  0  0  0  0  0  0  0
    6.6196    3.5908   -6.4770 C   0  0  0  0  0  0  0  0  0  0  0  0
    6.7662   -6.1726    2.4342 H   0  0  0  0  0  0  0  0  0  0  0  0
    7.8194   -4.7412    2.3623 H   0  0  0  0  0  0  0  0  0  0  0  0
    7.6780   -5.8110    0.9507 H   0  0  0  0  0  0  0  0  0  0  0  0
    5.3744   -4.1074    2.1172 H   0  0  0  0  0  0  0  0  0  0  0  0
    5.2345   -5.1680    0.7175 H   0  0  0  0  0  0  0  0  0  0  0  0
    6.9411   -3.7747   -0.5095 H   0  0  0  0  0  0  0  0  0  0  0  0
    7.0810   -2.7135    0.8906 H   0  0  0  0  0  0  0  0  0  0  0  0
    4.6390   -2.1120    0.6789 H   0  0  0  0  0  0  0  0  0  0  0  0
    4.4986   -3.1739   -0.7207 H   0  0  0  0  0  0  0  0  0  0  0  0
    6.2052   -1.7783   -1.9514 H   0  0  0  0  0  0  0  0  0  0  0  0
    6.3463   -0.7146   -0.5550 H   0  0  0  0  0  0  0  0  0  0  0  0
    3.9096   -0.1125   -0.7545 H   0  0  0  0  0  0  0  0  0  0  0  0
    3.7579   -1.1878   -2.1469 H   0  0  0  0  0  0  0  0  0  0  0  0
    5.0587   -0.6677   -4.2867 H   0  0  0  0  0  0  0  0  0  0  0  0
    5.7980    1.0912   -5.7914 H   0  0  0  0  0  0  0  0  0  0  0  0
    6.1465    6.3341   -2.8434 H   0  0  0  0  0  0  0  0  0  0  0  0
    5.3957    4.4697   -1.3715 H   0  0  0  0  0  0  0  0  0  0  0  0
    4.8194    2.1340   -1.0261 H   0  0  0  0  0  0  0  0  0  0  0  0
    6.4619    5.9979   -9.4255 H   0  0  0  0  0  0  0  0  0  0  0  0
    7.5482    7.4464  -10.7441 H   0  0  0  0  0  0  0  0  0  0  0  0
    5.7353    8.0675  -15.9510 H   0  0  0  0  0  0  0  0  0  0  0  0
    5.7149   10.5221  -15.5247 H   0  0  0  0  0  0  0  0  0  0  0  0
    6.1266   12.4314  -14.0802 H   0  0  0  0  0  0  0  0  0  0  0  0
    6.8657   14.3603  -12.7799 H   0  0  0  0  0  0  0  0  0  0  0  0
    7.7257   14.1327  -11.2546 H   0  0  0  0  0  0  0  0  0  0  0  0
    5.5269   13.7272  -10.0811 H   0  0  0  0  0  0  0  0  0  0  0  0
    4.6747   13.9671  -11.6034 H   0  0  0  0  0  0  0  0  0  0  0  0
    5.5848   16.3221  -11.7384 H   0  0  0  0  0  0  0  0  0  0  0  0
    6.4358   16.0787  -10.2143 H   0  0  0  0  0  0  0  0  0  0  0  0
    4.2319   15.6931   -9.0458 H   0  0  0  0  0  0  0  0  0  0  0  0
    3.3813   15.9372  -10.5698 H   0  0  0  0  0  0  0  0  0  0  0  0
    4.2945   18.2844  -10.7029 H   0  0  0  0  0  0  0  0  0  0  0  0
    5.1441   18.0402   -9.1791 H   0  0  0  0  0  0  0  0  0  0  0  0
    2.0719   17.9423   -9.5271 H   0  0  0  0  0  0  0  0  0  0  0  0
    2.9935   19.2782   -8.7995 H   0  0  0  0  0  0  0  0  0  0  0  0
    2.9289   17.6957   -7.9904 H   0  0  0  0  0  0  0  0  0  0  0  0
    7.6589   11.8546  -10.0981 H   0  0  0  0  0  0  0  0  0  0  0  0
    7.7113    9.4485  -10.4279 H   0  0  0  0  0  0  0  0  0  0  0  0
    8.7217    3.5748  -12.1858 H   0  0  0  0  0  0  0  0  0  0  0  0
   10.6849    2.6762  -11.7472 H   0  0  0  0  0  0  0  0  0  0  0  0
   11.0522   -2.7949  -10.9409 H   0  0  0  0  0  0  0  0  0  0  0  0
   12.9125   -2.7945  -12.5984 H   0  0  0  0  0  0  0  0  0  0  0  0
   14.4303   -1.6200  -14.0879 H   0  0  0  0  0  0  0  0  0  0  0  0
   16.1800   -0.4294  -15.3025 H   0  0  0  0  0  0  0  0  0  0  0  0
   16.2531    1.3343  -15.2626 H   0  0  0  0  0  0  0  0  0  0  0  0
   14.4527    1.4441  -17.0300 H   0  0  0  0  0  0  0  0  0  0  0  0
   14.3932   -0.3154  -17.0731 H   0  0  0  0  0  0  0  0  0  0  0  0
   16.8182   -0.3775  -17.7846 H   0  0  0  0  0  0  0  0  0  0  0  0
   16.8748    1.3834  -17.7407 H   0  0  0  0  0  0  0  0  0  0  0  0
   15.0891    1.4848  -19.5219 H   0  0  0  0  0  0  0  0  0  0  0  0
   15.0329   -0.2760  -19.5657 H   0  0  0  0  0  0  0  0  0  0  0  0
   17.4536   -0.3353  -20.2708 H   0  0  0  0  0  0  0  0  0  0  0  0
   17.5096    1.4249  -20.2271 H   0  0  0  0  0  0  0  0  0  0  0  0
   15.6904   -0.2415  -22.0933 H   0  0  0  0  0  0  0  0  0  0  0  0
   17.1731    0.6125  -22.5785 H   0  0  0  0  0  0  0  0  0  0  0  0
   15.7468    1.5338  -22.0492 H   0  0  0  0  0  0  0  0  0  0  0  0
   14.2181    2.6622  -14.4752 H   0  0  0  0  0  0  0  0  0  0  0  0
   12.3935    2.7513  -12.8705 H   0  0  0  0  0  0  0  0  0  0  0  0
    8.6220    2.5525   -7.9920 H   0  0  0  0  0  0  0  0  0  0  0  0
    6.6502    2.5814   -6.8973 H   0  0  0  0  0  0  0  0  0  0  0  0
  1  2  1  0
  1 73  1  0
  1 74  1  0
  1 75  1  0
  2  3  1  0
  2 76  1  0
  2 77  1  0
  3  4  1  0
  3 78  1  0
  3 79  1  0
  4  5  1  0
  4 80  1  0
  4 81  1  0
  5  6  1  0
  5 82  1  0
  5 83  1  0
  6  7  1  0
  6 84  1  0
  6 85  1  0
  7  8  2  0
  7 16  1  0
  8  9  1  0
  8 86  1  0
  9 10  2  0
  9 87  1  0
 10 11  1  0
 10 15  1  0
 11 12  2  0
 11 72  1  0
 12 13  1  0
 12 17  1  0
 13 14  2  0
 13 88  1  0
 14 15  1  0
 14 89  1  0
 15 16  2  0
 16 90  1  0
 17 18  1  0
 18 19  1  1
 18 20  1  0
 18 21  1  0
 21 22  1  0
 21 72  2  0
 22 23  2  0
 22 71  1  0
 23 24  1  0
 23 91  1  0
 24 25  1  0
 24 47  2  0
 25 26  1  0
 25 44  1  0
 26 27  2  0
 26 92  1  0
 27 28  1  0
 27 42  1  0
 28 29  1  0
 28 43  2  0
 29 30  2  0
 29 93  1  0
 30 31  1  0
 30 94  1  0
 31 32  1  0
 31 42  2  0
 32 33  2  0
 32 95  1  0
 33 34  1  0
 33 40  1  0
 34 35  1  0
 34 96  1  0
 34 97  1  0
 35 36  1  0
 35 98  1  0
 35 99  1  0
 36 37  1  0
 36100  1  0
 36101  1  0
 37 38  1  0
 37102  1  0
 37103  1  0
 38 39  1  0
 38104  1  0
 38105  1  0
 39106  1  0
 39107  1  0
 39108  1  0
 40 41  2  0
 40109  1  0
 41 42  1  0
 41110  1  0
 43 44  1  0
 44 45  1  6
 44 46  1  0
 47 48  1  0
 47111  1  0
 48 49  1  0
 48 71  2  0
 49 50  1  0
 49 68  1  0
 50 51  2  0
 50112  1  0
 51 52  1  0
 51 66  1  0
 52 53  1  0
 52 67  2  0
 53 54  2  0
 53113  1  0
 54 55  1  0
 54114  1  0
 55 56  1  0
 55 66  2  0
 56 57  2  0
 56115  1  0
 57 58  1  0
 57 64  1  0
 58 59  1  0
 58116  1  0
 58117  1  0
 59 60  1  0
 59118  1  0
 59119  1  0
 60 61  1  0
 60120  1  0
 60121  1  0
 61 62  1  0
 61122  1  0
 61123  1  0
 62 63  1  0
 62124  1  0
 62125  1  0
 63126  1  0
 63127  1  0
 63128  1  0
 64 65  2  0
 64129  1  0
 65 66  1  0
 65130  1  0
 67 68  1  0
 68 69  1  1
 68 70  1  0
 71131  1  0
 72132  1  0
M  CHG  6  18  -1  21   1  43   1  44  -1  67   1  68  -1
M  END

