
     RDKit          3D

 26 27  0  0  0  0  0  0  0  0999 V2000
    5.3030   -2.2695   -3.2376 C   0  0  0  0  0  0  0  0  0  0  0  0
    5.5114   -0.9521   -2.6710 N   0  0  0  0  0  0  0  0  0  0  0  0
    5.3498   -0.5611   -1.3889 C   0  0  0  0  0  0  0  0  0  0  0  0
    5.6612    0.7972   -1.3300 C   0  0  0  0  0  0  0  0  0  0  0  0
    5.6647    1.5671   -0.0624 C   0  0  0  0  0  0  0  0  0  0  0  0
    5.6800    0.9652    1.0051 O   0  0  0  0  0  0  0  0  0  0  0  0
    5.6607    3.0613   -0.0832 C   0  0  0  0  0  0  0  0  0  0  0  0
    5.2096    3.8438   -1.1612 C   0  0  0  0  0  0  0  0  0  0  0  0
    5.1917    5.2320   -1.0834 C   0  0  0  0  0  0  0  0  0  0  0  0
    5.6323    5.9116    0.0734 C   0  0  0  0  0  0  0  0  0  0  0  0
    5.5991    7.2753    0.1644 N   0  0  0  0  0  0  0  0  0  0  0  0
    6.0767    5.1080    1.1558 C   0  0  0  0  0  0  0  0  0  0  0  0
    6.6383    5.9100    2.6178 Cl  0  0  0  0  0  0  0  0  0  0  0  0
    6.0788    3.7250    1.0851 C   0  0  0  0  0  0  0  0  0  0  0  0
    6.0222    1.1105   -2.6730 C   0  0  0  0  0  0  0  0  0  0  0  0
    5.9304    0.0518   -3.4668 N   0  0  0  0  0  0  0  0  0  0  0  0
    4.9521   -2.9495   -2.4505 H   0  0  0  0  0  0  0  0  0  0  0  0
    6.2441   -2.6536   -3.6589 H   0  0  0  0  0  0  0  0  0  0  0  0
    4.5518   -2.2208   -4.0398 H   0  0  0  0  0  0  0  0  0  0  0  0
    5.0330   -1.2357   -0.5968 H   0  0  0  0  0  0  0  0  0  0  0  0
    4.8310    3.3661   -2.0652 H   0  0  0  0  0  0  0  0  0  0  0  0
    4.8199    5.8200   -1.9271 H   0  0  0  0  0  0  0  0  0  0  0  0
    5.4816    7.8213   -0.6779 H   0  0  0  0  0  0  0  0  0  0  0  0
    6.0772    7.7151    0.9405 H   0  0  0  0  0  0  0  0  0  0  0  0
    6.4068    3.1288    1.9375 H   0  0  0  0  0  0  0  0  0  0  0  0
    6.3762    2.0559   -3.0809 H   0  0  0  0  0  0  0  0  0  0  0  0
  1  2  1  0
  1 17  1  0
  1 18  1  0
  1 19  1  0
  2  3  1  0
  2 16  1  0
  3  4  2  0
  3 20  1  0
  4  5  1  0
  4 15  1  0
  5  6  2  0
  5  7  1  0
  7  8  2  0
  7 14  1  0
  8  9  1  0
  8 21  1  0
  9 10  2  0
  9 22  1  0
 10 11  1  0
 10 12  1  0
 11 23  1  0
 11 24  1  0
 12 13  1  0
 12 14  2  0
 14 25  1  0
 15 16  2  0
 15 26  1  0
M  END

