
     RDKit          3D

 59 61  0  0  0  0  0  0  0  0999 V2000
    3.8803    1.7149   -3.4208 C   0  0  0  0  0  0  0  0  0  0  0  0
    3.0508    0.6656   -2.6696 C   0  0  2  0  0  0  0  0  0  0  0  0
    1.6645    0.4894   -3.2997 C   0  0  0  0  0  0  0  0  0  0  0  0
    2.9465    0.9501   -1.1404 C   0  0  2  0  0  0  0  0  0  0  0  0
    2.2875    0.1826   -0.7069 H   0  0  0  0  0  0  0  0  0  0  0  0
    2.2604    2.2061   -0.8799 N   0  0  0  0  0  0  0  0  0  0  0  0
    1.1606    2.3047   -0.0728 C   0  0  0  0  0  0  0  0  0  0  0  0
    0.6479    1.3438    0.4791 O   0  0  0  0  0  0  0  0  0  0  0  0
    0.6183    3.7193    0.1136 C   0  0  0  0  0  0  0  0  0  0  0  0
   -0.9145    3.7257    0.1644 C   0  0  0  0  0  0  0  0  0  0  0  0
   -1.4797    5.0129    0.5331 N   0  0  0  0  0  0  0  0  0  0  0  0
   -1.5331    6.0578   -0.3412 C   0  0  0  0  0  0  0  0  0  0  0  0
   -1.1317    5.9636   -1.4931 O   0  0  0  0  0  0  0  0  0  0  0  0
   -2.0970    7.3578    0.2264 C   0  0  0  0  0  0  0  0  0  0  0  0
   -2.7155    8.2312   -0.8575 C   0  0  0  0  0  0  0  0  0  0  0  0
   -2.9150    9.6753   -0.4217 C   0  0  0  0  0  0  0  0  0  0  0  0
   -2.5150   10.0864    0.6545 O   0  0  0  0  0  0  0  0  0  0  0  0
   -3.6060   10.5753   -1.3666 C   0  0  0  0  0  0  0  0  0  0  0  0
   -4.1079   10.3332   -2.6333 C   0  0  0  0  0  0  0  0  0  0  0  0
   -4.6974   11.4828   -3.2241 C   0  0  0  0  0  0  0  0  0  0  0  0
   -4.6349   12.5826   -2.3967 C   0  0  0  0  0  0  0  0  0  0  0  0
   -3.8607   12.2365   -0.8988 S   0  0  0  0  0  0  0  0  0  0  0  0
    4.2963    0.8418   -0.4299 C   0  0  0  0  0  0  0  0  0  0  0  0
    4.9031   -0.4195   -0.2915 C   0  0  0  0  0  0  0  0  0  0  0  0
    6.1463   -0.5555    0.3234 C   0  0  0  0  0  0  0  0  0  0  0  0
    6.8135    0.5651    0.8276 C   0  0  0  0  0  0  0  0  0  0  0  0
    6.2040    1.8292    0.7228 C   0  0  0  0  0  0  0  0  0  0  0  0
    4.9604    1.9549    0.0943 C   0  0  0  0  0  0  0  0  0  0  0  0
    6.7984    2.9539    1.2269 O   0  0  0  0  0  0  0  0  0  0  0  0
    7.8591    2.6995    2.1346 C   0  0  0  0  0  0  0  0  0  0  0  0
    8.7659    1.6066    1.5930 C   0  0  0  0  0  0  0  0  0  0  0  0
    8.0363    0.4027    1.4193 O   0  0  0  0  0  0  0  0  0  0  0  0
    4.0090    1.4239   -4.4753 H   0  0  0  0  0  0  0  0  0  0  0  0
    4.8822    1.8379   -2.9813 H   0  0  0  0  0  0  0  0  0  0  0  0
    3.3844    2.7015   -3.4253 H   0  0  0  0  0  0  0  0  0  0  0  0
    3.5844   -0.2969   -2.7529 H   0  0  0  0  0  0  0  0  0  0  0  0
    1.0803    1.4224   -3.2463 H   0  0  0  0  0  0  0  0  0  0  0  0
    1.0847   -0.2947   -2.7876 H   0  0  0  0  0  0  0  0  0  0  0  0
    1.7496    0.2103   -4.3622 H   0  0  0  0  0  0  0  0  0  0  0  0
    2.5991    3.0493   -1.3264 H   0  0  0  0  0  0  0  0  0  0  0  0
    0.9669    4.4005   -0.6775 H   0  0  0  0  0  0  0  0  0  0  0  0
    1.0162    4.0959    1.0729 H   0  0  0  0  0  0  0  0  0  0  0  0
   -1.2516    2.9672    0.8840 H   0  0  0  0  0  0  0  0  0  0  0  0
   -1.3096    3.4451   -0.8246 H   0  0  0  0  0  0  0  0  0  0  0  0
   -1.7954    5.1536    1.4847 H   0  0  0  0  0  0  0  0  0  0  0  0
   -1.2675    7.9107    0.6996 H   0  0  0  0  0  0  0  0  0  0  0  0
   -2.8181    7.1556    1.0349 H   0  0  0  0  0  0  0  0  0  0  0  0
   -3.6800    7.8183   -1.1986 H   0  0  0  0  0  0  0  0  0  0  0  0
   -2.0612    8.2116   -1.7461 H   0  0  0  0  0  0  0  0  0  0  0  0
   -4.0504    9.3609   -3.1244 H   0  0  0  0  0  0  0  0  0  0  0  0
   -5.1483   11.4987   -4.2174 H   0  0  0  0  0  0  0  0  0  0  0  0
   -5.0099   13.5858   -2.5984 H   0  0  0  0  0  0  0  0  0  0  0  0
    4.3944   -1.3121   -0.6653 H   0  0  0  0  0  0  0  0  0  0  0  0
    6.6257   -1.5311    0.4296 H   0  0  0  0  0  0  0  0  0  0  0  0
    4.5213    2.9527    0.0533 H   0  0  0  0  0  0  0  0  0  0  0  0
    7.4518    2.3942    3.1171 H   0  0  0  0  0  0  0  0  0  0  0  0
    8.4079    3.6444    2.2607 H   0  0  0  0  0  0  0  0  0  0  0  0
    9.5857    1.3883    2.2932 H   0  0  0  0  0  0  0  0  0  0  0  0
    9.2027    1.9283    0.6283 H   0  0  0  0  0  0  0  0  0  0  0  0
  1  2  1  0
  1 33  1  0
  1 34  1  0
  1 35  1  0
  2  3  1  0
  2  4  1  0
  2 36  1  1
  3 37  1  0
  3 38  1  0
  3 39  1  0
  4  5  1  1
  4  6  1  0
  4 23  1  0
  6  7  1  0
  6 40  1  0
  7  8  2  0
  7  9  1  0
  9 10  1  0
  9 41  1  0
  9 42  1  0
 10 11  1  0
 10 43  1  0
 10 44  1  0
 11 12  1  0
 11 45  1  0
 12 13  2  0
 12 14  1  0
 14 15  1  0
 14 46  1  0
 14 47  1  0
 15 16  1  0
 15 48  1  0
 15 49  1  0
 16 17  2  0
 16 18  1  0
 18 19  2  0
 18 22  1  0
 19 20  1  0
 19 50  1  0
 20 21  2  0
 20 51  1  0
 21 22  1  0
 21 52  1  0
 23 24  2  0
 23 28  1  0
 24 25  1  0
 24 53  1  0
 25 26  2  0
 25 54  1  0
 26 27  1  0
 26 32  1  0
 27 28  2  0
 27 29  1  0
 28 55  1  0
 29 30  1  0
 30 31  1  0
 30 56  1  0
 30 57  1  0
 31 32  1  0
 31 58  1  0
 31 59  1  0
M  END

