
     RDKit          3D

 35 37  0  0  0  0  0  0  0  0999 V2000
    2.7979    2.9957   -0.5565 O   0  0  0  0  0  0  0  0  0  0  0  0
    2.3753    2.1524    0.2154 C   0  0  0  0  0  0  0  0  0  0  0  0
    0.8771    1.8961    0.3891 C   0  0  0  0  0  0  0  0  0  0  0  0
    0.0289    3.1103    0.0470 C   0  0  1  0  0  0  0  0  0  0  0  0
   -0.0834    3.5809   -1.4241 C   0  0  0  0  0  0  0  0  0  0  0  0
   -1.5245    3.8125   -1.2041 N   0  0  0  0  0  0  0  0  0  0  0  0
   -1.5117    2.9469   -0.0136 C   0  0  0  0  0  0  0  0  0  0  0  0
    3.1754    1.3312    0.9764 N   0  0  0  0  0  0  0  0  0  0  0  0
    4.5829    1.2383    1.0223 C   0  0  0  0  0  0  0  0  0  0  0  0
    5.4327    2.0515    0.2489 C   0  0  0  0  0  0  0  0  0  0  0  0
    6.8202    1.8970    0.3437 C   0  0  0  0  0  0  0  0  0  0  0  0
    7.3693    0.9403    1.1972 C   0  0  0  0  0  0  0  0  0  0  0  0
    6.5197    0.1308    1.9690 C   0  0  0  0  0  0  0  0  0  0  0  0
    5.1378    0.2748    1.8884 C   0  0  0  0  0  0  0  0  0  0  0  0
    7.3322   -0.8101    2.8338 C   0  0  0  0  0  0  0  0  0  0  0  0
    8.7294   -0.7781    2.1684 C   0  0  0  0  0  0  0  0  0  0  0  0
    8.8184    0.6061    1.4810 C   0  0  0  0  0  0  0  0  0  0  0  0
    0.6618    1.5583    1.4189 H   0  0  0  0  0  0  0  0  0  0  0  0
    0.6093    1.0517   -0.2737 H   0  0  0  0  0  0  0  0  0  0  0  0
    0.3044    3.9559    0.6960 H   0  0  0  0  0  0  0  0  0  0  0  0
    0.1540    2.7609   -2.1321 H   0  0  0  0  0  0  0  0  0  0  0  0
    0.5022    4.4660   -1.7177 H   0  0  0  0  0  0  0  0  0  0  0  0
   -2.1524    3.5383   -1.9580 H   0  0  0  0  0  0  0  0  0  0  0  0
   -1.8011    1.8911   -0.2012 H   0  0  0  0  0  0  0  0  0  0  0  0
   -2.1015    3.3156    0.8447 H   0  0  0  0  0  0  0  0  0  0  0  0
    2.6892    0.6837    1.5853 H   0  0  0  0  0  0  0  0  0  0  0  0
    4.9940    2.7895   -0.4181 H   0  0  0  0  0  0  0  0  0  0  0  0
    7.4669    2.5352   -0.2655 H   0  0  0  0  0  0  0  0  0  0  0  0
    4.4787   -0.3606    2.4898 H   0  0  0  0  0  0  0  0  0  0  0  0
    6.9067   -1.8248    2.8954 H   0  0  0  0  0  0  0  0  0  0  0  0
    7.3788   -0.4243    3.8698 H   0  0  0  0  0  0  0  0  0  0  0  0
    8.7811   -1.5674    1.4000 H   0  0  0  0  0  0  0  0  0  0  0  0
    9.5490   -0.9610    2.8797 H   0  0  0  0  0  0  0  0  0  0  0  0
    9.4493    0.5969    0.5776 H   0  0  0  0  0  0  0  0  0  0  0  0
    9.2575    1.3584    2.1636 H   0  0  0  0  0  0  0  0  0  0  0  0
  1  2  2  0
  2  3  1  0
  2  8  1  0
  3  4  1  0
  3 18  1  0
  3 19  1  0
  4  5  1  0
  4  7  1  0
  4 20  1  1
  5  6  1  0
  5 21  1  0
  5 22  1  0
  6  7  1  0
  6 23  1  0
  7 24  1  0
  7 25  1  0
  8  9  1  0
  8 26  1  0
  9 10  2  0
  9 14  1  0
 10 11  1  0
 10 27  1  0
 11 12  2  0
 11 28  1  0
 12 13  1  0
 12 17  1  0
 13 14  2  0
 13 15  1  0
 14 29  1  0
 15 16  1  0
 15 30  1  0
 15 31  1  0
 16 17  1  0
 16 32  1  0
 16 33  1  0
 17 34  1  0
 17 35  1  0
M  END

