
     RDKit          3D

 39 40  0  0  0  0  0  0  0  0999 V2000
    2.1840    1.2639    1.2452 C   0  0  0  0  0  0  0  0  0  0  0  0
    2.6273    0.1229    0.3319 C   0  0  1  0  0  0  0  0  0  0  0  0
    3.9398   -0.5121    0.8380 C   0  0  0  0  0  0  0  0  0  0  0  0
    1.5301   -1.0005    0.3479 C   0  0  0  0  0  0  0  0  0  0  0  0
    0.7957   -1.1200    1.2941 O   0  0  0  0  0  0  0  0  0  0  0  0
    1.5306   -1.8479   -0.6719 O   0  0  0  0  0  0  0  0  0  0  0  0
    2.8436    0.6312   -1.0471 N   0  0  0  0  0  0  0  0  0  0  0  0
    2.9190    1.9121   -1.4915 C   0  0  0  0  0  0  0  0  0  0  0  0
    3.2283    1.8548   -2.8496 C   0  0  0  0  0  0  0  0  0  0  0  0
    3.4488    2.9575   -3.6935 N   0  0  0  0  0  0  0  0  0  0  0  0
    2.8899    3.2610   -4.9160 C   0  0  0  0  0  0  0  0  0  0  0  0
    3.1587    4.2983   -5.4878 O   0  0  0  0  0  0  0  0  0  0  0  0
    1.9139    2.2494   -5.5204 C   0  0  0  0  0  0  0  0  0  0  0  0
    2.6671    1.1855   -6.0721 O   0  0  0  0  0  0  0  0  0  0  0  0
    2.0291    0.2461   -6.8337 C   0  0  0  0  0  0  0  0  0  0  0  0
    0.6424    0.1972   -7.0310 C   0  0  0  0  0  0  0  0  0  0  0  0
    0.0867   -0.8161   -7.8223 C   0  0  0  0  0  0  0  0  0  0  0  0
    0.9165   -1.7658   -8.4053 C   0  0  0  0  0  0  0  0  0  0  0  0
    0.3819   -2.7363   -9.1633 F   0  0  0  0  0  0  0  0  0  0  0  0
    2.2993   -1.7288   -8.2185 C   0  0  0  0  0  0  0  0  0  0  0  0
    2.8531   -0.7212   -7.4336 C   0  0  0  0  0  0  0  0  0  0  0  0
    3.3173    0.4718   -3.1368 C   0  0  0  0  0  0  0  0  0  0  0  0
    3.0796   -0.2442   -2.0412 N   0  0  0  0  0  0  0  0  0  0  0  0
    1.9401    0.8440    2.2280 H   0  0  0  0  0  0  0  0  0  0  0  0
    1.2767    1.7570    0.8667 H   0  0  0  0  0  0  0  0  0  0  0  0
    2.9830    2.0105    1.3666 H   0  0  0  0  0  0  0  0  0  0  0  0
    3.7883   -0.9173    1.8490 H   0  0  0  0  0  0  0  0  0  0  0  0
    4.7374    0.2461    0.8753 H   0  0  0  0  0  0  0  0  0  0  0  0
    4.2623   -1.3290    0.1777 H   0  0  0  0  0  0  0  0  0  0  0  0
    2.1604   -1.5338   -1.3764 H   0  0  0  0  0  0  0  0  0  0  0  0
    2.7649    2.7703   -0.8452 H   0  0  0  0  0  0  0  0  0  0  0  0
    4.0683    3.6915   -3.3588 H   0  0  0  0  0  0  0  0  0  0  0  0
    1.3612    2.7903   -6.3046 H   0  0  0  0  0  0  0  0  0  0  0  0
    1.1997    1.8764   -4.7621 H   0  0  0  0  0  0  0  0  0  0  0  0
   -0.0197    0.9344   -6.5773 H   0  0  0  0  0  0  0  0  0  0  0  0
   -0.9910   -0.8720   -7.9875 H   0  0  0  0  0  0  0  0  0  0  0  0
    2.9252   -2.4870   -8.6930 H   0  0  0  0  0  0  0  0  0  0  0  0
    3.9319   -0.6601   -7.2772 H   0  0  0  0  0  0  0  0  0  0  0  0
    3.5266   -0.0066   -4.0902 H   0  0  0  0  0  0  0  0  0  0  0  0
  1  2  1  0
  1 24  1  0
  1 25  1  0
  1 26  1  0
  2  3  1  0
  2  4  1  6
  2  7  1  0
  3 27  1  0
  3 28  1  0
  3 29  1  0
  4  5  2  0
  4  6  1  0
  6 30  1  0
  7  8  1  0
  7 23  1  0
  8  9  2  0
  8 31  1  0
  9 10  1  0
  9 22  1  0
 10 11  1  0
 10 32  1  0
 11 12  2  0
 11 13  1  0
 13 14  1  0
 13 33  1  0
 13 34  1  0
 14 15  1  0
 15 16  2  0
 15 21  1  0
 16 17  1  0
 16 35  1  0
 17 18  2  0
 17 36  1  0
 18 19  1  0
 18 20  1  0
 20 21  2  0
 20 37  1  0
 21 38  1  0
 22 23  2  0
 22 39  1  0
M  END

