
     RDKit          3D

 52 55  0  0  0  0  0  0  0  0999 V2000
    3.8420   -6.7323    2.2895 N   0  0  0  0  0  0  0  0  0  0  0  0
    3.2605   -5.7631    2.5570 C   0  0  0  0  0  0  0  0  0  0  0  0
    2.5219   -4.5922    2.9431 C   0  0  0  0  0  0  0  0  0  0  0  0
    1.8951   -4.5743    4.2056 C   0  0  0  0  0  0  0  0  0  0  0  0
    1.1470   -3.4701    4.6036 C   0  0  0  0  0  0  0  0  0  0  0  0
    1.0320   -2.3671    3.7496 C   0  0  0  0  0  0  0  0  0  0  0  0
    1.6635   -2.3589    2.5048 C   0  0  0  0  0  0  0  0  0  0  0  0
    2.4048   -3.4724    2.0837 C   0  0  0  0  0  0  0  0  0  0  0  0
    3.2791   -3.4961    0.5175 S   0  0  0  0  0  0  0  0  0  0  0  0
    2.0522   -2.8394   -0.6258 C   0  0  0  0  0  0  0  0  0  0  0  0
    1.0726   -3.6995   -1.1452 C   0  0  0  0  0  0  0  0  0  0  0  0
    0.1466   -3.2320   -2.0787 C   0  0  0  0  0  0  0  0  0  0  0  0
    0.2026   -1.9017   -2.5074 C   0  0  0  0  0  0  0  0  0  0  0  0
    1.1804   -1.0445   -1.9999 C   0  0  0  0  0  0  0  0  0  0  0  0
    2.1188   -1.5032   -1.0620 C   0  0  0  0  0  0  0  0  0  0  0  0
    3.0670   -0.5088   -0.4206 C   0  0  0  0  0  0  0  0  0  0  0  0
    2.6733    0.1306    0.5487 O   0  0  0  0  0  0  0  0  0  0  0  0
    4.3056   -0.3439   -0.9700 N   0  0  0  0  0  0  0  0  0  0  0  0
    5.2576    0.5635   -0.3277 C   0  0  0  0  0  0  0  0  0  0  0  0
    5.9093    1.4887   -1.3570 C   0  0  0  0  0  0  0  0  0  0  0  0
    6.4961    0.6905   -2.5269 C   0  0  0  0  0  0  0  0  0  0  0  0
    5.4654   -0.2661   -3.1752 C   0  0  1  0  0  0  0  0  0  0  0  0
    4.3522    0.4912   -3.9443 C   0  0  0  0  0  0  0  0  0  0  0  0
    4.8766    1.1507   -5.2272 C   0  0  0  0  0  0  0  0  0  0  0  0
    5.6655    0.1423   -6.0618 C   0  0  0  0  0  0  0  0  0  0  0  0
    6.6810   -0.4824   -5.2994 O   0  0  0  0  0  0  0  0  0  0  0  0
    6.1727   -1.1890   -4.1903 C   0  0  0  0  0  0  0  0  0  0  0  0
    4.8540   -1.1425   -2.0601 C   0  0  0  0  0  0  0  0  0  0  0  0
    1.9972   -5.4439    4.8578 H   0  0  0  0  0  0  0  0  0  0  0  0
    0.6575   -3.4672    5.5800 H   0  0  0  0  0  0  0  0  0  0  0  0
    0.4578   -1.4909    4.0613 H   0  0  0  0  0  0  0  0  0  0  0  0
    1.6080   -1.4730    1.8681 H   0  0  0  0  0  0  0  0  0  0  0  0
    1.0473   -4.7386   -0.8102 H   0  0  0  0  0  0  0  0  0  0  0  0
   -0.6152   -3.9078   -2.4749 H   0  0  0  0  0  0  0  0  0  0  0  0
   -0.5202   -1.5294   -3.2377 H   0  0  0  0  0  0  0  0  0  0  0  0
    1.2149   -0.0013   -2.3238 H   0  0  0  0  0  0  0  0  0  0  0  0
    6.0351   -0.0438    0.1758 H   0  0  0  0  0  0  0  0  0  0  0  0
    4.7146    1.1188    0.4464 H   0  0  0  0  0  0  0  0  0  0  0  0
    6.7020    2.0746   -0.8632 H   0  0  0  0  0  0  0  0  0  0  0  0
    5.1631    2.2164   -1.7177 H   0  0  0  0  0  0  0  0  0  0  0  0
    7.3368    0.0784   -2.1519 H   0  0  0  0  0  0  0  0  0  0  0  0
    6.9293    1.3595   -3.2848 H   0  0  0  0  0  0  0  0  0  0  0  0
    3.8624    1.2355   -3.2973 H   0  0  0  0  0  0  0  0  0  0  0  0
    3.5682   -0.2394   -4.2157 H   0  0  0  0  0  0  0  0  0  0  0  0
    5.5273    2.0073   -4.9839 H   0  0  0  0  0  0  0  0  0  0  0  0
    4.0382    1.5512   -5.8221 H   0  0  0  0  0  0  0  0  0  0  0  0
    6.1659    0.6269   -6.9141 H   0  0  0  0  0  0  0  0  0  0  0  0
    4.9752   -0.6272   -6.4706 H   0  0  0  0  0  0  0  0  0  0  0  0
    7.0305   -1.6972   -3.7213 H   0  0  0  0  0  0  0  0  0  0  0  0
    5.4620   -1.9742   -4.5299 H   0  0  0  0  0  0  0  0  0  0  0  0
    5.6400   -1.8091   -1.6530 H   0  0  0  0  0  0  0  0  0  0  0  0
    4.0651   -1.7860   -2.4708 H   0  0  0  0  0  0  0  0  0  0  0  0
  1  2  3  0
  2  3  1  0
  3  4  2  0
  3  8  1  0
  4  5  1  0
  4 29  1  0
  5  6  2  0
  5 30  1  0
  6  7  1  0
  6 31  1  0
  7  8  2  0
  7 32  1  0
  8  9  1  0
  9 10  2  0
 10 11  1  0
 10 15  1  0
 11 12  2  0
 11 33  1  0
 12 13  1  0
 12 34  1  0
 13 14  2  0
 13 35  1  0
 14 15  1  0
 14 36  1  0
 15 16  2  0
 16 17  1  0
 16 18  1  0
 18 19  1  0
 18 28  1  0
 19 20  1  0
 19 37  1  0
 19 38  1  0
 20 21  1  0
 20 39  1  0
 20 40  1  0
 22 21  1  1
 21 41  1  0
 21 42  1  0
 22 23  1  0
 22 27  1  0
 22 28  1  0
 23 24  1  0
 23 43  1  0
 23 44  1  0
 24 25  1  0
 24 45  1  0
 24 46  1  0
 25 26  1  0
 25 47  1  0
 25 48  1  0
 26 27  1  0
 27 49  1  0
 27 50  1  0
 28 51  1  0
 28 52  1  0
M  CHG  2   9   1  17  -1
M  END

