
     RDKit          3D

 50 53  0  0  0  0  0  0  0  0999 V2000
    3.0542    1.1540   -1.5055 C   0  0  0  0  0  0  0  0  0  0  0  0
    3.9012    0.5009   -0.4282 C   0  0  0  0  0  0  0  0  0  0  0  0
    4.5634   -0.6970   -0.8916 O   0  0  0  0  0  0  0  0  0  0  0  0
    3.8727   -1.8399   -0.8333 C   0  0  0  0  0  0  0  0  0  0  0  0
    2.7165   -1.9134   -0.4913 O   0  0  0  0  0  0  0  0  0  0  0  0
    4.7475   -3.0681   -1.2098 C   0  0  2  0  0  0  0  0  0  0  0  0
    5.9396   -3.1492   -0.2142 C   0  0  0  0  0  0  0  0  0  0  0  0
    5.6157   -2.9684    1.2582 C   0  0  0  0  0  0  0  0  0  0  0  0
    5.0957   -4.0195    2.0328 C   0  0  0  0  0  0  0  0  0  0  0  0
    4.8074   -3.8323    3.3876 C   0  0  0  0  0  0  0  0  0  0  0  0
    5.0387   -2.5955    3.9969 C   0  0  0  0  0  0  0  0  0  0  0  0
    5.5694   -1.5466    3.2415 C   0  0  0  0  0  0  0  0  0  0  0  0
    5.8549   -1.7342    1.8860 C   0  0  0  0  0  0  0  0  0  0  0  0
    5.2661   -2.9040   -2.5741 N   0  0  0  0  0  0  0  0  0  0  0  0
    4.2783   -3.3761   -3.5494 C   0  0  2  0  0  0  0  0  0  0  0  0
    4.7863   -4.0418   -4.2697 H   0  0  0  0  0  0  0  0  0  0  0  0
    3.6741   -2.2387   -4.3446 C   0  0  0  0  0  0  0  0  0  0  0  0
    4.1280   -0.9457   -4.4333 C   0  0  0  0  0  0  0  0  0  0  0  0
    3.3715   -0.1471   -5.3469 C   0  0  0  0  0  0  0  0  0  0  0  0
    2.3568   -0.8471   -5.9458 C   0  0  0  0  0  0  0  0  0  0  0  0
    2.3097   -2.4923   -5.4051 S   0  0  0  0  0  0  0  0  0  0  0  0
    3.2192   -4.2210   -2.7324 C   0  0  1  0  0  0  0  0  0  0  0  0
    2.2215   -3.7697   -2.7919 H   0  0  0  0  0  0  0  0  0  0  0  0
    3.1832   -5.6564   -3.2249 C   0  0  0  0  0  0  0  0  0  0  0  0
    2.6561   -6.0891   -4.2208 O   0  0  0  0  0  0  0  0  0  0  0  0
    3.9501   -6.4160   -2.3345 N   0  0  0  0  0  0  0  0  0  0  0  0
    4.2365   -7.8261   -2.5212 C   0  0  0  0  0  0  0  0  0  0  0  0
    4.4067   -5.6925   -1.2389 C   0  0  0  0  0  0  0  0  0  0  0  0
    5.1243   -6.1677   -0.3847 O   0  0  0  0  0  0  0  0  0  0  0  0
    3.7919   -4.2915   -1.3065 C   0  0  1  0  0  0  0  0  0  0  0  0
    3.0085   -4.2335   -0.5367 H   0  0  0  0  0  0  0  0  0  0  0  0
    2.6145    2.0838   -1.1094 H   0  0  0  0  0  0  0  0  0  0  0  0
    2.2344    0.4920   -1.8179 H   0  0  0  0  0  0  0  0  0  0  0  0
    3.6569    1.4082   -2.3900 H   0  0  0  0  0  0  0  0  0  0  0  0
    3.2918    0.2439    0.4506 H   0  0  0  0  0  0  0  0  0  0  0  0
    4.7228    1.1603   -0.1128 H   0  0  0  0  0  0  0  0  0  0  0  0
    6.6347   -2.3549   -0.5230 H   0  0  0  0  0  0  0  0  0  0  0  0
    6.4394   -4.1172   -0.3679 H   0  0  0  0  0  0  0  0  0  0  0  0
    4.9384   -4.9940    1.5672 H   0  0  0  0  0  0  0  0  0  0  0  0
    4.4058   -4.6636    3.9733 H   0  0  0  0  0  0  0  0  0  0  0  0
    4.8149   -2.4526    5.0573 H   0  0  0  0  0  0  0  0  0  0  0  0
    5.7680   -0.5787    3.7094 H   0  0  0  0  0  0  0  0  0  0  0  0
    6.2784   -0.9115    1.3041 H   0  0  0  0  0  0  0  0  0  0  0  0
    6.1547   -3.3869   -2.6768 H   0  0  0  0  0  0  0  0  0  0  0  0
    4.9779   -0.5979   -3.8472 H   0  0  0  0  0  0  0  0  0  0  0  0
    3.5740    0.9063   -5.5488 H   0  0  0  0  0  0  0  0  0  0  0  0
    1.6281   -0.4936   -6.6742 H   0  0  0  0  0  0  0  0  0  0  0  0
    3.7361   -8.1485   -3.4431 H   0  0  0  0  0  0  0  0  0  0  0  0
    3.8636   -8.4097   -1.6663 H   0  0  0  0  0  0  0  0  0  0  0  0
    5.3213   -7.9913   -2.6024 H   0  0  0  0  0  0  0  0  0  0  0  0
  1  2  1  0
  1 32  1  0
  1 33  1  0
  1 34  1  0
  2  3  1  0
  2 35  1  0
  2 36  1  0
  3  4  1  0
  4  5  2  0
  6  4  1  1
  6  7  1  0
  6 14  1  0
  6 30  1  0
  7  8  1  0
  7 37  1  0
  7 38  1  0
  8  9  2  0
  8 13  1  0
  9 10  1  0
  9 39  1  0
 10 11  2  0
 10 40  1  0
 11 12  1  0
 11 41  1  0
 12 13  2  0
 12 42  1  0
 13 43  1  0
 14 15  1  0
 14 44  1  0
 15 16  1  6
 15 17  1  0
 15 22  1  0
 17 18  2  0
 17 21  1  0
 18 19  1  0
 18 45  1  0
 19 20  2  0
 19 46  1  0
 20 21  1  0
 20 47  1  0
 22 23  1  1
 22 24  1  0
 22 30  1  0
 24 25  2  0
 24 26  1  0
 26 27  1  0
 26 28  1  0
 27 48  1  0
 27 49  1  0
 27 50  1  0
 28 29  2  0
 28 30  1  0
 30 31  1  1
M  END

