
     RDKit          3D

 70 70  0  0  0  0  0  0  0  0999 V2000
    8.1967    1.8795    2.7465 C   0  0  0  0  0  0  0  0  0  0  0  0
    9.0593    2.1754    1.5326 C   0  0  0  0  0  0  0  0  0  0  0  0
    9.8782    1.3725    1.1072 O   0  0  0  0  0  0  0  0  0  0  0  0
    8.8325    3.3796    0.9267 N   0  0  0  0  0  0  0  0  0  0  0  0
    9.6484    3.8184   -0.1880 C   0  0  1  0  0  0  0  0  0  0  0  0
    9.8602    2.9401   -0.8115 H   0  0  0  0  0  0  0  0  0  0  0  0
    8.8764    4.8622   -1.0038 C   0  0  2  0  0  0  0  0  0  0  0  0
    7.8719    4.4844   -1.2489 H   0  0  0  0  0  0  0  0  0  0  0  0
    9.5194    5.1756   -2.2082 O   0  0  0  0  0  0  0  0  0  0  0  0
    8.6341    5.9988   -0.2004 O   0  0  0  0  0  0  0  0  0  0  0  0
    9.7703    6.6961    0.3253 C   0  0  2  0  0  0  0  0  0  0  0  0
    9.3370    7.3462    1.0989 H   0  0  0  0  0  0  0  0  0  0  0  0
   10.4498    7.5891   -0.7424 C   0  0  0  0  0  0  0  0  0  0  0  0
    9.5307    8.1970   -1.6008 O   0  0  0  0  0  0  0  0  0  0  0  0
   10.7801    5.7730    1.0279 C   0  0  1  0  0  0  0  0  0  0  0  0
   11.7530    6.2983    1.0294 H   0  0  0  0  0  0  0  0  0  0  0  0
   10.3520    5.5347    2.3511 O   0  0  0  0  0  0  0  0  0  0  0  0
   10.9878    4.4193    0.2942 C   0  0  2  0  0  0  0  0  0  0  0  0
   11.4240    3.7195    1.0193 H   0  0  0  0  0  0  0  0  0  0  0  0
   11.8862    4.5818   -0.8180 O   0  0  0  0  0  0  0  0  0  0  0  0
   12.9986    3.6657   -0.8665 C   0  0  2  0  0  0  0  0  0  0  0  0
   13.6228    4.0422   -1.6925 H   0  0  0  0  0  0  0  0  0  0  0  0
   12.6008    2.2222   -1.1308 C   0  0  0  0  0  0  0  0  0  0  0  0
   13.8411    3.8117    0.4231 C   0  0  0  0  0  0  0  0  0  0  0  0
   14.2095    2.8581    1.0965 O   0  0  0  0  0  0  0  0  0  0  0  0
   14.1131    5.1025    0.7599 N   0  0  0  0  0  0  0  0  0  0  0  0
   14.7628    5.5284    1.9877 C   0  0  2  0  0  0  0  0  0  0  0  0
   14.5799    6.6139    2.0540 H   0  0  0  0  0  0  0  0  0  0  0  0
   16.2996    5.3919    1.9590 C   0  0  0  0  0  0  0  0  0  0  0  0
   16.9452    5.5322    3.0003 O   0  0  0  0  0  0  0  0  0  0  0  0
   16.8660    5.1631    0.7593 N   0  0  0  0  0  0  0  0  0  0  0  0
   18.3131    5.1772    0.5472 C   0  0  2  0  0  0  0  0  0  0  0  0
   18.7167    5.9520    1.2227 H   0  0  0  0  0  0  0  0  0  0  0  0
   18.6751    5.5898   -0.8904 C   0  0  0  0  0  0  0  0  0  0  0  0
   18.4217    4.5948   -2.0359 C   0  0  0  0  0  0  0  0  0  0  0  0
   16.9907    4.4040   -2.4889 C   0  0  0  0  0  0  0  0  0  0  0  0
   16.0090    4.8185   -1.9105 O   0  0  0  0  0  0  0  0  0  0  0  0
   16.8283    3.6971   -3.6176 O   0  0  0  0  0  0  0  0  0  0  0  0
   19.0016    3.8516    0.9879 C   0  0  0  0  0  0  0  0  0  0  0  0
   18.8896    3.5952    2.3085 N   0  0  0  0  0  0  0  0  0  0  0  0
   19.6127    3.1345    0.2068 O   0  0  0  0  0  0  0  0  0  0  0  0
   14.1936    4.8802    3.3105 C   0  0  1  0  0  0  0  0  0  0  0  0
   14.8786    4.0685    3.5981 H   0  0  0  0  0  0  0  0  0  0  0  0
   14.1279    5.9012    4.4355 C   0  0  0  0  0  0  0  0  0  0  0  0
   12.8933    4.3363    3.1280 O   0  0  0  0  0  0  0  0  0  0  0  0
    7.4939    1.0710    2.4903 H   0  0  0  0  0  0  0  0  0  0  0  0
    7.6250    2.7485    3.1023 H   0  0  0  0  0  0  0  0  0  0  0  0
    8.8411    1.5059    3.5552 H   0  0  0  0  0  0  0  0  0  0  0  0
    8.3386    4.1059    1.4354 H   0  0  0  0  0  0  0  0  0  0  0  0
   10.4773    5.0402   -2.0951 H   0  0  0  0  0  0  0  0  0  0  0  0
   11.2153    7.0103   -1.2954 H   0  0  0  0  0  0  0  0  0  0  0  0
   10.9881    8.3917   -0.2091 H   0  0  0  0  0  0  0  0  0  0  0  0
    9.0560    7.4719   -2.0362 H   0  0  0  0  0  0  0  0  0  0  0  0
   11.1058    5.1275    2.8193 H   0  0  0  0  0  0  0  0  0  0  0  0
   13.5045    1.5981   -1.1757 H   0  0  0  0  0  0  0  0  0  0  0  0
   12.0800    2.1527   -2.0975 H   0  0  0  0  0  0  0  0  0  0  0  0
   11.9502    1.8141   -0.3431 H   0  0  0  0  0  0  0  0  0  0  0  0
   13.7035    5.8151    0.1672 H   0  0  0  0  0  0  0  0  0  0  0  0
   16.2791    5.0655   -0.0724 H   0  0  0  0  0  0  0  0  0  0  0  0
   19.7562    5.7931   -0.8918 H   0  0  0  0  0  0  0  0  0  0  0  0
   18.1752    6.5481   -1.1063 H   0  0  0  0  0  0  0  0  0  0  0  0
   18.8260    3.6112   -1.7407 H   0  0  0  0  0  0  0  0  0  0  0  0
   19.0038    4.9160   -2.9183 H   0  0  0  0  0  0  0  0  0  0  0  0
   17.6832    3.4088   -3.9702 H   0  0  0  0  0  0  0  0  0  0  0  0
   18.3421    4.2147    2.9096 H   0  0  0  0  0  0  0  0  0  0  0  0
   19.2727    2.7249    2.6595 H   0  0  0  0  0  0  0  0  0  0  0  0
   15.1186    6.3479    4.5949 H   0  0  0  0  0  0  0  0  0  0  0  0
   13.7972    5.4164    5.3660 H   0  0  0  0  0  0  0  0  0  0  0  0
   13.4060    6.6977    4.1883 H   0  0  0  0  0  0  0  0  0  0  0  0
   13.0148    3.4685    2.7086 H   0  0  0  0  0  0  0  0  0  0  0  0
  1  2  1  0
  1 46  1  0
  1 47  1  0
  1 48  1  0
  2  3  2  0
  2  4  1  0
  4  5  1  0
  4 49  1  0
  5  6  1  6
  5  7  1  0
  5 18  1  0
  7  8  1  6
  7  9  1  0
  7 10  1  0
  9 50  1  0
 10 11  1  0
 11 12  1  1
 11 13  1  0
 11 15  1  0
 13 14  1  0
 13 51  1  0
 13 52  1  0
 14 53  1  0
 15 16  1  1
 15 17  1  0
 15 18  1  0
 17 54  1  0
 18 19  1  1
 18 20  1  0
 20 21  1  0
 21 22  1  6
 21 23  1  0
 21 24  1  0
 23 55  1  0
 23 56  1  0
 23 57  1  0
 24 25  2  0
 24 26  1  0
 26 27  1  0
 26 58  1  0
 27 28  1  1
 27 29  1  0
 27 42  1  0
 29 30  2  0
 29 31  1  0
 31 32  1  0
 31 59  1  0
 32 33  1  1
 32 34  1  0
 32 39  1  0
 34 35  1  0
 34 60  1  0
 34 61  1  0
 35 36  1  0
 35 62  1  0
 35 63  1  0
 36 37  2  0
 36 38  1  0
 38 64  1  0
 39 40  1  0
 39 41  2  0
 40 65  1  0
 40 66  1  0
 42 43  1  1
 42 44  1  0
 42 45  1  0
 44 67  1  0
 44 68  1  0
 44 69  1  0
 45 70  1  0
M  END

