
     RDKit          3D

 81 82  0  0  0  0  0  0  0  0999 V2000
    1.0485   -0.7222    0.4412 C   0  0  0  0  0  0  0  0  0  0  0  0
    2.5607   -0.6667    0.2196 C   0  0  0  0  0  0  0  0  0  0  0  0
    3.0240   -1.4077   -1.0387 C   0  0  0  0  0  0  0  0  0  0  0  0
    4.5372   -1.3564   -1.2673 C   0  0  0  0  0  0  0  0  0  0  0  0
    4.9992   -2.0972   -2.5258 C   0  0  0  0  0  0  0  0  0  0  0  0
    6.5128   -2.0411   -2.7478 C   0  0  0  0  0  0  0  0  0  0  0  0
    6.9635   -2.7798   -4.0000 C   0  0  0  0  0  0  0  0  0  0  0  0
    8.3652   -2.6533   -4.1270 O   0  0  0  0  0  0  0  0  0  0  0  0
    8.9775   -3.4154   -5.1536 C   0  0  1  0  0  0  0  0  0  0  0  0
    8.7152   -2.8314   -6.5540 C   0  0  0  0  0  0  0  0  0  0  0  0
    9.1390   -1.3731   -6.7392 C   0  0  0  0  0  0  0  0  0  0  0  0
   10.4699   -3.4846   -4.7777 C   0  0  1  0  0  0  0  0  0  0  0  0
   10.7414   -3.9850   -3.3492 C   0  0  0  0  0  0  0  0  0  0  0  0
   10.0583   -5.2848   -2.8961 C   0  0  0  0  0  0  0  0  0  0  0  0
   10.5236   -6.5714   -3.5873 C   0  0  0  0  0  0  0  0  0  0  0  0
    9.8244   -7.8331   -3.0710 C   0  0  0  0  0  0  0  0  0  0  0  0
   10.3015   -9.1185   -3.7535 C   0  0  0  0  0  0  0  0  0  0  0  0
    9.5589  -10.3839   -3.3139 C   0  0  0  0  0  0  0  0  0  0  0  0
   10.0574  -11.6511   -4.0120 C   0  0  0  0  0  0  0  0  0  0  0  0
   11.0858   -4.3143   -5.7737 O   0  0  0  0  0  0  0  0  0  0  0  0
   12.4116   -4.2350   -6.0636 C   0  0  0  0  0  0  0  0  0  0  0  0
   13.2407   -3.1845   -5.6380 C   0  0  0  0  0  0  0  0  0  0  0  0
   14.5932   -3.1585   -5.9878 C   0  0  0  0  0  0  0  0  0  0  0  0
   15.1440   -4.1830   -6.7572 C   0  0  0  0  0  0  0  0  0  0  0  0
   14.3252   -5.2367   -7.1676 C   0  0  0  0  0  0  0  0  0  0  0  0
   12.9606   -5.2912   -6.8405 C   0  0  0  0  0  0  0  0  0  0  0  0
   12.1494   -6.4624   -7.2722 C   0  0  0  0  0  0  0  0  0  0  0  0
   12.6344   -7.7679   -7.0581 C   0  0  0  0  0  0  0  0  0  0  0  0
   11.8961   -8.8851   -7.4394 C   0  0  0  0  0  0  0  0  0  0  0  0
   10.6565   -8.7341   -8.0779 C   0  0  0  0  0  0  0  0  0  0  0  0
    9.8798   -9.9696   -8.4254 C   0  0  0  0  0  0  0  0  0  0  0  0
   10.0344  -11.0287   -7.8735 O   0  0  0  0  0  0  0  0  0  0  0  0
    8.9639   -9.8453   -9.4145 O   0  0  0  0  0  0  0  0  0  0  0  0
   10.1711   -7.4363   -8.3096 C   0  0  0  0  0  0  0  0  0  0  0  0
   10.9023   -6.3194   -7.9080 C   0  0  0  0  0  0  0  0  0  0  0  0
    0.7521   -0.1800    1.3533 H   0  0  0  0  0  0  0  0  0  0  0  0
    0.6960   -1.7624    0.5435 H   0  0  0  0  0  0  0  0  0  0  0  0
    0.5022   -0.2725   -0.4051 H   0  0  0  0  0  0  0  0  0  0  0  0
    3.0784   -1.0893    1.1001 H   0  0  0  0  0  0  0  0  0  0  0  0
    2.8866    0.3878    0.1597 H   0  0  0  0  0  0  0  0  0  0  0  0
    2.5067   -0.9855   -1.9207 H   0  0  0  0  0  0  0  0  0  0  0  0
    2.6990   -2.4634   -0.9797 H   0  0  0  0  0  0  0  0  0  0  0  0
    5.0545   -1.7790   -0.3861 H   0  0  0  0  0  0  0  0  0  0  0  0
    4.8625   -0.3011   -1.3266 H   0  0  0  0  0  0  0  0  0  0  0  0
    4.4812   -1.6741   -3.4066 H   0  0  0  0  0  0  0  0  0  0  0  0
    4.6739   -3.1526   -2.4655 H   0  0  0  0  0  0  0  0  0  0  0  0
    7.0406   -2.4695   -1.8781 H   0  0  0  0  0  0  0  0  0  0  0  0
    6.8459   -0.9913   -2.8242 H   0  0  0  0  0  0  0  0  0  0  0  0
    6.4436   -2.3652   -4.8869 H   0  0  0  0  0  0  0  0  0  0  0  0
    6.6832   -3.8522   -3.9373 H   0  0  0  0  0  0  0  0  0  0  0  0
    8.5751   -4.4480   -5.1389 H   0  0  0  0  0  0  0  0  0  0  0  0
    7.6367   -2.9291   -6.7649 H   0  0  0  0  0  0  0  0  0  0  0  0
    9.2209   -3.4759   -7.2897 H   0  0  0  0  0  0  0  0  0  0  0  0
    8.6999   -0.7321   -5.9592 H   0  0  0  0  0  0  0  0  0  0  0  0
    8.8099   -0.9912   -7.7183 H   0  0  0  0  0  0  0  0  0  0  0  0
   10.2330   -1.2502   -6.6951 H   0  0  0  0  0  0  0  0  0  0  0  0
   10.8685   -2.4607   -4.8563 H   0  0  0  0  0  0  0  0  0  0  0  0
   10.4281   -3.1721   -2.6763 H   0  0  0  0  0  0  0  0  0  0  0  0
   11.8347   -4.0811   -3.2298 H   0  0  0  0  0  0  0  0  0  0  0  0
    8.9639   -5.1824   -3.0006 H   0  0  0  0  0  0  0  0  0  0  0  0
   10.2331   -5.3864   -1.8097 H   0  0  0  0  0  0  0  0  0  0  0  0
   11.6165   -6.6779   -3.4544 H   0  0  0  0  0  0  0  0  0  0  0  0
   10.3666   -6.4912   -4.6748 H   0  0  0  0  0  0  0  0  0  0  0  0
    8.7326   -7.7272   -3.2165 H   0  0  0  0  0  0  0  0  0  0  0  0
    9.9713   -7.9192   -1.9776 H   0  0  0  0  0  0  0  0  0  0  0  0
   11.3842   -9.2482   -3.5665 H   0  0  0  0  0  0  0  0  0  0  0  0
   10.2030   -9.0071   -4.8484 H   0  0  0  0  0  0  0  0  0  0  0  0
    8.4789  -10.2548   -3.5122 H   0  0  0  0  0  0  0  0  0  0  0  0
    9.6495  -10.4998   -2.2178 H   0  0  0  0  0  0  0  0  0  0  0  0
    9.9667  -11.5697   -5.1077 H   0  0  0  0  0  0  0  0  0  0  0  0
    9.4890  -12.5394   -3.6921 H   0  0  0  0  0  0  0  0  0  0  0  0
   11.1203  -11.8393   -3.7828 H   0  0  0  0  0  0  0  0  0  0  0  0
   12.8373   -2.3793   -5.0250 H   0  0  0  0  0  0  0  0  0  0  0  0
   15.2153   -2.3261   -5.6490 H   0  0  0  0  0  0  0  0  0  0  0  0
   16.1998   -4.1656   -7.0360 H   0  0  0  0  0  0  0  0  0  0  0  0
   14.7457   -6.0417   -7.7753 H   0  0  0  0  0  0  0  0  0  0  0  0
   13.5923   -7.9047   -6.5513 H   0  0  0  0  0  0  0  0  0  0  0  0
   12.2614   -9.8940   -7.2389 H   0  0  0  0  0  0  0  0  0  0  0  0
    9.0552   -8.9850   -9.8477 H   0  0  0  0  0  0  0  0  0  0  0  0
    9.1922   -7.2816   -8.7741 H   0  0  0  0  0  0  0  0  0  0  0  0
   10.5011   -5.3218   -8.0854 H   0  0  0  0  0  0  0  0  0  0  0  0
  1  2  1  0
  1 36  1  0
  1 37  1  0
  1 38  1  0
  2  3  1  0
  2 39  1  0
  2 40  1  0
  3  4  1  0
  3 41  1  0
  3 42  1  0
  4  5  1  0
  4 43  1  0
  4 44  1  0
  5  6  1  0
  5 45  1  0
  5 46  1  0
  6  7  1  0
  6 47  1  0
  6 48  1  0
  7  8  1  0
  7 49  1  0
  7 50  1  0
  8  9  1  0
  9 10  1  0
  9 12  1  0
  9 51  1  6
 10 11  1  0
 10 52  1  0
 10 53  1  0
 11 54  1  0
 11 55  1  0
 11 56  1  0
 12 13  1  0
 12 20  1  0
 12 57  1  1
 13 14  1  0
 13 58  1  0
 13 59  1  0
 14 15  1  0
 14 60  1  0
 14 61  1  0
 15 16  1  0
 15 62  1  0
 15 63  1  0
 16 17  1  0
 16 64  1  0
 16 65  1  0
 17 18  1  0
 17 66  1  0
 17 67  1  0
 18 19  1  0
 18 68  1  0
 18 69  1  0
 19 70  1  0
 19 71  1  0
 19 72  1  0
 20 21  1  0
 21 22  2  0
 21 26  1  0
 22 23  1  0
 22 73  1  0
 23 24  2  0
 23 74  1  0
 24 25  1  0
 24 75  1  0
 25 26  2  0
 25 76  1  0
 26 27  1  0
 27 28  2  0
 27 35  1  0
 28 29  1  0
 28 77  1  0
 29 30  2  0
 29 78  1  0
 30 31  1  0
 30 34  1  0
 31 32  2  0
 31 33  1  0
 33 79  1  0
 34 35  2  0
 34 80  1  0
 35 81  1  0
M  END

