
     RDKit          3D

 64 66  0  0  0  0  0  0  0  0999 V2000
   -3.9169   -2.3832    0.9887 C   0  0  0  0  0  0  0  0  0  0  0  0
   -2.7342   -3.1086    1.2381 O   0  0  0  0  0  0  0  0  0  0  0  0
   -2.6538   -3.9086    2.3390 C   0  0  0  0  0  0  0  0  0  0  0  0
   -3.7108   -4.1064    3.2375 C   0  0  0  0  0  0  0  0  0  0  0  0
   -3.5397   -4.9511    4.3413 C   0  0  0  0  0  0  0  0  0  0  0  0
   -2.3224   -5.5950    4.5529 C   0  0  0  0  0  0  0  0  0  0  0  0
   -1.2721   -5.3876    3.6499 C   0  0  0  0  0  0  0  0  0  0  0  0
   -1.4081   -4.5517    2.5377 C   0  0  0  0  0  0  0  0  0  0  0  0
   -0.2722   -4.3336    1.5656 C   0  0  0  0  0  0  0  0  0  0  0  0
   -0.4617   -5.0698    0.2307 C   0  0  0  0  0  0  0  0  0  0  0  0
    0.6516   -4.7699   -0.7657 C   0  0  0  0  0  0  0  0  0  0  0  0
    1.2873   -3.7229   -0.7474 O   0  0  0  0  0  0  0  0  0  0  0  0
    0.8808   -5.7456   -1.6934 N   0  0  0  0  0  0  0  0  0  0  0  0
    1.8421   -5.5943   -2.7778 C   0  0  0  0  0  0  0  0  0  0  0  0
    1.2255   -5.1740   -4.0816 C   0  0  0  0  0  0  0  0  0  0  0  0
    0.6962   -6.0140   -4.9373 N   0  0  0  0  0  0  0  0  0  0  0  0
    0.1544   -5.2879   -5.9636 N   0  0  0  0  0  0  0  0  0  0  0  0
    0.3724   -4.0175   -5.7021 C   0  0  0  0  0  0  0  0  0  0  0  0
   -0.1283   -2.6463   -6.6930 S   0  0  0  0  0  0  0  0  0  0  0  0
   -1.1268   -3.5438   -7.9455 C   0  0  0  0  0  0  0  0  0  0  0  0
   -2.5183   -3.9730   -7.4587 C   0  0  0  0  0  0  0  0  0  0  0  0
   -3.2482   -4.7844   -8.5085 C   0  0  0  0  0  0  0  0  0  0  0  0
   -2.9377   -6.1433   -8.6901 C   0  0  0  0  0  0  0  0  0  0  0  0
   -3.5807   -6.8975   -9.6745 C   0  0  0  0  0  0  0  0  0  0  0  0
   -4.5460   -6.3057  -10.4964 C   0  0  0  0  0  0  0  0  0  0  0  0
   -4.8629   -4.9553  -10.3262 C   0  0  0  0  0  0  0  0  0  0  0  0
   -4.2166   -4.2023   -9.3406 C   0  0  0  0  0  0  0  0  0  0  0  0
    1.0494   -3.8742   -4.5156 N   0  0  0  0  0  0  0  0  0  0  0  0
    1.4928   -2.6370   -3.8691 C   0  0  0  0  0  0  0  0  0  0  0  0
    2.9809   -2.2938   -4.0784 C   0  0  1  0  0  0  0  0  0  0  0  0
    3.3522   -2.0736   -5.5482 C   0  0  0  0  0  0  0  0  0  0  0  0
    3.3336   -1.0778   -3.2126 C   0  0  0  0  0  0  0  0  0  0  0  0
   -3.7393   -1.7989    0.0757 H   0  0  0  0  0  0  0  0  0  0  0  0
   -4.1554   -1.6908    1.8159 H   0  0  0  0  0  0  0  0  0  0  0  0
   -4.7827   -3.0497    0.8236 H   0  0  0  0  0  0  0  0  0  0  0  0
   -4.6691   -3.6090    3.0875 H   0  0  0  0  0  0  0  0  0  0  0  0
   -4.3709   -5.0983    5.0358 H   0  0  0  0  0  0  0  0  0  0  0  0
   -2.1844   -6.2519    5.4148 H   0  0  0  0  0  0  0  0  0  0  0  0
   -0.3113   -5.8842    3.8157 H   0  0  0  0  0  0  0  0  0  0  0  0
    0.6711   -4.6612    2.0305 H   0  0  0  0  0  0  0  0  0  0  0  0
   -0.1589   -3.2625    1.3424 H   0  0  0  0  0  0  0  0  0  0  0  0
   -1.4077   -4.7382   -0.2314 H   0  0  0  0  0  0  0  0  0  0  0  0
   -0.5505   -6.1574    0.3898 H   0  0  0  0  0  0  0  0  0  0  0  0
    0.2599   -6.5458   -1.7293 H   0  0  0  0  0  0  0  0  0  0  0  0
    2.3335   -6.5626   -2.9510 H   0  0  0  0  0  0  0  0  0  0  0  0
    2.5982   -4.8749   -2.4391 H   0  0  0  0  0  0  0  0  0  0  0  0
   -0.5366   -4.4131   -8.2651 H   0  0  0  0  0  0  0  0  0  0  0  0
   -1.1948   -2.8407   -8.7895 H   0  0  0  0  0  0  0  0  0  0  0  0
   -3.1029   -3.0793   -7.1886 H   0  0  0  0  0  0  0  0  0  0  0  0
   -2.3932   -4.5775   -6.5482 H   0  0  0  0  0  0  0  0  0  0  0  0
   -2.1842   -6.6079   -8.0469 H   0  0  0  0  0  0  0  0  0  0  0  0
   -3.3295   -7.9542   -9.7988 H   0  0  0  0  0  0  0  0  0  0  0  0
   -5.0513   -6.8966  -11.2648 H   0  0  0  0  0  0  0  0  0  0  0  0
   -5.6186   -4.4852  -10.9612 H   0  0  0  0  0  0  0  0  0  0  0  0
   -4.4736   -3.1465   -9.2104 H   0  0  0  0  0  0  0  0  0  0  0  0
    1.2924   -2.7330   -2.7921 H   0  0  0  0  0  0  0  0  0  0  0  0
    0.8574   -1.8240   -4.2560 H   0  0  0  0  0  0  0  0  0  0  0  0
    3.5682   -3.1525   -3.7038 H   0  0  0  0  0  0  0  0  0  0  0  0
    2.8057   -1.2149   -5.9728 H   0  0  0  0  0  0  0  0  0  0  0  0
    3.1229   -2.9529   -6.1696 H   0  0  0  0  0  0  0  0  0  0  0  0
    4.4300   -1.8678   -5.6484 H   0  0  0  0  0  0  0  0  0  0  0  0
    2.7595   -0.1887   -3.5260 H   0  0  0  0  0  0  0  0  0  0  0  0
    4.4026   -0.8290   -3.3021 H   0  0  0  0  0  0  0  0  0  0  0  0
    3.1150   -1.2649   -2.1494 H   0  0  0  0  0  0  0  0  0  0  0  0
  1  2  1  0
  1 33  1  0
  1 34  1  0
  1 35  1  0
  2  3  1  0
  3  4  2  0
  3  8  1  0
  4  5  1  0
  4 36  1  0
  5  6  2  0
  5 37  1  0
  6  7  1  0
  6 38  1  0
  7  8  2  0
  7 39  1  0
  8  9  1  0
  9 10  1  0
  9 40  1  0
  9 41  1  0
 10 11  1  0
 10 42  1  0
 10 43  1  0
 11 12  2  0
 11 13  1  0
 13 14  1  0
 13 44  1  0
 14 15  1  0
 14 45  1  0
 14 46  1  0
 15 16  2  0
 15 28  1  0
 16 17  1  0
 17 18  2  0
 18 19  1  0
 18 28  1  0
 19 20  1  0
 20 21  1  0
 20 47  1  0
 20 48  1  0
 21 22  1  0
 21 49  1  0
 21 50  1  0
 22 23  2  0
 22 27  1  0
 23 24  1  0
 23 51  1  0
 24 25  2  0
 24 52  1  0
 25 26  1  0
 25 53  1  0
 26 27  2  0
 26 54  1  0
 27 55  1  0
 28 29  1  0
 29 30  1  0
 29 56  1  0
 29 57  1  0
 30 31  1  0
 30 32  1  0
 30 58  1  1
 31 59  1  0
 31 60  1  0
 31 61  1  0
 32 62  1  0
 32 63  1  0
 32 64  1  0
M  END

