
     RDKit          3D

 54 58  0  0  0  0  0  0  0  0999 V2000
    1.8245    0.3471   -4.7605 C   0  0  0  0  0  0  0  0  0  0  0  0
    2.4530   -0.1084   -3.6748 C   0  0  0  0  0  0  0  0  0  0  0  0
    2.4913    0.6033   -2.3480 C   0  0  0  0  0  0  0  0  0  0  0  0
    3.8650    0.8771   -1.8796 N   0  0  0  0  0  0  0  0  0  0  0  0
    4.5280    2.0476   -2.1674 C   0  0  0  0  0  0  0  0  0  0  0  0
    3.6253    3.2817   -3.1051 S   0  0  0  0  0  0  0  0  0  0  0  0
    4.9098    4.5685   -3.2504 C   0  0  0  0  0  0  0  0  0  0  0  0
    5.2373    5.4550   -2.0372 C   0  0  0  0  0  0  0  0  0  0  0  0
    6.2413    6.1384   -2.0803 O   0  0  0  0  0  0  0  0  0  0  0  0
    4.3204    5.4397   -1.0216 N   0  0  0  0  0  0  0  0  0  0  0  0
    4.3267    6.1617    0.1856 C   0  0  0  0  0  0  0  0  0  0  0  0
    5.3286    7.0678    0.5065 C   0  0  0  0  0  0  0  0  0  0  0  0
    5.2905    7.7742    1.7314 C   0  0  0  0  0  0  0  0  0  0  0  0
    4.2700    7.5909    2.6369 C   0  0  0  0  0  0  0  0  0  0  0  0
    3.2256    6.6720    2.3477 C   0  0  0  0  0  0  0  0  0  0  0  0
    2.2343    6.5181    3.2695 N   0  0  0  0  0  0  0  0  0  0  0  0
    1.2615    5.6716    3.0216 C   0  0  0  0  0  0  0  0  0  0  0  0
    1.1800    4.8972    1.8372 C   0  0  0  0  0  0  0  0  0  0  0  0
    2.1703    5.0351    0.8888 C   0  0  0  0  0  0  0  0  0  0  0  0
    3.2438    5.9401    1.1092 C   0  0  0  0  0  0  0  0  0  0  0  0
    5.7428    2.3107   -1.7985 N   0  0  0  0  0  0  0  0  0  0  0  0
    6.3816    1.3518   -1.0859 C   0  0  0  0  0  0  0  0  0  0  0  0
    8.0154    1.5246   -0.5087 S   0  0  0  0  0  0  0  0  0  0  0  0
    7.9567   -0.0682    0.2289 C   0  0  0  0  0  0  0  0  0  0  0  0
    6.7507   -0.6980    0.0372 C   0  0  0  0  0  0  0  0  0  0  0  0
    5.8387    0.1214   -0.7170 C   0  0  0  0  0  0  0  0  0  0  0  0
    4.4864   -0.1840   -1.1337 C   0  0  0  0  0  0  0  0  0  0  0  0
    3.8652   -1.2135   -0.9232 O   0  0  0  0  0  0  0  0  0  0  0  0
    6.4695   -2.0750    0.5878 C   0  0  0  0  0  0  0  0  0  0  0  0
    7.7606   -2.7845    1.0209 C   0  0  0  0  0  0  0  0  0  0  0  0
    8.6830   -1.8527    1.8166 C   0  0  0  0  0  0  0  0  0  0  0  0
    9.1292   -0.6482    0.9708 C   0  0  0  0  0  0  0  0  0  0  0  0
    1.8040   -0.2292   -5.6895 H   0  0  0  0  0  0  0  0  0  0  0  0
    1.3020    1.3093   -4.7638 H   0  0  0  0  0  0  0  0  0  0  0  0
    2.9671   -1.0758   -3.6964 H   0  0  0  0  0  0  0  0  0  0  0  0
    2.0434   -0.0403   -1.5775 H   0  0  0  0  0  0  0  0  0  0  0  0
    1.9302    1.5476   -2.3828 H   0  0  0  0  0  0  0  0  0  0  0  0
    4.5518    5.2205   -4.0634 H   0  0  0  0  0  0  0  0  0  0  0  0
    5.8500    4.1033   -3.5706 H   0  0  0  0  0  0  0  0  0  0  0  0
    3.5473    4.8000   -1.1672 H   0  0  0  0  0  0  0  0  0  0  0  0
    6.1417    7.2243   -0.1979 H   0  0  0  0  0  0  0  0  0  0  0  0
    6.0964    8.4792    1.9505 H   0  0  0  0  0  0  0  0  0  0  0  0
    4.2233    8.1273    3.5858 H   0  0  0  0  0  0  0  0  0  0  0  0
    0.4809    5.5745    3.7872 H   0  0  0  0  0  0  0  0  0  0  0  0
    0.3467    4.2071    1.6879 H   0  0  0  0  0  0  0  0  0  0  0  0
    2.1081    4.4361   -0.0234 H   0  0  0  0  0  0  0  0  0  0  0  0
    5.9173   -2.6678   -0.1568 H   0  0  0  0  0  0  0  0  0  0  0  0
    5.7787   -1.9826    1.4461 H   0  0  0  0  0  0  0  0  0  0  0  0
    8.2989   -3.1459    0.1259 H   0  0  0  0  0  0  0  0  0  0  0  0
    7.5123   -3.6776    1.6166 H   0  0  0  0  0  0  0  0  0  0  0  0
    9.5698   -2.3982    2.1776 H   0  0  0  0  0  0  0  0  0  0  0  0
    8.1487   -1.4898    2.7127 H   0  0  0  0  0  0  0  0  0  0  0  0
    9.9069   -0.9635    0.2495 H   0  0  0  0  0  0  0  0  0  0  0  0
    9.6026    0.1170    1.6090 H   0  0  0  0  0  0  0  0  0  0  0  0
  1  2  2  0
  1 33  1  0
  1 34  1  0
  2  3  1  0
  2 35  1  0
  3  4  1  0
  3 36  1  0
  3 37  1  0
  4  5  1  0
  4 27  1  0
  5  6  2  0
  5 21  1  0
  6  7  1  0
  7  8  1  0
  7 38  1  0
  7 39  1  0
  8  9  2  0
  8 10  1  0
 10 11  1  0
 10 40  1  0
 11 12  2  0
 11 20  1  0
 12 13  1  0
 12 41  1  0
 13 14  2  0
 13 42  1  0
 14 15  1  0
 14 43  1  0
 15 16  1  0
 15 20  2  0
 16 17  2  0
 17 18  1  0
 17 44  1  0
 18 19  2  0
 18 45  1  0
 19 20  1  0
 19 46  1  0
 21 22  2  0
 22 23  1  0
 22 26  1  0
 23 24  1  0
 24 25  2  0
 24 32  1  0
 25 26  1  0
 25 29  1  0
 26 27  2  0
 27 28  1  0
 29 30  1  0
 29 47  1  0
 29 48  1  0
 30 31  1  0
 30 49  1  0
 30 50  1  0
 31 32  1  0
 31 51  1  0
 31 52  1  0
 32 53  1  0
 32 54  1  0
M  CHG  2   6   1  28  -1
M  END

