
     RDKit          3D

 55 58  0  0  0  0  0  0  0  0999 V2000
    1.2362   -0.3174    1.9587 C   0  0  0  0  0  0  0  0  0  0  0  0
    2.7024   -0.1418    1.5612 C   0  0  0  0  0  0  0  0  0  0  0  0
    3.5407   -1.4045    1.7800 C   0  0  0  0  0  0  0  0  0  0  0  0
    4.9977   -1.2252    1.3844 C   0  0  0  0  0  0  0  0  0  0  0  0
    5.6780   -2.4496    1.6258 O   0  0  0  0  0  0  0  0  0  0  0  0
    6.9960   -2.5611    1.3534 C   0  0  0  0  0  0  0  0  0  0  0  0
    7.7925   -1.5259    0.8300 C   0  0  0  0  0  0  0  0  0  0  0  0
    9.1464   -1.7483    0.5850 C   0  0  0  0  0  0  0  0  0  0  0  0
    9.7334   -2.9954    0.8527 C   0  0  0  0  0  0  0  0  0  0  0  0
   11.1510   -3.1939    0.5839 C   0  0  0  0  0  0  0  0  0  0  0  0
   12.0171   -2.3434    0.1102 N   0  0  0  0  0  0  0  0  0  0  0  0
   13.2277   -3.0018    0.0463 N   0  0  0  0  0  0  0  0  0  0  0  0
   13.0208   -4.2038    0.4777 C   0  0  0  0  0  0  0  0  0  0  0  0
   13.9970   -5.3202    0.5878 C   0  0  0  0  0  0  0  0  0  0  0  0
   14.1131   -5.6907    1.9472 O   0  0  0  0  0  0  0  0  0  0  0  0
   14.9431   -6.7194    2.2825 C   0  0  0  0  0  0  0  0  0  0  0  0
   15.7412   -7.4257    1.3720 C   0  0  0  0  0  0  0  0  0  0  0  0
   16.5487   -8.4620    1.8555 C   0  0  0  0  0  0  0  0  0  0  0  0
   16.5868   -8.8106    3.2037 C   0  0  0  0  0  0  0  0  0  0  0  0
   15.7835   -8.0923    4.1124 C   0  0  0  0  0  0  0  0  0  0  0  0
   15.7489   -8.3593    5.4941 N   0  0  0  0  0  0  0  0  0  0  0  0
   16.4362   -9.3171    6.2159 C   0  0  0  0  0  0  0  0  0  0  0  0
   17.2114  -10.1126    5.7166 O   0  0  0  0  0  0  0  0  0  0  0  0
   16.1761   -9.3335    7.6998 C   0  0  1  0  0  0  0  0  0  0  0  0
   15.9583   -8.0721    8.5138 C   0  0  0  0  0  0  0  0  0  0  0  0
   14.8217   -9.0255    8.3087 C   0  0  0  0  0  0  0  0  0  0  0  0
   14.9677   -7.0534    3.6424 C   0  0  0  0  0  0  0  0  0  0  0  0
   11.7256   -4.4028    0.8347 O   0  0  0  0  0  0  0  0  0  0  0  0
    8.9300   -4.0273    1.3773 C   0  0  0  0  0  0  0  0  0  0  0  0
    7.5813   -3.8132    1.6240 C   0  0  0  0  0  0  0  0  0  0  0  0
    0.6600    0.6058    1.7895 H   0  0  0  0  0  0  0  0  0  0  0  0
    1.1394   -0.5806    3.0251 H   0  0  0  0  0  0  0  0  0  0  0  0
    0.7570   -1.1215    1.3759 H   0  0  0  0  0  0  0  0  0  0  0  0
    3.1414    0.6943    2.1355 H   0  0  0  0  0  0  0  0  0  0  0  0
    2.7618    0.1587    0.4992 H   0  0  0  0  0  0  0  0  0  0  0  0
    3.1212   -2.2447    1.1999 H   0  0  0  0  0  0  0  0  0  0  0  0
    3.5001   -1.7090    2.8402 H   0  0  0  0  0  0  0  0  0  0  0  0
    5.4644   -0.4117    1.9717 H   0  0  0  0  0  0  0  0  0  0  0  0
    5.0805   -0.9515    0.3154 H   0  0  0  0  0  0  0  0  0  0  0  0
    7.3669   -0.5469    0.6115 H   0  0  0  0  0  0  0  0  0  0  0  0
    9.7697   -0.9493    0.1790 H   0  0  0  0  0  0  0  0  0  0  0  0
   14.9538   -4.9585    0.1750 H   0  0  0  0  0  0  0  0  0  0  0  0
   13.6561   -6.1801   -0.0199 H   0  0  0  0  0  0  0  0  0  0  0  0
   15.7486   -7.1843    0.3096 H   0  0  0  0  0  0  0  0  0  0  0  0
   17.1735   -9.0166    1.1505 H   0  0  0  0  0  0  0  0  0  0  0  0
   17.2179   -9.6168    3.5666 H   0  0  0  0  0  0  0  0  0  0  0  0
   15.1295   -7.7528    6.0174 H   0  0  0  0  0  0  0  0  0  0  0  0
   16.7607  -10.1301    8.1653 H   0  0  0  0  0  0  0  0  0  0  0  0
   15.9493   -7.1133    7.9861 H   0  0  0  0  0  0  0  0  0  0  0  0
   16.4333   -8.0247    9.4975 H   0  0  0  0  0  0  0  0  0  0  0  0
   14.0053   -8.7427    7.6365 H   0  0  0  0  0  0  0  0  0  0  0  0
   14.4996   -9.6473    9.1484 H   0  0  0  0  0  0  0  0  0  0  0  0
   14.3328   -6.4788    4.3217 H   0  0  0  0  0  0  0  0  0  0  0  0
    9.3732   -5.0016    1.5915 H   0  0  0  0  0  0  0  0  0  0  0  0
    6.9468   -4.6032    2.0302 H   0  0  0  0  0  0  0  0  0  0  0  0
  1  2  1  0
  1 31  1  0
  1 32  1  0
  1 33  1  0
  2  3  1  0
  2 34  1  0
  2 35  1  0
  3  4  1  0
  3 36  1  0
  3 37  1  0
  4  5  1  0
  4 38  1  0
  4 39  1  0
  5  6  1  0
  6  7  2  0
  6 30  1  0
  7  8  1  0
  7 40  1  0
  8  9  2  0
  8 41  1  0
  9 10  1  0
  9 29  1  0
 10 11  2  0
 10 28  1  0
 11 12  1  0
 12 13  2  0
 13 14  1  0
 13 28  1  0
 14 15  1  0
 14 42  1  0
 14 43  1  0
 15 16  1  0
 16 17  2  0
 16 27  1  0
 17 18  1  0
 17 44  1  0
 18 19  2  0
 18 45  1  0
 19 20  1  0
 19 46  1  0
 20 21  1  0
 20 27  2  0
 21 22  1  0
 21 47  1  0
 22 23  2  0
 22 24  1  0
 24 25  1  0
 24 26  1  0
 24 48  1  1
 25 26  1  0
 25 49  1  0
 25 50  1  0
 26 51  1  0
 26 52  1  0
 27 53  1  0
 29 30  2  0
 29 54  1  0
 30 55  1  0
M  END

