
     RDKit          3D

 36 37  0  0  0  0  0  0  0  0999 V2000
    4.8247   -2.8946    1.2970 C   0  0  0  0  0  0  0  0  0  0  0  0
    4.1950   -1.6268    0.7866 C   0  0  0  0  0  0  0  0  0  0  0  0
    4.7787   -0.4861    1.1775 N   0  0  0  0  0  0  0  0  0  0  0  0
    4.2906    0.6864    0.7748 C   0  0  0  0  0  0  0  0  0  0  0  0
    3.1746    0.8091   -0.0568 C   0  0  0  0  0  0  0  0  0  0  0  0
    2.5497   -0.3589   -0.4773 C   0  0  0  0  0  0  0  0  0  0  0  0
    3.0513   -1.6051   -0.0598 C   0  0  0  0  0  0  0  0  0  0  0  0
    2.3748   -2.8212   -0.5168 C   0  0  0  0  0  0  0  0  0  0  0  0
    2.6144   -4.0772   -0.2505 N   0  0  0  0  0  0  0  0  0  0  0  0
    1.6456   -4.7417   -0.9676 C   0  0  0  0  0  0  0  0  0  0  0  0
    1.5307   -6.2481   -1.0254 C   0  0  1  0  0  0  0  0  0  0  0  0
    2.8115   -6.8723   -1.3538 N   0  0  0  0  0  0  0  0  0  0  0  0
    0.8871   -6.8892    0.2545 C   0  0  1  0  0  0  0  0  0  0  0  0
   -0.4091   -6.1427    0.6166 C   0  0  0  0  0  0  0  0  0  0  0  0
    0.5539   -8.3550   -0.0807 C   0  0  0  0  0  0  0  0  0  0  0  0
    1.8586   -6.8473    1.4486 C   0  0  0  0  0  0  0  0  0  0  0  0
    0.8560   -3.9490   -1.6484 N   0  0  0  0  0  0  0  0  0  0  0  0
    1.3286   -2.6746   -1.3517 O   0  0  0  0  0  0  0  0  0  0  0  0
    5.7019   -2.6264    1.8990 H   0  0  0  0  0  0  0  0  0  0  0  0
    5.1233   -3.5586    0.4721 H   0  0  0  0  0  0  0  0  0  0  0  0
    4.1180   -3.4766    1.9080 H   0  0  0  0  0  0  0  0  0  0  0  0
    4.8160    1.5802    1.1328 H   0  0  0  0  0  0  0  0  0  0  0  0
    2.8082    1.7908   -0.3637 H   0  0  0  0  0  0  0  0  0  0  0  0
    1.6737   -0.3231   -1.1271 H   0  0  0  0  0  0  0  0  0  0  0  0
    0.8347   -6.4557   -1.8535 H   0  0  0  0  0  0  0  0  0  0  0  0
    3.5472   -6.4922   -0.7572 H   0  0  0  0  0  0  0  0  0  0  0  0
    3.0773   -6.6493   -2.3123 H   0  0  0  0  0  0  0  0  0  0  0  0
   -1.0958   -6.0820   -0.2434 H   0  0  0  0  0  0  0  0  0  0  0  0
   -0.2141   -5.1144    0.9594 H   0  0  0  0  0  0  0  0  0  0  0  0
   -0.9342   -6.6680    1.4305 H   0  0  0  0  0  0  0  0  0  0  0  0
   -0.2123   -8.4169   -0.8715 H   0  0  0  0  0  0  0  0  0  0  0  0
    0.1618   -8.8765    0.8074 H   0  0  0  0  0  0  0  0  0  0  0  0
    1.4503   -8.8841   -0.4337 H   0  0  0  0  0  0  0  0  0  0  0  0
    2.1568   -5.8177    1.6976 H   0  0  0  0  0  0  0  0  0  0  0  0
    2.7698   -7.4295    1.2413 H   0  0  0  0  0  0  0  0  0  0  0  0
    1.3818   -7.2881    2.3391 H   0  0  0  0  0  0  0  0  0  0  0  0
  1  2  1  0
  1 19  1  0
  1 20  1  0
  1 21  1  0
  2  3  2  0
  2  7  1  0
  3  4  1  0
  4  5  2  0
  4 22  1  0
  5  6  1  0
  5 23  1  0
  6  7  2  0
  6 24  1  0
  7  8  1  0
  8  9  2  0
  8 18  1  0
  9 10  1  0
 10 11  1  0
 10 17  2  0
 11 12  1  0
 11 13  1  0
 11 25  1  6
 12 26  1  0
 12 27  1  0
 13 14  1  1
 13 15  1  0
 13 16  1  0
 14 28  1  0
 14 29  1  0
 14 30  1  0
 15 31  1  0
 15 32  1  0
 15 33  1  0
 16 34  1  0
 16 35  1  0
 16 36  1  0
 17 18  1  0
M  END

