
     RDKit          3D

 42 44  0  0  0  0  0  0  0  0999 V2000
    5.0654   -0.4997   -1.3429 C   0  0  0  0  0  0  0  0  0  0  0  0
    3.8789   -0.2526   -0.3998 C   0  0  2  0  0  0  0  0  0  0  0  0
    3.5613    0.7910   -0.5524 H   0  0  0  0  0  0  0  0  0  0  0  0
    4.3203   -0.4546    0.9802 N   0  0  0  0  0  0  0  0  0  0  0  0
    3.7906    0.1836    1.9337 C   0  0  0  0  0  0  0  0  0  0  0  0
    2.7551    1.1200    1.9089 N   0  0  0  0  0  0  0  0  0  0  0  0
    2.3231    1.6762    3.0915 C   0  0  0  0  0  0  0  0  0  0  0  0
    1.3511    2.3868    3.1955 O   0  0  0  0  0  0  0  0  0  0  0  0
    3.2401    1.2877    4.2805 C   0  0  2  0  0  0  0  0  0  0  0  0
    2.3763    0.7653    5.4440 C   0  0  0  0  0  0  0  0  0  0  0  0
    4.0485    2.5203    4.7301 C   0  0  0  0  0  0  0  0  0  0  0  0
    5.4379    2.4991    4.9220 C   0  0  0  0  0  0  0  0  0  0  0  0
    6.0745    3.6497    5.3905 C   0  0  0  0  0  0  0  0  0  0  0  0
    5.4303    4.7874    5.6659 N   0  0  0  0  0  0  0  0  0  0  0  0
    4.1275    4.8023    5.4788 C   0  0  0  0  0  0  0  0  0  0  0  0
    3.2081    6.4409    5.8676 Br  0  0  0  0  0  0  0  0  0  0  0  0
    3.3733    3.7153    5.0208 C   0  0  0  0  0  0  0  0  0  0  0  0
    4.3087   -0.0816    3.6226 S   0  0  0  0  0  0  0  0  0  0  0  0
    2.7117   -1.1919   -0.7244 C   0  0  0  0  0  0  0  0  0  0  0  0
    2.7981   -2.5300   -0.3088 C   0  0  0  0  0  0  0  0  0  0  0  0
    1.7913   -3.4503   -0.6011 C   0  0  0  0  0  0  0  0  0  0  0  0
    0.6628   -3.0482   -1.3192 C   0  0  0  0  0  0  0  0  0  0  0  0
    0.5514   -1.7225   -1.7357 C   0  0  0  0  0  0  0  0  0  0  0  0
    1.5637   -0.7959   -1.4446 C   0  0  0  0  0  0  0  0  0  0  0  0
    1.3806    0.6308   -1.9064 C   0  0  1  0  0  0  0  0  0  0  0  0
    2.3967    1.0598   -2.6789 F   0  0  0  0  0  0  0  0  0  0  0  0
    0.2529    0.8101   -2.6015 F   0  0  0  0  0  0  0  0  0  0  0  0
    1.3187    1.4966   -0.8502 F   0  0  0  0  0  0  0  0  0  0  0  0
    5.4331   -1.5315   -1.2386 H   0  0  0  0  0  0  0  0  0  0  0  0
    5.8900    0.1847   -1.0912 H   0  0  0  0  0  0  0  0  0  0  0  0
    4.7704   -0.3293   -2.3886 H   0  0  0  0  0  0  0  0  0  0  0  0
    2.2246    1.3109    1.0601 H   0  0  0  0  0  0  0  0  0  0  0  0
    1.6798    1.5504    5.7715 H   0  0  0  0  0  0  0  0  0  0  0  0
    3.0121    0.4832    6.2961 H   0  0  0  0  0  0  0  0  0  0  0  0
    1.7944   -0.1136    5.1312 H   0  0  0  0  0  0  0  0  0  0  0  0
    6.0212    1.6050    4.7018 H   0  0  0  0  0  0  0  0  0  0  0  0
    7.1586    3.6523    5.5490 H   0  0  0  0  0  0  0  0  0  0  0  0
    2.2977    3.8069    4.8749 H   0  0  0  0  0  0  0  0  0  0  0  0
    3.6732   -2.8398    0.2657 H   0  0  0  0  0  0  0  0  0  0  0  0
    1.8886   -4.4856   -0.2644 H   0  0  0  0  0  0  0  0  0  0  0  0
   -0.1313   -3.7611   -1.5521 H   0  0  0  0  0  0  0  0  0  0  0  0
   -0.3283   -1.3962   -2.2911 H   0  0  0  0  0  0  0  0  0  0  0  0
  1  2  1  0
  1 29  1  0
  1 30  1  0
  1 31  1  0
  2  3  1  1
  2  4  1  0
  2 19  1  0
  4  5  2  0
  5  6  1  0
  5 18  1  0
  6  7  1  0
  6 32  1  0
  7  8  2  0
  7  9  1  0
  9 10  1  1
  9 11  1  0
  9 18  1  0
 10 33  1  0
 10 34  1  0
 10 35  1  0
 11 12  2  0
 11 17  1  0
 12 13  1  0
 12 36  1  0
 13 14  2  0
 13 37  1  0
 14 15  1  0
 15 16  1  0
 15 17  2  0
 17 38  1  0
 19 20  2  0
 19 24  1  0
 20 21  1  0
 20 39  1  0
 21 22  2  0
 21 40  1  0
 22 23  1  0
 22 41  1  0
 23 24  2  0
 23 42  1  0
 24 25  1  0
 25 26  1  6
 25 27  1  0
 25 28  1  0
M  END

