
     RDKit          3D

 63 64  0  0  0  0  0  0  0  0999 V2000
    2.3074   -0.2952    3.5122 C   0  0  0  0  0  0  0  0  0  0  0  0
    2.4866   -0.1699    2.0097 C   0  0  0  0  0  0  0  0  0  0  0  0
    2.9928    1.1281    1.6389 O   0  0  0  0  0  0  0  0  0  0  0  0
    4.3160    1.2943    1.6689 C   0  0  0  0  0  0  0  0  0  0  0  0
    5.1324    0.4480    1.9445 O   0  0  0  0  0  0  0  0  0  0  0  0
    4.5801    2.5622    1.3290 O   0  0  0  0  0  0  0  0  0  0  0  0
    5.9648    2.9708    1.2113 C   0  0  1  0  0  0  0  0  0  0  0  0
    6.4423    2.8309   -0.2478 C   0  0  0  0  0  0  0  0  0  0  0  0
    5.8804    3.6134   -1.3491 N   0  0  0  0  0  0  0  0  0  0  0  0
    4.4318    3.5336   -1.5562 C   0  0  0  0  0  0  0  0  0  0  0  0
    3.9455    3.8200   -2.9887 C   0  0  1  0  0  0  0  0  0  0  0  0
    4.1354    5.2742   -3.4411 C   0  0  0  0  0  0  0  0  0  0  0  0
    4.5268    2.8309   -4.0060 C   0  0  0  0  0  0  0  0  0  0  0  0
    6.2172    4.9978   -1.1562 O   0  0  0  0  0  0  0  0  0  0  0  0
    7.3154    5.4405   -1.8289 C   0  0  0  0  0  0  0  0  0  0  0  0
    8.0776    4.6516   -2.7046 C   0  0  0  0  0  0  0  0  0  0  0  0
    9.1853    5.2097   -3.3401 C   0  0  0  0  0  0  0  0  0  0  0  0
    9.5227    6.5414   -3.0963 C   0  0  0  0  0  0  0  0  0  0  0  0
   10.6935    7.1230   -3.7691 N   0  0  0  0  0  0  0  0  0  0  0  0
   11.3306    6.4027   -4.5229 O   0  0  0  0  0  0  0  0  0  0  0  0
   10.9587    8.2925   -3.5339 O   0  0  0  0  0  0  0  0  0  0  0  0
    8.7700    7.3350   -2.2239 C   0  0  0  0  0  0  0  0  0  0  0  0
    7.6662    6.7822   -1.5877 C   0  0  0  0  0  0  0  0  0  0  0  0
    6.0950    4.3451    1.9158 C   0  0  1  0  0  0  0  0  0  0  0  0
    5.0696    5.3249    1.5872 N   0  0  0  0  0  0  0  0  0  0  0  0
    6.1370    4.1668    3.4564 C   0  0  0  0  0  0  0  0  0  0  0  0
    7.3881    3.5072    3.9950 C   0  0  0  0  0  0  0  0  0  0  0  0
    8.5641    4.2600    4.1624 C   0  0  0  0  0  0  0  0  0  0  0  0
    9.7364    3.6713    4.6419 C   0  0  0  0  0  0  0  0  0  0  0  0
    9.7565    2.3108    4.9669 C   0  0  0  0  0  0  0  0  0  0  0  0
    8.5962    1.5492    4.8082 C   0  0  0  0  0  0  0  0  0  0  0  0
    7.4240    2.1430    4.3276 C   0  0  0  0  0  0  0  0  0  0  0  0
    1.8447   -1.2658    3.7524 H   0  0  0  0  0  0  0  0  0  0  0  0
    1.6549    0.5026    3.8994 H   0  0  0  0  0  0  0  0  0  0  0  0
    3.2773   -0.2446    4.0292 H   0  0  0  0  0  0  0  0  0  0  0  0
    1.5240   -0.2474    1.4845 H   0  0  0  0  0  0  0  0  0  0  0  0
    3.1691   -0.9420    1.6251 H   0  0  0  0  0  0  0  0  0  0  0  0
    6.5760    2.2391    1.7599 H   0  0  0  0  0  0  0  0  0  0  0  0
    6.3060    1.7761   -0.5380 H   0  0  0  0  0  0  0  0  0  0  0  0
    7.5313    3.0047   -0.2492 H   0  0  0  0  0  0  0  0  0  0  0  0
    3.9032    4.1833   -0.8354 H   0  0  0  0  0  0  0  0  0  0  0  0
    4.1536    2.5014   -1.2975 H   0  0  0  0  0  0  0  0  0  0  0  0
    2.8550    3.6403   -2.9354 H   0  0  0  0  0  0  0  0  0  0  0  0
    5.1947    5.5143   -3.6202 H   0  0  0  0  0  0  0  0  0  0  0  0
    3.7497    5.9864   -2.6942 H   0  0  0  0  0  0  0  0  0  0  0  0
    3.5969    5.4545   -4.3854 H   0  0  0  0  0  0  0  0  0  0  0  0
    5.6173    2.9513   -4.1000 H   0  0  0  0  0  0  0  0  0  0  0  0
    4.0864    2.9881   -5.0036 H   0  0  0  0  0  0  0  0  0  0  0  0
    4.3289    1.7862   -3.7142 H   0  0  0  0  0  0  0  0  0  0  0  0
    7.7903    3.6169   -2.8816 H   0  0  0  0  0  0  0  0  0  0  0  0
    9.7970    4.6254   -4.0272 H   0  0  0  0  0  0  0  0  0  0  0  0
    9.0641    8.3710   -2.0580 H   0  0  0  0  0  0  0  0  0  0  0  0
    7.0592    7.3729   -0.8991 H   0  0  0  0  0  0  0  0  0  0  0  0
    7.0681    4.7633    1.6074 H   0  0  0  0  0  0  0  0  0  0  0  0
    4.1429    4.9272    1.7417 H   0  0  0  0  0  0  0  0  0  0  0  0
    5.1310    5.5904    0.6069 H   0  0  0  0  0  0  0  0  0  0  0  0
    5.2436    3.6015    3.7720 H   0  0  0  0  0  0  0  0  0  0  0  0
    6.0349    5.1774    3.8788 H   0  0  0  0  0  0  0  0  0  0  0  0
    8.5561    5.3275    3.9214 H   0  0  0  0  0  0  0  0  0  0  0  0
   10.6369    4.2782    4.7683 H   0  0  0  0  0  0  0  0  0  0  0  0
   10.6719    1.8486    5.3452 H   0  0  0  0  0  0  0  0  0  0  0  0
    8.5993    0.4856    5.0604 H   0  0  0  0  0  0  0  0  0  0  0  0
    6.5261    1.5317    4.2030 H   0  0  0  0  0  0  0  0  0  0  0  0
  1  2  1  0
  1 33  1  0
  1 34  1  0
  1 35  1  0
  2  3  1  0
  2 36  1  0
  2 37  1  0
  3  4  1  0
  4  5  2  0
  4  6  1  0
  6  7  1  0
  7  8  1  0
  7 24  1  0
  7 38  1  1
  8  9  1  0
  8 39  1  0
  8 40  1  0
  9 10  1  0
  9 14  1  0
 10 11  1  0
 10 41  1  0
 10 42  1  0
 11 12  1  0
 11 13  1  0
 11 43  1  1
 12 44  1  0
 12 45  1  0
 12 46  1  0
 13 47  1  0
 13 48  1  0
 13 49  1  0
 14 15  1  0
 15 16  2  0
 15 23  1  0
 16 17  1  0
 16 50  1  0
 17 18  2  0
 17 51  1  0
 18 19  1  0
 18 22  1  0
 19 20  2  0
 19 21  1  0
 22 23  2  0
 22 52  1  0
 23 53  1  0
 24 25  1  0
 24 26  1  0
 24 54  1  6
 25 55  1  0
 25 56  1  0
 26 27  1  0
 26 57  1  0
 26 58  1  0
 27 28  2  0
 27 32  1  0
 28 29  1  0
 28 59  1  0
 29 30  2  0
 29 60  1  0
 30 31  1  0
 30 61  1  0
 31 32  2  0
 31 62  1  0
 32 63  1  0
M  CHG  2  19   1  21  -1
M  END

