
     RDKit          3D

 49 51  0  0  0  0  0  0  0  0999 V2000
    3.9549   -2.4218    0.9197 C   0  0  0  0  0  0  0  0  0  0  0  0
    3.7494   -1.0358    0.6836 O   0  0  0  0  0  0  0  0  0  0  0  0
    4.0370   -0.5558   -0.5390 C   0  0  0  0  0  0  0  0  0  0  0  0
    3.8261    0.8239   -0.7575 C   0  0  0  0  0  0  0  0  0  0  0  0
    4.1194    1.3290   -2.0111 C   0  0  0  0  0  0  0  0  0  0  0  0
    4.6104    0.4782   -3.0271 C   0  0  0  0  0  0  0  0  0  0  0  0
    4.9556    1.0595   -4.3930 C   0  0  1  0  0  0  0  0  0  0  0  0
    6.1158    1.9473   -4.2643 N   0  0  0  0  0  0  0  0  0  0  0  0
    6.1249    3.2404   -4.6894 C   0  0  0  0  0  0  0  0  0  0  0  0
    5.1721    3.7627   -5.2557 O   0  0  0  0  0  0  0  0  0  0  0  0
    7.4265    4.0009   -4.4399 C   0  0  0  0  0  0  0  0  0  0  0  0
    7.1764    5.4824   -4.1607 C   0  0  0  0  0  0  0  0  0  0  0  0
    6.5304    5.6977   -2.8759 N   0  0  0  0  0  0  0  0  0  0  0  0
    7.1960    5.3554   -1.7548 N   0  0  0  0  0  0  0  0  0  0  0  0
    6.3678    5.6441   -0.7577 C   0  0  0  0  0  0  0  0  0  0  0  0
    5.1488    6.1796   -1.2351 C   0  0  0  0  0  0  0  0  0  0  0  0
    5.2830    6.2019   -2.6183 C   0  0  0  0  0  0  0  0  0  0  0  0
    4.3348    6.6545   -3.6829 C   0  0  0  0  0  0  0  0  0  0  0  0
    5.1736    0.0229   -5.5054 C   0  0  1  0  0  0  0  0  0  0  0  0
    3.8953   -0.7564   -5.9361 C   0  0  0  0  0  0  0  0  0  0  0  0
    3.7831    0.1694   -7.1759 C   0  0  2  0  0  0  0  0  0  0  0  0
    3.4155   -0.3699   -8.4133 O   0  0  0  0  0  0  0  0  0  0  0  0
    5.2447    0.6297   -6.9377 C   0  0  0  0  0  0  0  0  0  0  0  0
    4.7748   -0.8644   -2.6851 C   0  0  0  0  0  0  0  0  0  0  0  0
    4.4966   -1.3713   -1.4741 N   0  0  0  0  0  0  0  0  0  0  0  0
    3.6601   -2.5969    1.9627 H   0  0  0  0  0  0  0  0  0  0  0  0
    5.0100   -2.7014    0.7720 H   0  0  0  0  0  0  0  0  0  0  0  0
    3.3419   -3.0387    0.2437 H   0  0  0  0  0  0  0  0  0  0  0  0
    3.4443    1.4485    0.0513 H   0  0  0  0  0  0  0  0  0  0  0  0
    3.9747    2.3938   -2.2156 H   0  0  0  0  0  0  0  0  0  0  0  0
    4.1361    1.7285   -4.7000 H   0  0  0  0  0  0  0  0  0  0  0  0
    6.9200    1.5979   -3.7552 H   0  0  0  0  0  0  0  0  0  0  0  0
    8.0425    3.9097   -5.3518 H   0  0  0  0  0  0  0  0  0  0  0  0
    7.9974    3.5631   -3.6072 H   0  0  0  0  0  0  0  0  0  0  0  0
    6.5304    5.8974   -4.9440 H   0  0  0  0  0  0  0  0  0  0  0  0
    8.1324    6.0285   -4.1660 H   0  0  0  0  0  0  0  0  0  0  0  0
    6.6730    5.4614    0.2731 H   0  0  0  0  0  0  0  0  0  0  0  0
    4.2864    6.5122   -0.6617 H   0  0  0  0  0  0  0  0  0  0  0  0
    3.3792    6.9485   -3.2271 H   0  0  0  0  0  0  0  0  0  0  0  0
    4.1449    5.8530   -4.4141 H   0  0  0  0  0  0  0  0  0  0  0  0
    4.7223    7.5286   -4.2343 H   0  0  0  0  0  0  0  0  0  0  0  0
    6.0358   -0.6114   -5.2429 H   0  0  0  0  0  0  0  0  0  0  0  0
    3.0463   -0.7837   -5.2358 H   0  0  0  0  0  0  0  0  0  0  0  0
    4.1304   -1.7910   -6.2362 H   0  0  0  0  0  0  0  0  0  0  0  0
    3.0772    0.9945   -6.9911 H   0  0  0  0  0  0  0  0  0  0  0  0
    4.0239   -1.0916   -8.6232 H   0  0  0  0  0  0  0  0  0  0  0  0
    5.4554    1.7048   -7.0306 H   0  0  0  0  0  0  0  0  0  0  0  0
    5.9436    0.0703   -7.5814 H   0  0  0  0  0  0  0  0  0  0  0  0
    5.1450   -1.5862   -3.4200 H   0  0  0  0  0  0  0  0  0  0  0  0
  1  2  1  0
  1 26  1  0
  1 27  1  0
  1 28  1  0
  2  3  1  0
  3  4  2  0
  3 25  1  0
  4  5  1  0
  4 29  1  0
  5  6  2  0
  5 30  1  0
  6  7  1  0
  6 24  1  0
  7  8  1  0
  7 19  1  0
  7 31  1  6
  8  9  1  0
  8 32  1  0
  9 10  2  0
  9 11  1  0
 11 12  1  0
 11 33  1  0
 11 34  1  0
 12 13  1  0
 12 35  1  0
 12 36  1  0
 13 14  1  0
 13 17  1  0
 14 15  2  0
 15 16  1  0
 15 37  1  0
 16 17  2  0
 16 38  1  0
 17 18  1  0
 18 39  1  0
 18 40  1  0
 18 41  1  0
 19 20  1  0
 19 23  1  0
 19 42  1  1
 20 21  1  0
 20 43  1  0
 20 44  1  0
 21 22  1  0
 21 23  1  0
 21 45  1  1
 22 46  1  0
 23 47  1  0
 23 48  1  0
 24 25  2  0
 24 49  1  0
M  END

