
     RDKit          3D

 43 44  0  0  0  0  0  0  0  0999 V2000
    4.5956   -3.0416   -0.7719 C   0  0  0  0  0  0  0  0  0  0  0  0
    4.2659   -1.5704   -0.6963 C   0  0  0  0  0  0  0  0  0  0  0  0
    5.2894   -0.6158   -0.7082 C   0  0  0  0  0  0  0  0  0  0  0  0
    5.0000    0.7495   -0.6386 C   0  0  0  0  0  0  0  0  0  0  0  0
    6.5889    2.1639   -0.6596 I   0  0  0  0  0  0  0  0  0  0  0  0
    3.6779    1.1864   -0.5560 C   0  0  0  0  0  0  0  0  0  0  0  0
    2.6417    0.2511   -0.5431 C   0  0  0  0  0  0  0  0  0  0  0  0
    2.9224   -1.1243   -0.6120 C   0  0  0  0  0  0  0  0  0  0  0  0
    1.9125   -2.0987   -0.5985 N   0  0  0  0  0  0  0  0  0  0  0  0
    0.5615   -1.9505   -0.5389 C   0  0  0  0  0  0  0  0  0  0  0  0
   -0.0389   -0.8885   -0.4826 O   0  0  0  0  0  0  0  0  0  0  0  0
   -0.0917   -3.3735   -0.5735 C   0  0  0  0  0  0  0  0  0  0  0  0
    0.6770   -4.3284   -0.7109 O   0  0  0  0  0  0  0  0  0  0  0  0
   -1.4364   -3.5229   -0.4873 N   0  0  0  0  0  0  0  0  0  0  0  0
   -2.4252   -2.4763   -0.1761 C   0  0  0  0  0  0  0  0  0  0  0  0
   -3.5604   -2.4693   -1.2022 C   0  0  0  0  0  0  0  0  0  0  0  0
   -4.2028   -3.8529   -1.3308 C   0  0  0  0  0  0  0  0  0  0  0  0
   -3.1305   -4.9082   -1.6229 C   0  0  0  0  0  0  0  0  0  0  0  0
   -1.9730   -4.9000   -0.6048 C   0  0  2  0  0  0  0  0  0  0  0  0
   -2.3169   -5.4792    0.7814 C   0  0  0  0  0  0  0  0  0  0  0  0
   -2.5714   -6.9888    0.7817 C   0  0  0  0  0  0  0  0  0  0  0  0
   -2.8760   -7.4819    2.0685 O   0  0  0  0  0  0  0  0  0  0  0  0
    5.6811   -3.1984   -0.8366 H   0  0  0  0  0  0  0  0  0  0  0  0
    4.1400   -3.5214   -1.6557 H   0  0  0  0  0  0  0  0  0  0  0  0
    4.2353   -3.5904    0.1157 H   0  0  0  0  0  0  0  0  0  0  0  0
    6.3253   -0.9542   -0.7732 H   0  0  0  0  0  0  0  0  0  0  0  0
    3.4422    2.2505   -0.5018 H   0  0  0  0  0  0  0  0  0  0  0  0
    1.6063    0.5781   -0.4807 H   0  0  0  0  0  0  0  0  0  0  0  0
    2.1757   -3.0825   -0.6675 H   0  0  0  0  0  0  0  0  0  0  0  0
   -1.9170   -1.5110   -0.1407 H   0  0  0  0  0  0  0  0  0  0  0  0
   -2.8381   -2.6812    0.8288 H   0  0  0  0  0  0  0  0  0  0  0  0
   -3.1549   -2.1507   -2.1787 H   0  0  0  0  0  0  0  0  0  0  0  0
   -4.3047   -1.7130   -0.9030 H   0  0  0  0  0  0  0  0  0  0  0  0
   -4.9631   -3.8570   -2.1288 H   0  0  0  0  0  0  0  0  0  0  0  0
   -4.7365   -4.1003   -0.3959 H   0  0  0  0  0  0  0  0  0  0  0  0
   -2.7016   -4.7169   -2.6218 H   0  0  0  0  0  0  0  0  0  0  0  0
   -3.5730   -5.9161   -1.6656 H   0  0  0  0  0  0  0  0  0  0  0  0
   -1.1477   -5.4989   -1.0103 H   0  0  0  0  0  0  0  0  0  0  0  0
   -3.1934   -4.9837    1.2298 H   0  0  0  0  0  0  0  0  0  0  0  0
   -1.4615   -5.2747    1.4500 H   0  0  0  0  0  0  0  0  0  0  0  0
   -1.7008   -7.5130    0.3350 H   0  0  0  0  0  0  0  0  0  0  0  0
   -3.4425   -7.2352    0.1539 H   0  0  0  0  0  0  0  0  0  0  0  0
   -2.1078   -7.3360    2.6363 H   0  0  0  0  0  0  0  0  0  0  0  0
  1  2  1  0
  1 23  1  0
  1 24  1  0
  1 25  1  0
  2  3  2  0
  2  8  1  0
  3  4  1  0
  3 26  1  0
  4  5  1  0
  4  6  2  0
  6  7  1  0
  6 27  1  0
  7  8  2  0
  7 28  1  0
  8  9  1  0
  9 10  1  0
  9 29  1  0
 10 11  2  0
 10 12  1  0
 12 13  2  0
 12 14  1  0
 14 15  1  0
 14 19  1  0
 15 16  1  0
 15 30  1  0
 15 31  1  0
 16 17  1  0
 16 32  1  0
 16 33  1  0
 17 18  1  0
 17 34  1  0
 17 35  1  0
 18 19  1  0
 18 36  1  0
 18 37  1  0
 19 20  1  0
 19 38  1  6
 20 21  1  0
 20 39  1  0
 20 40  1  0
 21 22  1  0
 21 41  1  0
 21 42  1  0
 22 43  1  0
M  END

