
     RDKit          3D

 44 47  0  0  0  0  0  0  0  0999 V2000
    1.9115   -0.3646   -0.2617 O   0  0  0  0  0  0  0  0  0  0  0  0
    3.0203   -0.4316    0.2129 C   0  0  0  0  0  0  0  0  0  0  0  0
    3.8732   -1.6593    0.4502 C   0  0  0  0  0  0  0  0  0  0  0  0
    3.3395   -3.2695    0.0116 S   0  0  0  0  0  0  0  0  0  0  0  0
    1.5985   -3.2652    0.4505 C   0  0  0  0  0  0  0  0  0  0  0  0
    0.6426   -3.4936   -0.5464 C   0  0  0  0  0  0  0  0  0  0  0  0
   -0.7095   -3.5870   -0.2139 C   0  0  0  0  0  0  0  0  0  0  0  0
   -1.1011   -3.4378    1.1200 C   0  0  0  0  0  0  0  0  0  0  0  0
   -2.7930   -3.5424    1.5394 Cl  0  0  0  0  0  0  0  0  0  0  0  0
   -0.1544   -3.2094    2.1241 C   0  0  0  0  0  0  0  0  0  0  0  0
    1.1976   -3.1363    1.7872 C   0  0  0  0  0  0  0  0  0  0  0  0
    5.0901   -1.2662    0.9327 C   0  0  0  0  0  0  0  0  0  0  0  0
    6.2791   -2.0496    1.2740 C   0  0  0  0  0  0  0  0  0  0  0  0
    6.5628   -3.2732    0.6304 C   0  0  0  0  0  0  0  0  0  0  0  0
    7.6769   -4.0350    0.9783 C   0  0  0  0  0  0  0  0  0  0  0  0
    8.5352   -3.5780    1.9820 C   0  0  0  0  0  0  0  0  0  0  0  0
    9.9310   -4.5274    2.4259 Cl  0  0  0  0  0  0  0  0  0  0  0  0
    8.2903   -2.3606    2.6262 C   0  0  0  0  0  0  0  0  0  0  0  0
    7.1774   -1.6035    2.2699 C   0  0  0  0  0  0  0  0  0  0  0  0
    5.0314    0.2391    1.0945 C   0  0  0  0  0  0  0  0  0  0  0  0
    5.8815    0.9834    1.5306 O   0  0  0  0  0  0  0  0  0  0  0  0
    3.7753    0.6505    0.6540 N   0  0  0  0  0  0  0  0  0  0  0  0
    3.3344    2.0424    0.5999 C   0  0  0  0  0  0  0  0  0  0  0  0
    3.6799    2.7426   -0.7013 C   0  0  0  0  0  0  0  0  0  0  0  0
    2.7925    2.7025   -1.7878 C   0  0  0  0  0  0  0  0  0  0  0  0
    3.1169    3.3352   -2.9909 C   0  0  0  0  0  0  0  0  0  0  0  0
    4.3327    4.0136   -3.1216 C   0  0  0  0  0  0  0  0  0  0  0  0
    5.2240    4.0546   -2.0449 C   0  0  0  0  0  0  0  0  0  0  0  0
    4.8998    3.4220   -0.8416 C   0  0  0  0  0  0  0  0  0  0  0  0
    0.9551   -3.5838   -1.5885 H   0  0  0  0  0  0  0  0  0  0  0  0
   -1.4616   -3.7610   -0.9850 H   0  0  0  0  0  0  0  0  0  0  0  0
   -0.4767   -3.1033    3.1612 H   0  0  0  0  0  0  0  0  0  0  0  0
    1.9436   -2.9812    2.5699 H   0  0  0  0  0  0  0  0  0  0  0  0
    5.9242   -3.6285   -0.1787 H   0  0  0  0  0  0  0  0  0  0  0  0
    7.8878   -4.9760    0.4682 H   0  0  0  0  0  0  0  0  0  0  0  0
    8.9723   -2.0113    3.4030 H   0  0  0  0  0  0  0  0  0  0  0  0
    6.9984   -0.6508    2.7661 H   0  0  0  0  0  0  0  0  0  0  0  0
    3.8070    2.5564    1.4484 H   0  0  0  0  0  0  0  0  0  0  0  0
    2.2462    2.0350    0.7532 H   0  0  0  0  0  0  0  0  0  0  0  0
    1.8466    2.1636   -1.6880 H   0  0  0  0  0  0  0  0  0  0  0  0
    2.4165    3.2996   -3.8294 H   0  0  0  0  0  0  0  0  0  0  0  0
    4.5852    4.5108   -4.0619 H   0  0  0  0  0  0  0  0  0  0  0  0
    6.1761    4.5829   -2.1415 H   0  0  0  0  0  0  0  0  0  0  0  0
    5.6003    3.4458   -0.0027 H   0  0  0  0  0  0  0  0  0  0  0  0
  1  2  2  0
  2  3  1  0
  2 22  1  0
  3  4  2  0
  3 12  1  0
  4  5  1  0
  5  6  2  0
  5 11  1  0
  6  7  1  0
  6 30  1  0
  7  8  2  0
  7 31  1  0
  8  9  1  0
  8 10  1  0
 10 11  2  0
 10 32  1  0
 11 33  1  0
 12 13  1  0
 12 20  2  0
 13 14  2  0
 13 19  1  0
 14 15  1  0
 14 34  1  0
 15 16  2  0
 15 35  1  0
 16 17  1  0
 16 18  1  0
 18 19  2  0
 18 36  1  0
 19 37  1  0
 20 21  1  0
 20 22  1  0
 22 23  1  0
 23 24  1  0
 23 38  1  0
 23 39  1  0
 24 25  2  0
 24 29  1  0
 25 26  1  0
 25 40  1  0
 26 27  2  0
 26 41  1  0
 27 28  1  0
 27 42  1  0
 28 29  2  0
 28 43  1  0
 29 44  1  0
M  CHG  2   4   1  21  -1
M  END

