
     RDKit          3D

 48 51  0  0  0  0  0  0  0  0999 V2000
    1.1293    0.4767    2.2005 C   0  0  0  0  0  0  0  0  0  0  0  0
    2.5283    0.5402    2.3014 O   0  0  0  0  0  0  0  0  0  0  0  0
    3.1997   -0.4559    1.5856 C   0  0  0  0  0  0  0  0  0  0  0  0
    4.6977   -0.3440    1.8524 C   0  0  0  0  0  0  0  0  0  0  0  0
    5.0660   -0.5855    3.2448 N   0  0  0  0  0  0  0  0  0  0  0  0
    5.3401    0.4607    4.1075 C   0  0  0  0  0  0  0  0  0  0  0  0
    5.3571    1.6886    3.7176 N   0  0  0  0  0  0  0  0  0  0  0  0
    5.6495    2.6777    4.6560 C   0  0  0  0  0  0  0  0  0  0  0  0
    5.9070    2.4250    5.8344 O   0  0  0  0  0  0  0  0  0  0  0  0
    5.6275    4.0458    4.1375 C   0  0  0  0  0  0  0  0  0  0  0  0
    5.3013    4.4269    2.8466 C   0  0  0  0  0  0  0  0  0  0  0  0
    5.3828    5.7866    2.7340 N   0  0  0  0  0  0  0  0  0  0  0  0
    5.1878    6.3131    1.8927 H   0  0  0  0  0  0  0  0  0  0  0  0
    5.7649    6.3358    3.9492 C   0  0  0  0  0  0  0  0  0  0  0  0
    5.9771    7.6713    4.3130 C   0  0  0  0  0  0  0  0  0  0  0  0
    6.3603    7.9218    5.6288 C   0  0  0  0  0  0  0  0  0  0  0  0
    6.5264    6.8690    6.5545 C   0  0  0  0  0  0  0  0  0  0  0  0
    6.3147    5.5423    6.1889 C   0  0  0  0  0  0  0  0  0  0  0  0
    5.9279    5.2612    4.8656 C   0  0  0  0  0  0  0  0  0  0  0  0
    5.6777   -0.1521    5.7545 S   0  0  0  0  0  0  0  0  0  0  0  0
    5.4435   -1.8096    5.1880 C   0  0  0  0  0  0  0  0  0  0  0  0
    5.5468   -2.9836    5.9300 C   0  0  0  0  0  0  0  0  0  0  0  0
    5.3442   -4.2000    5.2690 C   0  0  0  0  0  0  0  0  0  0  0  0
    5.4639   -5.7322    6.2055 S   0  0  1  0  0  0  0  0  0  0  0  0
    7.2046   -6.2051    6.0780 C   0  0  0  0  0  0  0  0  0  0  0  0
    5.2058   -5.4190    7.6178 O   0  0  0  0  0  0  0  0  0  0  0  0
    4.6867   -6.7569    5.4934 O   0  0  0  0  0  0  0  0  0  0  0  0
    5.0217   -4.2566    3.9078 C   0  0  0  0  0  0  0  0  0  0  0  0
    4.9117   -3.0784    3.1684 C   0  0  0  0  0  0  0  0  0  0  0  0
    5.1244   -1.8505    3.8132 C   0  0  0  0  0  0  0  0  0  0  0  0
    0.7136    1.2921    2.8092 H   0  0  0  0  0  0  0  0  0  0  0  0
    0.7299   -0.4860    2.5785 H   0  0  0  0  0  0  0  0  0  0  0  0
    0.7822    0.6032    1.1546 H   0  0  0  0  0  0  0  0  0  0  0  0
    3.0371   -0.3507    0.4904 H   0  0  0  0  0  0  0  0  0  0  0  0
    2.8266   -1.4632    1.8667 H   0  0  0  0  0  0  0  0  0  0  0  0
    5.0361    0.6718    1.6134 H   0  0  0  0  0  0  0  0  0  0  0  0
    5.2420   -1.0559    1.2119 H   0  0  0  0  0  0  0  0  0  0  0  0
    5.0069    3.7984    2.0099 H   0  0  0  0  0  0  0  0  0  0  0  0
    5.8478    8.4861    3.5961 H   0  0  0  0  0  0  0  0  0  0  0  0
    6.5344    8.9521    5.9493 H   0  0  0  0  0  0  0  0  0  0  0  0
    6.8267    7.1042    7.5787 H   0  0  0  0  0  0  0  0  0  0  0  0
    6.4386    4.7229    6.8978 H   0  0  0  0  0  0  0  0  0  0  0  0
    5.7634   -2.9702    7.0001 H   0  0  0  0  0  0  0  0  0  0  0  0
    7.8285   -5.4214    6.5264 H   0  0  0  0  0  0  0  0  0  0  0  0
    7.4591   -6.3733    5.0238 H   0  0  0  0  0  0  0  0  0  0  0  0
    7.2872   -7.1400    6.6504 H   0  0  0  0  0  0  0  0  0  0  0  0
    4.8378   -5.2261    3.4415 H   0  0  0  0  0  0  0  0  0  0  0  0
    4.6543   -3.1253    2.1099 H   0  0  0  0  0  0  0  0  0  0  0  0
  1  2  1  0
  1 31  1  0
  1 32  1  0
  1 33  1  0
  2  3  1  0
  3  4  1  0
  3 34  1  0
  3 35  1  0
  4  5  1  0
  4 36  1  0
  4 37  1  0
  5  6  1  0
  5 30  1  0
  6  7  2  0
  6 20  1  0
  7  8  1  0
  8  9  2  0
  8 10  1  0
 10 11  2  0
 10 19  1  0
 11 12  1  0
 11 38  1  0
 12 13  1  0
 12 14  1  0
 14 15  1  0
 14 19  2  0
 15 16  2  0
 15 39  1  0
 16 17  1  0
 16 40  1  0
 17 18  2  0
 17 41  1  0
 18 19  1  0
 18 42  1  0
 20 21  1  0
 21 22  1  0
 21 30  2  0
 22 23  2  0
 22 43  1  0
 23 24  1  0
 23 28  1  0
 24 25  1  1
 24 26  2  0
 24 27  2  0
 25 44  1  0
 25 45  1  0
 25 46  1  0
 28 29  2  0
 28 47  1  0
 29 30  1  0
 29 48  1  0
M  END

