
     RDKit          3D

 70 73  0  0  0  0  0  0  0  0999 V2000
    4.1974   -4.8841    0.4230 C   0  0  0  0  0  0  0  0  0  0  0  0
    3.9919   -3.5538    1.1482 C   0  0  0  0  0  0  0  0  0  0  0  0
    5.2814   -2.9748    1.7396 C   0  0  0  0  0  0  0  0  0  0  0  0
    5.0746   -1.6430    2.4654 C   0  0  0  0  0  0  0  0  0  0  0  0
    6.3611   -1.0801    3.0476 C   0  0  0  0  0  0  0  0  0  0  0  0
    6.0559    0.1484    3.6929 O   0  0  0  0  0  0  0  0  0  0  0  0
    7.0373    0.8437    4.3020 C   0  0  0  0  0  0  0  0  0  0  0  0
    8.3897    0.4803    4.3634 C   0  0  0  0  0  0  0  0  0  0  0  0
    9.3160    1.2877    5.0318 C   0  0  0  0  0  0  0  0  0  0  0  0
    8.9347    2.4844    5.6581 C   0  0  0  0  0  0  0  0  0  0  0  0
    9.9205    3.3415    6.3620 C   0  0  0  0  0  0  0  0  0  0  0  0
    9.7850    4.7453    6.3803 C   0  0  0  0  0  0  0  0  0  0  0  0
   10.7103    5.5491    7.0382 C   0  0  0  0  0  0  0  0  0  0  0  0
   11.8068    4.9748    7.7015 C   0  0  0  0  0  0  0  0  0  0  0  0
   12.7651    5.8824    8.3871 C   0  0  0  0  0  0  0  0  0  0  0  0
   12.6764    7.0852    8.4205 O   0  0  0  0  0  0  0  0  0  0  0  0
   13.7657    5.1687    8.9772 O   0  0  0  0  0  0  0  0  0  0  0  0
   14.8178    5.6820    9.6953 C   0  0  0  0  0  0  0  0  0  0  0  0
   15.0957    7.0256    9.9638 C   0  0  0  0  0  0  0  0  0  0  0  0
   16.2251    7.3576   10.7217 C   0  0  0  0  0  0  0  0  0  0  0  0
   17.1072    6.4000   11.2424 C   0  0  0  0  0  0  0  0  0  0  0  0
   18.3664    6.6977   12.0529 C   0  0  1  0  0  0  0  0  0  0  0  0
   18.8140    8.1765   12.0656 C   0  0  0  0  0  0  0  0  0  0  0  0
   18.0468    9.0800   13.0488 C   0  0  0  0  0  0  0  0  0  0  0  0
   17.9766    8.5136   14.4822 C   0  0  2  0  0  0  0  0  0  0  0  0
   19.3072    8.6396   15.2388 C   0  0  0  0  0  0  0  0  0  0  0  0
   17.4496    7.0651   14.4305 C   0  0  0  0  0  0  0  0  0  0  0  0
   18.2797    6.1640   13.5094 C   0  0  0  0  0  0  0  0  0  0  0  0
   16.8064    5.0631   10.9382 C   0  0  0  0  0  0  0  0  0  0  0  0
   17.6157    4.0774   11.3583 F   0  0  0  0  0  0  0  0  0  0  0  0
   15.6907    4.6993   10.1895 C   0  0  0  0  0  0  0  0  0  0  0  0
   15.4597    3.4093    9.9342 F   0  0  0  0  0  0  0  0  0  0  0  0
   11.9556    3.5776    7.6931 C   0  0  0  0  0  0  0  0  0  0  0  0
   11.0247    2.7789    7.0345 C   0  0  0  0  0  0  0  0  0  0  0  0
    7.5731    2.8497    5.5908 C   0  0  0  0  0  0  0  0  0  0  0  0
    6.6578    2.0478    4.9331 C   0  0  0  0  0  0  0  0  0  0  0  0
    5.3690    2.4063    4.8947 F   0  0  0  0  0  0  0  0  0  0  0  0
    3.2513   -5.2699    0.0116 H   0  0  0  0  0  0  0  0  0  0  0  0
    4.6027   -5.6532    1.1019 H   0  0  0  0  0  0  0  0  0  0  0  0
    4.9061   -4.7791   -0.4157 H   0  0  0  0  0  0  0  0  0  0  0  0
    3.2501   -3.6833    1.9568 H   0  0  0  0  0  0  0  0  0  0  0  0
    3.5509   -2.8170    0.4528 H   0  0  0  0  0  0  0  0  0  0  0  0
    6.0243   -2.8441    0.9305 H   0  0  0  0  0  0  0  0  0  0  0  0
    5.7229   -3.7116    2.4366 H   0  0  0  0  0  0  0  0  0  0  0  0
    4.3442   -1.7637    3.2837 H   0  0  0  0  0  0  0  0  0  0  0  0
    4.6465   -0.8952    1.7759 H   0  0  0  0  0  0  0  0  0  0  0  0
    7.1101   -0.9116    2.2502 H   0  0  0  0  0  0  0  0  0  0  0  0
    6.8043   -1.7877    3.7742 H   0  0  0  0  0  0  0  0  0  0  0  0
    8.7329   -0.4346    3.8807 H   0  0  0  0  0  0  0  0  0  0  0  0
   10.3645    0.9838    5.0360 H   0  0  0  0  0  0  0  0  0  0  0  0
    8.9549    5.2147    5.8483 H   0  0  0  0  0  0  0  0  0  0  0  0
   10.6053    6.6357    7.0421 H   0  0  0  0  0  0  0  0  0  0  0  0
   14.4343    7.7971    9.5812 H   0  0  0  0  0  0  0  0  0  0  0  0
   16.4172    8.4148   10.9002 H   0  0  0  0  0  0  0  0  0  0  0  0
   19.1669    6.1209   11.5584 H   0  0  0  0  0  0  0  0  0  0  0  0
   18.7659    8.5988   11.0482 H   0  0  0  0  0  0  0  0  0  0  0  0
   19.8829    8.1876   12.3381 H   0  0  0  0  0  0  0  0  0  0  0  0
   17.0150    9.2347   12.6934 H   0  0  0  0  0  0  0  0  0  0  0  0
   18.5143   10.0798   13.0606 H   0  0  0  0  0  0  0  0  0  0  0  0
   17.2371    9.1173   15.0378 H   0  0  0  0  0  0  0  0  0  0  0  0
   20.1284    8.0889   14.7530 H   0  0  0  0  0  0  0  0  0  0  0  0
   19.2152    8.2499   16.2659 H   0  0  0  0  0  0  0  0  0  0  0  0
   19.6195    9.6943   15.3098 H   0  0  0  0  0  0  0  0  0  0  0  0
   16.4029    7.0790   14.0775 H   0  0  0  0  0  0  0  0  0  0  0  0
   17.4252    6.6350   15.4466 H   0  0  0  0  0  0  0  0  0  0  0  0
   17.8781    5.1402   13.5112 H   0  0  0  0  0  0  0  0  0  0  0  0
   19.3083    6.0834   13.9006 H   0  0  0  0  0  0  0  0  0  0  0  0
   12.7995    3.1250    8.2148 H   0  0  0  0  0  0  0  0  0  0  0  0
   11.1417    1.6937    7.0644 H   0  0  0  0  0  0  0  0  0  0  0  0
    7.1994    3.7530    6.0757 H   0  0  0  0  0  0  0  0  0  0  0  0
  1  2  1  0
  1 38  1  0
  1 39  1  0
  1 40  1  0
  2  3  1  0
  2 41  1  0
  2 42  1  0
  3  4  1  0
  3 43  1  0
  3 44  1  0
  4  5  1  0
  4 45  1  0
  4 46  1  0
  5  6  1  0
  5 47  1  0
  5 48  1  0
  6  7  1  0
  7  8  2  0
  7 36  1  0
  8  9  1  0
  8 49  1  0
  9 10  2  0
  9 50  1  0
 10 11  1  0
 10 35  1  0
 11 12  2  0
 11 34  1  0
 12 13  1  0
 12 51  1  0
 13 14  2  0
 13 52  1  0
 14 15  1  0
 14 33  1  0
 15 16  2  0
 15 17  1  0
 17 18  1  0
 18 19  2  0
 18 31  1  0
 19 20  1  0
 19 53  1  0
 20 21  2  0
 20 54  1  0
 21 22  1  0
 21 29  1  0
 22 23  1  0
 22 28  1  0
 22 55  1  6
 23 24  1  0
 23 56  1  0
 23 57  1  0
 24 25  1  0
 24 58  1  0
 24 59  1  0
 25 26  1  0
 25 27  1  0
 25 60  1  1
 26 61  1  0
 26 62  1  0
 26 63  1  0
 27 28  1  0
 27 64  1  0
 27 65  1  0
 28 66  1  0
 28 67  1  0
 29 30  1  0
 29 31  2  0
 31 32  1  0
 33 34  2  0
 33 68  1  0
 34 69  1  0
 35 36  2  0
 35 70  1  0
 36 37  1  0
M  END

