
     RDKit          3D

 73 78  0  0  0  0  0  0  0  0999 V2000
    1.0903    2.1682   -2.7495 C   0  0  0  0  0  0  0  0  0  0  0  0
    2.6181    2.2383   -2.5754 C   0  0  1  0  0  0  0  0  0  0  0  0
    3.2052    0.8390   -2.8723 C   0  0  0  0  0  0  0  0  0  0  0  0
    3.1760    3.2579   -3.5951 C   0  0  0  0  0  0  0  0  0  0  0  0
    3.0157    2.6674   -1.1515 C   0  0  0  0  0  0  0  0  0  0  0  0
    2.0944    2.9496   -0.1370 C   0  0  0  0  0  0  0  0  0  0  0  0
    2.5144    3.3280    1.1391 C   0  0  0  0  0  0  0  0  0  0  0  0
    3.8646    3.4583    1.5113 C   0  0  0  0  0  0  0  0  0  0  0  0
    4.2066    3.9484    2.9439 C   0  0  1  0  0  0  0  0  0  0  0  0
    3.0735    3.5925    3.9357 C   0  0  0  0  0  0  0  0  0  0  0  0
    5.4951    3.3200    3.5234 C   0  0  0  0  0  0  0  0  0  0  0  0
    4.3519    5.4894    2.9133 C   0  0  0  0  0  0  0  0  0  0  0  0
    4.7877    3.1790    0.4763 C   0  0  0  0  0  0  0  0  0  0  0  0
    6.2315    3.2527    0.6319 N   0  0  0  0  0  0  0  0  0  0  0  0
    6.9083    2.0499    0.9182 C   0  0  0  0  0  0  0  0  0  0  0  0
    6.2933    1.0199    1.1092 O   0  0  0  0  0  0  0  0  0  0  0  0
    8.3945    2.1166    0.9892 C   0  0  0  0  0  0  0  0  0  0  0  0
    9.0973    0.9721    1.3311 C   0  0  0  0  0  0  0  0  0  0  0  0
   10.5024    1.0105    1.4255 C   0  0  0  0  0  0  0  0  0  0  0  0
   11.1945    2.1773    1.1554 C   0  0  0  0  0  0  0  0  0  0  0  0
   10.5174    3.3677    0.7695 C   0  0  0  0  0  0  0  0  0  0  0  0
   11.1883    4.6085    0.4686 C   0  0  0  0  0  0  0  0  0  0  0  0
   12.6539    4.7634    0.4633 C   0  0  0  0  0  0  0  0  0  0  0  0
   13.3785    5.8045    1.0119 C   0  0  0  0  0  0  0  0  0  0  0  0
   14.7736    5.7262    0.7632 C   0  0  0  0  0  0  0  0  0  0  0  0
   15.1417    4.6291    0.0073 C   0  0  0  0  0  0  0  0  0  0  0  0
   16.4827    4.2308   -0.4449 C   0  0  0  0  0  0  0  0  0  0  0  0
   16.7839    2.8946   -0.7769 C   0  0  0  0  0  0  0  0  0  0  0  0
   18.0628    2.5311   -1.2002 C   0  0  0  0  0  0  0  0  0  0  0  0
   19.0744    3.4913   -1.2951 C   0  0  0  0  0  0  0  0  0  0  0  0
   18.7914    4.8216   -0.9678 C   0  0  0  0  0  0  0  0  0  0  0  0
   17.5115    5.1892   -0.5533 C   0  0  0  0  0  0  0  0  0  0  0  0
   13.7292    3.6860   -0.4033 S   0  0  0  0  0  0  0  0  0  0  0  0
   10.4155    5.7340    0.1779 C   0  0  0  0  0  0  0  0  0  0  0  0
    9.0115    5.6864    0.1489 C   0  0  0  0  0  0  0  0  0  0  0  0
    8.3439    4.4988    0.4003 C   0  0  0  0  0  0  0  0  0  0  0  0
    9.0837    3.3289    0.7147 C   0  0  0  0  0  0  0  0  0  0  0  0
    6.8587    4.4749    0.3300 C   0  0  0  0  0  0  0  0  0  0  0  0
    6.2048    5.4590    0.0393 O   0  0  0  0  0  0  0  0  0  0  0  0
    4.3644    2.7955   -0.7997 C   0  0  0  0  0  0  0  0  0  0  0  0
    0.8456    1.8600   -3.7783 H   0  0  0  0  0  0  0  0  0  0  0  0
    0.6118    3.1446   -2.5743 H   0  0  0  0  0  0  0  0  0  0  0  0
    0.6324    1.4350   -2.0672 H   0  0  0  0  0  0  0  0  0  0  0  0
    2.9337    0.5154   -3.8908 H   0  0  0  0  0  0  0  0  0  0  0  0
    2.8207    0.0905   -2.1616 H   0  0  0  0  0  0  0  0  0  0  0  0
    4.3035    0.8310   -2.8011 H   0  0  0  0  0  0  0  0  0  0  0  0
    2.9020    2.9645   -4.6221 H   0  0  0  0  0  0  0  0  0  0  0  0
    4.2736    3.3260   -3.5500 H   0  0  0  0  0  0  0  0  0  0  0  0
    2.7719    4.2654   -3.4081 H   0  0  0  0  0  0  0  0  0  0  0  0
    1.0223    2.8770   -0.3222 H   0  0  0  0  0  0  0  0  0  0  0  0
    1.7386    3.5330    1.8748 H   0  0  0  0  0  0  0  0  0  0  0  0
    2.8683    2.5103    3.9475 H   0  0  0  0  0  0  0  0  0  0  0  0
    2.1331    4.1188    3.7182 H   0  0  0  0  0  0  0  0  0  0  0  0
    3.3738    3.8907    4.9522 H   0  0  0  0  0  0  0  0  0  0  0  0
    5.4931    2.2249    3.4191 H   0  0  0  0  0  0  0  0  0  0  0  0
    5.5642    3.5593    4.5963 H   0  0  0  0  0  0  0  0  0  0  0  0
    6.4060    3.7112    3.0546 H   0  0  0  0  0  0  0  0  0  0  0  0
    3.4072    5.9637    2.6032 H   0  0  0  0  0  0  0  0  0  0  0  0
    5.1269    5.8122    2.2046 H   0  0  0  0  0  0  0  0  0  0  0  0
    4.6102    5.8692    3.9164 H   0  0  0  0  0  0  0  0  0  0  0  0
    8.5359    0.0584    1.5349 H   0  0  0  0  0  0  0  0  0  0  0  0
   11.0498    0.1128    1.7220 H   0  0  0  0  0  0  0  0  0  0  0  0
   12.2802    2.1871    1.2495 H   0  0  0  0  0  0  0  0  0  0  0  0
   12.9127    6.5920    1.6064 H   0  0  0  0  0  0  0  0  0  0  0  0
   15.4943    6.4435    1.1572 H   0  0  0  0  0  0  0  0  0  0  0  0
   16.0104    2.1277   -0.6866 H   0  0  0  0  0  0  0  0  0  0  0  0
   18.2717    1.4878   -1.4502 H   0  0  0  0  0  0  0  0  0  0  0  0
   20.0765    3.2058   -1.6241 H   0  0  0  0  0  0  0  0  0  0  0  0
   19.5718    5.5828   -1.0465 H   0  0  0  0  0  0  0  0  0  0  0  0
   17.2994    6.2367   -0.3293 H   0  0  0  0  0  0  0  0  0  0  0  0
   10.9210    6.6699   -0.0671 H   0  0  0  0  0  0  0  0  0  0  0  0
    8.4239    6.5742   -0.0923 H   0  0  0  0  0  0  0  0  0  0  0  0
    5.1432    2.5918   -1.5371 H   0  0  0  0  0  0  0  0  0  0  0  0
  2  1  1  1
  1 41  1  0
  1 42  1  0
  1 43  1  0
  2  3  1  0
  2  4  1  0
  2  5  1  0
  3 44  1  0
  3 45  1  0
  3 46  1  0
  4 47  1  0
  4 48  1  0
  4 49  1  0
  5  6  2  0
  5 40  1  0
  6  7  1  0
  6 50  1  0
  7  8  2  0
  7 51  1  0
  8  9  1  0
  8 13  1  0
  9 10  1  1
  9 11  1  0
  9 12  1  0
 10 52  1  0
 10 53  1  0
 10 54  1  0
 11 55  1  0
 11 56  1  0
 11 57  1  0
 12 58  1  0
 12 59  1  0
 12 60  1  0
 13 14  1  0
 13 40  2  0
 14 15  1  0
 14 38  1  0
 15 16  2  0
 15 17  1  0
 17 18  2  0
 17 37  1  0
 18 19  1  0
 18 61  1  0
 19 20  2  0
 19 62  1  0
 20 21  1  0
 20 63  1  0
 21 22  1  0
 21 37  2  0
 22 23  2  0
 22 34  1  0
 23 24  1  0
 23 33  1  0
 24 25  2  0
 24 64  1  0
 25 26  1  0
 25 65  1  0
 26 27  1  0
 26 33  2  0
 27 28  2  0
 27 32  1  0
 28 29  1  0
 28 66  1  0
 29 30  2  0
 29 67  1  0
 30 31  1  0
 30 68  1  0
 31 32  2  0
 31 69  1  0
 32 70  1  0
 34 35  2  0
 34 71  1  0
 35 36  1  0
 35 72  1  0
 36 37  1  0
 36 38  2  0
 38 39  1  0
 40 73  1  0
M  CHG  2  33   1  39  -1
M  END

