
     RDKit          3D

 35 36  0  0  0  0  0  0  0  0999 V2000
    5.4229   -0.3533    0.3893 C   0  0  0  0  0  0  0  0  0  0  0  0
    3.9488   -0.4901   -0.0244 C   0  0  0  0  0  0  0  0  0  0  0  0
    3.6565    0.0977   -1.3873 C   0  0  0  0  0  0  0  0  0  0  0  0
    3.7501   -0.6839   -2.5488 C   0  0  0  0  0  0  0  0  0  0  0  0
    3.5276   -0.1337   -3.8135 C   0  0  0  0  0  0  0  0  0  0  0  0
    3.1960    1.2248   -3.9512 C   0  0  0  0  0  0  0  0  0  0  0  0
    2.8727    1.8796   -5.2666 C   0  0  0  0  0  0  0  0  0  0  0  0
    2.0877    2.8156   -5.3060 O   0  0  0  0  0  0  0  0  0  0  0  0
    3.5060    1.4230   -6.5304 C   0  0  0  0  0  0  0  0  0  0  0  0
    4.6832    0.7758   -6.6356 C   0  0  0  0  0  0  0  0  0  0  0  0
    5.4515    0.4551   -8.1864 S   0  0  0  0  0  0  0  0  0  0  0  0
    6.7823   -0.6393   -7.7169 C   0  0  0  0  0  0  0  0  0  0  0  0
    6.5514   -1.9401   -7.2156 C   0  0  0  0  0  0  0  0  0  0  0  0
    4.9251   -2.5316   -6.9833 Cl  0  0  0  0  0  0  0  0  0  0  0  0
    7.6056   -2.8005   -6.8984 C   0  0  0  0  0  0  0  0  0  0  0  0
    8.9205   -2.3824   -7.1024 C   0  0  0  0  0  0  0  0  0  0  0  0
    9.1861   -1.1139   -7.6158 C   0  0  0  0  0  0  0  0  0  0  0  0
    8.1263   -0.2530   -7.9179 C   0  0  0  0  0  0  0  0  0  0  0  0
    8.5147    1.3234   -8.5508 Cl  0  0  0  0  0  0  0  0  0  0  0  0
    3.0722    2.0046   -2.7878 C   0  0  0  0  0  0  0  0  0  0  0  0
    3.3113    1.4532   -1.5319 C   0  0  0  0  0  0  0  0  0  0  0  0
    5.5953   -0.7899    1.3862 H   0  0  0  0  0  0  0  0  0  0  0  0
    5.7298    0.7043    0.4242 H   0  0  0  0  0  0  0  0  0  0  0  0
    6.0857   -0.8667   -0.3257 H   0  0  0  0  0  0  0  0  0  0  0  0
    3.3132    0.0042    0.7294 H   0  0  0  0  0  0  0  0  0  0  0  0
    3.6670   -1.5564   -0.0187 H   0  0  0  0  0  0  0  0  0  0  0  0
    3.9902   -1.7479   -2.4631 H   0  0  0  0  0  0  0  0  0  0  0  0
    3.5825   -0.7797   -4.6914 H   0  0  0  0  0  0  0  0  0  0  0  0
    2.9799    1.7716   -7.4255 H   0  0  0  0  0  0  0  0  0  0  0  0
    5.2532    0.4681   -5.7557 H   0  0  0  0  0  0  0  0  0  0  0  0
    7.3834   -3.7938   -6.5066 H   0  0  0  0  0  0  0  0  0  0  0  0
    9.7471   -3.0548   -6.8619 H   0  0  0  0  0  0  0  0  0  0  0  0
   10.2093   -0.7755   -7.7826 H   0  0  0  0  0  0  0  0  0  0  0  0
    2.7773    3.0504   -2.8944 H   0  0  0  0  0  0  0  0  0  0  0  0
    3.2172    2.0813   -0.6408 H   0  0  0  0  0  0  0  0  0  0  0  0
  1  2  1  0
  1 22  1  0
  1 23  1  0
  1 24  1  0
  2  3  1  0
  2 25  1  0
  2 26  1  0
  3  4  2  0
  3 21  1  0
  4  5  1  0
  4 27  1  0
  5  6  2  0
  5 28  1  0
  6  7  1  0
  6 20  1  0
  7  8  2  0
  7  9  1  0
  9 10  2  0
  9 29  1  0
 10 11  1  0
 10 30  1  0
 11 12  1  0
 12 13  2  0
 12 18  1  0
 13 14  1  0
 13 15  1  0
 15 16  2  0
 15 31  1  0
 16 17  1  0
 16 32  1  0
 17 18  2  0
 17 33  1  0
 18 19  1  0
 20 21  2  0
 20 34  1  0
 21 35  1  0
M  END

