
     RDKit          3D

 45 44  0  0  0  0  0  0  0  0999 V2000
    1.2564   -1.1209    0.1104 C   0  0  0  0  0  0  0  0  0  0  0  0
    2.7437   -1.1436   -0.0840 C   0  0  0  0  0  0  0  0  0  0  0  0
    3.6562   -1.1306    0.8954 C   0  0  0  0  0  0  0  0  0  0  0  0
    5.1483   -1.1395    0.7011 C   0  0  0  0  0  0  0  0  0  0  0  0
    5.8384   -2.3457    1.3686 C   0  0  1  0  0  0  0  0  0  0  0  0
    5.5291   -3.6936    0.7239 C   0  0  0  0  0  0  0  0  0  0  0  0
    5.5809   -4.7425    1.3209 O   0  0  0  0  0  0  0  0  0  0  0  0
    5.2465   -3.6008   -0.5897 O   0  0  0  0  0  0  0  0  0  0  0  0
    4.9685   -4.8216   -1.2983 C   0  0  0  0  0  0  0  0  0  0  0  0
    3.5053   -5.2323   -1.1816 C   0  0  0  0  0  0  0  0  0  0  0  0
    3.1927   -6.4825   -2.0052 C   0  0  0  0  0  0  0  0  0  0  0  0
    7.3882   -2.2003    1.4940 C   0  0  1  0  0  0  0  0  0  0  0  0
    8.1249   -2.0245    0.1654 C   0  0  0  0  0  0  0  0  0  0  0  0
    7.7459   -1.0761    2.4628 C   0  0  0  0  0  0  0  0  0  0  0  0
    8.4613   -0.1387    2.2033 O   0  0  0  0  0  0  0  0  0  0  0  0
    7.1781   -1.2670    3.6704 O   0  0  0  0  0  0  0  0  0  0  0  0
    7.4513   -0.3017    4.7007 C   0  0  0  0  0  0  0  0  0  0  0  0
    6.4815    0.8734    4.6559 C   0  0  0  0  0  0  0  0  0  0  0  0
    6.7132    1.8557    5.8050 C   0  0  0  0  0  0  0  0  0  0  0  0
    0.8023   -0.2391   -0.3757 H   0  0  0  0  0  0  0  0  0  0  0  0
    0.9833   -1.1000    1.1769 H   0  0  0  0  0  0  0  0  0  0  0  0
    0.7793   -2.0060   -0.3467 H   0  0  0  0  0  0  0  0  0  0  0  0
    3.0976   -1.1717   -1.1234 H   0  0  0  0  0  0  0  0  0  0  0  0
    3.3098   -1.1085    1.9387 H   0  0  0  0  0  0  0  0  0  0  0  0
    5.5700   -0.2209    1.1496 H   0  0  0  0  0  0  0  0  0  0  0  0
    5.3899   -1.1073   -0.3708 H   0  0  0  0  0  0  0  0  0  0  0  0
    5.4637   -2.4489    2.3975 H   0  0  0  0  0  0  0  0  0  0  0  0
    5.6260   -5.6166   -0.9145 H   0  0  0  0  0  0  0  0  0  0  0  0
    5.2350   -4.6078   -2.3445 H   0  0  0  0  0  0  0  0  0  0  0  0
    2.8731   -4.3893   -1.5086 H   0  0  0  0  0  0  0  0  0  0  0  0
    3.2745   -5.4128   -0.1193 H   0  0  0  0  0  0  0  0  0  0  0  0
    3.3986   -6.3251   -3.0775 H   0  0  0  0  0  0  0  0  0  0  0  0
    2.1327   -6.7642   -1.9100 H   0  0  0  0  0  0  0  0  0  0  0  0
    3.7950   -7.3447   -1.6741 H   0  0  0  0  0  0  0  0  0  0  0  0
    7.7308   -3.1273    1.9864 H   0  0  0  0  0  0  0  0  0  0  0  0
    7.8637   -1.0711   -0.3163 H   0  0  0  0  0  0  0  0  0  0  0  0
    7.8829   -2.8416   -0.5294 H   0  0  0  0  0  0  0  0  0  0  0  0
    9.2124   -2.0157    0.3266 H   0  0  0  0  0  0  0  0  0  0  0  0
    8.4898    0.0482    4.5979 H   0  0  0  0  0  0  0  0  0  0  0  0
    7.3515   -0.8588    5.6446 H   0  0  0  0  0  0  0  0  0  0  0  0
    5.4496    0.4834    4.6894 H   0  0  0  0  0  0  0  0  0  0  0  0
    6.5995    1.3907    3.6896 H   0  0  0  0  0  0  0  0  0  0  0  0
    6.5858    1.3691    6.7866 H   0  0  0  0  0  0  0  0  0  0  0  0
    6.0029    2.6953    5.7572 H   0  0  0  0  0  0  0  0  0  0  0  0
    7.7304    2.2802    5.7735 H   0  0  0  0  0  0  0  0  0  0  0  0
  1  2  1  0
  1 20  1  0
  1 21  1  0
  1 22  1  0
  2  3  2  0
  2 23  1  0
  3  4  1  0
  3 24  1  0
  4  5  1  0
  4 25  1  0
  4 26  1  0
  5  6  1  0
  5 12  1  0
  5 27  1  1
  6  7  2  0
  6  8  1  0
  8  9  1  0
  9 10  1  0
  9 28  1  0
  9 29  1  0
 10 11  1  0
 10 30  1  0
 10 31  1  0
 11 32  1  0
 11 33  1  0
 11 34  1  0
 12 13  1  0
 12 14  1  0
 12 35  1  1
 13 36  1  0
 13 37  1  0
 13 38  1  0
 14 15  2  0
 14 16  1  0
 16 17  1  0
 17 18  1  0
 17 39  1  0
 17 40  1  0
 18 19  1  0
 18 41  1  0
 18 42  1  0
 19 43  1  0
 19 44  1  0
 19 45  1  0
M  END

