
     RDKit          3D

 57 60  0  0  0  0  0  0  0  0999 V2000
    0.9230   -0.3682    0.2935 C   0  0  0  0  0  0  0  0  0  0  0  0
    2.4171   -0.6956    0.1566 C   0  0  1  0  0  0  0  0  0  0  0  0
    2.6796   -1.9695   -0.6707 C   0  0  0  0  0  0  0  0  0  0  0  0
    2.4595   -1.7591   -2.1715 C   0  0  0  0  0  0  0  0  0  0  0  0
    3.2436   -0.6287   -2.6728 N   0  0  0  0  0  0  0  0  0  0  0  0
    3.9542   -0.7235   -3.8460 C   0  0  0  0  0  0  0  0  0  0  0  0
    4.6035    0.3901   -4.4567 C   0  0  0  0  0  0  0  0  0  0  0  0
    5.3090    0.1946   -5.6279 C   0  0  0  0  0  0  0  0  0  0  0  0
    5.3768   -1.0804   -6.2243 C   0  0  0  0  0  0  0  0  0  0  0  0
    6.1646   -1.2277   -7.4874 C   0  0  0  0  0  0  0  0  0  0  0  0
    6.9091   -0.3389   -7.8747 O   0  0  0  0  0  0  0  0  0  0  0  0
    5.9682   -2.4146   -8.1683 N   0  0  0  0  0  0  0  0  0  0  0  0
    6.5895   -2.8846   -9.3389 C   0  0  0  0  0  0  0  0  0  0  0  0
    7.5869   -2.1529  -10.0121 C   0  0  0  0  0  0  0  0  0  0  0  0
    8.2000   -2.6843  -11.1466 C   0  0  0  0  0  0  0  0  0  0  0  0
    7.8542   -3.9506  -11.6267 C   0  0  0  0  0  0  0  0  0  0  0  0
    6.8751   -4.6829  -10.9574 C   0  0  0  0  0  0  0  0  0  0  0  0
    6.2137   -4.1591   -9.8383 C   0  0  0  0  0  0  0  0  0  0  0  0
    5.2133   -5.0563   -9.1503 C   0  0  0  0  0  0  0  0  0  0  0  0
    5.5157   -6.1867   -8.8000 O   0  0  0  0  0  0  0  0  0  0  0  0
    3.9537   -4.5365   -8.9237 N   0  0  0  0  0  0  0  0  0  0  0  0
    2.9274   -5.3980   -8.3022 C   0  0  0  0  0  0  0  0  0  0  0  0
    1.6088   -4.9249   -8.9258 C   0  0  0  0  0  0  0  0  0  0  0  0
    1.8813   -3.4501   -9.2503 C   0  0  0  0  0  0  0  0  0  0  0  0
    3.3354   -3.4634   -9.7327 C   0  0  0  0  0  0  0  0  0  0  0  0
    4.7144   -2.1088   -5.5397 C   0  0  0  0  0  0  0  0  0  0  0  0
    4.0326   -1.9436   -4.4133 N   0  0  0  0  0  0  0  0  0  0  0  0
    3.0092    0.6238   -1.9651 C   0  0  0  0  0  0  0  0  0  0  0  0
    3.2301    0.4619   -0.4544 C   0  0  0  0  0  0  0  0  0  0  0  0
    0.3809   -1.2016    0.7690 H   0  0  0  0  0  0  0  0  0  0  0  0
    0.4378   -0.1756   -0.6768 H   0  0  0  0  0  0  0  0  0  0  0  0
    0.7717    0.5270    0.9184 H   0  0  0  0  0  0  0  0  0  0  0  0
    2.8035   -0.8702    1.1760 H   0  0  0  0  0  0  0  0  0  0  0  0
    2.0337   -2.7942   -0.3248 H   0  0  0  0  0  0  0  0  0  0  0  0
    3.7228   -2.2939   -0.5147 H   0  0  0  0  0  0  0  0  0  0  0  0
    1.3866   -1.5740   -2.3800 H   0  0  0  0  0  0  0  0  0  0  0  0
    2.7523   -2.6467   -2.7414 H   0  0  0  0  0  0  0  0  0  0  0  0
    4.5546    1.3891   -4.0274 H   0  0  0  0  0  0  0  0  0  0  0  0
    5.8254    1.0230   -6.1175 H   0  0  0  0  0  0  0  0  0  0  0  0
    5.2572   -3.0339   -7.7946 H   0  0  0  0  0  0  0  0  0  0  0  0
    7.8675   -1.1767   -9.6251 H   0  0  0  0  0  0  0  0  0  0  0  0
    8.9694   -2.0970  -11.6547 H   0  0  0  0  0  0  0  0  0  0  0  0
    8.3488   -4.3675  -12.5069 H   0  0  0  0  0  0  0  0  0  0  0  0
    6.6049   -5.6863  -11.2941 H   0  0  0  0  0  0  0  0  0  0  0  0
    2.9310   -5.2592   -7.2063 H   0  0  0  0  0  0  0  0  0  0  0  0
    3.1645   -6.4533   -8.4960 H   0  0  0  0  0  0  0  0  0  0  0  0
    0.7479   -5.0737   -8.2575 H   0  0  0  0  0  0  0  0  0  0  0  0
    1.4083   -5.4840   -9.8553 H   0  0  0  0  0  0  0  0  0  0  0  0
    1.7936   -2.8366   -8.3377 H   0  0  0  0  0  0  0  0  0  0  0  0
    1.1973   -3.0283  -10.0017 H   0  0  0  0  0  0  0  0  0  0  0  0
    3.8370   -2.4969   -9.5858 H   0  0  0  0  0  0  0  0  0  0  0  0
    3.3950   -3.7085  -10.8083 H   0  0  0  0  0  0  0  0  0  0  0  0
    4.7477   -3.1439   -5.9050 H   0  0  0  0  0  0  0  0  0  0  0  0
    1.9779    0.9779   -2.1667 H   0  0  0  0  0  0  0  0  0  0  0  0
    3.6836    1.4014   -2.3390 H   0  0  0  0  0  0  0  0  0  0  0  0
    2.9861    1.4141    0.0466 H   0  0  0  0  0  0  0  0  0  0  0  0
    4.3044    0.2758   -0.2838 H   0  0  0  0  0  0  0  0  0  0  0  0
  1  2  1  0
  1 30  1  0
  1 31  1  0
  1 32  1  0
  2  3  1  0
  2 29  1  0
  2 33  1  1
  3  4  1  0
  3 34  1  0
  3 35  1  0
  4  5  1  0
  4 36  1  0
  4 37  1  0
  5  6  1  0
  5 28  1  0
  6  7  2  0
  6 27  1  0
  7  8  1  0
  7 38  1  0
  8  9  2  0
  8 39  1  0
  9 10  1  0
  9 26  1  0
 10 11  2  0
 10 12  1  0
 12 13  1  0
 12 40  1  0
 13 14  2  0
 13 18  1  0
 14 15  1  0
 14 41  1  0
 15 16  2  0
 15 42  1  0
 16 17  1  0
 16 43  1  0
 17 18  2  0
 17 44  1  0
 18 19  1  0
 19 20  2  0
 19 21  1  0
 21 22  1  0
 21 25  1  0
 22 23  1  0
 22 45  1  0
 22 46  1  0
 23 24  1  0
 23 47  1  0
 23 48  1  0
 24 25  1  0
 24 49  1  0
 24 50  1  0
 25 51  1  0
 25 52  1  0
 26 27  2  0
 26 53  1  0
 28 29  1  0
 28 54  1  0
 28 55  1  0
 29 56  1  0
 29 57  1  0
M  END

