
     RDKit          3D

 48 50  0  0  0  0  0  0  0  0999 V2000
    1.4804    1.1749    1.0658 C   0  0  0  0  0  0  0  0  0  0  0  0
    2.7390    0.6432    0.6141 N   0  0  0  0  0  0  0  0  0  0  0  0
    2.9106   -0.6234    0.5557 C   0  0  0  0  0  0  0  0  0  0  0  0
    1.9124   -1.5616    0.8697 N   0  0  0  0  0  0  0  0  0  0  0  0
    2.0455   -3.0008    0.7774 C   0  0  0  0  0  0  0  0  0  0  0  0
    1.1818   -3.7777    1.7862 C   0  0  0  0  0  0  0  0  0  0  0  0
    0.8632   -4.9304    1.5643 O   0  0  0  0  0  0  0  0  0  0  0  0
    0.8755   -3.0697    2.9171 N   0  0  0  0  0  0  0  0  0  0  0  0
    0.1543   -3.4885    4.0459 C   0  0  0  0  0  0  0  0  0  0  0  0
   -0.4028   -4.7689    4.1954 C   0  0  0  0  0  0  0  0  0  0  0  0
   -1.0974   -5.0456    5.3736 C   0  0  0  0  0  0  0  0  0  0  0  0
   -1.2161   -4.0568    6.3537 C   0  0  0  0  0  0  0  0  0  0  0  0
   -0.6861   -2.8379    6.2142 N   0  0  0  0  0  0  0  0  0  0  0  0
   -0.0235   -2.5662    5.0966 C   0  0  0  0  0  0  0  0  0  0  0  0
    4.1504   -1.1618    0.2331 N   0  0  0  0  0  0  0  0  0  0  0  0
    5.2666   -0.2942   -0.1120 C   0  0  0  0  0  0  0  0  0  0  0  0
    6.3461   -0.1630    0.9764 C   0  0  1  0  0  0  0  0  0  0  0  0
    7.4386    0.7888    0.5611 C   0  0  0  0  0  0  0  0  0  0  0  0
    7.2434    2.1769    0.6608 C   0  0  0  0  0  0  0  0  0  0  0  0
    8.2292    3.0667    0.2293 C   0  0  0  0  0  0  0  0  0  0  0  0
    9.4278    2.5940   -0.3134 C   0  0  0  0  0  0  0  0  0  0  0  0
    9.6182    1.2143   -0.4173 C   0  0  0  0  0  0  0  0  0  0  0  0
   11.1121    0.5974   -1.0940 Cl  0  0  0  0  0  0  0  0  0  0  0  0
    8.6382    0.3142    0.0106 C   0  0  0  0  0  0  0  0  0  0  0  0
    5.9359   -0.2079    2.4272 C   0  0  0  0  0  0  0  0  0  0  0  0
    6.6915   -1.3652    1.8202 C   0  0  0  0  0  0  0  0  0  0  0  0
    1.5412    2.2713    1.1447 H   0  0  0  0  0  0  0  0  0  0  0  0
    1.1738    0.7923    2.0626 H   0  0  0  0  0  0  0  0  0  0  0  0
    0.6385    0.9609    0.3706 H   0  0  0  0  0  0  0  0  0  0  0  0
    0.9768   -1.2115    0.6866 H   0  0  0  0  0  0  0  0  0  0  0  0
    3.0876   -3.2772    1.0026 H   0  0  0  0  0  0  0  0  0  0  0  0
    1.8013   -3.4218   -0.2150 H   0  0  0  0  0  0  0  0  0  0  0  0
    1.2318   -2.1164    2.9285 H   0  0  0  0  0  0  0  0  0  0  0  0
   -0.2845   -5.5081    3.4056 H   0  0  0  0  0  0  0  0  0  0  0  0
   -1.5453   -6.0302    5.5281 H   0  0  0  0  0  0  0  0  0  0  0  0
   -1.7582   -4.2553    7.2852 H   0  0  0  0  0  0  0  0  0  0  0  0
    0.4044   -1.5576    5.0063 H   0  0  0  0  0  0  0  0  0  0  0  0
    4.1323   -2.0532   -0.2447 H   0  0  0  0  0  0  0  0  0  0  0  0
    4.8656    0.7043   -0.3390 H   0  0  0  0  0  0  0  0  0  0  0  0
    5.7430   -0.6814   -1.0283 H   0  0  0  0  0  0  0  0  0  0  0  0
    6.3108    2.5559    1.0866 H   0  0  0  0  0  0  0  0  0  0  0  0
    8.0684    4.1443    0.3172 H   0  0  0  0  0  0  0  0  0  0  0  0
   10.2068    3.2797   -0.6504 H   0  0  0  0  0  0  0  0  0  0  0  0
    8.8162   -0.7586   -0.0823 H   0  0  0  0  0  0  0  0  0  0  0  0
    4.8756   -0.3462    2.6513 H   0  0  0  0  0  0  0  0  0  0  0  0
    6.4684    0.4421    3.1271 H   0  0  0  0  0  0  0  0  0  0  0  0
    6.1356   -2.2893    1.6378 H   0  0  0  0  0  0  0  0  0  0  0  0
    7.7340   -1.5128    2.1155 H   0  0  0  0  0  0  0  0  0  0  0  0
  1  2  1  0
  1 27  1  0
  1 28  1  0
  1 29  1  0
  2  3  2  0
  3  4  1  0
  3 15  1  0
  4  5  1  0
  4 30  1  0
  5  6  1  0
  5 31  1  0
  5 32  1  0
  6  7  2  0
  6  8  1  0
  8  9  1  0
  8 33  1  0
  9 10  2  0
  9 14  1  0
 10 11  1  0
 10 34  1  0
 11 12  2  0
 11 35  1  0
 12 13  1  0
 12 36  1  0
 13 14  2  0
 14 37  1  0
 15 16  1  0
 15 38  1  0
 17 16  1  6
 16 39  1  0
 16 40  1  0
 17 18  1  0
 17 25  1  0
 17 26  1  0
 18 19  2  0
 18 24  1  0
 19 20  1  0
 19 41  1  0
 20 21  2  0
 20 42  1  0
 21 22  1  0
 21 43  1  0
 22 23  1  0
 22 24  2  0
 24 44  1  0
 25 26  1  0
 25 45  1  0
 25 46  1  0
 26 47  1  0
 26 48  1  0
M  END

