
     RDKit          3D

 42 43  0  0  0  0  0  0  0  0999 V2000
    5.8810    0.1490   -4.8382 C   0  0  0  0  0  0  0  0  0  0  0  0
    4.7835    0.0880   -3.7824 C   0  0  1  0  0  0  0  0  0  0  0  0
    3.3816    0.1400   -4.3951 C   0  0  0  0  0  0  0  0  0  0  0  0
    4.9953   -1.1085   -3.0465 O   0  0  0  0  0  0  0  0  0  0  0  0
    4.3877   -1.1906   -1.7844 C   0  0  0  0  0  0  0  0  0  0  0  0
    4.8953   -2.4418   -1.0704 C   0  0  0  0  0  0  0  0  0  0  0  0
    6.3378   -2.4611   -0.8844 N   0  0  0  0  0  0  0  0  0  0  0  0
    6.9001   -1.4555   -0.0080 C   0  0  0  0  0  0  0  0  0  0  0  0
    7.0739   -3.4077   -1.5804 C   0  0  0  0  0  0  0  0  0  0  0  0
    6.4898   -4.3654   -2.1142 O   0  0  0  0  0  0  0  0  0  0  0  0
    8.5281   -3.3155   -1.6922 C   0  0  0  0  0  0  0  0  0  0  0  0
    9.6129   -1.9380   -1.3531 S   0  0  0  0  0  0  0  0  0  0  0  0
   10.9402   -2.8589   -2.0443 C   0  0  0  0  0  0  0  0  0  0  0  0
   12.1928   -2.3211   -2.1037 N   0  0  0  0  0  0  0  0  0  0  0  0
   13.3332   -3.0982   -2.4924 C   0  0  1  0  0  0  0  0  0  0  0  0
   13.5983   -3.3262   -3.9559 C   0  0  0  0  0  0  0  0  0  0  0  0
   14.4671   -2.3767   -3.1720 C   0  0  0  0  0  0  0  0  0  0  0  0
   10.6353   -4.0469   -2.4865 N   0  0  0  0  0  0  0  0  0  0  0  0
    9.2993   -4.3101   -2.3230 C   0  0  0  0  0  0  0  0  0  0  0  0
    8.8187   -5.4936   -2.7619 N   0  0  0  0  0  0  0  0  0  0  0  0
    5.8106    1.0762   -5.4280 H   0  0  0  0  0  0  0  0  0  0  0  0
    5.7959   -0.7094   -5.5234 H   0  0  0  0  0  0  0  0  0  0  0  0
    6.8719    0.1048   -4.3618 H   0  0  0  0  0  0  0  0  0  0  0  0
    4.9003    0.9533   -3.0940 H   0  0  0  0  0  0  0  0  0  0  0  0
    3.2309   -0.7178   -5.0702 H   0  0  0  0  0  0  0  0  0  0  0  0
    3.2431    1.0672   -4.9739 H   0  0  0  0  0  0  0  0  0  0  0  0
    2.5960    0.1110   -3.6240 H   0  0  0  0  0  0  0  0  0  0  0  0
    3.2822   -1.2600   -1.8535 H   0  0  0  0  0  0  0  0  0  0  0  0
    4.6087   -0.2777   -1.1895 H   0  0  0  0  0  0  0  0  0  0  0  0
    4.6364   -3.3323   -1.6556 H   0  0  0  0  0  0  0  0  0  0  0  0
    4.3845   -2.5149   -0.0912 H   0  0  0  0  0  0  0  0  0  0  0  0
    6.1640   -1.2125    0.7760 H   0  0  0  0  0  0  0  0  0  0  0  0
    7.1617   -0.5114   -0.5218 H   0  0  0  0  0  0  0  0  0  0  0  0
    7.7962   -1.8339    0.5024 H   0  0  0  0  0  0  0  0  0  0  0  0
   12.3623   -1.4915   -1.5470 H   0  0  0  0  0  0  0  0  0  0  0  0
   13.5896   -3.9230   -1.8142 H   0  0  0  0  0  0  0  0  0  0  0  0
   12.8804   -2.8988   -4.6597 H   0  0  0  0  0  0  0  0  0  0  0  0
   14.0061   -4.2968   -4.2496 H   0  0  0  0  0  0  0  0  0  0  0  0
   14.3419   -1.3057   -3.3576 H   0  0  0  0  0  0  0  0  0  0  0  0
   15.4874   -2.6757   -2.9175 H   0  0  0  0  0  0  0  0  0  0  0  0
    9.4216   -6.0588   -3.3438 H   0  0  0  0  0  0  0  0  0  0  0  0
    7.8014   -5.5668   -2.7845 H   0  0  0  0  0  0  0  0  0  0  0  0
  1  2  1  0
  1 21  1  0
  1 22  1  0
  1 23  1  0
  2  3  1  0
  2  4  1  0
  2 24  1  1
  3 25  1  0
  3 26  1  0
  3 27  1  0
  4  5  1  0
  5  6  1  0
  5 28  1  0
  5 29  1  0
  6  7  1  0
  6 30  1  0
  6 31  1  0
  7  8  1  0
  7  9  1  0
  8 32  1  0
  8 33  1  0
  8 34  1  0
  9 10  2  0
  9 11  1  0
 11 12  1  0
 11 19  2  0
 12 13  1  0
 13 14  1  0
 13 18  2  0
 14 15  1  0
 14 35  1  0
 15 16  1  0
 15 17  1  0
 15 36  1  1
 16 17  1  0
 16 37  1  0
 16 38  1  0
 17 39  1  0
 17 40  1  0
 18 19  1  0
 19 20  1  0
 20 41  1  0
 20 42  1  0
M  END

