
     RDKit          3D

111114  0  0  0  0  0  0  0  0999 V2000
    0.3065    5.5059   10.4301 C   0  0  0  0  0  0  0  0  0  0  0  0
    1.2362    6.2719    9.4877 C   0  0  0  0  0  0  0  0  0  0  0  0
    2.5790    5.5743    9.2488 C   0  0  0  0  0  0  0  0  0  0  0  0
    3.5162    6.3349    8.3062 C   0  0  0  0  0  0  0  0  0  0  0  0
    4.8585    5.6373    8.0674 C   0  0  0  0  0  0  0  0  0  0  0  0
    5.7954    6.3988    7.1249 C   0  0  0  0  0  0  0  0  0  0  0  0
    7.1377    5.7013    6.8857 C   0  0  0  0  0  0  0  0  0  0  0  0
    8.0745    6.4637    5.9440 C   0  0  0  0  0  0  0  0  0  0  0  0
    9.4168    5.7661    5.7045 C   0  0  0  0  0  0  0  0  0  0  0  0
   10.3532    6.5324    4.7652 C   0  0  0  0  0  0  0  0  0  0  0  0
   11.6901    5.8256    4.5270 C   0  0  0  0  0  0  0  0  0  0  0  0
   12.6530    6.5732    3.5778 C   0  0  0  0  0  0  0  0  0  0  0  0
   13.2099    7.8715    4.1029 C   0  0  0  0  0  0  0  0  0  0  0  0
   12.5014    9.3559    3.5755 S   0  0  0  0  0  0  0  0  0  0  0  0
   13.5414   10.3529    4.5281 C   0  0  0  0  0  0  0  0  0  0  0  0
   13.3858   11.8499    4.4501 C   0  0  0  0  0  0  0  0  0  0  0  0
   14.4036   12.5823    3.5476 C   0  0  0  0  0  0  0  0  0  0  0  0
   14.2554   12.2904    2.0520 C   0  0  0  0  0  0  0  0  0  0  0  0
   15.2741   13.0322    1.1815 C   0  0  0  0  0  0  0  0  0  0  0  0
   15.1296   12.7504   -0.3174 C   0  0  0  0  0  0  0  0  0  0  0  0
   16.1514   13.4912   -1.1810 C   0  0  0  0  0  0  0  0  0  0  0  0
   14.4316    9.5609    5.2514 C   0  0  0  0  0  0  0  0  0  0  0  0
   15.4645    9.9960    6.1789 C   0  0  0  0  0  0  0  0  0  0  0  0
   15.8395   11.3199    6.6001 C   0  0  0  0  0  0  0  0  0  0  0  0
   16.8670   11.3584    7.5062 C   0  0  0  0  0  0  0  0  0  0  0  0
   17.5150   12.5624    8.1273 C   0  0  0  0  0  0  0  0  0  0  0  0
   18.9484   12.8440    7.6393 C   0  0  0  0  0  0  0  0  0  0  0  0
   19.5713   14.0858    8.2823 C   0  0  0  0  0  0  0  0  0  0  0  0
   20.9976   14.3769    7.8070 C   0  0  0  0  0  0  0  0  0  0  0  0
   21.6243   15.6187    8.4489 C   0  0  0  0  0  0  0  0  0  0  0  0
   23.0486   15.9027    7.9697 C   0  0  0  0  0  0  0  0  0  0  0  0
   17.4291    9.7419    7.8838 S   0  0  0  0  0  0  0  0  0  0  0  0
   16.2594    9.0283    6.8059 C   0  0  0  0  0  0  0  0  0  0  0  0
   16.0831    7.6383    6.5564 C   0  0  0  0  0  0  0  0  0  0  0  0
   17.0124    6.3396    7.2567 S   0  0  0  0  0  0  0  0  0  0  0  0
   16.0871    5.1361    6.3791 C   0  0  0  0  0  0  0  0  0  0  0  0
   16.3904    3.6723    6.5343 C   0  0  0  0  0  0  0  0  0  0  0  0
   16.1725    3.1006    7.9495 C   0  0  0  0  0  0  0  0  0  0  0  0
   14.7216    3.1456    8.4341 C   0  0  0  0  0  0  0  0  0  0  0  0
   14.5270    2.5708    9.8401 C   0  0  0  0  0  0  0  0  0  0  0  0
   13.0755    2.6067   10.3288 C   0  0  0  0  0  0  0  0  0  0  0  0
   12.8885    2.0353   11.7350 C   0  0  0  0  0  0  0  0  0  0  0  0
   15.1272    5.7294    5.6015 C   0  0  0  0  0  0  0  0  0  0  0  0
   15.0995    7.1662    5.6786 C   0  0  0  0  0  0  0  0  0  0  0  0
   14.2407    8.1282    5.0053 C   0  0  0  0  0  0  0  0  0  0  0  0
   -0.6480    6.0360   10.5785 H   0  0  0  0  0  0  0  0  0  0  0  0
    0.7673    5.3670   11.4226 H   0  0  0  0  0  0  0  0  0  0  0  0
    0.0718    4.5033   10.0345 H   0  0  0  0  0  0  0  0  0  0  0  0
    1.4205    7.2836    9.8932 H   0  0  0  0  0  0  0  0  0  0  0  0
    0.7309    6.4274    8.5169 H   0  0  0  0  0  0  0  0  0  0  0  0
    2.3958    4.5617    8.8427 H   0  0  0  0  0  0  0  0  0  0  0  0
    3.0857    5.4182   10.2198 H   0  0  0  0  0  0  0  0  0  0  0  0
    3.6989    7.3473    8.7127 H   0  0  0  0  0  0  0  0  0  0  0  0
    3.0089    6.4911    7.3358 H   0  0  0  0  0  0  0  0  0  0  0  0
    4.6761    4.6251    7.6605 H   0  0  0  0  0  0  0  0  0  0  0  0
    5.3660    5.4810    9.0377 H   0  0  0  0  0  0  0  0  0  0  0  0
    5.9781    7.4109    7.5319 H   0  0  0  0  0  0  0  0  0  0  0  0
    5.2879    6.5555    6.1547 H   0  0  0  0  0  0  0  0  0  0  0  0
    6.9552    4.6893    6.4781 H   0  0  0  0  0  0  0  0  0  0  0  0
    7.6451    5.5443    7.8559 H   0  0  0  0  0  0  0  0  0  0  0  0
    8.2579    7.4752    6.3517 H   0  0  0  0  0  0  0  0  0  0  0  0
    7.5671    6.6212    4.9738 H   0  0  0  0  0  0  0  0  0  0  0  0
    9.2341    4.7543    5.2963 H   0  0  0  0  0  0  0  0  0  0  0  0
    9.9241    5.6092    6.6746 H   0  0  0  0  0  0  0  0  0  0  0  0
   10.5360    7.5405    5.1765 H   0  0  0  0  0  0  0  0  0  0  0  0
    9.8466    6.6915    3.7945 H   0  0  0  0  0  0  0  0  0  0  0  0
   11.4982    4.8243    4.0998 H   0  0  0  0  0  0  0  0  0  0  0  0
   12.1897    5.6543    5.4960 H   0  0  0  0  0  0  0  0  0  0  0  0
   12.1244    6.7718    2.6298 H   0  0  0  0  0  0  0  0  0  0  0  0
   13.4890    5.9077    3.3087 H   0  0  0  0  0  0  0  0  0  0  0  0
   13.4346   12.2685    5.4683 H   0  0  0  0  0  0  0  0  0  0  0  0
   12.3690   12.0825    4.0900 H   0  0  0  0  0  0  0  0  0  0  0  0
   15.4282   12.3276    3.8689 H   0  0  0  0  0  0  0  0  0  0  0  0
   14.2901   13.6688    3.7165 H   0  0  0  0  0  0  0  0  0  0  0  0
   13.2326   12.5601    1.7275 H   0  0  0  0  0  0  0  0  0  0  0  0
   14.3492   11.2045    1.8764 H   0  0  0  0  0  0  0  0  0  0  0  0
   16.2961   12.7603    1.5056 H   0  0  0  0  0  0  0  0  0  0  0  0
   15.1850   14.1210    1.3572 H   0  0  0  0  0  0  0  0  0  0  0  0
   14.1078   13.0215   -0.6405 H   0  0  0  0  0  0  0  0  0  0  0  0
   15.2187   11.6626   -0.4910 H   0  0  0  0  0  0  0  0  0  0  0  0
   16.0633   14.5840   -1.0586 H   0  0  0  0  0  0  0  0  0  0  0  0
   16.0182   13.2653   -2.2511 H   0  0  0  0  0  0  0  0  0  0  0  0
   17.1835   13.2129   -0.9086 H   0  0  0  0  0  0  0  0  0  0  0  0
   15.3663   12.2348    6.2501 H   0  0  0  0  0  0  0  0  0  0  0  0
   17.5253   12.4572    9.2275 H   0  0  0  0  0  0  0  0  0  0  0  0
   16.8769   13.4360    7.9112 H   0  0  0  0  0  0  0  0  0  0  0  0
   18.9370   12.9561    6.5408 H   0  0  0  0  0  0  0  0  0  0  0  0
   19.5823   11.9632    7.8453 H   0  0  0  0  0  0  0  0  0  0  0  0
   19.5697   13.9673    9.3821 H   0  0  0  0  0  0  0  0  0  0  0  0
   18.9313   14.9642    8.0762 H   0  0  0  0  0  0  0  0  0  0  0  0
   20.9989   14.4952    6.7073 H   0  0  0  0  0  0  0  0  0  0  0  0
   21.6371   13.4982    8.0129 H   0  0  0  0  0  0  0  0  0  0  0  0
   21.6217   15.4991    9.5479 H   0  0  0  0  0  0  0  0  0  0  0  0
   20.9838   16.4958    8.2427 H   0  0  0  0  0  0  0  0  0  0  0  0
   23.7231   15.0596    8.1952 H   0  0  0  0  0  0  0  0  0  0  0  0
   23.4671   16.8008    8.4513 H   0  0  0  0  0  0  0  0  0  0  0  0
   23.0799   16.0651    6.8791 H   0  0  0  0  0  0  0  0  0  0  0  0
   17.4360    3.4800    6.2344 H   0  0  0  0  0  0  0  0  0  0  0  0
   15.7592    3.1235    5.8149 H   0  0  0  0  0  0  0  0  0  0  0  0
   16.8160    3.6454    8.6639 H   0  0  0  0  0  0  0  0  0  0  0  0
   16.5310    2.0558    7.9576 H   0  0  0  0  0  0  0  0  0  0  0  0
   14.0834    2.5911    7.7204 H   0  0  0  0  0  0  0  0  0  0  0  0
   14.3601    4.1889    8.4124 H   0  0  0  0  0  0  0  0  0  0  0  0
   15.1641    3.1278   10.5523 H   0  0  0  0  0  0  0  0  0  0  0  0
   14.8935    1.5271    9.8652 H   0  0  0  0  0  0  0  0  0  0  0  0
   12.4393    2.0499    9.6166 H   0  0  0  0  0  0  0  0  0  0  0  0
   12.7108    3.6497   10.3024 H   0  0  0  0  0  0  0  0  0  0  0  0
   13.2095    0.9812   11.7858 H   0  0  0  0  0  0  0  0  0  0  0  0
   11.8344    2.0772   12.0530 H   0  0  0  0  0  0  0  0  0  0  0  0
   13.4821    2.5951   12.4773 H   0  0  0  0  0  0  0  0  0  0  0  0
   14.4569    5.1327    4.9866 H   0  0  0  0  0  0  0  0  0  0  0  0
  1  2  1  0
  1 46  1  0
  1 47  1  0
  1 48  1  0
  2  3  1  0
  2 49  1  0
  2 50  1  0
  3  4  1  0
  3 51  1  0
  3 52  1  0
  4  5  1  0
  4 53  1  0
  4 54  1  0
  5  6  1  0
  5 55  1  0
  5 56  1  0
  6  7  1  0
  6 57  1  0
  6 58  1  0
  7  8  1  0
  7 59  1  0
  7 60  1  0
  8  9  1  0
  8 61  1  0
  8 62  1  0
  9 10  1  0
  9 63  1  0
  9 64  1  0
 10 11  1  0
 10 65  1  0
 10 66  1  0
 11 12  1  0
 11 67  1  0
 11 68  1  0
 12 13  1  0
 12 69  1  0
 12 70  1  0
 13 14  1  0
 13 45  2  0
 14 15  1  0
 15 16  1  0
 15 22  2  0
 16 17  1  0
 16 71  1  0
 16 72  1  0
 17 18  1  0
 17 73  1  0
 17 74  1  0
 18 19  1  0
 18 75  1  0
 18 76  1  0
 19 20  1  0
 19 77  1  0
 19 78  1  0
 20 21  1  0
 20 79  1  0
 20 80  1  0
 21 81  1  0
 21 82  1  0
 21 83  1  0
 22 23  1  0
 22 45  1  0
 23 24  1  0
 23 33  2  0
 24 25  2  0
 24 84  1  0
 25 26  1  0
 25 32  1  0
 26 27  1  0
 26 85  1  0
 26 86  1  0
 27 28  1  0
 27 87  1  0
 27 88  1  0
 28 29  1  0
 28 89  1  0
 28 90  1  0
 29 30  1  0
 29 91  1  0
 29 92  1  0
 30 31  1  0
 30 93  1  0
 30 94  1  0
 31 95  1  0
 31 96  1  0
 31 97  1  0
 32 33  1  0
 33 34  1  0
 34 35  1  0
 34 44  2  0
 35 36  1  0
 36 37  1  0
 36 43  2  0
 37 38  1  0
 37 98  1  0
 37 99  1  0
 38 39  1  0
 38100  1  0
 38101  1  0
 39 40  1  0
 39102  1  0
 39103  1  0
 40 41  1  0
 40104  1  0
 40105  1  0
 41 42  1  0
 41106  1  0
 41107  1  0
 42108  1  0
 42109  1  0
 42110  1  0
 43 44  1  0
 43111  1  0
 44 45  1  0
M  END

