
     RDKit          3D

 33 35  0  0  0  0  0  0  0  0999 V2000
    2.2357    0.4694    2.4917 N   0  0  0  0  0  0  0  0  0  0  0  0
    3.0157    0.1564    1.4122 C   0  0  0  0  0  0  0  0  0  0  0  0
    3.5785   -1.0861    1.1662 C   0  0  0  0  0  0  0  0  0  0  0  0
    4.3483   -1.3413   -0.0209 C   0  0  0  0  0  0  0  0  0  0  0  0
    4.8875   -2.6022   -0.2600 N   0  0  0  0  0  0  0  0  0  0  0  0
    5.8537   -2.7953   -1.3415 C   0  0  0  0  0  0  0  0  0  0  0  0
    6.3399   -4.2358   -1.1657 C   0  0  0  0  0  0  0  0  0  0  0  0
    6.2521   -4.4385    0.3512 C   0  0  0  0  0  0  0  0  0  0  0  0
    4.9882   -3.6564    0.7671 C   0  0  2  0  0  0  0  0  0  0  0  0
    5.1310   -3.2109    1.7680 H   0  0  0  0  0  0  0  0  0  0  0  0
    3.7165   -4.5246    0.8139 C   0  0  0  0  0  0  0  0  0  0  0  0
    3.3818   -5.0761   -0.4390 O   0  0  0  0  0  0  0  0  0  0  0  0
    4.5455   -0.3152   -0.9349 C   0  0  0  0  0  0  0  0  0  0  0  0
    3.9803    0.9214   -0.6750 N   0  0  0  0  0  0  0  0  0  0  0  0
    4.0130    2.1063   -1.3812 C   0  0  0  0  0  0  0  0  0  0  0  0
    4.9109    2.2843   -3.0164 Br  0  0  0  0  0  0  0  0  0  0  0  0
    3.2866    3.0305   -0.6379 C   0  0  0  0  0  0  0  0  0  0  0  0
    2.8094    2.4619    0.4937 N   0  0  0  0  0  0  0  0  0  0  0  0
    3.2314    1.1972    0.4569 C   0  0  0  0  0  0  0  0  0  0  0  0
    2.2573   -0.1225    3.3104 H   0  0  0  0  0  0  0  0  0  0  0  0
    2.0347    1.4532    2.6307 H   0  0  0  0  0  0  0  0  0  0  0  0
    3.4079   -1.8840    1.8869 H   0  0  0  0  0  0  0  0  0  0  0  0
    6.6909   -2.0727   -1.2502 H   0  0  0  0  0  0  0  0  0  0  0  0
    5.3898   -2.6231   -2.3284 H   0  0  0  0  0  0  0  0  0  0  0  0
    7.3528   -4.3834   -1.5687 H   0  0  0  0  0  0  0  0  0  0  0  0
    5.6589   -4.9344   -1.6723 H   0  0  0  0  0  0  0  0  0  0  0  0
    7.1341   -3.9977    0.8446 H   0  0  0  0  0  0  0  0  0  0  0  0
    6.2011   -5.4975    0.6445 H   0  0  0  0  0  0  0  0  0  0  0  0
    2.8759   -3.9315    1.2251 H   0  0  0  0  0  0  0  0  0  0  0  0
    3.8832   -5.3680    1.5043 H   0  0  0  0  0  0  0  0  0  0  0  0
    3.2407   -4.3288   -1.0385 H   0  0  0  0  0  0  0  0  0  0  0  0
    5.1099   -0.3957   -1.8581 H   0  0  0  0  0  0  0  0  0  0  0  0
    3.1065    4.0730   -0.8973 H   0  0  0  0  0  0  0  0  0  0  0  0
  1  2  1  0
  1 20  1  0
  1 21  1  0
  2  3  2  0
  2 19  1  0
  3  4  1  0
  3 22  1  0
  4  5  1  0
  4 13  2  0
  5  6  1  0
  5  9  1  0
  6  7  1  0
  6 23  1  0
  6 24  1  0
  7  8  1  0
  7 25  1  0
  7 26  1  0
  8  9  1  0
  8 27  1  0
  8 28  1  0
  9 10  1  1
  9 11  1  0
 11 12  1  0
 11 29  1  0
 11 30  1  0
 12 31  1  0
 13 14  1  0
 13 32  1  0
 14 15  1  0
 14 19  1  0
 15 16  1  0
 15 17  2  0
 17 18  1  0
 17 33  1  0
 18 19  2  0
M  END

