
     RDKit          3D

 36 38  0  0  0  0  0  0  0  0999 V2000
    2.2986    0.8770    1.2045 N   0  0  0  0  0  0  0  0  0  0  0  0
    2.2531    0.2985   -0.1291 C   0  0  0  0  0  0  0  0  0  0  0  0
    3.0088   -1.0490   -0.1819 C   0  0  1  0  0  0  0  0  0  0  0  0
    2.6726   -1.8196   -1.4581 C   0  0  0  0  0  0  0  0  0  0  0  0
    3.2888   -1.5030   -2.6775 C   0  0  0  0  0  0  0  0  0  0  0  0
    2.9131   -2.1895   -3.8298 C   0  0  0  0  0  0  0  0  0  0  0  0
    3.5062   -1.8815   -4.9899 F   0  0  0  0  0  0  0  0  0  0  0  0
    1.9431   -3.1892   -3.8217 C   0  0  0  0  0  0  0  0  0  0  0  0
    1.3476   -3.4845   -2.5979 C   0  0  0  0  0  0  0  0  0  0  0  0
    0.4143   -4.4435   -2.5521 F   0  0  0  0  0  0  0  0  0  0  0  0
    1.6919   -2.8212   -1.4220 C   0  0  0  0  0  0  0  0  0  0  0  0
    4.4827   -0.8598    0.0054 C   0  0  0  0  0  0  0  0  0  0  0  0
    5.3633    0.1782   -0.1356 C   0  0  0  0  0  0  0  0  0  0  0  0
    6.6404   -0.2544    0.1543 N   0  0  0  0  0  0  0  0  0  0  0  0
    6.5093   -1.5145    0.4551 C   0  0  0  0  0  0  0  0  0  0  0  0
    7.5480   -2.4650    0.8444 C   0  0  0  0  0  0  0  0  0  0  0  0
    8.8834   -2.0299    0.9283 C   0  0  0  0  0  0  0  0  0  0  0  0
    9.8945   -2.9135    1.2963 C   0  0  0  0  0  0  0  0  0  0  0  0
    9.5738   -4.2455    1.5844 C   0  0  0  0  0  0  0  0  0  0  0  0
   10.8392   -5.3571    2.0469 Cl  0  0  0  0  0  0  0  0  0  0  0  0
    8.2523   -4.6964    1.5059 C   0  0  0  0  0  0  0  0  0  0  0  0
    7.2446   -3.8063    1.1367 C   0  0  0  0  0  0  0  0  0  0  0  0
    5.2204   -1.9468    0.3853 O   0  0  0  0  0  0  0  0  0  0  0  0
    1.7053    1.7041    1.2572 H   0  0  0  0  0  0  0  0  0  0  0  0
    3.2436    1.1770    1.4435 H   0  0  0  0  0  0  0  0  0  0  0  0
    2.6392    0.9510   -0.9431 H   0  0  0  0  0  0  0  0  0  0  0  0
    1.2002    0.0945   -0.3805 H   0  0  0  0  0  0  0  0  0  0  0  0
    2.6456   -1.6391    0.6750 H   0  0  0  0  0  0  0  0  0  0  0  0
    4.0663   -0.7403   -2.7444 H   0  0  0  0  0  0  0  0  0  0  0  0
    1.6661   -3.7208   -4.7323 H   0  0  0  0  0  0  0  0  0  0  0  0
    1.1933   -3.0980   -0.4911 H   0  0  0  0  0  0  0  0  0  0  0  0
    5.1570    1.2070   -0.4260 H   0  0  0  0  0  0  0  0  0  0  0  0
    9.1132   -0.9876    0.6998 H   0  0  0  0  0  0  0  0  0  0  0  0
   10.9311   -2.5793    1.3623 H   0  0  0  0  0  0  0  0  0  0  0  0
    8.0202   -5.7380    1.7331 H   0  0  0  0  0  0  0  0  0  0  0  0
    6.2119   -4.1532    1.0729 H   0  0  0  0  0  0  0  0  0  0  0  0
  1  2  1  0
  1 24  1  0
  1 25  1  0
  2  3  1  0
  2 26  1  0
  2 27  1  0
  3  4  1  0
  3 12  1  0
  3 28  1  1
  4  5  2  0
  4 11  1  0
  5  6  1  0
  5 29  1  0
  6  7  1  0
  6  8  2  0
  8  9  1  0
  8 30  1  0
  9 10  1  0
  9 11  2  0
 11 31  1  0
 12 13  2  0
 12 23  1  0
 13 14  1  0
 13 32  1  0
 14 15  2  0
 15 16  1  0
 15 23  1  0
 16 17  2  0
 16 22  1  0
 17 18  1  0
 17 33  1  0
 18 19  2  0
 18 34  1  0
 19 20  1  0
 19 21  1  0
 21 22  2  0
 21 35  1  0
 22 36  1  0
M  END

