
     RDKit          3D

 28 28  0  0  0  0  0  0  0  0999 V2000
    2.9413    0.1922   -0.9940 C   0  0  0  0  0  0  0  0  0  0  0  0
    4.0022    0.2856   -0.1864 C   0  0  0  0  0  0  0  0  0  0  0  0
    5.0964   -0.7360   -0.0557 C   0  0  0  0  0  0  0  0  0  0  0  0
    5.3261   -1.2457    1.3886 C   0  0  1  0  0  0  0  0  0  0  0  0
    5.3313   -0.3545    2.0600 H   0  0  0  0  0  0  0  0  0  0  0  0
    4.1489   -2.0724    1.8824 C   0  0  0  0  0  0  0  0  0  0  0  0
    4.2575   -3.1277    2.4543 O   0  0  0  0  0  0  0  0  0  0  0  0
    6.5396   -2.0307    1.5036 N   0  0  0  0  0  0  0  0  0  0  0  0
    8.0441   -1.2592    1.5186 S   0  0  0  0  0  0  0  0  0  0  0  0
    8.1469   -0.3075    3.0400 C   0  0  0  0  0  0  0  0  0  0  0  0
    8.4552    1.0561    2.9048 C   0  0  0  0  0  0  0  0  0  0  0  0
    8.6142    1.8838    4.0200 C   0  0  0  0  0  0  0  0  0  0  0  0
    8.4641    1.3686    5.3133 C   0  0  0  0  0  0  0  0  0  0  0  0
    8.1943    0.0138    5.4728 C   0  0  0  0  0  0  0  0  0  0  0  0
    8.0407   -0.8340    4.3593 C   0  0  0  0  0  0  0  0  0  0  0  0
    7.9226   -2.2068    4.7372 N   0  0  0  0  0  0  0  0  0  0  0  0
    7.6913   -3.0148    3.8616 O   0  0  0  0  0  0  0  0  0  0  0  0
    2.1960    0.9901   -1.0536 H   0  0  0  0  0  0  0  0  0  0  0  0
    2.7816   -0.6833   -1.6325 H   0  0  0  0  0  0  0  0  0  0  0  0
    4.1151    1.1868    0.4321 H   0  0  0  0  0  0  0  0  0  0  0  0
    6.0534   -0.2846   -0.3722 H   0  0  0  0  0  0  0  0  0  0  0  0
    4.9190   -1.5977   -0.7197 H   0  0  0  0  0  0  0  0  0  0  0  0
    3.1478   -1.6127    1.6882 H   0  0  0  0  0  0  0  0  0  0  0  0
    6.4703   -2.7849    2.1911 H   0  0  0  0  0  0  0  0  0  0  0  0
    8.5520    1.4722    1.8989 H   0  0  0  0  0  0  0  0  0  0  0  0
    8.8452    2.9423    3.8750 H   0  0  0  0  0  0  0  0  0  0  0  0
    8.5740    2.0177    6.1848 H   0  0  0  0  0  0  0  0  0  0  0  0
    8.1133   -0.4471    6.4598 H   0  0  0  0  0  0  0  0  0  0  0  0
  1  2  2  0
  1 18  1  0
  1 19  1  0
  2  3  1  0
  2 20  1  0
  3  4  1  0
  3 21  1  0
  3 22  1  0
  4  5  1  1
  4  6  1  0
  4  8  1  0
  6  7  2  0
  6 23  1  0
  8  9  1  0
  8 24  1  0
  9 10  2  0
 10 11  1  0
 10 15  1  0
 11 12  2  0
 11 25  1  0
 12 13  1  0
 12 26  1  0
 13 14  2  0
 13 27  1  0
 14 15  1  0
 14 28  1  0
 15 16  2  0
 16 17  1  0
M  CHG  2   9   1  17  -1
M  END

