
     RDKit          3D

 53 56  0  0  0  0  0  0  0  0999 V2000
    5.4518    2.1132   -0.4781 O   0  0  0  0  0  0  0  0  0  0  0  0
    4.6168    1.0386   -0.1039 C   0  0  1  0  0  0  0  0  0  0  0  0
    5.0764   -0.2854   -0.7406 C   0  0  0  0  0  0  0  0  0  0  0  0
    6.2682   -0.3339   -1.4803 C   0  0  0  0  0  0  0  0  0  0  0  0
    6.7421   -1.5102   -2.0611 C   0  0  0  0  0  0  0  0  0  0  0  0
    5.9963   -2.6755   -1.9088 C   0  0  0  0  0  0  0  0  0  0  0  0
    6.4309   -3.8136   -2.4552 F   0  0  0  0  0  0  0  0  0  0  0  0
    4.7961   -2.6808   -1.2049 C   0  0  0  0  0  0  0  0  0  0  0  0
    4.3581   -1.4883   -0.6382 C   0  0  0  0  0  0  0  0  0  0  0  0
    3.1822   -1.5222    0.0096 F   0  0  0  0  0  0  0  0  0  0  0  0
    4.7066    0.9825    1.4415 C   0  0  1  0  0  0  0  0  0  0  0  0
    3.9255    0.0246    1.9866 F   0  0  0  0  0  0  0  0  0  0  0  0
    6.0033    0.7101    1.7721 F   0  0  0  0  0  0  0  0  0  0  0  0
    3.1688    1.4123   -0.5688 C   0  0  1  0  0  0  0  0  0  0  0  0
    2.5692    2.6286    0.1323 C   0  0  0  0  0  0  0  0  0  0  0  0
    1.7338    2.4493    1.2461 C   0  0  0  0  0  0  0  0  0  0  0  0
    1.1986    3.5734    1.8719 C   0  0  0  0  0  0  0  0  0  0  0  0
    1.4899    4.8510    1.3734 C   0  0  0  0  0  0  0  0  0  0  0  0
    0.9114    6.1099    1.9912 C   0  0  0  0  0  0  0  0  0  0  0  0
    1.1833    6.2601    3.4773 C   0  0  0  0  0  0  0  0  0  0  0  0
    2.4936    6.4384    3.9533 C   0  0  0  0  0  0  0  0  0  0  0  0
    2.7517    6.5841    5.3140 C   0  0  0  0  0  0  0  0  0  0  0  0
    1.6938    6.5417    6.2264 C   0  0  0  0  0  0  0  0  0  0  0  0
    2.0583    6.6574    7.5646 O   0  0  0  0  0  0  0  0  0  0  0  0
    1.2255    7.1815    8.4895 C   0  0  1  0  0  0  0  0  0  0  0  0
    0.7144    8.3583    8.1074 F   0  0  0  0  0  0  0  0  0  0  0  0
    0.1889    6.3695    8.7674 F   0  0  0  0  0  0  0  0  0  0  0  0
    1.9200    7.3562    9.6044 F   0  0  0  0  0  0  0  0  0  0  0  0
    0.3825    6.3558    5.7870 C   0  0  0  0  0  0  0  0  0  0  0  0
    0.1432    6.2242    4.4144 C   0  0  0  0  0  0  0  0  0  0  0  0
    2.3315    4.9090    0.2521 C   0  0  0  0  0  0  0  0  0  0  0  0
    2.8559    3.8393   -0.3459 N   0  0  0  0  0  0  0  0  0  0  0  0
    3.1333    1.5460   -2.0160 N   0  0  0  0  0  0  0  0  0  0  0  0
    3.6946    2.4412   -2.8605 C   0  0  0  0  0  0  0  0  0  0  0  0
    3.3589    2.1185   -4.0901 N   0  0  0  0  0  0  0  0  0  0  0  0
    2.5824    1.0122   -3.9882 N   0  0  0  0  0  0  0  0  0  0  0  0
    2.4373    0.6576   -2.7631 N   0  0  0  0  0  0  0  0  0  0  0  0
    6.3204    1.9787   -0.0713 H   0  0  0  0  0  0  0  0  0  0  0  0
    6.8344    0.5862   -1.6250 H   0  0  0  0  0  0  0  0  0  0  0  0
    7.6693   -1.5311   -2.6353 H   0  0  0  0  0  0  0  0  0  0  0  0
    4.2014   -3.5889   -1.1039 H   0  0  0  0  0  0  0  0  0  0  0  0
    4.4432    1.9550    1.8867 H   0  0  0  0  0  0  0  0  0  0  0  0
    2.5317    0.5477   -0.3556 H   0  0  0  0  0  0  0  0  0  0  0  0
    1.5108    1.4459    1.6156 H   0  0  0  0  0  0  0  0  0  0  0  0
    0.5500    3.4574    2.7445 H   0  0  0  0  0  0  0  0  0  0  0  0
   -0.1788    6.1226    1.8245 H   0  0  0  0  0  0  0  0  0  0  0  0
    1.3128    6.9829    1.4505 H   0  0  0  0  0  0  0  0  0  0  0  0
    3.3279    6.4710    3.2472 H   0  0  0  0  0  0  0  0  0  0  0  0
    3.7658    6.7335    5.6889 H   0  0  0  0  0  0  0  0  0  0  0  0
   -0.4457    6.3072    6.4928 H   0  0  0  0  0  0  0  0  0  0  0  0
   -0.8869    6.0897    4.0730 H   0  0  0  0  0  0  0  0  0  0  0  0
    2.5885    5.8827   -0.1839 H   0  0  0  0  0  0  0  0  0  0  0  0
    4.3045    3.2758   -2.5333 H   0  0  0  0  0  0  0  0  0  0  0  0
  2  1  1  6
  1 38  1  0
  2  3  1  0
  2 11  1  0
  2 14  1  0
  3  4  2  0
  3  9  1  0
  4  5  1  0
  4 39  1  0
  5  6  2  0
  5 40  1  0
  6  7  1  0
  6  8  1  0
  8  9  2  0
  8 41  1  0
  9 10  1  0
 11 12  1  0
 11 13  1  0
 11 42  1  1
 14 15  1  0
 14 33  1  0
 14 43  1  6
 15 16  2  0
 15 32  1  0
 16 17  1  0
 16 44  1  0
 17 18  2  0
 17 45  1  0
 18 19  1  0
 18 31  1  0
 19 20  1  0
 19 46  1  0
 19 47  1  0
 20 21  2  0
 20 30  1  0
 21 22  1  0
 21 48  1  0
 22 23  2  0
 22 49  1  0
 23 24  1  0
 23 29  1  0
 24 25  1  0
 25 26  1  6
 25 27  1  0
 25 28  1  0
 29 30  2  0
 29 50  1  0
 30 51  1  0
 31 32  2  0
 31 52  1  0
 33 34  1  0
 33 37  1  0
 34 35  2  0
 34 53  1  0
 35 36  1  0
 36 37  2  0
M  END

