
     RDKit          3D

 31 32  0  0  0  0  0  0  0  0999 V2000
    3.3963    1.5473   -0.6093 C   0  0  0  0  0  0  0  0  0  0  0  0
    2.7738    0.2419   -0.1519 C   0  0  0  0  0  0  0  0  0  0  0  0
    1.9181    0.2233    0.7103 O   0  0  0  0  0  0  0  0  0  0  0  0
    3.2358   -1.0428   -0.7885 C   0  0  0  0  0  0  0  0  0  0  0  0
    4.2292   -1.0962   -1.7796 C   0  0  0  0  0  0  0  0  0  0  0  0
    4.6201   -2.3172   -2.3329 C   0  0  0  0  0  0  0  0  0  0  0  0
    4.0082   -3.4914   -1.8925 C   0  0  0  0  0  0  0  0  0  0  0  0
    4.3617   -4.6770   -2.5132 O   0  0  0  0  0  0  0  0  0  0  0  0
    4.9190   -5.7088   -1.8436 C   0  0  0  0  0  0  0  0  0  0  0  0
    5.4657   -5.6040   -0.5552 C   0  0  0  0  0  0  0  0  0  0  0  0
    6.0528   -6.7140    0.0446 C   0  0  0  0  0  0  0  0  0  0  0  0
    6.0938   -7.9278   -0.6449 C   0  0  0  0  0  0  0  0  0  0  0  0
    6.7164   -9.1014   -0.0048 N   0  0  0  0  0  0  0  0  0  0  0  0
    7.1689   -8.9522    1.1187 O   0  0  0  0  0  0  0  0  0  0  0  0
    6.7383  -10.1426   -0.6398 O   0  0  0  0  0  0  0  0  0  0  0  0
    5.5640   -8.0579   -1.9254 C   0  0  0  0  0  0  0  0  0  0  0  0
    4.9696   -6.9463   -2.5368 C   0  0  0  0  0  0  0  0  0  0  0  0
    4.4150   -7.0526   -3.8552 C   0  0  0  0  0  0  0  0  0  0  0  0
    3.9725   -7.1642   -4.9222 N   0  0  0  0  0  0  0  0  0  0  0  0
    3.0059   -3.4637   -0.9149 C   0  0  0  0  0  0  0  0  0  0  0  0
    2.6311   -2.2408   -0.3671 C   0  0  0  0  0  0  0  0  0  0  0  0
    2.9440    2.3706   -0.0426 H   0  0  0  0  0  0  0  0  0  0  0  0
    3.2280    1.7095   -1.6864 H   0  0  0  0  0  0  0  0  0  0  0  0
    4.4860    1.5461   -0.4445 H   0  0  0  0  0  0  0  0  0  0  0  0
    4.7115   -0.1827   -2.1316 H   0  0  0  0  0  0  0  0  0  0  0  0
    5.3865   -2.3729   -3.1079 H   0  0  0  0  0  0  0  0  0  0  0  0
    5.4349   -4.6500   -0.0288 H   0  0  0  0  0  0  0  0  0  0  0  0
    6.4875   -6.6559    1.0424 H   0  0  0  0  0  0  0  0  0  0  0  0
    5.6142   -9.0187   -2.4363 H   0  0  0  0  0  0  0  0  0  0  0  0
    2.5234   -4.3919   -0.6017 H   0  0  0  0  0  0  0  0  0  0  0  0
    1.8520   -2.1812    0.3954 H   0  0  0  0  0  0  0  0  0  0  0  0
  1  2  1  0
  1 22  1  0
  1 23  1  0
  1 24  1  0
  2  3  2  0
  2  4  1  0
  4  5  2  0
  4 21  1  0
  5  6  1  0
  5 25  1  0
  6  7  2  0
  6 26  1  0
  7  8  1  0
  7 20  1  0
  8  9  1  0
  9 10  2  0
  9 17  1  0
 10 11  1  0
 10 27  1  0
 11 12  2  0
 11 28  1  0
 12 13  1  0
 12 16  1  0
 13 14  2  0
 13 15  1  0
 16 17  2  0
 16 29  1  0
 17 18  1  0
 18 19  3  0
 20 21  2  0
 20 30  1  0
 21 31  1  0
M  CHG  2  13   1  15  -1
M  END

