
     RDKit          3D

 55 56  0  0  0  0  0  0  0  0999 V2000
    5.6075    1.3397   -5.0501 C   0  0  0  0  0  0  0  0  0  0  0  0
    5.7820    0.2251   -4.0363 C   0  0  0  0  0  0  0  0  0  0  0  0
    6.5442    0.7315   -2.9523 O   0  0  0  0  0  0  0  0  0  0  0  0
    6.8414   -0.0741   -1.9013 C   0  0  0  0  0  0  0  0  0  0  0  0
    6.4496   -1.4180   -1.7890 C   0  0  0  0  0  0  0  0  0  0  0  0
    6.8121   -2.1586   -0.6596 C   0  0  0  0  0  0  0  0  0  0  0  0
    7.5655   -1.5936    0.3783 C   0  0  0  0  0  0  0  0  0  0  0  0
    7.9296   -2.4093    1.6085 C   0  0  0  0  0  0  0  0  0  0  0  0
    8.4942   -3.7930    1.2648 C   0  0  0  0  0  0  0  0  0  0  0  0
    7.7408   -4.7562    1.2308 O   0  0  0  0  0  0  0  0  0  0  0  0
    9.8359   -3.9041    0.9695 N   0  0  0  0  0  0  0  0  0  0  0  0
   10.3812   -5.2292    0.6926 C   0  0  0  0  0  0  0  0  0  0  0  0
   11.4259   -5.7087    1.7092 C   0  0  0  0  0  0  0  0  0  0  0  0
   12.7985   -5.0249    1.6141 C   0  0  0  0  0  0  0  0  0  0  0  0
   12.9576   -3.5597    2.1236 C   0  0  2  0  0  0  0  0  0  0  0  0
   13.6016   -3.0542    1.3878 H   0  0  0  0  0  0  0  0  0  0  0  0
   13.7414   -3.4642    3.3897 N   0  0  0  0  0  0  0  0  0  0  0  0
   15.1427   -3.0893    3.2504 C   0  0  0  0  0  0  0  0  0  0  0  0
   15.4117   -1.5738    3.2209 C   0  0  0  0  0  0  0  0  0  0  0  0
   16.4739   -1.1186    2.9021 O   0  0  0  0  0  0  0  0  0  0  0  0
   14.3815   -0.8062    3.6141 O   0  0  0  0  0  0  0  0  0  0  0  0
   13.2277   -4.0103    4.5612 C   0  0  0  0  0  0  0  0  0  0  0  0
   14.0806   -3.9156    5.8190 C   0  0  0  0  0  0  0  0  0  0  0  0
   12.1231   -4.5221    4.5914 O   0  0  0  0  0  0  0  0  0  0  0  0
   11.6730   -2.7099    2.2019 C   0  0  0  0  0  0  0  0  0  0  0  0
   10.7707   -2.7904    0.9561 C   0  0  0  0  0  0  0  0  0  0  0  0
    7.9480   -0.2472    0.2507 C   0  0  0  0  0  0  0  0  0  0  0  0
    7.5951    0.5051   -0.8668 C   0  0  0  0  0  0  0  0  0  0  0  0
    5.0188    0.9843   -5.9100 H   0  0  0  0  0  0  0  0  0  0  0  0
    6.5851    1.6883   -5.4166 H   0  0  0  0  0  0  0  0  0  0  0  0
    5.0842    2.1967   -4.5992 H   0  0  0  0  0  0  0  0  0  0  0  0
    6.2992   -0.6409   -4.4916 H   0  0  0  0  0  0  0  0  0  0  0  0
    4.7991   -0.1323   -3.6743 H   0  0  0  0  0  0  0  0  0  0  0  0
    5.8617   -1.8989   -2.5711 H   0  0  0  0  0  0  0  0  0  0  0  0
    6.4992   -3.2031   -0.5814 H   0  0  0  0  0  0  0  0  0  0  0  0
    7.0232   -2.6264    2.1938 H   0  0  0  0  0  0  0  0  0  0  0  0
    8.6029   -1.8327    2.2591 H   0  0  0  0  0  0  0  0  0  0  0  0
   10.8232   -5.2301   -0.3233 H   0  0  0  0  0  0  0  0  0  0  0  0
    9.5254   -5.9150    0.6840 H   0  0  0  0  0  0  0  0  0  0  0  0
   11.5859   -6.7837    1.5162 H   0  0  0  0  0  0  0  0  0  0  0  0
   11.0270   -5.6285    2.7305 H   0  0  0  0  0  0  0  0  0  0  0  0
   13.1101   -5.0465    0.5548 H   0  0  0  0  0  0  0  0  0  0  0  0
   13.5419   -5.6394    2.1461 H   0  0  0  0  0  0  0  0  0  0  0  0
   15.5715   -3.5107    2.3283 H   0  0  0  0  0  0  0  0  0  0  0  0
   15.7490   -3.4957    4.0706 H   0  0  0  0  0  0  0  0  0  0  0  0
   13.6251   -1.3922    3.7981 H   0  0  0  0  0  0  0  0  0  0  0  0
   14.9211   -4.6279    5.7834 H   0  0  0  0  0  0  0  0  0  0  0  0
   13.4389   -4.1845    6.6664 H   0  0  0  0  0  0  0  0  0  0  0  0
   14.4974   -2.9096    5.9788 H   0  0  0  0  0  0  0  0  0  0  0  0
   11.9829   -1.6587    2.3357 H   0  0  0  0  0  0  0  0  0  0  0  0
   11.0836   -2.9969    3.0833 H   0  0  0  0  0  0  0  0  0  0  0  0
   11.3890   -2.8653    0.0419 H   0  0  0  0  0  0  0  0  0  0  0  0
   10.2126   -1.8543    0.8496 H   0  0  0  0  0  0  0  0  0  0  0  0
    8.5284    0.2285    1.0474 H   0  0  0  0  0  0  0  0  0  0  0  0
    7.8914    1.5516   -0.9634 H   0  0  0  0  0  0  0  0  0  0  0  0
  1  2  1  0
  1 29  1  0
  1 30  1  0
  1 31  1  0
  2  3  1  0
  2 32  1  0
  2 33  1  0
  3  4  1  0
  4  5  2  0
  4 28  1  0
  5  6  1  0
  5 34  1  0
  6  7  2  0
  6 35  1  0
  7  8  1  0
  7 27  1  0
  8  9  1  0
  8 36  1  0
  8 37  1  0
  9 10  2  0
  9 11  1  0
 11 12  1  0
 11 26  1  0
 12 13  1  0
 12 38  1  0
 12 39  1  0
 13 14  1  0
 13 40  1  0
 13 41  1  0
 14 15  1  0
 14 42  1  0
 14 43  1  0
 15 16  1  6
 15 17  1  0
 15 25  1  0
 17 18  1  0
 17 22  1  0
 18 19  1  0
 18 44  1  0
 18 45  1  0
 19 20  2  0
 19 21  1  0
 21 46  1  0
 22 23  1  0
 22 24  2  0
 23 47  1  0
 23 48  1  0
 23 49  1  0
 25 26  1  0
 25 50  1  0
 25 51  1  0
 26 52  1  0
 26 53  1  0
 27 28  2  0
 27 54  1  0
 28 55  1  0
M  END

