
     RDKit          3D

 45 46  0  0  0  0  0  0  0  0999 V2000
    2.5240    3.6080    5.8535 C   0  0  0  0  0  0  0  0  0  0  0  0
    3.4671    2.4216    5.7688 C   0  0  0  0  0  0  0  0  0  0  0  0
    4.5565    2.4545    6.3095 O   0  0  0  0  0  0  0  0  0  0  0  0
    3.0268    1.2046    5.0025 C   0  0  0  0  0  0  0  0  0  0  0  0
    1.7810    1.1084    4.3609 C   0  0  0  0  0  0  0  0  0  0  0  0
    1.4563   -0.0618    3.6715 C   0  0  0  0  0  0  0  0  0  0  0  0
    2.3413   -1.1392    3.6043 C   0  0  0  0  0  0  0  0  0  0  0  0
    3.5938   -1.0510    4.2467 C   0  0  0  0  0  0  0  0  0  0  0  0
    4.5455   -2.0818    4.2402 N   0  0  0  0  0  0  0  0  0  0  0  0
    4.4723   -3.3242    3.6157 C   0  0  0  0  0  0  0  0  0  0  0  0
    3.5264   -3.6892    2.9358 O   0  0  0  0  0  0  0  0  0  0  0  0
    5.5879   -4.1031    3.8224 N   0  0  0  0  0  0  0  0  0  0  0  0
    5.6698   -5.4740    3.3229 C   0  0  1  0  0  0  0  0  0  0  0  0
    7.1324   -5.7656    2.9569 C   0  0  0  0  0  0  0  0  0  0  0  0
    7.4515   -7.1823    2.4589 C   0  0  0  0  0  0  0  0  0  0  0  0
    7.3498   -8.2715    3.5410 C   0  0  0  0  0  0  0  0  0  0  0  0
    5.9488   -8.8819    3.7858 C   0  0  2  0  0  0  0  0  0  0  0  0
    5.6780  -10.0679    2.8494 C   0  0  0  0  0  0  0  0  0  0  0  0
    4.7847   -7.8721    3.6997 C   0  0  0  0  0  0  0  0  0  0  0  0
    5.0142   -6.4752    4.2975 C   0  0  0  0  0  0  0  0  0  0  0  0
    3.9174    0.1254    4.9386 C   0  0  0  0  0  0  0  0  0  0  0  0
    3.0036    4.3987    6.4441 H   0  0  0  0  0  0  0  0  0  0  0  0
    1.5716    3.3218    6.3282 H   0  0  0  0  0  0  0  0  0  0  0  0
    2.2842    3.9938    4.8496 H   0  0  0  0  0  0  0  0  0  0  0  0
    1.0673    1.9329    4.3938 H   0  0  0  0  0  0  0  0  0  0  0  0
    0.4891   -0.1434    3.1687 H   0  0  0  0  0  0  0  0  0  0  0  0
    2.0873   -2.0470    3.0621 H   0  0  0  0  0  0  0  0  0  0  0  0
    5.4099   -1.8556    4.7175 H   0  0  0  0  0  0  0  0  0  0  0  0
    6.2576   -3.8336    4.5343 H   0  0  0  0  0  0  0  0  0  0  0  0
    5.0637   -5.4845    2.4033 H   0  0  0  0  0  0  0  0  0  0  0  0
    7.7666   -5.5648    3.8430 H   0  0  0  0  0  0  0  0  0  0  0  0
    7.4348   -5.0290    2.1938 H   0  0  0  0  0  0  0  0  0  0  0  0
    8.4844   -7.1672    2.0733 H   0  0  0  0  0  0  0  0  0  0  0  0
    6.8175   -7.4326    1.5897 H   0  0  0  0  0  0  0  0  0  0  0  0
    7.7358   -7.8484    4.4850 H   0  0  0  0  0  0  0  0  0  0  0  0
    8.0387   -9.0968    3.2932 H   0  0  0  0  0  0  0  0  0  0  0  0
    5.9609   -9.2790    4.8176 H   0  0  0  0  0  0  0  0  0  0  0  0
    5.7213   -9.7587    1.7907 H   0  0  0  0  0  0  0  0  0  0  0  0
    4.6776  -10.4966    3.0242 H   0  0  0  0  0  0  0  0  0  0  0  0
    6.4176  -10.8721    2.9926 H   0  0  0  0  0  0  0  0  0  0  0  0
    3.9096   -8.3318    4.1885 H   0  0  0  0  0  0  0  0  0  0  0  0
    4.4873   -7.7482    2.6423 H   0  0  0  0  0  0  0  0  0  0  0  0
    5.5998   -6.5359    5.2338 H   0  0  0  0  0  0  0  0  0  0  0  0
    4.0365   -6.0471    4.5683 H   0  0  0  0  0  0  0  0  0  0  0  0
    4.8777    0.2340    5.4502 H   0  0  0  0  0  0  0  0  0  0  0  0
  1  2  1  0
  1 22  1  0
  1 23  1  0
  1 24  1  0
  2  3  2  0
  2  4  1  0
  4  5  2  0
  4 21  1  0
  5  6  1  0
  5 25  1  0
  6  7  2  0
  6 26  1  0
  7  8  1  0
  7 27  1  0
  8  9  1  0
  8 21  2  0
  9 10  1  0
  9 28  1  0
 10 11  2  0
 10 12  1  0
 12 13  1  0
 12 29  1  0
 13 14  1  0
 13 20  1  0
 13 30  1  6
 14 15  1  0
 14 31  1  0
 14 32  1  0
 15 16  1  0
 15 33  1  0
 15 34  1  0
 16 17  1  0
 16 35  1  0
 16 36  1  0
 17 18  1  0
 17 19  1  0
 17 37  1  1
 18 38  1  0
 18 39  1  0
 18 40  1  0
 19 20  1  0
 19 41  1  0
 19 42  1  0
 20 43  1  0
 20 44  1  0
 21 45  1  0
M  END

