
     RDKit          3D

 57 60  0  0  0  0  0  0  0  0999 V2000
    1.6770   -1.2848   -0.0607 O   0  0  0  0  0  0  0  0  0  0  0  0
    2.1069   -0.1783    0.2240 C   0  0  0  0  0  0  0  0  0  0  0  0
    2.1996    0.2957    1.5153 N   0  0  0  0  0  0  0  0  0  0  0  0
    1.7973   -0.3137    2.7168 C   0  0  0  0  0  0  0  0  0  0  0  0
    1.1913   -1.5801    2.7772 C   0  0  0  0  0  0  0  0  0  0  0  0
    0.8262   -2.0860    4.0273 C   0  0  0  0  0  0  0  0  0  0  0  0
    1.0490   -1.3706    5.2004 C   0  0  0  0  0  0  0  0  0  0  0  0
    1.6569   -0.1010    5.1396 C   0  0  0  0  0  0  0  0  0  0  0  0
    1.8471    0.5703    6.3599 N   0  0  0  0  0  0  0  0  0  0  0  0
    2.3953    1.7807    6.6703 C   0  0  0  0  0  0  0  0  0  0  0  0
    2.3700    2.0845    7.9905 N   0  0  0  0  0  0  0  0  0  0  0  0
    2.8816    3.2502    8.3463 C   0  0  0  0  0  0  0  0  0  0  0  0
    3.4345    4.1564    7.4254 C   0  0  0  0  0  0  0  0  0  0  0  0
    3.4109    3.7341    6.1005 C   0  0  0  0  0  0  0  0  0  0  0  0
    3.9933    4.5821    4.9782 C   0  0  1  0  0  0  0  0  0  0  0  0
    4.3681    5.7924    5.4216 F   0  0  0  0  0  0  0  0  0  0  0  0
    5.0715    3.9913    4.4438 F   0  0  0  0  0  0  0  0  0  0  0  0
    3.1010    4.7630    3.9953 F   0  0  0  0  0  0  0  0  0  0  0  0
    2.9043    2.5681    5.7127 N   0  0  0  0  0  0  0  0  0  0  0  0
    2.0280    0.4219    3.8945 C   0  0  0  0  0  0  0  0  0  0  0  0
    2.5971    0.7693   -0.8402 C   0  0  0  0  0  0  0  0  0  0  0  0
    2.7302    2.1580   -0.6669 C   0  0  0  0  0  0  0  0  0  0  0  0
    3.1777    2.9672   -1.7112 C   0  0  0  0  0  0  0  0  0  0  0  0
    3.5035    2.4149   -2.9588 C   0  0  0  0  0  0  0  0  0  0  0  0
    3.9375    3.3031   -4.1140 C   0  0  0  0  0  0  0  0  0  0  0  0
    4.7497    4.4357   -3.6993 N   0  0  0  0  0  0  0  0  0  0  0  0
    6.1157    4.0998   -3.2924 C   0  0  0  0  0  0  0  0  0  0  0  0
    7.0792    3.8944   -4.4752 C   0  0  0  0  0  0  0  0  0  0  0  0
    7.0590    5.1116   -5.4108 C   0  0  0  0  0  0  0  0  0  0  0  0
    5.6220    5.4557   -5.8278 C   0  0  0  0  0  0  0  0  0  0  0  0
    4.7226    5.5957   -4.5868 C   0  0  0  0  0  0  0  0  0  0  0  0
    3.3647    1.0293   -3.1309 C   0  0  0  0  0  0  0  0  0  0  0  0
    2.9080    0.2187   -2.0927 C   0  0  0  0  0  0  0  0  0  0  0  0
    2.6641    1.1875    1.6316 H   0  0  0  0  0  0  0  0  0  0  0  0
    1.0222   -2.1410    1.8623 H   0  0  0  0  0  0  0  0  0  0  0  0
    0.3545   -3.0703    4.0841 H   0  0  0  0  0  0  0  0  0  0  0  0
    0.7551   -1.7886    6.1672 H   0  0  0  0  0  0  0  0  0  0  0  0
    1.5106    0.0856    7.1852 H   0  0  0  0  0  0  0  0  0  0  0  0
    2.8578    3.4915    9.4159 H   0  0  0  0  0  0  0  0  0  0  0  0
    3.8503    5.1160    7.7272 H   0  0  0  0  0  0  0  0  0  0  0  0
    2.4936    1.4042    3.8484 H   0  0  0  0  0  0  0  0  0  0  0  0
    2.4561    2.6354    0.2781 H   0  0  0  0  0  0  0  0  0  0  0  0
    3.2841    4.0451   -1.5723 H   0  0  0  0  0  0  0  0  0  0  0  0
    3.0266    3.7089   -4.5900 H   0  0  0  0  0  0  0  0  0  0  0  0
    4.4133    2.6618   -4.8877 H   0  0  0  0  0  0  0  0  0  0  0  0
    6.0862    3.2060   -2.6498 H   0  0  0  0  0  0  0  0  0  0  0  0
    6.4950    4.9265   -2.6627 H   0  0  0  0  0  0  0  0  0  0  0  0
    6.7903    2.9894   -5.0394 H   0  0  0  0  0  0  0  0  0  0  0  0
    8.0985    3.7090   -4.0955 H   0  0  0  0  0  0  0  0  0  0  0  0
    7.6920    4.9345   -6.2964 H   0  0  0  0  0  0  0  0  0  0  0  0
    7.4981    5.9796   -4.8836 H   0  0  0  0  0  0  0  0  0  0  0  0
    5.2251    4.6621   -6.4869 H   0  0  0  0  0  0  0  0  0  0  0  0
    5.5978    6.3900   -6.4147 H   0  0  0  0  0  0  0  0  0  0  0  0
    3.6788    5.7960   -4.8788 H   0  0  0  0  0  0  0  0  0  0  0  0
    5.0607    6.4736   -4.0039 H   0  0  0  0  0  0  0  0  0  0  0  0
    3.6178    0.5784   -4.0951 H   0  0  0  0  0  0  0  0  0  0  0  0
    2.7874   -0.8577   -2.2276 H   0  0  0  0  0  0  0  0  0  0  0  0
  1  2  2  0
  2  3  1  0
  2 21  1  0
  3  4  1  0
  3 34  1  0
  4  5  2  0
  4 20  1  0
  5  6  1  0
  5 35  1  0
  6  7  2  0
  6 36  1  0
  7  8  1  0
  7 37  1  0
  8  9  1  0
  8 20  2  0
  9 10  1  0
  9 38  1  0
 10 11  2  0
 10 19  1  0
 11 12  1  0
 12 13  2  0
 12 39  1  0
 13 14  1  0
 13 40  1  0
 14 15  1  0
 14 19  2  0
 15 16  1  1
 15 17  1  0
 15 18  1  0
 20 41  1  0
 21 22  2  0
 21 33  1  0
 22 23  1  0
 22 42  1  0
 23 24  2  0
 23 43  1  0
 24 25  1  0
 24 32  1  0
 25 26  1  0
 25 44  1  0
 25 45  1  0
 26 27  1  0
 26 31  1  0
 27 28  1  0
 27 46  1  0
 27 47  1  0
 28 29  1  0
 28 48  1  0
 28 49  1  0
 29 30  1  0
 29 50  1  0
 29 51  1  0
 30 31  1  0
 30 52  1  0
 30 53  1  0
 31 54  1  0
 31 55  1  0
 32 33  2  0
 32 56  1  0
 33 57  1  0
M  END

