
     RDKit          3D

 49 51  0  0  0  0  0  0  0  0999 V2000
    0.7272   -1.7880    0.9375 C   0  0  0  0  0  0  0  0  0  0  0  0
    0.1762   -3.2179    0.9941 C   0  0  2  0  0  0  0  0  0  0  0  0
   -0.9096   -3.1565    1.1466 H   0  0  0  0  0  0  0  0  0  0  0  0
    0.7698   -4.0709    2.1260 C   0  0  0  0  0  0  0  0  0  0  0  0
    0.5490   -3.5160    3.5330 C   0  0  2  0  0  0  0  0  0  0  0  0
    1.1255   -2.5788    3.6497 H   0  0  0  0  0  0  0  0  0  0  0  0
    0.9232   -4.5052    4.6696 C   0  0  0  0  0  0  0  0  0  0  0  0
   -0.4418   -4.9504    5.2187 C   0  0  0  0  0  0  0  0  0  0  0  0
   -1.2913   -3.7074    4.9557 C   0  0  0  0  0  0  0  0  0  0  0  0
   -0.8412   -3.2211    3.7042 O   0  0  0  0  0  0  0  0  0  0  0  0
    0.3706   -3.9307   -0.2692 N   0  0  0  0  0  0  0  0  0  0  0  0
   -0.4876   -3.7162   -1.3322 C   0  0  0  0  0  0  0  0  0  0  0  0
   -1.4712   -2.9935   -1.2401 O   0  0  0  0  0  0  0  0  0  0  0  0
   -0.1803   -4.3895   -2.5073 N   0  0  0  0  0  0  0  0  0  0  0  0
   -0.9051   -4.0574   -3.7251 C   0  0  0  0  0  0  0  0  0  0  0  0
   -1.4668   -5.3238   -4.3572 C   0  0  0  0  0  0  0  0  0  0  0  0
   -0.4564   -6.3022   -4.5401 O   0  0  0  0  0  0  0  0  0  0  0  0
    0.2556   -6.6753   -3.3501 C   0  0  2  0  0  0  0  0  0  0  0  0
    1.3510   -7.6614   -3.8117 C   0  0  0  0  0  0  0  0  0  0  0  0
    0.7546   -9.0884   -3.6704 C   0  0  0  0  0  0  0  0  0  0  0  0
   -0.6933   -8.8830   -3.1747 C   0  0  0  0  0  0  0  0  0  0  0  0
   -0.6373   -7.5424   -2.4334 C   0  0  0  0  0  0  0  0  0  0  0  0
    0.8356   -5.4133   -2.6828 C   0  0  0  0  0  0  0  0  0  0  0  0
    1.8241   -1.7821    0.8074 H   0  0  0  0  0  0  0  0  0  0  0  0
    0.4865   -1.2315    1.8562 H   0  0  0  0  0  0  0  0  0  0  0  0
    0.2699   -1.2517    0.0934 H   0  0  0  0  0  0  0  0  0  0  0  0
    1.8600   -4.1903    1.9731 H   0  0  0  0  0  0  0  0  0  0  0  0
    0.3249   -5.0787    2.0635 H   0  0  0  0  0  0  0  0  0  0  0  0
    1.5008   -3.9882    5.4521 H   0  0  0  0  0  0  0  0  0  0  0  0
    1.5371   -5.3440    4.3082 H   0  0  0  0  0  0  0  0  0  0  0  0
   -0.4105   -5.2432    6.2791 H   0  0  0  0  0  0  0  0  0  0  0  0
   -0.8368   -5.8022    4.6416 H   0  0  0  0  0  0  0  0  0  0  0  0
   -1.1399   -2.9512    5.7550 H   0  0  0  0  0  0  0  0  0  0  0  0
   -2.3712   -3.9088    4.8810 H   0  0  0  0  0  0  0  0  0  0  0  0
    1.3259   -4.1945   -0.4813 H   0  0  0  0  0  0  0  0  0  0  0  0
   -0.2186   -3.5655   -4.4429 H   0  0  0  0  0  0  0  0  0  0  0  0
   -1.7060   -3.3544   -3.4633 H   0  0  0  0  0  0  0  0  0  0  0  0
   -1.8720   -5.1098   -5.3584 H   0  0  0  0  0  0  0  0  0  0  0  0
   -2.2936   -5.7148   -3.7339 H   0  0  0  0  0  0  0  0  0  0  0  0
    2.2530   -7.5436   -3.1892 H   0  0  0  0  0  0  0  0  0  0  0  0
    1.6306   -7.4111   -4.8451 H   0  0  0  0  0  0  0  0  0  0  0  0
    1.3303   -9.6703   -2.9322 H   0  0  0  0  0  0  0  0  0  0  0  0
    0.7935   -9.6524   -4.6145 H   0  0  0  0  0  0  0  0  0  0  0  0
   -1.0576   -9.7113   -2.5474 H   0  0  0  0  0  0  0  0  0  0  0  0
   -1.3763   -8.7901   -4.0332 H   0  0  0  0  0  0  0  0  0  0  0  0
   -0.1354   -7.6638   -1.4571 H   0  0  0  0  0  0  0  0  0  0  0  0
   -1.6232   -7.0993   -2.2321 H   0  0  0  0  0  0  0  0  0  0  0  0
    1.6596   -5.0301   -3.3181 H   0  0  0  0  0  0  0  0  0  0  0  0
    1.2590   -5.7019   -1.7127 H   0  0  0  0  0  0  0  0  0  0  0  0
  1  2  1  0
  1 24  1  0
  1 25  1  0
  1 26  1  0
  2  3  1  1
  2  4  1  0
  2 11  1  0
  4  5  1  0
  4 27  1  0
  4 28  1  0
  5  6  1  1
  5  7  1  0
  5 10  1  0
  7  8  1  0
  7 29  1  0
  7 30  1  0
  8  9  1  0
  8 31  1  0
  8 32  1  0
  9 10  1  0
  9 33  1  0
  9 34  1  0
 11 12  1  0
 11 35  1  0
 12 13  2  0
 12 14  1  0
 14 15  1  0
 14 23  1  0
 15 16  1  0
 15 36  1  0
 15 37  1  0
 16 17  1  0
 16 38  1  0
 16 39  1  0
 18 17  1  6
 18 19  1  0
 18 22  1  0
 18 23  1  0
 19 20  1  0
 19 40  1  0
 19 41  1  0
 20 21  1  0
 20 42  1  0
 20 43  1  0
 21 22  1  0
 21 44  1  0
 21 45  1  0
 22 46  1  0
 22 47  1  0
 23 48  1  0
 23 49  1  0
M  END

