
     RDKit          3D

 54 57  0  0  0  0  0  0  0  0999 V2000
    1.5386   -0.2583   -1.7278 C   0  0  0  0  0  0  0  0  0  0  0  0
    2.8894   -0.3608   -1.2873 O   0  0  0  0  0  0  0  0  0  0  0  0
    3.2267    0.3996   -0.2220 C   0  0  0  0  0  0  0  0  0  0  0  0
    2.4370    1.1303    0.3337 O   0  0  0  0  0  0  0  0  0  0  0  0
    4.6504    0.2310    0.1721 C   0  0  0  0  0  0  0  0  0  0  0  0
    5.5298   -0.6362   -0.5019 C   0  0  0  0  0  0  0  0  0  0  0  0
    6.8525   -0.7557   -0.0925 C   0  0  0  0  0  0  0  0  0  0  0  0
    7.3196   -0.0093    1.0018 C   0  0  0  0  0  0  0  0  0  0  0  0
    8.6220   -0.2127    1.3475 O   0  0  0  0  0  0  0  0  0  0  0  0
    9.2579    0.5853    2.2592 C   0  0  0  0  0  0  0  0  0  0  0  0
    9.5951    1.9768    2.2065 C   0  0  0  0  0  0  0  0  0  0  0  0
    9.2676    3.0283    1.2225 C   0  0  0  0  0  0  0  0  0  0  0  0
    8.9997    4.3308    1.6669 C   0  0  0  0  0  0  0  0  0  0  0  0
    8.7032    5.3828    0.7975 C   0  0  0  0  0  0  0  0  0  0  0  0
    8.6684    5.1322   -0.5820 C   0  0  0  0  0  0  0  0  0  0  0  0
    8.3839    6.0636   -1.5306 O   0  0  0  0  0  0  0  0  0  0  0  0
    8.0906    7.3892   -1.1383 C   0  0  0  0  0  0  0  0  0  0  0  0
    7.7721    8.2241   -2.3567 C   0  0  0  0  0  0  0  0  0  0  0  0
    7.9459    9.6145   -2.3131 C   0  0  0  0  0  0  0  0  0  0  0  0
    7.6117   10.4185   -3.4051 C   0  0  0  0  0  0  0  0  0  0  0  0
    7.1042    9.8204   -4.5613 C   0  0  0  0  0  0  0  0  0  0  0  0
    6.6510   10.9063   -6.0639 Br  0  0  0  0  0  0  0  0  0  0  0  0
    6.9304    8.4360   -4.6304 C   0  0  0  0  0  0  0  0  0  0  0  0
    7.2628    7.6460   -3.5269 C   0  0  0  0  0  0  0  0  0  0  0  0
    8.9469    3.8430   -1.0578 C   0  0  0  0  0  0  0  0  0  0  0  0
    9.2527    2.8052   -0.1753 C   0  0  0  0  0  0  0  0  0  0  0  0
    9.5647    1.5654   -0.6279 O   0  0  0  0  0  0  0  0  0  0  0  0
   10.2671    2.3056    3.3151 N   0  0  0  0  0  0  0  0  0  0  0  0
   10.3658    1.1808    4.0331 N   0  0  0  0  0  0  0  0  0  0  0  0
   10.8708    1.1999    4.9108 H   0  0  0  0  0  0  0  0  0  0  0  0
    9.7781    0.0998    3.4511 C   0  0  0  0  0  0  0  0  0  0  0  0
    9.7529   -1.2732    4.0335 C   0  0  0  0  0  0  0  0  0  0  0  0
    6.4537    0.8580    1.6840 C   0  0  0  0  0  0  0  0  0  0  0  0
    5.1300    0.9703    1.2642 C   0  0  0  0  0  0  0  0  0  0  0  0
    1.4429   -0.9351   -2.5863 H   0  0  0  0  0  0  0  0  0  0  0  0
    1.2992    0.7735   -2.0279 H   0  0  0  0  0  0  0  0  0  0  0  0
    0.8403   -0.5545   -0.9299 H   0  0  0  0  0  0  0  0  0  0  0  0
    5.1645   -1.2151   -1.3511 H   0  0  0  0  0  0  0  0  0  0  0  0
    7.5508   -1.4221   -0.6024 H   0  0  0  0  0  0  0  0  0  0  0  0
    9.0288    4.5155    2.7422 H   0  0  0  0  0  0  0  0  0  0  0  0
    8.4982    6.3722    1.2039 H   0  0  0  0  0  0  0  0  0  0  0  0
    8.9448    7.8302   -0.5912 H   0  0  0  0  0  0  0  0  0  0  0  0
    7.2259    7.3933   -0.4449 H   0  0  0  0  0  0  0  0  0  0  0  0
    8.3530   10.0853   -1.4132 H   0  0  0  0  0  0  0  0  0  0  0  0
    7.7524   11.4997   -3.3609 H   0  0  0  0  0  0  0  0  0  0  0  0
    6.5378    7.9773   -5.5395 H   0  0  0  0  0  0  0  0  0  0  0  0
    7.1345    6.5637   -3.5762 H   0  0  0  0  0  0  0  0  0  0  0  0
    8.9355    3.6705   -2.1372 H   0  0  0  0  0  0  0  0  0  0  0  0
    9.4933    1.5451   -1.5910 H   0  0  0  0  0  0  0  0  0  0  0  0
    9.2235   -1.3021    5.0009 H   0  0  0  0  0  0  0  0  0  0  0  0
   10.7697   -1.6691    4.1959 H   0  0  0  0  0  0  0  0  0  0  0  0
    9.2343   -1.9513    3.3423 H   0  0  0  0  0  0  0  0  0  0  0  0
    6.8158    1.4374    2.5336 H   0  0  0  0  0  0  0  0  0  0  0  0
    4.4396    1.6391    1.7820 H   0  0  0  0  0  0  0  0  0  0  0  0
  1  2  1  0
  1 35  1  0
  1 36  1  0
  1 37  1  0
  2  3  1  0
  3  4  2  0
  3  5  1  0
  5  6  2  0
  5 34  1  0
  6  7  1  0
  6 38  1  0
  7  8  2  0
  7 39  1  0
  8  9  1  0
  8 33  1  0
  9 10  1  0
 10 11  1  0
 10 31  2  0
 11 12  1  0
 11 28  2  0
 12 13  2  0
 12 26  1  0
 13 14  1  0
 13 40  1  0
 14 15  2  0
 14 41  1  0
 15 16  1  0
 15 25  1  0
 16 17  1  0
 17 18  1  0
 17 42  1  0
 17 43  1  0
 18 19  2  0
 18 24  1  0
 19 20  1  0
 19 44  1  0
 20 21  2  0
 20 45  1  0
 21 22  1  0
 21 23  1  0
 23 24  2  0
 23 46  1  0
 24 47  1  0
 25 26  2  0
 25 48  1  0
 26 27  1  0
 27 49  1  0
 28 29  1  0
 29 30  1  0
 29 31  1  0
 31 32  1  0
 32 50  1  0
 32 51  1  0
 32 52  1  0
 33 34  2  0
 33 53  1  0
 34 54  1  0
M  END

