
     RDKit          3D

 32 33  0  0  0  0  0  0  0  0999 V2000
    3.5277    0.9769    0.8494 N   0  0  0  0  0  0  0  0  0  0  0  0
    2.9695   -0.2323    1.1810 C   0  0  0  0  0  0  0  0  0  0  0  0
    2.2151   -0.3509    2.1328 O   0  0  0  0  0  0  0  0  0  0  0  0
    3.3260   -1.3953    0.2985 C   0  0  0  0  0  0  0  0  0  0  0  0
    3.0385   -2.6820    0.7709 C   0  0  0  0  0  0  0  0  0  0  0  0
    3.3330   -3.8189    0.0174 C   0  0  0  0  0  0  0  0  0  0  0  0
    3.9183   -3.6772   -1.2523 C   0  0  0  0  0  0  0  0  0  0  0  0
    4.2425   -4.7103   -2.0671 O   0  0  0  0  0  0  0  0  0  0  0  0
    3.9928   -6.0368   -1.6459 C   0  0  0  0  0  0  0  0  0  0  0  0
    4.4322   -7.0129   -2.7114 C   0  0  0  0  0  0  0  0  0  0  0  0
    4.9875   -6.5802   -3.9171 C   0  0  0  0  0  0  0  0  0  0  0  0
    5.3957   -7.4891   -4.9138 C   0  0  0  0  0  0  0  0  0  0  0  0
    5.9879   -7.0356   -6.0814 N   0  0  0  0  0  0  0  0  0  0  0  0
    5.2302   -8.8665   -4.6704 C   0  0  0  0  0  0  0  0  0  0  0  0
    4.6774   -9.3110   -3.4714 C   0  0  0  0  0  0  0  0  0  0  0  0
    4.2810   -8.3935   -2.4982 C   0  0  0  0  0  0  0  0  0  0  0  0
    3.5820   -8.9789   -0.9933 Cl  0  0  0  0  0  0  0  0  0  0  0  0
    4.1944   -2.3894   -1.7467 C   0  0  0  0  0  0  0  0  0  0  0  0
    3.9005   -1.2680   -0.9798 C   0  0  0  0  0  0  0  0  0  0  0  0
    3.3606    1.7384    1.4972 H   0  0  0  0  0  0  0  0  0  0  0  0
    4.3490    1.0355    0.2628 H   0  0  0  0  0  0  0  0  0  0  0  0
    2.5721   -2.7739    1.7538 H   0  0  0  0  0  0  0  0  0  0  0  0
    3.1010   -4.8031    0.4237 H   0  0  0  0  0  0  0  0  0  0  0  0
    2.9166   -6.1792   -1.4335 H   0  0  0  0  0  0  0  0  0  0  0  0
    4.5297   -6.2508   -0.7029 H   0  0  0  0  0  0  0  0  0  0  0  0
    5.1054   -5.5078   -4.0774 H   0  0  0  0  0  0  0  0  0  0  0  0
    5.8175   -6.0700   -6.3354 H   0  0  0  0  0  0  0  0  0  0  0  0
    5.9850   -7.6677   -6.8728 H   0  0  0  0  0  0  0  0  0  0  0  0
    5.5404   -9.5945   -5.4249 H   0  0  0  0  0  0  0  0  0  0  0  0
    4.5489  -10.3788   -3.2852 H   0  0  0  0  0  0  0  0  0  0  0  0
    4.6324   -2.2956   -2.7422 H   0  0  0  0  0  0  0  0  0  0  0  0
    4.0975   -0.2802   -1.4039 H   0  0  0  0  0  0  0  0  0  0  0  0
  1  2  1  0
  1 20  1  0
  1 21  1  0
  2  3  2  0
  2  4  1  0
  4  5  2  0
  4 19  1  0
  5  6  1  0
  5 22  1  0
  6  7  2  0
  6 23  1  0
  7  8  1  0
  7 18  1  0
  8  9  1  0
  9 10  1  0
  9 24  1  0
  9 25  1  0
 10 11  2  0
 10 16  1  0
 11 12  1  0
 11 26  1  0
 12 13  1  0
 12 14  2  0
 13 27  1  0
 13 28  1  0
 14 15  1  0
 14 29  1  0
 15 16  2  0
 15 30  1  0
 16 17  1  0
 18 19  2  0
 18 31  1  0
 19 32  1  0
M  END

