
     RDKit          3D

 30 31  0  0  0  0  0  0  0  0999 V2000
    0.9332    0.2022   -2.4657 C   0  0  0  0  0  0  0  0  0  0  0  0
    2.4270    0.4966   -2.5846 C   0  0  0  0  0  0  0  0  0  0  0  0
    3.1946    0.2191   -1.2760 C   0  0  1  0  0  0  0  0  0  0  0  0
    3.0236   -1.1160   -0.8471 O   0  0  0  0  0  0  0  0  0  0  0  0
    4.6658    0.5218   -1.4216 C   0  0  0  0  0  0  0  0  0  0  0  0
    5.4074    1.6826   -1.3039 C   0  0  0  0  0  0  0  0  0  0  0  0
    6.6778    1.2997   -1.6099 N   0  0  0  0  0  0  0  0  0  0  0  0
    7.9028    2.0848   -1.5817 C   0  0  0  0  0  0  0  0  0  0  0  0
    8.5381    2.1777   -0.2044 C   0  0  0  0  0  0  0  0  0  0  0  0
    8.7595    1.0337    0.5772 C   0  0  0  0  0  0  0  0  0  0  0  0
    9.3676    1.1787    1.8231 C   0  0  0  0  0  0  0  0  0  0  0  0
    9.7349    2.4630    2.2331 C   0  0  0  0  0  0  0  0  0  0  0  0
   10.5694    2.7455    3.9165 Br  0  0  0  0  0  0  0  0  0  0  0  0
    9.4795    3.5481    1.3871 C   0  0  0  0  0  0  0  0  0  0  0  0
    8.8913    3.4012    0.1998 N   0  0  0  0  0  0  0  0  0  0  0  0
    6.7256   -0.0110   -1.8881 N   0  0  0  0  0  0  0  0  0  0  0  0
    5.5185   -0.4774   -1.7803 N   0  0  0  0  0  0  0  0  0  0  0  0
    0.4167    0.3544   -3.4265 H   0  0  0  0  0  0  0  0  0  0  0  0
    0.4536    0.8578   -1.7191 H   0  0  0  0  0  0  0  0  0  0  0  0
    0.7740   -0.8381   -2.1459 H   0  0  0  0  0  0  0  0  0  0  0  0
    2.5942    1.5486   -2.8778 H   0  0  0  0  0  0  0  0  0  0  0  0
    2.8791   -0.1242   -3.3783 H   0  0  0  0  0  0  0  0  0  0  0  0
    2.7727    0.8680   -0.4864 H   0  0  0  0  0  0  0  0  0  0  0  0
    3.7542   -1.6248   -1.2351 H   0  0  0  0  0  0  0  0  0  0  0  0
    5.1513    2.7046   -1.0383 H   0  0  0  0  0  0  0  0  0  0  0  0
    7.6924    3.1029   -1.9337 H   0  0  0  0  0  0  0  0  0  0  0  0
    8.5904    1.6034   -2.2933 H   0  0  0  0  0  0  0  0  0  0  0  0
    8.4573    0.0496    0.2118 H   0  0  0  0  0  0  0  0  0  0  0  0
    9.5560    0.3137    2.4620 H   0  0  0  0  0  0  0  0  0  0  0  0
    9.7584    4.5630    1.6891 H   0  0  0  0  0  0  0  0  0  0  0  0
  1  2  1  0
  1 18  1  0
  1 19  1  0
  1 20  1  0
  2  3  1  0
  2 21  1  0
  2 22  1  0
  3  4  1  0
  3  5  1  0
  3 23  1  1
  4 24  1  0
  5  6  2  0
  5 17  1  0
  6  7  1  0
  6 25  1  0
  7  8  1  0
  7 16  1  0
  8  9  1  0
  8 26  1  0
  8 27  1  0
  9 10  2  0
  9 15  1  0
 10 11  1  0
 10 28  1  0
 11 12  2  0
 11 29  1  0
 12 13  1  0
 12 14  1  0
 14 15  2  0
 14 30  1  0
 16 17  2  0
M  END

