
     RDKit          3D

 96107  0  0  0  0  0  0  0  0999 V2000
    6.1935    2.3965   -2.1153 C   0  0  0  0  0  0  0  0  0  0  0  0
    6.0068    1.8837   -0.6708 C   0  0  1  0  0  0  0  0  0  0  0  0
    7.1656    2.3802    0.2219 C   0  0  0  0  0  0  0  0  0  0  0  0
    4.6495    2.3025   -0.1026 C   0  0  0  0  0  0  0  0  0  0  0  0
    4.1532    3.5863    0.1127 C   0  0  0  0  0  0  0  0  0  0  0  0
    2.8680    3.7428    0.6512 C   0  0  0  0  0  0  0  0  0  0  0  0
    2.0903    2.6221    0.9701 C   0  0  0  0  0  0  0  0  0  0  0  0
    2.5829    1.3305    0.7566 C   0  0  0  0  0  0  0  0  0  0  0  0
    3.8655    1.1739    0.2193 C   0  0  0  0  0  0  0  0  0  0  0  0
    4.6305   -0.0378   -0.1053 C   0  0  0  0  0  0  0  0  0  0  0  0
    4.3012   -1.3849    0.0383 C   0  0  0  0  0  0  0  0  0  0  0  0
    5.2445   -2.3429   -0.3611 C   0  0  0  0  0  0  0  0  0  0  0  0
    5.2568   -3.7926   -0.3370 C   0  0  0  0  0  0  0  0  0  0  0  0
    4.3253   -4.7540    0.0739 C   0  0  0  0  0  0  0  0  0  0  0  0
    4.6384   -6.1098   -0.0622 C   0  0  0  0  0  0  0  0  0  0  0  0
    3.7001   -7.1031    0.3395 N   0  0  0  0  0  0  0  0  0  0  0  0
    2.4422   -7.3160   -0.2280 C   0  0  0  0  0  0  0  0  0  0  0  0
    1.8239   -6.6511   -1.2949 C   0  0  0  0  0  0  0  0  0  0  0  0
    0.5508   -7.0761   -1.6764 C   0  0  0  0  0  0  0  0  0  0  0  0
   -0.0967   -8.1391   -1.0178 C   0  0  0  0  0  0  0  0  0  0  0  0
    0.5259   -8.8033    0.0382 C   0  0  0  0  0  0  0  0  0  0  0  0
    1.8063   -8.3973    0.4424 C   0  0  0  0  0  0  0  0  0  0  0  0
    2.7296   -8.8549    1.4625 C   0  0  0  0  0  0  0  0  0  0  0  0
    2.6800   -9.8630    2.4365 C   0  0  0  0  0  0  0  0  0  0  0  0
    3.7658  -10.0342    3.2943 C   0  0  0  0  0  0  0  0  0  0  0  0
    4.8985   -9.2040    3.1906 C   0  0  0  0  0  0  0  0  0  0  0  0
    4.9746   -8.1937    2.2311 C   0  0  0  0  0  0  0  0  0  0  0  0
    3.8849   -8.0308    1.3659 C   0  0  0  0  0  0  0  0  0  0  0  0
    5.8806   -6.5017   -0.6064 C   0  0  0  0  0  0  0  0  0  0  0  0
    6.8294   -5.5605   -1.0023 C   0  0  0  0  0  0  0  0  0  0  0  0
    6.5134   -4.2037   -0.8581 C   0  0  0  0  0  0  0  0  0  0  0  0
    7.2576   -3.0705   -1.1994 N   0  0  0  0  0  0  0  0  0  0  0  0
    8.5606   -3.0733   -1.7580 C   0  0  0  0  0  0  0  0  0  0  0  0
    8.8184   -2.3955   -2.9609 C   0  0  0  0  0  0  0  0  0  0  0  0
   10.1006   -2.3944   -3.5040 C   0  0  0  0  0  0  0  0  0  0  0  0
   11.1507   -3.0795   -2.8688 C   0  0  0  0  0  0  0  0  0  0  0  0
   12.5161   -3.0823   -3.4542 C   0  0  0  0  0  0  0  0  0  0  0  0
   12.7161   -2.4011   -4.5890 N   0  0  0  0  0  0  0  0  0  0  0  0
   13.9605   -2.4288   -5.0855 C   0  0  0  0  0  0  0  0  0  0  0  0
   14.2309   -1.6886   -6.3449 C   0  0  0  0  0  0  0  0  0  0  0  0
   13.2019   -0.9800   -6.9902 C   0  0  0  0  0  0  0  0  0  0  0  0
   13.4579   -0.2857   -8.1726 C   0  0  0  0  0  0  0  0  0  0  0  0
   14.7432   -0.2897   -8.7255 C   0  0  0  0  0  0  0  0  0  0  0  0
   15.7727   -0.9922   -8.0896 C   0  0  0  0  0  0  0  0  0  0  0  0
   15.5199   -1.6875   -6.9071 C   0  0  0  0  0  0  0  0  0  0  0  0
   14.9735   -3.0872   -4.5079 N   0  0  0  0  0  0  0  0  0  0  0  0
   14.6913   -3.7434   -3.3752 C   0  0  0  0  0  0  0  0  0  0  0  0
   15.7874   -4.4864   -2.7018 C   0  0  0  0  0  0  0  0  0  0  0  0
   17.0839   -4.4901   -3.2462 C   0  0  0  0  0  0  0  0  0  0  0  0
   18.1123   -5.1882   -2.6131 C   0  0  0  0  0  0  0  0  0  0  0  0
   17.8599   -5.8910   -1.4299 C   0  0  0  0  0  0  0  0  0  0  0  0
   16.5726   -5.8926   -0.8818 C   0  0  0  0  0  0  0  0  0  0  0  0
   15.5421   -5.1953   -1.5124 C   0  0  0  0  0  0  0  0  0  0  0  0
   13.4736   -3.7659   -2.8160 N   0  0  0  0  0  0  0  0  0  0  0  0
   10.8844   -3.7617   -1.6693 C   0  0  0  0  0  0  0  0  0  0  0  0
    9.6071   -3.7543   -1.1145 C   0  0  0  0  0  0  0  0  0  0  0  0
    6.4955   -1.9333   -0.9016 C   0  0  0  0  0  0  0  0  0  0  0  0
    6.8368   -0.5775   -1.0332 C   0  0  0  0  0  0  0  0  0  0  0  0
    5.8901    0.3577   -0.6322 C   0  0  0  0  0  0  0  0  0  0  0  0
    7.1462    2.0384   -2.5381 H   0  0  0  0  0  0  0  0  0  0  0  0
    6.2090    3.4980   -2.1395 H   0  0  0  0  0  0  0  0  0  0  0  0
    5.3770    2.0517   -2.7678 H   0  0  0  0  0  0  0  0  0  0  0  0
    7.1986    3.4814    0.2406 H   0  0  0  0  0  0  0  0  0  0  0  0
    8.1355    2.0212   -0.1587 H   0  0  0  0  0  0  0  0  0  0  0  0
    7.0500    2.0235    1.2565 H   0  0  0  0  0  0  0  0  0  0  0  0
    4.7520    4.4680   -0.1326 H   0  0  0  0  0  0  0  0  0  0  0  0
    2.4703    4.7462    0.8236 H   0  0  0  0  0  0  0  0  0  0  0  0
    1.0900    2.7584    1.3893 H   0  0  0  0  0  0  0  0  0  0  0  0
    1.9708    0.4601    1.0073 H   0  0  0  0  0  0  0  0  0  0  0  0
    3.3388   -1.6917    0.4551 H   0  0  0  0  0  0  0  0  0  0  0  0
    3.3623   -4.4600    0.4963 H   0  0  0  0  0  0  0  0  0  0  0  0
    2.3218   -5.8296   -1.8128 H   0  0  0  0  0  0  0  0  0  0  0  0
    0.0480   -6.5724   -2.5062 H   0  0  0  0  0  0  0  0  0  0  0  0
   -1.0943   -8.4458   -1.3410 H   0  0  0  0  0  0  0  0  0  0  0  0
    0.0239   -9.6321    0.5441 H   0  0  0  0  0  0  0  0  0  0  0  0
    1.7993  -10.5046    2.5231 H   0  0  0  0  0  0  0  0  0  0  0  0
    3.7389  -10.8165    4.0566 H   0  0  0  0  0  0  0  0  0  0  0  0
    5.7365   -9.3507    3.8771 H   0  0  0  0  0  0  0  0  0  0  0  0
    5.8533   -7.5505    2.1592 H   0  0  0  0  0  0  0  0  0  0  0  0
    6.0912   -7.5666   -0.7228 H   0  0  0  0  0  0  0  0  0  0  0  0
    7.7811   -5.8818   -1.4272 H   0  0  0  0  0  0  0  0  0  0  0  0
    8.0031   -1.8828   -3.4745 H   0  0  0  0  0  0  0  0  0  0  0  0
   10.3040   -1.8730   -4.4395 H   0  0  0  0  0  0  0  0  0  0  0  0
   12.2048   -0.9847   -6.5495 H   0  0  0  0  0  0  0  0  0  0  0  0
   12.6513    0.2618   -8.6668 H   0  0  0  0  0  0  0  0  0  0  0  0
   14.9426    0.2547   -9.6522 H   0  0  0  0  0  0  0  0  0  0  0  0
   16.7778   -0.9976   -8.5188 H   0  0  0  0  0  0  0  0  0  0  0  0
   16.3132   -2.2389   -6.4020 H   0  0  0  0  0  0  0  0  0  0  0  0
   17.2675   -3.9387   -4.1686 H   0  0  0  0  0  0  0  0  0  0  0  0
   19.1167   -5.1849   -3.0440 H   0  0  0  0  0  0  0  0  0  0  0  0
   18.6667   -6.4378   -0.9348 H   0  0  0  0  0  0  0  0  0  0  0  0
   16.3719   -6.4407    0.0422 H   0  0  0  0  0  0  0  0  0  0  0  0
   14.5348   -5.1890   -1.0955 H   0  0  0  0  0  0  0  0  0  0  0  0
   11.7000   -4.2861   -1.1711 H   0  0  0  0  0  0  0  0  0  0  0  0
    9.4154   -4.2649   -0.1690 H   0  0  0  0  0  0  0  0  0  0  0  0
    7.8081   -0.2743   -1.4277 H   0  0  0  0  0  0  0  0  0  0  0  0
  2  1  1  6
  1 60  1  0
  1 61  1  0
  1 62  1  0
  2  3  1  0
  2  4  1  0
  2 59  1  0
  3 63  1  0
  3 64  1  0
  3 65  1  0
  4  5  2  0
  4  9  1  0
  5  6  1  0
  5 66  1  0
  6  7  2  0
  6 67  1  0
  7  8  1  0
  7 68  1  0
  8  9  2  0
  8 69  1  0
  9 10  1  0
 10 11  2  0
 10 59  1  0
 11 12  1  0
 11 70  1  0
 12 13  1  0
 12 57  2  0
 13 14  2  0
 13 31  1  0
 14 15  1  0
 14 71  1  0
 15 16  1  0
 15 29  2  0
 16 17  1  0
 16 28  1  0
 17 18  2  0
 17 22  1  0
 18 19  1  0
 18 72  1  0
 19 20  2  0
 19 73  1  0
 20 21  1  0
 20 74  1  0
 21 22  2  0
 21 75  1  0
 22 23  1  0
 23 24  1  0
 23 28  2  0
 24 25  2  0
 24 76  1  0
 25 26  1  0
 25 77  1  0
 26 27  2  0
 26 78  1  0
 27 28  1  0
 27 79  1  0
 29 30  1  0
 29 80  1  0
 30 31  2  0
 30 81  1  0
 31 32  1  0
 32 33  1  0
 32 57  1  0
 33 34  2  0
 33 56  1  0
 34 35  1  0
 34 82  1  0
 35 36  2  0
 35 83  1  0
 36 37  1  0
 36 55  1  0
 37 38  2  0
 37 54  1  0
 38 39  1  0
 39 40  1  0
 39 46  2  0
 40 41  2  0
 40 45  1  0
 41 42  1  0
 41 84  1  0
 42 43  2  0
 42 85  1  0
 43 44  1  0
 43 86  1  0
 44 45  2  0
 44 87  1  0
 45 88  1  0
 46 47  1  0
 47 48  1  0
 47 54  2  0
 48 49  2  0
 48 53  1  0
 49 50  1  0
 49 89  1  0
 50 51  2  0
 50 90  1  0
 51 52  1  0
 51 91  1  0
 52 53  2  0
 52 92  1  0
 53 93  1  0
 55 56  2  0
 55 94  1  0
 56 95  1  0
 57 58  1  0
 58 59  2  0
 58 96  1  0
M  END

