
     RDKit          3D

 22 22  0  0  0  0  0  0  0  0999 V2000
    2.1768    1.0801    1.8819 O   0  0  0  0  0  0  0  0  0  0  0  0
    3.2452    1.5686    1.6071 C   0  0  0  0  0  0  0  0  0  0  0  0
    3.4063    2.9184    1.5993 O   0  0  0  0  0  0  0  0  0  0  0  0
    4.3698    0.8511    1.2727 N   0  0  0  0  0  0  0  0  0  0  0  0
    4.3805   -0.6035    1.2621 C   0  0  0  0  0  0  0  0  0  0  0  0
    5.0892   -1.2500    2.4621 C   0  0  1  0  0  0  0  0  0  0  0  0
    6.1524   -0.9517    2.4378 H   0  0  0  0  0  0  0  0  0  0  0  0
    4.4474   -0.8846    3.8326 C   0  0  0  0  0  0  0  0  0  0  0  0
    4.1488   -2.2543    4.4913 C   0  0  0  0  0  0  0  0  0  0  0  0
    3.9765   -3.2103    3.3976 N   0  0  0  0  0  0  0  0  0  0  0  0
    4.9778   -2.8091    2.4123 C   0  0  0  0  0  0  0  0  0  0  0  0
    4.2666    3.1741    1.2393 H   0  0  0  0  0  0  0  0  0  0  0  0
    5.2668    1.3208    1.2271 H   0  0  0  0  0  0  0  0  0  0  0  0
    4.8502   -0.9496    0.3243 H   0  0  0  0  0  0  0  0  0  0  0  0
    3.3259   -0.9157    1.2368 H   0  0  0  0  0  0  0  0  0  0  0  0
    3.5096   -0.3292    3.6762 H   0  0  0  0  0  0  0  0  0  0  0  0
    5.1023   -0.2532    4.4530 H   0  0  0  0  0  0  0  0  0  0  0  0
    3.2647   -2.2406    5.1464 H   0  0  0  0  0  0  0  0  0  0  0  0
    5.0066   -2.5766    5.1093 H   0  0  0  0  0  0  0  0  0  0  0  0
    3.0432   -3.0983    2.9996 H   0  0  0  0  0  0  0  0  0  0  0  0
    4.7212   -3.1926    1.4117 H   0  0  0  0  0  0  0  0  0  0  0  0
    5.9485   -3.2568    2.6883 H   0  0  0  0  0  0  0  0  0  0  0  0
  1  2  2  0
  2  3  1  0
  2  4  1  0
  3 12  1  0
  4  5  1  0
  4 13  1  0
  5  6  1  0
  5 14  1  0
  5 15  1  0
  6  7  1  1
  6  8  1  0
  6 11  1  0
  8  9  1  0
  8 16  1  0
  8 17  1  0
  9 10  1  0
  9 18  1  0
  9 19  1  0
 10 11  1  0
 10 20  1  0
 11 21  1  0
 11 22  1  0
M  END

