
     RDKit          3D

 45 47  0  0  0  0  0  0  0  0999 V2000
   12.8452   -1.4744    0.3501 C   0  0  0  0  0  0  0  0  0  0  0  0
   11.6299   -2.1234   -0.2179 C   0  0  0  0  0  0  0  0  0  0  0  0
   11.6518   -2.8162   -1.3288 N   0  0  0  0  0  0  0  0  0  0  0  0
   10.3300   -3.2293   -1.4843 O   0  0  0  0  0  0  0  0  0  0  0  0
    9.6429   -2.7387   -0.4420 C   0  0  0  0  0  0  0  0  0  0  0  0
    8.1818   -3.0261   -0.3599 C   0  0  0  0  0  0  0  0  0  0  0  0
    7.8632   -4.5244   -0.4348 C   0  0  0  0  0  0  0  0  0  0  0  0
    6.4325   -4.7234   -0.3653 N   0  0  0  0  0  0  0  0  0  0  0  0
    5.8128   -5.9244   -0.4506 C   0  0  0  0  0  0  0  0  0  0  0  0
    6.5550   -7.1248   -0.6468 C   0  0  0  0  0  0  0  0  0  0  0  0
    5.9372   -8.3568   -0.7355 C   0  0  0  0  0  0  0  0  0  0  0  0
    4.5320   -8.4908   -0.6702 C   0  0  0  0  0  0  0  0  0  0  0  0
    3.9611   -9.8832   -0.6520 C   0  0  0  0  0  0  0  0  0  0  0  0
    4.5874  -10.7739   -0.0911 O   0  0  0  0  0  0  0  0  0  0  0  0
    2.7335  -10.1105   -1.2355 N   0  0  0  0  0  0  0  0  0  0  0  0
    2.0806   -9.2853   -2.2491 C   0  0  0  0  0  0  0  0  0  0  0  0
    1.8644  -10.0986   -3.5308 C   0  0  0  0  0  0  0  0  0  0  0  0
    1.1796  -11.3046   -3.2808 O   0  0  0  0  0  0  0  0  0  0  0  0
    1.8830  -12.1231   -2.3646 C   0  0  0  0  0  0  0  0  0  0  0  0
    2.0874  -11.4078   -1.0320 C   0  0  0  0  0  0  0  0  0  0  0  0
    3.7830   -7.3397   -0.4583 C   0  0  0  0  0  0  0  0  0  0  0  0
    4.3920   -6.0804   -0.3470 C   0  0  0  0  0  0  0  0  0  0  0  0
    3.5055   -4.9492   -0.1152 N   0  0  0  0  0  0  0  0  0  0  0  0
    4.0003   -3.8196   -0.0075 O   0  0  0  0  0  0  0  0  0  0  0  0
    2.3043   -5.1510   -0.0384 O   0  0  0  0  0  0  0  0  0  0  0  0
   10.3844   -2.0532    0.3731 N   0  0  0  0  0  0  0  0  0  0  0  0
   13.7163   -1.6680   -0.2889 H   0  0  0  0  0  0  0  0  0  0  0  0
   13.0428   -1.8589    1.3628 H   0  0  0  0  0  0  0  0  0  0  0  0
   12.6902   -0.3877    0.4360 H   0  0  0  0  0  0  0  0  0  0  0  0
    7.6667   -2.5055   -1.1863 H   0  0  0  0  0  0  0  0  0  0  0  0
    7.8168   -2.5945    0.5832 H   0  0  0  0  0  0  0  0  0  0  0  0
    8.3778   -5.0526    0.3905 H   0  0  0  0  0  0  0  0  0  0  0  0
    8.2702   -4.9356   -1.3754 H   0  0  0  0  0  0  0  0  0  0  0  0
    5.8079   -3.9382   -0.1857 H   0  0  0  0  0  0  0  0  0  0  0  0
    7.6409   -7.0696   -0.7155 H   0  0  0  0  0  0  0  0  0  0  0  0
    6.5387   -9.2611   -0.8479 H   0  0  0  0  0  0  0  0  0  0  0  0
    2.6946   -8.4070   -2.4801 H   0  0  0  0  0  0  0  0  0  0  0  0
    1.1022   -8.9327   -1.8725 H   0  0  0  0  0  0  0  0  0  0  0  0
    2.8500  -10.3039   -3.9997 H   0  0  0  0  0  0  0  0  0  0  0  0
    1.2571   -9.5209   -4.2447 H   0  0  0  0  0  0  0  0  0  0  0  0
    2.8677  -12.4129   -2.7856 H   0  0  0  0  0  0  0  0  0  0  0  0
    1.2850  -13.0363   -2.2242 H   0  0  0  0  0  0  0  0  0  0  0  0
    2.7188  -11.9999   -0.3581 H   0  0  0  0  0  0  0  0  0  0  0  0
    1.1031  -11.2429   -0.5559 H   0  0  0  0  0  0  0  0  0  0  0  0
    2.7007   -7.3712   -0.3452 H   0  0  0  0  0  0  0  0  0  0  0  0
  1  2  1  0
  1 27  1  0
  1 28  1  0
  1 29  1  0
  2  3  2  0
  2 26  1  0
  3  4  1  0
  4  5  1  0
  5  6  1  0
  5 26  2  0
  6  7  1  0
  6 30  1  0
  6 31  1  0
  7  8  1  0
  7 32  1  0
  7 33  1  0
  8  9  1  0
  8 34  1  0
  9 10  2  0
  9 22  1  0
 10 11  1  0
 10 35  1  0
 11 12  2  0
 11 36  1  0
 12 13  1  0
 12 21  1  0
 13 14  2  0
 13 15  1  0
 15 16  1  0
 15 20  1  0
 16 17  1  0
 16 37  1  0
 16 38  1  0
 17 18  1  0
 17 39  1  0
 17 40  1  0
 18 19  1  0
 19 20  1  0
 19 41  1  0
 19 42  1  0
 20 43  1  0
 20 44  1  0
 21 22  2  0
 21 45  1  0
 22 23  1  0
 23 24  2  0
 23 25  1  0
M  CHG  2  23   1  25  -1
M  END

