
     RDKit          3D

 42 43  0  0  0  0  0  0  0  0999 V2000
    0.9590   -0.0068    0.3814 C   0  0  0  0  0  0  0  0  0  0  0  0
    2.4241    0.0415    0.0191 C   0  0  0  0  0  0  0  0  0  0  0  0
    3.0569    1.2366   -0.3333 C   0  0  0  0  0  0  0  0  0  0  0  0
    4.4153    1.2519   -0.6656 C   0  0  0  0  0  0  0  0  0  0  0  0
    5.1902    0.0870   -0.6596 C   0  0  0  0  0  0  0  0  0  0  0  0
    6.6538    0.1465   -1.0281 C   0  0  0  0  0  0  0  0  0  0  0  0
    4.5618   -1.1351   -0.3033 C   0  0  0  0  0  0  0  0  0  0  0  0
    5.3975   -2.4110   -0.2421 C   0  0  1  0  0  0  0  0  0  0  0  0
    6.3352   -2.3404    0.8382 O   0  0  0  0  0  0  0  0  0  0  0  0
    4.6112   -3.7268   -0.1908 C   0  0  0  0  0  0  0  0  0  0  0  0
    5.5207   -4.9526   -0.2999 C   0  0  0  0  0  0  0  0  0  0  0  0
    4.7753   -6.2794   -0.1457 C   0  0  0  0  0  0  0  0  0  0  0  0
    5.6595   -7.4842   -0.4692 C   0  0  0  0  0  0  0  0  0  0  0  0
    6.4865   -7.4663   -1.3626 O   0  0  0  0  0  0  0  0  0  0  0  0
    5.4411   -8.5921    0.3120 N   0  0  0  0  0  0  0  0  0  0  0  0
    6.0813   -9.8490    0.0606 C   0  0  1  0  0  0  0  0  0  0  0  0
    7.5286  -10.0241    0.4325 C   0  0  0  0  0  0  0  0  0  0  0  0
    6.4559  -10.7022    1.2451 C   0  0  0  0  0  0  0  0  0  0  0  0
    3.2008   -1.1301    0.0251 C   0  0  0  0  0  0  0  0  0  0  0  0
    0.4944    0.9885    0.3189 H   0  0  0  0  0  0  0  0  0  0  0  0
    0.8090   -0.3822    1.4079 H   0  0  0  0  0  0  0  0  0  0  0  0
    0.4000   -0.6802   -0.2902 H   0  0  0  0  0  0  0  0  0  0  0  0
    2.4860    2.1696   -0.3507 H   0  0  0  0  0  0  0  0  0  0  0  0
    4.8870    2.2002   -0.9393 H   0  0  0  0  0  0  0  0  0  0  0  0
    6.9838    1.1857   -1.1708 H   0  0  0  0  0  0  0  0  0  0  0  0
    6.8558   -0.3968   -1.9680 H   0  0  0  0  0  0  0  0  0  0  0  0
    7.2766   -0.3234   -0.2532 H   0  0  0  0  0  0  0  0  0  0  0  0
    6.0321   -2.4474   -1.1433 H   0  0  0  0  0  0  0  0  0  0  0  0
    5.8408   -2.0931    1.6323 H   0  0  0  0  0  0  0  0  0  0  0  0
    3.8658   -3.7382   -1.0052 H   0  0  0  0  0  0  0  0  0  0  0  0
    4.0399   -3.7715    0.7552 H   0  0  0  0  0  0  0  0  0  0  0  0
    6.3136   -4.8769    0.4614 H   0  0  0  0  0  0  0  0  0  0  0  0
    6.0335   -4.9606   -1.2754 H   0  0  0  0  0  0  0  0  0  0  0  0
    3.9253   -6.3124   -0.8531 H   0  0  0  0  0  0  0  0  0  0  0  0
    4.3407   -6.3731    0.8649 H   0  0  0  0  0  0  0  0  0  0  0  0
    4.6618   -8.5774    0.9600 H   0  0  0  0  0  0  0  0  0  0  0  0
    5.7463  -10.3680   -0.8468 H   0  0  0  0  0  0  0  0  0  0  0  0
    8.0342   -9.1604    0.8704 H   0  0  0  0  0  0  0  0  0  0  0  0
    8.1519  -10.6288   -0.2312 H   0  0  0  0  0  0  0  0  0  0  0  0
    6.2443  -10.3014    2.2412 H   0  0  0  0  0  0  0  0  0  0  0  0
    6.3266  -11.7843    1.1578 H   0  0  0  0  0  0  0  0  0  0  0  0
    2.7105   -2.0681    0.2958 H   0  0  0  0  0  0  0  0  0  0  0  0
  1  2  1  0
  1 20  1  0
  1 21  1  0
  1 22  1  0
  2  3  2  0
  2 19  1  0
  3  4  1  0
  3 23  1  0
  4  5  2  0
  4 24  1  0
  5  6  1  0
  5  7  1  0
  6 25  1  0
  6 26  1  0
  6 27  1  0
  7  8  1  0
  7 19  2  0
  8  9  1  0
  8 10  1  0
  8 28  1  6
  9 29  1  0
 10 11  1  0
 10 30  1  0
 10 31  1  0
 11 12  1  0
 11 32  1  0
 11 33  1  0
 12 13  1  0
 12 34  1  0
 12 35  1  0
 13 14  2  0
 13 15  1  0
 15 16  1  0
 15 36  1  0
 16 17  1  0
 16 18  1  0
 16 37  1  6
 17 18  1  0
 17 38  1  0
 17 39  1  0
 18 40  1  0
 18 41  1  0
 19 42  1  0
M  END

