
     RDKit          3D

 42 44  0  0  0  0  0  0  0  0999 V2000
    2.1165   -0.2544   -1.2989 C   0  0  0  0  0  0  0  0  0  0  0  0
    3.4777   -0.0895   -0.6219 C   0  0  1  0  0  0  0  0  0  0  0  0
    3.3992    1.0812    0.1740 O   0  0  0  0  0  0  0  0  0  0  0  0
    4.6433    1.6610    0.5747 C   0  0  1  0  0  0  0  0  0  0  0  0
    5.2081    2.5755   -0.5265 C   0  0  0  0  0  0  0  0  0  0  0  0
    4.3306    3.8138   -0.7283 C   0  0  0  0  0  0  0  0  0  0  0  0
    4.1808    4.5233    0.5376 N   0  0  0  0  0  0  0  0  0  0  0  0
    3.5321    3.7109    1.5623 C   0  0  0  0  0  0  0  0  0  0  0  0
    4.3848    2.4722    1.8486 C   0  0  0  0  0  0  0  0  0  0  0  0
    3.8606   -1.3189    0.1965 C   0  0  0  0  0  0  0  0  0  0  0  0
    3.3663   -1.4982    1.4962 C   0  0  0  0  0  0  0  0  0  0  0  0
    3.6826   -2.6412    2.2297 C   0  0  0  0  0  0  0  0  0  0  0  0
    4.4926   -3.6385    1.6681 C   0  0  0  0  0  0  0  0  0  0  0  0
    4.9909   -3.4861    0.3585 C   0  0  0  0  0  0  0  0  0  0  0  0
    4.6744   -2.3224   -0.3477 C   0  0  0  0  0  0  0  0  0  0  0  0
    5.8085   -4.6177   -0.2196 C   0  0  0  0  0  0  0  0  0  0  0  0
    6.6517   -5.3004    0.8630 C   0  0  0  0  0  0  0  0  0  0  0  0
    5.8390   -5.6773    2.0936 C   0  0  0  0  0  0  0  0  0  0  0  0
    6.0724   -6.6421    2.7937 O   0  0  0  0  0  0  0  0  0  0  0  0
    4.8156   -4.7977    2.3904 N   0  0  0  0  0  0  0  0  0  0  0  0
    1.8861    0.6323   -1.9093 H   0  0  0  0  0  0  0  0  0  0  0  0
    1.3271   -0.3676   -0.5398 H   0  0  0  0  0  0  0  0  0  0  0  0
    2.1062   -1.1457   -1.9440 H   0  0  0  0  0  0  0  0  0  0  0  0
    4.2427    0.0404   -1.4131 H   0  0  0  0  0  0  0  0  0  0  0  0
    5.3659    0.8537    0.7967 H   0  0  0  0  0  0  0  0  0  0  0  0
    5.3081    2.0202   -1.4739 H   0  0  0  0  0  0  0  0  0  0  0  0
    6.2214    2.8944   -0.2291 H   0  0  0  0  0  0  0  0  0  0  0  0
    3.3563    3.4897   -1.1580 H   0  0  0  0  0  0  0  0  0  0  0  0
    4.8005    4.4891   -1.4622 H   0  0  0  0  0  0  0  0  0  0  0  0
    3.6708    5.3932    0.3982 H   0  0  0  0  0  0  0  0  0  0  0  0
    2.5121    3.3781    1.2689 H   0  0  0  0  0  0  0  0  0  0  0  0
    3.4279    4.3124    2.4803 H   0  0  0  0  0  0  0  0  0  0  0  0
    3.8959    1.8301    2.5982 H   0  0  0  0  0  0  0  0  0  0  0  0
    5.3562    2.7941    2.2595 H   0  0  0  0  0  0  0  0  0  0  0  0
    2.7407   -0.7207    1.9401 H   0  0  0  0  0  0  0  0  0  0  0  0
    3.3052   -2.7628    3.2490 H   0  0  0  0  0  0  0  0  0  0  0  0
    5.0731   -2.2002   -1.3606 H   0  0  0  0  0  0  0  0  0  0  0  0
    6.4491   -4.2552   -1.0382 H   0  0  0  0  0  0  0  0  0  0  0  0
    5.1249   -5.3638   -0.6682 H   0  0  0  0  0  0  0  0  0  0  0  0
    7.4503   -4.6174    1.2071 H   0  0  0  0  0  0  0  0  0  0  0  0
    7.1425   -6.2143    0.5018 H   0  0  0  0  0  0  0  0  0  0  0  0
    4.3280   -4.9864    3.2614 H   0  0  0  0  0  0  0  0  0  0  0  0
  1  2  1  0
  1 21  1  0
  1 22  1  0
  1 23  1  0
  2  3  1  0
  2 10  1  0
  2 24  1  6
  3  4  1  0
  4  5  1  0
  4  9  1  0
  4 25  1  1
  5  6  1  0
  5 26  1  0
  5 27  1  0
  6  7  1  0
  6 28  1  0
  6 29  1  0
  7  8  1  0
  7 30  1  0
  8  9  1  0
  8 31  1  0
  8 32  1  0
  9 33  1  0
  9 34  1  0
 10 11  2  0
 10 15  1  0
 11 12  1  0
 11 35  1  0
 12 13  2  0
 12 36  1  0
 13 14  1  0
 13 20  1  0
 14 15  2  0
 14 16  1  0
 15 37  1  0
 16 17  1  0
 16 38  1  0
 16 39  1  0
 17 18  1  0
 17 40  1  0
 17 41  1  0
 18 19  2  0
 18 20  1  0
 20 42  1  0
M  END

