
     RDKit          3D

 36 36  0  0  0  0  0  0  0  0999 V2000
    2.0240   -0.4987   -1.0776 C   0  0  0  0  0  0  0  0  0  0  0  0
    2.1140    0.0515    0.3559 C   0  0  0  0  0  0  0  0  0  0  0  0
    2.7710    1.4168    0.4253 C   0  0  0  0  0  0  0  0  0  0  0  0
    2.0147    2.5883    0.6378 C   0  0  0  0  0  0  0  0  0  0  0  0
    0.5367    2.5440    0.9529 C   0  0  0  0  0  0  0  0  0  0  0  0
    2.5468    3.8157    0.5571 N   0  0  0  0  0  0  0  0  0  0  0  0
    3.8415    3.9138    0.2394 C   0  0  0  0  0  0  0  0  0  0  0  0
    4.4156    5.3016    0.0859 C   0  0  0  0  0  0  0  0  0  0  0  0
    4.2361    6.1756    1.3348 C   0  0  0  0  0  0  0  0  0  0  0  0
    4.7371    7.5995    1.1457 C   0  0  0  0  0  0  0  0  0  0  0  0
    4.0065    8.2212    0.1142 O   0  0  0  0  0  0  0  0  0  0  0  0
    4.4137    9.5312   -0.1635 C   0  0  0  0  0  0  0  0  0  0  0  0
    4.6584    2.8789    0.0621 N   0  0  0  0  0  0  0  0  0  0  0  0
    4.1500    1.6397    0.1669 C   0  0  0  0  0  0  0  0  0  0  0  0
    5.0968    0.6504   -0.0508 N   0  0  0  0  0  0  0  0  0  0  0  0
    5.1441   -0.5860    0.5942 N   0  0  0  0  0  0  0  0  0  0  0  0
    1.5571   -1.4971   -1.0914 H   0  0  0  0  0  0  0  0  0  0  0  0
    3.0198   -0.5788   -1.5429 H   0  0  0  0  0  0  0  0  0  0  0  0
    1.4224    0.1656   -1.7181 H   0  0  0  0  0  0  0  0  0  0  0  0
    2.6493   -0.6735    0.9867 H   0  0  0  0  0  0  0  0  0  0  0  0
    1.1020    0.1103    0.7791 H   0  0  0  0  0  0  0  0  0  0  0  0
    0.3262    1.9570    1.8617 H   0  0  0  0  0  0  0  0  0  0  0  0
   -0.0425    2.0916    0.1311 H   0  0  0  0  0  0  0  0  0  0  0  0
    0.1813    3.5708    1.1041 H   0  0  0  0  0  0  0  0  0  0  0  0
    3.9058    5.8014   -0.7545 H   0  0  0  0  0  0  0  0  0  0  0  0
    5.4800    5.2059   -0.1763 H   0  0  0  0  0  0  0  0  0  0  0  0
    4.7736    5.7300    2.1900 H   0  0  0  0  0  0  0  0  0  0  0  0
    3.1678    6.1989    1.6023 H   0  0  0  0  0  0  0  0  0  0  0  0
    5.8221    7.5983    0.8999 H   0  0  0  0  0  0  0  0  0  0  0  0
    4.6266    8.1689    2.0935 H   0  0  0  0  0  0  0  0  0  0  0  0
    3.7827    9.9177   -0.9777 H   0  0  0  0  0  0  0  0  0  0  0  0
    5.4743    9.5798   -0.4874 H   0  0  0  0  0  0  0  0  0  0  0  0
    4.3004   10.1993    0.7157 H   0  0  0  0  0  0  0  0  0  0  0  0
    6.0162    1.0604   -0.1984 H   0  0  0  0  0  0  0  0  0  0  0  0
    4.5628   -1.2755    0.1209 H   0  0  0  0  0  0  0  0  0  0  0  0
    4.8553   -0.5204    1.5715 H   0  0  0  0  0  0  0  0  0  0  0  0
  1  2  1  0
  1 17  1  0
  1 18  1  0
  1 19  1  0
  2  3  1  0
  2 20  1  0
  2 21  1  0
  3  4  2  0
  3 14  1  0
  4  5  1  0
  4  6  1  0
  5 22  1  0
  5 23  1  0
  5 24  1  0
  6  7  2  0
  7  8  1  0
  7 13  1  0
  8  9  1  0
  8 25  1  0
  8 26  1  0
  9 10  1  0
  9 27  1  0
  9 28  1  0
 10 11  1  0
 10 29  1  0
 10 30  1  0
 11 12  1  0
 12 31  1  0
 12 32  1  0
 12 33  1  0
 13 14  2  0
 14 15  1  0
 15 16  1  0
 15 34  1  0
 16 35  1  0
 16 36  1  0
M  END

