
     RDKit          3D

 47 48  0  0  0  0  0  0  0  0999 V2000
    1.1002   -5.0176    6.1984 C   0  0  0  0  0  0  0  0  0  0  0  0
    2.6096   -5.0394    5.9535 C   0  0  0  0  0  0  0  0  0  0  0  0
    3.1153   -3.8416    5.1432 C   0  0  0  0  0  0  0  0  0  0  0  0
    4.6254   -3.8591    4.8936 C   0  0  0  0  0  0  0  0  0  0  0  0
    5.1104   -2.6545    4.0778 C   0  0  0  0  0  0  0  0  0  0  0  0
    6.5414   -2.6502    3.8506 N   0  0  0  0  0  0  0  0  0  0  0  0
    7.1061   -2.9013    2.6445 C   0  0  0  0  0  0  0  0  0  0  0  0
    6.4936   -3.1224    1.6099 O   0  0  0  0  0  0  0  0  0  0  0  0
    8.6244   -2.8796    2.6663 C   0  0  0  0  0  0  0  0  0  0  0  0
    9.3175   -3.1248    1.4772 C   0  0  0  0  0  0  0  0  0  0  0  0
   10.7159   -3.0833    1.4917 C   0  0  0  0  0  0  0  0  0  0  0  0
   11.4450   -3.3673    0.1980 C   0  0  0  0  0  0  0  0  0  0  0  0
   10.9291   -4.0344   -0.6787 O   0  0  0  0  0  0  0  0  0  0  0  0
   12.7009   -2.8051    0.1095 N   0  0  0  0  0  0  0  0  0  0  0  0
   13.6360   -2.8978   -0.9355 C   0  0  0  0  0  0  0  0  0  0  0  0
   14.8379   -2.1773   -0.7961 C   0  0  0  0  0  0  0  0  0  0  0  0
   15.8141   -2.2253   -1.7853 C   0  0  0  0  0  0  0  0  0  0  0  0
   15.6099   -2.9968   -2.9358 C   0  0  0  0  0  0  0  0  0  0  0  0
   16.6881   -3.0950   -3.9827 C   0  0  1  0  0  0  0  0  0  0  0  0
   17.4251   -1.9703   -4.0477 F   0  0  0  0  0  0  0  0  0  0  0  0
   17.5443   -4.1047   -3.7255 F   0  0  0  0  0  0  0  0  0  0  0  0
   16.1801   -3.3186   -5.2073 F   0  0  0  0  0  0  0  0  0  0  0  0
   14.4150   -3.7101   -3.0787 C   0  0  0  0  0  0  0  0  0  0  0  0
   13.4283   -3.6686   -2.0942 C   0  0  0  0  0  0  0  0  0  0  0  0
   11.3539   -2.8286    2.7147 C   0  0  0  0  0  0  0  0  0  0  0  0
   10.5699   -2.6121    3.8526 C   0  0  0  0  0  0  0  0  0  0  0  0
    9.2382   -2.6287    3.8304 N   0  0  0  0  0  0  0  0  0  0  0  0
    0.7724   -5.8922    6.7826 H   0  0  0  0  0  0  0  0  0  0  0  0
    0.5399   -5.0233    5.2485 H   0  0  0  0  0  0  0  0  0  0  0  0
    0.7966   -4.1141    6.7536 H   0  0  0  0  0  0  0  0  0  0  0  0
    2.8854   -5.9726    5.4297 H   0  0  0  0  0  0  0  0  0  0  0  0
    3.1408   -5.0720    6.9223 H   0  0  0  0  0  0  0  0  0  0  0  0
    2.8398   -2.9064    5.6664 H   0  0  0  0  0  0  0  0  0  0  0  0
    2.5861   -3.8084    4.1728 H   0  0  0  0  0  0  0  0  0  0  0  0
    4.9082   -4.7838    4.3608 H   0  0  0  0  0  0  0  0  0  0  0  0
    5.1605   -3.8843    5.8611 H   0  0  0  0  0  0  0  0  0  0  0  0
    4.8197   -1.7174    4.5865 H   0  0  0  0  0  0  0  0  0  0  0  0
    4.6342   -2.6514    3.0861 H   0  0  0  0  0  0  0  0  0  0  0  0
    7.1905   -2.5044    4.6194 H   0  0  0  0  0  0  0  0  0  0  0  0
    8.7656   -3.3421    0.5625 H   0  0  0  0  0  0  0  0  0  0  0  0
   12.9681   -2.1874    0.8664 H   0  0  0  0  0  0  0  0  0  0  0  0
   15.0062   -1.5700    0.0982 H   0  0  0  0  0  0  0  0  0  0  0  0
   16.7371   -1.6551   -1.6661 H   0  0  0  0  0  0  0  0  0  0  0  0
   14.2443   -4.3044   -3.9784 H   0  0  0  0  0  0  0  0  0  0  0  0
   12.4974   -4.2171   -2.2127 H   0  0  0  0  0  0  0  0  0  0  0  0
   12.4423   -2.8292    2.8110 H   0  0  0  0  0  0  0  0  0  0  0  0
   11.0461   -2.4225    4.8211 H   0  0  0  0  0  0  0  0  0  0  0  0
  1  2  1  0
  1 28  1  0
  1 29  1  0
  1 30  1  0
  2  3  1  0
  2 31  1  0
  2 32  1  0
  3  4  1  0
  3 33  1  0
  3 34  1  0
  4  5  1  0
  4 35  1  0
  4 36  1  0
  5  6  1  0
  5 37  1  0
  5 38  1  0
  6  7  1  0
  6 39  1  0
  7  8  2  0
  7  9  1  0
  9 10  2  0
  9 27  1  0
 10 11  1  0
 10 40  1  0
 11 12  1  0
 11 25  2  0
 12 13  2  0
 12 14  1  0
 14 15  1  0
 14 41  1  0
 15 16  2  0
 15 24  1  0
 16 17  1  0
 16 42  1  0
 17 18  2  0
 17 43  1  0
 18 19  1  0
 18 23  1  0
 19 20  1  6
 19 21  1  0
 19 22  1  0
 23 24  2  0
 23 44  1  0
 24 45  1  0
 25 26  1  0
 25 46  1  0
 26 27  2  0
 26 47  1  0
M  END

