
     RDKit          3D

 32 33  0  0  0  0  0  0  0  0999 V2000
    1.9968   -1.5621    1.5785 C   0  0  0  0  0  0  0  0  0  0  0  0
    2.7050   -0.4200    0.9283 C   0  0  0  0  0  0  0  0  0  0  0  0
    4.0871   -0.3462    0.8350 N   0  0  0  0  0  0  0  0  0  0  0  0
    4.7378   -1.0364    1.1886 H   0  0  0  0  0  0  0  0  0  0  0  0
    4.4189    0.8086    0.1765 C   0  0  0  0  0  0  0  0  0  0  0  0
    5.8439    1.2512   -0.0634 C   0  0  1  0  0  0  0  0  0  0  0  0
    6.7824    0.0886   -0.4627 C   0  0  0  0  0  0  0  0  0  0  0  0
    6.5148   -0.4230   -1.8843 C   0  0  0  0  0  0  0  0  0  0  0  0
    6.6029    0.7149   -2.9100 C   0  0  0  0  0  0  0  0  0  0  0  0
    5.6688    1.8752   -2.5423 C   0  0  0  0  0  0  0  0  0  0  0  0
    5.9154    2.3790   -1.1135 C   0  0  0  0  0  0  0  0  0  0  0  0
    3.3277    1.4720   -0.1437 N   0  0  0  0  0  0  0  0  0  0  0  0
    2.2596    0.7301    0.3115 C   0  0  0  0  0  0  0  0  0  0  0  0
    0.8735    1.2625    0.0757 C   0  0  0  0  0  0  0  0  0  0  0  0
    0.7612    1.8392   -1.2051 O   0  0  0  0  0  0  0  0  0  0  0  0
    2.3192   -2.5344    1.1668 H   0  0  0  0  0  0  0  0  0  0  0  0
    0.9131   -1.4786    1.4157 H   0  0  0  0  0  0  0  0  0  0  0  0
    2.1634   -1.5942    2.6700 H   0  0  0  0  0  0  0  0  0  0  0  0
    6.2135    1.6620    0.8958 H   0  0  0  0  0  0  0  0  0  0  0  0
    6.7215   -0.7392    0.2664 H   0  0  0  0  0  0  0  0  0  0  0  0
    7.8216    0.4565   -0.3991 H   0  0  0  0  0  0  0  0  0  0  0  0
    5.5089   -0.8785   -1.9288 H   0  0  0  0  0  0  0  0  0  0  0  0
    7.2302   -1.2245   -2.1348 H   0  0  0  0  0  0  0  0  0  0  0  0
    6.3671    0.3370   -3.9191 H   0  0  0  0  0  0  0  0  0  0  0  0
    7.6459    1.0814   -2.9522 H   0  0  0  0  0  0  0  0  0  0  0  0
    4.6197    1.5463   -2.6307 H   0  0  0  0  0  0  0  0  0  0  0  0
    5.7958    2.7071   -3.2555 H   0  0  0  0  0  0  0  0  0  0  0  0
    5.1883    3.1628   -0.8561 H   0  0  0  0  0  0  0  0  0  0  0  0
    6.9205    2.8331   -1.0538 H   0  0  0  0  0  0  0  0  0  0  0  0
    0.6256    2.0044    0.8667 H   0  0  0  0  0  0  0  0  0  0  0  0
    0.1266    0.4550    0.1604 H   0  0  0  0  0  0  0  0  0  0  0  0
    1.6220    2.2555   -1.3725 H   0  0  0  0  0  0  0  0  0  0  0  0
  1  2  1  0
  1 16  1  0
  1 17  1  0
  1 18  1  0
  2  3  1  0
  2 13  2  0
  3  4  1  0
  3  5  1  0
  5  6  1  0
  5 12  2  0
  6  7  1  0
  6 11  1  0
  6 19  1  1
  7  8  1  0
  7 20  1  0
  7 21  1  0
  8  9  1  0
  8 22  1  0
  8 23  1  0
  9 10  1  0
  9 24  1  0
  9 25  1  0
 10 11  1  0
 10 26  1  0
 10 27  1  0
 11 28  1  0
 11 29  1  0
 12 13  1  0
 13 14  1  0
 14 15  1  0
 14 30  1  0
 14 31  1  0
 15 32  1  0
M  END

