
     RDKit          3D

 42 43  0  0  0  0  0  0  0  0999 V2000
    2.2295   -0.4987    1.1793 C   0  0  0  0  0  0  0  0  0  0  0  0
    3.4084   -0.1156    0.2804 C   0  0  0  0  0  0  0  0  0  0  0  0
    3.3567   -0.6401   -1.1700 C   0  0  1  0  0  0  0  0  0  0  0  0
    2.0798   -0.1793   -1.9236 C   0  0  0  0  0  0  0  0  0  0  0  0
    1.8511    1.3310   -2.0196 C   0  0  0  0  0  0  0  0  0  0  0  0
    4.6405   -0.2574   -1.9519 C   0  0  0  0  0  0  0  0  0  0  0  0
    4.7514   -1.2957   -3.0742 C   0  0  0  0  0  0  0  0  0  0  0  0
    4.0527   -2.4679   -2.5339 N   0  0  0  0  0  0  0  0  0  0  0  0
    3.8345   -3.5443   -3.3483 C   0  0  0  0  0  0  0  0  0  0  0  0
    4.2295   -3.5547   -4.5077 O   0  0  0  0  0  0  0  0  0  0  0  0
    3.1140   -4.7318   -2.7563 C   0  0  0  0  0  0  0  0  0  0  0  0
    3.6260   -5.3656   -1.6218 C   0  0  0  0  0  0  0  0  0  0  0  0
    3.0119   -6.5257   -1.1219 C   0  0  0  0  0  0  0  0  0  0  0  0
    3.4657   -7.1682    0.0210 N   0  0  0  0  0  0  0  0  0  0  0  0
    1.8709   -6.9710   -1.8175 C   0  0  0  0  0  0  0  0  0  0  0  0
    1.3789   -6.3675   -2.8939 N   0  0  0  0  0  0  0  0  0  0  0  0
    1.9695   -5.2732   -3.3883 C   0  0  0  0  0  0  0  0  0  0  0  0
    1.3665   -4.6639   -4.6297 C   0  0  0  0  0  0  0  0  0  0  0  0
    3.4461   -2.1870   -1.2302 C   0  0  0  0  0  0  0  0  0  0  0  0
    2.3874   -0.1280    2.2045 H   0  0  0  0  0  0  0  0  0  0  0  0
    2.1000   -1.5916    1.2443 H   0  0  0  0  0  0  0  0  0  0  0  0
    1.2778   -0.0738    0.8233 H   0  0  0  0  0  0  0  0  0  0  0  0
    4.3430   -0.4843    0.7394 H   0  0  0  0  0  0  0  0  0  0  0  0
    3.5080    0.9833    0.2575 H   0  0  0  0  0  0  0  0  0  0  0  0
    1.2044   -0.6425   -1.4375 H   0  0  0  0  0  0  0  0  0  0  0  0
    2.1023   -0.6047   -2.9412 H   0  0  0  0  0  0  0  0  0  0  0  0
    1.7096    1.7944   -1.0304 H   0  0  0  0  0  0  0  0  0  0  0  0
    0.9468    1.5453   -2.6110 H   0  0  0  0  0  0  0  0  0  0  0  0
    2.6891    1.8505   -2.5116 H   0  0  0  0  0  0  0  0  0  0  0  0
    5.5092   -0.3350   -1.2769 H   0  0  0  0  0  0  0  0  0  0  0  0
    4.6235    0.7733   -2.3350 H   0  0  0  0  0  0  0  0  0  0  0  0
    5.7926   -1.5441   -3.3355 H   0  0  0  0  0  0  0  0  0  0  0  0
    4.2670   -0.9733   -4.0113 H   0  0  0  0  0  0  0  0  0  0  0  0
    4.5181   -4.9677   -1.1290 H   0  0  0  0  0  0  0  0  0  0  0  0
    4.4429   -7.0339    0.2552 H   0  0  0  0  0  0  0  0  0  0  0  0
    3.1649   -8.1293    0.1395 H   0  0  0  0  0  0  0  0  0  0  0  0
    1.3434   -7.8699   -1.4694 H   0  0  0  0  0  0  0  0  0  0  0  0
    0.4574   -5.2203   -4.8926 H   0  0  0  0  0  0  0  0  0  0  0  0
    2.0789   -4.6966   -5.4674 H   0  0  0  0  0  0  0  0  0  0  0  0
    1.1044   -3.6028   -4.4810 H   0  0  0  0  0  0  0  0  0  0  0  0
    4.0816   -2.5585   -0.4038 H   0  0  0  0  0  0  0  0  0  0  0  0
    2.4680   -2.6793   -1.1385 H   0  0  0  0  0  0  0  0  0  0  0  0
  1  2  1  0
  1 20  1  0
  1 21  1  0
  1 22  1  0
  3  2  1  1
  2 23  1  0
  2 24  1  0
  3  4  1  0
  3  6  1  0
  3 19  1  0
  4  5  1  0
  4 25  1  0
  4 26  1  0
  5 27  1  0
  5 28  1  0
  5 29  1  0
  6  7  1  0
  6 30  1  0
  6 31  1  0
  7  8  1  0
  7 32  1  0
  7 33  1  0
  8  9  1  0
  8 19  1  0
  9 10  2  0
  9 11  1  0
 11 12  2  0
 11 17  1  0
 12 13  1  0
 12 34  1  0
 13 14  1  0
 13 15  2  0
 14 35  1  0
 14 36  1  0
 15 16  1  0
 15 37  1  0
 16 17  2  0
 17 18  1  0
 18 38  1  0
 18 39  1  0
 18 40  1  0
 19 41  1  0
 19 42  1  0
M  END

