
     RDKit          3D

 39 39  0  0  0  0  0  0  0  0999 V2000
    5.5427   -0.6856   -5.1551 C   0  0  0  0  0  0  0  0  0  0  0  0
    5.2608   -0.2994   -3.7024 C   0  0  0  0  0  0  0  0  0  0  0  0
    6.1381   -1.0411   -2.6890 C   0  0  0  0  0  0  0  0  0  0  0  0
    5.8619   -0.6594   -1.2320 C   0  0  0  0  0  0  0  0  0  0  0  0
    6.7441   -1.3973   -0.2208 C   0  0  0  0  0  0  0  0  0  0  0  0
    6.4608   -1.0068    1.2330 C   0  0  0  0  0  0  0  0  0  0  0  0
    7.3355   -1.7350    2.2564 C   0  0  0  0  0  0  0  0  0  0  0  0
    8.7933   -1.2791    2.2201 C   0  0  0  0  0  0  0  0  0  0  0  0
    9.1425   -0.1745    1.8745 O   0  0  0  0  0  0  0  0  0  0  0  0
    9.6849   -2.2542    2.6609 N   0  0  0  0  0  0  0  0  0  0  0  0
   10.9999   -2.0085    2.7671 N   0  0  0  0  0  0  0  0  0  0  0  0
   11.7709   -2.9420    3.1877 C   0  0  0  0  0  0  0  0  0  0  0  0
   13.2152   -2.7428    3.3261 C   0  0  0  0  0  0  0  0  0  0  0  0
   13.8425   -1.5239    3.0074 C   0  0  0  0  0  0  0  0  0  0  0  0
   15.2198   -1.4194    3.1677 C   0  0  0  0  0  0  0  0  0  0  0  0
   15.9313   -2.5315    3.6406 C   0  0  0  0  0  0  0  0  0  0  0  0
   15.3516   -3.6938    3.9471 N   0  0  0  0  0  0  0  0  0  0  0  0
   14.0315   -3.7896    3.7919 C   0  0  0  0  0  0  0  0  0  0  0  0
    4.8951   -0.1334   -5.8549 H   0  0  0  0  0  0  0  0  0  0  0  0
    5.3730   -1.7624   -5.3243 H   0  0  0  0  0  0  0  0  0  0  0  0
    6.5890   -0.4712   -5.4310 H   0  0  0  0  0  0  0  0  0  0  0  0
    4.1971   -0.4904   -3.4697 H   0  0  0  0  0  0  0  0  0  0  0  0
    5.4030    0.7893   -3.5758 H   0  0  0  0  0  0  0  0  0  0  0  0
    7.2027   -0.8495   -2.9200 H   0  0  0  0  0  0  0  0  0  0  0  0
    5.9969   -2.1312   -2.8149 H   0  0  0  0  0  0  0  0  0  0  0  0
    4.7977   -0.8524   -0.9996 H   0  0  0  0  0  0  0  0  0  0  0  0
    6.0030    0.4300   -1.1070 H   0  0  0  0  0  0  0  0  0  0  0  0
    7.8048   -1.1937   -0.4509 H   0  0  0  0  0  0  0  0  0  0  0  0
    6.6044   -2.4884   -0.3428 H   0  0  0  0  0  0  0  0  0  0  0  0
    5.4011   -1.2045    1.4692 H   0  0  0  0  0  0  0  0  0  0  0  0
    6.6192    0.0767    1.3583 H   0  0  0  0  0  0  0  0  0  0  0  0
    7.2691   -2.8297    2.1245 H   0  0  0  0  0  0  0  0  0  0  0  0
    6.9679   -1.5256    3.2778 H   0  0  0  0  0  0  0  0  0  0  0  0
    9.3213   -3.1733    2.9238 H   0  0  0  0  0  0  0  0  0  0  0  0
   11.3751   -3.9388    3.4638 H   0  0  0  0  0  0  0  0  0  0  0  0
   13.2373   -0.6910    2.6429 H   0  0  0  0  0  0  0  0  0  0  0  0
   15.7446   -0.4907    2.9315 H   0  0  0  0  0  0  0  0  0  0  0  0
   17.0180   -2.4747    3.7758 H   0  0  0  0  0  0  0  0  0  0  0  0
   13.5778   -4.7557    4.0506 H   0  0  0  0  0  0  0  0  0  0  0  0
  1  2  1  0
  1 19  1  0
  1 20  1  0
  1 21  1  0
  2  3  1  0
  2 22  1  0
  2 23  1  0
  3  4  1  0
  3 24  1  0
  3 25  1  0
  4  5  1  0
  4 26  1  0
  4 27  1  0
  5  6  1  0
  5 28  1  0
  5 29  1  0
  6  7  1  0
  6 30  1  0
  6 31  1  0
  7  8  1  0
  7 32  1  0
  7 33  1  0
  8  9  2  0
  8 10  1  0
 10 11  1  0
 10 34  1  0
 11 12  2  0
 12 13  1  0
 12 35  1  0
 13 14  2  0
 13 18  1  0
 14 15  1  0
 14 36  1  0
 15 16  2  0
 15 37  1  0
 16 17  1  0
 16 38  1  0
 17 18  2  0
 18 39  1  0
M  END

