
     RDKit          3D

 47 48  0  0  0  0  0  0  0  0999 V2000
    1.4071   -0.2951   -0.0927 C   0  0  0  0  0  0  0  0  0  0  0  0
    2.8159   -0.5184   -0.1205 O   0  0  0  0  0  0  0  0  0  0  0  0
    3.3785   -0.9033    1.0427 C   0  0  0  0  0  0  0  0  0  0  0  0
    2.7472   -1.0579    2.0612 O   0  0  0  0  0  0  0  0  0  0  0  0
    4.8541   -1.1103    0.9177 C   0  0  0  0  0  0  0  0  0  0  0  0
    5.5423   -0.8909   -0.2833 C   0  0  0  0  0  0  0  0  0  0  0  0
    6.9159   -1.0999   -0.3255 C   0  0  0  0  0  0  0  0  0  0  0  0
    7.6204   -1.5430    0.8034 C   0  0  0  0  0  0  0  0  0  0  0  0
    9.0122   -1.8153    0.6629 N   0  0  0  0  0  0  0  0  0  0  0  0
    9.6674   -2.1903   -0.4806 C   0  0  0  0  0  0  0  0  0  0  0  0
   11.0150   -2.2961   -0.1839 C   0  0  0  0  0  0  0  0  0  0  0  0
   12.1380   -2.6834   -1.0984 C   0  0  0  0  0  0  0  0  0  0  0  0
   11.0786   -1.9656    1.1950 C   0  0  0  0  0  0  0  0  0  0  0  0
    9.8810   -1.6795    1.6907 N   0  0  0  0  0  0  0  0  0  0  0  0
    6.9341   -1.7371    2.0358 C   0  0  0  0  0  0  0  0  0  0  0  0
    7.6652   -2.1149    3.1672 N   0  0  0  0  0  0  0  0  0  0  0  0
    7.1886   -2.5824    4.3694 C   0  0  0  0  0  0  0  0  0  0  0  0
    6.0023   -2.8312    4.5980 O   0  0  0  0  0  0  0  0  0  0  0  0
    8.1554   -2.7593    5.3243 N   0  0  0  0  0  0  0  0  0  0  0  0
    7.8923   -3.4826    6.5596 C   0  0  0  0  0  0  0  0  0  0  0  0
    7.0660   -2.7209    7.6236 C   0  0  1  0  0  0  0  0  0  0  0  0
    7.6460   -1.3359    7.9284 C   0  0  0  0  0  0  0  0  0  0  0  0
    5.6968   -2.6214    7.2579 O   0  0  0  0  0  0  0  0  0  0  0  0
    7.1233   -3.5828    8.9146 C   0  0  0  0  0  0  0  0  0  0  0  0
    8.1570   -3.8502    9.4743 O   0  0  0  0  0  0  0  0  0  0  0  0
    5.9275   -3.9944    9.3249 O   0  0  0  0  0  0  0  0  0  0  0  0
    5.5468   -1.5211    2.0607 C   0  0  0  0  0  0  0  0  0  0  0  0
    1.1246    0.0079   -1.1085 H   0  0  0  0  0  0  0  0  0  0  0  0
    1.1502    0.4964    0.6277 H   0  0  0  0  0  0  0  0  0  0  0  0
    0.8711   -1.2121    0.1958 H   0  0  0  0  0  0  0  0  0  0  0  0
    5.0063   -0.5489   -1.1680 H   0  0  0  0  0  0  0  0  0  0  0  0
    7.4620   -0.9033   -1.2488 H   0  0  0  0  0  0  0  0  0  0  0  0
    9.1335   -2.3791   -1.4079 H   0  0  0  0  0  0  0  0  0  0  0  0
   11.7658   -2.9338   -2.1025 H   0  0  0  0  0  0  0  0  0  0  0  0
   12.6858   -3.5606   -0.7170 H   0  0  0  0  0  0  0  0  0  0  0  0
   12.8694   -1.8658   -1.2085 H   0  0  0  0  0  0  0  0  0  0  0  0
   11.9554   -1.9327    1.8425 H   0  0  0  0  0  0  0  0  0  0  0  0
    8.6778   -2.0067    3.0391 H   0  0  0  0  0  0  0  0  0  0  0  0
    9.1128   -2.5068    5.1139 H   0  0  0  0  0  0  0  0  0  0  0  0
    8.8586   -3.7419    7.0120 H   0  0  0  0  0  0  0  0  0  0  0  0
    7.3649   -4.4247    6.3310 H   0  0  0  0  0  0  0  0  0  0  0  0
    7.6769   -0.7272    7.0125 H   0  0  0  0  0  0  0  0  0  0  0  0
    8.6599   -1.4207    8.3464 H   0  0  0  0  0  0  0  0  0  0  0  0
    7.0052   -0.8230    8.6605 H   0  0  0  0  0  0  0  0  0  0  0  0
    5.6138   -2.7106    6.2784 H   0  0  0  0  0  0  0  0  0  0  0  0
    5.2988   -3.6378    8.6535 H   0  0  0  0  0  0  0  0  0  0  0  0
    4.9955   -1.6895    2.9825 H   0  0  0  0  0  0  0  0  0  0  0  0
  1  2  1  0
  1 28  1  0
  1 29  1  0
  1 30  1  0
  2  3  1  0
  3  4  2  0
  3  5  1  0
  5  6  2  0
  5 27  1  0
  6  7  1  0
  6 31  1  0
  7  8  2  0
  7 32  1  0
  8  9  1  0
  8 15  1  0
  9 10  1  0
  9 14  1  0
 10 11  2  0
 10 33  1  0
 11 12  1  0
 11 13  1  0
 12 34  1  0
 12 35  1  0
 12 36  1  0
 13 14  2  0
 13 37  1  0
 15 16  1  0
 15 27  2  0
 16 17  1  0
 16 38  1  0
 17 18  2  0
 17 19  1  0
 19 20  1  0
 19 39  1  0
 20 21  1  0
 20 40  1  0
 20 41  1  0
 21 22  1  0
 21 23  1  6
 21 24  1  0
 22 42  1  0
 22 43  1  0
 22 44  1  0
 23 45  1  0
 24 25  2  0
 24 26  1  0
 26 46  1  0
 27 47  1  0
M  END

