
     RDKit          3D

 30 31  0  0  0  0  0  0  0  0999 V2000
    1.0181   -0.5028    0.3987 C   0  0  0  0  0  0  0  0  0  0  0  0
    2.5032   -0.3484    0.5749 C   0  0  0  0  0  0  0  0  0  0  0  0
    3.1091    0.8870    0.8357 C   0  0  0  0  0  0  0  0  0  0  0  0
    4.5001    0.8936    0.9810 C   0  0  0  0  0  0  0  0  0  0  0  0
    5.2367   -0.2090    0.8806 N   0  0  0  0  0  0  0  0  0  0  0  0
    4.5633   -1.3396    0.6301 C   0  0  0  0  0  0  0  0  0  0  0  0
    5.5989   -2.7729    0.5083 S   0  0  0  0  0  0  0  0  0  0  0  0
    4.3593   -4.0914    0.1547 C   0  0  0  0  0  0  0  0  0  0  0  0
    5.0780   -5.3835   -0.1401 C   0  0  0  0  0  0  0  0  0  0  0  0
    5.1737   -6.3965    0.8245 C   0  0  0  0  0  0  0  0  0  0  0  0
    5.8277   -7.5996    0.5370 C   0  0  0  0  0  0  0  0  0  0  0  0
    6.4045   -7.8031   -0.7147 C   0  0  0  0  0  0  0  0  0  0  0  0
    6.3478   -6.7894   -1.6845 C   0  0  0  0  0  0  0  0  0  0  0  0
    6.9823   -7.0601   -3.0219 C   0  0  0  0  0  0  0  0  0  0  0  0
    7.2250   -8.1677   -3.4226 O   0  0  0  0  0  0  0  0  0  0  0  0
    7.2825   -5.9782   -3.7764 O   0  0  0  0  0  0  0  0  0  0  0  0
    5.6768   -5.5942   -1.3918 C   0  0  0  0  0  0  0  0  0  0  0  0
    3.2464   -1.4625    0.4745 N   0  0  0  0  0  0  0  0  0  0  0  0
    0.4915    0.4589    0.4701 H   0  0  0  0  0  0  0  0  0  0  0  0
    0.6180   -1.1867    1.1646 H   0  0  0  0  0  0  0  0  0  0  0  0
    0.8006   -0.9602   -0.5796 H   0  0  0  0  0  0  0  0  0  0  0  0
    2.5245    1.8043    0.9224 H   0  0  0  0  0  0  0  0  0  0  0  0
    5.0373    1.8276    1.1860 H   0  0  0  0  0  0  0  0  0  0  0  0
    3.7490   -3.7575   -0.6958 H   0  0  0  0  0  0  0  0  0  0  0  0
    3.6920   -4.1876    1.0217 H   0  0  0  0  0  0  0  0  0  0  0  0
    4.7218   -6.2445    1.8084 H   0  0  0  0  0  0  0  0  0  0  0  0
    5.8822   -8.3829    1.2969 H   0  0  0  0  0  0  0  0  0  0  0  0
    6.9076   -8.7382   -0.9671 H   0  0  0  0  0  0  0  0  0  0  0  0
    7.1708   -5.1653   -3.2638 H   0  0  0  0  0  0  0  0  0  0  0  0
    5.5815   -4.8086   -2.1481 H   0  0  0  0  0  0  0  0  0  0  0  0
  1  2  1  0
  1 19  1  0
  1 20  1  0
  1 21  1  0
  2  3  2  0
  2 18  1  0
  3  4  1  0
  3 22  1  0
  4  5  2  0
  4 23  1  0
  5  6  1  0
  6  7  1  0
  6 18  2  0
  7  8  1  0
  8  9  1  0
  8 24  1  0
  8 25  1  0
  9 10  2  0
  9 17  1  0
 10 11  1  0
 10 26  1  0
 11 12  2  0
 11 27  1  0
 12 13  1  0
 12 28  1  0
 13 14  1  0
 13 17  2  0
 14 15  2  0
 14 16  1  0
 16 29  1  0
 17 30  1  0
M  END

