
     RDKit          3D

 32 33  0  0  0  0  0  0  0  0999 V2000
    3.9387   -1.1356   -4.4941 N   0  0  0  0  0  0  0  0  0  0  0  0
    4.7769   -1.0147   -3.4100 C   0  0  0  0  0  0  0  0  0  0  0  0
    5.7075    0.0452   -3.3213 C   0  0  0  0  0  0  0  0  0  0  0  0
    6.4987    0.1267   -2.1797 C   0  0  0  0  0  0  0  0  0  0  0  0
    6.4448   -0.7202   -1.1518 N   0  0  0  0  0  0  0  0  0  0  0  0
    5.5538   -1.7268   -1.2263 C   0  0  0  0  0  0  0  0  0  0  0  0
    5.5170   -2.5513   -0.1243 N   0  0  0  0  0  0  0  0  0  0  0  0
    4.7996   -3.7976   -0.0506 C   0  0  0  0  0  0  0  0  0  0  0  0
    5.4539   -4.9678   -0.8174 C   0  0  0  0  0  0  0  0  0  0  0  0
    4.4556   -6.0892   -1.0858 C   0  0  0  0  0  0  0  0  0  0  0  0
    3.3362   -5.8577   -1.5130 O   0  0  0  0  0  0  0  0  0  0  0  0
    4.9042   -7.3600   -0.8413 N   0  0  0  0  0  0  0  0  0  0  0  0
    4.0725   -8.5156   -1.0078 C   0  0  1  0  0  0  0  0  0  0  0  0
    3.7991   -9.0371   -2.3931 C   0  0  0  0  0  0  0  0  0  0  0  0
    4.7202   -9.7940   -1.4711 C   0  0  0  0  0  0  0  0  0  0  0  0
    4.7098   -1.9217   -2.3394 C   0  0  0  0  0  0  0  0  0  0  0  0
    4.1818   -0.6407   -5.3424 H   0  0  0  0  0  0  0  0  0  0  0  0
    3.4580   -2.0156   -4.6315 H   0  0  0  0  0  0  0  0  0  0  0  0
    5.8045    0.7798   -4.1240 H   0  0  0  0  0  0  0  0  0  0  0  0
    7.2326    0.9386   -2.0948 H   0  0  0  0  0  0  0  0  0  0  0  0
    6.2532   -2.3583    0.5449 H   0  0  0  0  0  0  0  0  0  0  0  0
    3.7795   -3.6670   -0.4428 H   0  0  0  0  0  0  0  0  0  0  0  0
    4.6852   -4.0686    1.0115 H   0  0  0  0  0  0  0  0  0  0  0  0
    6.3572   -5.3253   -0.2959 H   0  0  0  0  0  0  0  0  0  0  0  0
    5.7783   -4.5968   -1.8045 H   0  0  0  0  0  0  0  0  0  0  0  0
    5.7994   -7.4764   -0.3809 H   0  0  0  0  0  0  0  0  0  0  0  0
    3.2511   -8.5995   -0.2852 H   0  0  0  0  0  0  0  0  0  0  0  0
    4.2468   -8.4892   -3.2256 H   0  0  0  0  0  0  0  0  0  0  0  0
    2.8034   -9.4402   -2.5951 H   0  0  0  0  0  0  0  0  0  0  0  0
    5.7922   -9.7665   -1.6903 H   0  0  0  0  0  0  0  0  0  0  0  0
    4.3758  -10.7321   -1.0275 H   0  0  0  0  0  0  0  0  0  0  0  0
    4.0091   -2.7576   -2.3795 H   0  0  0  0  0  0  0  0  0  0  0  0
  1  2  1  0
  1 17  1  0
  1 18  1  0
  2  3  2  0
  2 16  1  0
  3  4  1  0
  3 19  1  0
  4  5  2  0
  4 20  1  0
  5  6  1  0
  6  7  1  0
  6 16  2  0
  7  8  1  0
  7 21  1  0
  8  9  1  0
  8 22  1  0
  8 23  1  0
  9 10  1  0
  9 24  1  0
  9 25  1  0
 10 11  2  0
 10 12  1  0
 12 13  1  0
 12 26  1  0
 13 14  1  0
 13 15  1  0
 13 27  1  1
 14 15  1  0
 14 28  1  0
 14 29  1  0
 15 30  1  0
 15 31  1  0
 16 32  1  0
M  END

