
     RDKit          3D

 48 49  0  0  0  0  0  0  0  0999 V2000
    5.6812   -3.9392    0.0811 C   0  0  0  0  0  0  0  0  0  0  0  0
    5.0232   -2.5947   -0.2067 C   0  0  1  0  0  0  0  0  0  0  0  0
    3.5262   -2.7332   -0.4980 C   0  0  0  0  0  0  0  0  0  0  0  0
    5.2662   -1.7695    0.9239 O   0  0  0  0  0  0  0  0  0  0  0  0
    5.1528   -0.3786    0.7213 C   0  0  0  0  0  0  0  0  0  0  0  0
    5.5510    0.3508    1.9961 C   0  0  0  0  0  0  0  0  0  0  0  0
    6.9986    0.1132    2.4233 C   0  0  0  0  0  0  0  0  0  0  0  0
    7.3330    0.9272    3.5884 N   0  0  0  0  0  0  0  0  0  0  0  0
    8.6907    0.7648    4.0787 C   0  0  1  0  0  0  0  0  0  0  0  0
    9.0570    1.9309    5.0142 C   0  0  0  0  0  0  0  0  0  0  0  0
    8.8801   -0.5680    4.8439 C   0  0  0  0  0  0  0  0  0  0  0  0
    7.9079   -1.0724    5.3823 O   0  0  0  0  0  0  0  0  0  0  0  0
   10.2328   -1.1923    4.9618 C   0  0  0  0  0  0  0  0  0  0  0  0
   11.3806   -0.6900    4.3227 C   0  0  0  0  0  0  0  0  0  0  0  0
   12.6066   -1.3353    4.4826 C   0  0  0  0  0  0  0  0  0  0  0  0
   12.7096   -2.4846    5.2690 C   0  0  0  0  0  0  0  0  0  0  0  0
   11.5617   -3.0164    5.9150 C   0  0  0  0  0  0  0  0  0  0  0  0
   10.3441   -2.3530    5.7475 C   0  0  0  0  0  0  0  0  0  0  0  0
   11.6964   -4.1583    6.7009 N   0  0  0  0  0  0  0  0  0  0  0  0
   12.8742   -4.9723    6.4885 C   0  0  0  0  0  0  0  0  0  0  0  0
   14.0790   -4.0421    6.4171 C   0  0  0  0  0  0  0  0  0  0  0  0
   13.9279   -3.0857    5.3749 O   0  0  0  0  0  0  0  0  0  0  0  0
    5.5534   -4.6310   -0.7661 H   0  0  0  0  0  0  0  0  0  0  0  0
    5.2313   -4.3969    0.9767 H   0  0  0  0  0  0  0  0  0  0  0  0
    6.7572   -3.8079    0.2703 H   0  0  0  0  0  0  0  0  0  0  0  0
    5.5152   -2.1391   -1.0929 H   0  0  0  0  0  0  0  0  0  0  0  0
    3.0107   -3.1777    0.3687 H   0  0  0  0  0  0  0  0  0  0  0  0
    3.3571   -3.3807   -1.3732 H   0  0  0  0  0  0  0  0  0  0  0  0
    3.0585   -1.7596   -0.7117 H   0  0  0  0  0  0  0  0  0  0  0  0
    4.1176   -0.0950    0.4436 H   0  0  0  0  0  0  0  0  0  0  0  0
    5.8063   -0.0619   -0.1208 H   0  0  0  0  0  0  0  0  0  0  0  0
    4.8714    0.0341    2.8075 H   0  0  0  0  0  0  0  0  0  0  0  0
    5.3930    1.4332    1.8530 H   0  0  0  0  0  0  0  0  0  0  0  0
    7.6711    0.4066    1.5954 H   0  0  0  0  0  0  0  0  0  0  0  0
    7.1498   -0.9734    2.5829 H   0  0  0  0  0  0  0  0  0  0  0  0
    6.7032    0.6740    4.3528 H   0  0  0  0  0  0  0  0  0  0  0  0
    9.3671    0.7866    3.2090 H   0  0  0  0  0  0  0  0  0  0  0  0
    8.3925    1.9331    5.8935 H   0  0  0  0  0  0  0  0  0  0  0  0
    8.9210    2.8833    4.4813 H   0  0  0  0  0  0  0  0  0  0  0  0
   10.0947    1.8620    5.3747 H   0  0  0  0  0  0  0  0  0  0  0  0
   11.3330    0.2036    3.6997 H   0  0  0  0  0  0  0  0  0  0  0  0
   13.5126   -0.9643    3.9991 H   0  0  0  0  0  0  0  0  0  0  0  0
    9.4388   -2.7334    6.2267 H   0  0  0  0  0  0  0  0  0  0  0  0
   10.8341   -4.6475    6.9105 H   0  0  0  0  0  0  0  0  0  0  0  0
   12.8263   -5.5722    5.5554 H   0  0  0  0  0  0  0  0  0  0  0  0
   13.0016   -5.6731    7.3292 H   0  0  0  0  0  0  0  0  0  0  0  0
   14.9999   -4.5991    6.1933 H   0  0  0  0  0  0  0  0  0  0  0  0
   14.2061   -3.5215    7.3837 H   0  0  0  0  0  0  0  0  0  0  0  0
  1  2  1  0
  1 23  1  0
  1 24  1  0
  1 25  1  0
  2  3  1  0
  2  4  1  0
  2 26  1  6
  3 27  1  0
  3 28  1  0
  3 29  1  0
  4  5  1  0
  5  6  1  0
  5 30  1  0
  5 31  1  0
  6  7  1  0
  6 32  1  0
  6 33  1  0
  7  8  1  0
  7 34  1  0
  7 35  1  0
  8  9  1  0
  8 36  1  0
  9 10  1  0
  9 11  1  0
  9 37  1  6
 10 38  1  0
 10 39  1  0
 10 40  1  0
 11 12  2  0
 11 13  1  0
 13 14  2  0
 13 18  1  0
 14 15  1  0
 14 41  1  0
 15 16  2  0
 15 42  1  0
 16 17  1  0
 16 22  1  0
 17 18  2  0
 17 19  1  0
 18 43  1  0
 19 20  1  0
 19 44  1  0
 20 21  1  0
 20 45  1  0
 20 46  1  0
 21 22  1  0
 21 47  1  0
 21 48  1  0
M  END

