
     RDKit          3D

 58 61  0  0  0  0  0  0  0  0999 V2000
    7.6700    4.8303   -3.3160 C   0  0  0  0  0  0  0  0  0  0  0  0
    7.7138    4.3636   -1.9899 O   0  0  0  0  0  0  0  0  0  0  0  0
    8.9111    3.9963   -1.4575 C   0  0  0  0  0  0  0  0  0  0  0  0
   10.1299    4.0432   -2.1386 C   0  0  0  0  0  0  0  0  0  0  0  0
   11.3069    3.6383   -1.4851 C   0  0  0  0  0  0  0  0  0  0  0  0
   11.2724    3.1908   -0.1693 C   0  0  0  0  0  0  0  0  0  0  0  0
   12.3533    2.7776    0.5561 O   0  0  0  0  0  0  0  0  0  0  0  0
   13.6267    2.7629   -0.0445 C   0  0  0  0  0  0  0  0  0  0  0  0
   10.0303    3.1424    0.5225 C   0  0  0  0  0  0  0  0  0  0  0  0
   10.0836    2.6784    1.8489 N   0  0  0  0  0  0  0  0  0  0  0  0
    9.0511    2.5296    2.7314 C   0  0  0  0  0  0  0  0  0  0  0  0
    7.8841    2.8009    2.5115 O   0  0  0  0  0  0  0  0  0  0  0  0
    9.4690    1.9730    4.1041 C   0  0  0  0  0  0  0  0  0  0  0  0
    9.7264    0.5505    4.0630 O   0  0  0  0  0  0  0  0  0  0  0  0
   10.9791    0.1424    3.7419 C   0  0  0  0  0  0  0  0  0  0  0  0
   11.8581    0.9336    3.4797 O   0  0  0  0  0  0  0  0  0  0  0  0
   11.1815   -1.3381    3.8021 C   0  0  0  0  0  0  0  0  0  0  0  0
   12.5156   -1.7264    4.0430 C   0  0  0  0  0  0  0  0  0  0  0  0
   12.8690   -3.0661    4.1577 C   0  0  0  0  0  0  0  0  0  0  0  0
   11.8838   -4.0475    4.0117 C   0  0  0  0  0  0  0  0  0  0  0  0
   10.5682   -3.6755    3.7413 C   0  0  0  0  0  0  0  0  0  0  0  0
   10.1835   -2.3285    3.6263 C   0  0  0  0  0  0  0  0  0  0  0  0
    8.7193   -2.0663    3.2925 C   0  0  0  0  0  0  0  0  0  0  0  0
    7.8073   -2.2614    4.4867 C   0  0  0  0  0  0  0  0  0  0  0  0
    7.0474   -3.3051    4.5634 N   0  0  0  0  0  0  0  0  0  0  0  0
    6.2498   -3.4417    5.6908 C   0  0  0  0  0  0  0  0  0  0  0  0
    5.4068   -4.5688    5.7988 C   0  0  0  0  0  0  0  0  0  0  0  0
    4.5965   -4.7348    6.9142 C   0  0  0  0  0  0  0  0  0  0  0  0
    4.6004   -3.7853    7.9542 C   0  0  0  0  0  0  0  0  0  0  0  0
    5.4224   -2.6691    7.8668 C   0  0  0  0  0  0  0  0  0  0  0  0
    6.2476   -2.4895    6.7434 C   0  0  0  0  0  0  0  0  0  0  0  0
    7.1207   -1.3079    6.6438 C   0  0  0  0  0  0  0  0  0  0  0  0
    7.2253   -0.4107    7.4606 O   0  0  0  0  0  0  0  0  0  0  0  0
    7.8659   -1.2958    5.4604 N   0  0  0  0  0  0  0  0  0  0  0  0
    8.4956   -0.5061    5.3227 H   0  0  0  0  0  0  0  0  0  0  0  0
    8.8639    3.5453   -0.1250 C   0  0  0  0  0  0  0  0  0  0  0  0
    6.6192    5.0672   -3.5322 H   0  0  0  0  0  0  0  0  0  0  0  0
    8.0180    4.0663   -4.0360 H   0  0  0  0  0  0  0  0  0  0  0  0
    8.2766    5.7447   -3.4536 H   0  0  0  0  0  0  0  0  0  0  0  0
   10.1930    4.3885   -3.1700 H   0  0  0  0  0  0  0  0  0  0  0  0
   12.2516    3.6811   -2.0277 H   0  0  0  0  0  0  0  0  0  0  0  0
   14.3261    2.3851    0.7131 H   0  0  0  0  0  0  0  0  0  0  0  0
   13.9439    3.7749   -0.3557 H   0  0  0  0  0  0  0  0  0  0  0  0
   13.6552    2.0960   -0.9254 H   0  0  0  0  0  0  0  0  0  0  0  0
   11.0135    2.4025    2.1657 H   0  0  0  0  0  0  0  0  0  0  0  0
    8.6125    2.0950    4.7759 H   0  0  0  0  0  0  0  0  0  0  0  0
   10.3556    2.4863    4.5028 H   0  0  0  0  0  0  0  0  0  0  0  0
   13.2666   -0.9416    4.1452 H   0  0  0  0  0  0  0  0  0  0  0  0
   13.9061   -3.3443    4.3583 H   0  0  0  0  0  0  0  0  0  0  0  0
   12.1416   -5.1060    4.0987 H   0  0  0  0  0  0  0  0  0  0  0  0
    9.8029   -4.4453    3.6127 H   0  0  0  0  0  0  0  0  0  0  0  0
    8.3904   -2.7956    2.5416 H   0  0  0  0  0  0  0  0  0  0  0  0
    8.5745   -1.0604    2.8805 H   0  0  0  0  0  0  0  0  0  0  0  0
    5.4154   -5.2938    4.9826 H   0  0  0  0  0  0  0  0  0  0  0  0
    3.9477   -5.6119    6.9851 H   0  0  0  0  0  0  0  0  0  0  0  0
    3.9571   -3.9277    8.8259 H   0  0  0  0  0  0  0  0  0  0  0  0
    5.4507   -1.9118    8.6532 H   0  0  0  0  0  0  0  0  0  0  0  0
    7.9110    3.5145    0.3965 H   0  0  0  0  0  0  0  0  0  0  0  0
  1  2  1  0
  1 37  1  0
  1 38  1  0
  1 39  1  0
  2  3  1  0
  3  4  2  0
  3 36  1  0
  4  5  1  0
  4 40  1  0
  5  6  2  0
  5 41  1  0
  6  7  1  0
  6  9  1  0
  7  8  1  0
  8 42  1  0
  8 43  1  0
  8 44  1  0
  9 10  1  0
  9 36  2  0
 10 11  1  0
 10 45  1  0
 11 12  2  0
 11 13  1  0
 13 14  1  0
 13 46  1  0
 13 47  1  0
 14 15  1  0
 15 16  2  0
 15 17  1  0
 17 18  2  0
 17 22  1  0
 18 19  1  0
 18 48  1  0
 19 20  2  0
 19 49  1  0
 20 21  1  0
 20 50  1  0
 21 22  2  0
 21 51  1  0
 22 23  1  0
 23 24  1  0
 23 52  1  0
 23 53  1  0
 24 25  2  0
 24 34  1  0
 25 26  1  0
 26 27  2  0
 26 31  1  0
 27 28  1  0
 27 54  1  0
 28 29  2  0
 28 55  1  0
 29 30  1  0
 29 56  1  0
 30 31  2  0
 30 57  1  0
 31 32  1  0
 32 33  2  0
 32 34  1  0
 34 35  1  0
 36 58  1  0
M  END

