
     RDKit          3D

 43 43  0  0  0  0  0  0  0  0999 V2000
   -0.5799    1.1335    1.1249 C   0  0  0  0  0  0  0  0  0  0  0  0
    0.9425    1.0612    0.9774 C   0  0  1  0  0  0  0  0  0  0  0  0
    1.5768    2.2078    1.6181 N   0  0  0  0  0  0  0  0  0  0  0  0
    2.7400    2.7386    1.0839 C   0  0  0  0  0  0  0  0  0  0  0  0
    3.1600    2.3834   -0.0171 O   0  0  0  0  0  0  0  0  0  0  0  0
    3.3753    3.7040    1.8414 N   0  0  0  0  0  0  0  0  0  0  0  0
    2.6901    4.4479    2.9005 C   0  0  0  0  0  0  0  0  0  0  0  0
    1.7995    5.5859    2.3838 C   0  0  0  0  0  0  0  0  0  0  0  0
    2.4875    6.5835    1.4357 C   0  0  0  0  0  0  0  0  0  0  0  0
    2.9319    5.9881    0.0840 C   0  0  0  0  0  0  0  0  0  0  0  0
    4.2823    5.2484    0.0575 C   0  0  0  0  0  0  0  0  0  0  0  0
    4.5767    4.3700    1.2917 C   0  0  2  0  0  0  0  0  0  0  0  0
    5.7477    3.4096    1.0637 C   0  0  0  0  0  0  0  0  0  0  0  0
    1.4545   -0.2301    1.6522 C   0  0  0  0  0  0  0  0  0  0  0  0
    1.2012   -0.3935    2.8418 O   0  0  0  0  0  0  0  0  0  0  0  0
    2.1576   -1.1388    0.9114 N   0  0  0  0  0  0  0  0  0  0  0  0
    2.5865   -0.9374   -0.4678 C   0  0  0  0  0  0  0  0  0  0  0  0
    2.5293   -2.4023    1.5291 C   0  0  0  0  0  0  0  0  0  0  0  0
   -0.9574    2.0755    0.7001 H   0  0  0  0  0  0  0  0  0  0  0  0
   -0.8645    1.0726    2.1862 H   0  0  0  0  0  0  0  0  0  0  0  0
   -1.0619    0.2929    0.6006 H   0  0  0  0  0  0  0  0  0  0  0  0
    1.2109    1.1145   -0.0811 H   0  0  0  0  0  0  0  0  0  0  0  0
    1.4610    2.2256    2.6262 H   0  0  0  0  0  0  0  0  0  0  0  0
    3.4682    4.8536    3.5673 H   0  0  0  0  0  0  0  0  0  0  0  0
    2.0976    3.7683    3.5319 H   0  0  0  0  0  0  0  0  0  0  0  0
    1.3919    6.1245    3.2579 H   0  0  0  0  0  0  0  0  0  0  0  0
    0.9344    5.1409    1.8616 H   0  0  0  0  0  0  0  0  0  0  0  0
    3.3444    7.0648    1.9437 H   0  0  0  0  0  0  0  0  0  0  0  0
    1.7692    7.3968    1.2375 H   0  0  0  0  0  0  0  0  0  0  0  0
    2.9783    6.7969   -0.6645 H   0  0  0  0  0  0  0  0  0  0  0  0
    2.1397    5.3064   -0.2716 H   0  0  0  0  0  0  0  0  0  0  0  0
    5.1063    5.9803   -0.0212 H   0  0  0  0  0  0  0  0  0  0  0  0
    4.3241    4.6264   -0.8493 H   0  0  0  0  0  0  0  0  0  0  0  0
    4.8847    5.0496    2.1013 H   0  0  0  0  0  0  0  0  0  0  0  0
    5.5192    2.6935    0.2644 H   0  0  0  0  0  0  0  0  0  0  0  0
    5.9769    2.8505    1.9846 H   0  0  0  0  0  0  0  0  0  0  0  0
    6.6461    3.9813    0.7797 H   0  0  0  0  0  0  0  0  0  0  0  0
    2.8088    0.1195   -0.6647 H   0  0  0  0  0  0  0  0  0  0  0  0
    1.8432   -1.3075   -1.1985 H   0  0  0  0  0  0  0  0  0  0  0  0
    3.5181   -1.5012   -0.6294 H   0  0  0  0  0  0  0  0  0  0  0  0
    2.1135   -2.4330    2.5426 H   0  0  0  0  0  0  0  0  0  0  0  0
    3.6273   -2.5055    1.5871 H   0  0  0  0  0  0  0  0  0  0  0  0
    2.1360   -3.2516    0.9432 H   0  0  0  0  0  0  0  0  0  0  0  0
  1  2  1  0
  1 19  1  0
  1 20  1  0
  1 21  1  0
  2  3  1  0
  2 14  1  0
  2 22  1  6
  3  4  1  0
  3 23  1  0
  4  5  2  0
  4  6  1  0
  6  7  1  0
  6 12  1  0
  7  8  1  0
  7 24  1  0
  7 25  1  0
  8  9  1  0
  8 26  1  0
  8 27  1  0
  9 10  1  0
  9 28  1  0
  9 29  1  0
 10 11  1  0
 10 30  1  0
 10 31  1  0
 11 12  1  0
 11 32  1  0
 11 33  1  0
 12 13  1  0
 12 34  1  1
 13 35  1  0
 13 36  1  0
 13 37  1  0
 14 15  2  0
 14 16  1  0
 16 17  1  0
 16 18  1  0
 17 38  1  0
 17 39  1  0
 17 40  1  0
 18 41  1  0
 18 42  1  0
 18 43  1  0
M  END

