
     RDKit          3D

 32 33  0  0  0  0  0  0  0  0999 V2000
    3.3383    1.2185    0.5224 C   0  0  0  0  0  0  0  0  0  0  0  0
    2.5748    0.0298    0.4789 O   0  0  0  0  0  0  0  0  0  0  0  0
    3.0877   -1.0586   -0.1441 C   0  0  0  0  0  0  0  0  0  0  0  0
    4.3454   -1.1071   -0.7445 C   0  0  0  0  0  0  0  0  0  0  0  0
    4.7853   -2.2712   -1.4001 C   0  0  0  0  0  0  0  0  0  0  0  0
    6.1669   -2.2348   -1.9962 C   0  0  0  0  0  0  0  0  0  0  0  0
    6.9879   -1.4342   -1.5715 O   0  0  0  0  0  0  0  0  0  0  0  0
    6.5306   -3.1429   -3.1035 C   0  0  0  0  0  0  0  0  0  0  0  0
    7.8652   -3.3875   -3.5383 C   0  0  0  0  0  0  0  0  0  0  0  0
    7.9012   -4.1808   -4.5963 N   0  0  0  0  0  0  0  0  0  0  0  0
    6.6106   -4.4509   -4.8814 N   0  0  0  0  0  0  0  0  0  0  0  0
    6.2931   -5.2923   -6.0177 C   0  0  0  0  0  0  0  0  0  0  0  0
    5.7539   -3.8568   -4.0188 C   0  0  0  0  0  0  0  0  0  0  0  0
    3.9668   -3.4052   -1.4208 C   0  0  0  0  0  0  0  0  0  0  0  0
    2.7146   -3.3615   -0.7990 C   0  0  0  0  0  0  0  0  0  0  0  0
    1.7042   -4.7862   -0.8022 Cl  0  0  0  0  0  0  0  0  0  0  0  0
    2.2415   -2.2012   -0.1706 C   0  0  0  0  0  0  0  0  0  0  0  0
    0.9929   -2.1666    0.3504 O   0  0  0  0  0  0  0  0  0  0  0  0
    0.8719   -2.1132    1.7680 C   0  0  0  0  0  0  0  0  0  0  0  0
    2.7273    1.9601    1.0536 H   0  0  0  0  0  0  0  0  0  0  0  0
    3.5620    1.5945   -0.4912 H   0  0  0  0  0  0  0  0  0  0  0  0
    4.2882    1.0757    1.0667 H   0  0  0  0  0  0  0  0  0  0  0  0
    5.0247   -0.2562   -0.7238 H   0  0  0  0  0  0  0  0  0  0  0  0
    8.7806   -3.0028   -3.0912 H   0  0  0  0  0  0  0  0  0  0  0  0
    6.7458   -6.2868   -5.8896 H   0  0  0  0  0  0  0  0  0  0  0  0
    6.6857   -4.8428   -6.9420 H   0  0  0  0  0  0  0  0  0  0  0  0
    5.2032   -5.3966   -6.0975 H   0  0  0  0  0  0  0  0  0  0  0  0
    4.6769   -3.9514   -4.1333 H   0  0  0  0  0  0  0  0  0  0  0  0
    4.3001   -4.3411   -1.8658 H   0  0  0  0  0  0  0  0  0  0  0  0
   -0.2043   -2.1152    1.9882 H   0  0  0  0  0  0  0  0  0  0  0  0
    1.3263   -1.1985    2.1792 H   0  0  0  0  0  0  0  0  0  0  0  0
    1.3348   -2.9999    2.2355 H   0  0  0  0  0  0  0  0  0  0  0  0
  1  2  1  0
  1 20  1  0
  1 21  1  0
  1 22  1  0
  2  3  1  0
  3  4  2  0
  3 17  1  0
  4  5  1  0
  4 23  1  0
  5  6  1  0
  5 14  2  0
  6  7  2  0
  6  8  1  0
  8  9  1  0
  8 13  2  0
  9 10  2  0
  9 24  1  0
 10 11  1  0
 11 12  1  0
 11 13  1  0
 12 25  1  0
 12 26  1  0
 12 27  1  0
 13 28  1  0
 14 15  1  0
 14 29  1  0
 15 16  1  0
 15 17  2  0
 17 18  1  0
 18 19  1  0
 19 30  1  0
 19 31  1  0
 19 32  1  0
M  END

