
     RDKit          3D

 34 36  0  0  0  0  0  0  0  0999 V2000
    0.9106    1.5352    0.0929 C   0  0  0  0  0  0  0  0  0  0  0  0
    1.8653    0.3842    0.4170 C   0  0  0  0  0  0  0  0  0  0  0  0
    2.9650    0.7134    1.4043 C   0  0  0  0  0  0  0  0  0  0  0  0
    3.3775    2.0426    1.7492 C   0  0  0  0  0  0  0  0  0  0  0  0
    4.3993    2.0811    2.6632 C   0  0  0  0  0  0  0  0  0  0  0  0
    4.8929    0.4967    3.1262 S   0  0  0  0  0  0  0  0  0  0  0  0
    3.7070   -0.2402    2.0806 C   0  0  0  0  0  0  0  0  0  0  0  0
    3.5859   -1.7434    2.0413 C   0  0  0  0  0  0  0  0  0  0  0  0
    3.8342   -2.3569    0.7332 N   0  0  0  0  0  0  0  0  0  0  0  0
    5.0261   -2.3929    0.0251 C   0  0  0  0  0  0  0  0  0  0  0  0
    6.2940   -1.7738    0.4982 C   0  0  0  0  0  0  0  0  0  0  0  0
    6.9571   -2.6143    1.9780 Cl  0  0  0  0  0  0  0  0  0  0  0  0
    4.9369   -3.0492   -1.1068 N   0  0  0  0  0  0  0  0  0  0  0  0
    3.6360   -3.4848   -1.1751 C   0  0  0  0  0  0  0  0  0  0  0  0
    2.9724   -4.2403   -2.1608 C   0  0  0  0  0  0  0  0  0  0  0  0
    3.8269   -4.7523   -3.5873 Cl  0  0  0  0  0  0  0  0  0  0  0  0
    1.6335   -4.5709   -1.9717 C   0  0  0  0  0  0  0  0  0  0  0  0
    0.9494   -4.1576   -0.8100 C   0  0  0  0  0  0  0  0  0  0  0  0
    1.5713   -3.4057    0.1850 C   0  0  0  0  0  0  0  0  0  0  0  0
    2.9176   -3.0737   -0.0206 C   0  0  0  0  0  0  0  0  0  0  0  0
    0.1165    1.1943   -0.5889 H   0  0  0  0  0  0  0  0  0  0  0  0
    1.4295    2.3706   -0.4033 H   0  0  0  0  0  0  0  0  0  0  0  0
    0.4281    1.9314    1.0010 H   0  0  0  0  0  0  0  0  0  0  0  0
    2.3204    0.0181   -0.5208 H   0  0  0  0  0  0  0  0  0  0  0  0
    1.2832   -0.4710    0.8000 H   0  0  0  0  0  0  0  0  0  0  0  0
    2.9241    2.9436    1.3358 H   0  0  0  0  0  0  0  0  0  0  0  0
    4.8847    2.9567    3.0921 H   0  0  0  0  0  0  0  0  0  0  0  0
    2.5705   -2.0463    2.3377 H   0  0  0  0  0  0  0  0  0  0  0  0
    4.2763   -2.1913    2.7715 H   0  0  0  0  0  0  0  0  0  0  0  0
    6.1786   -0.7200    0.7803 H   0  0  0  0  0  0  0  0  0  0  0  0
    7.0405   -1.8788   -0.2957 H   0  0  0  0  0  0  0  0  0  0  0  0
    1.1189   -5.1589   -2.7331 H   0  0  0  0  0  0  0  0  0  0  0  0
   -0.0994   -4.4399   -0.6903 H   0  0  0  0  0  0  0  0  0  0  0  0
    1.0236   -3.1027    1.0790 H   0  0  0  0  0  0  0  0  0  0  0  0
  1  2  1  0
  1 21  1  0
  1 22  1  0
  1 23  1  0
  2  3  1  0
  2 24  1  0
  2 25  1  0
  3  4  1  0
  3  7  2  0
  4  5  2  0
  4 26  1  0
  5  6  1  0
  5 27  1  0
  6  7  1  0
  7  8  1  0
  8  9  1  0
  8 28  1  0
  8 29  1  0
  9 10  1  0
  9 20  1  0
 10 11  1  0
 10 13  2  0
 11 12  1  0
 11 30  1  0
 11 31  1  0
 13 14  1  0
 14 15  1  0
 14 20  2  0
 15 16  1  0
 15 17  2  0
 17 18  1  0
 17 32  1  0
 18 19  2  0
 18 33  1  0
 19 20  1  0
 19 34  1  0
M  END

