
     RDKit          3D

 35 37  0  0  0  0  0  0  0  0999 V2000
    1.3767    0.2189   -2.2363 C   0  0  0  0  0  0  0  0  0  0  0  0
    2.7784    0.0760   -2.0129 O   0  0  0  0  0  0  0  0  0  0  0  0
    3.1474   -0.8503   -1.1065 C   0  0  0  0  0  0  0  0  0  0  0  0
    2.3405   -1.5394   -0.5217 O   0  0  0  0  0  0  0  0  0  0  0  0
    4.6296   -0.9024   -0.9224 C   0  0  0  0  0  0  0  0  0  0  0  0
    5.4379    0.0756   -1.5282 C   0  0  0  0  0  0  0  0  0  0  0  0
    6.7616    0.1318   -1.3971 N   0  0  0  0  0  0  0  0  0  0  0  0
    7.3377   -0.8012   -0.6423 C   0  0  0  0  0  0  0  0  0  0  0  0
    6.6471   -1.8339    0.0069 C   0  0  0  0  0  0  0  0  0  0  0  0
    5.2483   -1.9069   -0.1362 C   0  0  0  0  0  0  0  0  0  0  0  0
    4.4862   -3.0228    0.5473 C   0  0  0  0  0  0  0  0  0  0  0  0
    5.4071   -4.1498    1.0150 C   0  0  0  0  0  0  0  0  0  0  0  0
    6.5707   -3.6103    1.7060 N   0  0  0  0  0  0  0  0  0  0  0  0
    6.9946   -3.8448    2.9934 C   0  0  0  0  0  0  0  0  0  0  0  0
    8.1096   -3.5075    3.3758 O   0  0  0  0  0  0  0  0  0  0  0  0
    6.0966   -4.4986    3.9816 C   0  0  0  0  0  0  0  0  0  0  0  0
    6.4438   -4.9698    5.2234 C   0  0  0  0  0  0  0  0  0  0  0  0
    5.2397   -5.4338    5.8348 C   0  0  0  0  0  0  0  0  0  0  0  0
    4.2436   -5.2038    4.9262 C   0  0  0  0  0  0  0  0  0  0  0  0
    4.7477   -4.6393    3.8034 O   0  0  0  0  0  0  0  0  0  0  0  0
    7.4336   -2.8326    0.8344 C   0  0  0  0  0  0  0  0  0  0  0  0
    1.2674    1.0076   -2.9907 H   0  0  0  0  0  0  0  0  0  0  0  0
    0.8585    0.5031   -1.3078 H   0  0  0  0  0  0  0  0  0  0  0  0
    0.9404   -0.7230   -2.6019 H   0  0  0  0  0  0  0  0  0  0  0  0
    4.9688    0.8482   -2.1425 H   0  0  0  0  0  0  0  0  0  0  0  0
    8.4283   -0.7348   -0.5319 H   0  0  0  0  0  0  0  0  0  0  0  0
    3.7074   -3.4167   -0.1199 H   0  0  0  0  0  0  0  0  0  0  0  0
    3.9377   -2.6076    1.4097 H   0  0  0  0  0  0  0  0  0  0  0  0
    5.7666   -4.7253    0.1401 H   0  0  0  0  0  0  0  0  0  0  0  0
    4.8618   -4.8438    1.6580 H   0  0  0  0  0  0  0  0  0  0  0  0
    7.4512   -4.9638    5.6310 H   0  0  0  0  0  0  0  0  0  0  0  0
    5.1246   -5.8760    6.8221 H   0  0  0  0  0  0  0  0  0  0  0  0
    3.1704   -5.3770    4.9338 H   0  0  0  0  0  0  0  0  0  0  0  0
    8.0009   -3.5070    0.1601 H   0  0  0  0  0  0  0  0  0  0  0  0
    8.1796   -2.3247    1.4600 H   0  0  0  0  0  0  0  0  0  0  0  0
  1  2  1  0
  1 22  1  0
  1 23  1  0
  1 24  1  0
  2  3  1  0
  3  4  2  0
  3  5  1  0
  5  6  2  0
  5 10  1  0
  6  7  1  0
  6 25  1  0
  7  8  2  0
  8  9  1  0
  8 26  1  0
  9 10  2  0
  9 21  1  0
 10 11  1  0
 11 12  1  0
 11 27  1  0
 11 28  1  0
 12 13  1  0
 12 29  1  0
 12 30  1  0
 13 14  1  0
 13 21  1  0
 14 15  2  0
 14 16  1  0
 16 17  2  0
 16 20  1  0
 17 18  1  0
 17 31  1  0
 18 19  2  0
 18 32  1  0
 19 20  1  0
 19 33  1  0
 21 34  1  0
 21 35  1  0
M  END

