
     RDKit          3D

 31 32  0  0  0  0  0  0  0  0999 V2000
    3.8849    0.1357    3.1589 C   0  0  0  0  0  0  0  0  0  0  0  0
    2.9952    0.5673    2.2628 C   0  0  0  0  0  0  0  0  0  0  0  0
    3.2348    0.9170    0.8194 C   0  0  0  0  0  0  0  0  0  0  0  0
    4.6354    1.0183    0.3977 N   0  0  0  0  0  0  0  0  0  0  0  0
    4.8277    0.9185   -1.0566 C   0  0  0  0  0  0  0  0  0  0  0  0
    4.7930   -0.4915   -1.5869 C   0  0  0  0  0  0  0  0  0  0  0  0
    4.7748   -1.6151   -0.8653 C   0  0  0  0  0  0  0  0  0  0  0  0
    5.3000    2.1140    0.9485 N   0  0  0  0  0  0  0  0  0  0  0  0
    4.9681    3.4769    0.9391 C   0  0  0  0  0  0  0  0  0  0  0  0
    5.8671    4.2022    1.5383 N   0  0  0  0  0  0  0  0  0  0  0  0
    6.8430    3.3229    1.9549 C   0  0  0  0  0  0  0  0  0  0  0  0
    8.0940    3.5591    2.6648 C   0  0  0  0  0  0  0  0  0  0  0  0
    8.5609    4.6012    3.0632 O   0  0  0  0  0  0  0  0  0  0  0  0
    8.7941    2.3316    2.8674 N   0  0  0  0  0  0  0  0  0  0  0  0
    9.6819    2.4238    3.3550 H   0  0  0  0  0  0  0  0  0  0  0  0
    8.4758    1.0301    2.5009 C   0  0  0  0  0  0  0  0  0  0  0  0
    9.1814    0.0715    2.7256 O   0  0  0  0  0  0  0  0  0  0  0  0
    7.2507    0.9174    1.8343 N   0  0  0  0  0  0  0  0  0  0  0  0
    6.9704   -0.0035    1.5133 H   0  0  0  0  0  0  0  0  0  0  0  0
    6.4999    2.0319    1.5928 C   0  0  0  0  0  0  0  0  0  0  0  0
    3.5773   -0.1035    4.1800 H   0  0  0  0  0  0  0  0  0  0  0  0
    4.9432    0.0093    2.9225 H   0  0  0  0  0  0  0  0  0  0  0  0
    1.9469    0.6767    2.5669 H   0  0  0  0  0  0  0  0  0  0  0  0
    2.6746    1.8430    0.5705 H   0  0  0  0  0  0  0  0  0  0  0  0
    2.7858    0.1299    0.1906 H   0  0  0  0  0  0  0  0  0  0  0  0
    5.8116    1.3589   -1.2901 H   0  0  0  0  0  0  0  0  0  0  0  0
    4.0869    1.5381   -1.6074 H   0  0  0  0  0  0  0  0  0  0  0  0
    4.8006   -0.5546   -2.6819 H   0  0  0  0  0  0  0  0  0  0  0  0
    4.7614   -1.5982    0.2280 H   0  0  0  0  0  0  0  0  0  0  0  0
    4.7692   -2.5942   -1.3509 H   0  0  0  0  0  0  0  0  0  0  0  0
    4.0468    3.8368    0.4827 H   0  0  0  0  0  0  0  0  0  0  0  0
  1  2  2  0
  1 21  1  0
  1 22  1  0
  2  3  1  0
  2 23  1  0
  3  4  1  0
  3 24  1  0
  3 25  1  0
  4  5  1  0
  4  8  1  0
  5  6  1  0
  5 26  1  0
  5 27  1  0
  6  7  2  0
  6 28  1  0
  7 29  1  0
  7 30  1  0
  8  9  1  0
  8 20  1  0
  9 10  2  0
  9 31  1  0
 10 11  1  0
 11 12  1  0
 11 20  2  0
 12 13  2  0
 12 14  1  0
 14 15  1  0
 14 16  1  0
 16 17  2  0
 16 18  1  0
 18 19  1  0
 18 20  1  0
M  END

