
     RDKit          3D

 43 44  0  0  0  0  0  0  0  0999 V2000
    0.1834   -3.3963   -4.0395 C   0  0  0  0  0  0  0  0  0  0  0  0
    0.6149   -3.1655   -2.6836 N   0  0  0  0  0  0  0  0  0  0  0  0
    0.9494   -4.1521   -1.8126 C   0  0  0  0  0  0  0  0  0  0  0  0
    0.8315   -5.5244   -2.1384 C   0  0  0  0  0  0  0  0  0  0  0  0
    1.2441   -6.5030   -1.2340 C   0  0  0  0  0  0  0  0  0  0  0  0
    1.1298   -7.9696   -1.5611 C   0  0  0  0  0  0  0  0  0  0  0  0
    1.7825   -6.2050   -0.0365 N   0  0  0  0  0  0  0  0  0  0  0  0
    1.8608   -4.9188    0.2926 C   0  0  0  0  0  0  0  0  0  0  0  0
    1.4326   -3.8460   -0.4990 C   0  0  0  0  0  0  0  0  0  0  0  0
    1.5924   -2.4271   -0.0671 C   0  0  0  0  0  0  0  0  0  0  0  0
    1.8982   -1.5632   -0.8988 O   0  0  0  0  0  0  0  0  0  0  0  0
    1.4309   -2.0955    1.2638 N   0  0  0  0  0  0  0  0  0  0  0  0
    1.9716   -0.8061    1.7090 C   0  0  0  0  0  0  0  0  0  0  0  0
    3.1494   -0.9350    2.6840 C   0  0  0  0  0  0  0  0  0  0  0  0
    4.3951   -1.5919    2.0886 C   0  0  0  0  0  0  0  0  0  0  0  0
    5.4375   -1.7358    3.0311 O   0  0  0  0  0  0  0  0  0  0  0  0
    0.6783   -2.8608    2.2610 C   0  0  1  0  0  0  0  0  0  0  0  0
   -0.2841   -2.0633    3.1876 C   0  0  0  0  0  0  0  0  0  0  0  0
   -1.2369   -3.2800    3.1610 C   0  0  0  0  0  0  0  0  0  0  0  0
   -0.5366   -3.7419    1.8613 C   0  0  0  0  0  0  0  0  0  0  0  0
   -0.0121   -2.4275   -4.5200 H   0  0  0  0  0  0  0  0  0  0  0  0
   -0.7517   -3.9818   -4.0782 H   0  0  0  0  0  0  0  0  0  0  0  0
    0.9380   -3.9317   -4.6479 H   0  0  0  0  0  0  0  0  0  0  0  0
    0.9753   -2.2482   -2.4216 H   0  0  0  0  0  0  0  0  0  0  0  0
    0.4404   -5.8245   -3.1106 H   0  0  0  0  0  0  0  0  0  0  0  0
    0.6911   -8.1454   -2.5536 H   0  0  0  0  0  0  0  0  0  0  0  0
    0.5108   -8.4764   -0.8030 H   0  0  0  0  0  0  0  0  0  0  0  0
    2.1243   -8.4425   -1.5205 H   0  0  0  0  0  0  0  0  0  0  0  0
    2.3176   -4.7056    1.2657 H   0  0  0  0  0  0  0  0  0  0  0  0
    1.1727   -0.2135    2.1812 H   0  0  0  0  0  0  0  0  0  0  0  0
    2.2769   -0.2664    0.8037 H   0  0  0  0  0  0  0  0  0  0  0  0
    2.8582   -1.4943    3.5897 H   0  0  0  0  0  0  0  0  0  0  0  0
    3.4099    0.0844    3.0261 H   0  0  0  0  0  0  0  0  0  0  0  0
    4.7226   -1.0274    1.1913 H   0  0  0  0  0  0  0  0  0  0  0  0
    4.1546   -2.6102    1.7435 H   0  0  0  0  0  0  0  0  0  0  0  0
    5.7182   -0.8528    3.3047 H   0  0  0  0  0  0  0  0  0  0  0  0
    1.3617   -3.4534    2.8962 H   0  0  0  0  0  0  0  0  0  0  0  0
   -0.7290   -1.2127    2.6489 H   0  0  0  0  0  0  0  0  0  0  0  0
    0.1045   -1.7116    4.1554 H   0  0  0  0  0  0  0  0  0  0  0  0
   -2.3162   -3.0748    3.1130 H   0  0  0  0  0  0  0  0  0  0  0  0
   -1.0498   -3.9720    3.9966 H   0  0  0  0  0  0  0  0  0  0  0  0
   -1.0362   -3.3374    0.9679 H   0  0  0  0  0  0  0  0  0  0  0  0
   -0.3659   -4.8160    1.7133 H   0  0  0  0  0  0  0  0  0  0  0  0
  1  2  1  0
  1 21  1  0
  1 22  1  0
  1 23  1  0
  2  3  1  0
  2 24  1  0
  3  4  2  0
  3  9  1  0
  4  5  1  0
  4 25  1  0
  5  6  1  0
  5  7  2  0
  6 26  1  0
  6 27  1  0
  6 28  1  0
  7  8  1  0
  8  9  2  0
  8 29  1  0
  9 10  1  0
 10 11  2  0
 10 12  1  0
 12 13  1  0
 12 17  1  0
 13 14  1  0
 13 30  1  0
 13 31  1  0
 14 15  1  0
 14 32  1  0
 14 33  1  0
 15 16  1  0
 15 34  1  0
 15 35  1  0
 16 36  1  0
 17 18  1  0
 17 20  1  0
 17 37  1  1
 18 19  1  0
 18 38  1  0
 18 39  1  0
 19 20  1  0
 19 40  1  0
 19 41  1  0
 20 42  1  0
 20 43  1  0
M  END

