
     RDKit          3D

 52 55  0  0  0  0  0  0  0  0999 V2000
    4.6802   -1.8742   -5.2628 C   0  0  0  0  0  0  0  0  0  0  0  0
    5.4087   -1.5918   -3.9707 C   0  0  0  0  0  0  0  0  0  0  0  0
    6.3738   -0.5742   -3.8965 C   0  0  0  0  0  0  0  0  0  0  0  0
    7.0391   -0.2962   -2.6983 C   0  0  0  0  0  0  0  0  0  0  0  0
    6.7522   -1.0328   -1.5513 C   0  0  0  0  0  0  0  0  0  0  0  0
    5.7911   -2.0571   -1.5962 C   0  0  0  0  0  0  0  0  0  0  0  0
    5.5255   -2.8253   -0.3336 C   0  0  0  0  0  0  0  0  0  0  0  0
    6.1270   -2.5623    0.6931 O   0  0  0  0  0  0  0  0  0  0  0  0
    4.5208   -3.9719   -0.3792 C   0  0  1  0  0  0  0  0  0  0  0  0
    5.1271   -5.2823   -0.9390 C   0  0  0  0  0  0  0  0  0  0  0  0
    4.1951   -6.3231   -0.4864 N   0  0  0  0  0  0  0  0  0  0  0  0
    2.9663   -6.7126   -1.5956 S   0  0  1  0  0  0  0  0  0  0  0  0
    1.8818   -7.3514   -0.8422 O   0  0  0  0  0  0  0  0  0  0  0  0
    2.6801   -5.5675   -2.4730 O   0  0  0  0  0  0  0  0  0  0  0  0
    3.7245   -7.9752   -2.5770 C   0  0  0  0  0  0  0  0  0  0  0  0
    3.3086   -9.2882   -2.6363 C   0  0  0  0  0  0  0  0  0  0  0  0
    4.1581   -9.8816   -3.5372 N   0  0  0  0  0  0  0  0  0  0  0  0
    4.1308  -11.2697   -3.9656 C   0  0  0  0  0  0  0  0  0  0  0  0
    5.0275   -8.9085   -3.9608 C   0  0  0  0  0  0  0  0  0  0  0  0
    4.7871   -7.7468   -3.3996 N   0  0  0  0  0  0  0  0  0  0  0  0
    3.7641   -5.9448    0.8768 C   0  0  0  0  0  0  0  0  0  0  0  0
    3.9777   -4.4006    1.0097 C   0  0  2  0  0  0  0  0  0  0  0  0
    2.7583   -3.6150    1.4557 C   0  0  0  0  0  0  0  0  0  0  0  0
    2.8558   -2.6953    2.5113 C   0  0  0  0  0  0  0  0  0  0  0  0
    1.7521   -1.9455    2.9286 C   0  0  0  0  0  0  0  0  0  0  0  0
    0.5359   -2.1218    2.2762 C   0  0  0  0  0  0  0  0  0  0  0  0
   -0.5320   -1.4088    2.6705 F   0  0  0  0  0  0  0  0  0  0  0  0
    0.4008   -3.0228    1.2216 C   0  0  0  0  0  0  0  0  0  0  0  0
    1.5131   -3.7626    0.8167 C   0  0  0  0  0  0  0  0  0  0  0  0
    5.1292   -2.3247   -2.8087 C   0  0  0  0  0  0  0  0  0  0  0  0
    5.3781   -1.9321   -6.1136 H   0  0  0  0  0  0  0  0  0  0  0  0
    3.9566   -1.0733   -5.4934 H   0  0  0  0  0  0  0  0  0  0  0  0
    4.1223   -2.8207   -5.2132 H   0  0  0  0  0  0  0  0  0  0  0  0
    6.6080    0.0091   -4.7923 H   0  0  0  0  0  0  0  0  0  0  0  0
    7.7871    0.5003   -2.6642 H   0  0  0  0  0  0  0  0  0  0  0  0
    7.2587   -0.8382   -0.6043 H   0  0  0  0  0  0  0  0  0  0  0  0
    3.6782   -3.7031   -1.0307 H   0  0  0  0  0  0  0  0  0  0  0  0
    6.1120   -5.4796   -0.4819 H   0  0  0  0  0  0  0  0  0  0  0  0
    5.2460   -5.3034   -2.0290 H   0  0  0  0  0  0  0  0  0  0  0  0
    2.5060   -9.8132   -2.1262 H   0  0  0  0  0  0  0  0  0  0  0  0
    4.2584  -11.9449   -3.1060 H   0  0  0  0  0  0  0  0  0  0  0  0
    4.9534  -11.4427   -4.6722 H   0  0  0  0  0  0  0  0  0  0  0  0
    3.1802  -11.5055   -4.4678 H   0  0  0  0  0  0  0  0  0  0  0  0
    5.8153   -9.1176   -4.6854 H   0  0  0  0  0  0  0  0  0  0  0  0
    4.3978   -6.4828    1.5996 H   0  0  0  0  0  0  0  0  0  0  0  0
    2.7288   -6.2641    1.0454 H   0  0  0  0  0  0  0  0  0  0  0  0
    4.7831   -4.2166    1.7341 H   0  0  0  0  0  0  0  0  0  0  0  0
    3.8175   -2.5563    3.0118 H   0  0  0  0  0  0  0  0  0  0  0  0
    1.8232   -1.2291    3.7494 H   0  0  0  0  0  0  0  0  0  0  0  0
   -0.5682   -3.1352    0.7313 H   0  0  0  0  0  0  0  0  0  0  0  0
    1.4004   -4.4655   -0.0129 H   0  0  0  0  0  0  0  0  0  0  0  0
    4.3803   -3.1177   -2.8666 H   0  0  0  0  0  0  0  0  0  0  0  0
  1  2  1  0
  1 31  1  0
  1 32  1  0
  1 33  1  0
  2  3  2  0
  2 30  1  0
  3  4  1  0
  3 34  1  0
  4  5  2  0
  4 35  1  0
  5  6  1  0
  5 36  1  0
  6  7  1  0
  6 30  2  0
  7  8  2  0
  7  9  1  0
  9 10  1  0
  9 22  1  0
  9 37  1  6
 10 11  1  0
 10 38  1  0
 10 39  1  0
 11 12  1  0
 11 21  1  0
 12 13  2  0
 12 14  2  0
 12 15  1  6
 15 16  2  0
 15 20  1  0
 16 17  1  0
 16 40  1  0
 17 18  1  0
 17 19  1  0
 18 41  1  0
 18 42  1  0
 18 43  1  0
 19 20  2  0
 19 44  1  0
 21 22  1  0
 21 45  1  0
 21 46  1  0
 22 23  1  0
 22 47  1  1
 23 24  2  0
 23 29  1  0
 24 25  1  0
 24 48  1  0
 25 26  2  0
 25 49  1  0
 26 27  1  0
 26 28  1  0
 28 29  2  0
 28 50  1  0
 29 51  1  0
 30 52  1  0
M  END

