
     RDKit          3D

 42 44  0  0  0  0  0  0  0  0999 V2000
   -0.4237   -2.6799   -2.7682 O   0  0  0  0  0  0  0  0  0  0  0  0
    0.8849   -2.0579   -2.9800 S   0  0  1  0  0  0  0  0  0  0  0  0
    1.0156   -0.6385   -3.2992 O   0  0  0  0  0  0  0  0  0  0  0  0
    1.9007   -2.2956   -1.6606 N   0  0  0  0  0  0  0  0  0  0  0  0
    1.7278   -3.4865   -0.8312 C   0  0  0  0  0  0  0  0  0  0  0  0
    2.9854   -3.7154    0.0254 C   0  0  0  0  0  0  0  0  0  0  0  0
    2.9410   -4.9216    0.8083 N   0  0  0  0  0  0  0  0  0  0  0  0
    3.2243   -6.1851    0.3605 C   0  0  0  0  0  0  0  0  0  0  0  0
    3.6641   -6.4635   -0.9439 C   0  0  0  0  0  0  0  0  0  0  0  0
    3.9375   -7.8177   -1.2446 C   0  0  0  0  0  0  0  0  0  0  0  0
    4.3692   -8.2143   -2.4723 N   0  0  0  0  0  0  0  0  0  0  0  0
    4.5590   -7.3171   -3.6065 C   0  0  0  0  0  0  0  0  0  0  0  0
    4.8376   -8.2694   -4.7791 C   0  0  0  0  0  0  0  0  0  0  0  0
    5.4898   -9.4829   -4.1010 C   0  0  0  0  0  0  0  0  0  0  0  0
    4.7181   -9.6040   -2.7816 C   0  0  0  0  0  0  0  0  0  0  0  0
    3.7794   -8.7876   -0.3151 N   0  0  0  0  0  0  0  0  0  0  0  0
    3.3544   -8.3933    0.8796 C   0  0  0  0  0  0  0  0  0  0  0  0
    3.0627   -7.1615    1.2802 N   0  0  0  0  0  0  0  0  0  0  0  0
    1.6767   -3.0345   -4.2356 C   0  0  0  0  0  0  0  0  0  0  0  0
    1.0481   -3.9965   -4.9893 C   0  0  0  0  0  0  0  0  0  0  0  0
    1.9010   -4.5553   -5.9839 C   0  0  0  0  0  0  0  0  0  0  0  0
    3.1562   -3.9941   -5.9558 C   0  0  0  0  0  0  0  0  0  0  0  0
    4.6083   -4.4281   -7.0681 Br  0  0  0  0  0  0  0  0  0  0  0  0
    3.3261   -2.7771   -4.7273 S   0  0  0  0  0  0  0  0  0  0  0  0
    1.9736   -1.4070   -1.1633 H   0  0  0  0  0  0  0  0  0  0  0  0
    1.5830   -4.3492   -1.4993 H   0  0  0  0  0  0  0  0  0  0  0  0
    0.8313   -3.4289   -0.1883 H   0  0  0  0  0  0  0  0  0  0  0  0
    3.1211   -2.8625    0.7117 H   0  0  0  0  0  0  0  0  0  0  0  0
    3.8680   -3.7188   -0.6358 H   0  0  0  0  0  0  0  0  0  0  0  0
    2.6051   -4.8924    1.7640 H   0  0  0  0  0  0  0  0  0  0  0  0
    3.7946   -5.6792   -1.6862 H   0  0  0  0  0  0  0  0  0  0  0  0
    5.4088   -6.6276   -3.4325 H   0  0  0  0  0  0  0  0  0  0  0  0
    3.6669   -6.6913   -3.7810 H   0  0  0  0  0  0  0  0  0  0  0  0
    5.4618   -7.8051   -5.5565 H   0  0  0  0  0  0  0  0  0  0  0  0
    3.8869   -8.5676   -5.2519 H   0  0  0  0  0  0  0  0  0  0  0  0
    6.5543   -9.2767   -3.8978 H   0  0  0  0  0  0  0  0  0  0  0  0
    5.4386  -10.3998   -4.7068 H   0  0  0  0  0  0  0  0  0  0  0  0
    5.3011  -10.0483   -1.9628 H   0  0  0  0  0  0  0  0  0  0  0  0
    3.8074  -10.2218   -2.8941 H   0  0  0  0  0  0  0  0  0  0  0  0
    3.2263   -9.1856    1.6299 H   0  0  0  0  0  0  0  0  0  0  0  0
    0.0086   -4.2796   -4.8217 H   0  0  0  0  0  0  0  0  0  0  0  0
    1.6057   -5.3344   -6.6865 H   0  0  0  0  0  0  0  0  0  0  0  0
  1  2  2  0
  2  3  2  0
  2  4  1  1
  2 19  1  0
  4  5  1  0
  4 25  1  0
  5  6  1  0
  5 26  1  0
  5 27  1  0
  6  7  1  0
  6 28  1  0
  6 29  1  0
  7  8  1  0
  7 30  1  0
  8  9  2  0
  8 18  1  0
  9 10  1  0
  9 31  1  0
 10 11  1  0
 10 16  2  0
 11 12  1  0
 11 15  1  0
 12 13  1  0
 12 32  1  0
 12 33  1  0
 13 14  1  0
 13 34  1  0
 13 35  1  0
 14 15  1  0
 14 36  1  0
 14 37  1  0
 15 38  1  0
 15 39  1  0
 16 17  1  0
 17 18  2  0
 17 40  1  0
 19 20  2  0
 19 24  1  0
 20 21  1  0
 20 41  1  0
 21 22  2  0
 21 42  1  0
 22 23  1  0
 22 24  1  0
M  END

