
     RDKit          3D

 36 37  0  0  0  0  0  0  0  0999 V2000
    0.9606    0.2349    0.0490 O   0  0  0  0  0  0  0  0  0  0  0  0
    2.3699    0.1545   -0.0112 C   0  0  1  0  0  0  0  0  0  0  0  0
    2.9134   -0.6021    1.2056 C   0  0  0  0  0  0  0  0  0  0  0  0
    2.4283    0.0262    2.4229 N   0  0  0  0  0  0  0  0  0  0  0  0
    2.3782   -0.6017    3.6556 C   0  0  0  0  0  0  0  0  0  0  0  0
    2.4770   -2.0000    3.8062 C   0  0  0  0  0  0  0  0  0  0  0  0
    2.3720   -2.5886    5.0669 C   0  0  0  0  0  0  0  0  0  0  0  0
    2.4951   -4.3296    5.1946 Cl  0  0  0  0  0  0  0  0  0  0  0  0
    2.1803   -1.8280    6.2215 C   0  0  0  0  0  0  0  0  0  0  0  0
    2.0936   -0.4401    6.0890 C   0  0  0  0  0  0  0  0  0  0  0  0
    2.1912    0.1601    4.8374 C   0  0  0  0  0  0  0  0  0  0  0  0
    2.0808    1.9107    4.7127 Cl  0  0  0  0  0  0  0  0  0  0  0  0
    2.7961   -0.4945   -1.3306 C   0  0  0  0  0  0  0  0  0  0  0  0
    2.4729   -1.9040   -1.4384 N   0  0  0  0  0  0  0  0  0  0  0  0
    1.0889   -2.2323   -1.7835 C   0  0  0  0  0  0  0  0  0  0  0  0
    1.1290   -3.7473   -2.0414 C   0  0  0  0  0  0  0  0  0  0  0  0
    2.5963   -4.0272   -2.4711 C   0  0  0  0  0  0  0  0  0  0  0  0
    3.2836   -2.6520   -2.3952 C   0  0  0  0  0  0  0  0  0  0  0  0
    0.7326    0.3532    0.9849 H   0  0  0  0  0  0  0  0  0  0  0  0
    2.8067    1.1797   -0.0076 H   0  0  0  0  0  0  0  0  0  0  0  0
    4.0205   -0.6453    1.1641 H   0  0  0  0  0  0  0  0  0  0  0  0
    2.5472   -1.6350    1.1410 H   0  0  0  0  0  0  0  0  0  0  0  0
    2.6227    1.0220    2.4961 H   0  0  0  0  0  0  0  0  0  0  0  0
    2.6340   -2.6374    2.9382 H   0  0  0  0  0  0  0  0  0  0  0  0
    2.1044   -2.3067    7.1978 H   0  0  0  0  0  0  0  0  0  0  0  0
    1.9493    0.1903    6.9682 H   0  0  0  0  0  0  0  0  0  0  0  0
    3.8905   -0.3843   -1.4105 H   0  0  0  0  0  0  0  0  0  0  0  0
    2.3552    0.1002   -2.1628 H   0  0  0  0  0  0  0  0  0  0  0  0
    0.7766   -1.6899   -2.7068 H   0  0  0  0  0  0  0  0  0  0  0  0
    0.4009   -1.9270   -0.9853 H   0  0  0  0  0  0  0  0  0  0  0  0
    0.3972   -4.0470   -2.8064 H   0  0  0  0  0  0  0  0  0  0  0  0
    0.8837   -4.3015   -1.1228 H   0  0  0  0  0  0  0  0  0  0  0  0
    2.6699   -4.4582   -3.4808 H   0  0  0  0  0  0  0  0  0  0  0  0
    3.0743   -4.7367   -1.7790 H   0  0  0  0  0  0  0  0  0  0  0  0
    3.2789   -2.1656   -3.3990 H   0  0  0  0  0  0  0  0  0  0  0  0
    4.3342   -2.7064   -2.0652 H   0  0  0  0  0  0  0  0  0  0  0  0
  1  2  1  0
  1 19  1  0
  2  3  1  0
  2 13  1  0
  2 20  1  6
  3  4  1  0
  3 21  1  0
  3 22  1  0
  4  5  1  0
  4 23  1  0
  5  6  2  0
  5 11  1  0
  6  7  1  0
  6 24  1  0
  7  8  1  0
  7  9  2  0
  9 10  1  0
  9 25  1  0
 10 11  2  0
 10 26  1  0
 11 12  1  0
 13 14  1  0
 13 27  1  0
 13 28  1  0
 14 15  1  0
 14 18  1  0
 15 16  1  0
 15 29  1  0
 15 30  1  0
 16 17  1  0
 16 31  1  0
 16 32  1  0
 17 18  1  0
 17 33  1  0
 17 34  1  0
 18 35  1  0
 18 36  1  0
M  END

