
     RDKit          3D

 41 44  0  0  0  0  0  0  0  0999 V2000
    0.8930    0.0371    0.3960 C   0  0  0  0  0  0  0  0  0  0  0  0
    2.4109    0.1360    0.3436 C   0  0  1  0  0  0  0  0  0  0  0  0
    2.9793   -1.0679   -0.2190 O   0  0  0  0  0  0  0  0  0  0  0  0
    3.3590   -2.0508    0.6359 C   0  0  0  0  0  0  0  0  0  0  0  0
    3.2972   -1.9622    1.8384 O   0  0  0  0  0  0  0  0  0  0  0  0
    3.8592   -3.2350   -0.0867 C   0  0  0  0  0  0  0  0  0  0  0  0
    3.8768   -3.4773   -1.4364 C   0  0  0  0  0  0  0  0  0  0  0  0
    4.4317   -4.7582   -1.7493 C   0  0  0  0  0  0  0  0  0  0  0  0
    4.6229   -5.3689   -3.0048 C   0  0  0  0  0  0  0  0  0  0  0  0
    4.2502   -4.6990   -4.1034 F   0  0  0  0  0  0  0  0  0  0  0  0
    5.1823   -6.6283   -3.1125 C   0  0  0  0  0  0  0  0  0  0  0  0
    5.5691   -7.3166   -1.9429 C   0  0  0  0  0  0  0  0  0  0  0  0
    5.4012   -6.7583   -0.6798 C   0  0  0  0  0  0  0  0  0  0  0  0
    4.8310   -5.4783   -0.5899 C   0  0  0  0  0  0  0  0  0  0  0  0
    4.5093   -4.5613    0.8622 S   0  0  0  0  0  0  0  0  0  0  0  0
    2.8748    1.3606   -0.4657 C   0  0  0  0  0  0  0  0  0  0  0  0
    2.3742    2.4474   -0.2333 O   0  0  0  0  0  0  0  0  0  0  0  0
    3.8559    1.1116   -1.3803 N   0  0  0  0  0  0  0  0  0  0  0  0
    4.5173    2.0114   -2.2437 C   0  0  0  0  0  0  0  0  0  0  0  0
    4.2345    3.3857   -2.2772 C   0  0  0  0  0  0  0  0  0  0  0  0
    4.9252    4.2415   -3.1581 C   0  0  0  0  0  0  0  0  0  0  0  0
    5.8842    3.6867   -3.9836 C   0  0  0  0  0  0  0  0  0  0  0  0
    6.1646    2.3193   -3.9495 C   0  0  0  0  0  0  0  0  0  0  0  0
    5.5049    1.4565   -3.0974 C   0  0  0  0  0  0  0  0  0  0  0  0
    7.1447    2.0314   -4.8554 O   0  0  0  0  0  0  0  0  0  0  0  0
    7.4909    3.2651   -5.4856 C   0  0  0  0  0  0  0  0  0  0  0  0
    6.6856    4.2908   -4.9162 O   0  0  0  0  0  0  0  0  0  0  0  0
    0.5860   -0.7588    1.0897 H   0  0  0  0  0  0  0  0  0  0  0  0
    0.4826   -0.1758   -0.6031 H   0  0  0  0  0  0  0  0  0  0  0  0
    0.4867    0.9959    0.7456 H   0  0  0  0  0  0  0  0  0  0  0  0
    2.8102    0.2540    1.3634 H   0  0  0  0  0  0  0  0  0  0  0  0
    3.4976   -2.7751   -2.1776 H   0  0  0  0  0  0  0  0  0  0  0  0
    5.3156   -7.0692   -4.1018 H   0  0  0  0  0  0  0  0  0  0  0  0
    6.0103   -8.3117   -2.0368 H   0  0  0  0  0  0  0  0  0  0  0  0
    5.7045   -7.3024    0.2166 H   0  0  0  0  0  0  0  0  0  0  0  0
    4.1343    0.1391   -1.4485 H   0  0  0  0  0  0  0  0  0  0  0  0
    3.4719    3.7815   -1.6114 H   0  0  0  0  0  0  0  0  0  0  0  0
    4.7070    5.3101   -3.1855 H   0  0  0  0  0  0  0  0  0  0  0  0
    5.7414    0.3906   -3.0864 H   0  0  0  0  0  0  0  0  0  0  0  0
    7.2950    3.1933   -6.5714 H   0  0  0  0  0  0  0  0  0  0  0  0
    8.5597    3.4843   -5.3070 H   0  0  0  0  0  0  0  0  0  0  0  0
  1  2  1  0
  1 28  1  0
  1 29  1  0
  1 30  1  0
  2  3  1  0
  2 16  1  0
  2 31  1  1
  3  4  1  0
  4  5  2  0
  4  6  1  0
  6  7  2  0
  6 15  1  0
  7  8  1  0
  7 32  1  0
  8  9  2  0
  8 14  1  0
  9 10  1  0
  9 11  1  0
 11 12  2  0
 11 33  1  0
 12 13  1  0
 12 34  1  0
 13 14  2  0
 13 35  1  0
 14 15  1  0
 16 17  2  0
 16 18  1  0
 18 19  1  0
 18 36  1  0
 19 20  2  0
 19 24  1  0
 20 21  1  0
 20 37  1  0
 21 22  2  0
 21 38  1  0
 22 23  1  0
 22 27  1  0
 23 24  2  0
 23 25  1  0
 24 39  1  0
 25 26  1  0
 26 27  1  0
 26 40  1  0
 26 41  1  0
M  END

