
     RDKit          3D

 59 62  0  0  0  0  0  0  0  0999 V2000
    1.7323   -0.3895    1.2933 O   0  0  0  0  0  0  0  0  0  0  0  0
    2.7352   -0.6879    0.6602 C   0  0  0  0  0  0  0  0  0  0  0  0
    2.7122   -1.8427   -0.3447 C   0  0  0  0  0  0  0  0  0  0  0  0
    1.3385   -2.5261   -0.4090 C   0  0  0  0  0  0  0  0  0  0  0  0
    1.3034   -3.6673   -1.4016 C   0  0  0  0  0  0  0  0  0  0  0  0
    1.6538   -4.9715   -1.0153 C   0  0  0  0  0  0  0  0  0  0  0  0
    1.6544   -6.0215   -1.9378 C   0  0  0  0  0  0  0  0  0  0  0  0
    1.3026   -5.7859   -3.2702 C   0  0  0  0  0  0  0  0  0  0  0  0
    0.9484   -4.4938   -3.6698 C   0  0  0  0  0  0  0  0  0  0  0  0
    0.9496   -3.4474   -2.7430 C   0  0  0  0  0  0  0  0  0  0  0  0
    3.9221   -0.0096    0.8212 N   0  0  0  0  0  0  0  0  0  0  0  0
    5.1712   -0.2696    0.1128 C   0  0  0  0  0  0  0  0  0  0  0  0
    5.6765    0.9856   -0.6165 C   0  0  0  0  0  0  0  0  0  0  0  0
    5.7014    2.2378    0.2737 C   0  0  2  0  0  0  0  0  0  0  0  0
    7.1531    2.2762    1.4177 S   0  0  1  0  0  0  0  0  0  0  0  0
    6.9379    3.3429    2.3993 O   0  0  0  0  0  0  0  0  0  0  0  0
    7.5205    0.9274    1.8415 O   0  0  0  0  0  0  0  0  0  0  0  0
    8.4273    2.9443    0.4644 N   0  0  0  0  0  0  0  0  0  0  0  0
    9.1861    2.3056   -0.4991 C   0  0  0  0  0  0  0  0  0  0  0  0
    8.8907    1.2217   -0.9616 O   0  0  0  0  0  0  0  0  0  0  0  0
   10.4271    3.0607   -0.9413 C   0  0  1  0  0  0  0  0  0  0  0  0
   10.5995    4.4821   -0.4855 C   0  0  0  0  0  0  0  0  0  0  0  0
   11.4931    4.8171    0.5465 C   0  0  0  0  0  0  0  0  0  0  0  0
   11.6642    6.1290    0.9888 C   0  0  0  0  0  0  0  0  0  0  0  0
   10.9207    7.1491    0.3893 C   0  0  0  0  0  0  0  0  0  0  0  0
   11.1202    8.7979    0.9189 Cl  0  0  0  0  0  0  0  0  0  0  0  0
   10.0116    6.8632   -0.6321 C   0  0  0  0  0  0  0  0  0  0  0  0
    9.8588    5.5401   -1.0537 C   0  0  0  0  0  0  0  0  0  0  0  0
    8.6940    5.2169   -2.3203 Cl  0  0  0  0  0  0  0  0  0  0  0  0
   11.6538    2.1636   -1.1039 C   0  0  0  0  0  0  0  0  0  0  0  0
   10.9397    2.6551   -2.3154 C   0  0  0  0  0  0  0  0  0  0  0  0
    4.4095    2.3898    1.0945 C   0  0  0  0  0  0  0  0  0  0  0  0
    3.9932    1.0863    1.7829 C   0  0  0  0  0  0  0  0  0  0  0  0
    3.4872   -2.5811   -0.0760 H   0  0  0  0  0  0  0  0  0  0  0  0
    2.9915   -1.4701   -1.3456 H   0  0  0  0  0  0  0  0  0  0  0  0
    0.5796   -1.7715   -0.6652 H   0  0  0  0  0  0  0  0  0  0  0  0
    1.0756   -2.8851    0.5975 H   0  0  0  0  0  0  0  0  0  0  0  0
    1.9228   -5.1675    0.0272 H   0  0  0  0  0  0  0  0  0  0  0  0
    1.9260   -7.0297   -1.6132 H   0  0  0  0  0  0  0  0  0  0  0  0
    1.2988   -6.6064   -3.9924 H   0  0  0  0  0  0  0  0  0  0  0  0
    0.6642   -4.3002   -4.7077 H   0  0  0  0  0  0  0  0  0  0  0  0
    0.6624   -2.4411   -3.0632 H   0  0  0  0  0  0  0  0  0  0  0  0
    5.0342   -1.0739   -0.6178 H   0  0  0  0  0  0  0  0  0  0  0  0
    5.9387   -0.6044    0.8300 H   0  0  0  0  0  0  0  0  0  0  0  0
    4.9925    1.2161   -1.4519 H   0  0  0  0  0  0  0  0  0  0  0  0
    6.6705    0.7923   -1.0443 H   0  0  0  0  0  0  0  0  0  0  0  0
    5.8776    3.1426   -0.3277 H   0  0  0  0  0  0  0  0  0  0  0  0
    8.7303    3.8396    0.8426 H   0  0  0  0  0  0  0  0  0  0  0  0
   12.0719    4.0189    1.0169 H   0  0  0  0  0  0  0  0  0  0  0  0
   12.3651    6.3629    1.7910 H   0  0  0  0  0  0  0  0  0  0  0  0
    9.4280    7.6582   -1.0954 H   0  0  0  0  0  0  0  0  0  0  0  0
   11.5243    1.1156   -0.8242 H   0  0  0  0  0  0  0  0  0  0  0  0
   12.6249    2.5988   -0.8548 H   0  0  0  0  0  0  0  0  0  0  0  0
   10.3161    1.9464   -2.8643 H   0  0  0  0  0  0  0  0  0  0  0  0
   11.4038    3.4447   -2.9112 H   0  0  0  0  0  0  0  0  0  0  0  0
    3.6186    2.6910    0.3867 H   0  0  0  0  0  0  0  0  0  0  0  0
    4.5180    3.2000    1.8301 H   0  0  0  0  0  0  0  0  0  0  0  0
    3.0030    1.1879    2.2425 H   0  0  0  0  0  0  0  0  0  0  0  0
    4.7158    0.8299    2.5792 H   0  0  0  0  0  0  0  0  0  0  0  0
  1  2  2  0
  2  3  1  0
  2 11  1  0
  3  4  1  0
  3 34  1  0
  3 35  1  0
  4  5  1  0
  4 36  1  0
  4 37  1  0
  5  6  2  0
  5 10  1  0
  6  7  1  0
  6 38  1  0
  7  8  2  0
  7 39  1  0
  8  9  1  0
  8 40  1  0
  9 10  2  0
  9 41  1  0
 10 42  1  0
 11 12  1  0
 11 33  1  0
 12 13  1  0
 12 43  1  0
 12 44  1  0
 13 14  1  0
 13 45  1  0
 13 46  1  0
 14 15  1  0
 14 32  1  0
 14 47  1  6
 15 16  2  0
 15 17  2  0
 15 18  1  6
 18 19  1  0
 18 48  1  0
 19 20  2  0
 21 19  1  1
 21 22  1  0
 21 30  1  0
 21 31  1  0
 22 23  2  0
 22 28  1  0
 23 24  1  0
 23 49  1  0
 24 25  2  0
 24 50  1  0
 25 26  1  0
 25 27  1  0
 27 28  2  0
 27 51  1  0
 28 29  1  0
 30 31  1  0
 30 52  1  0
 30 53  1  0
 31 54  1  0
 31 55  1  0
 32 33  1  0
 32 56  1  0
 32 57  1  0
 33 58  1  0
 33 59  1  0
M  END

