
     RDKit          3D

 49 50  0  0  0  0  0  0  0  0999 V2000
    3.8955    9.8313   -4.9788 C   0  0  0  0  0  0  0  0  0  0  0  0
    5.3306    9.3262   -4.8233 C   0  0  0  0  0  0  0  0  0  0  0  0
    5.4225    7.9852   -4.0880 C   0  0  0  0  0  0  0  0  0  0  0  0
    6.8585    7.4964   -3.9414 C   0  0  0  0  0  0  0  0  0  0  0  0
    6.9364    6.2854   -3.1697 O   0  0  0  0  0  0  0  0  0  0  0  0
    6.8046    5.1169   -3.8240 C   0  0  0  0  0  0  0  0  0  0  0  0
    6.5964    5.0311   -5.0115 O   0  0  0  0  0  0  0  0  0  0  0  0
    6.9912    3.9314   -2.8819 C   0  0  1  0  0  0  0  0  0  0  0  0
    6.1690    2.7246   -3.3561 C   0  0  0  0  0  0  0  0  0  0  0  0
    8.4802    3.6114   -2.7534 C   0  0  0  0  0  0  0  0  0  0  0  0
    9.2619    3.3633   -3.8955 C   0  0  0  0  0  0  0  0  0  0  0  0
   10.6197    3.0442   -3.7847 C   0  0  0  0  0  0  0  0  0  0  0  0
   11.2066    2.9700   -2.5204 C   0  0  0  0  0  0  0  0  0  0  0  0
   10.4360    3.2177   -1.3746 C   0  0  0  0  0  0  0  0  0  0  0  0
    9.0826    3.5380   -1.4867 C   0  0  0  0  0  0  0  0  0  0  0  0
   11.2835    3.0646   -0.1323 C   0  0  0  0  0  0  0  0  0  0  0  0
   12.7543    3.1369   -0.6573 C   0  0  1  0  0  0  0  0  0  0  0  0
   13.2209    4.6048   -0.6751 C   0  0  0  0  0  0  0  0  0  0  0  0
   13.7264    2.2514    0.1499 C   0  0  0  0  0  0  0  0  0  0  0  0
   13.8961    2.6082    1.6288 C   0  0  0  0  0  0  0  0  0  0  0  0
   12.6259    2.6312   -2.1304 C   0  0  0  0  0  0  0  0  0  0  0  0
    3.8625   10.7940   -5.5130 H   0  0  0  0  0  0  0  0  0  0  0  0
    3.4137    9.9776   -3.9976 H   0  0  0  0  0  0  0  0  0  0  0  0
    3.2787    9.1139   -5.5452 H   0  0  0  0  0  0  0  0  0  0  0  0
    5.9307   10.0822   -4.2843 H   0  0  0  0  0  0  0  0  0  0  0  0
    5.7958    9.2274   -5.8207 H   0  0  0  0  0  0  0  0  0  0  0  0
    4.8428    7.2216   -4.6334 H   0  0  0  0  0  0  0  0  0  0  0  0
    4.9723    8.0741   -3.0834 H   0  0  0  0  0  0  0  0  0  0  0  0
    7.4684    8.2255   -3.3868 H   0  0  0  0  0  0  0  0  0  0  0  0
    7.3138    7.3242   -4.9284 H   0  0  0  0  0  0  0  0  0  0  0  0
    6.6365    4.2562   -1.8923 H   0  0  0  0  0  0  0  0  0  0  0  0
    6.4679    2.4234   -4.3703 H   0  0  0  0  0  0  0  0  0  0  0  0
    5.0940    2.9636   -3.3816 H   0  0  0  0  0  0  0  0  0  0  0  0
    6.3202    1.8712   -2.6782 H   0  0  0  0  0  0  0  0  0  0  0  0
    8.8026    3.4361   -4.8847 H   0  0  0  0  0  0  0  0  0  0  0  0
   11.2112    2.8620   -4.6867 H   0  0  0  0  0  0  0  0  0  0  0  0
    8.4860    3.7386   -0.5914 H   0  0  0  0  0  0  0  0  0  0  0  0
   11.0889    2.0810    0.3359 H   0  0  0  0  0  0  0  0  0  0  0  0
   11.0663    3.8255    0.6351 H   0  0  0  0  0  0  0  0  0  0  0  0
   13.2195    5.0457    0.3338 H   0  0  0  0  0  0  0  0  0  0  0  0
   12.5583    5.2199   -1.3046 H   0  0  0  0  0  0  0  0  0  0  0  0
   14.2429    4.6884   -1.0805 H   0  0  0  0  0  0  0  0  0  0  0  0
   14.7142    2.2776   -0.3456 H   0  0  0  0  0  0  0  0  0  0  0  0
   13.3809    1.2048    0.0726 H   0  0  0  0  0  0  0  0  0  0  0  0
   14.3260    3.6126    1.7680 H   0  0  0  0  0  0  0  0  0  0  0  0
   14.5711    1.8937    2.1265 H   0  0  0  0  0  0  0  0  0  0  0  0
   12.9352    2.5803    2.1685 H   0  0  0  0  0  0  0  0  0  0  0  0
   12.7788    1.5365   -2.1757 H   0  0  0  0  0  0  0  0  0  0  0  0
   13.3819    3.0807   -2.7957 H   0  0  0  0  0  0  0  0  0  0  0  0
  1  2  1  0
  1 22  1  0
  1 23  1  0
  1 24  1  0
  2  3  1  0
  2 25  1  0
  2 26  1  0
  3  4  1  0
  3 27  1  0
  3 28  1  0
  4  5  1  0
  4 29  1  0
  4 30  1  0
  5  6  1  0
  6  7  2  0
  6  8  1  0
  8  9  1  0
  8 10  1  0
  8 31  1  1
  9 32  1  0
  9 33  1  0
  9 34  1  0
 10 11  2  0
 10 15  1  0
 11 12  1  0
 11 35  1  0
 12 13  2  0
 12 36  1  0
 13 14  1  0
 13 21  1  0
 14 15  2  0
 14 16  1  0
 15 37  1  0
 16 17  1  0
 16 38  1  0
 16 39  1  0
 17 18  1  6
 17 19  1  0
 17 21  1  0
 18 40  1  0
 18 41  1  0
 18 42  1  0
 19 20  1  0
 19 43  1  0
 19 44  1  0
 20 45  1  0
 20 46  1  0
 20 47  1  0
 21 48  1  0
 21 49  1  0
M  END

