
     RDKit          3D

 49 51  0  0  0  0  0  0  0  0999 V2000
    2.1038    2.9846   -0.3826 C   0  0  0  0  0  0  0  0  0  0  0  0
    3.2221    3.4129   -1.2028 N   0  0  0  0  0  0  0  0  0  0  0  0
    4.4750    2.7012   -0.9759 C   0  0  0  0  0  0  0  0  0  0  0  0
    4.5386    1.3340   -1.6739 C   0  0  0  0  0  0  0  0  0  0  0  0
    4.2261    1.4827   -3.0974 N   0  0  0  0  0  0  0  0  0  0  0  0
    5.0504    0.9200   -4.0283 C   0  0  0  0  0  0  0  0  0  0  0  0
    6.0733    0.3151   -3.7304 O   0  0  0  0  0  0  0  0  0  0  0  0
    4.6532    1.0624   -5.5027 C   0  0  0  0  0  0  0  0  0  0  0  0
    5.6528    0.4092   -6.3051 N   0  0  0  0  0  0  0  0  0  0  0  0
    5.5737    0.3758   -7.6554 C   0  0  0  0  0  0  0  0  0  0  0  0
    4.6874    0.9247   -8.2933 O   0  0  0  0  0  0  0  0  0  0  0  0
    6.7285   -0.3388   -8.3744 C   0  0  1  0  0  0  0  0  0  0  0  0
    7.9622    0.5874   -8.5061 C   0  0  0  0  0  0  0  0  0  0  0  0
    9.1449   -0.3764   -8.5116 C   0  0  0  0  0  0  0  0  0  0  0  0
    8.6503   -1.5942   -7.7402 C   0  0  0  0  0  0  0  0  0  0  0  0
    9.3416   -2.4809   -7.2923 O   0  0  0  0  0  0  0  0  0  0  0  0
    7.2537   -1.5219   -7.6844 N   0  0  0  0  0  0  0  0  0  0  0  0
    6.4070   -2.6046   -7.3186 C   0  0  0  0  0  0  0  0  0  0  0  0
    6.8429   -3.6001   -6.4228 C   0  0  0  0  0  0  0  0  0  0  0  0
    5.9922   -4.6530   -6.0833 C   0  0  0  0  0  0  0  0  0  0  0  0
    4.7014   -4.7377   -6.6130 C   0  0  0  0  0  0  0  0  0  0  0  0
    4.2656   -3.7474   -7.4954 C   0  0  0  0  0  0  0  0  0  0  0  0
    5.1060   -2.6894   -7.8504 C   0  0  0  0  0  0  0  0  0  0  0  0
    2.9732    2.1819   -3.3754 C   0  0  0  0  0  0  0  0  0  0  0  0
    2.9457    3.5289   -2.6257 C   0  0  0  0  0  0  0  0  0  0  0  0
    2.3807    3.0529    0.6818 H   0  0  0  0  0  0  0  0  0  0  0  0
    1.7445    1.9470   -0.5626 H   0  0  0  0  0  0  0  0  0  0  0  0
    1.2477    3.6595   -0.5443 H   0  0  0  0  0  0  0  0  0  0  0  0
    4.6321    2.5752    0.1073 H   0  0  0  0  0  0  0  0  0  0  0  0
    5.3038    3.3256   -1.3562 H   0  0  0  0  0  0  0  0  0  0  0  0
    3.8159    0.6320   -1.2164 H   0  0  0  0  0  0  0  0  0  0  0  0
    5.5365    0.8853   -1.5952 H   0  0  0  0  0  0  0  0  0  0  0  0
    4.5627    2.1261   -5.7851 H   0  0  0  0  0  0  0  0  0  0  0  0
    3.6551    0.6189   -5.6753 H   0  0  0  0  0  0  0  0  0  0  0  0
    6.3702   -0.0944   -5.7854 H   0  0  0  0  0  0  0  0  0  0  0  0
    6.3368   -0.6010   -9.3722 H   0  0  0  0  0  0  0  0  0  0  0  0
    8.0159    1.2475   -7.6263 H   0  0  0  0  0  0  0  0  0  0  0  0
    7.8883    1.2237   -9.3979 H   0  0  0  0  0  0  0  0  0  0  0  0
   10.0667    0.0146   -8.0594 H   0  0  0  0  0  0  0  0  0  0  0  0
    9.3988   -0.7196   -9.5299 H   0  0  0  0  0  0  0  0  0  0  0  0
    7.8479   -3.5490   -6.0124 H   0  0  0  0  0  0  0  0  0  0  0  0
    6.3492   -5.4169   -5.3875 H   0  0  0  0  0  0  0  0  0  0  0  0
    4.0420   -5.5645   -6.3385 H   0  0  0  0  0  0  0  0  0  0  0  0
    3.2595   -3.7922   -7.9207 H   0  0  0  0  0  0  0  0  0  0  0  0
    4.7330   -1.9335   -8.5418 H   0  0  0  0  0  0  0  0  0  0  0  0
    2.1219    1.5500   -3.0568 H   0  0  0  0  0  0  0  0  0  0  0  0
    2.8583    2.3569   -4.4520 H   0  0  0  0  0  0  0  0  0  0  0  0
    1.9672    4.0138   -2.7727 H   0  0  0  0  0  0  0  0  0  0  0  0
    3.7106    4.1867   -3.0784 H   0  0  0  0  0  0  0  0  0  0  0  0
  1  2  1  0
  1 26  1  0
  1 27  1  0
  1 28  1  0
  2  3  1  0
  2 25  1  0
  3  4  1  0
  3 29  1  0
  3 30  1  0
  4  5  1  0
  4 31  1  0
  4 32  1  0
  5  6  1  0
  5 24  1  0
  6  7  2  0
  6  8  1  0
  8  9  1  0
  8 33  1  0
  8 34  1  0
  9 10  1  0
  9 35  1  0
 10 11  2  0
 10 12  1  0
 12 13  1  0
 12 17  1  0
 12 36  1  6
 13 14  1  0
 13 37  1  0
 13 38  1  0
 14 15  1  0
 14 39  1  0
 14 40  1  0
 15 16  2  0
 15 17  1  0
 17 18  1  0
 18 19  2  0
 18 23  1  0
 19 20  1  0
 19 41  1  0
 20 21  2  0
 20 42  1  0
 21 22  1  0
 21 43  1  0
 22 23  2  0
 22 44  1  0
 23 45  1  0
 24 25  1  0
 24 46  1  0
 24 47  1  0
 25 48  1  0
 25 49  1  0
M  END

