
     RDKit          3D

 76 81  0  0  0  0  0  0  0  0999 V2000
    8.0151   -6.0685    7.8322 N   0  0  0  0  0  0  0  0  0  0  0  0
    8.3599   -7.6756    7.4411 S   0  0  1  0  0  0  0  0  0  0  0  0
    9.5936   -7.6651    6.6428 O   0  0  0  0  0  0  0  0  0  0  0  0
    8.2358   -8.4868    8.6533 O   0  0  0  0  0  0  0  0  0  0  0  0
    6.9943   -8.1305    6.3499 C   0  0  0  0  0  0  0  0  0  0  0  0
    7.0314   -7.4045    5.0059 C   0  0  0  0  0  0  0  0  0  0  0  0
    5.9550   -7.8743    4.1246 N   0  0  0  0  0  0  0  0  0  0  0  0
    6.2400   -7.9812    2.7014 C   0  0  0  0  0  0  0  0  0  0  0  0
    5.6768   -6.6793    2.0413 C   0  0  2  0  0  0  0  0  0  0  0  0
    5.1106   -6.9807    1.1418 H   0  0  0  0  0  0  0  0  0  0  0  0
    6.7498   -5.6912    1.6010 C   0  0  0  0  0  0  0  0  0  0  0  0
    7.3113   -5.8116    0.3190 C   0  0  0  0  0  0  0  0  0  0  0  0
    8.3404   -4.9598   -0.0886 C   0  0  0  0  0  0  0  0  0  0  0  0
    8.8278   -3.9758    0.7760 C   0  0  0  0  0  0  0  0  0  0  0  0
    8.2641   -3.8501    2.0483 C   0  0  0  0  0  0  0  0  0  0  0  0
    8.7005   -2.8414    2.8787 O   0  0  0  0  0  0  0  0  0  0  0  0
    9.5221   -3.1314    3.9559 C   0  0  0  0  0  0  0  0  0  0  0  0
   10.1083   -4.3275    4.2300 C   0  0  0  0  0  0  0  0  0  0  0  0
   10.9744   -4.5679    5.4517 C   0  0  0  0  0  0  0  0  0  0  0  0
   10.7099   -3.7519    6.7544 C   0  0  0  0  0  0  0  0  0  0  0  0
   11.4613   -2.3842    6.8926 C   0  0  0  0  0  0  0  0  0  0  0  0
   10.6667   -1.1355    7.2282 C   0  0  0  0  0  0  0  0  0  0  0  0
    9.7476   -0.4913    6.4615 C   0  0  0  0  0  0  0  0  0  0  0  0
    9.2767   -1.0154    5.1790 C   0  0  0  0  0  0  0  0  0  0  0  0
    9.7449   -2.1570    4.8556 N   0  0  0  0  0  0  0  0  0  0  0  0
    7.2278   -4.6955    2.4595 C   0  0  0  0  0  0  0  0  0  0  0  0
    4.7766   -6.1760    3.0778 N   0  0  0  0  0  0  0  0  0  0  0  0
    3.7715   -5.2345    2.7845 C   0  0  0  0  0  0  0  0  0  0  0  0
    3.5034   -4.8464    1.4539 C   0  0  0  0  0  0  0  0  0  0  0  0
    2.5232   -3.8976    1.1605 C   0  0  0  0  0  0  0  0  0  0  0  0
    1.7725   -3.3216    2.1875 C   0  0  0  0  0  0  0  0  0  0  0  0
    0.8434   -2.3310    1.9389 O   0  0  0  0  0  0  0  0  0  0  0  0
   -0.2647   -2.5707    1.1726 C   0  0  0  0  0  0  0  0  0  0  0  0
   -0.7666   -3.8521    0.9084 C   0  0  0  0  0  0  0  0  0  0  0  0
   -1.9295   -4.0006    0.1476 C   0  0  0  0  0  0  0  0  0  0  0  0
   -2.5912   -2.8737   -0.3444 C   0  0  0  0  0  0  0  0  0  0  0  0
   -4.0473   -3.0648   -1.2987 Cl  0  0  0  0  0  0  0  0  0  0  0  0
   -2.0970   -1.5921   -0.0785 C   0  0  0  0  0  0  0  0  0  0  0  0
   -0.9353   -1.4434    0.6766 C   0  0  0  0  0  0  0  0  0  0  0  0
    2.0331   -3.6806    3.5117 C   0  0  0  0  0  0  0  0  0  0  0  0
    3.0289   -4.6090    3.8110 C   0  0  0  0  0  0  0  0  0  0  0  0
    4.7440   -7.1057    4.1912 C   0  0  1  0  0  0  0  0  0  0  0  0
    3.5153   -7.6584    4.7940 C   0  0  0  0  0  0  0  0  0  0  0  0
    4.3540   -6.6786    5.4619 O   0  0  0  0  0  0  0  0  0  0  0  0
    8.8230   -5.4760    7.6367 H   0  0  0  0  0  0  0  0  0  0  0  0
    7.7204   -5.9973    8.8062 H   0  0  0  0  0  0  0  0  0  0  0  0
    6.0722   -7.9191    6.9076 H   0  0  0  0  0  0  0  0  0  0  0  0
    7.0996   -9.2187    6.2242 H   0  0  0  0  0  0  0  0  0  0  0  0
    7.9946   -7.6193    4.5231 H   0  0  0  0  0  0  0  0  0  0  0  0
    6.9901   -6.3152    5.1808 H   0  0  0  0  0  0  0  0  0  0  0  0
    5.7141   -8.8553    2.2806 H   0  0  0  0  0  0  0  0  0  0  0  0
    7.3135   -8.1133    2.5171 H   0  0  0  0  0  0  0  0  0  0  0  0
    6.9350   -6.5746   -0.3690 H   0  0  0  0  0  0  0  0  0  0  0  0
    8.7646   -5.0585   -1.0910 H   0  0  0  0  0  0  0  0  0  0  0  0
    9.6275   -3.2954    0.4776 H   0  0  0  0  0  0  0  0  0  0  0  0
    9.9601   -5.1742    3.5552 H   0  0  0  0  0  0  0  0  0  0  0  0
   10.8856   -5.6390    5.6961 H   0  0  0  0  0  0  0  0  0  0  0  0
   12.0398   -4.4280    5.1733 H   0  0  0  0  0  0  0  0  0  0  0  0
   11.0347   -4.3905    7.5963 H   0  0  0  0  0  0  0  0  0  0  0  0
    9.6253   -3.6022    6.8762 H   0  0  0  0  0  0  0  0  0  0  0  0
   11.9927   -2.1978    5.9436 H   0  0  0  0  0  0  0  0  0  0  0  0
   12.2401   -2.4941    7.6659 H   0  0  0  0  0  0  0  0  0  0  0  0
   10.9137   -0.6594    8.1845 H   0  0  0  0  0  0  0  0  0  0  0  0
    9.3126    0.4451    6.8255 H   0  0  0  0  0  0  0  0  0  0  0  0
    8.5265   -0.4506    4.5927 H   0  0  0  0  0  0  0  0  0  0  0  0
    6.7865   -4.5590    3.4479 H   0  0  0  0  0  0  0  0  0  0  0  0
    4.0764   -5.2645    0.6276 H   0  0  0  0  0  0  0  0  0  0  0  0
    2.3444   -3.6002    0.1249 H   0  0  0  0  0  0  0  0  0  0  0  0
   -0.2557   -4.7338    1.2976 H   0  0  0  0  0  0  0  0  0  0  0  0
   -2.3266   -4.9958   -0.0601 H   0  0  0  0  0  0  0  0  0  0  0  0
   -2.6209   -0.7168   -0.4662 H   0  0  0  0  0  0  0  0  0  0  0  0
   -0.5300   -0.4538    0.8964 H   0  0  0  0  0  0  0  0  0  0  0  0
    1.4634   -3.2027    4.3114 H   0  0  0  0  0  0  0  0  0  0  0  0
    3.2502   -4.8443    4.8505 H   0  0  0  0  0  0  0  0  0  0  0  0
    3.5442   -8.6628    5.2309 H   0  0  0  0  0  0  0  0  0  0  0  0
    2.5317   -7.2798    4.4934 H   0  0  0  0  0  0  0  0  0  0  0  0
  2  1  1  1
  1 45  1  0
  1 46  1  0
  2  3  2  0
  2  4  2  0
  2  5  1  0
  5  6  1  0
  5 47  1  0
  5 48  1  0
  6  7  1  0
  6 49  1  0
  6 50  1  0
  7  8  1  0
  7 42  1  0
  8  9  1  0
  8 51  1  0
  8 52  1  0
  9 10  1  6
  9 11  1  0
  9 27  1  0
 11 12  2  0
 11 26  1  0
 12 13  1  0
 12 53  1  0
 13 14  2  0
 13 54  1  0
 14 15  1  0
 14 55  1  0
 15 16  1  0
 15 26  2  0
 16 17  1  0
 17 18  2  0
 17 25  1  0
 18 19  1  0
 18 56  1  0
 19 20  1  0
 19 57  1  0
 19 58  1  0
 20 21  1  0
 20 59  1  0
 20 60  1  0
 21 22  1  0
 21 61  1  0
 21 62  1  0
 22 23  2  0
 22 63  1  0
 23 24  1  0
 23 64  1  0
 24 25  2  0
 24 65  1  0
 26 66  1  0
 27 28  1  0
 27 42  1  0
 28 29  2  0
 28 41  1  0
 29 30  1  0
 29 67  1  0
 30 31  2  0
 30 68  1  0
 31 32  1  0
 31 40  1  0
 32 33  1  0
 33 34  2  0
 33 39  1  0
 34 35  1  0
 34 69  1  0
 35 36  2  0
 35 70  1  0
 36 37  1  0
 36 38  1  0
 38 39  2  0
 38 71  1  0
 39 72  1  0
 40 41  2  0
 40 73  1  0
 41 74  1  0
 42 43  1  0
 42 44  1  1
 43 44  1  0
 43 75  1  0
 43 76  1  0
M  END

