
     RDKit          3D

 42 43  0  0  0  0  0  0  0  0999 V2000
    0.9204    0.7006    0.1153 C   0  0  0  0  0  0  0  0  0  0  0  0
    2.4349    0.5056    0.1992 C   0  0  0  0  0  0  0  0  0  0  0  0
    2.8475   -0.8178    0.8514 C   0  0  0  0  0  0  0  0  0  0  0  0
    4.3625   -1.0205    0.9312 C   0  0  0  0  0  0  0  0  0  0  0  0
    4.7745   -2.3354    1.5915 C   0  0  0  0  0  0  0  0  0  0  0  0
    6.2179   -2.5070    1.5873 N   0  0  0  0  0  0  0  0  0  0  0  0
    6.6933   -3.7352    2.1994 C   0  0  0  0  0  0  0  0  0  0  0  0
    8.2090   -3.8664    2.0231 C   0  0  0  0  0  0  0  0  0  0  0  0
    8.7859   -5.0037    2.7116 N   0  0  0  0  0  0  0  0  0  0  0  0
    8.3554   -6.3013    2.2157 C   0  0  0  0  0  0  0  0  0  0  0  0
    9.1234   -7.4363    2.9523 C   0  0  1  0  0  0  0  0  0  0  0  0
   10.3729   -7.9501    2.1843 C   0  0  0  0  0  0  0  0  0  0  0  0
   11.5259   -7.1234    2.8104 C   0  0  0  0  0  0  0  0  0  0  0  0
   10.7527   -6.1332    3.7037 C   0  0  1  0  0  0  0  0  0  0  0  0
   10.2206   -4.8992    2.9077 C   0  0  0  0  0  0  0  0  0  0  0  0
    9.6542   -6.9110    4.1626 O   0  0  0  0  0  0  0  0  0  0  0  0
    0.6607    1.6613   -0.3576 H   0  0  0  0  0  0  0  0  0  0  0  0
    0.4580    0.6873    1.1167 H   0  0  0  0  0  0  0  0  0  0  0  0
    0.4451   -0.1001   -0.4761 H   0  0  0  0  0  0  0  0  0  0  0  0
    2.8842    1.3432    0.7636 H   0  0  0  0  0  0  0  0  0  0  0  0
    2.8714    0.5608   -0.8146 H   0  0  0  0  0  0  0  0  0  0  0  0
    2.3962   -1.6561    0.2881 H   0  0  0  0  0  0  0  0  0  0  0  0
    2.4137   -0.8727    1.8675 H   0  0  0  0  0  0  0  0  0  0  0  0
    4.8128   -0.1783    1.4911 H   0  0  0  0  0  0  0  0  0  0  0  0
    4.8059   -0.9851   -0.0791 H   0  0  0  0  0  0  0  0  0  0  0  0
    4.3280   -3.1791    1.0333 H   0  0  0  0  0  0  0  0  0  0  0  0
    4.3342   -2.3875    2.6155 H   0  0  0  0  0  0  0  0  0  0  0  0
    6.6573   -1.7042    2.0392 H   0  0  0  0  0  0  0  0  0  0  0  0
    6.1785   -4.5758    1.7028 H   0  0  0  0  0  0  0  0  0  0  0  0
    6.4550   -3.8229    3.2838 H   0  0  0  0  0  0  0  0  0  0  0  0
    8.6805   -2.9566    2.4362 H   0  0  0  0  0  0  0  0  0  0  0  0
    8.4390   -3.8628    0.9317 H   0  0  0  0  0  0  0  0  0  0  0  0
    8.4979   -6.4044    1.1130 H   0  0  0  0  0  0  0  0  0  0  0  0
    7.2755   -6.4103    2.4021 H   0  0  0  0  0  0  0  0  0  0  0  0
    8.4317   -8.2494    3.2143 H   0  0  0  0  0  0  0  0  0  0  0  0
   10.2773   -7.8011    1.0984 H   0  0  0  0  0  0  0  0  0  0  0  0
   10.5163   -9.0266    2.3570 H   0  0  0  0  0  0  0  0  0  0  0  0
   12.1609   -6.6208    2.0656 H   0  0  0  0  0  0  0  0  0  0  0  0
   12.1734   -7.7598    3.4316 H   0  0  0  0  0  0  0  0  0  0  0  0
   11.3221   -5.8092    4.5863 H   0  0  0  0  0  0  0  0  0  0  0  0
   10.7785   -4.8074    1.9445 H   0  0  0  0  0  0  0  0  0  0  0  0
   10.4224   -3.9711    3.4677 H   0  0  0  0  0  0  0  0  0  0  0  0
  1  2  1  0
  1 17  1  0
  1 18  1  0
  1 19  1  0
  2  3  1  0
  2 20  1  0
  2 21  1  0
  3  4  1  0
  3 22  1  0
  3 23  1  0
  4  5  1  0
  4 24  1  0
  4 25  1  0
  5  6  1  0
  5 26  1  0
  5 27  1  0
  6  7  1  0
  6 28  1  0
  7  8  1  0
  7 29  1  0
  7 30  1  0
  8  9  1  0
  8 31  1  0
  8 32  1  0
  9 10  1  0
  9 15  1  0
 10 11  1  0
 10 33  1  0
 10 34  1  0
 11 12  1  0
 11 16  1  0
 11 35  1  1
 12 13  1  0
 12 36  1  0
 12 37  1  0
 13 14  1  0
 13 38  1  0
 13 39  1  0
 14 15  1  0
 14 16  1  0
 14 40  1  1
 15 41  1  0
 15 42  1  0
M  END

