
     RDKit          3D

 37 38  0  0  0  0  0  0  0  0999 V2000
    3.7044    3.5720   -2.9669 C   0  0  0  0  0  0  0  0  0  0  0  0
    3.6070    2.5836   -1.8049 C   0  0  0  0  0  0  0  0  0  0  0  0
    4.6300    2.8679   -0.7037 C   0  0  0  0  0  0  0  0  0  0  0  0
    4.4945    1.9134    0.3918 N   0  0  0  0  0  0  0  0  0  0  0  0
    5.0530    2.2469    1.9288 S   0  0  1  0  0  0  0  0  0  0  0  0
    4.6695    3.6278    2.2217 O   0  0  0  0  0  0  0  0  0  0  0  0
    4.6352    1.1106    2.7479 O   0  0  0  0  0  0  0  0  0  0  0  0
    6.8545    2.2052    1.8478 C   0  0  0  0  0  0  0  0  0  0  0  0
    7.5650    3.3822    1.5994 C   0  0  0  0  0  0  0  0  0  0  0  0
    8.9559    3.3355    1.4935 C   0  0  0  0  0  0  0  0  0  0  0  0
    9.6270    2.1156    1.6629 C   0  0  0  0  0  0  0  0  0  0  0  0
   11.0498    2.0770    1.5623 N   0  0  0  0  0  0  0  0  0  0  0  0
   11.7679    1.0891    0.8848 C   0  0  0  0  0  0  0  0  0  0  0  0
   11.2730    0.2266    0.2016 O   0  0  0  0  0  0  0  0  0  0  0  0
   13.2679    1.2408    1.1441 C   0  0  0  0  0  0  0  0  0  0  0  0
   13.5414    2.6399    1.6857 C   0  0  0  0  0  0  0  0  0  0  0  0
   12.0464    3.0600    2.6214 S   0  0  1  0  0  0  0  0  0  0  0  0
   11.6744    4.4618    2.4640 O   0  0  0  0  0  0  0  0  0  0  0  0
   12.0858    2.4408    3.9412 O   0  0  0  0  0  0  0  0  0  0  0  0
    8.9076    0.9419    1.9392 C   0  0  0  0  0  0  0  0  0  0  0  0
    7.5182    0.9865    2.0271 C   0  0  0  0  0  0  0  0  0  0  0  0
    2.9582    3.3459   -3.7441 H   0  0  0  0  0  0  0  0  0  0  0  0
    4.6990    3.5419   -3.4424 H   0  0  0  0  0  0  0  0  0  0  0  0
    3.5294    4.6065   -2.6282 H   0  0  0  0  0  0  0  0  0  0  0  0
    3.7544    1.5543   -2.1804 H   0  0  0  0  0  0  0  0  0  0  0  0
    2.5988    2.6082   -1.3591 H   0  0  0  0  0  0  0  0  0  0  0  0
    4.4543    3.8685   -0.2805 H   0  0  0  0  0  0  0  0  0  0  0  0
    5.6533    2.8656   -1.1317 H   0  0  0  0  0  0  0  0  0  0  0  0
    4.5864    0.9254    0.1625 H   0  0  0  0  0  0  0  0  0  0  0  0
    7.0299    4.3281    1.5006 H   0  0  0  0  0  0  0  0  0  0  0  0
    9.5266    4.2426    1.2953 H   0  0  0  0  0  0  0  0  0  0  0  0
   13.8088    1.0317    0.2107 H   0  0  0  0  0  0  0  0  0  0  0  0
   13.5538    0.4668    1.8747 H   0  0  0  0  0  0  0  0  0  0  0  0
   13.6274    3.4013    0.8984 H   0  0  0  0  0  0  0  0  0  0  0  0
   14.3869    2.7154    2.3822 H   0  0  0  0  0  0  0  0  0  0  0  0
    9.4361   -0.0005    2.0795 H   0  0  0  0  0  0  0  0  0  0  0  0
    6.9457    0.0870    2.2611 H   0  0  0  0  0  0  0  0  0  0  0  0
  1  2  1  0
  1 22  1  0
  1 23  1  0
  1 24  1  0
  2  3  1  0
  2 25  1  0
  2 26  1  0
  3  4  1  0
  3 27  1  0
  3 28  1  0
  5  4  1  6
  4 29  1  0
  5  6  2  0
  5  7  2  0
  5  8  1  0
  8  9  2  0
  8 21  1  0
  9 10  1  0
  9 30  1  0
 10 11  2  0
 10 31  1  0
 11 12  1  0
 11 20  1  0
 12 13  1  0
 17 12  1  6
 13 14  2  0
 13 15  1  0
 15 16  1  0
 15 32  1  0
 15 33  1  0
 16 17  1  0
 16 34  1  0
 16 35  1  0
 17 18  2  0
 17 19  2  0
 20 21  2  0
 20 36  1  0
 21 37  1  0
M  END

