
     RDKit          3D

 39 40  0  0  0  0  0  0  0  0999 V2000
    4.8088   -1.0387   -1.1855 C   0  0  0  0  0  0  0  0  0  0  0  0
    3.6334   -0.0965   -1.1403 C   0  0  0  0  0  0  0  0  0  0  0  0
    3.8108    1.2867   -1.0645 C   0  0  0  0  0  0  0  0  0  0  0  0
    2.7040    2.1505   -0.9936 C   0  0  0  0  0  0  0  0  0  0  0  0
    2.8461    3.5280   -0.9521 N   0  0  0  0  0  0  0  0  0  0  0  0
    1.4314    1.5426   -1.0209 C   0  0  0  0  0  0  0  0  0  0  0  0
    1.2498    0.2335   -1.1207 N   0  0  0  0  0  0  0  0  0  0  0  0
    2.3039   -0.5741   -1.1691 C   0  0  0  0  0  0  0  0  0  0  0  0
    2.0587   -1.9695   -1.2697 N   0  0  0  0  0  0  0  0  0  0  0  0
    1.2200   -2.6952   -0.4449 C   0  0  0  0  0  0  0  0  0  0  0  0
    0.6874   -2.2330    0.5434 O   0  0  0  0  0  0  0  0  0  0  0  0
    0.9911   -4.1426   -0.8906 C   0  0  2  0  0  0  0  0  0  0  0  0
   -0.4038   -4.2609   -1.5437 C   0  0  0  0  0  0  0  0  0  0  0  0
   -0.7318   -5.7088   -1.9308 C   0  0  0  0  0  0  0  0  0  0  0  0
   -0.6167   -6.6923   -0.7474 C   0  0  2  0  0  0  0  0  0  0  0  0
   -1.7641   -6.5396    0.2620 C   0  0  0  0  0  0  0  0  0  0  0  0
    0.7730   -6.5508   -0.0921 C   0  0  0  0  0  0  0  0  0  0  0  0
    1.1128   -5.1070    0.3012 C   0  0  0  0  0  0  0  0  0  0  0  0
    5.7511   -0.5124   -0.9742 H   0  0  0  0  0  0  0  0  0  0  0  0
    4.9160   -1.5134   -2.1776 H   0  0  0  0  0  0  0  0  0  0  0  0
    4.6939   -1.8528   -0.4524 H   0  0  0  0  0  0  0  0  0  0  0  0
    4.8240    1.7004   -1.0444 H   0  0  0  0  0  0  0  0  0  0  0  0
    3.7293    3.8840   -0.6051 H   0  0  0  0  0  0  0  0  0  0  0  0
    2.0475    4.0511   -0.6109 H   0  0  0  0  0  0  0  0  0  0  0  0
    0.5298    2.1676   -0.9703 H   0  0  0  0  0  0  0  0  0  0  0  0
    2.5289   -2.4746   -2.0115 H   0  0  0  0  0  0  0  0  0  0  0  0
    1.7484   -4.4202   -1.6490 H   0  0  0  0  0  0  0  0  0  0  0  0
   -0.4564   -3.6086   -2.4317 H   0  0  0  0  0  0  0  0  0  0  0  0
   -1.1482   -3.8700   -0.8304 H   0  0  0  0  0  0  0  0  0  0  0  0
   -0.0363   -6.0311   -2.7274 H   0  0  0  0  0  0  0  0  0  0  0  0
   -1.7440   -5.7592   -2.3679 H   0  0  0  0  0  0  0  0  0  0  0  0
   -0.6858   -7.7150   -1.1599 H   0  0  0  0  0  0  0  0  0  0  0  0
   -1.7804   -5.5463    0.7372 H   0  0  0  0  0  0  0  0  0  0  0  0
   -1.6802   -7.2869    1.0680 H   0  0  0  0  0  0  0  0  0  0  0  0
   -2.7411   -6.6859   -0.2274 H   0  0  0  0  0  0  0  0  0  0  0  0
    1.5365   -6.9169   -0.8033 H   0  0  0  0  0  0  0  0  0  0  0  0
    0.8407   -7.2062    0.7933 H   0  0  0  0  0  0  0  0  0  0  0  0
    2.1339   -5.0612    0.7167 H   0  0  0  0  0  0  0  0  0  0  0  0
    0.4438   -4.7441    1.0977 H   0  0  0  0  0  0  0  0  0  0  0  0
  1  2  1  0
  1 19  1  0
  1 20  1  0
  1 21  1  0
  2  3  2  0
  2  8  1  0
  3  4  1  0
  3 22  1  0
  4  5  1  0
  4  6  2  0
  5 23  1  0
  5 24  1  0
  6  7  1  0
  6 25  1  0
  7  8  2  0
  8  9  1  0
  9 10  1  0
  9 26  1  0
 10 11  2  0
 10 12  1  0
 12 13  1  0
 12 18  1  0
 12 27  1  6
 13 14  1  0
 13 28  1  0
 13 29  1  0
 14 15  1  0
 14 30  1  0
 14 31  1  0
 15 16  1  0
 15 17  1  0
 15 32  1  6
 16 33  1  0
 16 34  1  0
 16 35  1  0
 17 18  1  0
 17 36  1  0
 17 37  1  0
 18 38  1  0
 18 39  1  0
M  END

