
     RDKit          3D

 26 27  0  0  0  0  0  0  0  0999 V2000
    3.1596    1.0617    0.6961 C   0  0  0  0  0  0  0  0  0  0  0  0
    2.7812   -0.2274    0.2634 O   0  0  0  0  0  0  0  0  0  0  0  0
    3.2051   -0.7031   -0.9164 C   0  0  0  0  0  0  0  0  0  0  0  0
    4.0565    0.0299   -1.7603 C   0  0  0  0  0  0  0  0  0  0  0  0
    4.5027   -0.5229   -2.9605 C   0  0  0  0  0  0  0  0  0  0  0  0
    4.1417   -1.8157   -3.3278 C   0  0  0  0  0  0  0  0  0  0  0  0
    3.2934   -2.5554   -2.4925 C   0  0  0  0  0  0  0  0  0  0  0  0
    2.7713   -2.0148   -1.2910 C   0  0  0  0  0  0  0  0  0  0  0  0
    1.7224   -2.7307   -0.4807 C   0  0  0  0  0  0  0  0  0  0  0  0
    0.9897   -2.1515    0.2921 O   0  0  0  0  0  0  0  0  0  0  0  0
    1.5301   -4.2400   -0.6588 C   0  0  0  0  0  0  0  0  0  0  0  0
    2.6387   -4.9576   -1.4000 C   0  0  1  0  0  0  0  0  0  0  0  0
    2.4136   -6.4679   -1.5397 C   0  0  0  0  0  0  0  0  0  0  0  0
    1.5829   -7.0675   -0.9178 O   0  0  0  0  0  0  0  0  0  0  0  0
    3.2532   -7.0989   -2.3828 O   0  0  0  0  0  0  0  0  0  0  0  0
    2.8703   -4.1906   -3.0595 S   0  0  0  0  0  0  0  0  0  0  0  0
    2.6782    1.2083    1.6716 H   0  0  0  0  0  0  0  0  0  0  0  0
    2.8087    1.8453    0.0019 H   0  0  0  0  0  0  0  0  0  0  0  0
    4.2539    1.1508    0.8165 H   0  0  0  0  0  0  0  0  0  0  0  0
    4.3769    1.0325   -1.4817 H   0  0  0  0  0  0  0  0  0  0  0  0
    5.1638    0.0598   -3.6070 H   0  0  0  0  0  0  0  0  0  0  0  0
    4.5254   -2.2629   -4.2466 H   0  0  0  0  0  0  0  0  0  0  0  0
    0.5711   -4.3924   -1.1823 H   0  0  0  0  0  0  0  0  0  0  0  0
    1.3968   -4.6660    0.3477 H   0  0  0  0  0  0  0  0  0  0  0  0
    3.6002   -4.8312   -0.8689 H   0  0  0  0  0  0  0  0  0  0  0  0
    3.8330   -6.4574   -2.8283 H   0  0  0  0  0  0  0  0  0  0  0  0
  1  2  1  0
  1 17  1  0
  1 18  1  0
  1 19  1  0
  2  3  1  0
  3  4  2  0
  3  8  1  0
  4  5  1  0
  4 20  1  0
  5  6  2  0
  5 21  1  0
  6  7  1  0
  6 22  1  0
  7  8  2  0
  7 16  1  0
  8  9  1  0
  9 10  2  0
  9 11  1  0
 11 12  1  0
 11 23  1  0
 11 24  1  0
 12 13  1  0
 12 16  1  0
 12 25  1  1
 13 14  2  0
 13 15  1  0
 15 26  1  0
M  END

