
     RDKit          3D

 50 53  0  0  0  0  0  0  0  0999 V2000
    0.8737   -0.8954    1.0543 O   0  0  0  0  0  0  0  0  0  0  0  0
    2.3380   -0.8177    1.1769 S   0  0  1  0  0  0  0  0  0  0  0  0
    3.1638   -2.0372    1.1502 O   0  0  0  0  0  0  0  0  0  0  0  0
    2.9782    0.3098   -0.0916 C   0  0  0  0  0  0  0  0  0  0  0  0
    2.1071    0.8062   -0.9929 C   0  0  0  0  0  0  0  0  0  0  0  0
    0.6927    0.4704   -1.4615 C   0  0  0  0  0  0  0  0  0  0  0  0
    1.1044    1.0167   -2.8668 C   0  0  0  0  0  0  0  0  0  0  0  0
    2.3293    1.6314   -2.1923 C   0  0  0  0  0  0  0  0  0  0  0  0
    3.1014    2.7203   -2.3811 C   0  0  0  0  0  0  0  0  0  0  0  0
    2.9879    3.5766   -3.9761 S   0  0  1  0  0  0  0  0  0  0  0  0
    2.1061    2.8098   -4.8703 O   0  0  0  0  0  0  0  0  0  0  0  0
    2.7317    5.0011   -3.7024 O   0  0  0  0  0  0  0  0  0  0  0  0
    4.6615    3.4564   -4.6470 C   0  0  0  0  0  0  0  0  0  0  0  0
    5.0813    2.2502   -5.2186 C   0  0  0  0  0  0  0  0  0  0  0  0
    6.3648    2.1710   -5.7620 C   0  0  0  0  0  0  0  0  0  0  0  0
    7.2059    3.2907   -5.7422 C   0  0  0  0  0  0  0  0  0  0  0  0
    6.7656    4.4952   -5.1849 C   0  0  0  0  0  0  0  0  0  0  0  0
    5.4834    4.5858   -4.6341 C   0  0  0  0  0  0  0  0  0  0  0  0
    3.9125    3.4424   -1.3282 C   0  0  0  0  0  0  0  0  0  0  0  0
    5.2420    2.8169   -0.8569 C   0  0  0  0  0  0  0  0  0  0  0  0
    5.1424    1.7639    0.2490 C   0  0  0  0  0  0  0  0  0  0  0  0
    4.4858    0.4228   -0.1397 C   0  0  0  0  0  0  0  0  0  0  0  0
    2.6980    0.0345    2.7292 C   0  0  0  0  0  0  0  0  0  0  0  0
    1.8803    1.0976    3.1280 C   0  0  0  0  0  0  0  0  0  0  0  0
    2.1442    1.7340    4.3422 C   0  0  0  0  0  0  0  0  0  0  0  0
    3.2045    1.2988    5.1470 C   0  0  0  0  0  0  0  0  0  0  0  0
    4.0012    0.2224    4.7446 C   0  0  0  0  0  0  0  0  0  0  0  0
    3.7492   -0.4206    3.5285 C   0  0  0  0  0  0  0  0  0  0  0  0
   -0.0766    1.0900   -0.9764 H   0  0  0  0  0  0  0  0  0  0  0  0
    0.3981   -0.5821   -1.3760 H   0  0  0  0  0  0  0  0  0  0  0  0
    0.4324    1.7212   -3.3706 H   0  0  0  0  0  0  0  0  0  0  0  0
    1.3632    0.2134   -3.5730 H   0  0  0  0  0  0  0  0  0  0  0  0
    4.4033    1.3949   -5.2476 H   0  0  0  0  0  0  0  0  0  0  0  0
    6.7073    1.2361   -6.2123 H   0  0  0  0  0  0  0  0  0  0  0  0
    8.2085    3.2245   -6.1722 H   0  0  0  0  0  0  0  0  0  0  0  0
    7.4193    5.3709   -5.1847 H   0  0  0  0  0  0  0  0  0  0  0  0
    5.1057    5.5187   -4.2116 H   0  0  0  0  0  0  0  0  0  0  0  0
    3.2614    3.5894   -0.4481 H   0  0  0  0  0  0  0  0  0  0  0  0
    4.1099    4.4536   -1.7115 H   0  0  0  0  0  0  0  0  0  0  0  0
    5.8668    3.6401   -0.4719 H   0  0  0  0  0  0  0  0  0  0  0  0
    5.7870    2.4024   -1.7226 H   0  0  0  0  0  0  0  0  0  0  0  0
    4.6290    2.1899    1.1284 H   0  0  0  0  0  0  0  0  0  0  0  0
    6.1696    1.5359    0.5794 H   0  0  0  0  0  0  0  0  0  0  0  0
    4.8887   -0.3717    0.5044 H   0  0  0  0  0  0  0  0  0  0  0  0
    4.8080    0.1565   -1.1621 H   0  0  0  0  0  0  0  0  0  0  0  0
    1.0428    1.4073    2.4997 H   0  0  0  0  0  0  0  0  0  0  0  0
    1.5144    2.5656    4.6678 H   0  0  0  0  0  0  0  0  0  0  0  0
    3.4046    1.7980    6.0984 H   0  0  0  0  0  0  0  0  0  0  0  0
    4.8184   -0.1237    5.3822 H   0  0  0  0  0  0  0  0  0  0  0  0
    4.3412   -1.2766    3.1993 H   0  0  0  0  0  0  0  0  0  0  0  0
  1  2  2  0
  2  3  2  0
  2  4  1  6
  2 23  1  0
  4  5  2  0
  4 22  1  0
  5  6  1  0
  5  8  1  0
  6  7  1  0
  6 29  1  0
  6 30  1  0
  7  8  1  0
  7 31  1  0
  7 32  1  0
  8  9  2  0
 10  9  1  1
  9 19  1  0
 10 11  2  0
 10 12  2  0
 10 13  1  0
 13 14  2  0
 13 18  1  0
 14 15  1  0
 14 33  1  0
 15 16  2  0
 15 34  1  0
 16 17  1  0
 16 35  1  0
 17 18  2  0
 17 36  1  0
 18 37  1  0
 19 20  1  0
 19 38  1  0
 19 39  1  0
 20 21  1  0
 20 40  1  0
 20 41  1  0
 21 22  1  0
 21 42  1  0
 21 43  1  0
 22 44  1  0
 22 45  1  0
 23 24  2  0
 23 28  1  0
 24 25  1  0
 24 46  1  0
 25 26  2  0
 25 47  1  0
 26 27  1  0
 26 48  1  0
 27 28  2  0
 27 49  1  0
 28 50  1  0
M  END

