
     RDKit          3D

 38 39  0  0  0  0  0  0  0  0999 V2000
    1.3265   -1.0159    1.3431 C   0  0  0  0  0  0  0  0  0  0  0  0
    2.5121   -0.3281    0.8694 N   0  0  0  0  0  0  0  0  0  0  0  0
    3.1534   -0.9574   -0.2536 C   0  0  0  0  0  0  0  0  0  0  0  0
    4.6524   -0.6798   -0.3396 C   0  0  0  0  0  0  0  0  0  0  0  0
    5.2806   -0.0872    0.5015 O   0  0  0  0  0  0  0  0  0  0  0  0
    5.3583   -1.2253   -1.5804 C   0  0  0  0  0  0  0  0  0  0  0  0
    5.2880   -0.5217   -2.7913 C   0  0  0  0  0  0  0  0  0  0  0  0
    4.3698    0.9698   -2.8861 Cl  0  0  0  0  0  0  0  0  0  0  0  0
    5.9518   -0.9603   -3.9408 C   0  0  0  0  0  0  0  0  0  0  0  0
    6.7049   -2.1309   -3.8887 C   0  0  0  0  0  0  0  0  0  0  0  0
    6.7983   -2.8501   -2.6958 C   0  0  0  0  0  0  0  0  0  0  0  0
    6.1354   -2.4022   -1.5492 C   0  0  0  0  0  0  0  0  0  0  0  0
    6.2993   -3.1875   -0.2612 C   0  0  1  0  0  0  0  0  0  0  0  0
    5.1153   -3.3651    0.3646 F   0  0  0  0  0  0  0  0  0  0  0  0
    6.8087   -4.4088   -0.4886 F   0  0  0  0  0  0  0  0  0  0  0  0
    7.1135   -2.5689    0.6019 F   0  0  0  0  0  0  0  0  0  0  0  0
    2.3371    1.1119    0.7407 C   0  0  0  0  0  0  0  0  0  0  0  0
    2.3008    1.8255    2.0802 C   0  0  0  0  0  0  0  0  0  0  0  0
    3.2980    1.5535    3.0297 C   0  0  0  0  0  0  0  0  0  0  0  0
    3.2801    2.2382    4.2398 C   0  0  0  0  0  0  0  0  0  0  0  0
    4.2311    1.9842    5.1493 F   0  0  0  0  0  0  0  0  0  0  0  0
    2.3067    3.1891    4.5499 C   0  0  0  0  0  0  0  0  0  0  0  0
    1.3318    3.4374    3.5891 C   0  0  0  0  0  0  0  0  0  0  0  0
    0.3777    4.3414    3.8560 F   0  0  0  0  0  0  0  0  0  0  0  0
    1.3086    2.7727    2.3634 C   0  0  0  0  0  0  0  0  0  0  0  0
    1.5606   -2.0679    1.5692 H   0  0  0  0  0  0  0  0  0  0  0  0
    0.4841   -0.9985    0.6141 H   0  0  0  0  0  0  0  0  0  0  0  0
    0.9711   -0.5465    2.2730 H   0  0  0  0  0  0  0  0  0  0  0  0
    2.6998   -0.7195   -1.2436 H   0  0  0  0  0  0  0  0  0  0  0  0
    3.0746   -2.0534   -0.1537 H   0  0  0  0  0  0  0  0  0  0  0  0
    5.8729   -0.3782   -4.8603 H   0  0  0  0  0  0  0  0  0  0  0  0
    7.2245   -2.4834   -4.7823 H   0  0  0  0  0  0  0  0  0  0  0  0
    7.3872   -3.7663   -2.6506 H   0  0  0  0  0  0  0  0  0  0  0  0
    1.4216    1.3678    0.1617 H   0  0  0  0  0  0  0  0  0  0  0  0
    3.1880    1.5100    0.1665 H   0  0  0  0  0  0  0  0  0  0  0  0
    4.0765    0.8202    2.8149 H   0  0  0  0  0  0  0  0  0  0  0  0
    2.3093    3.7132    5.5059 H   0  0  0  0  0  0  0  0  0  0  0  0
    0.5157    3.0020    1.6485 H   0  0  0  0  0  0  0  0  0  0  0  0
  1  2  1  0
  1 26  1  0
  1 27  1  0
  1 28  1  0
  2  3  1  0
  2 17  1  0
  3  4  1  0
  3 29  1  0
  3 30  1  0
  4  5  2  0
  4  6  1  0
  6  7  2  0
  6 12  1  0
  7  8  1  0
  7  9  1  0
  9 10  2  0
  9 31  1  0
 10 11  1  0
 10 32  1  0
 11 12  2  0
 11 33  1  0
 12 13  1  0
 13 14  1  1
 13 15  1  0
 13 16  1  0
 17 18  1  0
 17 34  1  0
 17 35  1  0
 18 19  2  0
 18 25  1  0
 19 20  1  0
 19 36  1  0
 20 21  1  0
 20 22  2  0
 22 23  1  0
 22 37  1  0
 23 24  1  0
 23 25  2  0
 25 38  1  0
M  END

