
     RDKit          3D

 58 62  0  0  0  0  0  0  0  0999 V2000
    1.1223   -0.3617    0.9883 C   0  0  0  0  0  0  0  0  0  0  0  0
    2.5981   -0.1548    0.7480 C   0  0  0  0  0  0  0  0  0  0  0  0
    3.1734    1.1212    0.7346 C   0  0  0  0  0  0  0  0  0  0  0  0
    4.5388    1.3039    0.5084 C   0  0  0  0  0  0  0  0  0  0  0  0
    5.3743    0.2009    0.2786 C   0  0  0  0  0  0  0  0  0  0  0  0
    6.7638    0.3224    0.0771 N   0  0  0  0  0  0  0  0  0  0  0  0
    7.5243    1.3671   -0.3823 C   0  0  0  0  0  0  0  0  0  0  0  0
    6.9612    2.4925   -0.8013 N   0  0  0  0  0  0  0  0  0  0  0  0
    7.7418    3.4999   -1.2752 C   0  0  0  0  0  0  0  0  0  0  0  0
    7.0852    4.6314   -1.6963 N   0  0  0  0  0  0  0  0  0  0  0  0
    5.6426    4.7077   -1.8452 C   0  0  0  0  0  0  0  0  0  0  0  0
    5.1009    6.0220   -1.2796 C   0  0  0  0  0  0  0  0  0  0  0  0
    5.7925    7.1631   -1.8603 N   0  0  0  0  0  0  0  0  0  0  0  0
    5.1865    8.4315   -1.8051 C   0  0  0  0  0  0  0  0  0  0  0  0
    4.0080    8.6704   -1.0658 C   0  0  0  0  0  0  0  0  0  0  0  0
    3.4021    9.9306   -1.0652 C   0  0  0  0  0  0  0  0  0  0  0  0
    3.9533   10.9934   -1.7814 C   0  0  0  0  0  0  0  0  0  0  0  0
    5.1268   10.7717   -2.5115 C   0  0  0  0  0  0  0  0  0  0  0  0
    5.7316    9.5171   -2.5293 C   0  0  0  0  0  0  0  0  0  0  0  0
    7.2439    7.0717   -1.7052 C   0  0  0  0  0  0  0  0  0  0  0  0
    7.7888    5.7632   -2.2744 C   0  0  0  0  0  0  0  0  0  0  0  0
    9.0780    3.4915   -1.3612 N   0  0  0  0  0  0  0  0  0  0  0  0
    9.6301    2.3563   -0.9253 C   0  0  0  0  0  0  0  0  0  0  0  0
    8.9430    1.2309   -0.4204 C   0  0  0  0  0  0  0  0  0  0  0  0
    9.9752    0.2985   -0.1030 C   0  0  0  0  0  0  0  0  0  0  0  0
   11.1649    0.7976   -0.3834 N   0  0  0  0  0  0  0  0  0  0  0  0
   10.9569    2.0452   -0.8825 N   0  0  0  0  0  0  0  0  0  0  0  0
   12.0680    2.8712   -1.2931 C   0  0  0  0  0  0  0  0  0  0  0  0
    4.8203   -1.1047    0.2884 C   0  0  0  0  0  0  0  0  0  0  0  0
    5.6863   -2.3173    0.0447 C   0  0  0  0  0  0  0  0  0  0  0  0
    3.4500   -1.2480    0.5264 C   0  0  0  0  0  0  0  0  0  0  0  0
    0.6064    0.5923    1.1726 H   0  0  0  0  0  0  0  0  0  0  0  0
    0.9420   -1.0139    1.8595 H   0  0  0  0  0  0  0  0  0  0  0  0
    0.6358   -0.8426    0.1225 H   0  0  0  0  0  0  0  0  0  0  0  0
    2.5449    1.9989    0.9112 H   0  0  0  0  0  0  0  0  0  0  0  0
    4.9698    2.3018    0.5102 H   0  0  0  0  0  0  0  0  0  0  0  0
    7.2966   -0.5145    0.2733 H   0  0  0  0  0  0  0  0  0  0  0  0
    5.1847    3.8527   -1.3375 H   0  0  0  0  0  0  0  0  0  0  0  0
    5.3786    4.6498   -2.9201 H   0  0  0  0  0  0  0  0  0  0  0  0
    5.1896    6.0075   -0.1707 H   0  0  0  0  0  0  0  0  0  0  0  0
    4.0314    6.0850   -1.5266 H   0  0  0  0  0  0  0  0  0  0  0  0
    3.5591    7.8753   -0.4709 H   0  0  0  0  0  0  0  0  0  0  0  0
    2.4897   10.0791   -0.4809 H   0  0  0  0  0  0  0  0  0  0  0  0
    3.4790   11.9773   -1.7740 H   0  0  0  0  0  0  0  0  0  0  0  0
    5.5736   11.5854   -3.0896 H   0  0  0  0  0  0  0  0  0  0  0  0
    6.6256    9.3691   -3.1375 H   0  0  0  0  0  0  0  0  0  0  0  0
    7.5225    7.1396   -0.6309 H   0  0  0  0  0  0  0  0  0  0  0  0
    7.7296    7.9098   -2.2199 H   0  0  0  0  0  0  0  0  0  0  0  0
    8.8573    5.6641   -2.0540 H   0  0  0  0  0  0  0  0  0  0  0  0
    7.6610    5.7631   -3.3754 H   0  0  0  0  0  0  0  0  0  0  0  0
    9.9025   -0.7052    0.3184 H   0  0  0  0  0  0  0  0  0  0  0  0
   12.6453    2.3735   -2.0875 H   0  0  0  0  0  0  0  0  0  0  0  0
   12.7372    3.0712   -0.4417 H   0  0  0  0  0  0  0  0  0  0  0  0
   11.6627    3.8183   -1.6719 H   0  0  0  0  0  0  0  0  0  0  0  0
    6.2284   -2.2490   -0.9142 H   0  0  0  0  0  0  0  0  0  0  0  0
    5.0814   -3.2345    0.0206 H   0  0  0  0  0  0  0  0  0  0  0  0
    6.4445   -2.4574    0.8383 H   0  0  0  0  0  0  0  0  0  0  0  0
    3.0291   -2.2586    0.5313 H   0  0  0  0  0  0  0  0  0  0  0  0
  1  2  1  0
  1 32  1  0
  1 33  1  0
  1 34  1  0
  2  3  2  0
  2 31  1  0
  3  4  1  0
  3 35  1  0
  4  5  2  0
  4 36  1  0
  5  6  1  0
  5 29  1  0
  6  7  1  0
  6 37  1  0
  7  8  2  0
  7 24  1  0
  8  9  1  0
  9 10  1  0
  9 22  2  0
 10 11  1  0
 10 21  1  0
 11 12  1  0
 11 38  1  0
 11 39  1  0
 12 13  1  0
 12 40  1  0
 12 41  1  0
 13 14  1  0
 13 20  1  0
 14 15  2  0
 14 19  1  0
 15 16  1  0
 15 42  1  0
 16 17  2  0
 16 43  1  0
 17 18  1  0
 17 44  1  0
 18 19  2  0
 18 45  1  0
 19 46  1  0
 20 21  1  0
 20 47  1  0
 20 48  1  0
 21 49  1  0
 21 50  1  0
 22 23  1  0
 23 24  2  0
 23 27  1  0
 24 25  1  0
 25 26  2  0
 25 51  1  0
 26 27  1  0
 27 28  1  0
 28 52  1  0
 28 53  1  0
 28 54  1  0
 29 30  1  0
 29 31  2  0
 30 55  1  0
 30 56  1  0
 30 57  1  0
 31 58  1  0
M  END

