
     RDKit          3D

 57 59  0  0  0  0  0  0  0  0999 V2000
   -1.9909    3.9111    5.4996 C   0  0  0  0  0  0  0  0  0  0  0  0
   -1.5056    3.0752    4.3066 C   0  0  0  0  0  0  0  0  0  0  0  0
   -0.0272    3.1257    4.1090 C   0  0  0  0  0  0  0  0  0  0  0  0
    0.8340    2.1511    4.1167 N   0  0  0  0  0  0  0  0  0  0  0  0
    2.0302    2.7975    3.8922 C   0  0  0  0  0  0  0  0  0  0  0  0
    3.3639    2.1073    3.8191 C   0  0  0  0  0  0  0  0  0  0  0  0
    3.7678    1.5565    5.1075 N   0  0  0  0  0  0  0  0  0  0  0  0
    3.1629    0.2702    5.4657 C   0  0  0  0  0  0  0  0  0  0  0  0
    3.8739   -0.9287    4.8087 C   0  0  0  0  0  0  0  0  0  0  0  0
    5.3257   -0.9243    4.9986 N   0  0  0  0  0  0  0  0  0  0  0  0
    5.9000   -1.7602    6.0510 C   0  0  1  0  0  0  0  0  0  0  0  0
    5.5312   -1.4203    7.5031 C   0  0  0  0  0  0  0  0  0  0  0  0
    5.5494   -3.2436    5.7682 C   0  0  0  0  0  0  0  0  0  0  0  0
    4.7569   -3.8416    6.4837 O   0  0  0  0  0  0  0  0  0  0  0  0
    6.1433   -3.8518    4.6876 N   0  0  0  0  0  0  0  0  0  0  0  0
    5.8266   -5.2440    4.3909 C   0  0  0  0  0  0  0  0  0  0  0  0
    5.3059   -5.3919    2.9566 C   0  0  0  0  0  0  0  0  0  0  0  0
    6.2287   -4.7812    2.0098 N   0  0  0  0  0  0  0  0  0  0  0  0
    6.7428   -5.3696    0.8726 C   0  0  0  0  0  0  0  0  0  0  0  0
    6.3398   -6.8098    0.5852 C   0  0  0  0  0  0  0  0  0  0  0  0
    7.4936   -4.7666    0.1225 O   0  0  0  0  0  0  0  0  0  0  0  0
    6.5544   -3.3919    2.3086 C   0  0  0  0  0  0  0  0  0  0  0  0
    7.0739   -3.2452    3.7419 C   0  0  0  0  0  0  0  0  0  0  0  0
    5.9353    0.3716    4.7168 C   0  0  0  0  0  0  0  0  0  0  0  0
    5.2023    1.5536    5.3791 C   0  0  0  0  0  0  0  0  0  0  0  0
    1.9155    4.0922    3.7476 N   0  0  0  0  0  0  0  0  0  0  0  0
    0.5479    4.3172    3.8906 O   0  0  0  0  0  0  0  0  0  0  0  0
   -3.0855    3.8457    5.5910 H   0  0  0  0  0  0  0  0  0  0  0  0
   -1.7202    4.9706    5.3771 H   0  0  0  0  0  0  0  0  0  0  0  0
   -1.5480    3.5532    6.4420 H   0  0  0  0  0  0  0  0  0  0  0  0
   -1.9903    3.4315    3.3811 H   0  0  0  0  0  0  0  0  0  0  0  0
   -1.7740    2.0162    4.4274 H   0  0  0  0  0  0  0  0  0  0  0  0
    4.0960    2.8673    3.5122 H   0  0  0  0  0  0  0  0  0  0  0  0
    3.3154    1.3582    3.0002 H   0  0  0  0  0  0  0  0  0  0  0  0
    2.0993    0.2847    5.1863 H   0  0  0  0  0  0  0  0  0  0  0  0
    3.2090    0.1686    6.5638 H   0  0  0  0  0  0  0  0  0  0  0  0
    3.6620   -0.9201    3.7209 H   0  0  0  0  0  0  0  0  0  0  0  0
    3.4567   -1.8688    5.2007 H   0  0  0  0  0  0  0  0  0  0  0  0
    6.9948   -1.6569    5.9566 H   0  0  0  0  0  0  0  0  0  0  0  0
    4.4583   -1.5688    7.6868 H   0  0  0  0  0  0  0  0  0  0  0  0
    5.7985   -0.3788    7.7352 H   0  0  0  0  0  0  0  0  0  0  0  0
    6.0708   -2.0788    8.2012 H   0  0  0  0  0  0  0  0  0  0  0  0
    5.0784   -5.5809    5.1188 H   0  0  0  0  0  0  0  0  0  0  0  0
    6.7385   -5.8597    4.5093 H   0  0  0  0  0  0  0  0  0  0  0  0
    4.3151   -4.9029    2.8815 H   0  0  0  0  0  0  0  0  0  0  0  0
    5.1676   -6.4549    2.7268 H   0  0  0  0  0  0  0  0  0  0  0  0
    6.6657   -7.4958    1.3832 H   0  0  0  0  0  0  0  0  0  0  0  0
    6.8256   -7.1020   -0.3533 H   0  0  0  0  0  0  0  0  0  0  0  0
    5.2492   -6.9170    0.4732 H   0  0  0  0  0  0  0  0  0  0  0  0
    5.6505   -2.7640    2.1953 H   0  0  0  0  0  0  0  0  0  0  0  0
    7.3044   -3.0618    1.5792 H   0  0  0  0  0  0  0  0  0  0  0  0
    7.2017   -2.1825    3.9648 H   0  0  0  0  0  0  0  0  0  0  0  0
    8.0577   -3.7452    3.8259 H   0  0  0  0  0  0  0  0  0  0  0  0
    5.9367    0.5328    3.6191 H   0  0  0  0  0  0  0  0  0  0  0  0
    6.9919    0.3534    5.0321 H   0  0  0  0  0  0  0  0  0  0  0  0
    5.6399    2.5087    5.0445 H   0  0  0  0  0  0  0  0  0  0  0  0
    5.3399    1.5046    6.4741 H   0  0  0  0  0  0  0  0  0  0  0  0
  1  2  1  0
  1 28  1  0
  1 29  1  0
  1 30  1  0
  2  3  1  0
  2 31  1  0
  2 32  1  0
  3  4  2  0
  3 27  1  0
  4  5  1  0
  5  6  1  0
  5 26  2  0
  6  7  1  0
  6 33  1  0
  6 34  1  0
  7  8  1  0
  7 25  1  0
  8  9  1  0
  8 35  1  0
  8 36  1  0
  9 10  1  0
  9 37  1  0
  9 38  1  0
 10 11  1  0
 10 24  1  0
 11 12  1  0
 11 13  1  0
 11 39  1  1
 12 40  1  0
 12 41  1  0
 12 42  1  0
 13 14  2  0
 13 15  1  0
 15 16  1  0
 15 23  1  0
 16 17  1  0
 16 43  1  0
 16 44  1  0
 17 18  1  0
 17 45  1  0
 17 46  1  0
 18 19  1  0
 18 22  1  0
 19 20  1  0
 19 21  2  0
 20 47  1  0
 20 48  1  0
 20 49  1  0
 22 23  1  0
 22 50  1  0
 22 51  1  0
 23 52  1  0
 23 53  1  0
 24 25  1  0
 24 54  1  0
 24 55  1  0
 25 56  1  0
 25 57  1  0
 26 27  1  0
M  END

