
     RDKit          3D

 40 41  0  0  0  0  0  0  0  0999 V2000
    1.2344    1.6281   -0.3697 C   0  0  0  0  0  0  0  0  0  0  0  0
    2.6996    1.2211   -0.1840 C   0  0  0  0  0  0  0  0  0  0  0  0
    3.1086    0.9753    1.2830 C   0  0  1  0  0  0  0  0  0  0  0  0
    2.3680   -0.2250    1.9016 C   0  0  0  0  0  0  0  0  0  0  0  0
    2.6156   -0.3972    3.2763 O   0  0  0  0  0  0  0  0  0  0  0  0
    4.5744    0.8558    1.4403 N   0  0  0  0  0  0  0  0  0  0  0  0
    5.2559   -0.1242    0.6178 C   0  0  0  0  0  0  0  0  0  0  0  0
    5.9827    0.3646   -0.6439 C   0  0  0  0  0  0  0  0  0  0  0  0
    6.4373   -0.4244   -1.4523 O   0  0  0  0  0  0  0  0  0  0  0  0
    6.0967    1.7221   -0.7879 N   0  0  0  0  0  0  0  0  0  0  0  0
    6.7124    2.3730   -1.8473 C   0  0  0  0  0  0  0  0  0  0  0  0
    6.7544    3.6732   -1.9113 N   0  0  0  0  0  0  0  0  0  0  0  0
    7.4132    4.0765   -3.0449 C   0  0  0  0  0  0  0  0  0  0  0  0
    7.8764    3.0759   -3.8531 C   0  0  0  0  0  0  0  0  0  0  0  0
    7.4773    1.5217   -3.1767 S   0  0  0  0  0  0  0  0  0  0  0  0
    5.2627    1.4586    2.5150 C   0  0  0  0  0  0  0  0  0  0  0  0
    6.6779    1.4880    2.5341 C   0  0  0  0  0  0  0  0  0  0  0  0
    7.3744    2.0963    3.5799 C   0  0  0  0  0  0  0  0  0  0  0  0
    6.6972    2.7029    4.6392 C   0  0  0  0  0  0  0  0  0  0  0  0
    5.3006    2.6751    4.6361 C   0  0  0  0  0  0  0  0  0  0  0  0
    4.5895    2.0623    3.6033 C   0  0  0  0  0  0  0  0  0  0  0  0
    1.0405    1.8943   -1.4202 H   0  0  0  0  0  0  0  0  0  0  0  0
    0.9803    2.5066    0.2465 H   0  0  0  0  0  0  0  0  0  0  0  0
    0.5336    0.8212   -0.1054 H   0  0  0  0  0  0  0  0  0  0  0  0
    3.3421    2.0195   -0.5866 H   0  0  0  0  0  0  0  0  0  0  0  0
    2.9066    0.3252   -0.7953 H   0  0  0  0  0  0  0  0  0  0  0  0
    2.8116    1.8720    1.8446 H   0  0  0  0  0  0  0  0  0  0  0  0
    2.6072   -1.1431    1.3231 H   0  0  0  0  0  0  0  0  0  0  0  0
    1.2830   -0.0708    1.8028 H   0  0  0  0  0  0  0  0  0  0  0  0
    3.5667   -0.5143    3.4058 H   0  0  0  0  0  0  0  0  0  0  0  0
    4.5473   -0.8870    0.2619 H   0  0  0  0  0  0  0  0  0  0  0  0
    6.0072   -0.6794    1.2047 H   0  0  0  0  0  0  0  0  0  0  0  0
    5.7019    2.3300   -0.0747 H   0  0  0  0  0  0  0  0  0  0  0  0
    7.5322    5.1435   -3.2417 H   0  0  0  0  0  0  0  0  0  0  0  0
    8.4196    3.1576   -4.7929 H   0  0  0  0  0  0  0  0  0  0  0  0
    7.2543    1.0545    1.7173 H   0  0  0  0  0  0  0  0  0  0  0  0
    8.4673    2.1000    3.5522 H   0  0  0  0  0  0  0  0  0  0  0  0
    7.2458    3.1817    5.4530 H   0  0  0  0  0  0  0  0  0  0  0  0
    4.7422    3.1248    5.4615 H   0  0  0  0  0  0  0  0  0  0  0  0
    3.5054    2.0100    3.6790 H   0  0  0  0  0  0  0  0  0  0  0  0
  1  2  1  0
  1 22  1  0
  1 23  1  0
  1 24  1  0
  2  3  1  0
  2 25  1  0
  2 26  1  0
  3  4  1  0
  3  6  1  0
  3 27  1  1
  4  5  1  0
  4 28  1  0
  4 29  1  0
  5 30  1  0
  6  7  1  0
  6 16  1  0
  7  8  1  0
  7 31  1  0
  7 32  1  0
  8  9  2  0
  8 10  1  0
 10 11  1  0
 10 33  1  0
 11 12  2  0
 11 15  1  0
 12 13  1  0
 13 14  2  0
 13 34  1  0
 14 15  1  0
 14 35  1  0
 16 17  2  0
 16 21  1  0
 17 18  1  0
 17 36  1  0
 18 19  2  0
 18 37  1  0
 19 20  1  0
 19 38  1  0
 20 21  2  0
 20 39  1  0
 21 40  1  0
M  END

