
     RDKit          3D

 32 35  0  0  0  0  0  0  0  0999 V2000
   -0.6006   -1.3726   -0.1243 C   0  0  0  0  0  0  0  0  0  0  0  0
   -1.1465   -0.4092   -0.9751 C   0  0  0  0  0  0  0  0  0  0  0  0
   -0.5013    0.8188   -1.1307 C   0  0  0  0  0  0  0  0  0  0  0  0
    0.6850    1.1197   -0.4436 C   0  0  0  0  0  0  0  0  0  0  0  0
    1.3365    2.4384   -0.7412 C   0  0  0  0  0  0  0  0  0  0  0  0
    2.2355    2.4887   -1.8189 C   0  0  0  0  0  0  0  0  0  0  0  0
    2.8257    3.6850   -2.2270 C   0  0  0  0  0  0  0  0  0  0  0  0
    2.5146    4.8724   -1.5594 C   0  0  0  0  0  0  0  0  0  0  0  0
    1.6240    4.8450   -0.4895 C   0  0  0  0  0  0  0  0  0  0  0  0
    1.0321    3.6415   -0.0624 C   0  0  0  0  0  0  0  0  0  0  0  0
    0.1165    3.7020    1.0895 C   0  0  0  0  0  0  0  0  0  0  0  0
   -0.2477    2.6486    1.8774 N   0  0  0  0  0  0  0  0  0  0  0  0
   -1.0360    3.1149    2.7983 N   0  0  0  0  0  0  0  0  0  0  0  0
   -1.1320    4.4137    2.5629 N   0  0  0  0  0  0  0  0  0  0  0  0
   -1.6993    5.0290    3.1390 H   0  0  0  0  0  0  0  0  0  0  0  0
   -0.4435    4.8367    1.5203 N   0  0  0  0  0  0  0  0  0  0  0  0
    1.2307    0.1429    0.4220 C   0  0  0  0  0  0  0  0  0  0  0  0
    2.4544    0.3523    1.2118 C   0  0  0  0  0  0  0  0  0  0  0  0
    3.0372   -0.6451    1.9467 N   0  0  0  0  0  0  0  0  0  0  0  0
    4.0761   -0.1335    2.5298 N   0  0  0  0  0  0  0  0  0  0  0  0
    4.1096    1.1344    2.1511 N   0  0  0  0  0  0  0  0  0  0  0  0
    4.8308    1.7768    2.4656 H   0  0  0  0  0  0  0  0  0  0  0  0
    3.1337    1.4929    1.3369 N   0  0  0  0  0  0  0  0  0  0  0  0
    0.5782   -1.0952    0.5637 C   0  0  0  0  0  0  0  0  0  0  0  0
   -1.0922   -2.3398    0.0057 H   0  0  0  0  0  0  0  0  0  0  0  0
   -2.0709   -0.6119   -1.5219 H   0  0  0  0  0  0  0  0  0  0  0  0
   -0.9207    1.5703   -1.8042 H   0  0  0  0  0  0  0  0  0  0  0  0
    2.4674    1.5612   -2.3480 H   0  0  0  0  0  0  0  0  0  0  0  0
    3.5224    3.6893   -3.0692 H   0  0  0  0  0  0  0  0  0  0  0  0
    2.9649    5.8182   -1.8705 H   0  0  0  0  0  0  0  0  0  0  0  0
    1.3750    5.7649    0.0424 H   0  0  0  0  0  0  0  0  0  0  0  0
    1.0157   -1.8354    1.2350 H   0  0  0  0  0  0  0  0  0  0  0  0
  1  2  2  0
  1 24  1  0
  1 25  1  0
  2  3  1  0
  2 26  1  0
  3  4  2  0
  3 27  1  0
  4  5  1  0
  4 17  1  0
  5  6  2  0
  5 10  1  0
  6  7  1  0
  6 28  1  0
  7  8  2  0
  7 29  1  0
  8  9  1  0
  8 30  1  0
  9 10  2  0
  9 31  1  0
 10 11  1  0
 11 12  1  0
 11 16  2  0
 12 13  2  0
 13 14  1  0
 14 15  1  0
 14 16  1  0
 17 18  1  0
 17 24  2  0
 18 19  1  0
 18 23  2  0
 19 20  2  0
 20 21  1  0
 21 22  1  0
 21 23  1  0
 24 32  1  0
M  END

