
     RDKit          3D

 60 61  0  0  0  0  0  0  0  0999 V2000
   -2.5302   -5.0290   -1.7555 C   0  0  0  0  0  0  0  0  0  0  0  0
   -3.7322   -4.0688   -1.7447 C   0  0  0  0  0  0  0  0  0  0  0  0
   -3.9767   -3.4555   -0.3814 C   0  0  0  0  0  0  0  0  0  0  0  0
   -4.8330   -4.0935    0.5258 C   0  0  0  0  0  0  0  0  0  0  0  0
   -5.0241   -3.5853    1.8109 C   0  0  0  0  0  0  0  0  0  0  0  0
   -4.3560   -2.4273    2.2043 C   0  0  0  0  0  0  0  0  0  0  0  0
   -3.4950   -1.7493    1.3274 C   0  0  0  0  0  0  0  0  0  0  0  0
   -2.7768   -0.5056    1.8084 C   0  0  0  0  0  0  0  0  0  0  0  0
   -1.5424   -0.8158    2.6722 C   0  0  0  0  0  0  0  0  0  0  0  0
   -3.3152   -2.2766    0.0303 C   0  0  0  0  0  0  0  0  0  0  0  0
   -2.4889   -1.5864   -0.9162 N   0  0  0  0  0  0  0  0  0  0  0  0
   -1.1276   -1.6501   -0.9479 C   0  0  0  0  0  0  0  0  0  0  0  0
   -0.4415   -2.3069   -0.1842 O   0  0  0  0  0  0  0  0  0  0  0  0
   -0.4707   -0.8380   -2.0791 C   0  0  0  0  0  0  0  0  0  0  0  0
   -0.7594    0.5680   -2.0415 O   0  0  0  0  0  0  0  0  0  0  0  0
   -1.8668    1.0099   -2.6646 C   0  0  0  0  0  0  0  0  0  0  0  0
   -2.7110    0.2612   -3.1431 O   0  0  0  0  0  0  0  0  0  0  0  0
   -1.9779    2.4557   -2.7071 C   0  0  0  0  0  0  0  0  0  0  0  0
   -3.1076    2.9895   -3.3042 N   0  0  0  0  0  0  0  0  0  0  0  0
   -3.8367    2.4062   -3.7017 H   0  0  0  0  0  0  0  0  0  0  0  0
   -3.0778    4.3346   -3.2779 C   0  0  0  0  0  0  0  0  0  0  0  0
   -4.1772    5.1617   -3.8568 C   0  0  0  0  0  0  0  0  0  0  0  0
   -1.8752    4.7106   -2.6358 C   0  0  0  0  0  0  0  0  0  0  0  0
   -1.5385    6.1336   -2.4462 C   0  0  0  0  0  0  0  0  0  0  0  0
   -2.2563    7.0452   -2.8107 O   0  0  0  0  0  0  0  0  0  0  0  0
   -0.3553    6.3391   -1.8318 O   0  0  0  0  0  0  0  0  0  0  0  0
    0.0631    7.7095   -1.6018 C   0  0  1  0  0  0  0  0  0  0  0  0
   -0.5589    8.2269   -0.3099 C   0  0  0  0  0  0  0  0  0  0  0  0
    1.5840    7.6990   -1.5858 C   0  0  0  0  0  0  0  0  0  0  0  0
   -1.1732    3.5138   -2.2723 C   0  0  0  0  0  0  0  0  0  0  0  0
    0.1454    3.3695   -1.5706 C   0  0  0  0  0  0  0  0  0  0  0  0
   -2.3583   -5.4340   -2.7662 H   0  0  0  0  0  0  0  0  0  0  0  0
   -2.7016   -5.8782   -1.0749 H   0  0  0  0  0  0  0  0  0  0  0  0
   -1.6109   -4.5244   -1.4208 H   0  0  0  0  0  0  0  0  0  0  0  0
   -4.6374   -4.6152   -2.0570 H   0  0  0  0  0  0  0  0  0  0  0  0
   -3.5729   -3.2794   -2.4956 H   0  0  0  0  0  0  0  0  0  0  0  0
   -5.3549   -5.0032    0.2151 H   0  0  0  0  0  0  0  0  0  0  0  0
   -5.6986   -4.0920    2.5061 H   0  0  0  0  0  0  0  0  0  0  0  0
   -4.5090   -2.0268    3.2107 H   0  0  0  0  0  0  0  0  0  0  0  0
   -3.4862    0.1046    2.3934 H   0  0  0  0  0  0  0  0  0  0  0  0
   -2.4750    0.1071    0.9459 H   0  0  0  0  0  0  0  0  0  0  0  0
   -1.8244   -1.3784    3.5770 H   0  0  0  0  0  0  0  0  0  0  0  0
   -1.0487    0.1152    2.9955 H   0  0  0  0  0  0  0  0  0  0  0  0
   -0.8161   -1.4203    2.1098 H   0  0  0  0  0  0  0  0  0  0  0  0
   -2.9384   -1.0950   -1.6909 H   0  0  0  0  0  0  0  0  0  0  0  0
   -0.7682   -1.2479   -3.0574 H   0  0  0  0  0  0  0  0  0  0  0  0
    0.6125   -0.9255   -1.9430 H   0  0  0  0  0  0  0  0  0  0  0  0
   -4.9655    4.5216   -4.2820 H   0  0  0  0  0  0  0  0  0  0  0  0
   -3.7942    5.8313   -4.6411 H   0  0  0  0  0  0  0  0  0  0  0  0
   -4.6189    5.8179   -3.0923 H   0  0  0  0  0  0  0  0  0  0  0  0
   -0.3077    8.3103   -2.4461 H   0  0  0  0  0  0  0  0  0  0  0  0
   -0.2539    7.6045    0.5467 H   0  0  0  0  0  0  0  0  0  0  0  0
   -1.6561    8.2240   -0.3801 H   0  0  0  0  0  0  0  0  0  0  0  0
   -0.2322    9.2615   -0.1192 H   0  0  0  0  0  0  0  0  0  0  0  0
    1.9667    7.0848   -0.7549 H   0  0  0  0  0  0  0  0  0  0  0  0
    1.9683    8.7232   -1.4604 H   0  0  0  0  0  0  0  0  0  0  0  0
    1.9826    7.2937   -2.5281 H   0  0  0  0  0  0  0  0  0  0  0  0
    0.5672    4.3470   -1.3215 H   0  0  0  0  0  0  0  0  0  0  0  0
    0.8632    2.8202   -2.2002 H   0  0  0  0  0  0  0  0  0  0  0  0
    0.0335    2.7794   -0.6479 H   0  0  0  0  0  0  0  0  0  0  0  0
  1  2  1  0
  1 32  1  0
  1 33  1  0
  1 34  1  0
  2  3  1  0
  2 35  1  0
  2 36  1  0
  3  4  2  0
  3 10  1  0
  4  5  1  0
  4 37  1  0
  5  6  2  0
  5 38  1  0
  6  7  1  0
  6 39  1  0
  7  8  1  0
  7 10  2  0
  8  9  1  0
  8 40  1  0
  8 41  1  0
  9 42  1  0
  9 43  1  0
  9 44  1  0
 10 11  1  0
 11 12  1  0
 11 45  1  0
 12 13  2  0
 12 14  1  0
 14 15  1  0
 14 46  1  0
 14 47  1  0
 15 16  1  0
 16 17  2  0
 16 18  1  0
 18 19  1  0
 18 30  2  0
 19 20  1  0
 19 21  1  0
 21 22  1  0
 21 23  2  0
 22 48  1  0
 22 49  1  0
 22 50  1  0
 23 24  1  0
 23 30  1  0
 24 25  2  0
 24 26  1  0
 26 27  1  0
 27 28  1  0
 27 29  1  0
 27 51  1  6
 28 52  1  0
 28 53  1  0
 28 54  1  0
 29 55  1  0
 29 56  1  0
 29 57  1  0
 30 31  1  0
 31 58  1  0
 31 59  1  0
 31 60  1  0
M  END

