
     RDKit          3D

 50 54  0  0  0  0  0  0  0  0999 V2000
    1.2032    0.0989   -0.2491 C   0  0  0  0  0  0  0  0  0  0  0  0
    2.7166    0.0621   -0.0232 C   0  0  0  0  0  0  0  0  0  0  0  0
    3.1146   -0.6405    1.1828 N   0  0  0  0  0  0  0  0  0  0  0  0
    3.3914   -1.9982    1.2747 C   0  0  0  0  0  0  0  0  0  0  0  0
    3.3854   -2.9702    0.2653 C   0  0  0  0  0  0  0  0  0  0  0  0
    3.7352   -4.2751    0.6133 C   0  0  0  0  0  0  0  0  0  0  0  0
    4.0801   -4.6092    1.9354 C   0  0  0  0  0  0  0  0  0  0  0  0
    4.0764   -3.6433    2.9412 C   0  0  0  0  0  0  0  0  0  0  0  0
    3.7260   -2.3209    2.6223 C   0  0  0  0  0  0  0  0  0  0  0  0
    3.6261   -1.0834    3.3760 C   0  0  0  0  0  0  0  0  0  0  0  0
    3.8384   -0.7213    4.7246 C   0  0  0  0  0  0  0  0  0  0  0  0
    4.1969   -1.6877    5.7156 N   0  0  0  0  0  0  0  0  0  0  0  0
    5.3826   -1.4541    6.4643 C   0  0  0  0  0  0  0  0  0  0  0  0
    5.4018   -1.5537    7.8678 C   0  0  0  0  0  0  0  0  0  0  0  0
    6.5791   -1.3071    8.5769 C   0  0  0  0  0  0  0  0  0  0  0  0
    7.7512   -0.9405    7.9081 C   0  0  0  0  0  0  0  0  0  0  0  0
    7.7332   -0.8273    6.5140 C   0  0  0  0  0  0  0  0  0  0  0  0
    6.5654   -1.0872    5.7959 C   0  0  0  0  0  0  0  0  0  0  0  0
    3.2637   -2.6792    6.0969 C   0  0  0  0  0  0  0  0  0  0  0  0
    3.6967   -3.9020    6.6518 C   0  0  0  0  0  0  0  0  0  0  0  0
    2.7743   -4.8835    7.0130 C   0  0  0  0  0  0  0  0  0  0  0  0
    1.4033   -4.6853    6.8158 C   0  0  0  0  0  0  0  0  0  0  0  0
    0.9700   -3.4817    6.2540 C   0  0  0  0  0  0  0  0  0  0  0  0
    1.8829   -2.4849    5.9032 C   0  0  0  0  0  0  0  0  0  0  0  0
    3.6947    0.6238    5.0907 C   0  0  0  0  0  0  0  0  0  0  0  0
    3.3338    1.6000    4.1501 C   0  0  0  0  0  0  0  0  0  0  0  0
    3.0952    1.2688    2.8163 C   0  0  0  0  0  0  0  0  0  0  0  0
    3.2493   -0.0724    2.4417 C   0  0  0  0  0  0  0  0  0  0  0  0
    0.9670    0.6428   -1.1778 H   0  0  0  0  0  0  0  0  0  0  0  0
    0.6904    0.6045    0.5838 H   0  0  0  0  0  0  0  0  0  0  0  0
    0.7907   -0.9185   -0.3334 H   0  0  0  0  0  0  0  0  0  0  0  0
    3.1212    1.0854    0.0295 H   0  0  0  0  0  0  0  0  0  0  0  0
    3.2197   -0.4190   -0.8770 H   0  0  0  0  0  0  0  0  0  0  0  0
    3.1162   -2.7233   -0.7636 H   0  0  0  0  0  0  0  0  0  0  0  0
    3.7387   -5.0503   -0.1575 H   0  0  0  0  0  0  0  0  0  0  0  0
    4.3491   -5.6399    2.1783 H   0  0  0  0  0  0  0  0  0  0  0  0
    4.3383   -3.9153    3.9629 H   0  0  0  0  0  0  0  0  0  0  0  0
    4.4892   -1.8231    8.4021 H   0  0  0  0  0  0  0  0  0  0  0  0
    6.5738   -1.3893    9.6671 H   0  0  0  0  0  0  0  0  0  0  0  0
    8.6687   -0.7433    8.4675 H   0  0  0  0  0  0  0  0  0  0  0  0
    8.6417   -0.5446    5.9755 H   0  0  0  0  0  0  0  0  0  0  0  0
    6.5597   -1.0101    4.7070 H   0  0  0  0  0  0  0  0  0  0  0  0
    4.7634   -4.0806    6.7973 H   0  0  0  0  0  0  0  0  0  0  0  0
    3.1358   -5.8220    7.4424 H   0  0  0  0  0  0  0  0  0  0  0  0
    0.6847   -5.4598    7.0935 H   0  0  0  0  0  0  0  0  0  0  0  0
   -0.0970   -3.3061    6.0922 H   0  0  0  0  0  0  0  0  0  0  0  0
    1.5258   -1.5468    5.4765 H   0  0  0  0  0  0  0  0  0  0  0  0
    3.8615    0.9048    6.1321 H   0  0  0  0  0  0  0  0  0  0  0  0
    3.2236    2.6381    4.4735 H   0  0  0  0  0  0  0  0  0  0  0  0
    2.8028    2.0345    2.0960 H   0  0  0  0  0  0  0  0  0  0  0  0
  1  2  1  0
  1 29  1  0
  1 30  1  0
  1 31  1  0
  2  3  1  0
  2 32  1  0
  2 33  1  0
  3  4  1  0
  3 28  1  0
  4  5  2  0
  4  9  1  0
  5  6  1  0
  5 34  1  0
  6  7  2  0
  6 35  1  0
  7  8  1  0
  7 36  1  0
  8  9  2  0
  8 37  1  0
  9 10  1  0
 10 11  1  0
 10 28  2  0
 11 12  1  0
 11 25  2  0
 12 13  1  0
 12 19  1  0
 13 14  2  0
 13 18  1  0
 14 15  1  0
 14 38  1  0
 15 16  2  0
 15 39  1  0
 16 17  1  0
 16 40  1  0
 17 18  2  0
 17 41  1  0
 18 42  1  0
 19 20  2  0
 19 24  1  0
 20 21  1  0
 20 43  1  0
 21 22  2  0
 21 44  1  0
 22 23  1  0
 22 45  1  0
 23 24  2  0
 23 46  1  0
 24 47  1  0
 25 26  1  0
 25 48  1  0
 26 27  2  0
 26 49  1  0
 27 28  1  0
 27 50  1  0
M  END

