
     RDKit          3D

 42 42  0  0  0  0  0  0  0  0999 V2000
    0.8889    0.1789   -0.7362 C   0  0  0  0  0  0  0  0  0  0  0  0
    2.3794    0.2528   -0.3852 C   0  0  1  0  0  0  0  0  0  0  0  0
    2.6538    1.2592    0.7471 C   0  0  0  0  0  0  0  0  0  0  0  0
    1.7680    1.6105    1.4939 O   0  0  0  0  0  0  0  0  0  0  0  0
    4.0617    1.8084    0.8547 C   0  0  0  0  0  0  0  0  0  0  0  0
    4.2720    2.6618    2.0936 C   0  0  0  0  0  0  0  0  0  0  0  0
    5.5973    3.1604    2.0443 O   0  0  0  0  0  0  0  0  0  0  0  0
    6.0517    3.9602    3.0444 C   0  0  0  0  0  0  0  0  0  0  0  0
    7.3781    4.4113    2.9201 C   0  0  0  0  0  0  0  0  0  0  0  0
    7.9314    5.2363    3.8957 C   0  0  0  0  0  0  0  0  0  0  0  0
    7.1768    5.6266    5.0105 C   0  0  0  0  0  0  0  0  0  0  0  0
    5.8616    5.1773    5.1310 C   0  0  0  0  0  0  0  0  0  0  0  0
    5.2900    4.3470    4.1583 C   0  0  0  0  0  0  0  0  0  0  0  0
    2.9656   -1.1113    0.0044 C   0  0  0  0  0  0  0  0  0  0  0  0
    3.6320   -1.2976    0.9977 O   0  0  0  0  0  0  0  0  0  0  0  0
    2.6524   -2.0403   -0.9015 O   0  0  0  0  0  0  0  0  0  0  0  0
    3.0801   -3.4490   -0.7863 C   0  0  1  0  0  0  0  0  0  0  0  0
    2.4943   -4.0663    0.4867 C   0  0  0  0  0  0  0  0  0  0  0  0
    2.4717   -4.0898   -2.0340 C   0  0  0  0  0  0  0  0  0  0  0  0
    4.6090   -3.5293   -0.8210 C   0  0  0  0  0  0  0  0  0  0  0  0
    0.5206    1.1675   -1.0473 H   0  0  0  0  0  0  0  0  0  0  0  0
    0.3021   -0.1288    0.1409 H   0  0  0  0  0  0  0  0  0  0  0  0
    0.7204   -0.5362   -1.5517 H   0  0  0  0  0  0  0  0  0  0  0  0
    2.9515    0.5735   -1.2755 H   0  0  0  0  0  0  0  0  0  0  0  0
    4.2675    2.4074   -0.0519 H   0  0  0  0  0  0  0  0  0  0  0  0
    4.7753    0.9697    0.8368 H   0  0  0  0  0  0  0  0  0  0  0  0
    4.1133    2.0561    3.0038 H   0  0  0  0  0  0  0  0  0  0  0  0
    3.5403    3.4882    2.1203 H   0  0  0  0  0  0  0  0  0  0  0  0
    7.9514    4.0969    2.0454 H   0  0  0  0  0  0  0  0  0  0  0  0
    8.9638    5.5791    3.7861 H   0  0  0  0  0  0  0  0  0  0  0  0
    7.6129    6.2737    5.7749 H   0  0  0  0  0  0  0  0  0  0  0  0
    5.2598    5.4726    5.9948 H   0  0  0  0  0  0  0  0  0  0  0  0
    4.2601    4.0107    4.2780 H   0  0  0  0  0  0  0  0  0  0  0  0
    1.4001   -3.9447    0.5050 H   0  0  0  0  0  0  0  0  0  0  0  0
    2.9178   -3.6040    1.3873 H   0  0  0  0  0  0  0  0  0  0  0  0
    2.7169   -5.1445    0.5071 H   0  0  0  0  0  0  0  0  0  0  0  0
    1.3757   -3.9919   -2.0267 H   0  0  0  0  0  0  0  0  0  0  0  0
    2.7256   -5.1599   -2.0731 H   0  0  0  0  0  0  0  0  0  0  0  0
    2.8557   -3.6068   -2.9452 H   0  0  0  0  0  0  0  0  0  0  0  0
    5.0542   -3.0612    0.0660 H   0  0  0  0  0  0  0  0  0  0  0  0
    5.0003   -3.0314   -1.7220 H   0  0  0  0  0  0  0  0  0  0  0  0
    4.9205   -4.5849   -0.8546 H   0  0  0  0  0  0  0  0  0  0  0  0
  1  2  1  0
  1 21  1  0
  1 22  1  0
  1 23  1  0
  2  3  1  0
  2 14  1  0
  2 24  1  6
  3  4  2  0
  3  5  1  0
  5  6  1  0
  5 25  1  0
  5 26  1  0
  6  7  1  0
  6 27  1  0
  6 28  1  0
  7  8  1  0
  8  9  2  0
  8 13  1  0
  9 10  1  0
  9 29  1  0
 10 11  2  0
 10 30  1  0
 11 12  1  0
 11 31  1  0
 12 13  2  0
 12 32  1  0
 13 33  1  0
 14 15  2  0
 14 16  1  0
 17 16  1  1
 17 18  1  0
 17 19  1  0
 17 20  1  0
 18 34  1  0
 18 35  1  0
 18 36  1  0
 19 37  1  0
 19 38  1  0
 19 39  1  0
 20 40  1  0
 20 41  1  0
 20 42  1  0
M  END

