
     RDKit          3D

 51 53  0  0  0  0  0  0  0  0999 V2000
    6.0888   -0.9341    1.2187 C   0  0  0  0  0  0  0  0  0  0  0  0
    5.9351    0.4072    0.8131 O   0  0  0  0  0  0  0  0  0  0  0  0
    5.6447    0.6825   -0.4826 C   0  0  0  0  0  0  0  0  0  0  0  0
    5.4947   -0.2873   -1.4885 C   0  0  0  0  0  0  0  0  0  0  0  0
    5.1954    0.1106   -2.7935 C   0  0  0  0  0  0  0  0  0  0  0  0
    5.0408    1.4609   -3.1288 C   0  0  0  0  0  0  0  0  0  0  0  0
    4.7228    1.8078   -4.5793 C   0  0  1  0  0  0  0  0  0  0  0  0
    3.8682    1.2069   -4.9156 H   0  0  0  0  0  0  0  0  0  0  0  0
    4.4877    3.2464   -4.8393 N   0  0  0  0  0  0  0  0  0  0  0  0
    3.2835    3.8739   -4.9566 C   0  0  0  0  0  0  0  0  0  0  0  0
    3.1410    4.9897   -5.4130 O   0  0  0  0  0  0  0  0  0  0  0  0
    2.0265    3.0960   -4.4711 C   0  0  1  0  0  0  0  0  0  0  0  0
    1.7481    2.0779   -5.3077 F   0  0  0  0  0  0  0  0  0  0  0  0
    2.1989    2.5766   -3.2430 F   0  0  0  0  0  0  0  0  0  0  0  0
    0.9761    3.9024   -4.4370 F   0  0  0  0  0  0  0  0  0  0  0  0
    5.6687    3.8825   -5.4743 C   0  0  1  0  0  0  0  0  0  0  0  0
    5.3745    4.1521   -6.5018 H   0  0  0  0  0  0  0  0  0  0  0  0
    6.1822    5.1256   -4.7558 C   0  0  0  0  0  0  0  0  0  0  0  0
    6.6793    2.7188   -5.5092 C   0  0  0  0  0  0  0  0  0  0  0  0
    5.8757    1.4935   -5.4437 N   0  0  0  0  0  0  0  0  0  0  0  0
    5.4866    0.7627   -6.9461 S   0  0  1  0  0  0  0  0  0  0  0  0
    4.4648   -0.2389   -6.6268 O   0  0  0  0  0  0  0  0  0  0  0  0
    5.2422    1.7747   -7.9828 O   0  0  0  0  0  0  0  0  0  0  0  0
    7.0244   -0.0633   -7.3453 C   0  0  0  0  0  0  0  0  0  0  0  0
    7.5168   -1.0682   -6.5039 C   0  0  0  0  0  0  0  0  0  0  0  0
    8.6821   -1.7385   -6.8645 C   0  0  0  0  0  0  0  0  0  0  0  0
    9.3628   -1.4319   -8.0591 C   0  0  0  0  0  0  0  0  0  0  0  0
   10.6182   -2.1789   -8.4330 C   0  0  0  0  0  0  0  0  0  0  0  0
    8.8392   -0.4262   -8.8842 C   0  0  0  0  0  0  0  0  0  0  0  0
    7.6720    0.2609   -8.5375 C   0  0  0  0  0  0  0  0  0  0  0  0
    5.1796    2.4177   -2.1148 C   0  0  0  0  0  0  0  0  0  0  0  0
    5.4815    2.0385   -0.8092 C   0  0  0  0  0  0  0  0  0  0  0  0
    6.3109   -0.9125    2.2941 H   0  0  0  0  0  0  0  0  0  0  0  0
    6.9237   -1.4312    0.6921 H   0  0  0  0  0  0  0  0  0  0  0  0
    5.1672   -1.5217    1.0564 H   0  0  0  0  0  0  0  0  0  0  0  0
    5.6014   -1.3492   -1.2664 H   0  0  0  0  0  0  0  0  0  0  0  0
    5.0715   -0.6504   -3.5690 H   0  0  0  0  0  0  0  0  0  0  0  0
    6.4855    4.8972   -3.7218 H   0  0  0  0  0  0  0  0  0  0  0  0
    5.4096    5.9056   -4.7409 H   0  0  0  0  0  0  0  0  0  0  0  0
    7.0605    5.5244   -5.2891 H   0  0  0  0  0  0  0  0  0  0  0  0
    7.3407    2.7452   -4.6277 H   0  0  0  0  0  0  0  0  0  0  0  0
    7.3074    2.7352   -6.4093 H   0  0  0  0  0  0  0  0  0  0  0  0
    6.9960   -1.3138   -5.5771 H   0  0  0  0  0  0  0  0  0  0  0  0
    9.0738   -2.5209   -6.2084 H   0  0  0  0  0  0  0  0  0  0  0  0
   11.3782   -2.1031   -7.6380 H   0  0  0  0  0  0  0  0  0  0  0  0
   11.0594   -1.7929   -9.3631 H   0  0  0  0  0  0  0  0  0  0  0  0
   10.4108   -3.2524   -8.5773 H   0  0  0  0  0  0  0  0  0  0  0  0
    9.3496   -0.1742   -9.8175 H   0  0  0  0  0  0  0  0  0  0  0  0
    7.2582    1.0393   -9.1807 H   0  0  0  0  0  0  0  0  0  0  0  0
    5.0338    3.4746   -2.3437 H   0  0  0  0  0  0  0  0  0  0  0  0
    5.5887    2.7798   -0.0148 H   0  0  0  0  0  0  0  0  0  0  0  0
  1  2  1  0
  1 33  1  0
  1 34  1  0
  1 35  1  0
  2  3  1  0
  3  4  2  0
  3 32  1  0
  4  5  1  0
  4 36  1  0
  5  6  2  0
  5 37  1  0
  6  7  1  0
  6 31  1  0
  7  8  1  6
  7  9  1  0
  7 20  1  0
  9 10  1  0
  9 16  1  0
 10 11  2  0
 10 12  1  0
 12 13  1  6
 12 14  1  0
 12 15  1  0
 16 17  1  6
 16 18  1  0
 16 19  1  0
 18 38  1  0
 18 39  1  0
 18 40  1  0
 19 20  1  0
 19 41  1  0
 19 42  1  0
 20 21  1  0
 21 22  2  0
 21 23  2  0
 21 24  1  6
 24 25  2  0
 24 30  1  0
 25 26  1  0
 25 43  1  0
 26 27  2  0
 26 44  1  0
 27 28  1  0
 27 29  1  0
 28 45  1  0
 28 46  1  0
 28 47  1  0
 29 30  2  0
 29 48  1  0
 30 49  1  0
 31 32  2  0
 31 50  1  0
 32 51  1  0
M  END

