
     RDKit          3D

 43 42  0  0  0  0  0  0  0  0999 V2000
    7.3476    2.3311   -5.4767 C   0  0  0  0  0  0  0  0  0  0  0  0
    8.1053    1.9913   -4.4319 C   0  0  0  0  0  0  0  0  0  0  0  0
    8.6682    0.6223   -4.1910 C   0  0  0  0  0  0  0  0  0  0  0  0
    8.3986    0.2337   -2.8625 O   0  0  0  0  0  0  0  0  0  0  0  0
    8.9602   -1.0019   -2.5003 C   0  0  0  0  0  0  0  0  0  0  0  0
    8.6055   -1.2740   -1.0484 C   0  0  0  0  0  0  0  0  0  0  0  0
    9.1632   -2.5114   -0.6884 O   0  0  0  0  0  0  0  0  0  0  0  0
    8.9126   -2.8939    0.6396 C   0  0  0  0  0  0  0  0  0  0  0  0
    9.6249   -4.1952    0.9394 C   0  0  0  0  0  0  0  0  0  0  0  0
   11.0093   -3.9704    1.0202 O   0  0  0  0  0  0  0  0  0  0  0  0
   11.7731   -5.1315    1.2172 C   0  0  0  0  0  0  0  0  0  0  0  0
   13.2358   -4.7265    1.2836 C   0  0  0  0  0  0  0  0  0  0  0  0
   14.0018   -5.8882    1.4820 O   0  0  0  0  0  0  0  0  0  0  0  0
   15.3855   -5.6605    1.5603 C   0  0  0  0  0  0  0  0  0  0  0  0
   16.1032   -6.9714    1.8169 C   0  0  0  0  0  0  0  0  0  0  0  0
   15.7820   -7.5359    3.0945 O   0  0  0  0  0  0  0  0  0  0  0  0
   16.4846   -7.0980    4.1605 C   0  0  0  0  0  0  0  0  0  0  0  0
   16.0289   -7.7850    5.4241 C   0  0  0  0  0  0  0  0  0  0  0  0
   17.3579   -6.2680    4.0897 O   0  0  0  0  0  0  0  0  0  0  0  0
    6.9934    3.3560   -5.6176 H   0  0  0  0  0  0  0  0  0  0  0  0
    7.0547    1.5982   -6.2362 H   0  0  0  0  0  0  0  0  0  0  0  0
    8.3761    2.7410   -3.6786 H   0  0  0  0  0  0  0  0  0  0  0  0
    9.7683    0.6382   -4.3611 H   0  0  0  0  0  0  0  0  0  0  0  0
    8.2457   -0.1057   -4.9145 H   0  0  0  0  0  0  0  0  0  0  0  0
   10.0640   -0.9957   -2.6153 H   0  0  0  0  0  0  0  0  0  0  0  0
    8.5732   -1.8265   -3.1341 H   0  0  0  0  0  0  0  0  0  0  0  0
    7.5015   -1.2757   -0.9336 H   0  0  0  0  0  0  0  0  0  0  0  0
    8.9962   -0.4527   -0.4132 H   0  0  0  0  0  0  0  0  0  0  0  0
    7.8238   -3.0321    0.8123 H   0  0  0  0  0  0  0  0  0  0  0  0
    9.2638   -2.1174    1.3498 H   0  0  0  0  0  0  0  0  0  0  0  0
    9.3880   -4.9292    0.1420 H   0  0  0  0  0  0  0  0  0  0  0  0
    9.2354   -4.6070    1.8948 H   0  0  0  0  0  0  0  0  0  0  0  0
   11.6286   -5.8576    0.3909 H   0  0  0  0  0  0  0  0  0  0  0  0
   11.4920   -5.6505    2.1573 H   0  0  0  0  0  0  0  0  0  0  0  0
   13.3814   -3.9998    2.1089 H   0  0  0  0  0  0  0  0  0  0  0  0
   13.5172   -4.2099    0.3430 H   0  0  0  0  0  0  0  0  0  0  0  0
   15.6301   -4.9356    2.3617 H   0  0  0  0  0  0  0  0  0  0  0  0
   15.7741   -5.2343    0.6101 H   0  0  0  0  0  0  0  0  0  0  0  0
   17.1892   -6.8123    1.7443 H   0  0  0  0  0  0  0  0  0  0  0  0
   15.7827   -7.7208    1.0794 H   0  0  0  0  0  0  0  0  0  0  0  0
   14.9601   -7.5828    5.5936 H   0  0  0  0  0  0  0  0  0  0  0  0
   16.6199   -7.4235    6.2739 H   0  0  0  0  0  0  0  0  0  0  0  0
   16.1406   -8.8752    5.3209 H   0  0  0  0  0  0  0  0  0  0  0  0
  1  2  2  0
  1 20  1  0
  1 21  1  0
  2  3  1  0
  2 22  1  0
  3  4  1  0
  3 23  1  0
  3 24  1  0
  4  5  1  0
  5  6  1  0
  5 25  1  0
  5 26  1  0
  6  7  1  0
  6 27  1  0
  6 28  1  0
  7  8  1  0
  8  9  1  0
  8 29  1  0
  8 30  1  0
  9 10  1  0
  9 31  1  0
  9 32  1  0
 10 11  1  0
 11 12  1  0
 11 33  1  0
 11 34  1  0
 12 13  1  0
 12 35  1  0
 12 36  1  0
 13 14  1  0
 14 15  1  0
 14 37  1  0
 14 38  1  0
 15 16  1  0
 15 39  1  0
 15 40  1  0
 16 17  1  0
 17 18  1  0
 17 19  2  0
 18 41  1  0
 18 42  1  0
 18 43  1  0
M  END

