
     RDKit          3D

 45 48  0  0  0  0  0  0  0  0999 V2000
    1.0747   -0.8292    0.5459 O   0  0  0  0  0  0  0  0  0  0  0  0
    2.2738   -0.5834    0.6018 C   0  0  0  0  0  0  0  0  0  0  0  0
    3.1725   -1.1766   -0.2588 N   0  0  0  0  0  0  0  0  0  0  0  0
    2.6015   -1.9795   -1.3897 C   0  0  0  0  0  0  0  0  0  0  0  0
    2.5973   -3.5673   -1.3536 C   0  0  0  0  0  0  0  0  0  0  0  0
    3.8256   -4.3617   -0.7627 C   0  0  1  0  0  0  0  0  0  0  0  0
    5.1744   -4.5601   -1.5748 C   0  0  0  0  0  0  0  0  0  0  0  0
    6.1538   -3.4270   -1.0526 C   0  0  0  0  0  0  0  0  0  0  0  0
    5.0229   -2.5517   -0.5093 C   0  0  2  0  0  0  0  0  0  0  0  0
    4.6614   -1.1491   -0.0587 C   0  0  0  0  0  0  0  0  0  0  0  0
    4.3331   -3.5406    0.3277 N   0  0  0  0  0  0  0  0  0  0  0  0
    2.8145    0.4096    1.6311 C   0  0  1  0  0  0  0  0  0  0  0  0
    3.5581    1.6395    1.1153 C   0  0  0  0  0  0  0  0  0  0  0  0
    2.8147    2.5277    0.1284 C   0  0  0  0  0  0  0  0  0  0  0  0
    1.4216    2.4844   -0.0388 C   0  0  0  0  0  0  0  0  0  0  0  0
    0.7832    3.3542   -0.9307 C   0  0  0  0  0  0  0  0  0  0  0  0
    1.5210    4.2818   -1.6688 C   0  0  0  0  0  0  0  0  0  0  0  0
    2.9106    4.3314   -1.5143 C   0  0  0  0  0  0  0  0  0  0  0  0
    3.5462    3.4609   -0.6273 C   0  0  0  0  0  0  0  0  0  0  0  0
    1.9484    0.5816    2.8539 C   0  0  0  0  0  0  0  0  0  0  0  0
    3.2419   -0.1726    2.9710 C   0  0  0  0  0  0  0  0  0  0  0  0
    3.0757   -1.6251   -2.3199 H   0  0  0  0  0  0  0  0  0  0  0  0
    1.5496   -1.6733   -1.4333 H   0  0  0  0  0  0  0  0  0  0  0  0
    2.3436   -3.8914   -2.3788 H   0  0  0  0  0  0  0  0  0  0  0  0
    1.7383   -3.8622   -0.7277 H   0  0  0  0  0  0  0  0  0  0  0  0
    3.4546   -5.3429   -0.4226 H   0  0  0  0  0  0  0  0  0  0  0  0
    5.0139   -4.4662   -2.6611 H   0  0  0  0  0  0  0  0  0  0  0  0
    5.5757   -5.5665   -1.3861 H   0  0  0  0  0  0  0  0  0  0  0  0
    6.7265   -2.9670   -1.8724 H   0  0  0  0  0  0  0  0  0  0  0  0
    6.8415   -3.7988   -0.2795 H   0  0  0  0  0  0  0  0  0  0  0  0
    4.5174   -2.4671   -1.4809 H   0  0  0  0  0  0  0  0  0  0  0  0
    5.1387   -0.3845   -0.6954 H   0  0  0  0  0  0  0  0  0  0  0  0
    4.8795   -0.9255    0.9933 H   0  0  0  0  0  0  0  0  0  0  0  0
    3.5666   -3.1255    0.8532 H   0  0  0  0  0  0  0  0  0  0  0  0
    4.5232    1.3553    0.6672 H   0  0  0  0  0  0  0  0  0  0  0  0
    3.8262    2.2495    1.9975 H   0  0  0  0  0  0  0  0  0  0  0  0
    0.8278    1.7539    0.5124 H   0  0  0  0  0  0  0  0  0  0  0  0
   -0.3023    3.2996   -1.0489 H   0  0  0  0  0  0  0  0  0  0  0  0
    1.0192    4.9593   -2.3644 H   0  0  0  0  0  0  0  0  0  0  0  0
    3.5019    5.0487   -2.0898 H   0  0  0  0  0  0  0  0  0  0  0  0
    4.6342    3.5067   -0.5154 H   0  0  0  0  0  0  0  0  0  0  0  0
    1.0156    0.0148    2.8768 H   0  0  0  0  0  0  0  0  0  0  0  0
    1.8915    1.5827    3.2893 H   0  0  0  0  0  0  0  0  0  0  0  0
    3.1919   -1.2580    3.0999 H   0  0  0  0  0  0  0  0  0  0  0  0
    4.0898    0.2972    3.4800 H   0  0  0  0  0  0  0  0  0  0  0  0
  1  2  2  0
  2  3  1  0
 12  2  1  6
  3  4  1  0
  3 10  1  0
  4  5  1  0
  4 22  1  0
  4 23  1  0
  5  6  1  0
  5 24  1  0
  5 25  1  0
  6  7  1  0
  6 11  1  0
  6 26  1  1
  7  8  1  0
  7 27  1  0
  7 28  1  0
  8  9  1  0
  8 29  1  0
  8 30  1  0
  9 10  1  0
  9 11  1  0
  9 31  1  6
 10 32  1  0
 10 33  1  0
 11 34  1  0
 12 13  1  0
 12 20  1  0
 12 21  1  0
 13 14  1  0
 13 35  1  0
 13 36  1  0
 14 15  2  0
 14 19  1  0
 15 16  1  0
 15 37  1  0
 16 17  2  0
 16 38  1  0
 17 18  1  0
 17 39  1  0
 18 19  2  0
 18 40  1  0
 19 41  1  0
 20 21  1  0
 20 42  1  0
 20 43  1  0
 21 44  1  0
 21 45  1  0
M  END

