
     RDKit          3D

 33 34  0  0  0  0  0  0  0  0999 V2000
    1.2468    0.0745    0.2011 N   0  0  0  0  0  0  0  0  0  0  0  0
    2.4015    0.0146    0.1264 C   0  0  0  0  0  0  0  0  0  0  0  0
    3.8777   -0.0608    0.0352 C   0  0  1  0  0  0  0  0  0  0  0  0
    4.3773    0.2771    1.3826 N   0  0  0  0  0  0  0  0  0  0  0  0
    5.6936    0.3250    1.7434 C   0  0  0  0  0  0  0  0  0  0  0  0
    6.6171    0.0899    0.9775 O   0  0  0  0  0  0  0  0  0  0  0  0
    5.9539    0.6974    3.1961 C   0  0  1  0  0  0  0  0  0  0  0  0
    6.9074   -0.2652    3.9728 C   0  0  0  0  0  0  0  0  0  0  0  0
    7.6361    0.9711    4.5033 C   0  0  2  0  0  0  0  0  0  0  0  0
    8.9869    0.9246    4.5438 F   0  0  0  0  0  0  0  0  0  0  0  0
    7.2111    1.3187    5.7526 F   0  0  0  0  0  0  0  0  0  0  0  0
    6.9963    1.8387    3.4177 C   0  0  0  0  0  0  0  0  0  0  0  0
    4.2880   -1.5034   -0.3773 C   0  0  0  0  0  0  0  0  0  0  0  0
    3.8382   -1.8544   -1.8003 C   0  0  0  0  0  0  0  0  0  0  0  0
    4.3464   -0.8314   -2.8237 C   0  0  0  0  0  0  0  0  0  0  0  0
    3.9231    0.5936   -2.4460 C   0  0  0  0  0  0  0  0  0  0  0  0
    4.3737    0.9612   -1.0275 C   0  0  0  0  0  0  0  0  0  0  0  0
    3.6850    0.4895    2.0905 H   0  0  0  0  0  0  0  0  0  0  0  0
    5.0245    0.8835    3.7535 H   0  0  0  0  0  0  0  0  0  0  0  0
    7.5488   -0.8220    3.2758 H   0  0  0  0  0  0  0  0  0  0  0  0
    6.4678   -0.9332    4.7264 H   0  0  0  0  0  0  0  0  0  0  0  0
    7.6647    1.9267    2.5500 H   0  0  0  0  0  0  0  0  0  0  0  0
    6.6269    2.8237    3.7348 H   0  0  0  0  0  0  0  0  0  0  0  0
    3.8768   -2.2143    0.3572 H   0  0  0  0  0  0  0  0  0  0  0  0
    5.3845   -1.5448   -0.3028 H   0  0  0  0  0  0  0  0  0  0  0  0
    2.7354   -1.9034   -1.8421 H   0  0  0  0  0  0  0  0  0  0  0  0
    4.2014   -2.8643   -2.0517 H   0  0  0  0  0  0  0  0  0  0  0  0
    3.9746   -1.0839   -3.8302 H   0  0  0  0  0  0  0  0  0  0  0  0
    5.4492   -0.8828   -2.8739 H   0  0  0  0  0  0  0  0  0  0  0  0
    2.8252    0.6869   -2.5250 H   0  0  0  0  0  0  0  0  0  0  0  0
    4.3463    1.3225   -3.1564 H   0  0  0  0  0  0  0  0  0  0  0  0
    4.0224    1.9666   -0.7459 H   0  0  0  0  0  0  0  0  0  0  0  0
    5.4718    0.9624   -0.9643 H   0  0  0  0  0  0  0  0  0  0  0  0
  1  2  3  0
  3  2  1  1
  3  4  1  0
  3 13  1  0
  3 17  1  0
  4  5  1  0
  4 18  1  0
  5  6  2  0
  5  7  1  0
  7  8  1  0
  7 12  1  0
  7 19  1  1
  8  9  1  0
  8 20  1  0
  8 21  1  0
  9 10  1  1
  9 11  1  0
  9 12  1  0
 12 22  1  0
 12 23  1  0
 13 14  1  0
 13 24  1  0
 13 25  1  0
 14 15  1  0
 14 26  1  0
 14 27  1  0
 15 16  1  0
 15 28  1  0
 15 29  1  0
 16 17  1  0
 16 30  1  0
 16 31  1  0
 17 32  1  0
 17 33  1  0
M  END

