
     RDKit          3D

 37 38  0  0  0  0  0  0  0  0999 V2000
    6.3103   -0.4577   -2.8654 C   0  0  0  0  0  0  0  0  0  0  0  0
    5.2050    0.5972   -2.9026 C   0  0  0  0  0  0  0  0  0  0  0  0
    4.3418    0.6693   -1.6353 C   0  0  0  0  0  0  0  0  0  0  0  0
    5.0740    1.0550   -0.4319 N   0  0  0  0  0  0  0  0  0  0  0  0
    5.5197    2.3309   -0.1771 C   0  0  0  0  0  0  0  0  0  0  0  0
    6.1988    2.3358    1.0259 C   0  0  0  0  0  0  0  0  0  0  0  0
    6.1621    1.0049    1.5250 C   0  0  0  0  0  0  0  0  0  0  0  0
    5.4666    0.2290    0.6095 C   0  0  0  0  0  0  0  0  0  0  0  0
    5.1340   -1.2283    0.6833 C   0  0  0  0  0  0  0  0  0  0  0  0
    3.7099   -1.4512    0.9086 N   0  0  0  0  0  0  0  0  0  0  0  0
    3.1471   -2.7053    1.0277 C   0  0  0  0  0  0  0  0  0  0  0  0
    3.8577   -3.8796    0.7020 C   0  0  0  0  0  0  0  0  0  0  0  0
    3.2261   -5.1220    0.7957 C   0  0  0  0  0  0  0  0  0  0  0  0
    4.1336   -6.5564    0.3708 Cl  0  0  0  0  0  0  0  0  0  0  0  0
    1.9049   -5.2542    1.2176 C   0  0  0  0  0  0  0  0  0  0  0  0
    1.2094   -4.0842    1.5553 C   0  0  0  0  0  0  0  0  0  0  0  0
   -0.2026   -4.2012    2.0795 C   0  0  1  0  0  0  0  0  0  0  0  0
   -0.8881   -5.1724    1.4518 F   0  0  0  0  0  0  0  0  0  0  0  0
   -0.2166   -4.4999    3.3928 F   0  0  0  0  0  0  0  0  0  0  0  0
   -0.8947   -3.0576    1.9302 F   0  0  0  0  0  0  0  0  0  0  0  0
    1.8072   -2.8317    1.4625 C   0  0  0  0  0  0  0  0  0  0  0  0
    6.8969   -0.4468   -3.7973 H   0  0  0  0  0  0  0  0  0  0  0  0
    5.8944   -1.4726   -2.7496 H   0  0  0  0  0  0  0  0  0  0  0  0
    7.0087   -0.2799   -2.0322 H   0  0  0  0  0  0  0  0  0  0  0  0
    4.5255    0.3999   -3.7503 H   0  0  0  0  0  0  0  0  0  0  0  0
    5.6449    1.5919   -3.0908 H   0  0  0  0  0  0  0  0  0  0  0  0
    3.8558   -0.2968   -1.4372 H   0  0  0  0  0  0  0  0  0  0  0  0
    3.5304    1.4002   -1.7874 H   0  0  0  0  0  0  0  0  0  0  0  0
    5.3101    3.1409   -0.8733 H   0  0  0  0  0  0  0  0  0  0  0  0
    6.6619    3.2015    1.4955 H   0  0  0  0  0  0  0  0  0  0  0  0
    6.5954    0.6395    2.4550 H   0  0  0  0  0  0  0  0  0  0  0  0
    5.7485   -1.6734    1.4896 H   0  0  0  0  0  0  0  0  0  0  0  0
    5.4273   -1.7458   -0.2468 H   0  0  0  0  0  0  0  0  0  0  0  0
    3.2419   -0.7082    1.4156 H   0  0  0  0  0  0  0  0  0  0  0  0
    4.8951   -3.8410    0.3747 H   0  0  0  0  0  0  0  0  0  0  0  0
    1.4328   -6.2337    1.2785 H   0  0  0  0  0  0  0  0  0  0  0  0
    1.2350   -1.9374    1.7162 H   0  0  0  0  0  0  0  0  0  0  0  0
  1  2  1  0
  1 22  1  0
  1 23  1  0
  1 24  1  0
  2  3  1  0
  2 25  1  0
  2 26  1  0
  3  4  1  0
  3 27  1  0
  3 28  1  0
  4  5  1  0
  4  8  1  0
  5  6  2  0
  5 29  1  0
  6  7  1  0
  6 30  1  0
  7  8  2  0
  7 31  1  0
  8  9  1  0
  9 10  1  0
  9 32  1  0
  9 33  1  0
 10 11  1  0
 10 34  1  0
 11 12  2  0
 11 21  1  0
 12 13  1  0
 12 35  1  0
 13 14  1  0
 13 15  2  0
 15 16  1  0
 15 36  1  0
 16 17  1  0
 16 21  2  0
 17 18  1  6
 17 19  1  0
 17 20  1  0
 21 37  1  0
M  END

