
     RDKit          3D

 35 37  0  0  0  0  0  0  0  0999 V2000
    2.8581   -0.4848   -2.6018 C   0  0  0  0  0  0  0  0  0  0  0  0
    3.3482   -0.1075   -1.2235 C   0  0  0  0  0  0  0  0  0  0  0  0
    3.9049    1.1593   -0.9860 C   0  0  0  0  0  0  0  0  0  0  0  0
    4.4025    1.5157    0.2692 C   0  0  0  0  0  0  0  0  0  0  0  0
    4.3554    0.6027    1.3259 C   0  0  0  0  0  0  0  0  0  0  0  0
    3.7970   -0.6579    1.1175 C   0  0  0  0  0  0  0  0  0  0  0  0
    3.2802   -1.0222   -0.1394 C   0  0  0  0  0  0  0  0  0  0  0  0
    2.6724   -2.3716   -0.3207 C   0  0  0  0  0  0  0  0  0  0  0  0
    1.3274   -2.5908   -0.4779 C   0  0  0  0  0  0  0  0  0  0  0  0
    0.4404   -1.5862   -0.4441 O   0  0  0  0  0  0  0  0  0  0  0  0
    0.7577   -3.9152   -0.6327 C   0  0  0  0  0  0  0  0  0  0  0  0
   -0.5615   -4.1380   -0.9446 N   0  0  0  0  0  0  0  0  0  0  0  0
   -0.8361   -5.3958   -0.9660 C   0  0  0  0  0  0  0  0  0  0  0  0
    0.5175   -6.4750   -0.6103 S   0  0  0  0  0  0  0  0  0  0  0  0
    1.5190   -5.0614   -0.4157 C   0  0  0  0  0  0  0  0  0  0  0  0
    2.8551   -5.0652   -0.1145 N   0  0  0  0  0  0  0  0  0  0  0  0
    3.5835   -6.2172    0.3937 C   0  0  0  0  0  0  0  0  0  0  0  0
    3.6163   -6.2560    1.9159 C   0  0  1  0  0  0  0  0  0  0  0  0
    2.3490   -6.3339    2.4023 F   0  0  0  0  0  0  0  0  0  0  0  0
    4.2867   -7.3717    2.3021 F   0  0  0  0  0  0  0  0  0  0  0  0
    3.8113   -3.6846   -0.5898 S   0  0  1  0  0  0  0  0  0  0  0  0
    4.1307   -3.8249   -2.0109 O   0  0  0  0  0  0  0  0  0  0  0  0
    4.9156   -3.6485    0.3734 O   0  0  0  0  0  0  0  0  0  0  0  0
    3.1371    0.2793   -3.3410 H   0  0  0  0  0  0  0  0  0  0  0  0
    1.7608   -0.5936   -2.6313 H   0  0  0  0  0  0  0  0  0  0  0  0
    3.2818   -1.4505   -2.9168 H   0  0  0  0  0  0  0  0  0  0  0  0
    3.9615    1.8743   -1.8113 H   0  0  0  0  0  0  0  0  0  0  0  0
    4.8359    2.5079    0.4192 H   0  0  0  0  0  0  0  0  0  0  0  0
    4.7522    0.8701    2.3080 H   0  0  0  0  0  0  0  0  0  0  0  0
    3.7598   -1.3847    1.9313 H   0  0  0  0  0  0  0  0  0  0  0  0
    0.9144   -0.7526   -0.2863 H   0  0  0  0  0  0  0  0  0  0  0  0
   -1.8205   -5.8225   -1.1702 H   0  0  0  0  0  0  0  0  0  0  0  0
    4.6174   -6.1925    0.0224 H   0  0  0  0  0  0  0  0  0  0  0  0
    3.1184   -7.1466    0.0278 H   0  0  0  0  0  0  0  0  0  0  0  0
    4.1076   -5.3677    2.3455 H   0  0  0  0  0  0  0  0  0  0  0  0
  1  2  1  0
  1 24  1  0
  1 25  1  0
  1 26  1  0
  2  3  2  0
  2  7  1  0
  3  4  1  0
  3 27  1  0
  4  5  2  0
  4 28  1  0
  5  6  1  0
  5 29  1  0
  6  7  2  0
  6 30  1  0
  7  8  1  0
  8  9  2  0
 21  8  1  6
  9 10  1  0
  9 11  1  0
 10 31  1  0
 11 12  1  0
 11 15  2  0
 12 13  2  0
 13 14  1  0
 13 32  1  0
 14 15  1  0
 15 16  1  0
 16 17  1  0
 16 21  1  0
 17 18  1  0
 17 33  1  0
 17 34  1  0
 18 19  1  0
 18 20  1  0
 18 35  1  1
 21 22  2  0
 21 23  2  0
M  END

