
     RDKit          3D

 53 54  0  0  0  0  0  0  0  0999 V2000
    1.1117   -1.6963   -5.8696 C   0  0  0  0  0  0  0  0  0  0  0  0
    0.8005   -0.7893   -4.8366 O   0  0  0  0  0  0  0  0  0  0  0  0
    1.6515    0.2427   -4.5837 C   0  0  0  0  0  0  0  0  0  0  0  0
    2.8540    0.4712   -5.2645 C   0  0  0  0  0  0  0  0  0  0  0  0
    3.6582    1.5766   -4.9751 C   0  0  0  0  0  0  0  0  0  0  0  0
    3.2854    2.4878   -3.9774 C   0  0  0  0  0  0  0  0  0  0  0  0
    4.0611    3.6570   -3.6954 N   0  0  0  0  0  0  0  0  0  0  0  0
    3.3580    4.9011   -3.3716 C   0  0  0  0  0  0  0  0  0  0  0  0
    3.1801    5.1856   -1.8682 C   0  0  0  0  0  0  0  0  0  0  0  0
    2.9619    6.6755   -1.6064 C   0  0  0  0  0  0  0  0  0  0  0  0
    3.5744    7.5312   -2.2295 O   0  0  0  0  0  0  0  0  0  0  0  0
    2.0806    6.9809   -0.6123 N   0  0  0  0  0  0  0  0  0  0  0  0
    1.7878    8.3533   -0.2334 C   0  0  0  0  0  0  0  0  0  0  0  0
    0.6543    8.9925   -1.0625 C   0  0  0  0  0  0  0  0  0  0  0  0
    0.3909   10.4283   -0.6682 C   0  0  0  0  0  0  0  0  0  0  0  0
    1.1886   11.4660   -1.1793 C   0  0  0  0  0  0  0  0  0  0  0  0
    0.9785   12.7911   -0.7894 C   0  0  0  0  0  0  0  0  0  0  0  0
   -0.0354   13.1035    0.1218 C   0  0  0  0  0  0  0  0  0  0  0  0
   -0.8366   12.0813    0.6383 C   0  0  0  0  0  0  0  0  0  0  0  0
   -0.6225   10.7565    0.2462 C   0  0  0  0  0  0  0  0  0  0  0  0
    5.4549    3.6080   -3.7147 C   0  0  0  0  0  0  0  0  0  0  0  0
    6.2022    4.9259   -3.5489 C   0  0  0  0  0  0  0  0  0  0  0  0
    6.0683    2.5716   -3.8927 O   0  0  0  0  0  0  0  0  0  0  0  0
    2.0897    2.2446   -3.2803 C   0  0  0  0  0  0  0  0  0  0  0  0
    1.2728    1.1507   -3.5683 C   0  0  0  0  0  0  0  0  0  0  0  0
    0.0967    1.0332   -2.8811 O   0  0  0  0  0  0  0  0  0  0  0  0
   -0.0856   -0.1247   -2.0794 C   0  0  0  0  0  0  0  0  0  0  0  0
    0.2908   -2.4254   -5.9040 H   0  0  0  0  0  0  0  0  0  0  0  0
    2.0587   -2.2328   -5.6777 H   0  0  0  0  0  0  0  0  0  0  0  0
    1.1831   -1.1920   -6.8502 H   0  0  0  0  0  0  0  0  0  0  0  0
    3.1747   -0.2106   -6.0524 H   0  0  0  0  0  0  0  0  0  0  0  0
    4.5852    1.7180   -5.5254 H   0  0  0  0  0  0  0  0  0  0  0  0
    2.3761    4.8726   -3.8658 H   0  0  0  0  0  0  0  0  0  0  0  0
    3.8967    5.7530   -3.8043 H   0  0  0  0  0  0  0  0  0  0  0  0
    4.1037    4.9038   -1.3342 H   0  0  0  0  0  0  0  0  0  0  0  0
    2.3728    4.5796   -1.4290 H   0  0  0  0  0  0  0  0  0  0  0  0
    1.5578    6.2308   -0.1771 H   0  0  0  0  0  0  0  0  0  0  0  0
    2.7093    8.9376   -0.3691 H   0  0  0  0  0  0  0  0  0  0  0  0
    1.5326    8.3764    0.8381 H   0  0  0  0  0  0  0  0  0  0  0  0
   -0.2633    8.3924   -0.9421 H   0  0  0  0  0  0  0  0  0  0  0  0
    0.9419    8.9381   -2.1245 H   0  0  0  0  0  0  0  0  0  0  0  0
    1.9804   11.2303   -1.8968 H   0  0  0  0  0  0  0  0  0  0  0  0
    1.6070   13.5845   -1.2024 H   0  0  0  0  0  0  0  0  0  0  0  0
   -0.2028   14.1402    0.4248 H   0  0  0  0  0  0  0  0  0  0  0  0
   -1.6351   12.3160    1.3472 H   0  0  0  0  0  0  0  0  0  0  0  0
   -1.2590    9.9637    0.6511 H   0  0  0  0  0  0  0  0  0  0  0  0
    5.8715    5.5375   -2.6981 H   0  0  0  0  0  0  0  0  0  0  0  0
    6.0818    5.5459   -4.4530 H   0  0  0  0  0  0  0  0  0  0  0  0
    7.2643    4.6784   -3.4353 H   0  0  0  0  0  0  0  0  0  0  0  0
    1.7458    2.9009   -2.4823 H   0  0  0  0  0  0  0  0  0  0  0  0
   -1.0392    0.0089   -1.5488 H   0  0  0  0  0  0  0  0  0  0  0  0
    0.7253   -0.2254   -1.3343 H   0  0  0  0  0  0  0  0  0  0  0  0
   -0.1330   -1.0419   -2.6859 H   0  0  0  0  0  0  0  0  0  0  0  0
  1  2  1  0
  1 28  1  0
  1 29  1  0
  1 30  1  0
  2  3  1  0
  3  4  2  0
  3 25  1  0
  4  5  1  0
  4 31  1  0
  5  6  2  0
  5 32  1  0
  6  7  1  0
  6 24  1  0
  7  8  1  0
  7 21  1  0
  8  9  1  0
  8 33  1  0
  8 34  1  0
  9 10  1  0
  9 35  1  0
  9 36  1  0
 10 11  2  0
 10 12  1  0
 12 13  1  0
 12 37  1  0
 13 14  1  0
 13 38  1  0
 13 39  1  0
 14 15  1  0
 14 40  1  0
 14 41  1  0
 15 16  2  0
 15 20  1  0
 16 17  1  0
 16 42  1  0
 17 18  2  0
 17 43  1  0
 18 19  1  0
 18 44  1  0
 19 20  2  0
 19 45  1  0
 20 46  1  0
 21 22  1  0
 21 23  2  0
 22 47  1  0
 22 48  1  0
 22 49  1  0
 24 25  2  0
 24 50  1  0
 25 26  1  0
 26 27  1  0
 27 51  1  0
 27 52  1  0
 27 53  1  0
M  END

