
     RDKit          3D

 57 60  0  0  0  0  0  0  0  0999 V2000
    5.0011   -3.9535   -5.6279 C   0  0  0  0  0  0  0  0  0  0  0  0
    5.4404   -2.8385   -4.7170 C   0  0  0  0  0  0  0  0  0  0  0  0
    5.9900   -1.6328   -5.2029 C   0  0  0  0  0  0  0  0  0  0  0  0
    6.3709   -0.6596   -4.3061 C   0  0  0  0  0  0  0  0  0  0  0  0
    6.1888   -0.9321   -2.9204 C   0  0  0  0  0  0  0  0  0  0  0  0
    6.5301   -0.0475   -1.9230 N   0  0  0  0  0  0  0  0  0  0  0  0
    6.2479   -0.3329   -0.5161 C   0  0  0  0  0  0  0  0  0  0  0  0
    7.5395   -0.3221    0.3076 C   0  0  0  0  0  0  0  0  0  0  0  0
    8.3108    0.9896    0.1183 C   0  0  0  0  0  0  0  0  0  0  0  0
    8.5322    1.2843   -1.3757 C   0  0  2  0  0  0  0  0  0  0  0  0
    9.2537    2.5295   -1.6351 N   0  0  0  0  0  0  0  0  0  0  0  0
    8.7929    3.7714   -1.2412 C   0  0  0  0  0  0  0  0  0  0  0  0
    7.6712    3.9502   -0.7763 O   0  0  0  0  0  0  0  0  0  0  0  0
    9.6716    4.8146   -1.4262 N   0  0  0  0  0  0  0  0  0  0  0  0
    9.2523    6.1882   -1.1354 C   0  0  0  0  0  0  0  0  0  0  0  0
   10.2650    7.0327   -1.9141 C   0  0  0  0  0  0  0  0  0  0  0  0
   11.5433    6.1764   -1.8932 C   0  0  2  0  0  0  0  0  0  0  0  0
   12.6038    6.5743   -2.9317 C   0  0  0  0  0  0  0  0  0  0  0  0
   13.8648    5.7355   -2.8888 C   0  0  0  0  0  0  0  0  0  0  0  0
   14.1073    4.7336   -3.8417 C   0  0  0  0  0  0  0  0  0  0  0  0
   15.2570    3.9397   -3.7903 C   0  0  0  0  0  0  0  0  0  0  0  0
   16.1768    4.1553   -2.7680 C   0  0  0  0  0  0  0  0  0  0  0  0
   17.2841    3.4009   -2.7102 F   0  0  0  0  0  0  0  0  0  0  0  0
   15.9745    5.1433   -1.8060 C   0  0  0  0  0  0  0  0  0  0  0  0
   14.8204    5.9256   -1.8754 C   0  0  0  0  0  0  0  0  0  0  0  0
   10.9907    4.7457   -2.0434 C   0  0  0  0  0  0  0  0  0  0  0  0
    7.1921    1.2281   -2.1449 C   0  0  0  0  0  0  0  0  0  0  0  0
    5.6496   -2.1049   -2.5326 N   0  0  0  0  0  0  0  0  0  0  0  0
    5.2881   -3.0247   -3.4062 N   0  0  0  0  0  0  0  0  0  0  0  0
    5.8391   -4.3378   -6.2341 H   0  0  0  0  0  0  0  0  0  0  0  0
    4.2171   -3.6206   -6.3291 H   0  0  0  0  0  0  0  0  0  0  0  0
    4.6016   -4.7768   -5.0206 H   0  0  0  0  0  0  0  0  0  0  0  0
    6.1060   -1.4703   -6.2782 H   0  0  0  0  0  0  0  0  0  0  0  0
    6.7842    0.2834   -4.6623 H   0  0  0  0  0  0  0  0  0  0  0  0
    5.7441   -1.3034   -0.4625 H   0  0  0  0  0  0  0  0  0  0  0  0
    5.5563    0.4418   -0.1309 H   0  0  0  0  0  0  0  0  0  0  0  0
    8.1639   -1.1792   -0.0015 H   0  0  0  0  0  0  0  0  0  0  0  0
    7.2968   -0.4713    1.3730 H   0  0  0  0  0  0  0  0  0  0  0  0
    9.2856    0.9510    0.6334 H   0  0  0  0  0  0  0  0  0  0  0  0
    7.7447    1.8292    0.5523 H   0  0  0  0  0  0  0  0  0  0  0  0
    9.1681    0.4840   -1.7920 H   0  0  0  0  0  0  0  0  0  0  0  0
   10.2264    2.4372   -1.8933 H   0  0  0  0  0  0  0  0  0  0  0  0
    9.3013    6.3938   -0.0500 H   0  0  0  0  0  0  0  0  0  0  0  0
    8.2085    6.3445   -1.4434 H   0  0  0  0  0  0  0  0  0  0  0  0
   10.4124    8.0327   -1.4791 H   0  0  0  0  0  0  0  0  0  0  0  0
    9.9269    7.1685   -2.9564 H   0  0  0  0  0  0  0  0  0  0  0  0
   11.9930    6.2566   -0.8870 H   0  0  0  0  0  0  0  0  0  0  0  0
   12.8625    7.6345   -2.7685 H   0  0  0  0  0  0  0  0  0  0  0  0
   12.1566    6.5161   -3.9387 H   0  0  0  0  0  0  0  0  0  0  0  0
   13.3876    4.5726   -4.6494 H   0  0  0  0  0  0  0  0  0  0  0  0
   15.4516    3.1629   -4.5324 H   0  0  0  0  0  0  0  0  0  0  0  0
   16.7216    5.2904   -1.0235 H   0  0  0  0  0  0  0  0  0  0  0  0
   14.6649    6.7071   -1.1259 H   0  0  0  0  0  0  0  0  0  0  0  0
   11.6445    4.0074   -1.5463 H   0  0  0  0  0  0  0  0  0  0  0  0
   10.9247    4.4595   -3.1136 H   0  0  0  0  0  0  0  0  0  0  0  0
    7.3911    1.3925   -3.2096 H   0  0  0  0  0  0  0  0  0  0  0  0
    6.5544    2.0574   -1.7950 H   0  0  0  0  0  0  0  0  0  0  0  0
  1  2  1  0
  1 30  1  0
  1 31  1  0
  1 32  1  0
  2  3  2  0
  2 29  1  0
  3  4  1  0
  3 33  1  0
  4  5  2  0
  4 34  1  0
  5  6  1  0
  5 28  1  0
  6  7  1  0
  6 27  1  0
  7  8  1  0
  7 35  1  0
  7 36  1  0
  8  9  1  0
  8 37  1  0
  8 38  1  0
  9 10  1  0
  9 39  1  0
  9 40  1  0
 10 11  1  0
 10 27  1  0
 10 41  1  6
 11 12  1  0
 11 42  1  0
 12 13  2  0
 12 14  1  0
 14 15  1  0
 14 26  1  0
 15 16  1  0
 15 43  1  0
 15 44  1  0
 16 17  1  0
 16 45  1  0
 16 46  1  0
 17 18  1  0
 17 26  1  0
 17 47  1  1
 18 19  1  0
 18 48  1  0
 18 49  1  0
 19 20  2  0
 19 25  1  0
 20 21  1  0
 20 50  1  0
 21 22  2  0
 21 51  1  0
 22 23  1  0
 22 24  1  0
 24 25  2  0
 24 52  1  0
 25 53  1  0
 26 54  1  0
 26 55  1  0
 27 56  1  0
 27 57  1  0
 28 29  2  0
M  END

