
     RDKit          3D

 49 53  0  0  0  0  0  0  0  0999 V2000
    1.8451   -0.1186   -1.2787 C   0  0  0  0  0  0  0  0  0  0  0  0
    2.9834   -0.0694   -0.2691 C   0  0  2  0  0  0  0  0  0  0  0  0
    3.9373    0.1577   -0.7782 H   0  0  0  0  0  0  0  0  0  0  0  0
    3.0605   -1.3642    0.3113 O   0  0  0  0  0  0  0  0  0  0  0  0
    4.1299   -1.5353    1.2337 C   0  0  2  0  0  0  0  0  0  0  0  0
    5.0918   -1.3291    0.7212 H   0  0  0  0  0  0  0  0  0  0  0  0
    4.0966   -2.9740    1.7184 C   0  0  0  0  0  0  0  0  0  0  0  0
    3.9782   -0.5142    2.3635 C   0  0  0  0  0  0  0  0  0  0  0  0
    3.8886    0.8399    1.8261 N   0  0  0  0  0  0  0  0  0  0  0  0
    4.7783    1.8532    2.1212 C   0  0  0  0  0  0  0  0  0  0  0  0
    4.3146    3.2098    2.0332 C   0  0  0  0  0  0  0  0  0  0  0  0
    5.1289    4.2973    2.3055 C   0  0  0  0  0  0  0  0  0  0  0  0
    6.4503    4.0584    2.7251 C   0  0  0  0  0  0  0  0  0  0  0  0
    7.6147    4.8149    3.1105 C   0  0  0  0  0  0  0  0  0  0  0  0
    7.8218    6.2825    3.2281 C   0  0  0  0  0  0  0  0  0  0  0  0
    9.0623    6.6268    3.6150 N   0  0  0  0  0  0  0  0  0  0  0  0
    6.6232    7.3871    2.9083 S   0  0  0  0  0  0  0  0  0  0  0  0
    8.6227    4.0172    3.3877 N   0  0  0  0  0  0  0  0  0  0  0  0
    8.2019    2.7148    3.2101 O   0  0  0  0  0  0  0  0  0  0  0  0
    6.9073    2.7369    2.8183 C   0  0  0  0  0  0  0  0  0  0  0  0
    6.1135    1.6356    2.5033 C   0  0  0  0  0  0  0  0  0  0  0  0
    6.6549    0.4029    2.5379 F   0  0  0  0  0  0  0  0  0  0  0  0
    2.8818    3.3752    1.6193 C   0  0  0  0  0  0  0  0  0  0  0  0
    2.5351    2.4352    0.4057 C   0  0  1  0  0  0  0  0  0  0  0  0
    1.0301    2.6459    0.1587 C   0  0  0  0  0  0  0  0  0  0  0  0
    0.1718    2.1169    0.8272 O   0  0  0  0  0  0  0  0  0  0  0  0
    0.6975    3.5693   -0.8194 N   0  0  0  0  0  0  0  0  0  0  0  0
    1.5377    4.1832   -1.7442 C   0  0  0  0  0  0  0  0  0  0  0  0
    1.1404    4.9673   -2.5703 O   0  0  0  0  0  0  0  0  0  0  0  0
    2.8664    3.7901   -1.6449 N   0  0  0  0  0  0  0  0  0  0  0  0
    3.4209    2.8643   -0.7690 C   0  0  0  0  0  0  0  0  0  0  0  0
    4.5640    2.4947   -0.9090 O   0  0  0  0  0  0  0  0  0  0  0  0
    2.7836    0.9754    0.8641 C   0  0  1  0  0  0  0  0  0  0  0  0
    1.8589    0.6803    1.3892 H   0  0  0  0  0  0  0  0  0  0  0  0
    2.0124   -0.9635   -1.9625 H   0  0  0  0  0  0  0  0  0  0  0  0
    1.7909    0.7973   -1.8873 H   0  0  0  0  0  0  0  0  0  0  0  0
    0.8777   -0.2693   -0.7768 H   0  0  0  0  0  0  0  0  0  0  0  0
    4.1642   -3.6613    0.8624 H   0  0  0  0  0  0  0  0  0  0  0  0
    3.1539   -3.1822    2.2490 H   0  0  0  0  0  0  0  0  0  0  0  0
    4.9380   -3.1777    2.3986 H   0  0  0  0  0  0  0  0  0  0  0  0
    4.8059   -0.5880    3.0743 H   0  0  0  0  0  0  0  0  0  0  0  0
    3.0389   -0.7379    2.9061 H   0  0  0  0  0  0  0  0  0  0  0  0
    4.7611    5.3198    2.2204 H   0  0  0  0  0  0  0  0  0  0  0  0
    9.7575    5.9087    3.7966 H   0  0  0  0  0  0  0  0  0  0  0  0
    9.2873    7.6087    3.7189 H   0  0  0  0  0  0  0  0  0  0  0  0
    2.6650    4.4243    1.3703 H   0  0  0  0  0  0  0  0  0  0  0  0
    2.1989    3.0789    2.4341 H   0  0  0  0  0  0  0  0  0  0  0  0
   -0.2918    3.7878   -0.9182 H   0  0  0  0  0  0  0  0  0  0  0  0
    3.4866    4.1601   -2.3625 H   0  0  0  0  0  0  0  0  0  0  0  0
  1  2  1  0
  1 35  1  0
  1 36  1  0
  1 37  1  0
  2  3  1  6
  2  4  1  0
  2 33  1  0
  4  5  1  0
  5  6  1  6
  5  7  1  0
  5  8  1  0
  7 38  1  0
  7 39  1  0
  7 40  1  0
  8  9  1  0
  8 41  1  0
  8 42  1  0
  9 10  1  0
  9 33  1  0
 10 11  2  0
 10 21  1  0
 11 12  1  0
 11 23  1  0
 12 13  2  0
 12 43  1  0
 13 14  1  0
 13 20  1  0
 14 15  1  0
 14 18  2  0
 15 16  1  0
 15 17  2  0
 16 44  1  0
 16 45  1  0
 18 19  1  0
 19 20  1  0
 20 21  2  0
 21 22  1  0
 23 24  1  0
 23 46  1  0
 23 47  1  0
 24 25  1  6
 24 31  1  0
 24 33  1  0
 25 26  2  0
 25 27  1  0
 27 28  1  0
 27 48  1  0
 28 29  2  0
 28 30  1  0
 30 31  1  0
 30 49  1  0
 31 32  2  0
 33 34  1  1
M  END

