
     RDKit          3D

 40 44  0  0  0  0  0  0  0  0999 V2000
    7.1522    2.2968    4.9431 C   0  0  0  0  0  0  0  0  0  0  0  0
    6.6803    1.4871    3.7606 C   0  0  0  0  0  0  0  0  0  0  0  0
    6.9309    1.9028    2.4445 C   0  0  0  0  0  0  0  0  0  0  0  0
    6.4758    1.1599    1.3509 C   0  0  0  0  0  0  0  0  0  0  0  0
    5.7536   -0.0231    1.5541 C   0  0  0  0  0  0  0  0  0  0  0  0
    5.0994   -0.9256    0.1528 S   0  0  0  0  0  0  0  0  0  0  0  0
    6.2478   -2.2810   -0.0681 C   0  0  0  0  0  0  0  0  0  0  0  0
    5.8568   -3.2757   -0.9782 C   0  0  0  0  0  0  0  0  0  0  0  0
    6.6894   -4.3710   -1.2548 C   0  0  0  0  0  0  0  0  0  0  0  0
    6.3155   -5.4059   -2.1852 C   0  0  0  0  0  0  0  0  0  0  0  0
    7.1381   -6.4649   -2.4357 C   0  0  0  0  0  0  0  0  0  0  0  0
    8.4148   -6.5968   -1.7820 C   0  0  0  0  0  0  0  0  0  0  0  0
    9.2802   -7.6788   -2.0235 C   0  0  0  0  0  0  0  0  0  0  0  0
   10.5104   -7.7700   -1.3685 C   0  0  0  0  0  0  0  0  0  0  0  0
   10.9051   -6.7866   -0.4596 C   0  0  0  0  0  0  0  0  0  0  0  0
   10.0739   -5.6850   -0.1848 C   0  0  0  0  0  0  0  0  0  0  0  0
   10.4422   -4.6492    0.7446 C   0  0  0  0  0  0  0  0  0  0  0  0
    9.6180   -3.5906    0.9945 C   0  0  0  0  0  0  0  0  0  0  0  0
    8.3421   -3.4629    0.3382 C   0  0  0  0  0  0  0  0  0  0  0  0
    7.4833   -2.3763    0.5826 C   0  0  0  0  0  0  0  0  0  0  0  0
    7.9516   -4.4764   -0.5903 C   0  0  0  0  0  0  0  0  0  0  0  0
    8.8122   -5.5846   -0.8519 C   0  0  0  0  0  0  0  0  0  0  0  0
    5.4884   -0.4460    2.8664 C   0  0  0  0  0  0  0  0  0  0  0  0
    5.9541    0.2977    3.9501 C   0  0  0  0  0  0  0  0  0  0  0  0
    7.8837    3.0622    4.6451 H   0  0  0  0  0  0  0  0  0  0  0  0
    7.6194    1.6567    5.7086 H   0  0  0  0  0  0  0  0  0  0  0  0
    6.3080    2.8156    5.4296 H   0  0  0  0  0  0  0  0  0  0  0  0
    7.4943    2.8236    2.2685 H   0  0  0  0  0  0  0  0  0  0  0  0
    6.6816    1.4952    0.3320 H   0  0  0  0  0  0  0  0  0  0  0  0
    4.8876   -3.2036   -1.4797 H   0  0  0  0  0  0  0  0  0  0  0  0
    5.3501   -5.3249   -2.6921 H   0  0  0  0  0  0  0  0  0  0  0  0
    6.8368   -7.2400   -3.1458 H   0  0  0  0  0  0  0  0  0  0  0  0
    8.9787   -8.4533   -2.7340 H   0  0  0  0  0  0  0  0  0  0  0  0
   11.1695   -8.6184   -1.5692 H   0  0  0  0  0  0  0  0  0  0  0  0
   11.8698   -6.8654    0.0491 H   0  0  0  0  0  0  0  0  0  0  0  0
   11.4071   -4.7277    1.2531 H   0  0  0  0  0  0  0  0  0  0  0  0
    9.9167   -2.8144    1.7043 H   0  0  0  0  0  0  0  0  0  0  0  0
    7.7942   -1.6045    1.2886 H   0  0  0  0  0  0  0  0  0  0  0  0
    4.9161   -1.3617    3.0309 H   0  0  0  0  0  0  0  0  0  0  0  0
    5.7432   -0.0481    4.9664 H   0  0  0  0  0  0  0  0  0  0  0  0
  1  2  1  0
  1 25  1  0
  1 26  1  0
  1 27  1  0
  2  3  2  0
  2 24  1  0
  3  4  1  0
  3 28  1  0
  4  5  2  0
  4 29  1  0
  5  6  1  0
  5 23  1  0
  6  7  1  0
  7  8  2  0
  7 20  1  0
  8  9  1  0
  8 30  1  0
  9 10  2  0
  9 21  1  0
 10 11  1  0
 10 31  1  0
 11 12  2  0
 11 32  1  0
 12 13  1  0
 12 22  1  0
 13 14  2  0
 13 33  1  0
 14 15  1  0
 14 34  1  0
 15 16  2  0
 15 35  1  0
 16 17  1  0
 16 22  1  0
 17 18  2  0
 17 36  1  0
 18 19  1  0
 18 37  1  0
 19 20  2  0
 19 21  1  0
 20 38  1  0
 21 22  2  0
 23 24  2  0
 23 39  1  0
 24 40  1  0
M  END

