
     RDKit          3D

 50 52  0  0  0  0  0  0  0  0999 V2000
    3.3789    1.3340    0.2601 C   0  0  0  0  0  0  0  0  0  0  0  0
    2.7406    0.0818    0.1589 O   0  0  0  0  0  0  0  0  0  0  0  0
    3.4812   -1.0509    0.3082 C   0  0  0  0  0  0  0  0  0  0  0  0
    4.8607   -1.0807    0.5403 C   0  0  0  0  0  0  0  0  0  0  0  0
    5.5509   -2.2831    0.7213 C   0  0  0  0  0  0  0  0  0  0  0  0
    4.8651   -3.5075    0.6668 C   0  0  0  0  0  0  0  0  0  0  0  0
    5.5227   -4.7481    0.8463 N   0  0  0  0  0  0  0  0  0  0  0  0
    6.9039   -4.9436    0.9779 C   0  0  0  0  0  0  0  0  0  0  0  0
    7.7678   -4.0888    1.0004 O   0  0  0  0  0  0  0  0  0  0  0  0
    7.1008   -6.4145    1.0670 C   0  0  0  0  0  0  0  0  0  0  0  0
    8.2898   -7.1338    1.1852 C   0  0  0  0  0  0  0  0  0  0  0  0
    8.2049   -8.5279    1.2465 C   0  0  0  0  0  0  0  0  0  0  0  0
    6.9577   -9.1719    1.1942 C   0  0  0  0  0  0  0  0  0  0  0  0
    5.7679   -8.4409    1.0779 C   0  0  0  0  0  0  0  0  0  0  0  0
    5.8644   -7.0525    1.0110 C   0  0  0  0  0  0  0  0  0  0  0  0
    4.7788   -6.0029    0.8938 C   0  0  1  0  0  0  0  0  0  0  0  0
    3.7950   -6.1544    2.0712 C   0  0  0  0  0  0  0  0  0  0  0  0
    2.8308   -6.8784    1.9842 O   0  0  0  0  0  0  0  0  0  0  0  0
    4.1871   -5.4655    3.1333 O   0  0  0  0  0  0  0  0  0  0  0  0
    3.4421   -5.4635    4.4107 C   0  0  1  0  0  0  0  0  0  0  0  0
    3.4309   -6.8784    4.9947 C   0  0  0  0  0  0  0  0  0  0  0  0
    4.2679   -4.5149    5.2790 C   0  0  0  0  0  0  0  0  0  0  0  0
    2.0313   -4.9147    4.1837 C   0  0  0  0  0  0  0  0  0  0  0  0
    3.4788   -3.4807    0.4141 C   0  0  0  0  0  0  0  0  0  0  0  0
    2.7874   -2.2819    0.2400 C   0  0  0  0  0  0  0  0  0  0  0  0
    1.4338   -2.3453    0.0710 O   0  0  0  0  0  0  0  0  0  0  0  0
    0.8984   -1.8619   -1.1524 C   0  0  0  0  0  0  0  0  0  0  0  0
    2.5988    2.0953    0.1243 H   0  0  0  0  0  0  0  0  0  0  0  0
    4.1502    1.4695   -0.5199 H   0  0  0  0  0  0  0  0  0  0  0  0
    3.8487    1.4761    1.2501 H   0  0  0  0  0  0  0  0  0  0  0  0
    5.4264   -0.1503    0.5976 H   0  0  0  0  0  0  0  0  0  0  0  0
    6.6216   -2.2757    0.9042 H   0  0  0  0  0  0  0  0  0  0  0  0
    9.2468   -6.6087    1.2258 H   0  0  0  0  0  0  0  0  0  0  0  0
    9.1152   -9.1258    1.3371 H   0  0  0  0  0  0  0  0  0  0  0  0
    6.9143  -10.2629    1.2448 H   0  0  0  0  0  0  0  0  0  0  0  0
    4.7976   -8.9418    1.0448 H   0  0  0  0  0  0  0  0  0  0  0  0
    4.1815   -6.1553   -0.0201 H   0  0  0  0  0  0  0  0  0  0  0  0
    4.4579   -7.2634    5.0923 H   0  0  0  0  0  0  0  0  0  0  0  0
    2.8518   -7.5654    4.3642 H   0  0  0  0  0  0  0  0  0  0  0  0
    2.9779   -6.8573    5.9981 H   0  0  0  0  0  0  0  0  0  0  0  0
    5.2968   -4.8884    5.3914 H   0  0  0  0  0  0  0  0  0  0  0  0
    3.8160   -4.4271    6.2787 H   0  0  0  0  0  0  0  0  0  0  0  0
    4.3123   -3.5142    4.8244 H   0  0  0  0  0  0  0  0  0  0  0  0
    1.4335   -5.5908    3.5592 H   0  0  0  0  0  0  0  0  0  0  0  0
    2.0740   -3.9283    3.6970 H   0  0  0  0  0  0  0  0  0  0  0  0
    1.5261   -4.7961    5.1549 H   0  0  0  0  0  0  0  0  0  0  0  0
    2.8758   -4.3860    0.3521 H   0  0  0  0  0  0  0  0  0  0  0  0
   -0.1810   -2.0678   -1.1247 H   0  0  0  0  0  0  0  0  0  0  0  0
    1.3393   -2.3923   -2.0165 H   0  0  0  0  0  0  0  0  0  0  0  0
    1.0592   -0.7795   -1.2722 H   0  0  0  0  0  0  0  0  0  0  0  0
  1  2  1  0
  1 28  1  0
  1 29  1  0
  1 30  1  0
  2  3  1  0
  3  4  2  0
  3 25  1  0
  4  5  1  0
  4 31  1  0
  5  6  2  0
  5 32  1  0
  6  7  1  0
  6 24  1  0
  7  8  1  0
  7 16  1  0
  8  9  2  0
  8 10  1  0
 10 11  1  0
 10 15  2  0
 11 12  2  0
 11 33  1  0
 12 13  1  0
 12 34  1  0
 13 14  2  0
 13 35  1  0
 14 15  1  0
 14 36  1  0
 15 16  1  0
 16 17  1  0
 16 37  1  6
 17 18  2  0
 17 19  1  0
 20 19  1  6
 20 21  1  0
 20 22  1  0
 20 23  1  0
 21 38  1  0
 21 39  1  0
 21 40  1  0
 22 41  1  0
 22 42  1  0
 22 43  1  0
 23 44  1  0
 23 45  1  0
 23 46  1  0
 24 25  2  0
 24 47  1  0
 25 26  1  0
 26 27  1  0
 27 48  1  0
 27 49  1  0
 27 50  1  0
M  END

