
     RDKit          3D

101103  0  0  0  0  0  0  0  0999 V2000
   36.9247   -2.5934  -30.6159 C   0  0  0  0  0  0  0  0  0  0  0  0
   37.3935   -3.8335  -30.7666 C   0  0  0  0  0  0  0  0  0  0  0  0
   37.2816   -4.9474  -29.7722 C   0  0  0  0  0  0  0  0  0  0  0  0
   36.5886   -4.5045  -28.6050 O   0  0  0  0  0  0  0  0  0  0  0  0
   36.4172   -5.4108  -27.6194 C   0  0  0  0  0  0  0  0  0  0  0  0
   36.8181   -6.5463  -27.6913 O   0  0  0  0  0  0  0  0  0  0  0  0
   35.6702   -4.8074  -26.4484 C   0  0  0  0  0  0  0  0  0  0  0  0
   35.4460   -5.7840  -25.2965 C   0  0  0  0  0  0  0  0  0  0  0  0
   34.6901   -5.1626  -24.1191 C   0  0  0  0  0  0  0  0  0  0  0  0
   34.4611   -6.1339  -22.9574 C   0  0  0  0  0  0  0  0  0  0  0  0
   33.7046   -5.5205  -21.7755 C   0  0  0  0  0  0  0  0  0  0  0  0
   33.4775   -6.4919  -20.6133 C   0  0  0  0  0  0  0  0  0  0  0  0
   32.7190   -5.8802  -19.4317 C   0  0  0  0  0  0  0  0  0  0  0  0
   32.4939   -6.8512  -18.2689 C   0  0  0  0  0  0  0  0  0  0  0  0
   31.7324   -6.2409  -17.0885 C   0  0  0  0  0  0  0  0  0  0  0  0
   31.5094   -7.2116  -15.9252 C   0  0  0  0  0  0  0  0  0  0  0  0
   30.7448   -6.6025  -14.7456 C   0  0  0  0  0  0  0  0  0  0  0  0
   30.5283   -7.5817  -13.5863 C   0  0  0  0  0  0  0  0  0  0  0  0
   29.8216   -6.9930  -12.3570 C   0  0  0  0  0  0  0  0  0  0  0  0
   28.3610   -6.5883  -12.5906 C   0  0  0  0  0  0  0  0  0  0  0  0
   27.6977   -6.0812  -11.3156 C   0  0  0  0  0  0  0  0  0  0  0  0
   26.3515   -5.6251  -11.5459 O   0  0  0  0  0  0  0  0  0  0  0  0
   25.3706   -6.5392  -11.5046 C   0  0  0  0  0  0  0  0  0  0  0  0
   25.5672   -7.7210  -11.3412 O   0  0  0  0  0  0  0  0  0  0  0  0
   23.9826   -5.9347  -11.6946 C   0  0  2  0  0  0  0  0  0  0  0  0
   23.4408   -6.6034  -12.3825 H   0  0  0  0  0  0  0  0  0  0  0  0
   23.9696   -4.5103  -12.2593 C   0  0  1  0  0  0  0  0  0  0  0  0
   24.4670   -3.8601  -11.5170 H   0  0  0  0  0  0  0  0  0  0  0  0
   24.5807   -4.2535  -13.6396 C   0  0  0  0  0  0  0  0  0  0  0  0
   23.8306   -2.9900  -14.0910 C   0  0  0  0  0  0  0  0  0  0  0  0
   22.3750   -3.2247  -13.6252 C   0  0  1  0  0  0  0  0  0  0  0  0
   21.8954   -2.2863  -13.3001 H   0  0  0  0  0  0  0  0  0  0  0  0
   21.5215   -3.8525  -14.7427 C   0  0  0  0  0  0  0  0  0  0  0  0
   20.0528   -4.1600  -14.4401 C   0  0  0  0  0  0  0  0  0  0  0  0
   19.3954   -4.6837  -15.5816 O   0  0  0  0  0  0  0  0  0  0  0  0
   22.5778   -4.0916  -12.4530 N   0  0  0  0  0  0  0  0  0  0  0  0
   21.6389   -4.2673  -11.4758 C   0  0  0  0  0  0  0  0  0  0  0  0
   20.5352   -3.7392  -11.4804 O   0  0  0  0  0  0  0  0  0  0  0  0
   22.0134   -5.1434  -10.4648 N   0  0  0  0  0  0  0  0  0  0  0  0
   23.2207   -5.9368  -10.3343 C   0  0  1  0  0  0  0  0  0  0  0  0
   22.8513   -7.3518   -9.8420 C   0  0  0  0  0  0  0  0  0  0  0  0
   22.3826   -7.3383   -8.3810 C   0  0  0  0  0  0  0  0  0  0  0  0
   23.4074   -6.6208   -7.4959 C   0  0  0  0  0  0  0  0  0  0  0  0
   23.7350   -5.2347   -8.0582 C   0  0  1  0  0  0  0  0  0  0  0  0
   22.8211   -4.6081   -8.0185 H   0  0  0  0  0  0  0  0  0  0  0  0
   24.8501   -4.5199   -7.3123 C   0  0  0  0  0  0  0  0  0  0  0  0
   24.1509   -5.3412   -9.4218 O   0  0  0  0  0  0  0  0  0  0  0  0
   37.0543   -1.8436  -31.4005 H   0  0  0  0  0  0  0  0  0  0  0  0
   36.3992   -2.2924  -29.7068 H   0  0  0  0  0  0  0  0  0  0  0  0
   37.9182   -4.1138  -31.6882 H   0  0  0  0  0  0  0  0  0  0  0  0
   38.2815   -5.3229  -29.4881 H   0  0  0  0  0  0  0  0  0  0  0  0
   36.7522   -5.8133  -30.2098 H   0  0  0  0  0  0  0  0  0  0  0  0
   34.7138   -4.4119  -26.8341 H   0  0  0  0  0  0  0  0  0  0  0  0
   36.2347   -3.9172  -26.1186 H   0  0  0  0  0  0  0  0  0  0  0  0
   36.4218   -6.1698  -24.9557 H   0  0  0  0  0  0  0  0  0  0  0  0
   34.8986   -6.6652  -25.6721 H   0  0  0  0  0  0  0  0  0  0  0  0
   33.7145   -4.7774  -24.4703 H   0  0  0  0  0  0  0  0  0  0  0  0
   35.2442   -4.2785  -23.7516 H   0  0  0  0  0  0  0  0  0  0  0  0
   35.4370   -6.5181  -22.6071 H   0  0  0  0  0  0  0  0  0  0  0  0
   33.9083   -7.0178  -23.3261 H   0  0  0  0  0  0  0  0  0  0  0  0
   32.7282   -5.1374  -22.1266 H   0  0  0  0  0  0  0  0  0  0  0  0
   34.2572   -4.6355  -21.4083 H   0  0  0  0  0  0  0  0  0  0  0  0
   34.4540   -6.8738  -20.2615 H   0  0  0  0  0  0  0  0  0  0  0  0
   32.9266   -7.3776  -20.9810 H   0  0  0  0  0  0  0  0  0  0  0  0
   31.7418   -5.4998  -19.7835 H   0  0  0  0  0  0  0  0  0  0  0  0
   33.2691   -4.9934  -19.0649 H   0  0  0  0  0  0  0  0  0  0  0  0
   33.4712   -7.2298  -17.9157 H   0  0  0  0  0  0  0  0  0  0  0  0
   31.9459   -7.7390  -18.6361 H   0  0  0  0  0  0  0  0  0  0  0  0
   30.7543   -5.8640  -17.4417 H   0  0  0  0  0  0  0  0  0  0  0  0
   32.2793   -5.3520  -16.7221 H   0  0  0  0  0  0  0  0  0  0  0  0
   32.4874   -7.5875  -15.5709 H   0  0  0  0  0  0  0  0  0  0  0  0
   30.9639   -8.1011  -16.2918 H   0  0  0  0  0  0  0  0  0  0  0  0
   29.7721   -6.2246  -15.1083 H   0  0  0  0  0  0  0  0  0  0  0  0
   31.2925   -5.7157  -14.3745 H   0  0  0  0  0  0  0  0  0  0  0  0
   31.5101   -7.9766  -13.2696 H   0  0  0  0  0  0  0  0  0  0  0  0
   29.9568   -8.4564  -13.9483 H   0  0  0  0  0  0  0  0  0  0  0  0
   30.3929   -6.1184  -11.9930 H   0  0  0  0  0  0  0  0  0  0  0  0
   29.8568   -7.7369  -11.5411 H   0  0  0  0  0  0  0  0  0  0  0  0
   27.7921   -7.4554  -12.9653 H   0  0  0  0  0  0  0  0  0  0  0  0
   28.2951   -5.8000  -13.3594 H   0  0  0  0  0  0  0  0  0  0  0  0
   28.2259   -5.2021  -10.9175 H   0  0  0  0  0  0  0  0  0  0  0  0
   27.6790   -6.8675  -10.5463 H   0  0  0  0  0  0  0  0  0  0  0  0
   24.3658   -5.0973  -14.3173 H   0  0  0  0  0  0  0  0  0  0  0  0
   25.6689   -4.1221  -13.5945 H   0  0  0  0  0  0  0  0  0  0  0  0
   23.8990   -2.8085  -15.1733 H   0  0  0  0  0  0  0  0  0  0  0  0
   24.2525   -2.1095  -13.5794 H   0  0  0  0  0  0  0  0  0  0  0  0
   21.5450   -3.1424  -15.5920 H   0  0  0  0  0  0  0  0  0  0  0  0
   22.0007   -4.7789  -15.1044 H   0  0  0  0  0  0  0  0  0  0  0  0
   19.5463   -3.2594  -14.0439 H   0  0  0  0  0  0  0  0  0  0  0  0
   19.9642   -4.9245  -13.6570 H   0  0  0  0  0  0  0  0  0  0  0  0
   19.3799   -3.9954  -16.2592 H   0  0  0  0  0  0  0  0  0  0  0  0
   21.2539   -5.3159   -9.8168 H   0  0  0  0  0  0  0  0  0  0  0  0
   23.7440   -7.9852   -9.9360 H   0  0  0  0  0  0  0  0  0  0  0  0
   22.0793   -7.7722  -10.5056 H   0  0  0  0  0  0  0  0  0  0  0  0
   21.3993   -6.8401   -8.2880 H   0  0  0  0  0  0  0  0  0  0  0  0
   22.2241   -8.3720   -8.0341 H   0  0  0  0  0  0  0  0  0  0  0  0
   24.3402   -7.2109   -7.4550 H   0  0  0  0  0  0  0  0  0  0  0  0
   23.0360   -6.5246   -6.4619 H   0  0  0  0  0  0  0  0  0  0  0  0
   25.0486   -3.5381   -7.7676 H   0  0  0  0  0  0  0  0  0  0  0  0
   25.7791   -5.1108   -7.3495 H   0  0  0  0  0  0  0  0  0  0  0  0
   24.5747   -4.3672   -6.2571 H   0  0  0  0  0  0  0  0  0  0  0  0
  1  2  2  0
  1 48  1  0
  1 49  1  0
  2  3  1  0
  2 50  1  0
  3  4  1  0
  3 51  1  0
  3 52  1  0
  4  5  1  0
  5  6  2  0
  5  7  1  0
  7  8  1  0
  7 53  1  0
  7 54  1  0
  8  9  1  0
  8 55  1  0
  8 56  1  0
  9 10  1  0
  9 57  1  0
  9 58  1  0
 10 11  1  0
 10 59  1  0
 10 60  1  0
 11 12  1  0
 11 61  1  0
 11 62  1  0
 12 13  1  0
 12 63  1  0
 12 64  1  0
 13 14  1  0
 13 65  1  0
 13 66  1  0
 14 15  1  0
 14 67  1  0
 14 68  1  0
 15 16  1  0
 15 69  1  0
 15 70  1  0
 16 17  1  0
 16 71  1  0
 16 72  1  0
 17 18  1  0
 17 73  1  0
 17 74  1  0
 18 19  1  0
 18 75  1  0
 18 76  1  0
 19 20  1  0
 19 77  1  0
 19 78  1  0
 20 21  1  0
 20 79  1  0
 20 80  1  0
 21 22  1  0
 21 81  1  0
 21 82  1  0
 22 23  1  0
 23 24  2  0
 23 25  1  0
 25 26  1  6
 25 27  1  0
 25 40  1  0
 27 28  1  1
 27 29  1  0
 27 36  1  0
 29 30  1  0
 29 83  1  0
 29 84  1  0
 30 31  1  0
 30 85  1  0
 30 86  1  0
 31 32  1  1
 31 33  1  0
 31 36  1  0
 33 34  1  0
 33 87  1  0
 33 88  1  0
 34 35  1  0
 34 89  1  0
 34 90  1  0
 35 91  1  0
 36 37  1  0
 37 38  2  0
 37 39  1  0
 39 40  1  0
 39 92  1  0
 40 41  1  0
 40 47  1  1
 41 42  1  0
 41 93  1  0
 41 94  1  0
 42 43  1  0
 42 95  1  0
 42 96  1  0
 43 44  1  0
 43 97  1  0
 43 98  1  0
 44 45  1  6
 44 46  1  0
 44 47  1  0
 46 99  1  0
 46100  1  0
 46101  1  0
M  END

