
     RDKit          3D

 47 48  0  0  0  0  0  0  0  0999 V2000
    7.8318    3.6718   -6.6933 C   0  0  0  0  0  0  0  0  0  0  0  0
    8.6011    4.0053   -5.3979 C   0  0  1  0  0  0  0  0  0  0  0  0
    9.9533    4.6564   -5.7649 C   0  0  0  0  0  0  0  0  0  0  0  0
    7.7793    5.0130   -4.5661 C   0  0  0  0  0  0  0  0  0  0  0  0
    8.9528    2.3955   -4.3995 Si  0  0  1  0  0  4  0  0  0  0  0  0
   10.0727    1.2189   -5.3474 C   0  0  0  0  0  0  0  0  0  0  0  0
    9.7509    2.7957   -2.7333 C   0  0  0  0  0  0  0  0  0  0  0  0
    7.5490    1.4677   -4.1863 O   0  0  0  0  0  0  0  0  0  0  0  0
    6.2654    1.6707   -3.6259 C   0  0  2  0  0  0  0  0  0  0  0  0
    5.9112    2.6912   -3.8611 H   0  0  0  0  0  0  0  0  0  0  0  0
    6.3677    1.5785   -2.0632 C   0  0  2  0  0  0  0  0  0  0  0  0
    7.2448    2.2075   -1.8386 H   0  0  0  0  0  0  0  0  0  0  0  0
    6.6958    0.2295   -1.4953 C   0  0  0  0  0  0  0  0  0  0  0  0
    6.5960   -1.0076   -2.0299 C   0  0  0  0  0  0  0  0  0  0  0  0
    6.1109   -1.4486   -3.3319 C   0  0  0  0  0  0  0  0  0  0  0  0
    5.5796   -0.7455   -4.3540 C   0  0  0  0  0  0  0  0  0  0  0  0
    5.3181    0.7307   -4.4930 C   0  0  2  0  0  0  0  0  0  0  0  0
    5.5097    1.0974   -5.8435 O   0  0  0  0  0  0  0  0  0  0  0  0
    3.7731    1.0158   -4.2080 C   0  0  0  0  0  0  0  0  0  0  0  0
    3.0044    1.3241   -5.0729 O   0  0  0  0  0  0  0  0  0  0  0  0
    3.6576    1.0148   -2.7275 C   0  0  0  0  0  0  0  0  0  0  0  0
    3.9782    2.2020   -2.1797 C   0  0  0  0  0  0  0  0  0  0  0  0
    5.1610    2.2503   -1.2561 C   0  0  0  0  0  0  0  0  0  0  0  0
    7.6566    4.5903   -7.2824 H   0  0  0  0  0  0  0  0  0  0  0  0
    6.8492    3.2180   -6.4914 H   0  0  0  0  0  0  0  0  0  0  0  0
    8.3961    2.9790   -7.3399 H   0  0  0  0  0  0  0  0  0  0  0  0
    9.7849    5.5884   -6.3344 H   0  0  0  0  0  0  0  0  0  0  0  0
   10.5744    3.9992   -6.3949 H   0  0  0  0  0  0  0  0  0  0  0  0
   10.5450    4.9249   -4.8738 H   0  0  0  0  0  0  0  0  0  0  0  0
    7.6159    5.9415   -5.1429 H   0  0  0  0  0  0  0  0  0  0  0  0
    8.2888    5.2985   -3.6312 H   0  0  0  0  0  0  0  0  0  0  0  0
    6.7833    4.6226   -4.3026 H   0  0  0  0  0  0  0  0  0  0  0  0
   11.0855    1.6335   -5.4753 H   0  0  0  0  0  0  0  0  0  0  0  0
    9.6738    0.9840   -6.3470 H   0  0  0  0  0  0  0  0  0  0  0  0
   10.1618    0.2701   -4.7940 H   0  0  0  0  0  0  0  0  0  0  0  0
   10.7532    3.2301   -2.8832 H   0  0  0  0  0  0  0  0  0  0  0  0
    9.8741    1.8741   -2.1414 H   0  0  0  0  0  0  0  0  0  0  0  0
    9.1706    3.5122   -2.1305 H   0  0  0  0  0  0  0  0  0  0  0  0
    7.0687    0.2764   -0.4643 H   0  0  0  0  0  0  0  0  0  0  0  0
    6.9203   -1.8283   -1.3805 H   0  0  0  0  0  0  0  0  0  0  0  0
    6.1815   -2.5306   -3.4876 H   0  0  0  0  0  0  0  0  0  0  0  0
    5.2680   -1.2947   -5.2486 H   0  0  0  0  0  0  0  0  0  0  0  0
    6.4630    1.0068   -5.9929 H   0  0  0  0  0  0  0  0  0  0  0  0
    4.0396    0.1116   -2.2390 H   0  0  0  0  0  0  0  0  0  0  0  0
    3.7254    3.1202   -2.7238 H   0  0  0  0  0  0  0  0  0  0  0  0
    5.0036    1.6922   -0.3200 H   0  0  0  0  0  0  0  0  0  0  0  0
    5.4135    3.2854   -0.9811 H   0  0  0  0  0  0  0  0  0  0  0  0
  2  1  1  6
  1 24  1  0
  1 25  1  0
  1 26  1  0
  2  3  1  0
  2  4  1  0
  2  5  1  0
  3 27  1  0
  3 28  1  0
  3 29  1  0
  4 30  1  0
  4 31  1  0
  4 32  1  0
  5  6  1  0
  5  7  1  0
  5  8  1  1
  6 33  1  0
  6 34  1  0
  6 35  1  0
  7 36  1  0
  7 37  1  0
  7 38  1  0
  8  9  1  0
  9 10  1  1
  9 11  1  0
  9 17  1  0
 11 12  1  1
 11 13  1  0
 11 23  1  0
 13 14  2  0
 13 39  1  0
 14 15  1  0
 14 40  1  0
 15 16  2  0
 15 41  1  0
 16 17  1  0
 16 42  1  0
 17 18  1  6
 17 19  1  0
 18 43  1  0
 19 20  2  0
 19 21  1  0
 21 22  2  0
 21 44  1  0
 22 23  1  0
 22 45  1  0
 23 46  1  0
 23 47  1  0
M  END

