
     RDKit          3D

 42 43  0  0  0  0  0  0  0  0999 V2000
    5.5473   -5.0702   -1.6387 C   0  0  0  0  0  0  0  0  0  0  0  0
    4.2389   -4.4466   -1.5086 N   0  0  0  0  0  0  0  0  0  0  0  0
    3.2527   -5.0426   -2.4030 C   0  0  0  0  0  0  0  0  0  0  0  0
    4.2279   -3.0439   -1.3769 C   0  0  0  0  0  0  0  0  0  0  0  0
    5.3319   -2.3859   -1.7437 N   0  0  0  0  0  0  0  0  0  0  0  0
    5.3628   -1.0553   -1.6527 C   0  0  0  0  0  0  0  0  0  0  0  0
    4.2792   -0.2975   -1.2139 C   0  0  0  0  0  0  0  0  0  0  0  0
    3.1381   -0.9789   -0.7772 C   0  0  0  0  0  0  0  0  0  0  0  0
    3.1003   -2.3751   -0.8200 C   0  0  0  0  0  0  0  0  0  0  0  0
    1.9448   -3.1525   -0.2179 C   0  0  0  0  0  0  0  0  0  0  0  0
    1.3490   -2.4977    0.9361 N   0  0  0  0  0  0  0  0  0  0  0  0
    0.0616   -2.0649    0.9596 C   0  0  0  0  0  0  0  0  0  0  0  0
   -0.7356   -2.2449    0.0493 O   0  0  0  0  0  0  0  0  0  0  0  0
   -0.3571   -1.4032    2.2573 C   0  0  0  0  0  0  0  0  0  0  0  0
   -0.3014   -2.1466    3.4451 C   0  0  0  0  0  0  0  0  0  0  0  0
   -0.7495   -1.6058    4.6547 C   0  0  0  0  0  0  0  0  0  0  0  0
   -1.2478   -0.3029    4.6980 C   0  0  0  0  0  0  0  0  0  0  0  0
   -1.2969    0.4596    3.5273 C   0  0  0  0  0  0  0  0  0  0  0  0
   -0.8637   -0.0917    2.3201 C   0  0  0  0  0  0  0  0  0  0  0  0
   -0.8490    1.0228    0.8826 S   0  0  1  0  0  0  0  0  0  0  0  0
   -2.2210    0.4999   -0.1568 C   0  0  0  0  0  0  0  0  0  0  0  0
   -1.1543    2.3711    1.3828 O   0  0  0  0  0  0  0  0  0  0  0  0
    0.4061    0.7755    0.1528 O   0  0  0  0  0  0  0  0  0  0  0  0
    5.4391   -6.1544   -1.4732 H   0  0  0  0  0  0  0  0  0  0  0  0
    6.2387   -4.6621   -0.8904 H   0  0  0  0  0  0  0  0  0  0  0  0
    6.0044   -4.9099   -2.6343 H   0  0  0  0  0  0  0  0  0  0  0  0
    3.1155   -6.1086   -2.1581 H   0  0  0  0  0  0  0  0  0  0  0  0
    3.5662   -4.9755   -3.4659 H   0  0  0  0  0  0  0  0  0  0  0  0
    2.2776   -4.5487   -2.3163 H   0  0  0  0  0  0  0  0  0  0  0  0
    6.2992   -0.5691   -1.9528 H   0  0  0  0  0  0  0  0  0  0  0  0
    4.3295    0.7927   -1.1847 H   0  0  0  0  0  0  0  0  0  0  0  0
    2.2872   -0.4196   -0.3782 H   0  0  0  0  0  0  0  0  0  0  0  0
    2.3105   -4.1533    0.0668 H   0  0  0  0  0  0  0  0  0  0  0  0
    1.1206   -3.2953   -0.9343 H   0  0  0  0  0  0  0  0  0  0  0  0
    1.9620   -2.2132    1.6922 H   0  0  0  0  0  0  0  0  0  0  0  0
    0.0846   -3.1685    3.4151 H   0  0  0  0  0  0  0  0  0  0  0  0
   -0.7048   -2.2078    5.5657 H   0  0  0  0  0  0  0  0  0  0  0  0
   -1.5904    0.1272    5.6420 H   0  0  0  0  0  0  0  0  0  0  0  0
   -1.6503    1.4923    3.5345 H   0  0  0  0  0  0  0  0  0  0  0  0
   -3.1554    0.6763    0.3913 H   0  0  0  0  0  0  0  0  0  0  0  0
   -2.0736   -0.5573   -0.4120 H   0  0  0  0  0  0  0  0  0  0  0  0
   -2.1618    1.1472   -1.0434 H   0  0  0  0  0  0  0  0  0  0  0  0
  1  2  1  0
  1 24  1  0
  1 25  1  0
  1 26  1  0
  2  3  1  0
  2  4  1  0
  3 27  1  0
  3 28  1  0
  3 29  1  0
  4  5  2  0
  4  9  1  0
  5  6  1  0
  6  7  2  0
  6 30  1  0
  7  8  1  0
  7 31  1  0
  8  9  2  0
  8 32  1  0
  9 10  1  0
 10 11  1  0
 10 33  1  0
 10 34  1  0
 11 12  1  0
 11 35  1  0
 12 13  2  0
 12 14  1  0
 14 15  2  0
 14 19  1  0
 15 16  1  0
 15 36  1  0
 16 17  2  0
 16 37  1  0
 17 18  1  0
 17 38  1  0
 18 19  2  0
 18 39  1  0
 19 20  1  0
 20 21  1  6
 20 22  2  0
 20 23  2  0
 21 40  1  0
 21 41  1  0
 21 42  1  0
M  END

