
     RDKit          3D

 54 57  0  0  0  0  0  0  0  0999 V2000
    1.8302    0.8255    1.8046 O   0  0  0  0  0  0  0  0  0  0  0  0
    2.4084    0.3597    0.8343 C   0  0  0  0  0  0  0  0  0  0  0  0
    2.0125   -1.0255    0.3488 C   0  0  0  0  0  0  0  0  0  0  0  0
    2.5650   -2.1470    0.9825 C   0  0  0  0  0  0  0  0  0  0  0  0
    2.1262   -3.4228    0.6417 C   0  0  0  0  0  0  0  0  0  0  0  0
    2.6699   -4.4836    1.2534 F   0  0  0  0  0  0  0  0  0  0  0  0
    1.1360   -3.6251   -0.3173 C   0  0  0  0  0  0  0  0  0  0  0  0
    0.5765   -2.5135   -0.9483 C   0  0  0  0  0  0  0  0  0  0  0  0
    1.0124   -1.2278   -0.6143 C   0  0  0  0  0  0  0  0  0  0  0  0
    0.2860    0.1449   -1.4328 Cl  0  0  0  0  0  0  0  0  0  0  0  0
    3.4261    0.9894    0.1797 N   0  0  0  0  0  0  0  0  0  0  0  0
    4.1212    0.4949   -1.0051 C   0  0  0  0  0  0  0  0  0  0  0  0
    3.9078    1.4384   -2.2006 C   0  0  0  0  0  0  0  0  0  0  0  0
    4.0646    2.9610   -1.9255 C   0  0  2  0  0  0  0  0  0  0  0  0
    5.3626    3.5567   -2.3372 N   0  0  0  0  0  0  0  0  0  0  0  0
    6.5222    3.0993   -1.7611 C   0  0  0  0  0  0  0  0  0  0  0  0
    6.4997    2.2784   -0.8459 O   0  0  0  0  0  0  0  0  0  0  0  0
    7.8564    3.6014   -2.2515 C   0  0  1  0  0  0  0  0  0  0  0  0
    8.8836    3.9541   -1.1831 C   0  0  0  0  0  0  0  0  0  0  0  0
    9.0527    2.7072   -1.9827 C   0  0  0  0  0  0  0  0  0  0  0  0
    5.3907    4.6495   -3.3404 C   0  0  1  0  0  0  0  0  0  0  0  0
    5.5797    4.1575   -4.7980 C   0  0  0  0  0  0  0  0  0  0  0  0
    4.2607    3.8468   -5.5036 C   0  0  0  0  0  0  0  0  0  0  0  0
    3.4075    4.9745   -5.4964 O   0  0  0  0  0  0  0  0  0  0  0  0
    3.0093    5.3367   -4.1919 C   0  0  0  0  0  0  0  0  0  0  0  0
    4.2079    5.6541   -3.2827 C   0  0  0  0  0  0  0  0  0  0  0  0
    3.5703    3.3479   -0.5032 C   0  0  0  0  0  0  0  0  0  0  0  0
    3.8394    2.3254    0.6074 C   0  0  0  0  0  0  0  0  0  0  0  0
    3.3339   -2.0321    1.7491 H   0  0  0  0  0  0  0  0  0  0  0  0
    0.8136   -4.6398   -0.5574 H   0  0  0  0  0  0  0  0  0  0  0  0
   -0.2028   -2.6380   -1.7019 H   0  0  0  0  0  0  0  0  0  0  0  0
    3.7415   -0.5033   -1.2584 H   0  0  0  0  0  0  0  0  0  0  0  0
    5.1920    0.4098   -0.7758 H   0  0  0  0  0  0  0  0  0  0  0  0
    2.8747    1.2864   -2.5536 H   0  0  0  0  0  0  0  0  0  0  0  0
    4.5729    1.1419   -3.0269 H   0  0  0  0  0  0  0  0  0  0  0  0
    3.3583    3.4331   -2.6085 H   0  0  0  0  0  0  0  0  0  0  0  0
    7.8995    4.1829   -3.1710 H   0  0  0  0  0  0  0  0  0  0  0  0
    8.5541    3.8433   -0.1470 H   0  0  0  0  0  0  0  0  0  0  0  0
    9.5372    4.8087   -1.3786 H   0  0  0  0  0  0  0  0  0  0  0  0
    8.8333    1.7607   -1.4840 H   0  0  0  0  0  0  0  0  0  0  0  0
    9.8285    2.6743   -2.7525 H   0  0  0  0  0  0  0  0  0  0  0  0
    6.2716    5.2461   -3.0803 H   0  0  0  0  0  0  0  0  0  0  0  0
    6.2447    3.2797   -4.8175 H   0  0  0  0  0  0  0  0  0  0  0  0
    6.0789    4.9588   -5.3700 H   0  0  0  0  0  0  0  0  0  0  0  0
    3.7553    2.9754   -5.0368 H   0  0  0  0  0  0  0  0  0  0  0  0
    4.4378    3.5923   -6.5597 H   0  0  0  0  0  0  0  0  0  0  0  0
    2.3653    4.5417   -3.7635 H   0  0  0  0  0  0  0  0  0  0  0  0
    2.3774    6.2324   -4.2931 H   0  0  0  0  0  0  0  0  0  0  0  0
    3.8732    5.8084   -2.2450 H   0  0  0  0  0  0  0  0  0  0  0  0
    4.6169    6.6199   -3.6222 H   0  0  0  0  0  0  0  0  0  0  0  0
    2.4769    3.4850   -0.5684 H   0  0  0  0  0  0  0  0  0  0  0  0
    3.9950    4.3235   -0.2187 H   0  0  0  0  0  0  0  0  0  0  0  0
    3.2596    2.5761    1.5041 H   0  0  0  0  0  0  0  0  0  0  0  0
    4.9089    2.3012    0.8567 H   0  0  0  0  0  0  0  0  0  0  0  0
  1  2  2  0
  2  3  1  0
  2 11  1  0
  3  4  2  0
  3  9  1  0
  4  5  1  0
  4 29  1  0
  5  6  1  0
  5  7  2  0
  7  8  1  0
  7 30  1  0
  8  9  2  0
  8 31  1  0
  9 10  1  0
 11 12  1  0
 11 28  1  0
 12 13  1  0
 12 32  1  0
 12 33  1  0
 13 14  1  0
 13 34  1  0
 13 35  1  0
 14 15  1  0
 14 27  1  0
 14 36  1  6
 15 16  1  0
 15 21  1  0
 16 17  2  0
 16 18  1  0
 18 19  1  0
 18 20  1  0
 18 37  1  6
 19 20  1  0
 19 38  1  0
 19 39  1  0
 20 40  1  0
 20 41  1  0
 21 22  1  0
 21 26  1  0
 21 42  1  1
 22 23  1  0
 22 43  1  0
 22 44  1  0
 23 24  1  0
 23 45  1  0
 23 46  1  0
 24 25  1  0
 25 26  1  0
 25 47  1  0
 25 48  1  0
 26 49  1  0
 26 50  1  0
 27 28  1  0
 27 51  1  0
 27 52  1  0
 28 53  1  0
 28 54  1  0
M  END

