
     RDKit          3D

 45 47  0  0  0  0  0  0  0  0999 V2000
    0.8256   -0.0597    0.1175 C   0  0  0  0  0  0  0  0  0  0  0  0
    2.2752   -0.0390   -0.0536 N   0  0  0  0  0  0  0  0  0  0  0  0
    3.0458    0.5940    1.0050 C   0  0  0  0  0  0  0  0  0  0  0  0
    3.3074    2.0996    0.8697 C   0  0  0  0  0  0  0  0  0  0  0  0
    3.7444    2.7440    1.7968 O   0  0  0  0  0  0  0  0  0  0  0  0
    3.0587    2.6180   -0.3866 N   0  0  0  0  0  0  0  0  0  0  0  0
    3.2134    3.9756   -0.7181 C   0  0  0  0  0  0  0  0  0  0  0  0
    4.4732    4.6096   -0.6995 C   0  0  0  0  0  0  0  0  0  0  0  0
    5.9093    3.6883   -0.3498 Cl  0  0  0  0  0  0  0  0  0  0  0  0
    4.6064    5.9654   -1.0101 C   0  0  0  0  0  0  0  0  0  0  0  0
    3.4836    6.7075   -1.3771 C   0  0  0  0  0  0  0  0  0  0  0  0
    2.2272    6.1029   -1.4406 C   0  0  0  0  0  0  0  0  0  0  0  0
    2.1043    4.7545   -1.1054 C   0  0  0  0  0  0  0  0  0  0  0  0
    0.5248    4.0014   -1.1793 Cl  0  0  0  0  0  0  0  0  0  0  0  0
    2.8287   -0.7602   -1.0949 C   0  0  0  0  0  0  0  0  0  0  0  0
    2.1471   -1.3932   -1.8822 O   0  0  0  0  0  0  0  0  0  0  0  0
    4.3583   -0.7275   -1.2623 C   0  0  0  0  0  0  0  0  0  0  0  0
    5.0516   -1.8312   -0.5025 C   0  0  0  0  0  0  0  0  0  0  0  0
    5.2013   -3.1246   -0.9442 C   0  0  0  0  0  0  0  0  0  0  0  0
    6.0229   -4.0695    0.2426 S   0  0  0  0  0  0  0  0  0  0  0  0
    6.1083   -2.6520    1.2814 C   0  0  0  0  0  0  0  0  0  0  0  0
    6.7455   -2.6791    2.6076 C   0  0  0  0  0  0  0  0  0  0  0  0
    6.8944   -1.4774    3.3269 C   0  0  0  0  0  0  0  0  0  0  0  0
    7.4945   -1.4826    4.5861 C   0  0  0  0  0  0  0  0  0  0  0  0
    7.9582   -2.6731    5.1543 C   0  0  0  0  0  0  0  0  0  0  0  0
    7.8053   -3.8544    4.4313 C   0  0  0  0  0  0  0  0  0  0  0  0
    8.2419   -5.0060    4.9610 F   0  0  0  0  0  0  0  0  0  0  0  0
    7.2094   -3.8793    3.1753 C   0  0  0  0  0  0  0  0  0  0  0  0
    5.5624   -1.5905    0.7463 N   0  0  0  0  0  0  0  0  0  0  0  0
    0.4396    0.9638    0.2529 H   0  0  0  0  0  0  0  0  0  0  0  0
    0.5409   -0.6582    1.0005 H   0  0  0  0  0  0  0  0  0  0  0  0
    0.3741   -0.5082   -0.7747 H   0  0  0  0  0  0  0  0  0  0  0  0
    4.0277    0.1116    1.1260 H   0  0  0  0  0  0  0  0  0  0  0  0
    2.5306    0.4556    1.9684 H   0  0  0  0  0  0  0  0  0  0  0  0
    2.4802    2.0517   -1.0001 H   0  0  0  0  0  0  0  0  0  0  0  0
    5.5965    6.4214   -0.9773 H   0  0  0  0  0  0  0  0  0  0  0  0
    3.5898    7.7658   -1.6257 H   0  0  0  0  0  0  0  0  0  0  0  0
    1.3410    6.6657   -1.7358 H   0  0  0  0  0  0  0  0  0  0  0  0
    4.7920    0.2407   -0.9780 H   0  0  0  0  0  0  0  0  0  0  0  0
    4.5171   -0.8697   -2.3392 H   0  0  0  0  0  0  0  0  0  0  0  0
    4.8679   -3.5537   -1.8872 H   0  0  0  0  0  0  0  0  0  0  0  0
    6.5372   -0.5484    2.8821 H   0  0  0  0  0  0  0  0  0  0  0  0
    7.6056   -0.5447    5.1355 H   0  0  0  0  0  0  0  0  0  0  0  0
    8.4311   -2.7015    6.1377 H   0  0  0  0  0  0  0  0  0  0  0  0
    7.1119   -4.8387    2.6631 H   0  0  0  0  0  0  0  0  0  0  0  0
  1  2  1  0
  1 30  1  0
  1 31  1  0
  1 32  1  0
  2  3  1  0
  2 15  1  0
  3  4  1  0
  3 33  1  0
  3 34  1  0
  4  5  2  0
  4  6  1  0
  6  7  1  0
  6 35  1  0
  7  8  2  0
  7 13  1  0
  8  9  1  0
  8 10  1  0
 10 11  2  0
 10 36  1  0
 11 12  1  0
 11 37  1  0
 12 13  2  0
 12 38  1  0
 13 14  1  0
 15 16  2  0
 15 17  1  0
 17 18  1  0
 17 39  1  0
 17 40  1  0
 18 19  2  0
 18 29  1  0
 19 20  1  0
 19 41  1  0
 20 21  1  0
 21 22  1  0
 21 29  2  0
 22 23  2  0
 22 28  1  0
 23 24  1  0
 23 42  1  0
 24 25  2  0
 24 43  1  0
 25 26  1  0
 25 44  1  0
 26 27  1  0
 26 28  2  0
 28 45  1  0
M  END

