
     RDKit          3D

 30 32  0  0  0  0  0  0  0  0999 V2000
    3.0603    0.9003   -0.5982 O   0  0  0  0  0  0  0  0  0  0  0  0
    2.4014   -0.0461   -0.2037 C   0  0  0  0  0  0  0  0  0  0  0  0
    0.9567    0.2101    0.1628 C   0  0  0  0  0  0  0  0  0  0  0  0
    0.2575    1.2084   -0.5318 C   0  0  0  0  0  0  0  0  0  0  0  0
   -1.0567    1.5124   -0.1753 C   0  0  0  0  0  0  0  0  0  0  0  0
   -1.6971    0.9129    0.8338 N   0  0  0  0  0  0  0  0  0  0  0  0
   -1.0400   -0.0161    1.5245 C   0  0  0  0  0  0  0  0  0  0  0  0
    0.2704   -0.3928    1.2211 C   0  0  0  0  0  0  0  0  0  0  0  0
    0.8545   -1.3237    1.9845 F   0  0  0  0  0  0  0  0  0  0  0  0
    3.0322   -1.3957   -0.0629 C   0  0  0  0  0  0  0  0  0  0  0  0
    4.4101   -1.4271    0.2270 C   0  0  0  0  0  0  0  0  0  0  0  0
    5.0747   -2.6410    0.3606 C   0  0  0  0  0  0  0  0  0  0  0  0
    4.3790   -3.8414    0.1905 C   0  0  0  0  0  0  0  0  0  0  0  0
    3.0130   -3.8477   -0.1244 C   0  0  0  0  0  0  0  0  0  0  0  0
    2.3419   -2.6061   -0.2626 C   0  0  0  0  0  0  0  0  0  0  0  0
    1.0203   -2.5597   -0.5980 O   0  0  0  0  0  0  0  0  0  0  0  0
    0.4282   -3.7522   -1.0976 C   0  0  0  0  0  0  0  0  0  0  0  0
    0.8607   -4.9573   -0.2748 C   0  0  0  0  0  0  0  0  0  0  0  0
    2.3049   -5.0302   -0.3353 N   0  0  0  0  0  0  0  0  0  0  0  0
    0.7611    1.7343   -1.3451 H   0  0  0  0  0  0  0  0  0  0  0  0
   -1.6143    2.2786   -0.7253 H   0  0  0  0  0  0  0  0  0  0  0  0
   -1.5494   -0.5008    2.3656 H   0  0  0  0  0  0  0  0  0  0  0  0
    4.9308   -0.4766    0.3485 H   0  0  0  0  0  0  0  0  0  0  0  0
    6.1401   -2.6627    0.6005 H   0  0  0  0  0  0  0  0  0  0  0  0
    4.8979   -4.7988    0.2967 H   0  0  0  0  0  0  0  0  0  0  0  0
    0.7189   -3.8958   -2.1539 H   0  0  0  0  0  0  0  0  0  0  0  0
   -0.6589   -3.5987   -1.0472 H   0  0  0  0  0  0  0  0  0  0  0  0
    0.4215   -5.8730   -0.7019 H   0  0  0  0  0  0  0  0  0  0  0  0
    0.4729   -4.8454    0.7592 H   0  0  0  0  0  0  0  0  0  0  0  0
    2.7326   -5.8653    0.0474 H   0  0  0  0  0  0  0  0  0  0  0  0
  1  2  2  0
  2  3  1  0
  2 10  1  0
  3  4  2  0
  3  8  1  0
  4  5  1  0
  4 20  1  0
  5  6  2  0
  5 21  1  0
  6  7  1  0
  7  8  2  0
  7 22  1  0
  8  9  1  0
 10 11  2  0
 10 15  1  0
 11 12  1  0
 11 23  1  0
 12 13  2  0
 12 24  1  0
 13 14  1  0
 13 25  1  0
 14 15  2  0
 14 19  1  0
 15 16  1  0
 16 17  1  0
 17 18  1  0
 17 26  1  0
 17 27  1  0
 18 19  1  0
 18 28  1  0
 18 29  1  0
 19 30  1  0
M  END

