
     RDKit          3D

 39 40  0  0  0  0  0  0  0  0999 V2000
    2.4607   -1.1460   -0.8383 N   0  0  0  0  0  0  0  0  0  0  0  0
    2.8159   -0.0817    0.0977 C   0  0  0  0  0  0  0  0  0  0  0  0
    3.4274   -0.6456    1.3844 C   0  0  0  0  0  0  0  0  0  0  0  0
    4.7432   -1.3899    1.1296 C   0  0  0  0  0  0  0  0  0  0  0  0
    5.3566   -1.9576    2.3294 N   0  0  0  0  0  0  0  0  0  0  0  0
    4.5177   -2.8239    3.1443 C   0  0  0  0  0  0  0  0  0  0  0  0
    3.8758   -2.1974    4.3773 C   0  0  0  0  0  0  0  0  0  0  0  0
    4.3274   -0.9833    4.9142 C   0  0  0  0  0  0  0  0  0  0  0  0
    3.7322   -0.4681    6.0694 C   0  0  0  0  0  0  0  0  0  0  0  0
    2.6883   -1.1468    6.7006 C   0  0  0  0  0  0  0  0  0  0  0  0
    2.2324   -2.3612    6.1660 C   0  0  0  0  0  0  0  0  0  0  0  0
    1.2181   -3.0723    6.7256 O   0  0  0  0  0  0  0  0  0  0  0  0
    2.8273   -2.8782    5.0084 C   0  0  0  0  0  0  0  0  0  0  0  0
    6.7437   -2.0643    2.4333 C   0  0  0  0  0  0  0  0  0  0  0  0
    7.3482   -2.4769    3.6490 C   0  0  0  0  0  0  0  0  0  0  0  0
    8.7333   -2.5781    3.7631 C   0  0  0  0  0  0  0  0  0  0  0  0
    9.5826   -2.2731    2.6947 C   0  0  0  0  0  0  0  0  0  0  0  0
    8.9812   -1.8709    1.5069 C   0  0  0  0  0  0  0  0  0  0  0  0
    9.7578   -1.5817    0.4474 F   0  0  0  0  0  0  0  0  0  0  0  0
    7.6028   -1.7687    1.3494 C   0  0  0  0  0  0  0  0  0  0  0  0
    2.1696   -0.7570   -1.7347 H   0  0  0  0  0  0  0  0  0  0  0  0
    1.6628   -1.6765   -0.4850 H   0  0  0  0  0  0  0  0  0  0  0  0
    1.9659    0.5776    0.3767 H   0  0  0  0  0  0  0  0  0  0  0  0
    3.5555    0.5718   -0.3986 H   0  0  0  0  0  0  0  0  0  0  0  0
    2.6867   -1.3091    1.8638 H   0  0  0  0  0  0  0  0  0  0  0  0
    3.5992    0.1784    2.0963 H   0  0  0  0  0  0  0  0  0  0  0  0
    5.4473   -0.6643    0.6995 H   0  0  0  0  0  0  0  0  0  0  0  0
    4.5720   -2.1625    0.3549 H   0  0  0  0  0  0  0  0  0  0  0  0
    5.1134   -3.6947    3.4667 H   0  0  0  0  0  0  0  0  0  0  0  0
    3.7204   -3.2445    2.5067 H   0  0  0  0  0  0  0  0  0  0  0  0
    5.1394   -0.4465    4.4216 H   0  0  0  0  0  0  0  0  0  0  0  0
    4.0856    0.4785    6.4868 H   0  0  0  0  0  0  0  0  0  0  0  0
    2.2244   -0.7380    7.6040 H   0  0  0  0  0  0  0  0  0  0  0  0
    0.8982   -2.6111    7.5120 H   0  0  0  0  0  0  0  0  0  0  0  0
    2.4499   -3.8251    4.6125 H   0  0  0  0  0  0  0  0  0  0  0  0
    6.7312   -2.6858    4.5227 H   0  0  0  0  0  0  0  0  0  0  0  0
    9.1636   -2.8910    4.7181 H   0  0  0  0  0  0  0  0  0  0  0  0
   10.6687   -2.3395    2.7671 H   0  0  0  0  0  0  0  0  0  0  0  0
    7.2296   -1.4853    0.3673 H   0  0  0  0  0  0  0  0  0  0  0  0
  1  2  1  0
  1 21  1  0
  1 22  1  0
  2  3  1  0
  2 23  1  0
  2 24  1  0
  3  4  1  0
  3 25  1  0
  3 26  1  0
  4  5  1  0
  4 27  1  0
  4 28  1  0
  5  6  1  0
  5 14  1  0
  6  7  1  0
  6 29  1  0
  6 30  1  0
  7  8  2  0
  7 13  1  0
  8  9  1  0
  8 31  1  0
  9 10  2  0
  9 32  1  0
 10 11  1  0
 10 33  1  0
 11 12  1  0
 11 13  2  0
 12 34  1  0
 13 35  1  0
 14 15  2  0
 14 20  1  0
 15 16  1  0
 15 36  1  0
 16 17  2  0
 16 37  1  0
 17 18  1  0
 17 38  1  0
 18 19  1  0
 18 20  2  0
 20 39  1  0
M  END

