
     RDKit          3D

 39 43  0  0  0  0  0  0  0  0999 V2000
    2.5569    0.0971   -0.2223 C   0  0  0  0  0  0  0  0  0  0  0  0
    2.2320   -1.2087   -0.6696 C   0  0  0  0  0  0  0  0  0  0  0  0
    3.2031   -2.1893   -0.7198 C   0  0  0  0  0  0  0  0  0  0  0  0
    4.5374   -1.9098   -0.3266 C   0  0  0  0  0  0  0  0  0  0  0  0
    5.4803   -2.9029   -0.3869 N   0  0  0  0  0  0  0  0  0  0  0  0
    6.6659   -2.5333   -0.0001 C   0  0  0  0  0  0  0  0  0  0  0  0
    7.0294   -1.2092    0.4610 C   0  0  0  0  0  0  0  0  0  0  0  0
    6.1359   -0.2410    0.5177 N   0  0  0  0  0  0  0  0  0  0  0  0
    4.8735   -0.5801    0.1283 C   0  0  0  0  0  0  0  0  0  0  0  0
    3.8454    0.4026    0.1661 C   0  0  0  0  0  0  0  0  0  0  0  0
    8.4305   -1.2196    0.7718 C   0  0  0  0  0  0  0  0  0  0  0  0
    8.8653   -2.5202    0.5106 C   0  0  0  0  0  0  0  0  0  0  0  0
    7.8022   -3.3090    0.0425 N   0  0  0  0  0  0  0  0  0  0  0  0
    7.8884   -4.7029   -0.3460 C   0  0  0  0  0  0  0  0  0  0  0  0
    9.3197   -4.9828   -0.7841 C   0  0  0  0  0  0  0  0  0  0  0  0
   10.2838   -4.5073    0.2959 C   0  0  0  0  0  0  0  0  0  0  0  0
   10.1203   -3.0851    0.6089 N   0  0  0  0  0  0  0  0  0  0  0  0
   11.0714   -2.6026    1.6128 C   0  0  0  0  0  0  0  0  0  0  0  0
   11.4495   -1.1203    1.5755 C   0  0  0  0  0  0  0  0  0  0  0  0
   10.3750   -0.1564    2.0831 C   0  0  0  0  0  0  0  0  0  0  0  0
    9.2031    0.0199    1.1180 C   0  0  0  0  0  0  0  0  0  0  0  0
    1.7794    0.8648   -0.1863 H   0  0  0  0  0  0  0  0  0  0  0  0
    1.2078   -1.4373   -0.9754 H   0  0  0  0  0  0  0  0  0  0  0  0
    2.9793   -3.2030   -1.0601 H   0  0  0  0  0  0  0  0  0  0  0  0
    4.1210    1.4007    0.5138 H   0  0  0  0  0  0  0  0  0  0  0  0
    7.1567   -4.8776   -1.1485 H   0  0  0  0  0  0  0  0  0  0  0  0
    7.6073   -5.3607    0.4984 H   0  0  0  0  0  0  0  0  0  0  0  0
    9.4648   -6.0602   -0.9564 H   0  0  0  0  0  0  0  0  0  0  0  0
    9.5320   -4.4607   -1.7319 H   0  0  0  0  0  0  0  0  0  0  0  0
   11.3254   -4.6621   -0.0289 H   0  0  0  0  0  0  0  0  0  0  0  0
   10.1420   -5.1246    1.2094 H   0  0  0  0  0  0  0  0  0  0  0  0
   11.9884   -3.1919    1.4602 H   0  0  0  0  0  0  0  0  0  0  0  0
   10.7024   -2.8532    2.6304 H   0  0  0  0  0  0  0  0  0  0  0  0
   11.7567   -0.8467    0.5501 H   0  0  0  0  0  0  0  0  0  0  0  0
   12.3491   -1.0194    2.2067 H   0  0  0  0  0  0  0  0  0  0  0  0
   10.8367    0.8298    2.2591 H   0  0  0  0  0  0  0  0  0  0  0  0
   10.0072   -0.5079    3.0643 H   0  0  0  0  0  0  0  0  0  0  0  0
    9.5922    0.4816    0.1881 H   0  0  0  0  0  0  0  0  0  0  0  0
    8.4846    0.7490    1.5254 H   0  0  0  0  0  0  0  0  0  0  0  0
  1  2  2  0
  1 10  1  0
  1 22  1  0
  2  3  1  0
  2 23  1  0
  3  4  2  0
  3 24  1  0
  4  5  1  0
  4  9  1  0
  5  6  2  0
  6  7  1  0
  6 13  1  0
  7  8  2  0
  7 11  1  0
  8  9  1  0
  9 10  2  0
 10 25  1  0
 11 12  2  0
 11 21  1  0
 12 13  1  0
 12 17  1  0
 13 14  1  0
 14 15  1  0
 14 26  1  0
 14 27  1  0
 15 16  1  0
 15 28  1  0
 15 29  1  0
 16 17  1  0
 16 30  1  0
 16 31  1  0
 17 18  1  0
 18 19  1  0
 18 32  1  0
 18 33  1  0
 19 20  1  0
 19 34  1  0
 19 35  1  0
 20 21  1  0
 20 36  1  0
 20 37  1  0
 21 38  1  0
 21 39  1  0
M  END

