
     RDKit          3D

 46 49  0  0  0  0  0  0  0  0999 V2000
    5.9752   -1.4031   -3.8242 C   0  0  0  0  0  0  0  0  0  0  0  0
    5.3874   -2.6297   -3.1492 C   0  0  0  0  0  0  0  0  0  0  0  0
    5.5174   -3.7328   -3.6444 O   0  0  0  0  0  0  0  0  0  0  0  0
    4.6413   -2.4536   -1.8550 C   0  0  0  0  0  0  0  0  0  0  0  0
    4.4574   -1.2042   -1.2400 C   0  0  0  0  0  0  0  0  0  0  0  0
    3.7466   -1.1144   -0.0411 C   0  0  0  0  0  0  0  0  0  0  0  0
    3.2204   -2.2623    0.5560 C   0  0  0  0  0  0  0  0  0  0  0  0
    3.3953   -3.5189   -0.0454 C   0  0  0  0  0  0  0  0  0  0  0  0
    2.8683   -4.7740    0.6114 C   0  0  0  0  0  0  0  0  0  0  0  0
    1.7457   -4.4783    1.4063 O   0  0  0  0  0  0  0  0  0  0  0  0
    1.2719   -5.5636    2.1555 C   0  0  0  0  0  0  0  0  0  0  0  0
    0.0131   -5.2094    2.9118 C   0  0  0  0  0  0  0  0  0  0  0  0
   -0.6198   -3.9889    2.7145 C   0  0  0  0  0  0  0  0  0  0  0  0
   -1.8219   -3.6461    3.4219 C   0  0  0  0  0  0  0  0  0  0  0  0
   -2.5336   -2.6518    3.4113 O   0  0  0  0  0  0  0  0  0  0  0  0
   -2.1712   -4.7324    4.2684 N   0  0  0  0  0  0  0  0  0  0  0  0
   -3.2515   -4.7640    5.0845 N   0  0  0  0  0  0  0  0  0  0  0  0
   -3.8698   -3.9586    5.1045 H   0  0  0  0  0  0  0  0  0  0  0  0
   -3.2198   -5.9743    5.7129 C   0  0  0  0  0  0  0  0  0  0  0  0
   -4.2288   -6.4031    6.6889 C   0  0  0  0  0  0  0  0  0  0  0  0
   -5.3133   -5.5842    7.0487 C   0  0  0  0  0  0  0  0  0  0  0  0
   -6.2508   -6.0297    7.9809 C   0  0  0  0  0  0  0  0  0  0  0  0
   -6.1146   -7.2949    8.5615 C   0  0  0  0  0  0  0  0  0  0  0  0
   -5.0369   -8.1141    8.2068 C   0  0  0  0  0  0  0  0  0  0  0  0
   -4.0972   -7.6739    7.2759 C   0  0  0  0  0  0  0  0  0  0  0  0
   -2.1781   -6.6910    5.3296 N   0  0  0  0  0  0  0  0  0  0  0  0
   -1.5013   -5.9295    4.4188 C   0  0  0  0  0  0  0  0  0  0  0  0
   -0.4025   -6.1920    3.7515 N   0  0  0  0  0  0  0  0  0  0  0  0
    4.1008   -3.5993   -1.2481 C   0  0  0  0  0  0  0  0  0  0  0  0
    6.4817   -1.7170   -4.7456 H   0  0  0  0  0  0  0  0  0  0  0  0
    6.6970   -0.8957   -3.1639 H   0  0  0  0  0  0  0  0  0  0  0  0
    5.1880   -0.6720   -4.0699 H   0  0  0  0  0  0  0  0  0  0  0  0
    4.8615   -0.2967   -1.6923 H   0  0  0  0  0  0  0  0  0  0  0  0
    3.6001   -0.1407    0.4332 H   0  0  0  0  0  0  0  0  0  0  0  0
    2.6609   -2.1945    1.4904 H   0  0  0  0  0  0  0  0  0  0  0  0
    3.6678   -5.2270    1.2377 H   0  0  0  0  0  0  0  0  0  0  0  0
    2.6159   -5.5269   -0.1630 H   0  0  0  0  0  0  0  0  0  0  0  0
    2.0271   -5.9149    2.8886 H   0  0  0  0  0  0  0  0  0  0  0  0
    1.0456   -6.4354    1.5057 H   0  0  0  0  0  0  0  0  0  0  0  0
   -0.2125   -3.2658    2.0110 H   0  0  0  0  0  0  0  0  0  0  0  0
   -5.4377   -4.5924    6.6065 H   0  0  0  0  0  0  0  0  0  0  0  0
   -7.0906   -5.3870    8.2548 H   0  0  0  0  0  0  0  0  0  0  0  0
   -6.8499   -7.6423    9.2914 H   0  0  0  0  0  0  0  0  0  0  0  0
   -4.9289   -9.1027    8.6593 H   0  0  0  0  0  0  0  0  0  0  0  0
   -3.2498   -8.2971    6.9857 H   0  0  0  0  0  0  0  0  0  0  0  0
    4.2489   -4.5568   -1.7540 H   0  0  0  0  0  0  0  0  0  0  0  0
  1  2  1  0
  1 30  1  0
  1 31  1  0
  1 32  1  0
  2  3  2  0
  2  4  1  0
  4  5  2  0
  4 29  1  0
  5  6  1  0
  5 33  1  0
  6  7  2  0
  6 34  1  0
  7  8  1  0
  7 35  1  0
  8  9  1  0
  8 29  2  0
  9 10  1  0
  9 36  1  0
  9 37  1  0
 10 11  1  0
 11 12  1  0
 11 38  1  0
 11 39  1  0
 12 13  2  0
 12 28  1  0
 13 14  1  0
 13 40  1  0
 14 15  2  0
 14 16  1  0
 16 17  1  0
 16 27  1  0
 17 18  1  0
 17 19  1  0
 19 20  1  0
 19 26  2  0
 20 21  2  0
 20 25  1  0
 21 22  1  0
 21 41  1  0
 22 23  2  0
 22 42  1  0
 23 24  1  0
 23 43  1  0
 24 25  2  0
 24 44  1  0
 25 45  1  0
 26 27  1  0
 27 28  2  0
 29 46  1  0
M  END

