
     RDKit          3D

 21 21  0  0  0  0  0  0  0  0999 V2000
    1.2999   -0.2277    0.1301 N   0  0  0  0  0  0  0  0  0  0  0  0
    2.4465   -0.2779   -0.0558 C   0  0  0  0  0  0  0  0  0  0  0  0
    3.8499   -0.4072   -0.3282 C   0  0  0  0  0  0  0  0  0  0  0  0
    4.6415    0.6871   -0.1749 C   0  0  0  0  0  0  0  0  0  0  0  0
    6.0651    0.8437   -0.4701 C   0  0  0  0  0  0  0  0  0  0  0  0
    6.8645    1.6213    0.3899 C   0  0  0  0  0  0  0  0  0  0  0  0
    6.2874    2.1364    1.4822 F   0  0  0  0  0  0  0  0  0  0  0  0
    8.2127    1.8616    0.1712 C   0  0  0  0  0  0  0  0  0  0  0  0
    8.8093    1.3314   -0.9776 C   0  0  0  0  0  0  0  0  0  0  0  0
   10.4859    1.6023   -1.3108 Cl  0  0  0  0  0  0  0  0  0  0  0  0
    8.0490    0.5805   -1.8810 C   0  0  0  0  0  0  0  0  0  0  0  0
    8.5887    0.0964   -2.9940 F   0  0  0  0  0  0  0  0  0  0  0  0
    6.6953    0.3518   -1.6265 C   0  0  0  0  0  0  0  0  0  0  0  0
    5.9980   -0.3028   -2.5451 F   0  0  0  0  0  0  0  0  0  0  0  0
    4.3729   -1.7956   -0.6638 C   0  0  0  0  0  0  0  0  0  0  0  0
    3.4279   -2.6784   -1.0808 N   0  0  0  0  0  0  0  0  0  0  0  0
    5.5469   -2.0834   -0.5317 O   0  0  0  0  0  0  0  0  0  0  0  0
    4.1638    1.5811    0.2380 H   0  0  0  0  0  0  0  0  0  0  0  0
    8.7884    2.4524    0.8829 H   0  0  0  0  0  0  0  0  0  0  0  0
    2.4491   -2.4364   -1.1710 H   0  0  0  0  0  0  0  0  0  0  0  0
    3.7243   -3.6270   -1.2778 H   0  0  0  0  0  0  0  0  0  0  0  0
  1  2  3  0
  2  3  1  0
  3  4  2  0
  3 15  1  0
  4  5  1  0
  4 18  1  0
  5  6  2  0
  5 13  1  0
  6  7  1  0
  6  8  1  0
  8  9  2  0
  8 19  1  0
  9 10  1  0
  9 11  1  0
 11 12  1  0
 11 13  2  0
 13 14  1  0
 15 16  1  0
 15 17  2  0
 16 20  1  0
 16 21  1  0
M  END

