
     RDKit          3D

 37 38  0  0  0  0  0  0  0  0999 V2000
    0.9606   -0.1054    1.0341 C   0  0  0  0  0  0  0  0  0  0  0  0
    2.3045   -0.1982    1.4454 O   0  0  0  0  0  0  0  0  0  0  0  0
    3.0252    0.9426    1.6225 C   0  0  0  0  0  0  0  0  0  0  0  0
    2.5306    2.2338    1.3926 C   0  0  0  0  0  0  0  0  0  0  0  0
    3.3905    3.3135    1.6217 C   0  0  0  0  0  0  0  0  0  0  0  0
    4.7002    3.1413    2.0579 C   0  0  0  0  0  0  0  0  0  0  0  0
    5.2090    1.8364    2.2927 C   0  0  0  0  0  0  0  0  0  0  0  0
    6.5186    1.6457    2.7239 N   0  0  0  0  0  0  0  0  0  0  0  0
    7.3990    2.7942    2.8275 C   0  0  0  0  0  0  0  0  0  0  0  0
    7.1179    0.3221    2.7147 C   0  0  0  0  0  0  0  0  0  0  0  0
    6.6717   -0.6406    3.7957 C   0  0  0  0  0  0  0  0  0  0  0  0
    6.5675   -0.5296    5.1899 C   0  0  0  0  0  0  0  0  0  0  0  0
    6.9003    0.5510    6.1248 C   0  0  0  0  0  0  0  0  0  0  0  0
    6.6296    0.5420    7.3044 O   0  0  0  0  0  0  0  0  0  0  0  0
    7.5948    1.5721    5.5650 O   0  0  0  0  0  0  0  0  0  0  0  0
    6.0859   -1.7945    5.6167 C   0  0  0  0  0  0  0  0  0  0  0  0
    5.9283   -2.6231    4.6016 N   0  0  0  0  0  0  0  0  0  0  0  0
    6.2816   -1.9153    3.5050 N   0  0  0  0  0  0  0  0  0  0  0  0
    6.2471   -2.5871    2.2161 C   0  0  0  0  0  0  0  0  0  0  0  0
    4.3410    0.7506    2.0667 C   0  0  0  0  0  0  0  0  0  0  0  0
    0.5793   -1.1339    0.9728 H   0  0  0  0  0  0  0  0  0  0  0  0
    0.8638    0.3704    0.0411 H   0  0  0  0  0  0  0  0  0  0  0  0
    0.3457    0.4601    1.7576 H   0  0  0  0  0  0  0  0  0  0  0  0
    1.5119    2.4076    1.0488 H   0  0  0  0  0  0  0  0  0  0  0  0
    3.0233    4.3289    1.4479 H   0  0  0  0  0  0  0  0  0  0  0  0
    5.3226    4.0201    2.2132 H   0  0  0  0  0  0  0  0  0  0  0  0
    7.0042    3.5364    3.5397 H   0  0  0  0  0  0  0  0  0  0  0  0
    7.5499    3.3016    1.8545 H   0  0  0  0  0  0  0  0  0  0  0  0
    8.3728    2.4721    3.2117 H   0  0  0  0  0  0  0  0  0  0  0  0
    8.2051    0.4585    2.8123 H   0  0  0  0  0  0  0  0  0  0  0  0
    6.9584   -0.1631    1.7344 H   0  0  0  0  0  0  0  0  0  0  0  0
    7.7562    2.2058    6.2850 H   0  0  0  0  0  0  0  0  0  0  0  0
    5.8702   -2.1043    6.6383 H   0  0  0  0  0  0  0  0  0  0  0  0
    5.8597   -3.5953    2.4015 H   0  0  0  0  0  0  0  0  0  0  0  0
    7.2535   -2.6624    1.7760 H   0  0  0  0  0  0  0  0  0  0  0  0
    5.5812   -2.0704    1.5088 H   0  0  0  0  0  0  0  0  0  0  0  0
    4.6363   -0.2758    2.2627 H   0  0  0  0  0  0  0  0  0  0  0  0
  1  2  1  0
  1 21  1  0
  1 22  1  0
  1 23  1  0
  2  3  1  0
  3  4  2  0
  3 20  1  0
  4  5  1  0
  4 24  1  0
  5  6  2  0
  5 25  1  0
  6  7  1  0
  6 26  1  0
  7  8  1  0
  7 20  2  0
  8  9  1  0
  8 10  1  0
  9 27  1  0
  9 28  1  0
  9 29  1  0
 10 11  1  0
 10 30  1  0
 10 31  1  0
 11 12  2  0
 11 18  1  0
 12 13  1  0
 12 16  1  0
 13 14  2  0
 13 15  1  0
 15 32  1  0
 16 17  2  0
 16 33  1  0
 17 18  1  0
 18 19  1  0
 19 34  1  0
 19 35  1  0
 19 36  1  0
 20 37  1  0
M  END

