
     RDKit          3D

 41 42  0  0  0  0  0  0  0  0999 V2000
    1.1904    0.6191   -0.1813 C   0  0  0  0  0  0  0  0  0  0  0  0
    2.7136    0.5548   -0.2253 C   0  0  0  0  0  0  0  0  0  0  0  0
    3.1676   -0.5957   -0.9906 N   0  0  0  0  0  0  0  0  0  0  0  0
    4.6105   -0.7612   -1.0911 C   0  0  1  0  0  0  0  0  0  0  0  0
    5.1611   -1.4498    0.1856 C   0  0  0  0  0  0  0  0  0  0  0  0
    6.6685   -1.4816    0.2956 C   0  0  0  0  0  0  0  0  0  0  0  0
    7.3924   -0.3117    0.5899 C   0  0  0  0  0  0  0  0  0  0  0  0
    8.7865   -0.3327    0.6752 C   0  0  0  0  0  0  0  0  0  0  0  0
    9.4955   -1.5206    0.4722 C   0  0  0  0  0  0  0  0  0  0  0  0
    8.7725   -2.6747    0.1851 C   0  0  0  0  0  0  0  0  0  0  0  0
    9.4320   -3.8284   -0.0082 F   0  0  0  0  0  0  0  0  0  0  0  0
    7.3819   -2.6731    0.0932 C   0  0  0  0  0  0  0  0  0  0  0  0
    4.9496   -1.5921   -2.3470 C   0  0  0  0  0  0  0  0  0  0  0  0
    4.6412   -0.8932   -3.6405 C   0  0  0  0  0  0  0  0  0  0  0  0
    3.4475   -0.5445   -4.0295 N   0  0  0  0  0  0  0  0  0  0  0  0
    3.4495    0.1030   -5.2459 C   0  0  0  0  0  0  0  0  0  0  0  0
    2.1433    0.5639   -5.8364 C   0  0  0  0  0  0  0  0  0  0  0  0
    4.6928    0.2597   -5.8210 C   0  0  0  0  0  0  0  0  0  0  0  0
    5.0530    0.8994   -7.1270 C   0  0  0  0  0  0  0  0  0  0  0  0
    5.8971   -0.4385   -4.7713 S   0  0  0  0  0  0  0  0  0  0  0  0
    0.8462    1.4791    0.4148 H   0  0  0  0  0  0  0  0  0  0  0  0
    0.7767   -0.3021    0.2578 H   0  0  0  0  0  0  0  0  0  0  0  0
    0.7696    0.7255   -1.1954 H   0  0  0  0  0  0  0  0  0  0  0  0
    3.0996    0.4793    0.8068 H   0  0  0  0  0  0  0  0  0  0  0  0
    3.1152    1.5156   -0.6250 H   0  0  0  0  0  0  0  0  0  0  0  0
    2.7728   -0.5504   -1.9321 H   0  0  0  0  0  0  0  0  0  0  0  0
    5.1285    0.2202   -1.1940 H   0  0  0  0  0  0  0  0  0  0  0  0
    4.7475   -2.4697    0.2264 H   0  0  0  0  0  0  0  0  0  0  0  0
    4.7513   -0.9137    1.0564 H   0  0  0  0  0  0  0  0  0  0  0  0
    6.8553    0.6247    0.7625 H   0  0  0  0  0  0  0  0  0  0  0  0
    9.3317    0.5855    0.9081 H   0  0  0  0  0  0  0  0  0  0  0  0
   10.5842   -1.5666    0.5369 H   0  0  0  0  0  0  0  0  0  0  0  0
    6.8677   -3.6111   -0.1282 H   0  0  0  0  0  0  0  0  0  0  0  0
    4.3643   -2.5274   -2.3031 H   0  0  0  0  0  0  0  0  0  0  0  0
    6.0133   -1.8680   -2.3252 H   0  0  0  0  0  0  0  0  0  0  0  0
    1.3265    0.3165   -5.1453 H   0  0  0  0  0  0  0  0  0  0  0  0
    1.9311    0.0740   -6.8011 H   0  0  0  0  0  0  0  0  0  0  0  0
    2.1280    1.6525   -6.0091 H   0  0  0  0  0  0  0  0  0  0  0  0
    4.1498    1.2734   -7.6300 H   0  0  0  0  0  0  0  0  0  0  0  0
    5.5464    0.1897   -7.8122 H   0  0  0  0  0  0  0  0  0  0  0  0
    5.7382    1.7535   -6.9932 H   0  0  0  0  0  0  0  0  0  0  0  0
  1  2  1  0
  1 21  1  0
  1 22  1  0
  1 23  1  0
  2  3  1  0
  2 24  1  0
  2 25  1  0
  3  4  1  0
  3 26  1  0
  4  5  1  0
  4 13  1  0
  4 27  1  6
  5  6  1  0
  5 28  1  0
  5 29  1  0
  6  7  2  0
  6 12  1  0
  7  8  1  0
  7 30  1  0
  8  9  2  0
  8 31  1  0
  9 10  1  0
  9 32  1  0
 10 11  1  0
 10 12  2  0
 12 33  1  0
 13 14  1  0
 13 34  1  0
 13 35  1  0
 14 15  2  0
 14 20  1  0
 15 16  1  0
 16 17  1  0
 16 18  2  0
 17 36  1  0
 17 37  1  0
 17 38  1  0
 18 19  1  0
 18 20  1  0
 19 39  1  0
 19 40  1  0
 19 41  1  0
M  END

