
     RDKit          3D

 31 32  0  0  0  0  0  0  0  0999 V2000
    1.0785   -0.3829    0.2125 C   0  0  0  0  0  0  0  0  0  0  0  0
    2.5564   -0.1942   -0.0233 C   0  0  0  0  0  0  0  0  0  0  0  0
    3.1297    1.0787   -0.1447 C   0  0  0  0  0  0  0  0  0  0  0  0
    4.4994    1.2629   -0.3600 C   0  0  0  0  0  0  0  0  0  0  0  0
    5.3485    0.1511   -0.4605 C   0  0  0  0  0  0  0  0  0  0  0  0
    6.7370    0.1927   -0.6690 N   0  0  0  0  0  0  0  0  0  0  0  0
    7.5337    1.2945   -0.8445 C   0  0  0  0  0  0  0  0  0  0  0  0
    7.1157    2.4407   -0.8783 O   0  0  0  0  0  0  0  0  0  0  0  0
    9.0074    1.0104   -1.0128 C   0  0  0  0  0  0  0  0  0  0  0  0
    9.8058    2.0620   -1.4984 C   0  0  0  0  0  0  0  0  0  0  0  0
   11.1753    1.8981   -1.6718 C   0  0  0  0  0  0  0  0  0  0  0  0
   11.7816    0.6793   -1.3587 C   0  0  0  0  0  0  0  0  0  0  0  0
   13.0894    0.5689   -1.5222 F   0  0  0  0  0  0  0  0  0  0  0  0
   10.9974   -0.3741   -0.8601 C   0  0  0  0  0  0  0  0  0  0  0  0
   11.5769   -1.6840   -0.5035 N   0  0  0  0  0  0  0  0  0  0  0  0
   12.6928   -1.9418   -0.9137 O   0  0  0  0  0  0  0  0  0  0  0  0
   10.8835   -2.4289    0.1724 O   0  0  0  0  0  0  0  0  0  0  0  0
    9.6221   -0.1997   -0.6825 C   0  0  0  0  0  0  0  0  0  0  0  0
    4.7626   -1.1216   -0.3373 C   0  0  0  0  0  0  0  0  0  0  0  0
    5.5817   -2.1943   -0.4365 F   0  0  0  0  0  0  0  0  0  0  0  0
    3.4083   -1.3083   -0.1258 C   0  0  0  0  0  0  0  0  0  0  0  0
    0.5483    0.5804    0.2280 H   0  0  0  0  0  0  0  0  0  0  0  0
    0.8871   -0.8874    1.1746 H   0  0  0  0  0  0  0  0  0  0  0  0
    0.6222   -1.0069   -0.5739 H   0  0  0  0  0  0  0  0  0  0  0  0
    2.4901    1.9620   -0.0707 H   0  0  0  0  0  0  0  0  0  0  0  0
    4.9250    2.2588   -0.4559 H   0  0  0  0  0  0  0  0  0  0  0  0
    7.1691   -0.7208   -0.7362 H   0  0  0  0  0  0  0  0  0  0  0  0
    9.3195    3.0114   -1.7286 H   0  0  0  0  0  0  0  0  0  0  0  0
   11.8075    2.7055   -2.0462 H   0  0  0  0  0  0  0  0  0  0  0  0
    9.0840   -1.0451   -0.2522 H   0  0  0  0  0  0  0  0  0  0  0  0
    3.0301   -2.3298   -0.0417 H   0  0  0  0  0  0  0  0  0  0  0  0
  1  2  1  0
  1 22  1  0
  1 23  1  0
  1 24  1  0
  2  3  2  0
  2 21  1  0
  3  4  1  0
  3 25  1  0
  4  5  2  0
  4 26  1  0
  5  6  1  0
  5 19  1  0
  6  7  1  0
  6 27  1  0
  7  8  2  0
  7  9  1  0
  9 10  2  0
  9 18  1  0
 10 11  1  0
 10 28  1  0
 11 12  2  0
 11 29  1  0
 12 13  1  0
 12 14  1  0
 14 15  1  0
 14 18  2  0
 15 16  2  0
 15 17  1  0
 18 30  1  0
 19 20  1  0
 19 21  2  0
 21 31  1  0
M  CHG  2  15   1  17  -1
M  END

