
     RDKit          3D

 58 60  0  0  0  0  0  0  0  0999 V2000
    2.7766   -0.6649    0.8970 O   0  0  0  0  0  0  0  0  0  0  0  0
    2.2570    0.3010    0.3390 C   0  0  0  0  0  0  0  0  0  0  0  0
    0.9123    0.5002    0.3434 N   0  0  0  0  0  0  0  0  0  0  0  0
   -0.0390   -0.4147    0.9753 C   0  0  1  0  0  0  0  0  0  0  0  0
   -1.0836    0.4172    1.7358 C   0  0  0  0  0  0  0  0  0  0  0  0
   -2.2115   -0.3538    2.4376 C   0  0  0  0  0  0  0  0  0  0  0  0
   -3.2236   -1.0070    1.4817 C   0  0  0  0  0  0  0  0  0  0  0  0
   -2.8359   -2.3863    0.9156 C   0  0  0  0  0  0  0  0  0  0  0  0
   -1.3486   -2.6031    0.5819 C   0  0  0  0  0  0  0  0  0  0  0  0
   -0.6003   -1.4195   -0.0525 C   0  0  0  0  0  0  0  0  0  0  0  0
    3.0541    1.3877   -0.3486 C   0  0  0  0  0  0  0  0  0  0  0  0
    2.7942    2.7075    0.0685 C   0  0  0  0  0  0  0  0  0  0  0  0
    3.4783    3.7942   -0.4742 C   0  0  0  0  0  0  0  0  0  0  0  0
    4.4209    3.5752   -1.4807 C   0  0  0  0  0  0  0  0  0  0  0  0
    4.6706    2.2768   -1.9195 C   0  0  0  0  0  0  0  0  0  0  0  0
    4.0246    1.1622   -1.3571 C   0  0  0  0  0  0  0  0  0  0  0  0
    4.4240   -0.1629   -2.0010 C   0  0  0  0  0  0  0  0  0  0  0  0
    4.7827   -0.1718   -3.1749 O   0  0  0  0  0  0  0  0  0  0  0  0
    4.4258   -1.2681   -1.2203 N   0  0  0  0  0  0  0  0  0  0  0  0
    4.8006   -2.5799   -1.7409 C   0  0  1  0  0  0  0  0  0  0  0  0
    5.4281   -3.3841   -0.5928 C   0  0  0  0  0  0  0  0  0  0  0  0
    5.8562   -4.8255   -0.9047 C   0  0  0  0  0  0  0  0  0  0  0  0
    4.6874   -5.8001   -1.1266 C   0  0  0  0  0  0  0  0  0  0  0  0
    4.0849   -5.8318   -2.5443 C   0  0  0  0  0  0  0  0  0  0  0  0
    4.0013   -4.4868   -3.2889 C   0  0  0  0  0  0  0  0  0  0  0  0
    3.6100   -3.2554   -2.4568 C   0  0  0  0  0  0  0  0  0  0  0  0
    0.5435    1.2658   -0.2101 H   0  0  0  0  0  0  0  0  0  0  0  0
    0.5568   -0.9928    1.6987 H   0  0  0  0  0  0  0  0  0  0  0  0
   -1.5466    1.1344    1.0300 H   0  0  0  0  0  0  0  0  0  0  0  0
   -0.5419    1.0274    2.4782 H   0  0  0  0  0  0  0  0  0  0  0  0
   -2.7480    0.3672    3.0766 H   0  0  0  0  0  0  0  0  0  0  0  0
   -1.7889   -1.1050    3.1291 H   0  0  0  0  0  0  0  0  0  0  0  0
   -3.4089   -0.3032    0.6505 H   0  0  0  0  0  0  0  0  0  0  0  0
   -4.1948   -1.1098    1.9940 H   0  0  0  0  0  0  0  0  0  0  0  0
   -3.4429   -2.5664    0.0113 H   0  0  0  0  0  0  0  0  0  0  0  0
   -3.1374   -3.1706    1.6316 H   0  0  0  0  0  0  0  0  0  0  0  0
   -1.2751   -3.4738   -0.0903 H   0  0  0  0  0  0  0  0  0  0  0  0
   -0.8026   -2.8994    1.4949 H   0  0  0  0  0  0  0  0  0  0  0  0
   -1.2382   -0.8959   -0.7887 H   0  0  0  0  0  0  0  0  0  0  0  0
    0.2630   -1.8084   -0.6155 H   0  0  0  0  0  0  0  0  0  0  0  0
    2.0515    2.8779    0.8516 H   0  0  0  0  0  0  0  0  0  0  0  0
    3.2701    4.8052   -0.1151 H   0  0  0  0  0  0  0  0  0  0  0  0
    4.9576    4.4153   -1.9287 H   0  0  0  0  0  0  0  0  0  0  0  0
    5.3748    2.0861   -2.7307 H   0  0  0  0  0  0  0  0  0  0  0  0
    4.0698   -1.1946   -0.2640 H   0  0  0  0  0  0  0  0  0  0  0  0
    5.5653   -2.3968   -2.5143 H   0  0  0  0  0  0  0  0  0  0  0  0
    4.7118   -3.4111    0.2503 H   0  0  0  0  0  0  0  0  0  0  0  0
    6.3010   -2.8146   -0.2310 H   0  0  0  0  0  0  0  0  0  0  0  0
    6.4493   -5.1821   -0.0459 H   0  0  0  0  0  0  0  0  0  0  0  0
    6.5455   -4.8438   -1.7686 H   0  0  0  0  0  0  0  0  0  0  0  0
    3.8982   -5.5539   -0.3939 H   0  0  0  0  0  0  0  0  0  0  0  0
    5.0106   -6.8235   -0.8709 H   0  0  0  0  0  0  0  0  0  0  0  0
    3.0756   -6.2748   -2.4756 H   0  0  0  0  0  0  0  0  0  0  0  0
    4.6682   -6.5290   -3.1713 H   0  0  0  0  0  0  0  0  0  0  0  0
    3.2851   -4.6034   -4.1196 H   0  0  0  0  0  0  0  0  0  0  0  0
    4.9693   -4.2720   -3.7754 H   0  0  0  0  0  0  0  0  0  0  0  0
    2.8201   -3.5016   -1.7233 H   0  0  0  0  0  0  0  0  0  0  0  0
    3.1872   -2.4970   -3.1337 H   0  0  0  0  0  0  0  0  0  0  0  0
  1  2  2  0
  2  3  1  0
  2 11  1  0
  3  4  1  0
  3 27  1  0
  4  5  1  0
  4 10  1  0
  4 28  1  1
  5  6  1  0
  5 29  1  0
  5 30  1  0
  6  7  1  0
  6 31  1  0
  6 32  1  0
  7  8  1  0
  7 33  1  0
  7 34  1  0
  8  9  1  0
  8 35  1  0
  8 36  1  0
  9 10  1  0
  9 37  1  0
  9 38  1  0
 10 39  1  0
 10 40  1  0
 11 12  2  0
 11 16  1  0
 12 13  1  0
 12 41  1  0
 13 14  2  0
 13 42  1  0
 14 15  1  0
 14 43  1  0
 15 16  2  0
 15 44  1  0
 16 17  1  0
 17 18  2  0
 17 19  1  0
 19 20  1  0
 19 45  1  0
 20 21  1  0
 20 26  1  0
 20 46  1  6
 21 22  1  0
 21 47  1  0
 21 48  1  0
 22 23  1  0
 22 49  1  0
 22 50  1  0
 23 24  1  0
 23 51  1  0
 23 52  1  0
 24 25  1  0
 24 53  1  0
 24 54  1  0
 25 26  1  0
 25 55  1  0
 25 56  1  0
 26 57  1  0
 26 58  1  0
M  END

