
     RDKit          3D

 45 45  0  0  0  0  0  0  0  0999 V2000
    6.1884    1.8735    0.9271 C   0  0  0  0  0  0  0  0  0  0  0  0
    5.0295    0.9426    0.5872 C   0  0  0  0  0  0  0  0  0  0  0  0
    5.3714    0.0611   -0.5204 N   0  0  0  0  0  0  0  0  0  0  0  0
    4.4130   -1.0102   -0.8072 C   0  0  1  0  0  0  0  0  0  0  0  0
    3.0710   -0.4228   -1.3073 C   0  0  0  0  0  0  0  0  0  0  0  0
    3.1209    0.4995   -2.5270 C   0  0  0  0  0  0  0  0  0  0  0  0
    5.0404   -2.1200   -1.7250 C   0  0  1  0  0  0  0  0  0  0  0  0
    5.2611   -1.6662   -3.0652 O   0  0  0  0  0  0  0  0  0  0  0  0
    6.3338   -0.7909   -3.3794 C   0  0  0  0  0  0  0  0  0  0  0  0
    6.3134   -0.5549   -4.8805 C   0  0  0  0  0  0  0  0  0  0  0  0
    6.3420   -2.7136   -1.1229 C   0  0  0  0  0  0  0  0  0  0  0  0
    6.1181   -3.5323    0.1587 C   0  0  0  0  0  0  0  0  0  0  0  0
    5.1092   -4.6848   -0.0246 C   0  0  2  0  0  0  0  0  0  0  0  0
    5.7004   -5.8619   -0.8148 C   0  0  0  0  0  0  0  0  0  0  0  0
    3.8102   -4.1425   -0.6569 C   0  0  0  0  0  0  0  0  0  0  0  0
    4.0641   -3.3056   -1.9173 C   0  0  0  0  0  0  0  0  0  0  0  0
    5.9178    2.5578    1.7463 H   0  0  0  0  0  0  0  0  0  0  0  0
    6.4746    2.4764    0.0509 H   0  0  0  0  0  0  0  0  0  0  0  0
    7.0779    1.3054    1.2509 H   0  0  0  0  0  0  0  0  0  0  0  0
    4.1521    1.5506    0.3102 H   0  0  0  0  0  0  0  0  0  0  0  0
    4.7283    0.3744    1.4990 H   0  0  0  0  0  0  0  0  0  0  0  0
    6.2890   -0.3385   -0.3403 H   0  0  0  0  0  0  0  0  0  0  0  0
    4.1527   -1.5336    0.1401 H   0  0  0  0  0  0  0  0  0  0  0  0
    2.6237    0.1284   -0.4623 H   0  0  0  0  0  0  0  0  0  0  0  0
    2.3726   -1.2531   -1.4944 H   0  0  0  0  0  0  0  0  0  0  0  0
    3.8311    1.3257   -2.3697 H   0  0  0  0  0  0  0  0  0  0  0  0
    2.1276    0.9386   -2.7166 H   0  0  0  0  0  0  0  0  0  0  0  0
    3.4347   -0.0462   -3.4266 H   0  0  0  0  0  0  0  0  0  0  0  0
    7.3049   -1.2405   -3.0944 H   0  0  0  0  0  0  0  0  0  0  0  0
    6.2372    0.1593   -2.8287 H   0  0  0  0  0  0  0  0  0  0  0  0
    6.3935   -1.5091   -5.4247 H   0  0  0  0  0  0  0  0  0  0  0  0
    7.1555    0.0898   -5.1793 H   0  0  0  0  0  0  0  0  0  0  0  0
    5.3774   -0.0644   -5.1902 H   0  0  0  0  0  0  0  0  0  0  0  0
    7.1006   -1.9378   -0.9314 H   0  0  0  0  0  0  0  0  0  0  0  0
    6.7799   -3.3564   -1.9045 H   0  0  0  0  0  0  0  0  0  0  0  0
    5.7623   -2.8661    0.9636 H   0  0  0  0  0  0  0  0  0  0  0  0
    7.0853   -3.9338    0.5069 H   0  0  0  0  0  0  0  0  0  0  0  0
    4.8586   -5.0690    0.9802 H   0  0  0  0  0  0  0  0  0  0  0  0
    5.9781   -5.5841   -1.8440 H   0  0  0  0  0  0  0  0  0  0  0  0
    4.9771   -6.6906   -0.8842 H   0  0  0  0  0  0  0  0  0  0  0  0
    6.6070   -6.2515   -0.3234 H   0  0  0  0  0  0  0  0  0  0  0  0
    3.2702   -3.5382    0.0921 H   0  0  0  0  0  0  0  0  0  0  0  0
    3.1376   -4.9810   -0.9065 H   0  0  0  0  0  0  0  0  0  0  0  0
    3.1163   -2.9409   -2.3389 H   0  0  0  0  0  0  0  0  0  0  0  0
    4.5118   -3.9323   -2.7044 H   0  0  0  0  0  0  0  0  0  0  0  0
  1  2  1  0
  1 17  1  0
  1 18  1  0
  1 19  1  0
  2  3  1  0
  2 20  1  0
  2 21  1  0
  3  4  1  0
  3 22  1  0
  4  5  1  0
  4  7  1  0
  4 23  1  1
  5  6  1  0
  5 24  1  0
  5 25  1  0
  6 26  1  0
  6 27  1  0
  6 28  1  0
  7  8  1  6
  7 11  1  0
  7 16  1  0
  8  9  1  0
  9 10  1  0
  9 29  1  0
  9 30  1  0
 10 31  1  0
 10 32  1  0
 10 33  1  0
 11 12  1  0
 11 34  1  0
 11 35  1  0
 12 13  1  0
 12 36  1  0
 12 37  1  0
 13 14  1  0
 13 15  1  0
 13 38  1  1
 14 39  1  0
 14 40  1  0
 14 41  1  0
 15 16  1  0
 15 42  1  0
 15 43  1  0
 16 44  1  0
 16 45  1  0
M  END

