
     RDKit          3D

 30 31  0  0  0  0  0  0  0  0999 V2000
    0.9677    0.2890    0.0643 C   0  0  0  0  0  0  0  0  0  0  0  0
    2.4537   -0.0697   -0.0546 C   0  0  1  0  0  0  0  0  0  0  0  0
    2.7443   -1.5632   -0.3414 C   0  0  1  0  0  0  0  0  0  0  0  0
    1.9597   -2.7680    1.0426 Br  0  0  0  0  0  0  0  0  0  0  0  0
    2.3139   -1.9938   -1.7410 C   0  0  0  0  0  0  0  0  0  0  0  0
    2.9832   -1.0806   -2.7840 C   0  0  0  0  0  0  0  0  0  0  0  0
    2.7446    0.4004   -2.4451 C   0  0  0  0  0  0  0  0  0  0  0  0
    3.1243    0.7497   -1.0764 N   0  0  0  0  0  0  0  0  0  0  0  0
    4.5418    1.0172   -0.8567 C   0  0  0  0  0  0  0  0  0  0  0  0
    5.0091    2.3238   -1.4713 C   0  0  1  0  0  0  0  0  0  0  0  0
    6.4855    2.6075   -1.5835 C   0  0  0  0  0  0  0  0  0  0  0  0
    5.6712    2.3744   -2.8291 C   0  0  0  0  0  0  0  0  0  0  0  0
    0.5065   -0.2393    0.9102 H   0  0  0  0  0  0  0  0  0  0  0  0
    0.3910    0.0358   -0.8378 H   0  0  0  0  0  0  0  0  0  0  0  0
    0.8753    1.3728    0.2284 H   0  0  0  0  0  0  0  0  0  0  0  0
    2.9243    0.1766    0.9102 H   0  0  0  0  0  0  0  0  0  0  0  0
    3.8223   -1.7361   -0.2177 H   0  0  0  0  0  0  0  0  0  0  0  0
    1.2163   -1.9311   -1.8297 H   0  0  0  0  0  0  0  0  0  0  0  0
    2.5841   -3.0474   -1.9111 H   0  0  0  0  0  0  0  0  0  0  0  0
    2.5981   -1.3096   -3.7923 H   0  0  0  0  0  0  0  0  0  0  0  0
    4.0677   -1.2882   -2.8106 H   0  0  0  0  0  0  0  0  0  0  0  0
    1.6755    0.6357   -2.5885 H   0  0  0  0  0  0  0  0  0  0  0  0
    3.2937    1.0527   -3.1385 H   0  0  0  0  0  0  0  0  0  0  0  0
    5.2155    0.2031   -1.2115 H   0  0  0  0  0  0  0  0  0  0  0  0
    4.6930    1.0763    0.2344 H   0  0  0  0  0  0  0  0  0  0  0  0
    4.3667    3.1730   -1.2131 H   0  0  0  0  0  0  0  0  0  0  0  0
    7.1816    1.8207   -1.2747 H   0  0  0  0  0  0  0  0  0  0  0  0
    6.8369    3.6204   -1.3684 H   0  0  0  0  0  0  0  0  0  0  0  0
    5.8220    1.4302   -3.3624 H   0  0  0  0  0  0  0  0  0  0  0  0
    5.4569    3.2256   -3.4819 H   0  0  0  0  0  0  0  0  0  0  0  0
  1  2  1  0
  1 13  1  0
  1 14  1  0
  1 15  1  0
  2  3  1  0
  2  8  1  0
  2 16  1  1
  3  4  1  0
  3  5  1  0
  3 17  1  6
  5  6  1  0
  5 18  1  0
  5 19  1  0
  6  7  1  0
  6 20  1  0
  6 21  1  0
  7  8  1  0
  7 22  1  0
  7 23  1  0
  8  9  1  0
  9 10  1  0
  9 24  1  0
  9 25  1  0
 10 11  1  0
 10 12  1  0
 10 26  1  6
 11 12  1  0
 11 27  1  0
 11 28  1  0
 12 29  1  0
 12 30  1  0
M  END

