
     RDKit          3D

 44 45  0  0  0  0  0  0  0  0999 V2000
    0.6952   -1.5374    0.9949 C   0  0  0  0  0  0  0  0  0  0  0  0
    1.8367   -0.8178    0.5589 O   0  0  0  0  0  0  0  0  0  0  0  0
    2.8478   -0.5258    1.4170 C   0  0  0  0  0  0  0  0  0  0  0  0
    4.1275   -0.3511    0.8656 C   0  0  0  0  0  0  0  0  0  0  0  0
    5.2260   -0.0133    1.6545 C   0  0  0  0  0  0  0  0  0  0  0  0
    5.0974    0.1568    3.0440 C   0  0  0  0  0  0  0  0  0  0  0  0
    6.2707    0.5177    3.9339 C   0  0  0  0  0  0  0  0  0  0  0  0
    7.0775   -0.7097    4.4466 C   0  0  1  0  0  0  0  0  0  0  0  0
    8.4739   -0.7956    3.7902 C   0  0  0  0  0  0  0  0  0  0  0  0
    8.4001   -0.7584    2.3364 N   0  0  0  0  0  0  0  0  0  0  0  0
    7.2762   -0.6332    5.9708 C   0  0  0  0  0  0  0  0  0  0  0  0
    7.3384    0.4581    6.5205 O   0  0  0  0  0  0  0  0  0  0  0  0
    7.4196   -1.8036    6.6846 N   0  0  0  0  0  0  0  0  0  0  0  0
    7.3561   -3.1666    6.1667 C   0  0  0  0  0  0  0  0  0  0  0  0
    8.5989   -3.9752    6.5662 C   0  0  0  0  0  0  0  0  0  0  0  0
    8.8304   -3.9326    8.0810 C   0  0  0  0  0  0  0  0  0  0  0  0
    8.8561   -2.4840    8.5825 C   0  0  0  0  0  0  0  0  0  0  0  0
    7.6039   -1.7238    8.1357 C   0  0  0  0  0  0  0  0  0  0  0  0
    3.8212   -0.0151    3.5992 C   0  0  0  0  0  0  0  0  0  0  0  0
    2.7257   -0.3405    2.8041 C   0  0  0  0  0  0  0  0  0  0  0  0
    1.5183   -0.4585    3.4006 F   0  0  0  0  0  0  0  0  0  0  0  0
    0.1741   -1.8632    0.0835 H   0  0  0  0  0  0  0  0  0  0  0  0
    0.0160   -0.9154    1.5978 H   0  0  0  0  0  0  0  0  0  0  0  0
    0.9770   -2.4276    1.5836 H   0  0  0  0  0  0  0  0  0  0  0  0
    4.2261   -0.4860   -0.2140 H   0  0  0  0  0  0  0  0  0  0  0  0
    6.2127    0.0968    1.2019 H   0  0  0  0  0  0  0  0  0  0  0  0
    5.9058    1.0816    4.8027 H   0  0  0  0  0  0  0  0  0  0  0  0
    6.9498    1.1944    3.3940 H   0  0  0  0  0  0  0  0  0  0  0  0
    6.5127   -1.6191    4.1879 H   0  0  0  0  0  0  0  0  0  0  0  0
    9.0082   -1.6839    4.1909 H   0  0  0  0  0  0  0  0  0  0  0  0
    9.0495    0.0834    4.1267 H   0  0  0  0  0  0  0  0  0  0  0  0
    7.9667   -1.6063    1.9687 H   0  0  0  0  0  0  0  0  0  0  0  0
    9.3323   -0.7034    1.9279 H   0  0  0  0  0  0  0  0  0  0  0  0
    7.2476   -3.1559    5.0770 H   0  0  0  0  0  0  0  0  0  0  0  0
    6.4530   -3.6650    6.5732 H   0  0  0  0  0  0  0  0  0  0  0  0
    9.4777   -3.5555    6.0452 H   0  0  0  0  0  0  0  0  0  0  0  0
    8.4824   -5.0145    6.2157 H   0  0  0  0  0  0  0  0  0  0  0  0
    9.7650   -4.4554    8.3432 H   0  0  0  0  0  0  0  0  0  0  0  0
    8.0139   -4.4795    8.5884 H   0  0  0  0  0  0  0  0  0  0  0  0
    9.7484   -1.9674    8.1873 H   0  0  0  0  0  0  0  0  0  0  0  0
    8.9291   -2.4524    9.6824 H   0  0  0  0  0  0  0  0  0  0  0  0
    7.6541   -0.6615    8.4008 H   0  0  0  0  0  0  0  0  0  0  0  0
    6.7121   -2.1567    8.6308 H   0  0  0  0  0  0  0  0  0  0  0  0
    3.6450    0.1210    4.6693 H   0  0  0  0  0  0  0  0  0  0  0  0
  1  2  1  0
  1 22  1  0
  1 23  1  0
  1 24  1  0
  2  3  1  0
  3  4  2  0
  3 20  1  0
  4  5  1  0
  4 25  1  0
  5  6  2  0
  5 26  1  0
  6  7  1  0
  6 19  1  0
  7  8  1  0
  7 27  1  0
  7 28  1  0
  8  9  1  0
  8 11  1  0
  8 29  1  1
  9 10  1  0
  9 30  1  0
  9 31  1  0
 10 32  1  0
 10 33  1  0
 11 12  2  0
 11 13  1  0
 13 14  1  0
 13 18  1  0
 14 15  1  0
 14 34  1  0
 14 35  1  0
 15 16  1  0
 15 36  1  0
 15 37  1  0
 16 17  1  0
 16 38  1  0
 16 39  1  0
 17 18  1  0
 17 40  1  0
 17 41  1  0
 18 42  1  0
 18 43  1  0
 19 20  2  0
 19 44  1  0
 20 21  1  0
M  END

