
     RDKit          3D

 37 36  0  0  0  0  0  0  0  0999 V2000
    1.2481   -0.0350    1.2176 C   0  0  0  0  0  0  0  0  0  0  0  0
    2.5557   -0.1482    0.4443 C   0  0  1  0  0  0  0  0  0  0  0  0
    2.3859   -0.8904   -0.8831 C   0  0  0  0  0  0  0  0  0  0  0  0
    3.0242    1.1831    0.2479 O   0  0  0  0  0  0  0  0  0  0  0  0
    4.3727    1.3221   -0.0522 C   0  0  0  0  0  0  0  0  0  0  0  0
    4.7576    2.7963   -0.1604 C   0  0  0  0  0  0  0  0  0  0  0  0
    3.9224    3.6700   -0.1939 O   0  0  0  0  0  0  0  0  0  0  0  0
    6.2589    3.0548   -0.2352 C   0  0  0  0  0  0  0  0  0  0  0  0
    6.6351    4.4509   -0.7824 C   0  0  1  0  0  0  0  0  0  0  0  0
    6.1835    5.5379    0.0850 N   0  0  0  0  0  0  0  0  0  0  0  0
    8.1524    4.6139   -1.1398 C   0  0  1  0  0  0  0  0  0  0  0  0
    8.6094    3.5082   -2.1114 C   0  0  0  0  0  0  0  0  0  0  0  0
    8.3351    5.9772   -1.8357 C   0  0  0  0  0  0  0  0  0  0  0  0
    9.0307    4.5726    0.1258 C   0  0  0  0  0  0  0  0  0  0  0  0
    0.8348   -1.0311    1.4391 H   0  0  0  0  0  0  0  0  0  0  0  0
    0.5075    0.5289    0.6287 H   0  0  0  0  0  0  0  0  0  0  0  0
    1.4084    0.5007    2.1650 H   0  0  0  0  0  0  0  0  0  0  0  0
    3.2946   -0.6965    1.0674 H   0  0  0  0  0  0  0  0  0  0  0  0
    1.6650   -0.3594   -1.5251 H   0  0  0  0  0  0  0  0  0  0  0  0
    2.0124   -1.9122   -0.7109 H   0  0  0  0  0  0  0  0  0  0  0  0
    3.3364   -0.9765   -1.4329 H   0  0  0  0  0  0  0  0  0  0  0  0
    4.6550    0.8528   -1.0213 H   0  0  0  0  0  0  0  0  0  0  0  0
    5.0257    0.8428    0.7113 H   0  0  0  0  0  0  0  0  0  0  0  0
    6.7122    2.2388   -0.8225 H   0  0  0  0  0  0  0  0  0  0  0  0
    6.6551    2.9287    0.7908 H   0  0  0  0  0  0  0  0  0  0  0  0
    6.0874    4.5729   -1.7341 H   0  0  0  0  0  0  0  0  0  0  0  0
    6.5191    5.3948    1.0387 H   0  0  0  0  0  0  0  0  0  0  0  0
    5.1655    5.5065    0.1343 H   0  0  0  0  0  0  0  0  0  0  0  0
    7.9417    3.4417   -2.9871 H   0  0  0  0  0  0  0  0  0  0  0  0
    8.6505    2.5142   -1.6384 H   0  0  0  0  0  0  0  0  0  0  0  0
    9.6226    3.7261   -2.4861 H   0  0  0  0  0  0  0  0  0  0  0  0
    7.7846    6.0073   -2.7910 H   0  0  0  0  0  0  0  0  0  0  0  0
    9.3990    6.1636   -2.0556 H   0  0  0  0  0  0  0  0  0  0  0  0
    7.9499    6.7887   -1.2041 H   0  0  0  0  0  0  0  0  0  0  0  0
    8.9358    3.6168    0.6676 H   0  0  0  0  0  0  0  0  0  0  0  0
    8.7764    5.3892    0.8198 H   0  0  0  0  0  0  0  0  0  0  0  0
   10.0939    4.6912   -0.1393 H   0  0  0  0  0  0  0  0  0  0  0  0
  1  2  1  0
  1 15  1  0
  1 16  1  0
  1 17  1  0
  2  3  1  0
  2  4  1  0
  2 18  1  1
  3 19  1  0
  3 20  1  0
  3 21  1  0
  4  5  1  0
  5  6  1  0
  5 22  1  0
  5 23  1  0
  6  7  2  0
  6  8  1  0
  8  9  1  0
  8 24  1  0
  8 25  1  0
  9 10  1  0
  9 11  1  0
  9 26  1  6
 10 27  1  0
 10 28  1  0
 11 12  1  6
 11 13  1  0
 11 14  1  0
 12 29  1  0
 12 30  1  0
 12 31  1  0
 13 32  1  0
 13 33  1  0
 13 34  1  0
 14 35  1  0
 14 36  1  0
 14 37  1  0
M  END

