
     RDKit          3D

 42 45  0  0  0  0  0  0  0  0999 V2000
    3.3822    2.5222    1.2100 C   0  0  0  0  0  0  0  0  0  0  0  0
    2.6151    1.3358    1.2254 O   0  0  0  0  0  0  0  0  0  0  0  0
    3.2163    0.1583    1.5042 C   0  0  0  0  0  0  0  0  0  0  0  0
    4.5831    0.0038    1.7721 C   0  0  0  0  0  0  0  0  0  0  0  0
    5.1003   -1.2562    2.0762 C   0  0  0  0  0  0  0  0  0  0  0  0
    4.2859   -2.4000    2.0951 C   0  0  0  0  0  0  0  0  0  0  0  0
    4.9243   -3.6655    2.4758 C   0  0  0  0  0  0  0  0  0  0  0  0
    4.5911   -4.9073    2.4344 N   0  0  0  0  0  0  0  0  0  0  0  0
    3.4265   -5.2996    1.7677 N   0  0  0  0  0  0  0  0  0  0  0  0
    2.6459   -6.2223    2.4477 C   0  0  0  0  0  0  0  0  0  0  0  0
    1.6135   -6.8344    1.9651 N   0  0  0  0  0  0  0  0  0  0  0  0
    1.3333   -6.5663    0.6544 C   0  0  0  0  0  0  0  0  0  0  0  0
    2.1135   -5.7126   -0.1288 C   0  0  0  0  0  0  0  0  0  0  0  0
    1.6129   -5.6618   -1.4090 N   0  0  0  0  0  0  0  0  0  0  0  0
    2.0257   -5.1207   -2.1578 H   0  0  0  0  0  0  0  0  0  0  0  0
    0.5005   -6.4758   -1.4824 C   0  0  0  0  0  0  0  0  0  0  0  0
   -0.3477   -6.7526   -2.5656 C   0  0  0  0  0  0  0  0  0  0  0  0
   -1.4085   -7.6266   -2.3469 C   0  0  0  0  0  0  0  0  0  0  0  0
   -1.6323   -8.2194   -1.0832 C   0  0  0  0  0  0  0  0  0  0  0  0
   -0.7936   -7.9469   -0.0085 C   0  0  0  0  0  0  0  0  0  0  0  0
    0.2856   -7.0671   -0.2002 C   0  0  0  0  0  0  0  0  0  0  0  0
    3.2677   -5.0184    0.3737 C   0  0  0  0  0  0  0  0  0  0  0  0
    4.0182   -4.2828   -0.2465 O   0  0  0  0  0  0  0  0  0  0  0  0
    2.9101   -2.2331    1.8248 C   0  0  0  0  0  0  0  0  0  0  0  0
    2.3719   -0.9853    1.5405 C   0  0  0  0  0  0  0  0  0  0  0  0
    1.0251   -0.8706    1.3599 O   0  0  0  0  0  0  0  0  0  0  0  0
    0.5711   -0.5611    0.0495 C   0  0  0  0  0  0  0  0  0  0  0  0
    2.6868    3.3388    0.9760 H   0  0  0  0  0  0  0  0  0  0  0  0
    4.1717    2.4892    0.4385 H   0  0  0  0  0  0  0  0  0  0  0  0
    3.8481    2.7173    2.1919 H   0  0  0  0  0  0  0  0  0  0  0  0
    5.2498    0.8659    1.7605 H   0  0  0  0  0  0  0  0  0  0  0  0
    6.1661   -1.3518    2.2988 H   0  0  0  0  0  0  0  0  0  0  0  0
    5.9034   -3.5315    2.9592 H   0  0  0  0  0  0  0  0  0  0  0  0
    2.9756   -6.3915    3.4772 H   0  0  0  0  0  0  0  0  0  0  0  0
   -0.1813   -6.2999   -3.5459 H   0  0  0  0  0  0  0  0  0  0  0  0
   -2.0845   -7.8606   -3.1734 H   0  0  0  0  0  0  0  0  0  0  0  0
   -2.4770   -8.9006   -0.9553 H   0  0  0  0  0  0  0  0  0  0  0  0
   -0.9579   -8.4008    0.9711 H   0  0  0  0  0  0  0  0  0  0  0  0
    2.2131   -3.0687    1.8573 H   0  0  0  0  0  0  0  0  0  0  0  0
   -0.5271   -0.5640    0.0884 H   0  0  0  0  0  0  0  0  0  0  0  0
    0.9055   -1.3244   -0.6764 H   0  0  0  0  0  0  0  0  0  0  0  0
    0.9183    0.4310   -0.2809 H   0  0  0  0  0  0  0  0  0  0  0  0
  1  2  1  0
  1 28  1  0
  1 29  1  0
  1 30  1  0
  2  3  1  0
  3  4  2  0
  3 25  1  0
  4  5  1  0
  4 31  1  0
  5  6  2  0
  5 32  1  0
  6  7  1  0
  6 24  1  0
  7  8  2  0
  7 33  1  0
  8  9  1  0
  9 10  1  0
  9 22  1  0
 10 11  2  0
 10 34  1  0
 11 12  1  0
 12 13  2  0
 12 21  1  0
 13 14  1  0
 13 22  1  0
 14 15  1  0
 14 16  1  0
 16 17  1  0
 16 21  2  0
 17 18  2  0
 17 35  1  0
 18 19  1  0
 18 36  1  0
 19 20  2  0
 19 37  1  0
 20 21  1  0
 20 38  1  0
 22 23  2  0
 24 25  2  0
 24 39  1  0
 25 26  1  0
 26 27  1  0
 27 40  1  0
 27 41  1  0
 27 42  1  0
M  END

