
     RDKit          3D

 44 45  0  0  0  0  0  0  0  0999 V2000
    1.9220    1.0045   -2.1644 C   0  0  0  0  0  0  0  0  0  0  0  0
    2.6910    0.4237   -0.9805 C   0  0  1  0  0  0  0  0  0  0  0  0
    1.8488    0.3347    0.3155 C   0  0  0  0  0  0  0  0  0  0  0  0
    1.5349    1.6273    0.8974 N   0  0  0  0  0  0  0  0  0  0  0  0
    2.1909    2.2914    1.8811 C   0  0  0  0  0  0  0  0  0  0  0  0
    1.6178    3.4583    2.1077 N   0  0  0  0  0  0  0  0  0  0  0  0
    0.5937    3.4662    1.2146 C   0  0  0  0  0  0  0  0  0  0  0  0
    0.5031    2.3809    0.4599 N   0  0  0  0  0  0  0  0  0  0  0  0
    3.2193   -0.8880   -1.3345 N   0  0  0  0  0  0  0  0  0  0  0  0
    4.2352   -1.4590   -0.5970 C   0  0  0  0  0  0  0  0  0  0  0  0
    4.7287   -0.8738    0.3610 O   0  0  0  0  0  0  0  0  0  0  0  0
    4.6614   -2.7223   -0.9878 N   0  0  0  0  0  0  0  0  0  0  0  0
    5.7914   -3.2965   -0.2573 C   0  0  0  0  0  0  0  0  0  0  0  0
    5.6634   -4.8211   -0.2040 C   0  0  0  0  0  0  0  0  0  0  0  0
    5.4993   -5.4152   -1.5286 N   0  0  0  0  0  0  0  0  0  0  0  0
    6.7227   -5.6555   -2.2592 C   0  0  0  0  0  0  0  0  0  0  0  0
    7.1858   -7.1014   -2.1260 C   0  0  1  0  0  0  0  0  0  0  0  0
    6.2936   -7.9657   -2.6345 F   0  0  0  0  0  0  0  0  0  0  0  0
    8.3456   -7.2818   -2.7861 F   0  0  0  0  0  0  0  0  0  0  0  0
    7.3938   -7.4440   -0.8424 F   0  0  0  0  0  0  0  0  0  0  0  0
    4.3442   -4.8382   -2.2241 C   0  0  2  0  0  0  0  0  0  0  0  0
    4.0641   -5.4736   -3.5838 C   0  0  0  0  0  0  0  0  0  0  0  0
    4.4429   -3.3005   -2.3098 C   0  0  0  0  0  0  0  0  0  0  0  0
    1.4860    1.9784   -1.9046 H   0  0  0  0  0  0  0  0  0  0  0  0
    1.0854    0.3439   -2.4527 H   0  0  0  0  0  0  0  0  0  0  0  0
    2.5845    1.1262   -3.0349 H   0  0  0  0  0  0  0  0  0  0  0  0
    3.5573    1.0624   -0.7471 H   0  0  0  0  0  0  0  0  0  0  0  0
    2.4316   -0.2244    1.0589 H   0  0  0  0  0  0  0  0  0  0  0  0
    0.9005   -0.1921    0.1282 H   0  0  0  0  0  0  0  0  0  0  0  0
    3.0639    1.8783    2.3872 H   0  0  0  0  0  0  0  0  0  0  0  0
   -0.1124    4.2912    1.1176 H   0  0  0  0  0  0  0  0  0  0  0  0
    2.6531   -1.4611   -1.9458 H   0  0  0  0  0  0  0  0  0  0  0  0
    5.8058   -2.8562    0.7471 H   0  0  0  0  0  0  0  0  0  0  0  0
    6.7456   -3.0106   -0.7468 H   0  0  0  0  0  0  0  0  0  0  0  0
    4.7844   -5.0875    0.4089 H   0  0  0  0  0  0  0  0  0  0  0  0
    6.5419   -5.2628    0.2874 H   0  0  0  0  0  0  0  0  0  0  0  0
    7.5677   -5.0231   -1.9288 H   0  0  0  0  0  0  0  0  0  0  0  0
    6.6060   -5.4720   -3.3361 H   0  0  0  0  0  0  0  0  0  0  0  0
    3.4783   -5.0524   -1.5705 H   0  0  0  0  0  0  0  0  0  0  0  0
    4.7804   -5.1527   -4.3573 H   0  0  0  0  0  0  0  0  0  0  0  0
    3.0601   -5.1899   -3.9351 H   0  0  0  0  0  0  0  0  0  0  0  0
    4.1095   -6.5694   -3.5085 H   0  0  0  0  0  0  0  0  0  0  0  0
    3.5202   -2.9113   -2.7607 H   0  0  0  0  0  0  0  0  0  0  0  0
    5.2703   -3.0223   -2.9976 H   0  0  0  0  0  0  0  0  0  0  0  0
  1  2  1  0
  1 24  1  0
  1 25  1  0
  1 26  1  0
  2  3  1  0
  2  9  1  0
  2 27  1  1
  3  4  1  0
  3 28  1  0
  3 29  1  0
  4  5  1  0
  4  8  1  0
  5  6  2  0
  5 30  1  0
  6  7  1  0
  7  8  2  0
  7 31  1  0
  9 10  1  0
  9 32  1  0
 10 11  2  0
 10 12  1  0
 12 13  1  0
 12 23  1  0
 13 14  1  0
 13 33  1  0
 13 34  1  0
 14 15  1  0
 14 35  1  0
 14 36  1  0
 15 16  1  0
 15 21  1  0
 16 17  1  0
 16 37  1  0
 16 38  1  0
 17 18  1  6
 17 19  1  0
 17 20  1  0
 21 22  1  0
 21 23  1  0
 21 39  1  1
 22 40  1  0
 22 41  1  0
 22 42  1  0
 23 43  1  0
 23 44  1  0
M  END

