
     RDKit          3D

 58 61  0  0  0  0  0  0  0  0999 V2000
    1.4178   -1.3582   -2.7031 C   0  0  0  0  0  0  0  0  0  0  0  0
    1.8945   -2.7068   -2.6546 O   0  0  0  0  0  0  0  0  0  0  0  0
    2.1694   -3.2744   -3.8408 C   0  0  0  0  0  0  0  0  0  0  0  0
    1.9805   -2.7006   -4.8916 O   0  0  0  0  0  0  0  0  0  0  0  0
    2.7142   -4.6701   -3.7677 C   0  0  0  0  0  0  0  0  0  0  0  0
    2.7958   -5.3414   -4.9994 C   0  0  0  0  0  0  0  0  0  0  0  0
    3.2913   -6.6386   -5.1045 C   0  0  0  0  0  0  0  0  0  0  0  0
    3.7333   -7.2873   -3.9498 C   0  0  0  0  0  0  0  0  0  0  0  0
    3.6779   -6.6472   -2.7110 C   0  0  0  0  0  0  0  0  0  0  0  0
    3.1685   -5.3397   -2.5977 C   0  0  0  0  0  0  0  0  0  0  0  0
    3.1069   -4.6887   -1.4186 O   0  0  0  0  0  0  0  0  0  0  0  0
    3.4987   -5.3161   -0.2064 C   0  0  0  0  0  0  0  0  0  0  0  0
    3.1811   -4.3520    0.9307 C   0  0  0  0  0  0  0  0  0  0  0  0
    1.6890   -4.0129    1.0564 C   0  0  0  0  0  0  0  0  0  0  0  0
    0.8276   -5.1221    1.6804 C   0  0  0  0  0  0  0  0  0  0  0  0
   -0.6817   -4.9127    1.4825 C   0  0  0  0  0  0  0  0  0  0  0  0
   -1.1623   -5.3856    0.1001 C   0  0  0  0  0  0  0  0  0  0  0  0
   -2.5406   -5.0534   -0.2012 N   0  0  0  0  0  0  0  0  0  0  0  0
   -3.6594   -5.7445    0.2565 C   0  0  0  0  0  0  0  0  0  0  0  0
   -3.7296   -6.9035    1.0394 C   0  0  0  0  0  0  0  0  0  0  0  0
   -4.9948   -7.4081    1.3499 C   0  0  0  0  0  0  0  0  0  0  0  0
   -6.1657   -6.7751    0.8953 C   0  0  0  0  0  0  0  0  0  0  0  0
   -6.0925   -5.6200    0.1150 C   0  0  0  0  0  0  0  0  0  0  0  0
   -4.8357   -5.0931   -0.2124 C   0  0  0  0  0  0  0  0  0  0  0  0
   -4.3901   -3.9515   -0.9874 C   0  0  0  0  0  0  0  0  0  0  0  0
   -5.0407   -2.9422   -1.7073 C   0  0  0  0  0  0  0  0  0  0  0  0
   -4.2890   -1.9747   -2.3721 C   0  0  0  0  0  0  0  0  0  0  0  0
   -2.8788   -2.0071   -2.3252 C   0  0  0  0  0  0  0  0  0  0  0  0
   -2.1219   -1.0747   -2.9710 O   0  0  0  0  0  0  0  0  0  0  0  0
   -2.1994   -2.9996   -1.6122 C   0  0  0  0  0  0  0  0  0  0  0  0
   -2.9657   -3.9653   -0.9503 C   0  0  0  0  0  0  0  0  0  0  0  0
    1.3934   -1.0120   -1.6620 H   0  0  0  0  0  0  0  0  0  0  0  0
    0.4075   -1.3104   -3.1349 H   0  0  0  0  0  0  0  0  0  0  0  0
    2.0929   -0.7287   -3.3013 H   0  0  0  0  0  0  0  0  0  0  0  0
    2.4523   -4.7978   -5.8811 H   0  0  0  0  0  0  0  0  0  0  0  0
    3.3359   -7.1359   -6.0756 H   0  0  0  0  0  0  0  0  0  0  0  0
    4.1321   -8.3038   -4.0062 H   0  0  0  0  0  0  0  0  0  0  0  0
    4.0402   -7.1701   -1.8267 H   0  0  0  0  0  0  0  0  0  0  0  0
    4.5796   -5.5485   -0.2294 H   0  0  0  0  0  0  0  0  0  0  0  0
    2.9565   -6.2720   -0.0830 H   0  0  0  0  0  0  0  0  0  0  0  0
    3.7571   -3.4280    0.7582 H   0  0  0  0  0  0  0  0  0  0  0  0
    3.5612   -4.7905    1.8705 H   0  0  0  0  0  0  0  0  0  0  0  0
    1.3194   -3.7511    0.0514 H   0  0  0  0  0  0  0  0  0  0  0  0
    1.5767   -3.1004    1.6666 H   0  0  0  0  0  0  0  0  0  0  0  0
    1.0549   -5.1861    2.7583 H   0  0  0  0  0  0  0  0  0  0  0  0
    1.1071   -6.1076    1.2630 H   0  0  0  0  0  0  0  0  0  0  0  0
   -0.9334   -3.8453    1.6066 H   0  0  0  0  0  0  0  0  0  0  0  0
   -1.2476   -5.4536    2.2584 H   0  0  0  0  0  0  0  0  0  0  0  0
   -1.0423   -6.4798    0.0215 H   0  0  0  0  0  0  0  0  0  0  0  0
   -0.5315   -4.9545   -0.6917 H   0  0  0  0  0  0  0  0  0  0  0  0
   -2.8290   -7.4037    1.4008 H   0  0  0  0  0  0  0  0  0  0  0  0
   -5.0734   -8.3120    1.9594 H   0  0  0  0  0  0  0  0  0  0  0  0
   -7.1407   -7.1933    1.1565 H   0  0  0  0  0  0  0  0  0  0  0  0
   -7.0054   -5.1331   -0.2380 H   0  0  0  0  0  0  0  0  0  0  0  0
   -6.1320   -2.9086   -1.7544 H   0  0  0  0  0  0  0  0  0  0  0  0
   -4.7889   -1.1823   -2.9377 H   0  0  0  0  0  0  0  0  0  0  0  0
   -2.6984   -0.4708   -3.4567 H   0  0  0  0  0  0  0  0  0  0  0  0
   -1.1095   -3.0004   -1.6025 H   0  0  0  0  0  0  0  0  0  0  0  0
  1  2  1  0
  1 32  1  0
  1 33  1  0
  1 34  1  0
  2  3  1  0
  3  4  2  0
  3  5  1  0
  5  6  2  0
  5 10  1  0
  6  7  1  0
  6 35  1  0
  7  8  2  0
  7 36  1  0
  8  9  1  0
  8 37  1  0
  9 10  2  0
  9 38  1  0
 10 11  1  0
 11 12  1  0
 12 13  1  0
 12 39  1  0
 12 40  1  0
 13 14  1  0
 13 41  1  0
 13 42  1  0
 14 15  1  0
 14 43  1  0
 14 44  1  0
 15 16  1  0
 15 45  1  0
 15 46  1  0
 16 17  1  0
 16 47  1  0
 16 48  1  0
 17 18  1  0
 17 49  1  0
 17 50  1  0
 18 19  1  0
 18 31  1  0
 19 20  2  0
 19 24  1  0
 20 21  1  0
 20 51  1  0
 21 22  2  0
 21 52  1  0
 22 23  1  0
 22 53  1  0
 23 24  2  0
 23 54  1  0
 24 25  1  0
 25 26  1  0
 25 31  2  0
 26 27  2  0
 26 55  1  0
 27 28  1  0
 27 56  1  0
 28 29  1  0
 28 30  2  0
 29 57  1  0
 30 31  1  0
 30 58  1  0
M  END

