
     RDKit          3D

 36 37  0  0  0  0  0  0  0  0999 V2000
    1.2936   -0.1786   -0.2279 C   0  0  0  0  0  0  0  0  0  0  0  0
    2.7622    0.0946    0.0896 C   0  0  1  0  0  0  0  0  0  0  0  0
    3.0716    1.0171    1.3104 C   0  0  1  0  0  0  0  0  0  0  0  0
    2.0273    1.0343    2.4162 C   0  0  1  0  0  0  0  0  0  0  0  0
    1.7263   -0.1947    2.8756 F   0  0  0  0  0  0  0  0  0  0  0  0
    2.4710    1.7498    3.4698 F   0  0  0  0  0  0  0  0  0  0  0  0
    0.8746    1.6080    2.0210 F   0  0  0  0  0  0  0  0  0  0  0  0
    4.4373    0.5057    1.8471 C   0  0  0  0  0  0  0  0  0  0  0  0
    4.8253   -0.6276    0.8915 C   0  0  0  0  0  0  0  0  0  0  0  0
    3.5470   -1.1076    0.3862 N   0  0  0  0  0  0  0  0  0  0  0  0
    3.6478   -2.1097   -0.6543 C   0  0  0  0  0  0  0  0  0  0  0  0
    4.1097   -3.4610   -0.1376 C   0  0  0  0  0  0  0  0  0  0  0  0
    3.7049   -3.9169    1.1262 C   0  0  0  0  0  0  0  0  0  0  0  0
    4.0881   -5.1786    1.5811 C   0  0  0  0  0  0  0  0  0  0  0  0
    4.8859   -6.0170    0.7846 C   0  0  0  0  0  0  0  0  0  0  0  0
    5.3212   -7.3924    1.2061 C   0  0  0  0  0  0  0  0  0  0  0  0
    5.7280   -8.2207    0.4342 O   0  0  0  0  0  0  0  0  0  0  0  0
    5.2430   -7.6735    2.5278 O   0  0  0  0  0  0  0  0  0  0  0  0
    5.2764   -5.5679   -0.4859 C   0  0  0  0  0  0  0  0  0  0  0  0
    4.9022   -4.3023   -0.9335 C   0  0  0  0  0  0  0  0  0  0  0  0
    0.7428    0.7653   -0.3427 H   0  0  0  0  0  0  0  0  0  0  0  0
    0.8142   -0.7654    0.5682 H   0  0  0  0  0  0  0  0  0  0  0  0
    1.1932   -0.7307   -1.1743 H   0  0  0  0  0  0  0  0  0  0  0  0
    3.1999    0.6190   -0.7932 H   0  0  0  0  0  0  0  0  0  0  0  0
    3.1366    2.0621    0.9730 H   0  0  0  0  0  0  0  0  0  0  0  0
    4.3284    0.1223    2.8709 H   0  0  0  0  0  0  0  0  0  0  0  0
    5.1923    1.3032    1.8769 H   0  0  0  0  0  0  0  0  0  0  0  0
    5.3873   -1.4347    1.3854 H   0  0  0  0  0  0  0  0  0  0  0  0
    5.4641   -0.2404    0.0636 H   0  0  0  0  0  0  0  0  0  0  0  0
    4.3168   -1.7862   -1.4851 H   0  0  0  0  0  0  0  0  0  0  0  0
    2.6508   -2.2482   -1.1039 H   0  0  0  0  0  0  0  0  0  0  0  0
    3.0874   -3.2640    1.7466 H   0  0  0  0  0  0  0  0  0  0  0  0
    3.7256   -5.5108    2.5592 H   0  0  0  0  0  0  0  0  0  0  0  0
    5.0251   -6.8769    3.0309 H   0  0  0  0  0  0  0  0  0  0  0  0
    5.8830   -6.2306   -1.1060 H   0  0  0  0  0  0  0  0  0  0  0  0
    5.2299   -3.9606   -1.9196 H   0  0  0  0  0  0  0  0  0  0  0  0
  1  2  1  0
  1 21  1  0
  1 22  1  0
  1 23  1  0
  2  3  1  0
  2 10  1  0
  2 24  1  6
  3  4  1  0
  3  8  1  0
  3 25  1  6
  4  5  1  1
  4  6  1  0
  4  7  1  0
  8  9  1  0
  8 26  1  0
  8 27  1  0
  9 10  1  0
  9 28  1  0
  9 29  1  0
 10 11  1  0
 11 12  1  0
 11 30  1  0
 11 31  1  0
 12 13  2  0
 12 20  1  0
 13 14  1  0
 13 32  1  0
 14 15  2  0
 14 33  1  0
 15 16  1  0
 15 19  1  0
 16 17  2  0
 16 18  1  0
 18 34  1  0
 19 20  2  0
 19 35  1  0
 20 36  1  0
M  END

