
     RDKit          3D

 35 36  0  0  0  0  0  0  0  0999 V2000
    2.2086    1.7701   -0.3499 C   0  0  0  0  0  0  0  0  0  0  0  0
    3.1911    0.7542    0.1203 C   0  0  0  0  0  0  0  0  0  0  0  0
    3.5760    0.6633    1.3711 N   0  0  0  0  0  0  0  0  0  0  0  0
    4.4708   -0.3968    1.3686 O   0  0  0  0  0  0  0  0  0  0  0  0
    4.5380   -0.8384    0.1067 C   0  0  0  0  0  0  0  0  0  0  0  0
    5.4188   -1.9981   -0.1767 C   0  0  0  0  0  0  0  0  0  0  0  0
    4.4135   -3.5559   -0.2407 S   0  0  1  0  0  0  0  0  0  0  0  0
    3.5368   -3.5552    0.9373 O   0  0  0  0  0  0  0  0  0  0  0  0
    3.8763   -3.6998   -1.5920 O   0  0  0  0  0  0  0  0  0  0  0  0
    5.7186   -4.8500   -0.0054 C   0  0  0  0  0  0  0  0  0  0  0  0
    5.1383   -6.2308   -0.1251 C   0  0  0  0  0  0  0  0  0  0  0  0
    5.0603   -6.8215   -1.3458 C   0  0  0  0  0  0  0  0  0  0  0  0
    4.4881   -8.1480   -1.5161 C   0  0  0  0  0  0  0  0  0  0  0  0
    4.3938   -8.7251   -2.5830 O   0  0  0  0  0  0  0  0  0  0  0  0
    4.0420   -8.7396   -0.3108 N   0  0  0  0  0  0  0  0  0  0  0  0
    3.4524  -10.0774   -0.3629 C   0  0  0  0  0  0  0  0  0  0  0  0
    4.1208   -8.1614    0.9499 C   0  0  0  0  0  0  0  0  0  0  0  0
    3.7345   -8.7423    1.9449 O   0  0  0  0  0  0  0  0  0  0  0  0
    4.6735   -6.8663    1.0128 N   0  0  0  0  0  0  0  0  0  0  0  0
    4.7538   -6.2519    2.3414 C   0  0  0  0  0  0  0  0  0  0  0  0
    3.7812   -0.1751   -0.7103 N   0  0  0  0  0  0  0  0  0  0  0  0
    1.8880    2.4061    0.4851 H   0  0  0  0  0  0  0  0  0  0  0  0
    1.3296    1.2710   -0.7863 H   0  0  0  0  0  0  0  0  0  0  0  0
    2.6565    2.3965   -1.1367 H   0  0  0  0  0  0  0  0  0  0  0  0
    6.1615   -2.1199    0.6229 H   0  0  0  0  0  0  0  0  0  0  0  0
    5.8962   -1.9012   -1.1602 H   0  0  0  0  0  0  0  0  0  0  0  0
    6.1905   -4.6498    0.9643 H   0  0  0  0  0  0  0  0  0  0  0  0
    6.4391   -4.6737   -0.8144 H   0  0  0  0  0  0  0  0  0  0  0  0
    5.4075   -6.3163   -2.2448 H   0  0  0  0  0  0  0  0  0  0  0  0
    3.4515  -10.3932   -1.4110 H   0  0  0  0  0  0  0  0  0  0  0  0
    2.4281  -10.0551    0.0354 H   0  0  0  0  0  0  0  0  0  0  0  0
    4.0396  -10.7760    0.2504 H   0  0  0  0  0  0  0  0  0  0  0  0
    4.1952   -6.8950    3.0287 H   0  0  0  0  0  0  0  0  0  0  0  0
    4.3033   -5.2512    2.3250 H   0  0  0  0  0  0  0  0  0  0  0  0
    5.7987   -6.1973    2.6904 H   0  0  0  0  0  0  0  0  0  0  0  0
  1  2  1  0
  1 22  1  0
  1 23  1  0
  1 24  1  0
  2  3  2  0
  2 21  1  0
  3  4  1  0
  4  5  1  0
  5  6  1  0
  5 21  2  0
  7  6  1  6
  6 25  1  0
  6 26  1  0
  7  8  2  0
  7  9  2  0
  7 10  1  0
 10 11  1  0
 10 27  1  0
 10 28  1  0
 11 12  2  0
 11 19  1  0
 12 13  1  0
 12 29  1  0
 13 14  2  0
 13 15  1  0
 15 16  1  0
 15 17  1  0
 16 30  1  0
 16 31  1  0
 16 32  1  0
 17 18  2  0
 17 19  1  0
 19 20  1  0
 20 33  1  0
 20 34  1  0
 20 35  1  0
M  END

