
     RDKit          3D

 37 38  0  0  0  0  0  0  0  0999 V2000
    2.4586    1.0094   -1.4272 C   0  0  0  0  0  0  0  0  0  0  0  0
    2.8630    0.4627   -0.1882 O   0  0  0  0  0  0  0  0  0  0  0  0
    3.1641    1.2718    0.8818 C   0  0  0  0  0  0  0  0  0  0  0  0
    3.1549    2.6684    0.7329 C   0  0  0  0  0  0  0  0  0  0  0  0
    3.5312    3.4773    1.7991 C   0  0  0  0  0  0  0  0  0  0  0  0
    3.9315    2.9094    3.0044 C   0  0  0  0  0  0  0  0  0  0  0  0
    3.9304    1.5130    3.1486 C   0  0  0  0  0  0  0  0  0  0  0  0
    4.3419    0.9194    4.2985 O   0  0  0  0  0  0  0  0  0  0  0  0
    4.8923    1.6895    5.3430 C   0  0  0  0  0  0  0  0  0  0  0  0
    3.5114    0.6445    2.1041 C   0  0  0  0  0  0  0  0  0  0  0  0
    3.4899   -0.8981    2.3518 C   0  0  1  0  0  0  0  0  0  0  0  0
    2.5729   -1.2468    3.5391 C   0  0  0  0  0  0  0  0  0  0  0  0
    2.9351   -1.6431    1.2773 O   0  0  0  0  0  0  0  0  0  0  0  0
    4.9491   -1.3858    2.5348 C   0  0  0  0  0  0  0  0  0  0  0  0
    5.4480   -1.9349    3.7230 C   0  0  0  0  0  0  0  0  0  0  0  0
    6.7656   -2.4023    3.7962 C   0  0  0  0  0  0  0  0  0  0  0  0
    7.6133   -2.3287    2.6899 C   0  0  0  0  0  0  0  0  0  0  0  0
    7.1048   -1.7820    1.5129 C   0  0  0  0  0  0  0  0  0  0  0  0
    7.9025   -1.7045    0.4320 F   0  0  0  0  0  0  0  0  0  0  0  0
    5.7985   -1.3189    1.4193 C   0  0  0  0  0  0  0  0  0  0  0  0
    2.2573    0.1557   -2.0877 H   0  0  0  0  0  0  0  0  0  0  0  0
    3.2522    1.6312   -1.8754 H   0  0  0  0  0  0  0  0  0  0  0  0
    1.5393    1.6111   -1.3254 H   0  0  0  0  0  0  0  0  0  0  0  0
    2.8682    3.1224   -0.2137 H   0  0  0  0  0  0  0  0  0  0  0  0
    3.5246    4.5639    1.6849 H   0  0  0  0  0  0  0  0  0  0  0  0
    4.2431    3.5505    3.8270 H   0  0  0  0  0  0  0  0  0  0  0  0
    5.2085    0.9772    6.1169 H   0  0  0  0  0  0  0  0  0  0  0  0
    4.1527    2.3850    5.7782 H   0  0  0  0  0  0  0  0  0  0  0  0
    5.7720    2.2658    5.0066 H   0  0  0  0  0  0  0  0  0  0  0  0
    1.5583   -0.9008    3.2948 H   0  0  0  0  0  0  0  0  0  0  0  0
    2.8856   -0.8013    4.4881 H   0  0  0  0  0  0  0  0  0  0  0  0
    2.5374   -2.3418    3.6369 H   0  0  0  0  0  0  0  0  0  0  0  0
    2.9010   -1.0916    0.4830 H   0  0  0  0  0  0  0  0  0  0  0  0
    4.8114   -2.0016    4.6049 H   0  0  0  0  0  0  0  0  0  0  0  0
    7.1368   -2.8317    4.7306 H   0  0  0  0  0  0  0  0  0  0  0  0
    8.6444   -2.6860    2.7201 H   0  0  0  0  0  0  0  0  0  0  0  0
    5.4479   -0.9178    0.4667 H   0  0  0  0  0  0  0  0  0  0  0  0
  1  2  1  0
  1 21  1  0
  1 22  1  0
  1 23  1  0
  2  3  1  0
  3  4  2  0
  3 10  1  0
  4  5  1  0
  4 24  1  0
  5  6  2  0
  5 25  1  0
  6  7  1  0
  6 26  1  0
  7  8  1  0
  7 10  2  0
  8  9  1  0
  9 27  1  0
  9 28  1  0
  9 29  1  0
 10 11  1  0
 11 12  1  0
 11 13  1  6
 11 14  1  0
 12 30  1  0
 12 31  1  0
 12 32  1  0
 13 33  1  0
 14 15  2  0
 14 20  1  0
 15 16  1  0
 15 34  1  0
 16 17  2  0
 16 35  1  0
 17 18  1  0
 17 36  1  0
 18 19  1  0
 18 20  2  0
 20 37  1  0
M  END

