
     RDKit          3D

 74 79  0  0  0  0  0  0  0  0999 V2000
    5.2540   -2.9089    9.8153 C   0  0  0  0  0  0  0  0  0  0  0  0
    5.7581   -3.0205    8.3901 C   0  0  0  0  0  0  0  0  0  0  0  0
    5.7368   -1.7195    7.8121 O   0  0  0  0  0  0  0  0  0  0  0  0
    6.1512   -1.5398    6.5415 C   0  0  0  0  0  0  0  0  0  0  0  0
    6.1048   -0.2191    6.0573 C   0  0  0  0  0  0  0  0  0  0  0  0
    6.5242    0.0315    4.7617 C   0  0  0  0  0  0  0  0  0  0  0  0
    6.4737    1.2953    4.3051 F   0  0  0  0  0  0  0  0  0  0  0  0
    6.9912   -0.9610    3.8872 C   0  0  0  0  0  0  0  0  0  0  0  0
    7.4741   -0.6437    2.4917 C   0  0  0  0  0  0  0  0  0  0  0  0
    8.8800   -0.2624    2.4270 N   0  0  0  0  0  0  0  0  0  0  0  0
    9.8157   -1.2091    2.5584 N   0  0  0  0  0  0  0  0  0  0  0  0
   11.0010   -0.6148    2.4976 C   0  0  0  0  0  0  0  0  0  0  0  0
   12.2391   -1.4040    2.6132 C   0  0  0  0  0  0  0  0  0  0  0  0
   13.4028   -0.7642    2.4549 N   0  0  0  0  0  0  0  0  0  0  0  0
   14.5209   -1.5024    2.5686 C   0  0  0  0  0  0  0  0  0  0  0  0
   15.8323   -0.7462    2.4275 C   0  0  0  0  0  0  0  0  0  0  0  0
   16.9738   -1.5979    2.1392 N   0  0  0  0  0  0  0  0  0  0  0  0
   17.1053   -1.9956    0.7340 C   0  0  0  0  0  0  0  0  0  0  0  0
   17.8109   -0.9285   -0.1086 C   0  0  0  0  0  0  0  0  0  0  0  0
   19.0666   -0.5892    0.4524 O   0  0  0  0  0  0  0  0  0  0  0  0
   18.9460   -0.1155    1.7809 C   0  0  0  0  0  0  0  0  0  0  0  0
   18.2653   -1.1619    2.6685 C   0  0  0  0  0  0  0  0  0  0  0  0
   14.4822   -2.8637    2.8374 C   0  0  0  0  0  0  0  0  0  0  0  0
   13.1994   -3.4446    2.9872 C   0  0  0  0  0  0  0  0  0  0  0  0
   13.0953   -4.7919    3.2627 N   0  0  0  0  0  0  0  0  0  0  0  0
   11.9808   -5.6013    3.4980 C   0  0  0  0  0  0  0  0  0  0  0  0
   10.6384   -5.1554    3.4726 C   0  0  0  0  0  0  0  0  0  0  0  0
    9.6454   -6.0910    3.7378 C   0  0  0  0  0  0  0  0  0  0  0  0
    9.8608   -7.3857    4.0137 N   0  0  0  0  0  0  0  0  0  0  0  0
   11.1226   -7.7938    4.0306 C   0  0  0  0  0  0  0  0  0  0  0  0
   11.3988   -9.0876    4.3000 O   0  0  0  0  0  0  0  0  0  0  0  0
   10.3056   -9.9576    4.5484 C   0  0  0  0  0  0  0  0  0  0  0  0
   12.2187   -6.9530    3.7830 C   0  0  0  0  0  0  0  0  0  0  0  0
   12.0984   -2.7105    2.8707 N   0  0  0  0  0  0  0  0  0  0  0  0
   10.8394    0.8056    2.3208 C   0  0  0  0  0  0  0  0  0  0  0  0
   11.6928    1.9198    2.1884 C   0  0  0  0  0  0  0  0  0  0  0  0
   11.1185    3.1752    2.0400 C   0  0  0  0  0  0  0  0  0  0  0  0
    9.7124    3.3438    2.0251 C   0  0  0  0  0  0  0  0  0  0  0  0
    8.8475    2.2648    2.1525 C   0  0  0  0  0  0  0  0  0  0  0  0
    9.4319    0.9931    2.2939 C   0  0  0  0  0  0  0  0  0  0  0  0
    7.0119   -2.2555    4.4121 C   0  0  0  0  0  0  0  0  0  0  0  0
    7.4278   -3.2583    3.6244 F   0  0  0  0  0  0  0  0  0  0  0  0
    6.6059   -2.5734    5.7071 C   0  0  0  0  0  0  0  0  0  0  0  0
    5.2556   -3.8995   10.2956 H   0  0  0  0  0  0  0  0  0  0  0  0
    4.2271   -2.5132    9.8356 H   0  0  0  0  0  0  0  0  0  0  0  0
    5.8953   -2.2352   10.4035 H   0  0  0  0  0  0  0  0  0  0  0  0
    5.1196   -3.7024    7.7983 H   0  0  0  0  0  0  0  0  0  0  0  0
    6.7877   -3.4226    8.3659 H   0  0  0  0  0  0  0  0  0  0  0  0
    5.7488    0.5894    6.6953 H   0  0  0  0  0  0  0  0  0  0  0  0
    6.8891    0.1820    2.0668 H   0  0  0  0  0  0  0  0  0  0  0  0
    7.3462   -1.5248    1.8491 H   0  0  0  0  0  0  0  0  0  0  0  0
   16.0099   -0.2324    3.3884 H   0  0  0  0  0  0  0  0  0  0  0  0
   15.6572    0.0640    1.6911 H   0  0  0  0  0  0  0  0  0  0  0  0
   16.1104   -2.2241    0.3196 H   0  0  0  0  0  0  0  0  0  0  0  0
   17.7012   -2.9251    0.6886 H   0  0  0  0  0  0  0  0  0  0  0  0
   17.1750   -0.0223   -0.1962 H   0  0  0  0  0  0  0  0  0  0  0  0
   18.0043   -1.2992   -1.1276 H   0  0  0  0  0  0  0  0  0  0  0  0
   18.3723    0.8361    1.7989 H   0  0  0  0  0  0  0  0  0  0  0  0
   19.9656    0.1006    2.1381 H   0  0  0  0  0  0  0  0  0  0  0  0
   18.1350   -0.7783    3.6935 H   0  0  0  0  0  0  0  0  0  0  0  0
   18.9285   -2.0444    2.7289 H   0  0  0  0  0  0  0  0  0  0  0  0
   15.4102   -3.4300    2.9289 H   0  0  0  0  0  0  0  0  0  0  0  0
   13.9835   -5.2745    3.3294 H   0  0  0  0  0  0  0  0  0  0  0  0
   10.3928   -4.1202    3.2523 H   0  0  0  0  0  0  0  0  0  0  0  0
    8.5995   -5.7642    3.7255 H   0  0  0  0  0  0  0  0  0  0  0  0
   10.7442  -10.9465    4.7390 H   0  0  0  0  0  0  0  0  0  0  0  0
    9.6244  -10.0065    3.6840 H   0  0  0  0  0  0  0  0  0  0  0  0
    9.7192   -9.6298    5.4216 H   0  0  0  0  0  0  0  0  0  0  0  0
   13.2279   -7.3696    3.8189 H   0  0  0  0  0  0  0  0  0  0  0  0
   12.7724    1.7736    2.2045 H   0  0  0  0  0  0  0  0  0  0  0  0
   11.7591    4.0545    1.9360 H   0  0  0  0  0  0  0  0  0  0  0  0
    9.2973    4.3491    1.9159 H   0  0  0  0  0  0  0  0  0  0  0  0
    7.7659    2.4055    2.1630 H   0  0  0  0  0  0  0  0  0  0  0  0
    6.6597   -3.6123    6.0260 H   0  0  0  0  0  0  0  0  0  0  0  0
  1  2  1  0
  1 44  1  0
  1 45  1  0
  1 46  1  0
  2  3  1  0
  2 47  1  0
  2 48  1  0
  3  4  1  0
  4  5  2  0
  4 43  1  0
  5  6  1  0
  5 49  1  0
  6  7  1  0
  6  8  2  0
  8  9  1  0
  8 41  1  0
  9 10  1  0
  9 50  1  0
  9 51  1  0
 10 11  1  0
 10 40  1  0
 11 12  2  0
 12 13  1  0
 12 35  1  0
 13 14  2  0
 13 34  1  0
 14 15  1  0
 15 16  1  0
 15 23  2  0
 16 17  1  0
 16 52  1  0
 16 53  1  0
 17 18  1  0
 17 22  1  0
 18 19  1  0
 18 54  1  0
 18 55  1  0
 19 20  1  0
 19 56  1  0
 19 57  1  0
 20 21  1  0
 21 22  1  0
 21 58  1  0
 21 59  1  0
 22 60  1  0
 22 61  1  0
 23 24  1  0
 23 62  1  0
 24 25  1  0
 24 34  2  0
 25 26  1  0
 25 63  1  0
 26 27  2  0
 26 33  1  0
 27 28  1  0
 27 64  1  0
 28 29  2  0
 28 65  1  0
 29 30  1  0
 30 31  1  0
 30 33  2  0
 31 32  1  0
 32 66  1  0
 32 67  1  0
 32 68  1  0
 33 69  1  0
 35 36  1  0
 35 40  2  0
 36 37  2  0
 36 70  1  0
 37 38  1  0
 37 71  1  0
 38 39  2  0
 38 72  1  0
 39 40  1  0
 39 73  1  0
 41 42  1  0
 41 43  2  0
 43 74  1  0
M  END

