
     RDKit          3D

 34 35  0  0  0  0  0  0  0  0999 V2000
    3.3794   -0.9102   -1.1519 C   0  0  0  0  0  0  0  0  0  0  0  0
    2.5797   -0.1619   -0.0830 C   0  0  0  0  0  0  0  0  0  0  0  0
    3.0454   -0.3901    1.3604 C   0  0  1  0  0  0  0  0  0  0  0  0
    2.3067    0.4774    2.3994 C   0  0  0  0  0  0  0  0  0  0  0  0
    2.5195   -0.2615    3.7250 C   0  0  0  0  0  0  0  0  0  0  0  0
    2.3203   -1.7313    3.3256 C   0  0  0  0  0  0  0  0  0  0  0  0
    2.9018   -1.8608    1.8854 C   0  0  2  0  0  0  0  0  0  0  0  0
    4.1457   -2.6129    1.8382 N   0  0  0  0  0  0  0  0  0  0  0  0
    4.3291   -3.7041    1.0194 C   0  0  0  0  0  0  0  0  0  0  0  0
    3.4699   -4.1463    0.2665 O   0  0  0  0  0  0  0  0  0  0  0  0
    5.5820   -4.2762    1.1014 N   0  0  0  0  0  0  0  0  0  0  0  0
    5.9186   -5.6042    0.5852 C   0  0  0  0  0  0  0  0  0  0  0  0
    7.0556   -5.6847    1.6415 C   0  0  0  0  0  0  0  0  0  0  0  0
    6.5211   -4.3503    2.2270 C   0  0  0  0  0  0  0  0  0  0  0  0
    3.0139   -0.6599   -2.1609 H   0  0  0  0  0  0  0  0  0  0  0  0
    3.3037   -2.0020   -1.0301 H   0  0  0  0  0  0  0  0  0  0  0  0
    4.4485   -0.6393   -1.1125 H   0  0  0  0  0  0  0  0  0  0  0  0
    1.5127   -0.4440   -0.1553 H   0  0  0  0  0  0  0  0  0  0  0  0
    2.6160    0.9234   -0.2896 H   0  0  0  0  0  0  0  0  0  0  0  0
    4.1211   -0.1344    1.4172 H   0  0  0  0  0  0  0  0  0  0  0  0
    1.2278    0.5079    2.1606 H   0  0  0  0  0  0  0  0  0  0  0  0
    2.6638    1.5197    2.4099 H   0  0  0  0  0  0  0  0  0  0  0  0
    1.8417    0.0679    4.5283 H   0  0  0  0  0  0  0  0  0  0  0  0
    3.5510   -0.0944    4.0851 H   0  0  0  0  0  0  0  0  0  0  0  0
    1.2421   -1.9614    3.3048 H   0  0  0  0  0  0  0  0  0  0  0  0
    2.7873   -2.4513    4.0145 H   0  0  0  0  0  0  0  0  0  0  0  0
    2.2125   -2.4290    1.2461 H   0  0  0  0  0  0  0  0  0  0  0  0
    4.9499   -2.2305    2.3216 H   0  0  0  0  0  0  0  0  0  0  0  0
    6.2312   -5.6150   -0.4719 H   0  0  0  0  0  0  0  0  0  0  0  0
    5.1034   -6.3367    0.7129 H   0  0  0  0  0  0  0  0  0  0  0  0
    8.0674   -5.6106    1.2199 H   0  0  0  0  0  0  0  0  0  0  0  0
    7.0120   -6.5467    2.3208 H   0  0  0  0  0  0  0  0  0  0  0  0
    7.2494   -3.5210    2.2799 H   0  0  0  0  0  0  0  0  0  0  0  0
    6.0256   -4.4445    3.2116 H   0  0  0  0  0  0  0  0  0  0  0  0
  1  2  1  0
  1 15  1  0
  1 16  1  0
  1 17  1  0
  2  3  1  0
  2 18  1  0
  2 19  1  0
  3  4  1  0
  3  7  1  0
  3 20  1  6
  4  5  1  0
  4 21  1  0
  4 22  1  0
  5  6  1  0
  5 23  1  0
  5 24  1  0
  6  7  1  0
  6 25  1  0
  6 26  1  0
  7  8  1  0
  7 27  1  6
  8  9  1  0
  8 28  1  0
  9 10  2  0
  9 11  1  0
 11 12  1  0
 11 14  1  0
 12 13  1  0
 12 29  1  0
 12 30  1  0
 13 14  1  0
 13 31  1  0
 13 32  1  0
 14 33  1  0
 14 34  1  0
M  END

