
     RDKit          3D

 43 46  0  0  0  0  0  0  0  0999 V2000
    3.3087    1.2379    0.2875 C   0  0  0  0  0  0  0  0  0  0  0  0
    2.2929    0.1018    0.1806 C   0  0  0  0  0  0  0  0  0  0  0  0
    2.6485   -1.0834    0.9505 N   0  0  0  0  0  0  0  0  0  0  0  0
    1.8890   -2.2703    0.5893 C   0  0  0  0  0  0  0  0  0  0  0  0
    2.5810   -3.5170    1.1340 C   0  0  0  0  0  0  0  0  0  0  0  0
    2.8650   -3.4112    2.6187 C   0  0  0  0  0  0  0  0  0  0  0  0
    3.0827   -4.5625    3.4228 C   0  0  0  0  0  0  0  0  0  0  0  0
    3.0793   -5.9430    2.8503 C   0  0  0  0  0  0  0  0  0  0  0  0
    2.2108   -6.9236    3.3630 C   0  0  0  0  0  0  0  0  0  0  0  0
    2.2211   -8.2273    2.8643 C   0  0  0  0  0  0  0  0  0  0  0  0
    3.1034   -8.5704    1.8443 C   0  0  0  0  0  0  0  0  0  0  0  0
    3.1107   -9.8155    1.3658 F   0  0  0  0  0  0  0  0  0  0  0  0
    3.9822   -7.6142    1.3209 C   0  0  0  0  0  0  0  0  0  0  0  0
    5.0887   -8.0662    0.0556 Cl  0  0  0  0  0  0  0  0  0  0  0  0
    3.9674   -6.3125    1.8255 C   0  0  0  0  0  0  0  0  0  0  0  0
    3.2900   -4.4247    4.8066 C   0  0  0  0  0  0  0  0  0  0  0  0
    3.2962   -3.1574    5.3787 C   0  0  0  0  0  0  0  0  0  0  0  0
    3.4834   -2.6679    6.7429 C   0  0  0  0  0  0  0  0  0  0  0  0
    3.6995   -3.3664    7.8119 N   0  0  0  0  0  0  0  0  0  0  0  0
    3.8362   -2.6938    8.9626 O   0  0  0  0  0  0  0  0  0  0  0  0
    3.3735   -1.1757    6.6851 C   0  0  0  0  0  0  0  0  0  0  0  0
    3.4702   -0.3978    7.6296 O   0  0  0  0  0  0  0  0  0  0  0  0
    3.1419   -0.8648    5.3672 N   0  0  0  0  0  0  0  0  0  0  0  0
    3.0165    0.0881    5.0479 H   0  0  0  0  0  0  0  0  0  0  0  0
    3.0927   -2.0248    4.5671 C   0  0  0  0  0  0  0  0  0  0  0  0
    2.8789   -2.1207    3.1926 C   0  0  0  0  0  0  0  0  0  0  0  0
    2.6267   -0.8653    2.3833 C   0  0  0  0  0  0  0  0  0  0  0  0
    3.0455    2.0469   -0.4116 H   0  0  0  0  0  0  0  0  0  0  0  0
    4.3186    0.8766    0.0375 H   0  0  0  0  0  0  0  0  0  0  0  0
    3.3440    1.6818    1.2949 H   0  0  0  0  0  0  0  0  0  0  0  0
    2.2207   -0.2074   -0.8748 H   0  0  0  0  0  0  0  0  0  0  0  0
    1.2810    0.4805    0.4626 H   0  0  0  0  0  0  0  0  0  0  0  0
    1.8336   -2.3324   -0.5084 H   0  0  0  0  0  0  0  0  0  0  0  0
    0.8373   -2.2232    0.9601 H   0  0  0  0  0  0  0  0  0  0  0  0
    3.5273   -3.6486    0.5819 H   0  0  0  0  0  0  0  0  0  0  0  0
    1.9715   -4.4102    0.9267 H   0  0  0  0  0  0  0  0  0  0  0  0
    1.5097   -6.6591    4.1574 H   0  0  0  0  0  0  0  0  0  0  0  0
    1.5468   -8.9936    3.2522 H   0  0  0  0  0  0  0  0  0  0  0  0
    4.6770   -5.5912    1.4189 H   0  0  0  0  0  0  0  0  0  0  0  0
    3.4608   -5.3044    5.4297 H   0  0  0  0  0  0  0  0  0  0  0  0
    3.7446   -1.7188    8.7858 H   0  0  0  0  0  0  0  0  0  0  0  0
    3.3950   -0.1169    2.6451 H   0  0  0  0  0  0  0  0  0  0  0  0
    1.6483   -0.4267    2.7115 H   0  0  0  0  0  0  0  0  0  0  0  0
  1  2  1  0
  1 28  1  0
  1 29  1  0
  1 30  1  0
  2  3  1  0
  2 31  1  0
  2 32  1  0
  3  4  1  0
  3 27  1  0
  4  5  1  0
  4 33  1  0
  4 34  1  0
  5  6  1  0
  5 35  1  0
  5 36  1  0
  6  7  1  0
  6 26  2  0
  7  8  1  0
  7 16  2  0
  8  9  2  0
  8 15  1  0
  9 10  1  0
  9 37  1  0
 10 11  2  0
 10 38  1  0
 11 12  1  0
 11 13  1  0
 13 14  1  0
 13 15  2  0
 15 39  1  0
 16 17  1  0
 16 40  1  0
 17 18  1  0
 17 25  2  0
 18 19  2  0
 18 21  1  0
 19 20  1  0
 20 41  1  0
 21 22  2  0
 21 23  1  0
 23 24  1  0
 23 25  1  0
 25 26  1  0
 26 27  1  0
 27 42  1  0
 27 43  1  0
M  END

