
     RDKit          3D

 52 55  0  0  0  0  0  0  0  0999 V2000
    4.3955   -1.8542   -1.3463 O   0  0  0  0  0  0  0  0  0  0  0  0
    4.3373   -1.5450   -0.1595 C   0  0  0  0  0  0  0  0  0  0  0  0
    3.1535   -0.7129    0.3510 C   0  0  0  0  0  0  0  0  0  0  0  0
    2.2454   -1.4916    1.1867 N   0  0  0  0  0  0  0  0  0  0  0  0
    1.1278   -0.7145    1.7335 C   0  0  0  0  0  0  0  0  0  0  0  0
    0.0224   -0.4135    0.7061 C   0  0  0  0  0  0  0  0  0  0  0  0
   -0.4598   -1.6939    0.0089 C   0  0  0  0  0  0  0  0  0  0  0  0
    0.7301   -2.4869   -0.5608 C   0  0  2  0  0  0  0  0  0  0  0  0
    0.3117   -3.7668   -1.2095 C   0  0  0  0  0  0  0  0  0  0  0  0
   -0.8047   -4.4355   -0.9954 N   0  0  0  0  0  0  0  0  0  0  0  0
   -0.8190   -5.5605   -1.7522 N   0  0  0  0  0  0  0  0  0  0  0  0
    0.3111   -5.5847   -2.4418 C   0  0  0  0  0  0  0  0  0  0  0  0
    0.8194   -6.5148   -3.3893 C   0  0  0  0  0  0  0  0  0  0  0  0
    2.0426   -6.2750   -3.9627 C   0  0  0  0  0  0  0  0  0  0  0  0
    2.7970   -5.1088   -3.6099 C   0  0  0  0  0  0  0  0  0  0  0  0
    2.3137   -4.2118   -2.6993 C   0  0  0  0  0  0  0  0  0  0  0  0
    1.0800   -4.4548   -2.1291 N   0  0  0  0  0  0  0  0  0  0  0  0
    1.7637   -2.7280    0.5750 C   0  0  0  0  0  0  0  0  0  0  0  0
    5.2960   -1.9290    0.7389 N   0  0  0  0  0  0  0  0  0  0  0  0
    6.4679   -2.6759    0.2821 C   0  0  0  0  0  0  0  0  0  0  0  0
    7.7539   -1.9257    0.6445 C   0  0  0  0  0  0  0  0  0  0  0  0
    7.8070   -1.5835    2.1386 C   0  0  0  0  0  0  0  0  0  0  0  0
    6.5276   -0.8509    2.5763 C   0  0  2  0  0  0  0  0  0  0  0  0
    6.5198   -0.5527    4.0657 C   0  0  1  0  0  0  0  0  0  0  0  0
    7.5821    0.1870    4.4275 F   0  0  0  0  0  0  0  0  0  0  0  0
    5.4154    0.1323    4.4220 F   0  0  0  0  0  0  0  0  0  0  0  0
    6.5444   -1.6779    4.8064 F   0  0  0  0  0  0  0  0  0  0  0  0
    5.2758   -1.6508    2.1675 C   0  0  0  0  0  0  0  0  0  0  0  0
    2.6950   -0.2993   -0.5673 H   0  0  0  0  0  0  0  0  0  0  0  0
    3.5128    0.1471    0.9414 H   0  0  0  0  0  0  0  0  0  0  0  0
    1.5232    0.2178    2.1694 H   0  0  0  0  0  0  0  0  0  0  0  0
    0.6967   -1.2978    2.5669 H   0  0  0  0  0  0  0  0  0  0  0  0
    0.3976    0.3019   -0.0473 H   0  0  0  0  0  0  0  0  0  0  0  0
   -0.8203    0.0872    1.2114 H   0  0  0  0  0  0  0  0  0  0  0  0
   -1.1786   -1.4588   -0.7916 H   0  0  0  0  0  0  0  0  0  0  0  0
   -0.9999   -2.3398    0.7213 H   0  0  0  0  0  0  0  0  0  0  0  0
    1.2241   -1.8722   -1.3351 H   0  0  0  0  0  0  0  0  0  0  0  0
    0.2144   -7.3900   -3.6288 H   0  0  0  0  0  0  0  0  0  0  0  0
    2.4527   -6.9754   -4.6936 H   0  0  0  0  0  0  0  0  0  0  0  0
    3.7723   -4.9231   -4.0622 H   0  0  0  0  0  0  0  0  0  0  0  0
    2.8556   -3.3177   -2.3810 H   0  0  0  0  0  0  0  0  0  0  0  0
    2.6178   -3.3163    0.2079 H   0  0  0  0  0  0  0  0  0  0  0  0
    1.2779   -3.3338    1.3592 H   0  0  0  0  0  0  0  0  0  0  0  0
    6.3696   -2.8177   -0.8005 H   0  0  0  0  0  0  0  0  0  0  0  0
    6.4650   -3.6733    0.7616 H   0  0  0  0  0  0  0  0  0  0  0  0
    7.8065   -0.9990    0.0472 H   0  0  0  0  0  0  0  0  0  0  0  0
    8.6276   -2.5363    0.3649 H   0  0  0  0  0  0  0  0  0  0  0  0
    8.6910   -0.9693    2.3681 H   0  0  0  0  0  0  0  0  0  0  0  0
    7.9010   -2.5112    2.7299 H   0  0  0  0  0  0  0  0  0  0  0  0
    6.4856    0.1341    2.0798 H   0  0  0  0  0  0  0  0  0  0  0  0
    4.3525   -1.1329    2.4415 H   0  0  0  0  0  0  0  0  0  0  0  0
    5.2693   -2.6091    2.7189 H   0  0  0  0  0  0  0  0  0  0  0  0
  1  2  2  0
  2  3  1  0
  2 19  1  0
  3  4  1  0
  3 29  1  0
  3 30  1  0
  4  5  1  0
  4 18  1  0
  5  6  1  0
  5 31  1  0
  5 32  1  0
  6  7  1  0
  6 33  1  0
  6 34  1  0
  7  8  1  0
  7 35  1  0
  7 36  1  0
  8  9  1  0
  8 18  1  0
  8 37  1  6
  9 10  2  0
  9 17  1  0
 10 11  1  0
 11 12  2  0
 12 13  1  0
 12 17  1  0
 13 14  2  0
 13 38  1  0
 14 15  1  0
 14 39  1  0
 15 16  2  0
 15 40  1  0
 16 17  1  0
 16 41  1  0
 18 42  1  0
 18 43  1  0
 19 20  1  0
 19 28  1  0
 20 21  1  0
 20 44  1  0
 20 45  1  0
 21 22  1  0
 21 46  1  0
 21 47  1  0
 22 23  1  0
 22 48  1  0
 22 49  1  0
 23 24  1  0
 23 28  1  0
 23 50  1  6
 24 25  1  1
 24 26  1  0
 24 27  1  0
 28 51  1  0
 28 52  1  0
M  END

