
     RDKit          3D

 44 44  0  0  0  0  0  0  0  0999 V2000
    0.8426   -0.2605   -0.3532 C   0  0  0  0  0  0  0  0  0  0  0  0
    2.3735   -0.1237   -0.3173 C   0  0  1  0  0  0  0  0  0  0  0  0
    2.9478   -0.2346   -1.7553 C   0  0  0  0  0  0  0  0  0  0  0  0
    2.5457    0.9016   -2.6897 C   0  0  0  0  0  0  0  0  0  0  0  0
    3.0162    2.0273   -2.5883 O   0  0  0  0  0  0  0  0  0  0  0  0
    1.6092    0.5854   -3.6368 N   0  0  0  0  0  0  0  0  0  0  0  0
    1.0762    1.5601   -4.5726 C   0  0  0  0  0  0  0  0  0  0  0  0
    1.7797    1.5803   -5.9638 C   0  0  1  0  0  0  0  0  0  0  0  0
    1.5477    0.2520   -6.6983 C   0  0  0  0  0  0  0  0  0  0  0  0
    1.1852    2.7419   -6.7734 C   0  0  0  0  0  0  0  0  0  0  0  0
    3.2263    1.7900   -5.8603 N   0  0  0  0  0  0  0  0  0  0  0  0
    2.8216    1.1490    0.4609 C   0  0  1  0  0  0  0  0  0  0  0  0
    2.4458    1.0904    1.9617 C   0  0  0  0  0  0  0  0  0  0  0  0
    3.3474    0.1412    2.7595 C   0  0  0  0  0  0  0  0  0  0  0  0
    4.7441    0.5198    2.5956 N   0  0  0  0  0  0  0  0  0  0  0  0
    5.1837    0.4999    1.2053 C   0  0  0  0  0  0  0  0  0  0  0  0
    4.3315    1.4661    0.3796 C   0  0  0  0  0  0  0  0  0  0  0  0
    0.5375   -1.1661   -0.9038 H   0  0  0  0  0  0  0  0  0  0  0  0
    0.3734    0.6061   -0.8481 H   0  0  0  0  0  0  0  0  0  0  0  0
    0.4103   -0.3381    0.6547 H   0  0  0  0  0  0  0  0  0  0  0  0
    2.7676   -1.0087    0.2122 H   0  0  0  0  0  0  0  0  0  0  0  0
    2.6341   -1.2038   -2.1786 H   0  0  0  0  0  0  0  0  0  0  0  0
    4.0468   -0.2468   -1.7223 H   0  0  0  0  0  0  0  0  0  0  0  0
    1.2548   -0.3620   -3.6630 H   0  0  0  0  0  0  0  0  0  0  0  0
    1.1960    2.5483   -4.1038 H   0  0  0  0  0  0  0  0  0  0  0  0
   -0.0042    1.3747   -4.6986 H   0  0  0  0  0  0  0  0  0  0  0  0
    0.4746    0.0650   -6.8647 H   0  0  0  0  0  0  0  0  0  0  0  0
    1.9562   -0.5955   -6.1218 H   0  0  0  0  0  0  0  0  0  0  0  0
    2.0569    0.2650   -7.6735 H   0  0  0  0  0  0  0  0  0  0  0  0
    0.0947    2.6371   -6.8938 H   0  0  0  0  0  0  0  0  0  0  0  0
    1.6479    2.7822   -7.7706 H   0  0  0  0  0  0  0  0  0  0  0  0
    1.3780    3.7058   -6.2736 H   0  0  0  0  0  0  0  0  0  0  0  0
    3.6577    0.9981   -5.3822 H   0  0  0  0  0  0  0  0  0  0  0  0
    3.4193    2.5961   -5.2631 H   0  0  0  0  0  0  0  0  0  0  0  0
    2.2890    2.0000    0.0049 H   0  0  0  0  0  0  0  0  0  0  0  0
    1.3912    0.8094    2.1079 H   0  0  0  0  0  0  0  0  0  0  0  0
    2.5632    2.1024    2.3838 H   0  0  0  0  0  0  0  0  0  0  0  0
    3.1465   -0.9114    2.4474 H   0  0  0  0  0  0  0  0  0  0  0  0
    3.0875    0.1996    3.8299 H   0  0  0  0  0  0  0  0  0  0  0  0
    5.3449   -0.0641    3.1735 H   0  0  0  0  0  0  0  0  0  0  0  0
    5.1403   -0.5209    0.7549 H   0  0  0  0  0  0  0  0  0  0  0  0
    6.2412    0.8106    1.1656 H   0  0  0  0  0  0  0  0  0  0  0  0
    4.6699    1.5087   -0.6644 H   0  0  0  0  0  0  0  0  0  0  0  0
    4.4827    2.4781    0.7916 H   0  0  0  0  0  0  0  0  0  0  0  0
  1  2  1  0
  1 18  1  0
  1 19  1  0
  1 20  1  0
  2  3  1  0
  2 12  1  0
  2 21  1  1
  3  4  1  0
  3 22  1  0
  3 23  1  0
  4  5  2  0
  4  6  1  0
  6  7  1  0
  6 24  1  0
  7  8  1  0
  7 25  1  0
  7 26  1  0
  8  9  1  0
  8 10  1  0
  8 11  1  1
  9 27  1  0
  9 28  1  0
  9 29  1  0
 10 30  1  0
 10 31  1  0
 10 32  1  0
 11 33  1  0
 11 34  1  0
 12 13  1  0
 12 17  1  0
 12 35  1  6
 13 14  1  0
 13 36  1  0
 13 37  1  0
 14 15  1  0
 14 38  1  0
 14 39  1  0
 15 16  1  0
 15 40  1  0
 16 17  1  0
 16 41  1  0
 16 42  1  0
 17 43  1  0
 17 44  1  0
M  END

