
     RDKit          3D

 58 61  0  0  0  0  0  0  0  0999 V2000
   16.7500    9.8836   -7.9528 C   0  0  0  0  0  0  0  0  0  0  0  0
   16.5608    8.3685   -7.8665 C   0  0  0  0  0  0  0  0  0  0  0  0
   16.8303    7.8071   -6.4674 C   0  0  0  0  0  0  0  0  0  0  0  0
   16.6416    6.3007   -6.3865 C   0  0  0  0  0  0  0  0  0  0  0  0
   16.9153    5.8893   -5.0536 O   0  0  0  0  0  0  0  0  0  0  0  0
   16.8243    4.5861   -4.7124 C   0  0  0  0  0  0  0  0  0  0  0  0
   16.4602    3.5528   -5.5939 C   0  0  0  0  0  0  0  0  0  0  0  0
   16.4006    2.2385   -5.1318 C   0  0  0  0  0  0  0  0  0  0  0  0
   16.6813    1.9164   -3.7965 C   0  0  0  0  0  0  0  0  0  0  0  0
   16.5950    0.4692   -3.4067 C   0  0  0  0  0  0  0  0  0  0  0  0
   16.5991   -0.4202   -4.2431 O   0  0  0  0  0  0  0  0  0  0  0  0
   16.4930    0.2313   -2.0484 N   0  0  0  0  0  0  0  0  0  0  0  0
   16.4416   -0.9954   -1.3673 C   0  0  0  0  0  0  0  0  0  0  0  0
   16.5277   -2.2445   -2.0073 C   0  0  0  0  0  0  0  0  0  0  0  0
   16.4905   -3.4081   -1.2347 C   0  0  0  0  0  0  0  0  0  0  0  0
   16.3634   -3.3580    0.1530 C   0  0  0  0  0  0  0  0  0  0  0  0
   16.2646   -2.1155    0.7989 C   0  0  0  0  0  0  0  0  0  0  0  0
   16.0836   -2.0788    2.3084 C   0  0  2  0  0  0  0  0  0  0  0  0
   16.6695   -2.8851    2.7722 H   0  0  0  0  0  0  0  0  0  0  0  0
   14.3166   -2.4026    2.7952 S   0  0  0  0  0  0  0  0  0  0  0  0
   14.0206   -0.6108    2.8541 C   0  0  0  0  0  0  0  0  0  0  0  0
   15.3576    0.0504    3.1871 C   0  0  0  0  0  0  0  0  0  0  0  0
   15.4366    1.1884    3.5985 O   0  0  0  0  0  0  0  0  0  0  0  0
   16.4246   -0.8050    2.9385 N   0  0  0  0  0  0  0  0  0  0  0  0
   17.7886   -0.4982    3.2256 C   0  0  0  0  0  0  0  0  0  0  0  0
   18.1403    0.5277    4.1266 C   0  0  0  0  0  0  0  0  0  0  0  0
   19.4796    0.7826    4.4199 C   0  0  0  0  0  0  0  0  0  0  0  0
   20.4779    0.0185    3.8220 C   0  0  0  0  0  0  0  0  0  0  0  0
   21.7645    0.2680    4.1086 F   0  0  0  0  0  0  0  0  0  0  0  0
   20.1588   -0.9985    2.9294 C   0  0  0  0  0  0  0  0  0  0  0  0
   18.8186   -1.2522    2.6310 C   0  0  0  0  0  0  0  0  0  0  0  0
   16.3122   -0.9472    0.0351 C   0  0  0  0  0  0  0  0  0  0  0  0
   17.0590    2.9593   -2.9279 C   0  0  0  0  0  0  0  0  0  0  0  0
   17.1293    4.2728   -3.3741 C   0  0  0  0  0  0  0  0  0  0  0  0
   16.5495   10.2568   -8.9694 H   0  0  0  0  0  0  0  0  0  0  0  0
   17.7801   10.1741   -7.6877 H   0  0  0  0  0  0  0  0  0  0  0  0
   16.0707   10.4118   -7.2633 H   0  0  0  0  0  0  0  0  0  0  0  0
   17.2274    7.8727   -8.5955 H   0  0  0  0  0  0  0  0  0  0  0  0
   15.5316    8.1084   -8.1745 H   0  0  0  0  0  0  0  0  0  0  0  0
   16.1609    8.2844   -5.7308 H   0  0  0  0  0  0  0  0  0  0  0  0
   17.8603    8.0488   -6.1527 H   0  0  0  0  0  0  0  0  0  0  0  0
   17.3230    5.7836   -7.0884 H   0  0  0  0  0  0  0  0  0  0  0  0
   15.6071    6.0216   -6.6629 H   0  0  0  0  0  0  0  0  0  0  0  0
   16.2256    3.7625   -6.6374 H   0  0  0  0  0  0  0  0  0  0  0  0
   16.1315    1.4264   -5.8098 H   0  0  0  0  0  0  0  0  0  0  0  0
   16.3885    1.0482   -1.4601 H   0  0  0  0  0  0  0  0  0  0  0  0
   16.6233   -2.2838   -3.0891 H   0  0  0  0  0  0  0  0  0  0  0  0
   16.5644   -4.3767   -1.7358 H   0  0  0  0  0  0  0  0  0  0  0  0
   16.3283   -4.2826    0.7357 H   0  0  0  0  0  0  0  0  0  0  0  0
   13.2969   -0.3590    3.6406 H   0  0  0  0  0  0  0  0  0  0  0  0
   13.6441   -0.2122    1.8969 H   0  0  0  0  0  0  0  0  0  0  0  0
   17.3642    1.1334    4.5855 H   0  0  0  0  0  0  0  0  0  0  0  0
   19.7564    1.5751    5.1180 H   0  0  0  0  0  0  0  0  0  0  0  0
   20.9570   -1.5820    2.4670 H   0  0  0  0  0  0  0  0  0  0  0  0
   18.5916   -2.0377    1.9115 H   0  0  0  0  0  0  0  0  0  0  0  0
   16.2731    0.0267    0.5305 H   0  0  0  0  0  0  0  0  0  0  0  0
   17.3388    2.7550   -1.8907 H   0  0  0  0  0  0  0  0  0  0  0  0
   17.4309    5.0832   -2.7078 H   0  0  0  0  0  0  0  0  0  0  0  0
  1  2  1  0
  1 35  1  0
  1 36  1  0
  1 37  1  0
  2  3  1  0
  2 38  1  0
  2 39  1  0
  3  4  1  0
  3 40  1  0
  3 41  1  0
  4  5  1  0
  4 42  1  0
  4 43  1  0
  5  6  1  0
  6  7  2  0
  6 34  1  0
  7  8  1  0
  7 44  1  0
  8  9  2  0
  8 45  1  0
  9 10  1  0
  9 33  1  0
 10 11  2  0
 10 12  1  0
 12 13  1  0
 12 46  1  0
 13 14  2  0
 13 32  1  0
 14 15  1  0
 14 47  1  0
 15 16  2  0
 15 48  1  0
 16 17  1  0
 16 49  1  0
 17 18  1  0
 17 32  2  0
 18 19  1  1
 18 20  1  0
 18 24  1  0
 20 21  1  0
 21 22  1  0
 21 50  1  0
 21 51  1  0
 22 23  2  0
 22 24  1  0
 24 25  1  0
 25 26  2  0
 25 31  1  0
 26 27  1  0
 26 52  1  0
 27 28  2  0
 27 53  1  0
 28 29  1  0
 28 30  1  0
 30 31  2  0
 30 54  1  0
 31 55  1  0
 32 56  1  0
 33 34  2  0
 33 57  1  0
 34 58  1  0
M  END

