
     RDKit          3D

 55 60  0  0  0  0  0  0  0  0999 V2000
    5.4796   -3.2922   -0.7639 C   0  0  0  0  0  0  0  0  0  0  0  0
    5.1210   -1.8367   -0.5446 C   0  0  0  0  0  0  0  0  0  0  0  0
    6.1283   -0.8831   -0.7720 C   0  0  0  0  0  0  0  0  0  0  0  0
    5.8885    0.4869   -0.6573 C   0  0  0  0  0  0  0  0  0  0  0  0
    4.6102    0.9253   -0.3146 C   0  0  0  0  0  0  0  0  0  0  0  0
    3.6066   -0.0145   -0.0694 C   0  0  0  0  0  0  0  0  0  0  0  0
    3.8222   -1.4050   -0.1563 C   0  0  0  0  0  0  0  0  0  0  0  0
    2.5187   -2.3576    0.0529 B   0  0  1  0  0  0  0  0  0  0  0  0
    1.2621   -1.7480    0.9155 C   0  0  0  0  0  0  0  0  0  0  0  0
   -0.0309   -1.8270    0.3524 C   0  0  0  0  0  0  0  0  0  0  0  0
   -1.1764   -1.3757    1.0097 C   0  0  0  0  0  0  0  0  0  0  0  0
   -1.0618   -0.8183    2.2833 C   0  0  0  0  0  0  0  0  0  0  0  0
    0.2006   -0.7185    2.8643 C   0  0  0  0  0  0  0  0  0  0  0  0
    1.3628   -1.1697    2.2116 C   0  0  0  0  0  0  0  0  0  0  0  0
    2.6618   -0.9842    2.9752 C   0  0  0  0  0  0  0  0  0  0  0  0
    2.0409   -2.9260   -1.3320 N   0  0  0  0  0  0  0  0  0  0  0  0
    1.6583   -2.3463   -2.4491 N   0  0  0  0  0  0  0  0  0  0  0  0
    1.3514   -3.3528   -3.2869 C   0  0  0  0  0  0  0  0  0  0  0  0
    0.8629   -3.0665   -4.6753 C   0  0  1  0  0  0  0  0  0  0  0  0
    1.7525   -2.3662   -5.3944 F   0  0  0  0  0  0  0  0  0  0  0  0
    0.6314   -4.2222   -5.3320 F   0  0  0  0  0  0  0  0  0  0  0  0
   -0.2839   -2.3687   -4.6748 F   0  0  0  0  0  0  0  0  0  0  0  0
    1.5413   -4.6146   -2.6958 C   0  0  0  0  0  0  0  0  0  0  0  0
    1.9932   -4.2884   -1.4126 C   0  0  0  0  0  0  0  0  0  0  0  0
    2.4525   -4.8556   -0.1667 C   0  0  0  0  0  0  0  0  0  0  0  0
    2.5541   -6.2267    0.2221 C   0  0  0  0  0  0  0  0  0  0  0  0
    2.1594   -7.2986   -0.6213 C   0  0  0  0  0  0  0  0  0  0  0  0
    2.2843   -8.6049   -0.1933 C   0  0  0  0  0  0  0  0  0  0  0  0
    2.8066   -8.8905    1.0918 C   0  0  0  0  0  0  0  0  0  0  0  0
    3.1951   -7.8681    1.9339 C   0  0  0  0  0  0  0  0  0  0  0  0
    3.0782   -6.5141    1.5236 C   0  0  0  0  0  0  0  0  0  0  0  0
    3.4612   -5.4229    2.3547 C   0  0  0  0  0  0  0  0  0  0  0  0
    3.3156   -4.1366    1.9059 C   0  0  0  0  0  0  0  0  0  0  0  0
    2.8211   -3.8624    0.6688 N   0  0  0  0  0  0  0  0  0  0  0  0
    6.4956   -3.3827   -1.1754 H   0  0  0  0  0  0  0  0  0  0  0  0
    4.7968   -3.7804   -1.4770 H   0  0  0  0  0  0  0  0  0  0  0  0
    5.4560   -3.8813    0.1672 H   0  0  0  0  0  0  0  0  0  0  0  0
    7.1251   -1.2287   -1.0626 H   0  0  0  0  0  0  0  0  0  0  0  0
    6.6928    1.2027   -0.8475 H   0  0  0  0  0  0  0  0  0  0  0  0
    4.3903    1.9935   -0.2380 H   0  0  0  0  0  0  0  0  0  0  0  0
    2.6112    0.3467    0.1986 H   0  0  0  0  0  0  0  0  0  0  0  0
   -0.1533   -2.2385   -0.6504 H   0  0  0  0  0  0  0  0  0  0  0  0
   -2.1519   -1.4549    0.5225 H   0  0  0  0  0  0  0  0  0  0  0  0
   -1.9445   -0.4560    2.8173 H   0  0  0  0  0  0  0  0  0  0  0  0
    0.2977   -0.2707    3.8587 H   0  0  0  0  0  0  0  0  0  0  0  0
    2.6866   -1.6243    3.8752 H   0  0  0  0  0  0  0  0  0  0  0  0
    2.7541    0.0544    3.3321 H   0  0  0  0  0  0  0  0  0  0  0  0
    3.5540   -1.1891    2.3732 H   0  0  0  0  0  0  0  0  0  0  0  0
    1.3791   -5.5837   -3.1558 H   0  0  0  0  0  0  0  0  0  0  0  0
    1.7518   -7.0864   -1.6087 H   0  0  0  0  0  0  0  0  0  0  0  0
    1.9774   -9.4240   -0.8473 H   0  0  0  0  0  0  0  0  0  0  0  0
    2.8997   -9.9296    1.4168 H   0  0  0  0  0  0  0  0  0  0  0  0
    3.5957   -8.0870    2.9267 H   0  0  0  0  0  0  0  0  0  0  0  0
    3.8696   -5.6070    3.3497 H   0  0  0  0  0  0  0  0  0  0  0  0
    3.5928   -3.2755    2.5090 H   0  0  0  0  0  0  0  0  0  0  0  0
  1  2  1  0
  1 35  1  0
  1 36  1  0
  1 37  1  0
  2  3  2  0
  2  7  1  0
  3  4  1  0
  3 38  1  0
  4  5  2  0
  4 39  1  0
  5  6  1  0
  5 40  1  0
  6  7  2  0
  6 41  1  0
  8  7  1  6
  8  9  1  0
  8 16  1  0
  8 34  1  0
  9 10  2  0
  9 14  1  0
 10 11  1  0
 10 42  1  0
 11 12  2  0
 11 43  1  0
 12 13  1  0
 12 44  1  0
 13 14  2  0
 13 45  1  0
 14 15  1  0
 15 46  1  0
 15 47  1  0
 15 48  1  0
 16 17  1  0
 16 24  1  0
 17 18  2  0
 18 19  1  0
 18 23  1  0
 19 20  1  6
 19 21  1  0
 19 22  1  0
 23 24  2  0
 23 49  1  0
 24 25  1  0
 25 26  2  0
 25 34  1  0
 26 27  1  0
 26 31  1  0
 27 28  2  0
 27 50  1  0
 28 29  1  0
 28 51  1  0
 29 30  2  0
 29 52  1  0
 30 31  1  0
 30 53  1  0
 31 32  2  0
 32 33  1  0
 32 54  1  0
 33 34  2  0
 33 55  1  0
M  CHG  2   8  -1  34   1
M  END

