
     RDKit          3D

 38 39  0  0  0  0  0  0  0  0999 V2000
    4.5790    0.7356    1.6336 C   0  0  0  0  0  0  0  0  0  0  0  0
    5.0360    1.3088    0.2760 C   0  0  1  0  0  0  0  0  0  0  0  0
    3.8411    1.9296   -0.4659 C   0  0  0  0  0  0  0  0  0  0  0  0
    6.1049    2.3884    0.5060 C   0  0  0  0  0  0  0  0  0  0  0  0
    5.6687    0.2749   -0.5814 N   0  0  0  0  0  0  0  0  0  0  0  0
    4.9370   -0.9496   -0.8735 C   0  0  0  0  0  0  0  0  0  0  0  0
    5.3291   -1.5971   -2.2133 C   0  0  0  0  0  0  0  0  0  0  0  0
    5.0112   -2.7441   -2.4690 O   0  0  0  0  0  0  0  0  0  0  0  0
    6.0098   -0.7389   -3.0370 N   0  0  0  0  0  0  0  0  0  0  0  0
    6.4859   -0.9435   -4.3359 C   0  0  0  0  0  0  0  0  0  0  0  0
    6.2816   -2.1344   -5.0242 C   0  0  0  0  0  0  0  0  0  0  0  0
    6.7736   -2.2942   -6.3398 C   0  0  0  0  0  0  0  0  0  0  0  0
    7.4645   -1.2892   -6.9820 C   0  0  0  0  0  0  0  0  0  0  0  0
    7.6971   -0.0599   -6.3102 C   0  0  0  0  0  0  0  0  0  0  0  0
    8.4029    1.0221   -6.9026 C   0  0  0  0  0  0  0  0  0  0  0  0
    8.5975    2.1851   -6.1904 C   0  0  0  0  0  0  0  0  0  0  0  0
    8.1491    2.3660   -4.9240 N   0  0  0  0  0  0  0  0  0  0  0  0
    7.4915    1.3788   -4.3552 C   0  0  0  0  0  0  0  0  0  0  0  0
    7.2119    0.1253   -4.9739 C   0  0  0  0  0  0  0  0  0  0  0  0
    4.1585    1.5259    2.2756 H   0  0  0  0  0  0  0  0  0  0  0  0
    5.4262    0.2802    2.1732 H   0  0  0  0  0  0  0  0  0  0  0  0
    3.8032   -0.0361    1.5084 H   0  0  0  0  0  0  0  0  0  0  0  0
    3.4084    2.7499    0.1272 H   0  0  0  0  0  0  0  0  0  0  0  0
    3.0358    1.1996   -0.6430 H   0  0  0  0  0  0  0  0  0  0  0  0
    4.1561    2.3353   -1.4396 H   0  0  0  0  0  0  0  0  0  0  0  0
    5.7086    3.2072    1.1255 H   0  0  0  0  0  0  0  0  0  0  0  0
    6.4457    2.8118   -0.4514 H   0  0  0  0  0  0  0  0  0  0  0  0
    6.9830    1.9720    1.0283 H   0  0  0  0  0  0  0  0  0  0  0  0
    6.5801    0.0395   -0.1882 H   0  0  0  0  0  0  0  0  0  0  0  0
    3.8607   -0.7300   -0.9567 H   0  0  0  0  0  0  0  0  0  0  0  0
    5.0256   -1.7444   -0.1101 H   0  0  0  0  0  0  0  0  0  0  0  0
    6.1589    0.1638   -2.5850 H   0  0  0  0  0  0  0  0  0  0  0  0
    5.7375   -2.9376   -4.5327 H   0  0  0  0  0  0  0  0  0  0  0  0
    6.5930   -3.2437   -6.8506 H   0  0  0  0  0  0  0  0  0  0  0  0
    7.8386   -1.4219   -7.9999 H   0  0  0  0  0  0  0  0  0  0  0  0
    8.7878    0.9230   -7.9208 H   0  0  0  0  0  0  0  0  0  0  0  0
    9.1388    3.0277   -6.6346 H   0  0  0  0  0  0  0  0  0  0  0  0
    7.1566    1.5745   -3.3284 H   0  0  0  0  0  0  0  0  0  0  0  0
  1  2  1  0
  1 20  1  0
  1 21  1  0
  1 22  1  0
  2  3  1  0
  2  4  1  0
  2  5  1  6
  3 23  1  0
  3 24  1  0
  3 25  1  0
  4 26  1  0
  4 27  1  0
  4 28  1  0
  5  6  1  0
  5 29  1  0
  6  7  1  0
  6 30  1  0
  6 31  1  0
  7  8  2  0
  7  9  1  0
  9 10  1  0
  9 32  1  0
 10 11  2  0
 10 19  1  0
 11 12  1  0
 11 33  1  0
 12 13  2  0
 12 34  1  0
 13 14  1  0
 13 35  1  0
 14 15  1  0
 14 19  2  0
 15 16  2  0
 15 36  1  0
 16 17  1  0
 16 37  1  0
 17 18  2  0
 18 19  1  0
 18 38  1  0
M  END

