
     RDKit          3D

 36 38  0  0  0  0  0  0  0  0999 V2000
   10.4732    1.1317    0.3678 C   0  0  0  0  0  0  0  0  0  0  0  0
    9.1589    0.5443    0.2926 N   0  0  0  0  0  0  0  0  0  0  0  0
    8.6704   -0.4034    0.9648 C   0  0  0  0  0  0  0  0  0  0  0  0
    6.9582   -0.8528    0.6517 S   0  0  0  0  0  0  0  0  0  0  0  0
    6.9701   -2.1057    1.9016 C   0  0  0  0  0  0  0  0  0  0  0  0
    5.9069   -2.9229    2.1319 C   0  0  0  0  0  0  0  0  0  0  0  0
    5.6628   -3.9367    3.1392 C   0  0  0  0  0  0  0  0  0  0  0  0
    5.0028   -5.1472    2.9102 C   0  0  0  0  0  0  0  0  0  0  0  0
    5.0109   -5.8904    4.1127 C   0  0  0  0  0  0  0  0  0  0  0  0
    5.6392   -5.1065    5.0629 C   0  0  0  0  0  0  0  0  0  0  0  0
    6.0359   -3.9225    4.4835 N   0  0  0  0  0  0  0  0  0  0  0  0
    6.5150   -2.8198    5.2488 C   0  0  0  0  0  0  0  0  0  0  0  0
    7.5783   -3.0048    6.1428 C   0  0  0  0  0  0  0  0  0  0  0  0
    8.0179   -1.9508    6.9429 C   0  0  0  0  0  0  0  0  0  0  0  0
    7.4004   -0.7070    6.8243 C   0  0  0  0  0  0  0  0  0  0  0  0
    7.8297    0.3124    7.5831 F   0  0  0  0  0  0  0  0  0  0  0  0
    6.3474   -0.4991    5.9369 C   0  0  0  0  0  0  0  0  0  0  0  0
    5.8975   -1.5658    5.1554 C   0  0  0  0  0  0  0  0  0  0  0  0
    8.3188   -2.2000    2.5138 C   0  0  0  0  0  0  0  0  0  0  0  0
    8.6783   -3.0227    3.3338 O   0  0  0  0  0  0  0  0  0  0  0  0
    9.1860   -1.2435    1.9667 N   0  0  0  0  0  0  0  0  0  0  0  0
   10.5803   -1.2497    2.3908 C   0  0  0  0  0  0  0  0  0  0  0  0
   10.4295    2.1528   -0.0434 H   0  0  0  0  0  0  0  0  0  0  0  0
   11.1926    0.5741   -0.2599 H   0  0  0  0  0  0  0  0  0  0  0  0
   10.8982    1.2032    1.3834 H   0  0  0  0  0  0  0  0  0  0  0  0
    5.0846   -2.8402    1.4104 H   0  0  0  0  0  0  0  0  0  0  0  0
    4.6068   -5.4615    1.9459 H   0  0  0  0  0  0  0  0  0  0  0  0
    4.5942   -6.8819    4.2779 H   0  0  0  0  0  0  0  0  0  0  0  0
    5.7846   -5.2687    6.1283 H   0  0  0  0  0  0  0  0  0  0  0  0
    8.0786   -3.9729    6.1874 H   0  0  0  0  0  0  0  0  0  0  0  0
    8.8459   -2.0746    7.6433 H   0  0  0  0  0  0  0  0  0  0  0  0
    5.8795    0.4853    5.8786 H   0  0  0  0  0  0  0  0  0  0  0  0
    5.0562   -1.4247    4.4758 H   0  0  0  0  0  0  0  0  0  0  0  0
   10.7206   -2.1509    3.0011 H   0  0  0  0  0  0  0  0  0  0  0  0
   10.8220   -0.3687    3.0040 H   0  0  0  0  0  0  0  0  0  0  0  0
   11.2545   -1.2875    1.5248 H   0  0  0  0  0  0  0  0  0  0  0  0
  1  2  1  0
  1 23  1  0
  1 24  1  0
  1 25  1  0
  2  3  2  0
  3  4  1  0
  3 21  1  0
  4  5  1  0
  5  6  2  0
  5 19  1  0
  6  7  1  0
  6 26  1  0
  7  8  2  0
  7 11  1  0
  8  9  1  0
  8 27  1  0
  9 10  2  0
  9 28  1  0
 10 11  1  0
 10 29  1  0
 11 12  1  0
 12 13  2  0
 12 18  1  0
 13 14  1  0
 13 30  1  0
 14 15  2  0
 14 31  1  0
 15 16  1  0
 15 17  1  0
 17 18  2  0
 17 32  1  0
 18 33  1  0
 19 20  2  0
 19 21  1  0
 21 22  1  0
 22 34  1  0
 22 35  1  0
 22 36  1  0
M  END

