
     RDKit          3D

 53 54  0  0  0  0  0  0  0  0999 V2000
    6.6990    2.3399   -1.3243 C   0  0  0  0  0  0  0  0  0  0  0  0
    7.1991    3.3961   -2.1148 O   0  0  0  0  0  0  0  0  0  0  0  0
    6.8358    4.6714   -1.8241 C   0  0  0  0  0  0  0  0  0  0  0  0
    5.9792    5.0053   -0.7700 C   0  0  0  0  0  0  0  0  0  0  0  0
    5.6704    6.3639   -0.5609 C   0  0  0  0  0  0  0  0  0  0  0  0
    4.8154    6.7908    0.4763 N   0  0  0  0  0  0  0  0  0  0  0  0
    4.1956    6.0477    1.4415 C   0  0  0  0  0  0  0  0  0  0  0  0
    4.2411    4.8344    1.5522 O   0  0  0  0  0  0  0  0  0  0  0  0
    3.3597    6.8811    2.4308 C   0  0  0  0  0  0  0  0  0  0  0  0
    4.1554    7.7034    3.3040 O   0  0  0  0  0  0  0  0  0  0  0  0
    4.5113    8.9319    2.8824 C   0  0  0  0  0  0  0  0  0  0  0  0
    4.2782    9.3398    1.7659 O   0  0  0  0  0  0  0  0  0  0  0  0
    5.2116    9.7135    3.9690 C   0  0  0  0  0  0  0  0  0  0  0  0
    6.3691    8.9433    4.6336 C   0  0  0  0  0  0  0  0  0  0  0  0
    6.9920    9.6886    5.7113 N   0  0  0  0  0  0  0  0  0  0  0  0
    7.9162   10.6665    5.4694 C   0  0  0  0  0  0  0  0  0  0  0  0
    8.2334   10.9941    4.3374 O   0  0  0  0  0  0  0  0  0  0  0  0
    8.5618   11.2841    6.7114 C   0  0  0  0  0  0  0  0  0  0  0  0
    9.7906   10.5092    7.1559 C   0  0  0  0  0  0  0  0  0  0  0  0
   10.8594   10.3068    6.2659 C   0  0  0  0  0  0  0  0  0  0  0  0
   11.9918    9.5953    6.6667 C   0  0  0  0  0  0  0  0  0  0  0  0
   12.0766    9.0738    7.9626 C   0  0  0  0  0  0  0  0  0  0  0  0
   11.0193    9.2688    8.8543 C   0  0  0  0  0  0  0  0  0  0  0  0
    9.8843    9.9807    8.4514 C   0  0  0  0  0  0  0  0  0  0  0  0
    6.2070    7.3559   -1.3869 C   0  0  0  0  0  0  0  0  0  0  0  0
    7.0638    6.9976   -2.4408 C   0  0  0  0  0  0  0  0  0  0  0  0
    7.5352    8.0271   -3.1898 O   0  0  0  0  0  0  0  0  0  0  0  0
    8.4069    7.7545   -4.2628 C   0  0  0  0  0  0  0  0  0  0  0  0
    7.3838    5.6565   -2.6661 C   0  0  0  0  0  0  0  0  0  0  0  0
    7.1221    1.4143   -1.7378 H   0  0  0  0  0  0  0  0  0  0  0  0
    5.5968    2.2813   -1.3654 H   0  0  0  0  0  0  0  0  0  0  0  0
    7.0063    2.4356   -0.2678 H   0  0  0  0  0  0  0  0  0  0  0  0
    5.5461    4.2601   -0.1121 H   0  0  0  0  0  0  0  0  0  0  0  0
    4.6501    7.7958    0.5292 H   0  0  0  0  0  0  0  0  0  0  0  0
    2.8419    6.1701    3.0830 H   0  0  0  0  0  0  0  0  0  0  0  0
    2.6348    7.5147    1.8959 H   0  0  0  0  0  0  0  0  0  0  0  0
    4.4581    9.9687    4.7345 H   0  0  0  0  0  0  0  0  0  0  0  0
    5.5835   10.6451    3.5238 H   0  0  0  0  0  0  0  0  0  0  0  0
    7.1362    8.7242    3.8744 H   0  0  0  0  0  0  0  0  0  0  0  0
    6.0035    7.9873    5.0331 H   0  0  0  0  0  0  0  0  0  0  0  0
    6.7812    9.4339    6.6680 H   0  0  0  0  0  0  0  0  0  0  0  0
    7.8370   11.3467    7.5385 H   0  0  0  0  0  0  0  0  0  0  0  0
    8.8398   12.3110    6.4296 H   0  0  0  0  0  0  0  0  0  0  0  0
   10.7901   10.7077    5.2514 H   0  0  0  0  0  0  0  0  0  0  0  0
   12.8147    9.4471    5.9625 H   0  0  0  0  0  0  0  0  0  0  0  0
   12.9645    8.5185    8.2752 H   0  0  0  0  0  0  0  0  0  0  0  0
   11.0758    8.8671    9.8695 H   0  0  0  0  0  0  0  0  0  0  0  0
    9.0633   10.1336    9.1585 H   0  0  0  0  0  0  0  0  0  0  0  0
    5.9800    8.4124   -1.2327 H   0  0  0  0  0  0  0  0  0  0  0  0
    8.6574    8.7231   -4.7163 H   0  0  0  0  0  0  0  0  0  0  0  0
    7.9316    7.1136   -5.0273 H   0  0  0  0  0  0  0  0  0  0  0  0
    9.3385    7.2669   -3.9230 H   0  0  0  0  0  0  0  0  0  0  0  0
    8.0427    5.3321   -3.4693 H   0  0  0  0  0  0  0  0  0  0  0  0
  1  2  1  0
  1 30  1  0
  1 31  1  0
  1 32  1  0
  2  3  1  0
  3  4  2  0
  3 29  1  0
  4  5  1  0
  4 33  1  0
  5  6  1  0
  5 25  2  0
  6  7  1  0
  6 34  1  0
  7  8  2  0
  7  9  1  0
  9 10  1  0
  9 35  1  0
  9 36  1  0
 10 11  1  0
 11 12  2  0
 11 13  1  0
 13 14  1  0
 13 37  1  0
 13 38  1  0
 14 15  1  0
 14 39  1  0
 14 40  1  0
 15 16  1  0
 15 41  1  0
 16 17  2  0
 16 18  1  0
 18 19  1  0
 18 42  1  0
 18 43  1  0
 19 20  2  0
 19 24  1  0
 20 21  1  0
 20 44  1  0
 21 22  2  0
 21 45  1  0
 22 23  1  0
 22 46  1  0
 23 24  2  0
 23 47  1  0
 24 48  1  0
 25 26  1  0
 25 49  1  0
 26 27  1  0
 26 29  2  0
 27 28  1  0
 28 50  1  0
 28 51  1  0
 28 52  1  0
 29 53  1  0
M  END

