
     RDKit          3D

 66 67  0  0  0  0  0  0  0  0999 V2000
    4.2514   -7.6862   -0.7484 C   0  0  0  0  0  0  0  0  0  0  0  0
    5.0617   -7.0695    0.1159 C   0  0  0  0  0  0  0  0  0  0  0  0
    5.5170   -7.6327    1.4358 C   0  0  0  0  0  0  0  0  0  0  0  0
    5.3391   -6.7015    2.5445 N   0  0  0  0  0  0  0  0  0  0  0  0
    3.9388   -6.4837    2.8608 C   0  0  0  0  0  0  0  0  0  0  0  0
    6.1360   -7.0430    3.7203 C   0  0  0  0  0  0  0  0  0  0  0  0
    7.6291   -6.7214    3.5858 C   0  0  0  0  0  0  0  0  0  0  0  0
    7.9259   -5.2327    3.3872 C   0  0  0  0  0  0  0  0  0  0  0  0
    9.4128   -4.9177    3.1995 C   0  0  0  0  0  0  0  0  0  0  0  0
    9.6980   -3.4240    3.0068 C   0  0  0  0  0  0  0  0  0  0  0  0
   11.1911   -3.0503    2.8966 C   0  0  1  0  0  0  0  0  0  0  0  0
   11.8884   -3.6101    1.6368 C   0  0  0  0  0  0  0  0  0  0  0  0
   11.4675   -2.8955    0.3431 C   0  0  0  0  0  0  0  0  0  0  0  0
   11.6592   -1.3660    0.4089 C   0  0  2  0  0  0  0  0  0  0  0  0
   13.1325   -0.9312    0.3152 C   0  0  0  0  0  0  0  0  0  0  0  0
   13.7135   -1.3320   -0.9691 N   0  0  0  0  0  0  0  0  0  0  0  0
   15.3563   -1.0927   -1.2437 S   0  0  1  0  0  0  0  0  0  0  0  0
   15.4853   -0.9742   -2.6976 O   0  0  0  0  0  0  0  0  0  0  0  0
   15.8818   -0.0724   -0.3315 O   0  0  0  0  0  0  0  0  0  0  0  0
   16.0822   -2.6641   -0.7458 C   0  0  0  0  0  0  0  0  0  0  0  0
   15.9312   -3.7763   -1.5804 C   0  0  0  0  0  0  0  0  0  0  0  0
   16.5076   -4.9875   -1.2048 C   0  0  0  0  0  0  0  0  0  0  0  0
   17.2320   -5.0771   -0.0070 C   0  0  0  0  0  0  0  0  0  0  0  0
   17.8060   -6.4096    0.4155 C   0  0  1  0  0  0  0  0  0  0  0  0
   18.2306   -7.1235   -0.6407 F   0  0  0  0  0  0  0  0  0  0  0  0
   18.8446   -6.2651    1.2543 F   0  0  0  0  0  0  0  0  0  0  0  0
   16.8843   -7.1577    1.0508 F   0  0  0  0  0  0  0  0  0  0  0  0
   17.3911   -3.9534    0.8097 C   0  0  0  0  0  0  0  0  0  0  0  0
   16.8160   -2.7348    0.4385 C   0  0  0  0  0  0  0  0  0  0  0  0
   10.9893   -0.7959    1.6767 C   0  0  0  0  0  0  0  0  0  0  0  0
   11.4148   -1.5237    2.9619 C   0  0  0  0  0  0  0  0  0  0  0  0
    3.9875   -7.2348   -1.7090 H   0  0  0  0  0  0  0  0  0  0  0  0
    3.8243   -8.6712   -0.5306 H   0  0  0  0  0  0  0  0  0  0  0  0
    5.4648   -6.0780   -0.1265 H   0  0  0  0  0  0  0  0  0  0  0  0
    6.5942   -7.8566    1.3524 H   0  0  0  0  0  0  0  0  0  0  0  0
    5.0107   -8.6089    1.6245 H   0  0  0  0  0  0  0  0  0  0  0  0
    3.3880   -6.1818    1.9575 H   0  0  0  0  0  0  0  0  0  0  0  0
    3.8382   -5.6778    3.6047 H   0  0  0  0  0  0  0  0  0  0  0  0
    3.4353   -7.3909    3.2701 H   0  0  0  0  0  0  0  0  0  0  0  0
    6.0103   -8.1156    3.9984 H   0  0  0  0  0  0  0  0  0  0  0  0
    5.7348   -6.4633    4.5684 H   0  0  0  0  0  0  0  0  0  0  0  0
    8.0701   -7.3001    2.7543 H   0  0  0  0  0  0  0  0  0  0  0  0
    8.1371   -7.0872    4.4963 H   0  0  0  0  0  0  0  0  0  0  0  0
    7.5384   -4.6681    4.2561 H   0  0  0  0  0  0  0  0  0  0  0  0
    7.3518   -4.8713    2.5171 H   0  0  0  0  0  0  0  0  0  0  0  0
    9.7917   -5.4902    2.3341 H   0  0  0  0  0  0  0  0  0  0  0  0
    9.9815   -5.2867    4.0739 H   0  0  0  0  0  0  0  0  0  0  0  0
    9.2712   -2.8734    3.8650 H   0  0  0  0  0  0  0  0  0  0  0  0
    9.1402   -3.0660    2.1235 H   0  0  0  0  0  0  0  0  0  0  0  0
   11.6900   -3.4942    3.7775 H   0  0  0  0  0  0  0  0  0  0  0  0
   11.7023   -4.6917    1.5378 H   0  0  0  0  0  0  0  0  0  0  0  0
   12.9803   -3.5136    1.7701 H   0  0  0  0  0  0  0  0  0  0  0  0
   10.4036   -3.1026    0.1360 H   0  0  0  0  0  0  0  0  0  0  0  0
   12.0319   -3.3034   -0.5105 H   0  0  0  0  0  0  0  0  0  0  0  0
   11.1498   -0.9191   -0.4659 H   0  0  0  0  0  0  0  0  0  0  0  0
   13.7314   -1.3981    1.1122 H   0  0  0  0  0  0  0  0  0  0  0  0
   13.2074    0.1605    0.4674 H   0  0  0  0  0  0  0  0  0  0  0  0
   13.2142   -1.0022   -1.7963 H   0  0  0  0  0  0  0  0  0  0  0  0
   15.3794   -3.6841   -2.5174 H   0  0  0  0  0  0  0  0  0  0  0  0
   16.4076   -5.8643   -1.8474 H   0  0  0  0  0  0  0  0  0  0  0  0
   17.9738   -4.0264    1.7294 H   0  0  0  0  0  0  0  0  0  0  0  0
   16.9423   -1.8386    1.0480 H   0  0  0  0  0  0  0  0  0  0  0  0
    9.8958   -0.8760    1.5557 H   0  0  0  0  0  0  0  0  0  0  0  0
   11.2048    0.2827    1.7657 H   0  0  0  0  0  0  0  0  0  0  0  0
   10.8713   -1.0998    3.8234 H   0  0  0  0  0  0  0  0  0  0  0  0
   12.4843   -1.3295    3.1573 H   0  0  0  0  0  0  0  0  0  0  0  0
  1  2  2  0
  1 32  1  0
  1 33  1  0
  2  3  1  0
  2 34  1  0
  3  4  1  0
  3 35  1  0
  3 36  1  0
  4  5  1  0
  4  6  1  0
  5 37  1  0
  5 38  1  0
  5 39  1  0
  6  7  1  0
  6 40  1  0
  6 41  1  0
  7  8  1  0
  7 42  1  0
  7 43  1  0
  8  9  1  0
  8 44  1  0
  8 45  1  0
  9 10  1  0
  9 46  1  0
  9 47  1  0
 10 11  1  0
 10 48  1  0
 10 49  1  0
 11 12  1  0
 11 31  1  0
 11 50  1  1
 12 13  1  0
 12 51  1  0
 12 52  1  0
 13 14  1  0
 13 53  1  0
 13 54  1  0
 14 15  1  0
 14 30  1  0
 14 55  1  6
 15 16  1  0
 15 56  1  0
 15 57  1  0
 17 16  1  6
 16 58  1  0
 17 18  2  0
 17 19  2  0
 17 20  1  0
 20 21  2  0
 20 29  1  0
 21 22  1  0
 21 59  1  0
 22 23  2  0
 22 60  1  0
 23 24  1  0
 23 28  1  0
 24 25  1  6
 24 26  1  0
 24 27  1  0
 28 29  2  0
 28 61  1  0
 29 62  1  0
 30 31  1  0
 30 63  1  0
 30 64  1  0
 31 65  1  0
 31 66  1  0
M  END

