
     RDKit          3D

 66 69  0  0  0  0  0  0  0  0999 V2000
    1.2627   -0.6804    4.7627 C   0  0  0  0  0  0  0  0  0  0  0  0
    2.7488   -0.5459    4.4531 C   0  0  0  0  0  0  0  0  0  0  0  0
    3.1431   -1.4686    2.9291 S   0  0  1  0  0  0  0  0  0  0  0  0
    2.9137   -2.8951    3.2161 O   0  0  0  0  0  0  0  0  0  0  0  0
    2.4406   -0.7967    1.8231 O   0  0  0  0  0  0  0  0  0  0  0  0
    4.9065   -1.2326    2.6940 C   0  0  0  0  0  0  0  0  0  0  0  0
    5.3584   -0.1602    1.9227 C   0  0  0  0  0  0  0  0  0  0  0  0
    6.7281    0.0371    1.7182 C   0  0  0  0  0  0  0  0  0  0  0  0
    7.6335   -0.8633    2.3010 C   0  0  0  0  0  0  0  0  0  0  0  0
    7.1606   -1.9672    3.0496 C   0  0  0  0  0  0  0  0  0  0  0  0
    5.8035   -2.1584    3.2517 C   0  0  0  0  0  0  0  0  0  0  0  0
    8.3359   -2.7888    3.5239 C   0  0  0  0  0  0  0  0  0  0  0  0
    9.5060   -2.2401    2.6848 C   0  0  0  0  0  0  0  0  0  0  0  0
    9.0284   -0.9182    2.2168 N   0  0  0  0  0  0  0  0  0  0  0  0
    9.9199    0.0043    1.7062 C   0  0  0  0  0  0  0  0  0  0  0  0
    9.6198    1.3588    1.4902 C   0  0  0  0  0  0  0  0  0  0  0  0
   10.6548    2.1508    0.9716 C   0  0  0  0  0  0  0  0  0  0  0  0
   10.3890    3.4461    0.7646 O   0  0  0  0  0  0  0  0  0  0  0  0
   11.4266    4.3291    0.2662 C   0  0  1  0  0  0  0  0  0  0  0  0
   11.4970    4.2562   -1.2625 C   0  0  0  0  0  0  0  0  0  0  0  0
   10.2318    4.8144   -1.9245 C   0  0  0  0  0  0  0  0  0  0  0  0
    9.9335    6.1522   -1.4219 N   0  0  0  0  0  0  0  0  0  0  0  0
    9.7288    7.2632   -2.2014 C   0  0  0  0  0  0  0  0  0  0  0  0
    9.4617    8.3637   -1.7535 O   0  0  0  0  0  0  0  0  0  0  0  0
    9.8668    6.9766   -3.5151 O   0  0  0  0  0  0  0  0  0  0  0  0
    9.7010    8.0005   -4.5499 C   0  0  1  0  0  0  0  0  0  0  0  0
   10.7527    9.1014   -4.3758 C   0  0  0  0  0  0  0  0  0  0  0  0
    9.9464    7.2200   -5.8432 C   0  0  0  0  0  0  0  0  0  0  0  0
    8.2732    8.5560   -4.5174 C   0  0  0  0  0  0  0  0  0  0  0  0
    9.7974    6.2611    0.0267 C   0  0  0  0  0  0  0  0  0  0  0  0
   11.0529    5.7362    0.7323 C   0  0  0  0  0  0  0  0  0  0  0  0
   11.8677    1.6664    0.6994 N   0  0  0  0  0  0  0  0  0  0  0  0
   12.0502    0.3739    0.9756 C   0  0  0  0  0  0  0  0  0  0  0  0
   11.1582   -0.4777    1.4560 N   0  0  0  0  0  0  0  0  0  0  0  0
    1.0163   -0.1251    5.6809 H   0  0  0  0  0  0  0  0  0  0  0  0
    0.9924   -1.7364    4.9087 H   0  0  0  0  0  0  0  0  0  0  0  0
    0.6582   -0.2774    3.9371 H   0  0  0  0  0  0  0  0  0  0  0  0
    3.3863   -0.9714    5.2427 H   0  0  0  0  0  0  0  0  0  0  0  0
    3.0507    0.4957    4.2669 H   0  0  0  0  0  0  0  0  0  0  0  0
    4.6301    0.5057    1.4555 H   0  0  0  0  0  0  0  0  0  0  0  0
    7.0580    0.8531    1.0792 H   0  0  0  0  0  0  0  0  0  0  0  0
    5.4208   -3.0171    3.8076 H   0  0  0  0  0  0  0  0  0  0  0  0
    8.1908   -3.8691    3.3774 H   0  0  0  0  0  0  0  0  0  0  0  0
    8.5085   -2.6268    4.6027 H   0  0  0  0  0  0  0  0  0  0  0  0
    9.7265   -2.8806    1.8143 H   0  0  0  0  0  0  0  0  0  0  0  0
   10.4421   -2.1233    3.2435 H   0  0  0  0  0  0  0  0  0  0  0  0
    8.6686    1.8191    1.7404 H   0  0  0  0  0  0  0  0  0  0  0  0
   12.3830    4.0058    0.6999 H   0  0  0  0  0  0  0  0  0  0  0  0
   11.6726    3.2158   -1.5754 H   0  0  0  0  0  0  0  0  0  0  0  0
   12.3706    4.8458   -1.5892 H   0  0  0  0  0  0  0  0  0  0  0  0
    9.3774    4.1457   -1.7071 H   0  0  0  0  0  0  0  0  0  0  0  0
   10.3492    4.8593   -3.0115 H   0  0  0  0  0  0  0  0  0  0  0  0
   11.7644    8.6657   -4.3644 H   0  0  0  0  0  0  0  0  0  0  0  0
   10.5937    9.6530   -3.4409 H   0  0  0  0  0  0  0  0  0  0  0  0
   10.6955    9.8068   -5.2197 H   0  0  0  0  0  0  0  0  0  0  0  0
   10.9579    6.7856   -5.8489 H   0  0  0  0  0  0  0  0  0  0  0  0
    9.8487    7.8853   -6.7144 H   0  0  0  0  0  0  0  0  0  0  0  0
    9.2179    6.4014   -5.9468 H   0  0  0  0  0  0  0  0  0  0  0  0
    8.0840    9.1007   -3.5841 H   0  0  0  0  0  0  0  0  0  0  0  0
    7.5421    7.7369   -4.6058 H   0  0  0  0  0  0  0  0  0  0  0  0
    8.1218    9.2409   -5.3665 H   0  0  0  0  0  0  0  0  0  0  0  0
    8.9193    5.6762    0.3579 H   0  0  0  0  0  0  0  0  0  0  0  0
    9.6143    7.3143    0.2694 H   0  0  0  0  0  0  0  0  0  0  0  0
   10.9020    5.7363    1.8236 H   0  0  0  0  0  0  0  0  0  0  0  0
   11.9025    6.4045    0.5146 H   0  0  0  0  0  0  0  0  0  0  0  0
   13.0520   -0.0282    0.7773 H   0  0  0  0  0  0  0  0  0  0  0  0
  1  2  1  0
  1 35  1  0
  1 36  1  0
  1 37  1  0
  3  2  1  1
  2 38  1  0
  2 39  1  0
  3  4  2  0
  3  5  2  0
  3  6  1  0
  6  7  2  0
  6 11  1  0
  7  8  1  0
  7 40  1  0
  8  9  2  0
  8 41  1  0
  9 10  1  0
  9 14  1  0
 10 11  2  0
 10 12  1  0
 11 42  1  0
 12 13  1  0
 12 43  1  0
 12 44  1  0
 13 14  1  0
 13 45  1  0
 13 46  1  0
 14 15  1  0
 15 16  2  0
 15 34  1  0
 16 17  1  0
 16 47  1  0
 17 18  1  0
 17 32  2  0
 18 19  1  0
 19 20  1  0
 19 31  1  0
 19 48  1  1
 20 21  1  0
 20 49  1  0
 20 50  1  0
 21 22  1  0
 21 51  1  0
 21 52  1  0
 22 23  1  0
 22 30  1  0
 23 24  2  0
 23 25  1  0
 26 25  1  1
 26 27  1  0
 26 28  1  0
 26 29  1  0
 27 53  1  0
 27 54  1  0
 27 55  1  0
 28 56  1  0
 28 57  1  0
 28 58  1  0
 29 59  1  0
 29 60  1  0
 29 61  1  0
 30 31  1  0
 30 62  1  0
 30 63  1  0
 31 64  1  0
 31 65  1  0
 32 33  1  0
 33 34  2  0
 33 66  1  0
M  END

