
     RDKit          3D

 33 35  0  0  0  0  0  0  0  0999 V2000
    3.1101    1.2347    0.9984 C   0  0  0  0  0  0  0  0  0  0  0  0
    2.7421    0.1118    0.1598 N   0  0  0  0  0  0  0  0  0  0  0  0
    2.9446   -1.1892    0.7465 C   0  0  1  0  0  0  0  0  0  0  0  0
    1.8234   -1.7059    1.6631 C   0  0  0  0  0  0  0  0  0  0  0  0
    1.8751   -3.2342    1.4828 C   0  0  0  0  0  0  0  0  0  0  0  0
    2.4071   -3.3903    0.1314 N   0  0  0  0  0  0  0  0  0  0  0  0
    2.3785   -4.6313   -0.6275 C   0  0  1  0  0  0  0  0  0  0  0  0
    3.1684   -5.8029    0.0197 C   0  0  0  0  0  0  0  0  0  0  0  0
    2.2057   -6.6808    0.6300 O   0  0  0  0  0  0  0  0  0  0  0  0
    0.9948   -6.4101    0.0732 C   0  0  0  0  0  0  0  0  0  0  0  0
   -0.1562   -7.1771    0.2543 C   0  0  0  0  0  0  0  0  0  0  0  0
   -1.3241   -6.7455   -0.3870 C   0  0  0  0  0  0  0  0  0  0  0  0
   -1.3395   -5.5877   -1.1778 C   0  0  0  0  0  0  0  0  0  0  0  0
   -0.1728   -4.8268   -1.3388 C   0  0  0  0  0  0  0  0  0  0  0  0
    0.9964   -5.2514   -0.7123 C   0  0  0  0  0  0  0  0  0  0  0  0
    3.0077   -2.2591   -0.3505 C   0  0  0  0  0  0  0  0  0  0  0  0
    3.5185   -2.1192   -1.4468 O   0  0  0  0  0  0  0  0  0  0  0  0
    2.9919    2.1741    0.4364 H   0  0  0  0  0  0  0  0  0  0  0  0
    4.1547    1.1951    1.3837 H   0  0  0  0  0  0  0  0  0  0  0  0
    2.4440    1.2978    1.8756 H   0  0  0  0  0  0  0  0  0  0  0  0
    3.2400    0.1343   -0.7311 H   0  0  0  0  0  0  0  0  0  0  0  0
    3.9201   -1.2638    1.2902 H   0  0  0  0  0  0  0  0  0  0  0  0
    0.8694   -1.3098    1.2813 H   0  0  0  0  0  0  0  0  0  0  0  0
    1.9292   -1.4062    2.7156 H   0  0  0  0  0  0  0  0  0  0  0  0
    0.8844   -3.7062    1.5689 H   0  0  0  0  0  0  0  0  0  0  0  0
    2.5366   -3.7153    2.2285 H   0  0  0  0  0  0  0  0  0  0  0  0
    2.7996   -4.3699   -1.6093 H   0  0  0  0  0  0  0  0  0  0  0  0
    3.8817   -5.4733    0.7879 H   0  0  0  0  0  0  0  0  0  0  0  0
    3.7147   -6.3698   -0.7535 H   0  0  0  0  0  0  0  0  0  0  0  0
   -0.1348   -8.0773    0.8710 H   0  0  0  0  0  0  0  0  0  0  0  0
   -2.2413   -7.3287   -0.2697 H   0  0  0  0  0  0  0  0  0  0  0  0
   -2.2645   -5.2782   -1.6696 H   0  0  0  0  0  0  0  0  0  0  0  0
   -0.1801   -3.9163   -1.9441 H   0  0  0  0  0  0  0  0  0  0  0  0
  1  2  1  0
  1 18  1  0
  1 19  1  0
  1 20  1  0
  2  3  1  0
  2 21  1  0
  3  4  1  0
  3 16  1  0
  3 22  1  1
  4  5  1  0
  4 23  1  0
  4 24  1  0
  5  6  1  0
  5 25  1  0
  5 26  1  0
  6  7  1  0
  6 16  1  0
  7  8  1  0
  7 15  1  0
  7 27  1  6
  8  9  1  0
  8 28  1  0
  8 29  1  0
  9 10  1  0
 10 11  1  0
 10 15  2  0
 11 12  2  0
 11 30  1  0
 12 13  1  0
 12 31  1  0
 13 14  2  0
 13 32  1  0
 14 15  1  0
 14 33  1  0
 16 17  2  0
M  END

