
     RDKit          3D

 37 37  0  0  0  0  0  0  0  0999 V2000
    3.2477   -0.1515    5.8593 C   0  0  0  0  0  0  0  0  0  0  0  0
    3.4580    0.4407    4.4822 C   0  0  0  0  0  0  0  0  0  0  0  0
    4.7039   -0.0745    3.9662 O   0  0  0  0  0  0  0  0  0  0  0  0
    5.1720    0.4174    2.7890 C   0  0  0  0  0  0  0  0  0  0  0  0
    5.7718    1.6881    2.6896 C   0  0  0  0  0  0  0  0  0  0  0  0
    5.9898    2.7754    4.2425 Br  0  0  0  0  0  0  0  0  0  0  0  0
    6.2838    2.1658    1.4796 C   0  0  0  0  0  0  0  0  0  0  0  0
    6.2197    1.3453    0.3550 C   0  0  0  0  0  0  0  0  0  0  0  0
    6.9097    1.9787   -1.3085 Br  0  0  0  0  0  0  0  0  0  0  0  0
    5.6749    0.0620    0.4367 C   0  0  0  0  0  0  0  0  0  0  0  0
    5.1484   -0.4127    1.6440 C   0  0  0  0  0  0  0  0  0  0  0  0
    4.5739   -1.8259    1.7324 C   0  0  0  0  0  0  0  0  0  0  0  0
    3.1329   -1.9478    1.8260 N   0  0  0  0  0  0  0  0  0  0  0  0
    2.3410   -1.3802    0.7657 C   0  0  0  0  0  0  0  0  0  0  0  0
    0.9570   -0.9933    1.3039 C   0  0  0  0  0  0  0  0  0  0  0  0
    0.7717   -0.9209    2.5140 O   0  0  0  0  0  0  0  0  0  0  0  0
   -0.0279   -0.7101    0.3972 N   0  0  0  0  0  0  0  0  0  0  0  0
    0.1329   -0.7562   -1.0441 C   0  0  0  0  0  0  0  0  0  0  0  0
   -1.3613   -0.3859    0.8776 C   0  0  0  0  0  0  0  0  0  0  0  0
    2.2930    0.2028    6.2781 H   0  0  0  0  0  0  0  0  0  0  0  0
    4.0618    0.1433    6.5392 H   0  0  0  0  0  0  0  0  0  0  0  0
    3.2158   -1.2511    5.8135 H   0  0  0  0  0  0  0  0  0  0  0  0
    3.5037    1.5406    4.5330 H   0  0  0  0  0  0  0  0  0  0  0  0
    2.6376    0.1598    3.8004 H   0  0  0  0  0  0  0  0  0  0  0  0
    6.7379    3.1551    1.4286 H   0  0  0  0  0  0  0  0  0  0  0  0
    5.6668   -0.5824   -0.4449 H   0  0  0  0  0  0  0  0  0  0  0  0
    5.0032   -2.3231    2.6154 H   0  0  0  0  0  0  0  0  0  0  0  0
    4.9266   -2.3868    0.8487 H   0  0  0  0  0  0  0  0  0  0  0  0
    2.7529   -1.6728    2.7285 H   0  0  0  0  0  0  0  0  0  0  0  0
    2.2407   -2.0918   -0.0752 H   0  0  0  0  0  0  0  0  0  0  0  0
    2.7804   -0.4533    0.3296 H   0  0  0  0  0  0  0  0  0  0  0  0
    1.1879   -0.7147   -1.3373 H   0  0  0  0  0  0  0  0  0  0  0  0
   -0.3679    0.1148   -1.4986 H   0  0  0  0  0  0  0  0  0  0  0  0
   -0.3169   -1.6672   -1.4819 H   0  0  0  0  0  0  0  0  0  0  0  0
   -1.3612   -0.4314    1.9723 H   0  0  0  0  0  0  0  0  0  0  0  0
   -2.1023   -1.1029    0.4819 H   0  0  0  0  0  0  0  0  0  0  0  0
   -1.6588    0.6277    0.5558 H   0  0  0  0  0  0  0  0  0  0  0  0
  1  2  1  0
  1 20  1  0
  1 21  1  0
  1 22  1  0
  2  3  1  0
  2 23  1  0
  2 24  1  0
  3  4  1  0
  4  5  2  0
  4 11  1  0
  5  6  1  0
  5  7  1  0
  7  8  2  0
  7 25  1  0
  8  9  1  0
  8 10  1  0
 10 11  2  0
 10 26  1  0
 11 12  1  0
 12 13  1  0
 12 27  1  0
 12 28  1  0
 13 14  1  0
 13 29  1  0
 14 15  1  0
 14 30  1  0
 14 31  1  0
 15 16  2  0
 15 17  1  0
 17 18  1  0
 17 19  1  0
 18 32  1  0
 18 33  1  0
 18 34  1  0
 19 35  1  0
 19 36  1  0
 19 37  1  0
M  END

