
     RDKit          3D

 44 45  0  0  0  0  0  0  0  0999 V2000
    2.8958    1.4099   -1.3394 C   0  0  0  0  0  0  0  0  0  0  0  0
    2.4021    0.3002   -0.4064 C   0  0  1  0  0  0  0  0  0  0  0  0
    0.8726    0.2931   -0.2951 C   0  0  0  0  0  0  0  0  0  0  0  0
    2.9013   -1.0923   -0.8447 C   0  0  0  0  0  0  0  0  0  0  0  0
    4.3594   -1.2250   -0.8999 N   0  0  0  0  0  0  0  0  0  0  0  0
    4.9781   -1.3627    0.3994 C   0  0  0  0  0  0  0  0  0  0  0  0
    4.7973   -2.7105    1.1185 C   0  0  0  0  0  0  0  0  0  0  0  0
    4.1656   -3.6169    0.6082 O   0  0  0  0  0  0  0  0  0  0  0  0
    5.4268   -2.8900    2.4725 C   0  0  0  0  0  0  0  0  0  0  0  0
    5.2583   -4.1307    3.1150 C   0  0  0  0  0  0  0  0  0  0  0  0
    5.8090   -4.3705    4.3704 C   0  0  0  0  0  0  0  0  0  0  0  0
    6.5373   -3.3524    4.9880 C   0  0  0  0  0  0  0  0  0  0  0  0
    7.0701   -3.5737    6.1945 F   0  0  0  0  0  0  0  0  0  0  0  0
    6.7248   -2.1113    4.3822 C   0  0  0  0  0  0  0  0  0  0  0  0
    6.1668   -1.8858    3.1231 C   0  0  0  0  0  0  0  0  0  0  0  0
    4.8717   -2.0930   -1.9667 C   0  0  1  0  0  0  0  0  0  0  0  0
    4.5853   -1.5687   -3.3885 C   0  0  0  0  0  0  0  0  0  0  0  0
    5.5359   -2.3732   -4.2991 C   0  0  0  0  0  0  0  0  0  0  0  0
    6.7158   -2.8132   -3.3852 C   0  0  0  0  0  0  0  0  0  0  0  0
    6.4051   -2.2244   -1.9946 C   0  0  0  0  0  0  0  0  0  0  0  0
    2.5868    2.4044   -0.9782 H   0  0  0  0  0  0  0  0  0  0  0  0
    2.4826    1.2812   -2.3553 H   0  0  0  0  0  0  0  0  0  0  0  0
    3.9925    1.3941   -1.4214 H   0  0  0  0  0  0  0  0  0  0  0  0
    2.8019    0.5074    0.6047 H   0  0  0  0  0  0  0  0  0  0  0  0
    0.4060    0.0918   -1.2751 H   0  0  0  0  0  0  0  0  0  0  0  0
    0.4921    1.2649    0.0583 H   0  0  0  0  0  0  0  0  0  0  0  0
    0.5192   -0.4814    0.4054 H   0  0  0  0  0  0  0  0  0  0  0  0
    2.5027   -1.2876   -1.8516 H   0  0  0  0  0  0  0  0  0  0  0  0
    2.4486   -1.8630   -0.1895 H   0  0  0  0  0  0  0  0  0  0  0  0
    4.5898   -0.5755    1.0689 H   0  0  0  0  0  0  0  0  0  0  0  0
    6.0603   -1.1620    0.3324 H   0  0  0  0  0  0  0  0  0  0  0  0
    4.6814   -4.9004    2.5987 H   0  0  0  0  0  0  0  0  0  0  0  0
    5.6870   -5.3275    4.8817 H   0  0  0  0  0  0  0  0  0  0  0  0
    7.3016   -1.3435    4.9011 H   0  0  0  0  0  0  0  0  0  0  0  0
    6.3180   -0.9120    2.6549 H   0  0  0  0  0  0  0  0  0  0  0  0
    4.4481   -3.1155   -1.8795 H   0  0  0  0  0  0  0  0  0  0  0  0
    4.8330   -0.4939   -3.4115 H   0  0  0  0  0  0  0  0  0  0  0  0
    3.5331   -1.6687   -3.6943 H   0  0  0  0  0  0  0  0  0  0  0  0
    5.8713   -1.7756   -5.1607 H   0  0  0  0  0  0  0  0  0  0  0  0
    5.0224   -3.2551   -4.7139 H   0  0  0  0  0  0  0  0  0  0  0  0
    7.6926   -2.4717   -3.7608 H   0  0  0  0  0  0  0  0  0  0  0  0
    6.7697   -3.9120   -3.3301 H   0  0  0  0  0  0  0  0  0  0  0  0
    6.8436   -1.2155   -1.8963 H   0  0  0  0  0  0  0  0  0  0  0  0
    6.8095   -2.8455   -1.1807 H   0  0  0  0  0  0  0  0  0  0  0  0
  1  2  1  0
  1 21  1  0
  1 22  1  0
  1 23  1  0
  2  3  1  0
  2  4  1  0
  2 24  1  1
  3 25  1  0
  3 26  1  0
  3 27  1  0
  4  5  1  0
  4 28  1  0
  4 29  1  0
  5  6  1  0
  5 16  1  0
  6  7  1  0
  6 30  1  0
  6 31  1  0
  7  8  2  0
  7  9  1  0
  9 10  2  0
  9 15  1  0
 10 11  1  0
 10 32  1  0
 11 12  2  0
 11 33  1  0
 12 13  1  0
 12 14  1  0
 14 15  2  0
 14 34  1  0
 15 35  1  0
 16 17  1  0
 16 20  1  0
 16 36  1  6
 17 18  1  0
 17 37  1  0
 17 38  1  0
 18 19  1  0
 18 39  1  0
 18 40  1  0
 19 20  1  0
 19 41  1  0
 19 42  1  0
 20 43  1  0
 20 44  1  0
M  END

