
     RDKit          3D

 39 41  0  0  0  0  0  0  0  0999 V2000
    2.6674   -0.4593    1.5609 C   0  0  0  0  0  0  0  0  0  0  0  0
    2.9975    0.0304    0.2362 N   0  0  0  0  0  0  0  0  0  0  0  0
    3.4692    1.3912    0.1325 C   0  0  0  0  0  0  0  0  0  0  0  0
    3.2461   -0.8698   -0.7919 C   0  0  0  0  0  0  0  0  0  0  0  0
    3.8273   -0.4665   -2.0237 C   0  0  0  0  0  0  0  0  0  0  0  0
    4.0055   -1.4087   -3.0248 C   0  0  0  0  0  0  0  0  0  0  0  0
    3.6244   -2.7522   -2.8297 C   0  0  0  0  0  0  0  0  0  0  0  0
    3.8244   -3.6985   -3.8383 N   0  0  0  0  0  0  0  0  0  0  0  0
    3.2217   -5.0280   -3.8076 C   0  0  2  0  0  0  0  0  0  0  0  0
    4.0984   -6.0371   -3.0399 C   0  0  0  0  0  0  0  0  0  0  0  0
    5.2993   -6.4136   -3.8898 C   0  0  0  0  0  0  0  0  0  0  0  0
    4.9057   -7.0462   -5.1078 O   0  0  0  0  0  0  0  0  0  0  0  0
    3.8623   -6.5041   -5.7806 C   0  0  0  0  0  0  0  0  0  0  0  0
    3.6352   -6.9747   -7.0858 C   0  0  0  0  0  0  0  0  0  0  0  0
    2.5809   -6.4792   -7.8454 C   0  0  0  0  0  0  0  0  0  0  0  0
    1.7377   -5.5031   -7.2989 C   0  0  0  0  0  0  0  0  0  0  0  0
    0.2873   -4.8156   -8.3338 Br  0  0  0  0  0  0  0  0  0  0  0  0
    1.9465   -5.0382   -6.0028 C   0  0  0  0  0  0  0  0  0  0  0  0
    3.0055   -5.5327   -5.2247 C   0  0  0  0  0  0  0  0  0  0  0  0
    3.0819   -3.0497   -1.5667 C   0  0  0  0  0  0  0  0  0  0  0  0
    2.9073   -2.1488   -0.5992 N   0  0  0  0  0  0  0  0  0  0  0  0
    1.9855    0.2464    2.0627 H   0  0  0  0  0  0  0  0  0  0  0  0
    3.5637   -0.5860    2.2031 H   0  0  0  0  0  0  0  0  0  0  0  0
    2.1768   -1.4347    1.4718 H   0  0  0  0  0  0  0  0  0  0  0  0
    3.0736    1.9741    0.9764 H   0  0  0  0  0  0  0  0  0  0  0  0
    3.1127    1.8740   -0.7926 H   0  0  0  0  0  0  0  0  0  0  0  0
    4.5762    1.4781    0.1525 H   0  0  0  0  0  0  0  0  0  0  0  0
    4.1383    0.5623   -2.2000 H   0  0  0  0  0  0  0  0  0  0  0  0
    4.4535   -1.1057   -3.9765 H   0  0  0  0  0  0  0  0  0  0  0  0
    3.9300   -3.3069   -4.7665 H   0  0  0  0  0  0  0  0  0  0  0  0
    2.2316   -4.9713   -3.3156 H   0  0  0  0  0  0  0  0  0  0  0  0
    3.5098   -6.9398   -2.8034 H   0  0  0  0  0  0  0  0  0  0  0  0
    4.4405   -5.6024   -2.0890 H   0  0  0  0  0  0  0  0  0  0  0  0
    5.9598   -7.1307   -3.3831 H   0  0  0  0  0  0  0  0  0  0  0  0
    5.8834   -5.5047   -4.1258 H   0  0  0  0  0  0  0  0  0  0  0  0
    4.3099   -7.7337   -7.4868 H   0  0  0  0  0  0  0  0  0  0  0  0
    2.4128   -6.8464   -8.8592 H   0  0  0  0  0  0  0  0  0  0  0  0
    1.2756   -4.2886   -5.5766 H   0  0  0  0  0  0  0  0  0  0  0  0
    2.7783   -4.0718   -1.3174 H   0  0  0  0  0  0  0  0  0  0  0  0
  1  2  1  0
  1 22  1  0
  1 23  1  0
  1 24  1  0
  2  3  1  0
  2  4  1  0
  3 25  1  0
  3 26  1  0
  3 27  1  0
  4  5  2  0
  4 21  1  0
  5  6  1  0
  5 28  1  0
  6  7  2  0
  6 29  1  0
  7  8  1  0
  7 20  1  0
  8  9  1  0
  8 30  1  0
  9 10  1  0
  9 19  1  0
  9 31  1  1
 10 11  1  0
 10 32  1  0
 10 33  1  0
 11 12  1  0
 11 34  1  0
 11 35  1  0
 12 13  1  0
 13 14  2  0
 13 19  1  0
 14 15  1  0
 14 36  1  0
 15 16  2  0
 15 37  1  0
 16 17  1  0
 16 18  1  0
 18 19  2  0
 18 38  1  0
 20 21  2  0
 20 39  1  0
M  END

