
     RDKit          3D

 46 47  0  0  0  0  0  0  0  0999 V2000
    1.4410    0.7846    1.1358 C   0  0  0  0  0  0  0  0  0  0  0  0
    2.7826    0.7604    0.4504 C   0  0  0  0  0  0  0  0  0  0  0  0
    3.9164    1.2271    1.1317 C   0  0  0  0  0  0  0  0  0  0  0  0
    5.2001    1.1441    0.5914 C   0  0  0  0  0  0  0  0  0  0  0  0
    5.3322    0.5720   -0.6736 C   0  0  0  0  0  0  0  0  0  0  0  0
    6.9587    0.4187   -1.3912 S   0  0  1  0  0  0  0  0  0  0  0  0
    6.8497    0.4593   -2.8430 O   0  0  0  0  0  0  0  0  0  0  0  0
    7.8962    1.2716   -0.6594 O   0  0  0  0  0  0  0  0  0  0  0  0
    7.4784   -1.1607   -0.9255 N   0  0  0  0  0  0  0  0  0  0  0  0
    6.9580   -2.3618   -1.3800 C   0  0  0  0  0  0  0  0  0  0  0  0
    5.9457   -2.4267   -2.0454 O   0  0  0  0  0  0  0  0  0  0  0  0
    7.7749   -3.5825   -0.9680 C   0  0  0  0  0  0  0  0  0  0  0  0
    7.0311   -4.9037   -1.2057 C   0  0  0  0  0  0  0  0  0  0  0  0
    7.8728   -6.1152   -0.8683 C   0  0  0  0  0  0  0  0  0  0  0  0
    7.8634   -6.6638    0.4242 C   0  0  0  0  0  0  0  0  0  0  0  0
    8.6655   -7.7624    0.7460 C   0  0  0  0  0  0  0  0  0  0  0  0
    9.4947   -8.3338   -0.2237 C   0  0  0  0  0  0  0  0  0  0  0  0
    9.5127   -7.7998   -1.5158 C   0  0  0  0  0  0  0  0  0  0  0  0
    8.7086   -6.7016   -1.8327 C   0  0  0  0  0  0  0  0  0  0  0  0
    4.2313    0.1261   -1.4034 C   0  0  0  0  0  0  0  0  0  0  0  0
    2.9390    0.2151   -0.8564 C   0  0  0  0  0  0  0  0  0  0  0  0
    1.8209   -0.2825   -1.5630 N   0  0  0  0  0  0  0  0  0  0  0  0
    2.0666   -1.3107   -2.5601 C   0  0  0  0  0  0  0  0  0  0  0  0
    0.8278    0.6883   -2.0041 C   0  0  0  0  0  0  0  0  0  0  0  0
    1.5613    0.7750    2.2291 H   0  0  0  0  0  0  0  0  0  0  0  0
    0.8384   -0.0854    0.8337 H   0  0  0  0  0  0  0  0  0  0  0  0
    0.8573    1.6875    0.8848 H   0  0  0  0  0  0  0  0  0  0  0  0
    3.7892    1.6448    2.1344 H   0  0  0  0  0  0  0  0  0  0  0  0
    6.0760    1.5047    1.1318 H   0  0  0  0  0  0  0  0  0  0  0  0
    8.3201   -1.1322   -0.3554 H   0  0  0  0  0  0  0  0  0  0  0  0
    8.0755   -3.4864    0.0897 H   0  0  0  0  0  0  0  0  0  0  0  0
    8.7147   -3.5638   -1.5494 H   0  0  0  0  0  0  0  0  0  0  0  0
    6.7116   -4.9375   -2.2581 H   0  0  0  0  0  0  0  0  0  0  0  0
    6.1070   -4.9056   -0.6060 H   0  0  0  0  0  0  0  0  0  0  0  0
    7.2118   -6.2283    1.1881 H   0  0  0  0  0  0  0  0  0  0  0  0
    8.6389   -8.1770    1.7573 H   0  0  0  0  0  0  0  0  0  0  0  0
   10.1203   -9.1949    0.0249 H   0  0  0  0  0  0  0  0  0  0  0  0
   10.1524   -8.2440   -2.2831 H   0  0  0  0  0  0  0  0  0  0  0  0
    8.7233   -6.2958   -2.8489 H   0  0  0  0  0  0  0  0  0  0  0  0
    4.3963   -0.2973   -2.3918 H   0  0  0  0  0  0  0  0  0  0  0  0
    2.7781   -2.0558   -2.1777 H   0  0  0  0  0  0  0  0  0  0  0  0
    2.4674   -0.9135   -3.5168 H   0  0  0  0  0  0  0  0  0  0  0  0
    1.1175   -1.8218   -2.7892 H   0  0  0  0  0  0  0  0  0  0  0  0
    0.6223    1.4331   -1.2261 H   0  0  0  0  0  0  0  0  0  0  0  0
   -0.1188    0.1749   -2.2394 H   0  0  0  0  0  0  0  0  0  0  0  0
    1.1539    1.2345   -2.9148 H   0  0  0  0  0  0  0  0  0  0  0  0
  1  2  1  0
  1 25  1  0
  1 26  1  0
  1 27  1  0
  2  3  2  0
  2 21  1  0
  3  4  1  0
  3 28  1  0
  4  5  2  0
  4 29  1  0
  5  6  1  0
  5 20  1  0
  6  7  2  0
  6  8  2  0
  6  9  1  6
  9 10  1  0
  9 30  1  0
 10 11  2  0
 10 12  1  0
 12 13  1  0
 12 31  1  0
 12 32  1  0
 13 14  1  0
 13 33  1  0
 13 34  1  0
 14 15  2  0
 14 19  1  0
 15 16  1  0
 15 35  1  0
 16 17  2  0
 16 36  1  0
 17 18  1  0
 17 37  1  0
 18 19  2  0
 18 38  1  0
 19 39  1  0
 20 21  2  0
 20 40  1  0
 21 22  1  0
 22 23  1  0
 22 24  1  0
 23 41  1  0
 23 42  1  0
 23 43  1  0
 24 44  1  0
 24 45  1  0
 24 46  1  0
M  END

