
     RDKit          3D

 41 43  0  0  0  0  0  0  0  0999 V2000
    9.4067   -1.1426    2.4537 C   0  0  0  0  0  0  0  0  0  0  0  0
    8.2917   -0.6959    1.5610 C   0  0  0  0  0  0  0  0  0  0  0  0
    7.8823    0.6394    1.2457 C   0  0  0  0  0  0  0  0  0  0  0  0
    6.8277    0.4642    0.3959 C   0  0  0  0  0  0  0  0  0  0  0  0
    5.9470    1.4110   -0.3632 C   0  0  0  0  0  0  0  0  0  0  0  0
    5.7766    2.6781    0.3267 N   0  0  0  0  0  0  0  0  0  0  0  0
    4.8793    2.5832    1.4776 C   0  0  0  0  0  0  0  0  0  0  0  0
    4.8767    3.8930    2.2656 C   0  0  0  0  0  0  0  0  0  0  0  0
    4.5730    5.0373    1.4016 N   0  0  0  0  0  0  0  0  0  0  0  0
    2.9926    5.5988    1.3559 S   0  0  1  0  0  0  0  0  0  0  0  0
    2.8380    6.3818    0.1304 O   0  0  0  0  0  0  0  0  0  0  0  0
    2.0715    4.4947    1.6564 O   0  0  0  0  0  0  0  0  0  0  0  0
    2.8877    6.7147    2.7826 C   0  0  0  0  0  0  0  0  0  0  0  0
    1.9274    6.3899    3.7501 C   0  0  0  0  0  0  0  0  0  0  0  0
    1.7359    7.2083    4.8639 C   0  0  0  0  0  0  0  0  0  0  0  0
    2.5060    8.3633    5.0137 C   0  0  0  0  0  0  0  0  0  0  0  0
    3.4626    8.6993    4.0529 C   0  0  0  0  0  0  0  0  0  0  0  0
    3.6555    7.8820    2.9341 C   0  0  0  0  0  0  0  0  0  0  0  0
    4.9776    8.4264    1.6789 Br  0  0  0  0  0  0  0  0  0  0  0  0
    5.3979    5.1022    0.1926 C   0  0  0  0  0  0  0  0  0  0  0  0
    5.3906    3.7721   -0.5602 C   0  0  0  0  0  0  0  0  0  0  0  0
    6.6140   -0.8499    0.2139 O   0  0  0  0  0  0  0  0  0  0  0  0
    7.5383   -1.5797    0.9452 N   0  0  0  0  0  0  0  0  0  0  0  0
   10.3754   -0.7547    2.0997 H   0  0  0  0  0  0  0  0  0  0  0  0
    9.4538   -2.2399    2.4755 H   0  0  0  0  0  0  0  0  0  0  0  0
    9.2601   -0.7755    3.4823 H   0  0  0  0  0  0  0  0  0  0  0  0
    8.3014    1.5806    1.5896 H   0  0  0  0  0  0  0  0  0  0  0  0
    4.9858    0.8962   -0.5835 H   0  0  0  0  0  0  0  0  0  0  0  0
    6.4158    1.6112   -1.3427 H   0  0  0  0  0  0  0  0  0  0  0  0
    5.2194    1.7657    2.1325 H   0  0  0  0  0  0  0  0  0  0  0  0
    3.8373    2.3549    1.1640 H   0  0  0  0  0  0  0  0  0  0  0  0
    5.8723    4.0646    2.7102 H   0  0  0  0  0  0  0  0  0  0  0  0
    4.1443    3.8418    3.0821 H   0  0  0  0  0  0  0  0  0  0  0  0
    1.3360    5.4850    3.6044 H   0  0  0  0  0  0  0  0  0  0  0  0
    0.9838    6.9424    5.6098 H   0  0  0  0  0  0  0  0  0  0  0  0
    2.3661    9.0131    5.8809 H   0  0  0  0  0  0  0  0  0  0  0  0
    4.0658    9.6019    4.1633 H   0  0  0  0  0  0  0  0  0  0  0  0
    6.4276    5.3453    0.5069 H   0  0  0  0  0  0  0  0  0  0  0  0
    5.0294    5.9127   -0.4473 H   0  0  0  0  0  0  0  0  0  0  0  0
    6.1091    3.8274   -1.3946 H   0  0  0  0  0  0  0  0  0  0  0  0
    4.3805    3.6133   -1.0025 H   0  0  0  0  0  0  0  0  0  0  0  0
  1  2  1  0
  1 24  1  0
  1 25  1  0
  1 26  1  0
  2  3  1  0
  2 23  2  0
  3  4  2  0
  3 27  1  0
  4  5  1  0
  4 22  1  0
  5  6  1  0
  5 28  1  0
  5 29  1  0
  6  7  1  0
  6 21  1  0
  7  8  1  0
  7 30  1  0
  7 31  1  0
  8  9  1  0
  8 32  1  0
  8 33  1  0
  9 10  1  0
  9 20  1  0
 10 11  2  0
 10 12  2  0
 10 13  1  1
 13 14  2  0
 13 18  1  0
 14 15  1  0
 14 34  1  0
 15 16  2  0
 15 35  1  0
 16 17  1  0
 16 36  1  0
 17 18  2  0
 17 37  1  0
 18 19  1  0
 20 21  1  0
 20 38  1  0
 20 39  1  0
 21 40  1  0
 21 41  1  0
 22 23  1  0
M  END

