
     RDKit          3D

 31 33  0  0  0  0  0  0  0  0999 V2000
    2.2422   -1.0066    0.0999 O   0  0  0  0  0  0  0  0  0  0  0  0
    2.2009    0.2123    0.1881 C   0  0  0  0  0  0  0  0  0  0  0  0
    2.9421    1.0528   -0.7741 C   0  0  0  0  0  0  0  0  0  0  0  0
    3.0639    2.4266   -0.8892 C   0  0  0  0  0  0  0  0  0  0  0  0
    3.8839    2.8222   -1.9727 C   0  0  0  0  0  0  0  0  0  0  0  0
    4.3955    1.7500   -2.6889 C   0  0  0  0  0  0  0  0  0  0  0  0
    5.2796    1.7926   -3.8638 C   0  0  0  0  0  0  0  0  0  0  0  0
    5.3202    2.9448   -4.6748 C   0  0  0  0  0  0  0  0  0  0  0  0
    6.1658    2.9958   -5.7808 C   0  0  0  0  0  0  0  0  0  0  0  0
    6.1964    4.4342   -6.7699 Cl  0  0  0  0  0  0  0  0  0  0  0  0
    6.9827    1.9133   -6.1214 C   0  0  0  0  0  0  0  0  0  0  0  0
    6.9381    0.7691   -5.3228 C   0  0  0  0  0  0  0  0  0  0  0  0
    7.8066   -0.4259   -5.6457 C   0  0  1  0  0  0  0  0  0  0  0  0
    8.5526   -0.2280   -6.7436 F   0  0  0  0  0  0  0  0  0  0  0  0
    8.6451   -0.7073   -4.6324 F   0  0  0  0  0  0  0  0  0  0  0  0
    7.0632   -1.5267   -5.8545 F   0  0  0  0  0  0  0  0  0  0  0  0
    6.1021    0.7047   -4.2044 C   0  0  0  0  0  0  0  0  0  0  0  0
    3.8467    0.2395   -2.0205 S   0  0  0  0  0  0  0  0  0  0  0  0
    1.4087    0.8907    1.2589 C   0  0  1  0  0  0  0  0  0  0  0  0
    0.1261    0.2056    1.7084 C   0  0  0  0  0  0  0  0  0  0  0  0
    1.3157    0.1824    2.6029 C   0  0  0  0  0  0  0  0  0  0  0  0
    2.5840    3.1328   -0.2113 H   0  0  0  0  0  0  0  0  0  0  0  0
    4.1149    3.8626   -2.2040 H   0  0  0  0  0  0  0  0  0  0  0  0
    4.6785    3.7988   -4.4581 H   0  0  0  0  0  0  0  0  0  0  0  0
    7.6357    1.9653   -6.9917 H   0  0  0  0  0  0  0  0  0  0  0  0
    6.1029   -0.1940   -3.5845 H   0  0  0  0  0  0  0  0  0  0  0  0
    1.4198    1.9818    1.2719 H   0  0  0  0  0  0  0  0  0  0  0  0
   -0.1252   -0.7184    1.1810 H   0  0  0  0  0  0  0  0  0  0  0  0
   -0.7188    0.8513    1.9618 H   0  0  0  0  0  0  0  0  0  0  0  0
    1.8689   -0.7573    2.6805 H   0  0  0  0  0  0  0  0  0  0  0  0
    1.3228    0.8112    3.4972 H   0  0  0  0  0  0  0  0  0  0  0  0
  1  2  2  0
  2  3  1  0
  2 19  1  0
  3  4  2  0
  3 18  1  0
  4  5  1  0
  4 22  1  0
  5  6  2  0
  5 23  1  0
  6  7  1  0
  6 18  1  0
  7  8  2  0
  7 17  1  0
  8  9  1  0
  8 24  1  0
  9 10  1  0
  9 11  2  0
 11 12  1  0
 11 25  1  0
 12 13  1  0
 12 17  2  0
 13 14  1  6
 13 15  1  0
 13 16  1  0
 17 26  1  0
 19 20  1  0
 19 21  1  0
 19 27  1  1
 20 21  1  0
 20 28  1  0
 20 29  1  0
 21 30  1  0
 21 31  1  0
M  END

