
     RDKit          3D

 68 68  0  0  0  0  0  0  0  0999 V2000
    1.7739    4.4695  -10.5065 C   0  0  0  0  0  0  0  0  0  0  0  0
    2.9769    4.0309   -9.6703 C   0  0  0  0  0  0  0  0  0  0  0  0
    3.9547    3.1283  -10.4293 C   0  0  0  0  0  0  0  0  0  0  0  0
    5.1624    2.6850   -9.5987 C   0  0  0  0  0  0  0  0  0  0  0  0
    6.1386    1.7821  -10.3584 C   0  0  0  0  0  0  0  0  0  0  0  0
    7.3447    1.3454   -9.5226 C   0  0  0  0  0  0  0  0  0  0  0  0
    8.3062    0.4424  -10.2921 C   0  0  0  0  0  0  0  0  0  0  0  0
    9.5223    0.0213   -9.5010 C   0  0  0  0  0  0  0  0  0  0  0  0
    9.8232    0.4515   -8.4060 O   0  0  0  0  0  0  0  0  0  0  0  0
   10.2469   -0.8901  -10.1679 O   0  0  0  0  0  0  0  0  0  0  0  0
   11.5035   -1.3229   -9.6300 C   0  0  0  0  0  0  0  0  0  0  0  0
   11.4173   -2.6133   -8.8177 C   0  0  2  0  0  0  0  0  0  0  0  0
   10.4601   -2.5130   -7.6103 C   0  0  0  0  0  0  0  0  0  0  0  0
   10.8477   -1.5193   -6.7042 O   0  0  0  0  0  0  0  0  0  0  0  0
   12.8246   -3.0736   -8.3721 C   0  0  0  0  0  0  0  0  0  0  0  0
   12.7801   -4.5609   -8.6193 C   0  0  0  0  0  0  0  0  0  0  0  0
   13.5965   -5.4985   -8.1019 C   0  0  0  0  0  0  0  0  0  0  0  0
   13.5518   -6.9880   -8.3241 C   0  0  0  0  0  0  0  0  0  0  0  0
   14.1657   -7.5528   -9.6436 C   0  0  1  0  0  0  0  0  0  0  0  0
   15.7206   -7.4571   -9.6972 C   0  0  1  0  0  0  0  0  0  0  0  0
   16.3178   -8.1436  -10.9387 C   0  0  0  0  0  0  0  0  0  0  0  0
   16.2404   -6.0105   -9.6499 C   0  0  0  0  0  0  0  0  0  0  0  0
   13.6388   -8.9987   -9.9114 C   0  0  1  0  0  0  0  0  0  0  0  0
   14.0865  -10.0306   -8.8645 C   0  0  0  0  0  0  0  0  0  0  0  0
   12.1171   -9.0677  -10.1160 C   0  0  0  0  0  0  0  0  0  0  0  0
   11.6333   -4.8194   -9.5360 C   0  0  0  0  0  0  0  0  0  0  0  0
   11.3100   -5.8322  -10.0995 O   0  0  0  0  0  0  0  0  0  0  0  0
   10.9212   -3.6632   -9.6763 O   0  0  0  0  0  0  0  0  0  0  0  0
    1.0933    5.1160   -9.9297 H   0  0  0  0  0  0  0  0  0  0  0  0
    1.1906    3.6013  -10.8566 H   0  0  0  0  0  0  0  0  0  0  0  0
    2.0906    5.0337  -11.3999 H   0  0  0  0  0  0  0  0  0  0  0  0
    2.6246    3.5030   -8.7653 H   0  0  0  0  0  0  0  0  0  0  0  0
    3.5170    4.9230   -9.3040 H   0  0  0  0  0  0  0  0  0  0  0  0
    4.3082    3.6555  -11.3354 H   0  0  0  0  0  0  0  0  0  0  0  0
    3.4156    2.2346  -10.7958 H   0  0  0  0  0  0  0  0  0  0  0  0
    4.8095    2.1580   -8.6929 H   0  0  0  0  0  0  0  0  0  0  0  0
    5.7025    3.5779   -9.2329 H   0  0  0  0  0  0  0  0  0  0  0  0
    6.4919    2.3077  -11.2653 H   0  0  0  0  0  0  0  0  0  0  0  0
    5.6004    0.8875  -10.7231 H   0  0  0  0  0  0  0  0  0  0  0  0
    7.0007    0.8194   -8.6154 H   0  0  0  0  0  0  0  0  0  0  0  0
    7.8933    2.2308   -9.1597 H   0  0  0  0  0  0  0  0  0  0  0  0
    8.6765    0.9393  -11.2072 H   0  0  0  0  0  0  0  0  0  0  0  0
    7.8103   -0.4760  -10.6502 H   0  0  0  0  0  0  0  0  0  0  0  0
   11.9351   -0.5307   -9.0006 H   0  0  0  0  0  0  0  0  0  0  0  0
   12.1462   -1.4932  -10.5047 H   0  0  0  0  0  0  0  0  0  0  0  0
    9.4275   -2.3822   -7.9859 H   0  0  0  0  0  0  0  0  0  0  0  0
   10.4839   -3.4838   -7.0870 H   0  0  0  0  0  0  0  0  0  0  0  0
   10.5562   -0.6646   -7.0712 H   0  0  0  0  0  0  0  0  0  0  0  0
   13.0144   -2.7873   -7.3278 H   0  0  0  0  0  0  0  0  0  0  0  0
   13.6071   -2.6010   -8.9934 H   0  0  0  0  0  0  0  0  0  0  0  0
   14.3611   -5.1304   -7.4077 H   0  0  0  0  0  0  0  0  0  0  0  0
   12.4956   -7.2909   -8.3087 H   0  0  0  0  0  0  0  0  0  0  0  0
   14.0438   -7.4748   -7.4665 H   0  0  0  0  0  0  0  0  0  0  0  0
   13.7718   -6.9313  -10.4669 H   0  0  0  0  0  0  0  0  0  0  0  0
   16.1213   -7.9771   -8.8066 H   0  0  0  0  0  0  0  0  0  0  0  0
   15.8845   -7.7312  -11.8665 H   0  0  0  0  0  0  0  0  0  0  0  0
   16.1574   -9.2309  -10.9490 H   0  0  0  0  0  0  0  0  0  0  0  0
   17.4060   -7.9765  -10.9817 H   0  0  0  0  0  0  0  0  0  0  0  0
   15.8063   -5.4053  -10.4638 H   0  0  0  0  0  0  0  0  0  0  0  0
   17.3358   -5.9918   -9.7707 H   0  0  0  0  0  0  0  0  0  0  0  0
   16.0157   -5.5027   -8.7027 H   0  0  0  0  0  0  0  0  0  0  0  0
   14.0798   -9.3014  -10.8747 H   0  0  0  0  0  0  0  0  0  0  0  0
   13.6562   -9.8171   -7.8718 H   0  0  0  0  0  0  0  0  0  0  0  0
   15.1813  -10.0733   -8.7511 H   0  0  0  0  0  0  0  0  0  0  0  0
   13.7475  -11.0398   -9.1501 H   0  0  0  0  0  0  0  0  0  0  0  0
   11.5606   -8.9426   -9.1728 H   0  0  0  0  0  0  0  0  0  0  0  0
   11.8367  -10.0532  -10.5231 H   0  0  0  0  0  0  0  0  0  0  0  0
   11.7603   -8.2903  -10.8066 H   0  0  0  0  0  0  0  0  0  0  0  0
  1  2  1  0
  1 29  1  0
  1 30  1  0
  1 31  1  0
  2  3  1  0
  2 32  1  0
  2 33  1  0
  3  4  1  0
  3 34  1  0
  3 35  1  0
  4  5  1  0
  4 36  1  0
  4 37  1  0
  5  6  1  0
  5 38  1  0
  5 39  1  0
  6  7  1  0
  6 40  1  0
  6 41  1  0
  7  8  1  0
  7 42  1  0
  7 43  1  0
  8  9  2  0
  8 10  1  0
 10 11  1  0
 12 11  1  6
 11 44  1  0
 11 45  1  0
 12 13  1  0
 12 15  1  0
 12 28  1  0
 13 14  1  0
 13 46  1  0
 13 47  1  0
 14 48  1  0
 15 16  1  0
 15 49  1  0
 15 50  1  0
 16 17  2  0
 16 26  1  0
 17 18  1  0
 17 51  1  0
 18 19  1  0
 18 52  1  0
 18 53  1  0
 19 20  1  0
 19 23  1  0
 19 54  1  6
 20 21  1  0
 20 22  1  0
 20 55  1  1
 21 56  1  0
 21 57  1  0
 21 58  1  0
 22 59  1  0
 22 60  1  0
 22 61  1  0
 23 24  1  0
 23 25  1  0
 23 62  1  6
 24 63  1  0
 24 64  1  0
 24 65  1  0
 25 66  1  0
 25 67  1  0
 25 68  1  0
 26 27  2  0
 26 28  1  0
M  END

