
     RDKit          3D

 48 50  0  0  0  0  0  0  0  0999 V2000
    1.3557   -0.3444   -0.1651 C   0  0  0  0  0  0  0  0  0  0  0  0
    2.7621   -0.4261   -0.1800 O   0  0  0  0  0  0  0  0  0  0  0  0
    3.4847    0.4154    0.6036 C   0  0  0  0  0  0  0  0  0  0  0  0
    2.9330    1.3826    1.4563 C   0  0  0  0  0  0  0  0  0  0  0  0
    3.7781    2.1990    2.2182 C   0  0  0  0  0  0  0  0  0  0  0  0
    5.1717    2.0828    2.1578 C   0  0  0  0  0  0  0  0  0  0  0  0
    6.0713    2.9474    3.0134 C   0  0  0  0  0  0  0  0  0  0  0  0
    6.4455    2.2829    4.3449 C   0  0  0  0  0  0  0  0  0  0  0  0
    7.3047    3.1807    5.2339 C   0  0  0  0  0  0  0  0  0  0  0  0
    7.5075    4.3486    5.0116 O   0  0  0  0  0  0  0  0  0  0  0  0
    7.8178    2.5000    6.3479 N   0  0  0  0  0  0  0  0  0  0  0  0
    8.5990    3.0177    7.3681 C   0  0  0  0  0  0  0  0  0  0  0  0
    9.0088    4.2349    7.4869 N   0  0  0  0  0  0  0  0  0  0  0  0
    9.7702    4.4178    8.6227 C   0  0  0  0  0  0  0  0  0  0  0  0
   10.3166    5.7623    8.8968 C   0  0  0  0  0  0  0  0  0  0  0  0
   10.0793    6.7992    7.9733 C   0  0  0  0  0  0  0  0  0  0  0  0
   10.5820    8.0802    8.1974 C   0  0  0  0  0  0  0  0  0  0  0  0
   11.3174    8.3326    9.3584 C   0  0  0  0  0  0  0  0  0  0  0  0
   11.9721    9.9840    9.6553 S   0  0  1  0  0  0  0  0  0  0  0  0
   10.6475   10.8357   10.5448 C   0  0  0  0  0  0  0  0  0  0  0  0
   13.1045    9.8613   10.5852 O   0  0  0  0  0  0  0  0  0  0  0  0
   12.1196   10.6562    8.3569 O   0  0  0  0  0  0  0  0  0  0  0  0
   11.5798    7.3172   10.2834 C   0  0  0  0  0  0  0  0  0  0  0  0
   11.0765    6.0397   10.0497 C   0  0  0  0  0  0  0  0  0  0  0  0
    9.9392    3.2887    9.3910 C   0  0  0  0  0  0  0  0  0  0  0  0
    9.1204    1.9375    8.6769 S   0  0  0  0  0  0  0  0  0  0  0  0
    5.7045    1.1086    1.2930 C   0  0  0  0  0  0  0  0  0  0  0  0
    4.8829    0.2874    0.5280 C   0  0  0  0  0  0  0  0  0  0  0  0
    0.9895   -1.1064   -0.8663 H   0  0  0  0  0  0  0  0  0  0  0  0
    0.9963    0.6470   -0.4961 H   0  0  0  0  0  0  0  0  0  0  0  0
    0.9405   -0.5539    0.8377 H   0  0  0  0  0  0  0  0  0  0  0  0
    1.8536    1.5154    1.5324 H   0  0  0  0  0  0  0  0  0  0  0  0
    3.3296    2.9536    2.8718 H   0  0  0  0  0  0  0  0  0  0  0  0
    5.5868    3.9114    3.2297 H   0  0  0  0  0  0  0  0  0  0  0  0
    6.9967    3.1920    2.4677 H   0  0  0  0  0  0  0  0  0  0  0  0
    6.9711    1.3277    4.1671 H   0  0  0  0  0  0  0  0  0  0  0  0
    5.5303    2.0206    4.9071 H   0  0  0  0  0  0  0  0  0  0  0  0
    7.5861    1.5161    6.4213 H   0  0  0  0  0  0  0  0  0  0  0  0
    9.5006    6.5743    7.0761 H   0  0  0  0  0  0  0  0  0  0  0  0
   10.4231    8.8806    7.4718 H   0  0  0  0  0  0  0  0  0  0  0  0
   10.4519   10.3149   11.4909 H   0  0  0  0  0  0  0  0  0  0  0  0
    9.7522   10.8768    9.9113 H   0  0  0  0  0  0  0  0  0  0  0  0
   11.0362   11.8468   10.7321 H   0  0  0  0  0  0  0  0  0  0  0  0
   12.1875    7.5330   11.1642 H   0  0  0  0  0  0  0  0  0  0  0  0
   11.2858    5.2506   10.7749 H   0  0  0  0  0  0  0  0  0  0  0  0
   10.4917    3.1655   10.3191 H   0  0  0  0  0  0  0  0  0  0  0  0
    6.7902    0.9976    1.2104 H   0  0  0  0  0  0  0  0  0  0  0  0
    5.2985   -0.4631   -0.1476 H   0  0  0  0  0  0  0  0  0  0  0  0
  1  2  1  0
  1 29  1  0
  1 30  1  0
  1 31  1  0
  2  3  1  0
  3  4  2  0
  3 28  1  0
  4  5  1  0
  4 32  1  0
  5  6  2  0
  5 33  1  0
  6  7  1  0
  6 27  1  0
  7  8  1  0
  7 34  1  0
  7 35  1  0
  8  9  1  0
  8 36  1  0
  8 37  1  0
  9 10  2  0
  9 11  1  0
 11 12  1  0
 11 38  1  0
 12 13  2  0
 12 26  1  0
 13 14  1  0
 14 15  1  0
 14 25  2  0
 15 16  2  0
 15 24  1  0
 16 17  1  0
 16 39  1  0
 17 18  2  0
 17 40  1  0
 18 19  1  0
 18 23  1  0
 19 20  1  1
 19 21  2  0
 19 22  2  0
 20 41  1  0
 20 42  1  0
 20 43  1  0
 23 24  2  0
 23 44  1  0
 24 45  1  0
 25 26  1  0
 25 46  1  0
 27 28  2  0
 27 47  1  0
 28 48  1  0
M  END

