
     RDKit          3D

 76 80  0  0  0  0  0  0  0  0999 V2000
    0.8577   -0.0582   -1.1033 C   0  0  0  0  0  0  0  0  0  0  0  0
    2.2783    0.0897   -1.1304 O   0  0  0  0  0  0  0  0  0  0  0  0
    2.9595   -0.4861   -0.1159 C   0  0  0  0  0  0  0  0  0  0  0  0
    2.4075   -1.0940    0.7682 O   0  0  0  0  0  0  0  0  0  0  0  0
    4.4731   -0.2519   -0.2376 C   0  0  1  0  0  0  0  0  0  0  0  0
    4.7520    1.2818   -0.1045 C   0  0  0  0  0  0  0  0  0  0  0  0
    4.2766    1.9497    1.1687 C   0  0  0  0  0  0  0  0  0  0  0  0
    5.1063    2.0335    2.2994 C   0  0  0  0  0  0  0  0  0  0  0  0
    4.6632    2.6441    3.4758 C   0  0  0  0  0  0  0  0  0  0  0  0
    3.3777    3.1887    3.5435 C   0  0  0  0  0  0  0  0  0  0  0  0
    2.5433    3.1222    2.4242 C   0  0  0  0  0  0  0  0  0  0  0  0
    2.9907    2.5102    1.2503 C   0  0  0  0  0  0  0  0  0  0  0  0
    5.2079   -1.0642    0.8516 C   0  0  0  0  0  0  0  0  0  0  0  0
    5.1774   -2.5800    0.5833 C   0  0  0  0  0  0  0  0  0  0  0  0
    5.6609   -2.9595   -0.7421 N   0  0  0  0  0  0  0  0  0  0  0  0
    7.1029   -3.0240   -0.9220 C   0  0  0  0  0  0  0  0  0  0  0  0
    7.4903   -4.2916   -1.6812 C   0  0  0  0  0  0  0  0  0  0  0  0
    8.8974   -4.2625   -1.8700 O   0  0  0  0  0  0  0  0  0  0  0  0
    9.5349   -5.2670   -2.5030 C   0  0  0  0  0  0  0  0  0  0  0  0
    8.8527   -6.3881   -3.0022 C   0  0  0  0  0  0  0  0  0  0  0  0
    9.5631   -7.3994   -3.6477 C   0  0  0  0  0  0  0  0  0  0  0  0
   10.9397   -7.3230   -3.8122 C   0  0  0  0  0  0  0  0  0  0  0  0
   11.6492   -6.2150   -3.3122 C   0  0  0  0  0  0  0  0  0  0  0  0
   13.0272   -6.1137   -3.5160 N   0  0  0  0  0  0  0  0  0  0  0  0
   13.9787   -7.1250   -3.5597 C   0  0  0  0  0  0  0  0  0  0  0  0
   13.7968   -8.3821   -3.0032 C   0  0  0  0  0  0  0  0  0  0  0  0
   14.8435   -9.3440   -3.0431 C   0  0  0  0  0  0  0  0  0  0  0  0
   14.6202  -10.7020   -2.4240 C   0  0  0  0  0  0  0  0  0  0  0  0
   16.0207   -9.1039   -3.5850 N   0  0  0  0  0  0  0  0  0  0  0  0
   16.2396   -7.8806   -4.1429 C   0  0  0  0  0  0  0  0  0  0  0  0
   17.5140   -7.6285   -4.7229 C   0  0  0  0  0  0  0  0  0  0  0  0
   17.7964   -6.4193   -5.3235 C   0  0  0  0  0  0  0  0  0  0  0  0
   16.8098   -5.4065   -5.3815 C   0  0  0  0  0  0  0  0  0  0  0  0
   15.5631   -5.6181   -4.8244 C   0  0  0  0  0  0  0  0  0  0  0  0
   15.2499   -6.8450   -4.1807 C   0  0  0  0  0  0  0  0  0  0  0  0
   10.9451   -5.1716   -2.6491 C   0  0  0  0  0  0  0  0  0  0  0  0
   11.7531   -4.0319   -2.0661 C   0  0  1  0  0  0  0  0  0  0  0  0
   11.0512   -3.0479   -1.5151 F   0  0  0  0  0  0  0  0  0  0  0  0
   12.6183   -4.4741   -1.1295 F   0  0  0  0  0  0  0  0  0  0  0  0
   12.5278   -3.4430   -3.0332 F   0  0  0  0  0  0  0  0  0  0  0  0
    4.9352   -2.2482   -1.7898 C   0  0  0  0  0  0  0  0  0  0  0  0
    4.9728   -0.7184   -1.6310 C   0  0  0  0  0  0  0  0  0  0  0  0
    0.4799    0.4475   -2.0006 H   0  0  0  0  0  0  0  0  0  0  0  0
    0.4350    0.4019   -0.1974 H   0  0  0  0  0  0  0  0  0  0  0  0
    0.5751   -1.1215   -1.1153 H   0  0  0  0  0  0  0  0  0  0  0  0
    4.2936    1.7811   -0.9719 H   0  0  0  0  0  0  0  0  0  0  0  0
    5.8420    1.4143   -0.2008 H   0  0  0  0  0  0  0  0  0  0  0  0
    6.1187    1.6227    2.2550 H   0  0  0  0  0  0  0  0  0  0  0  0
    5.3280    2.6995    4.3419 H   0  0  0  0  0  0  0  0  0  0  0  0
    3.0306    3.6692    4.4618 H   0  0  0  0  0  0  0  0  0  0  0  0
    1.5398    3.5543    2.4628 H   0  0  0  0  0  0  0  0  0  0  0  0
    2.3356    2.4741    0.3757 H   0  0  0  0  0  0  0  0  0  0  0  0
    4.7702   -0.8563    1.8389 H   0  0  0  0  0  0  0  0  0  0  0  0
    6.2574   -0.7218    0.8805 H   0  0  0  0  0  0  0  0  0  0  0  0
    4.1411   -2.9391    0.6910 H   0  0  0  0  0  0  0  0  0  0  0  0
    5.7726   -3.1080    1.3448 H   0  0  0  0  0  0  0  0  0  0  0  0
    7.6023   -3.0477    0.0593 H   0  0  0  0  0  0  0  0  0  0  0  0
    7.5287   -2.1522   -1.4587 H   0  0  0  0  0  0  0  0  0  0  0  0
    6.9732   -4.3320   -2.6573 H   0  0  0  0  0  0  0  0  0  0  0  0
    7.1870   -5.1813   -1.1020 H   0  0  0  0  0  0  0  0  0  0  0  0
    7.7733   -6.4699   -2.8910 H   0  0  0  0  0  0  0  0  0  0  0  0
    9.0219   -8.2606   -4.0480 H   0  0  0  0  0  0  0  0  0  0  0  0
   11.4743   -8.1014   -4.3548 H   0  0  0  0  0  0  0  0  0  0  0  0
   13.3981   -5.1733   -3.5538 H   0  0  0  0  0  0  0  0  0  0  0  0
   12.8642   -8.6338   -2.4979 H   0  0  0  0  0  0  0  0  0  0  0  0
   13.7874  -11.2316   -2.9168 H   0  0  0  0  0  0  0  0  0  0  0  0
   14.3602  -10.6139   -1.3558 H   0  0  0  0  0  0  0  0  0  0  0  0
   15.5326  -11.3043   -2.5208 H   0  0  0  0  0  0  0  0  0  0  0  0
   18.2491   -8.4340   -4.6719 H   0  0  0  0  0  0  0  0  0  0  0  0
   18.7807   -6.2426   -5.7647 H   0  0  0  0  0  0  0  0  0  0  0  0
   17.0310   -4.4576   -5.8761 H   0  0  0  0  0  0  0  0  0  0  0  0
   14.8093   -4.8314   -4.9072 H   0  0  0  0  0  0  0  0  0  0  0  0
    3.8853   -2.5952   -1.7841 H   0  0  0  0  0  0  0  0  0  0  0  0
    5.3420   -2.5304   -2.7743 H   0  0  0  0  0  0  0  0  0  0  0  0
    4.3801   -0.2385   -2.4246 H   0  0  0  0  0  0  0  0  0  0  0  0
    6.0116   -0.3649   -1.7510 H   0  0  0  0  0  0  0  0  0  0  0  0
  1  2  1  0
  1 43  1  0
  1 44  1  0
  1 45  1  0
  2  3  1  0
  3  4  2  0
  5  3  1  6
  5  6  1  0
  5 13  1  0
  5 42  1  0
  6  7  1  0
  6 46  1  0
  6 47  1  0
  7  8  2  0
  7 12  1  0
  8  9  1  0
  8 48  1  0
  9 10  2  0
  9 49  1  0
 10 11  1  0
 10 50  1  0
 11 12  2  0
 11 51  1  0
 12 52  1  0
 13 14  1  0
 13 53  1  0
 13 54  1  0
 14 15  1  0
 14 55  1  0
 14 56  1  0
 15 16  1  0
 15 41  1  0
 16 17  1  0
 16 57  1  0
 16 58  1  0
 17 18  1  0
 17 59  1  0
 17 60  1  0
 18 19  1  0
 19 20  2  0
 19 36  1  0
 20 21  1  0
 20 61  1  0
 21 22  2  0
 21 62  1  0
 22 23  1  0
 22 63  1  0
 23 24  1  0
 23 36  2  0
 24 25  1  0
 24 64  1  0
 25 26  2  0
 25 35  1  0
 26 27  1  0
 26 65  1  0
 27 28  1  0
 27 29  2  0
 28 66  1  0
 28 67  1  0
 28 68  1  0
 29 30  1  0
 30 31  1  0
 30 35  2  0
 31 32  2  0
 31 69  1  0
 32 33  1  0
 32 70  1  0
 33 34  2  0
 33 71  1  0
 34 35  1  0
 34 72  1  0
 36 37  1  0
 37 38  1  1
 37 39  1  0
 37 40  1  0
 41 42  1  0
 41 73  1  0
 41 74  1  0
 42 75  1  0
 42 76  1  0
M  END

