
     RDKit          3D

 50 52  0  0  0  0  0  0  0  0999 V2000
    3.0558   -0.7774   -1.1226 C   0  0  0  0  0  0  0  0  0  0  0  0
    3.0751   -0.1443    0.2584 C   0  0  0  0  0  0  0  0  0  0  0  0
    3.5993   -1.0418    1.2513 O   0  0  0  0  0  0  0  0  0  0  0  0
    4.9470   -1.0732    1.3914 C   0  0  0  0  0  0  0  0  0  0  0  0
    5.7342   -0.4050    0.7743 O   0  0  0  0  0  0  0  0  0  0  0  0
    5.2464   -2.0043    2.3709 N   0  0  0  0  0  0  0  0  0  0  0  0
    6.5251   -2.2246    2.7238 N   0  0  0  0  0  0  0  0  0  0  0  0
    6.8078   -3.1015    3.6246 C   0  0  0  0  0  0  0  0  0  0  0  0
    5.7996   -3.9577    4.3845 C   0  0  0  0  0  0  0  0  0  0  0  0
    6.3839   -5.2888    4.8951 C   0  0  0  0  0  0  0  0  0  0  0  0
    7.6658   -5.1056    5.7270 C   0  0  0  0  0  0  0  0  0  0  0  0
    8.5644   -4.1805    4.9867 C   0  0  0  0  0  0  0  0  0  0  0  0
    9.8921   -4.1360    5.2081 O   0  0  0  0  0  0  0  0  0  0  0  0
   10.4171   -3.1762    4.3592 C   0  0  0  0  0  0  0  0  0  0  0  0
   11.8767   -2.9470    4.4126 C   0  0  0  0  0  0  0  0  0  0  0  0
   12.4279   -2.1199    3.7018 O   0  0  0  0  0  0  0  0  0  0  0  0
   12.5261   -3.7508    5.3307 N   0  0  0  0  0  0  0  0  0  0  0  0
   13.8916   -3.8071    5.6508 C   0  0  0  0  0  0  0  0  0  0  0  0
   14.8419   -2.9853    5.0194 C   0  0  0  0  0  0  0  0  0  0  0  0
   16.1845   -3.0910    5.3827 C   0  0  0  0  0  0  0  0  0  0  0  0
   17.3591   -2.0619    4.5895 Cl  0  0  0  0  0  0  0  0  0  0  0  0
   16.6110   -3.9924    6.3580 C   0  0  0  0  0  0  0  0  0  0  0  0
   15.6540   -4.8007    6.9751 C   0  0  0  0  0  0  0  0  0  0  0  0
   14.2961   -4.7336    6.6474 C   0  0  0  0  0  0  0  0  0  0  0  0
   13.2915   -5.6249    7.3368 C   0  0  0  0  0  0  0  0  0  0  0  0
    9.4199   -2.6093    3.5967 C   0  0  0  0  0  0  0  0  0  0  0  0
    9.5459   -1.5402    2.5602 C   0  0  0  0  0  0  0  0  0  0  0  0
    8.2054   -3.2742    4.0177 C   0  0  0  0  0  0  0  0  0  0  0  0
    2.5793   -0.0926   -1.8426 H   0  0  0  0  0  0  0  0  0  0  0  0
    2.4869   -1.7205   -1.1167 H   0  0  0  0  0  0  0  0  0  0  0  0
    4.0791   -0.9811   -1.4711 H   0  0  0  0  0  0  0  0  0  0  0  0
    2.0582    0.0918    0.6050 H   0  0  0  0  0  0  0  0  0  0  0  0
    3.6765    0.7770    0.2594 H   0  0  0  0  0  0  0  0  0  0  0  0
    4.4617   -2.4798    2.8139 H   0  0  0  0  0  0  0  0  0  0  0  0
    4.9308   -4.1836    3.7439 H   0  0  0  0  0  0  0  0  0  0  0  0
    5.4100   -3.3693    5.2379 H   0  0  0  0  0  0  0  0  0  0  0  0
    6.6161   -5.9287    4.0273 H   0  0  0  0  0  0  0  0  0  0  0  0
    5.6230   -5.8199    5.4875 H   0  0  0  0  0  0  0  0  0  0  0  0
    8.1625   -6.0737    5.9037 H   0  0  0  0  0  0  0  0  0  0  0  0
    7.4258   -4.6919    6.7254 H   0  0  0  0  0  0  0  0  0  0  0  0
   11.9242   -4.3841    5.8427 H   0  0  0  0  0  0  0  0  0  0  0  0
   14.5214   -2.2795    4.2584 H   0  0  0  0  0  0  0  0  0  0  0  0
   17.6659   -4.0585    6.6268 H   0  0  0  0  0  0  0  0  0  0  0  0
   15.9751   -5.5115    7.7416 H   0  0  0  0  0  0  0  0  0  0  0  0
   13.7836   -6.2686    8.0793 H   0  0  0  0  0  0  0  0  0  0  0  0
   12.7680   -6.2891    6.6256 H   0  0  0  0  0  0  0  0  0  0  0  0
   12.5180   -5.0443    7.8714 H   0  0  0  0  0  0  0  0  0  0  0  0
   10.5897   -1.2236    2.4547 H   0  0  0  0  0  0  0  0  0  0  0  0
    8.9146   -0.6765    2.8212 H   0  0  0  0  0  0  0  0  0  0  0  0
    9.1615   -1.8969    1.5920 H   0  0  0  0  0  0  0  0  0  0  0  0
  1  2  1  0
  1 29  1  0
  1 30  1  0
  1 31  1  0
  2  3  1  0
  2 32  1  0
  2 33  1  0
  3  4  1  0
  4  5  2  0
  4  6  1  0
  6  7  1  0
  6 34  1  0
  7  8  2  0
  8  9  1  0
  8 28  1  0
  9 10  1  0
  9 35  1  0
  9 36  1  0
 10 11  1  0
 10 37  1  0
 10 38  1  0
 11 12  1  0
 11 39  1  0
 11 40  1  0
 12 13  1  0
 12 28  2  0
 13 14  1  0
 14 15  1  0
 14 26  2  0
 15 16  2  0
 15 17  1  0
 17 18  1  0
 17 41  1  0
 18 19  2  0
 18 24  1  0
 19 20  1  0
 19 42  1  0
 20 21  1  0
 20 22  2  0
 22 23  1  0
 22 43  1  0
 23 24  2  0
 23 44  1  0
 24 25  1  0
 25 45  1  0
 25 46  1  0
 25 47  1  0
 26 27  1  0
 26 28  1  0
 27 48  1  0
 27 49  1  0
 27 50  1  0
M  END

