
     RDKit          3D

 47 50  0  0  0  0  0  0  0  0999 V2000
    1.6543   -0.5002   -2.0272 C   0  0  0  0  0  0  0  0  0  0  0  0
    2.8895   -0.6728   -1.1722 C   0  0  0  0  0  0  0  0  0  0  0  0
    4.0908   -0.0596   -1.5670 C   0  0  0  0  0  0  0  0  0  0  0  0
    5.2686   -0.2023   -0.8324 C   0  0  0  0  0  0  0  0  0  0  0  0
    5.2641   -0.9814    0.3260 C   0  0  0  0  0  0  0  0  0  0  0  0
    4.0806   -1.6001    0.7312 C   0  0  0  0  0  0  0  0  0  0  0  0
    2.8854   -1.4550    0.0075 C   0  0  0  0  0  0  0  0  0  0  0  0
    1.6062   -2.1391    0.5045 C   0  0  2  0  0  0  0  0  0  0  0  0
    1.1614   -1.6613    1.9075 C   0  0  0  0  0  0  0  0  0  0  0  0
    1.7995   -2.3755    3.0885 C   0  0  0  0  0  0  0  0  0  0  0  0
    1.9713   -1.8690    4.1768 O   0  0  0  0  0  0  0  0  0  0  0  0
    2.1147   -3.7070    2.8597 N   0  0  0  0  0  0  0  0  0  0  0  0
    1.9907   -4.3676    1.6431 C   0  0  0  0  0  0  0  0  0  0  0  0
    2.1746   -5.7100    1.7121 N   0  0  0  0  0  0  0  0  0  0  0  0
    2.0707   -6.4012    0.5956 C   0  0  0  0  0  0  0  0  0  0  0  0
    2.2872   -7.7528    0.6086 N   0  0  0  0  0  0  0  0  0  0  0  0
    2.1684   -8.6213   -0.5599 C   0  0  0  0  0  0  0  0  0  0  0  0
    3.3232   -9.6298   -0.6254 C   0  0  0  0  0  0  0  0  0  0  0  0
    3.4673  -10.4117    0.6833 C   0  0  0  0  0  0  0  0  0  0  0  0
    3.5828   -9.4467    1.8672 C   0  0  0  0  0  0  0  0  0  0  0  0
    2.4157   -8.4586    1.8888 C   0  0  0  0  0  0  0  0  0  0  0  0
    1.7513   -5.7840   -0.5802 N   0  0  0  0  0  0  0  0  0  0  0  0
    1.6185   -6.3012   -1.4416 H   0  0  0  0  0  0  0  0  0  0  0  0
    1.5633   -4.3815   -0.7321 C   0  0  0  0  0  0  0  0  0  0  0  0
    1.2912   -3.9463   -1.8436 O   0  0  0  0  0  0  0  0  0  0  0  0
    1.7136   -3.6495    0.4939 C   0  0  0  0  0  0  0  0  0  0  0  0
    1.8816    0.0982   -2.9216 H   0  0  0  0  0  0  0  0  0  0  0  0
    0.8434    0.0164   -1.4855 H   0  0  0  0  0  0  0  0  0  0  0  0
    1.2655   -1.4778   -2.3536 H   0  0  0  0  0  0  0  0  0  0  0  0
    4.0970    0.5430   -2.4799 H   0  0  0  0  0  0  0  0  0  0  0  0
    6.1856    0.2902   -1.1665 H   0  0  0  0  0  0  0  0  0  0  0  0
    6.1769   -1.1097    0.9135 H   0  0  0  0  0  0  0  0  0  0  0  0
    4.0946   -2.2169    1.6330 H   0  0  0  0  0  0  0  0  0  0  0  0
    0.8023   -1.8763   -0.1925 H   0  0  0  0  0  0  0  0  0  0  0  0
    0.0761   -1.8416    2.0183 H   0  0  0  0  0  0  0  0  0  0  0  0
    1.3226   -0.5844    2.0495 H   0  0  0  0  0  0  0  0  0  0  0  0
    2.4250   -4.2531    3.6583 H   0  0  0  0  0  0  0  0  0  0  0  0
    2.1699   -8.0306   -1.4846 H   0  0  0  0  0  0  0  0  0  0  0  0
    1.2009   -9.1622   -0.5240 H   0  0  0  0  0  0  0  0  0  0  0  0
    4.2580   -9.0807   -0.8338 H   0  0  0  0  0  0  0  0  0  0  0  0
    3.1516  -10.3097   -1.4760 H   0  0  0  0  0  0  0  0  0  0  0  0
    4.3415  -11.0809    0.6356 H   0  0  0  0  0  0  0  0  0  0  0  0
    2.5828  -11.0604    0.8232 H   0  0  0  0  0  0  0  0  0  0  0  0
    4.5298   -8.8832    1.7999 H   0  0  0  0  0  0  0  0  0  0  0  0
    3.6032   -9.9970    2.8221 H   0  0  0  0  0  0  0  0  0  0  0  0
    2.5368   -7.7044    2.6726 H   0  0  0  0  0  0  0  0  0  0  0  0
    1.4709   -9.0033    2.0889 H   0  0  0  0  0  0  0  0  0  0  0  0
  1  2  1  0
  1 27  1  0
  1 28  1  0
  1 29  1  0
  2  3  2  0
  2  7  1  0
  3  4  1  0
  3 30  1  0
  4  5  2  0
  4 31  1  0
  5  6  1  0
  5 32  1  0
  6  7  2  0
  6 33  1  0
  7  8  1  0
  8  9  1  0
  8 26  1  0
  8 34  1  6
  9 10  1  0
  9 35  1  0
  9 36  1  0
 10 11  2  0
 10 12  1  0
 12 13  1  0
 12 37  1  0
 13 14  1  0
 13 26  2  0
 14 15  2  0
 15 16  1  0
 15 22  1  0
 16 17  1  0
 16 21  1  0
 17 18  1  0
 17 38  1  0
 17 39  1  0
 18 19  1  0
 18 40  1  0
 18 41  1  0
 19 20  1  0
 19 42  1  0
 19 43  1  0
 20 21  1  0
 20 44  1  0
 20 45  1  0
 21 46  1  0
 21 47  1  0
 22 23  1  0
 22 24  1  0
 24 25  2  0
 24 26  1  0
M  END

