
     RDKit          3D

 44 45  0  0  0  0  0  0  0  0999 V2000
    1.4296   -0.3583    0.5243 C   0  0  0  0  0  0  0  0  0  0  0  0
    2.8504   -0.7591    0.1194 C   0  0  0  0  0  0  0  0  0  0  0  0
    3.1743   -0.7488   -1.3974 C   0  0  1  0  0  0  0  0  0  0  0  0
    2.8238    0.5975   -2.0699 C   0  0  0  0  0  0  0  0  0  0  0  0
    3.4721    1.8423   -1.4592 C   0  0  0  0  0  0  0  0  0  0  0  0
    4.6802   -1.1397   -1.6068 C   0  0  0  0  0  0  0  0  0  0  0  0
    4.6598   -2.4836   -2.3535 C   0  0  0  0  0  0  0  0  0  0  0  0
    3.3567   -3.0415   -2.0224 N   0  0  0  0  0  0  0  0  0  0  0  0
    2.9630   -4.2250   -2.7627 C   0  0  0  0  0  0  0  0  0  0  0  0
    3.8092   -5.4447   -2.4524 C   0  0  0  0  0  0  0  0  0  0  0  0
    4.1033   -5.8017   -1.1288 C   0  0  0  0  0  0  0  0  0  0  0  0
    4.8503   -6.9425   -0.8458 C   0  0  0  0  0  0  0  0  0  0  0  0
    5.3258   -7.7755   -1.8762 C   0  0  0  0  0  0  0  0  0  0  0  0
    6.0227   -8.9452   -1.5788 N   0  0  0  0  0  0  0  0  0  0  0  0
    5.0383   -7.4323   -3.2199 C   0  0  0  0  0  0  0  0  0  0  0  0
    5.5279   -8.3111   -4.3428 C   0  0  0  0  0  0  0  0  0  0  0  0
    4.2934   -6.2736   -3.4722 C   0  0  0  0  0  0  0  0  0  0  0  0
    2.4388   -1.9177   -2.1083 C   0  0  0  0  0  0  0  0  0  0  0  0
    1.2911   -0.4751    1.6113 H   0  0  0  0  0  0  0  0  0  0  0  0
    0.6653   -0.9822    0.0329 H   0  0  0  0  0  0  0  0  0  0  0  0
    1.2046    0.6920    0.2794 H   0  0  0  0  0  0  0  0  0  0  0  0
    3.0608   -1.7784    0.4851 H   0  0  0  0  0  0  0  0  0  0  0  0
    3.5695   -0.1012    0.6382 H   0  0  0  0  0  0  0  0  0  0  0  0
    1.7264    0.7248   -2.0715 H   0  0  0  0  0  0  0  0  0  0  0  0
    3.1108    0.5289   -3.1343 H   0  0  0  0  0  0  0  0  0  0  0  0
    3.1358    2.0232   -0.4260 H   0  0  0  0  0  0  0  0  0  0  0  0
    3.2207    2.7405   -2.0459 H   0  0  0  0  0  0  0  0  0  0  0  0
    4.5713    1.7626   -1.4377 H   0  0  0  0  0  0  0  0  0  0  0  0
    5.1892   -1.2442   -0.6365 H   0  0  0  0  0  0  0  0  0  0  0  0
    5.2310   -0.3760   -2.1765 H   0  0  0  0  0  0  0  0  0  0  0  0
    5.4728   -3.1640   -2.0574 H   0  0  0  0  0  0  0  0  0  0  0  0
    4.7559   -2.3182   -3.4533 H   0  0  0  0  0  0  0  0  0  0  0  0
    2.9768   -4.0435   -3.8640 H   0  0  0  0  0  0  0  0  0  0  0  0
    1.9088   -4.4358   -2.5043 H   0  0  0  0  0  0  0  0  0  0  0  0
    3.7507   -5.1636   -0.3148 H   0  0  0  0  0  0  0  0  0  0  0  0
    5.0728   -7.2027    0.1939 H   0  0  0  0  0  0  0  0  0  0  0  0
    6.4108   -8.9958   -0.6435 H   0  0  0  0  0  0  0  0  0  0  0  0
    6.6758   -9.2719   -2.2818 H   0  0  0  0  0  0  0  0  0  0  0  0
    6.6328   -8.3636   -4.3782 H   0  0  0  0  0  0  0  0  0  0  0  0
    5.1913   -7.9367   -5.3202 H   0  0  0  0  0  0  0  0  0  0  0  0
    5.1640   -9.3481   -4.2335 H   0  0  0  0  0  0  0  0  0  0  0  0
    4.0816   -6.0110   -4.5141 H   0  0  0  0  0  0  0  0  0  0  0  0
    1.4695   -2.1680   -1.6471 H   0  0  0  0  0  0  0  0  0  0  0  0
    2.2309   -1.6420   -3.1700 H   0  0  0  0  0  0  0  0  0  0  0  0
  1  2  1  0
  1 19  1  0
  1 20  1  0
  1 21  1  0
  3  2  1  1
  2 22  1  0
  2 23  1  0
  3  4  1  0
  3  6  1  0
  3 18  1  0
  4  5  1  0
  4 24  1  0
  4 25  1  0
  5 26  1  0
  5 27  1  0
  5 28  1  0
  6  7  1  0
  6 29  1  0
  6 30  1  0
  7  8  1  0
  7 31  1  0
  7 32  1  0
  8  9  1  0
  8 18  1  0
  9 10  1  0
  9 33  1  0
  9 34  1  0
 10 11  2  0
 10 17  1  0
 11 12  1  0
 11 35  1  0
 12 13  2  0
 12 36  1  0
 13 14  1  0
 13 15  1  0
 14 37  1  0
 14 38  1  0
 15 16  1  0
 15 17  2  0
 16 39  1  0
 16 40  1  0
 16 41  1  0
 17 42  1  0
 18 43  1  0
 18 44  1  0
M  END

