
     RDKit          3D

 45 46  0  0  0  0  0  0  0  0999 V2000
    3.1509    2.3634   -1.5163 C   0  0  0  0  0  0  0  0  0  0  0  0
    2.4591    1.1090   -1.7576 N   0  0  0  0  0  0  0  0  0  0  0  0
    1.0331    1.1828   -2.0471 C   0  0  0  0  0  0  0  0  0  0  0  0
    3.0753   -0.0929   -1.7452 C   0  0  0  0  0  0  0  0  0  0  0  0
    4.3198   -0.4335   -1.2304 C   0  0  0  0  0  0  0  0  0  0  0  0
    4.9975    0.2619   -0.1676 C   0  0  0  0  0  0  0  0  0  0  0  0
    4.4272    0.8957    0.9066 C   0  0  0  0  0  0  0  0  0  0  0  0
    3.0471    0.8938    1.2317 C   0  0  0  0  0  0  0  0  0  0  0  0
    1.9154    0.8746    1.5052 N   0  0  0  0  0  0  0  0  0  0  0  0
    5.4977    1.8564    1.9995 S   0  0  1  0  0  0  0  0  0  0  0  0
    6.8723    1.6684    1.5091 O   0  0  0  0  0  0  0  0  0  0  0  0
    4.8981    3.1949    2.1036 O   0  0  0  0  0  0  0  0  0  0  0  0
    5.3726    1.0738    3.6145 C   0  0  0  0  0  0  0  0  0  0  0  0
    6.2618    0.0448    3.9405 C   0  0  0  0  0  0  0  0  0  0  0  0
    6.1688   -0.5499    5.2004 C   0  0  0  0  0  0  0  0  0  0  0  0
    5.2028   -0.1120    6.1140 C   0  0  0  0  0  0  0  0  0  0  0  0
    4.3295    0.9271    5.7765 C   0  0  0  0  0  0  0  0  0  0  0  0
    4.4120    1.5333    4.5200 C   0  0  0  0  0  0  0  0  0  0  0  0
    4.9894   -1.6610   -1.7730 C   0  0  0  0  0  0  0  0  0  0  0  0
    4.3003   -2.8833   -1.8768 C   0  0  0  0  0  0  0  0  0  0  0  0
    4.9263   -4.0237   -2.3849 C   0  0  0  0  0  0  0  0  0  0  0  0
    6.2604   -3.9772   -2.7911 C   0  0  0  0  0  0  0  0  0  0  0  0
    6.9611   -2.7702   -2.6844 C   0  0  0  0  0  0  0  0  0  0  0  0
    8.3860   -2.6894   -3.1764 C   0  0  1  0  0  0  0  0  0  0  0  0
    9.0503   -3.8406   -2.9699 F   0  0  0  0  0  0  0  0  0  0  0  0
    8.4376   -2.4425   -4.5007 F   0  0  0  0  0  0  0  0  0  0  0  0
    9.0758   -1.7092   -2.5685 F   0  0  0  0  0  0  0  0  0  0  0  0
    6.3340   -1.6266   -2.1815 C   0  0  0  0  0  0  0  0  0  0  0  0
    2.6520    3.1518   -2.0991 H   0  0  0  0  0  0  0  0  0  0  0  0
    4.1949    2.2758   -1.8507 H   0  0  0  0  0  0  0  0  0  0  0  0
    3.1638    2.6725   -0.4580 H   0  0  0  0  0  0  0  0  0  0  0  0
    0.8297    1.9882   -2.7709 H   0  0  0  0  0  0  0  0  0  0  0  0
    0.4552    1.3771   -1.1283 H   0  0  0  0  0  0  0  0  0  0  0  0
    0.6894    0.2287   -2.4717 H   0  0  0  0  0  0  0  0  0  0  0  0
    2.5314   -0.8585   -2.3108 H   0  0  0  0  0  0  0  0  0  0  0  0
    6.0920    0.2221   -0.1365 H   0  0  0  0  0  0  0  0  0  0  0  0
    7.0197   -0.2669    3.2197 H   0  0  0  0  0  0  0  0  0  0  0  0
    6.8576   -1.3531    5.4730 H   0  0  0  0  0  0  0  0  0  0  0  0
    5.1350   -0.5806    7.0990 H   0  0  0  0  0  0  0  0  0  0  0  0
    3.5833    1.2726    6.4959 H   0  0  0  0  0  0  0  0  0  0  0  0
    3.7533    2.3571    4.2410 H   0  0  0  0  0  0  0  0  0  0  0  0
    3.2651   -2.9497   -1.5325 H   0  0  0  0  0  0  0  0  0  0  0  0
    4.3713   -4.9630   -2.4473 H   0  0  0  0  0  0  0  0  0  0  0  0
    6.7584   -4.8689   -3.1755 H   0  0  0  0  0  0  0  0  0  0  0  0
    6.9020   -0.6968   -2.1152 H   0  0  0  0  0  0  0  0  0  0  0  0
  1  2  1  0
  1 29  1  0
  1 30  1  0
  1 31  1  0
  2  3  1  0
  2  4  1  0
  3 32  1  0
  3 33  1  0
  3 34  1  0
  4  5  2  0
  4 35  1  0
  5  6  1  0
  5 19  1  0
  6  7  2  0
  6 36  1  0
  7  8  1  0
 10  7  1  6
  8  9  3  0
 10 11  2  0
 10 12  2  0
 10 13  1  0
 13 14  2  0
 13 18  1  0
 14 15  1  0
 14 37  1  0
 15 16  2  0
 15 38  1  0
 16 17  1  0
 16 39  1  0
 17 18  2  0
 17 40  1  0
 18 41  1  0
 19 20  2  0
 19 28  1  0
 20 21  1  0
 20 42  1  0
 21 22  2  0
 21 43  1  0
 22 23  1  0
 22 44  1  0
 23 24  1  0
 23 28  2  0
 24 25  1  6
 24 26  1  0
 24 27  1  0
 28 45  1  0
M  END

