
     RDKit          3D

 70 70  0  0  0  0  0  0  0  0999 V2000
    3.3185    2.5565   -1.3906 C   0  0  0  0  0  0  0  0  0  0  0  0
    2.5537    1.2899   -1.7840 C   0  0  0  0  0  0  0  0  0  0  0  0
    3.0907   -0.0274   -1.1859 C   0  0  1  0  0  0  0  0  0  0  0  0
    2.1780   -1.2102   -1.5480 C   0  0  0  0  0  0  0  0  0  0  0  0
    4.5827   -0.2582   -1.5165 C   0  0  1  0  0  0  0  0  0  0  0  0
    5.1002   -1.4527   -0.8479 N   0  0  0  0  0  0  0  0  0  0  0  0
    6.3845   -1.5522   -0.4322 C   0  0  0  0  0  0  0  0  0  0  0  0
    7.2365   -0.6949   -0.6577 O   0  0  0  0  0  0  0  0  0  0  0  0
    6.7137   -2.8569    0.3346 C   0  0  1  0  0  0  0  0  0  0  0  0
    8.2091   -2.9799    0.6245 C   0  0  0  0  0  0  0  0  0  0  0  0
    8.6318   -4.3805    1.0727 C   0  0  0  0  0  0  0  0  0  0  0  0
   10.0006   -4.3674    1.7579 C   0  0  0  0  0  0  0  0  0  0  0  0
   10.7836   -5.4571    1.5232 N   0  0  0  0  0  0  0  0  0  0  0  0
   10.3437   -3.4558    2.4889 O   0  0  0  0  0  0  0  0  0  0  0  0
    5.9411   -2.9657    1.5752 N   0  0  0  0  0  0  0  0  0  0  0  0
    4.6628   -3.4178    1.6262 C   0  0  0  0  0  0  0  0  0  0  0  0
    4.0248   -3.7019    0.6131 O   0  0  0  0  0  0  0  0  0  0  0  0
    4.0634   -3.6212    3.0228 C   0  0  1  0  0  0  0  0  0  0  0  0
    2.6121   -3.7239    3.0044 N   0  0  0  0  0  0  0  0  0  0  0  0
    4.6138   -4.9130    3.6803 C   0  0  0  0  0  0  0  0  0  0  0  0
    3.9599   -5.1418    4.8905 O   0  0  0  0  0  0  0  0  0  0  0  0
    4.9264   -0.3121   -3.0243 C   0  0  0  0  0  0  0  0  0  0  0  0
    4.0885   -0.5115   -3.9121 O   0  0  0  0  0  0  0  0  0  0  0  0
    6.2355   -0.1364   -3.2928 N   0  0  0  0  0  0  0  0  0  0  0  0
    6.7840   -0.0553   -4.6472 C   0  0  1  0  0  0  0  0  0  0  0  0
    8.1832    0.5766   -4.6200 C   0  0  0  0  0  0  0  0  0  0  0  0
    8.2041    1.9909   -4.0814 C   0  0  0  0  0  0  0  0  0  0  0  0
    8.5350    2.2550   -2.7423 C   0  0  0  0  0  0  0  0  0  0  0  0
    8.5263    3.5626   -2.2455 C   0  0  0  0  0  0  0  0  0  0  0  0
    8.1884    4.6300   -3.0815 C   0  0  0  0  0  0  0  0  0  0  0  0
    7.8611    4.3816   -4.4186 C   0  0  0  0  0  0  0  0  0  0  0  0
    7.8704    3.0744   -4.9111 C   0  0  0  0  0  0  0  0  0  0  0  0
    6.8063   -1.4419   -5.3436 C   0  0  0  0  0  0  0  0  0  0  0  0
    7.8197   -1.9545   -5.7444 O   0  0  0  0  0  0  0  0  0  0  0  0
    5.6118   -2.0148   -5.4846 O   0  0  0  0  0  0  0  0  0  0  0  0
    2.7968    3.4544   -1.7575 H   0  0  0  0  0  0  0  0  0  0  0  0
    4.3362    2.5873   -1.8124 H   0  0  0  0  0  0  0  0  0  0  0  0
    3.4091    2.6534   -0.2949 H   0  0  0  0  0  0  0  0  0  0  0  0
    2.5179    1.1963   -2.8812 H   0  0  0  0  0  0  0  0  0  0  0  0
    1.5057    1.3901   -1.4530 H   0  0  0  0  0  0  0  0  0  0  0  0
    3.0718    0.0853   -0.0848 H   0  0  0  0  0  0  0  0  0  0  0  0
    2.1927   -1.4036   -2.6291 H   0  0  0  0  0  0  0  0  0  0  0  0
    1.1411   -0.9837   -1.2525 H   0  0  0  0  0  0  0  0  0  0  0  0
    2.4598   -2.1360   -1.0212 H   0  0  0  0  0  0  0  0  0  0  0  0
    5.1610    0.5844   -1.1081 H   0  0  0  0  0  0  0  0  0  0  0  0
    4.4791   -2.2442   -0.6659 H   0  0  0  0  0  0  0  0  0  0  0  0
    6.3779   -3.6869   -0.3108 H   0  0  0  0  0  0  0  0  0  0  0  0
    8.5005   -2.2531    1.3998 H   0  0  0  0  0  0  0  0  0  0  0  0
    8.7631   -2.6819   -0.2769 H   0  0  0  0  0  0  0  0  0  0  0  0
    8.6103   -5.0895    0.2284 H   0  0  0  0  0  0  0  0  0  0  0  0
    7.9197   -4.7691    1.8229 H   0  0  0  0  0  0  0  0  0  0  0  0
   10.5080   -6.2033    0.8997 H   0  0  0  0  0  0  0  0  0  0  0  0
   11.6850   -5.5099    1.9839 H   0  0  0  0  0  0  0  0  0  0  0  0
    6.3901   -2.6556    2.4314 H   0  0  0  0  0  0  0  0  0  0  0  0
    4.3479   -2.7773    3.6747 H   0  0  0  0  0  0  0  0  0  0  0  0
    2.3309   -4.2191    2.1543 H   0  0  0  0  0  0  0  0  0  0  0  0
    2.1777   -2.8036    2.9538 H   0  0  0  0  0  0  0  0  0  0  0  0
    5.6954   -4.8184    3.8744 H   0  0  0  0  0  0  0  0  0  0  0  0
    4.4818   -5.7501    2.9594 H   0  0  0  0  0  0  0  0  0  0  0  0
    3.0316   -4.9027    4.7080 H   0  0  0  0  0  0  0  0  0  0  0  0
    6.8708   -0.0696   -2.4926 H   0  0  0  0  0  0  0  0  0  0  0  0
    6.0978    0.5798   -5.2368 H   0  0  0  0  0  0  0  0  0  0  0  0
    8.5710    0.5477   -5.6482 H   0  0  0  0  0  0  0  0  0  0  0  0
    8.8477   -0.0756   -4.0315 H   0  0  0  0  0  0  0  0  0  0  0  0
    8.8065    1.4299   -2.0770 H   0  0  0  0  0  0  0  0  0  0  0  0
    8.7901    3.7461   -1.2006 H   0  0  0  0  0  0  0  0  0  0  0  0
    8.1854    5.6526   -2.6954 H   0  0  0  0  0  0  0  0  0  0  0  0
    7.6033    5.2107   -5.0829 H   0  0  0  0  0  0  0  0  0  0  0  0
    7.6213    2.8916   -5.9610 H   0  0  0  0  0  0  0  0  0  0  0  0
    4.9024   -1.4577   -5.0694 H   0  0  0  0  0  0  0  0  0  0  0  0
  1  2  1  0
  1 36  1  0
  1 37  1  0
  1 38  1  0
  2  3  1  0
  2 39  1  0
  2 40  1  0
  3  4  1  0
  3  5  1  0
  3 41  1  1
  4 42  1  0
  4 43  1  0
  4 44  1  0
  5  6  1  0
  5 22  1  0
  5 45  1  1
  6  7  1  0
  6 46  1  0
  7  8  2  0
  7  9  1  0
  9 10  1  0
  9 15  1  0
  9 47  1  6
 10 11  1  0
 10 48  1  0
 10 49  1  0
 11 12  1  0
 11 50  1  0
 11 51  1  0
 12 13  1  0
 12 14  2  0
 13 52  1  0
 13 53  1  0
 15 16  1  0
 15 54  1  0
 16 17  2  0
 16 18  1  0
 18 19  1  0
 18 20  1  0
 18 55  1  1
 19 56  1  0
 19 57  1  0
 20 21  1  0
 20 58  1  0
 20 59  1  0
 21 60  1  0
 22 23  2  0
 22 24  1  0
 24 25  1  0
 24 61  1  0
 25 26  1  0
 25 33  1  0
 25 62  1  6
 26 27  1  0
 26 63  1  0
 26 64  1  0
 27 28  2  0
 27 32  1  0
 28 29  1  0
 28 65  1  0
 29 30  2  0
 29 66  1  0
 30 31  1  0
 30 67  1  0
 31 32  2  0
 31 68  1  0
 32 69  1  0
 33 34  2  0
 33 35  1  0
 35 70  1  0
M  END

