
     RDKit          3D

 43 44  0  0  0  0  0  0  0  0999 V2000
    1.0429    0.2380    0.7545 C   0  0  0  0  0  0  0  0  0  0  0  0
    2.5481    0.3365    0.9123 C   0  0  0  0  0  0  0  0  0  0  0  0
    3.0770   -0.9800    0.9051 O   0  0  0  0  0  0  0  0  0  0  0  0
    4.4142   -1.1797    1.0204 C   0  0  0  0  0  0  0  0  0  0  0  0
    5.3576   -0.1512    1.1607 C   0  0  0  0  0  0  0  0  0  0  0  0
    6.7165   -0.4537    1.2706 C   0  0  0  0  0  0  0  0  0  0  0  0
    7.1788   -1.7774    1.2498 C   0  0  0  0  0  0  0  0  0  0  0  0
    8.6720   -2.0646    1.4220 C   0  0  1  0  0  0  0  0  0  0  0  0
    9.0956   -3.4642    0.9496 C   0  0  0  0  0  0  0  0  0  0  0  0
    9.4512   -0.9827    0.8114 N   0  0  0  0  0  0  0  0  0  0  0  0
    6.2200   -2.7917    1.1077 C   0  0  0  0  0  0  0  0  0  0  0  0
    4.8502   -2.5237    0.9985 C   0  0  0  0  0  0  0  0  0  0  0  0
    3.8565   -3.6398    0.8459 C   0  0  0  0  0  0  0  0  0  0  0  0
    3.5347   -3.9440   -0.9555 S   0  0  0  0  0  0  0  0  0  0  0  0
    2.4269   -5.3016   -0.8030 C   0  0  0  0  0  0  0  0  0  0  0  0
    2.0611   -5.9116    0.2991 N   0  0  0  0  0  0  0  0  0  0  0  0
    1.1917   -6.9139   -0.0591 N   0  0  0  0  0  0  0  0  0  0  0  0
    1.0517   -6.8906   -1.3608 C   0  0  0  0  0  0  0  0  0  0  0  0
    0.1939   -7.8173   -2.1538 C   0  0  0  0  0  0  0  0  0  0  0  0
    1.8195   -5.8727   -1.8971 N   0  0  0  0  0  0  0  0  0  0  0  0
    1.9777   -5.4772   -3.2817 C   0  0  0  0  0  0  0  0  0  0  0  0
    0.5941    1.2434    0.7447 H   0  0  0  0  0  0  0  0  0  0  0  0
    0.6006   -0.3335    1.5848 H   0  0  0  0  0  0  0  0  0  0  0  0
    0.7855   -0.2702   -0.1872 H   0  0  0  0  0  0  0  0  0  0  0  0
    2.8119    0.8452    1.8588 H   0  0  0  0  0  0  0  0  0  0  0  0
    2.9915    0.9248    0.0868 H   0  0  0  0  0  0  0  0  0  0  0  0
    5.0428    0.8923    1.1831 H   0  0  0  0  0  0  0  0  0  0  0  0
    7.4470    0.3512    1.3675 H   0  0  0  0  0  0  0  0  0  0  0  0
    8.8856   -2.0108    2.5076 H   0  0  0  0  0  0  0  0  0  0  0  0
    8.8555   -3.6140   -0.1166 H   0  0  0  0  0  0  0  0  0  0  0  0
    8.6128   -4.2708    1.5232 H   0  0  0  0  0  0  0  0  0  0  0  0
   10.1839   -3.5846    1.0740 H   0  0  0  0  0  0  0  0  0  0  0  0
    9.3410   -1.0049   -0.2046 H   0  0  0  0  0  0  0  0  0  0  0  0
   10.4449   -1.1161    1.0002 H   0  0  0  0  0  0  0  0  0  0  0  0
    6.5277   -3.8389    1.0830 H   0  0  0  0  0  0  0  0  0  0  0  0
    2.8916   -3.4025    1.3090 H   0  0  0  0  0  0  0  0  0  0  0  0
    4.2253   -4.5827    1.2687 H   0  0  0  0  0  0  0  0  0  0  0  0
   -0.2866   -8.5121   -1.4529 H   0  0  0  0  0  0  0  0  0  0  0  0
    0.7772   -8.4063   -2.8815 H   0  0  0  0  0  0  0  0  0  0  0  0
   -0.5965   -7.2833   -2.7080 H   0  0  0  0  0  0  0  0  0  0  0  0
    1.2782   -6.0459   -3.9074 H   0  0  0  0  0  0  0  0  0  0  0  0
    3.0038   -5.6697   -3.6351 H   0  0  0  0  0  0  0  0  0  0  0  0
    1.7646   -4.4033   -3.4015 H   0  0  0  0  0  0  0  0  0  0  0  0
  1  2  1  0
  1 22  1  0
  1 23  1  0
  1 24  1  0
  2  3  1  0
  2 25  1  0
  2 26  1  0
  3  4  1  0
  4  5  2  0
  4 12  1  0
  5  6  1  0
  5 27  1  0
  6  7  2  0
  6 28  1  0
  7  8  1  0
  7 11  1  0
  8  9  1  0
  8 10  1  0
  8 29  1  1
  9 30  1  0
  9 31  1  0
  9 32  1  0
 10 33  1  0
 10 34  1  0
 11 12  2  0
 11 35  1  0
 12 13  1  0
 13 14  1  0
 13 36  1  0
 13 37  1  0
 14 15  1  0
 15 16  2  0
 15 20  1  0
 16 17  1  0
 17 18  2  0
 18 19  1  0
 18 20  1  0
 19 38  1  0
 19 39  1  0
 19 40  1  0
 20 21  1  0
 21 41  1  0
 21 42  1  0
 21 43  1  0
M  END

