
     RDKit          3D

 82 84  0  0  0  0  0  0  0  0999 V2000
    3.4036    2.0510    0.0294 C   0  0  0  0  0  0  0  0  0  0  0  0
    4.9258    1.9676    0.2023 C   0  0  1  0  0  0  0  0  0  0  0  0
    5.5472    3.3691    0.2652 C   0  0  0  0  0  0  0  0  0  0  0  0
    5.3469    1.1529    1.4398 C   0  0  0  0  0  0  0  0  0  0  0  0
    4.8694   -0.3114    1.4687 C   0  0  1  0  0  0  0  0  0  0  0  0
    5.2796   -1.1005    0.3008 N   0  0  0  0  0  0  0  0  0  0  0  0
    6.5762   -1.2604   -0.1272 C   0  0  0  0  0  0  0  0  0  0  0  0
    7.5367   -0.7599    0.4487 O   0  0  0  0  0  0  0  0  0  0  0  0
    6.6879   -2.0216   -1.2793 N   0  0  0  0  0  0  0  0  0  0  0  0
    7.8521   -2.4494   -1.9419 C   0  0  0  0  0  0  0  0  0  0  0  0
    9.1546   -2.0916   -1.5448 C   0  0  0  0  0  0  0  0  0  0  0  0
   10.2505   -2.5670   -2.2698 C   0  0  0  0  0  0  0  0  0  0  0  0
   10.0842   -3.3898   -3.3879 C   0  0  0  0  0  0  0  0  0  0  0  0
    8.7895   -3.7425   -3.7823 C   0  0  0  0  0  0  0  0  0  0  0  0
    7.6852   -3.2804   -3.0668 C   0  0  0  0  0  0  0  0  0  0  0  0
    5.1808   -0.9882    2.8246 C   0  0  0  0  0  0  0  0  0  0  0  0
    4.2781   -1.2087    3.6230 O   0  0  0  0  0  0  0  0  0  0  0  0
    6.4795   -1.2913    3.0675 N   0  0  0  0  0  0  0  0  0  0  0  0
    6.8676   -1.9616    4.2896 C   0  0  1  0  0  0  0  0  0  0  0  0
    6.4559   -3.4569    4.3448 C   0  0  0  0  0  0  0  0  0  0  0  0
    6.7990   -4.3309    3.1529 C   0  0  0  0  0  0  0  0  0  0  0  0
    7.9201   -4.1385    2.3354 C   0  0  0  0  0  0  0  0  0  0  0  0
    8.2068   -4.9901    1.2596 C   0  0  0  0  0  0  0  0  0  0  0  0
    7.3648   -6.0750    0.9818 C   0  0  0  0  0  0  0  0  0  0  0  0
    7.5498   -6.9575   -0.0370 O   0  0  0  0  0  0  0  0  0  0  0  0
    8.6733   -6.8154   -0.8828 C   0  0  0  0  0  0  0  0  0  0  0  0
    8.6932   -7.9241   -1.9106 C   0  0  0  0  0  0  0  0  0  0  0  0
    7.9546   -9.1023   -1.7410 C   0  0  0  0  0  0  0  0  0  0  0  0
    8.0254  -10.1241   -2.6935 C   0  0  0  0  0  0  0  0  0  0  0  0
    8.8364   -9.9834   -3.8226 C   0  0  0  0  0  0  0  0  0  0  0  0
    9.5756   -8.8089   -3.9982 C   0  0  0  0  0  0  0  0  0  0  0  0
    9.5005   -7.7858   -3.0504 C   0  0  0  0  0  0  0  0  0  0  0  0
    6.2347   -6.2840    1.7903 C   0  0  0  0  0  0  0  0  0  0  0  0
    5.9619   -5.4217    2.8471 C   0  0  0  0  0  0  0  0  0  0  0  0
    8.3554   -1.7175    4.5463 C   0  0  0  0  0  0  0  0  0  0  0  0
    9.0959   -1.1644    3.7653 O   0  0  0  0  0  0  0  0  0  0  0  0
    8.7017   -2.1879    5.7474 O   0  0  0  0  0  0  0  0  0  0  0  0
   10.0742   -2.0976    6.2788 C   0  0  1  0  0  0  0  0  0  0  0  0
   10.4654   -0.6260    6.4424 C   0  0  0  0  0  0  0  0  0  0  0  0
    9.9565   -2.7861    7.6390 C   0  0  0  0  0  0  0  0  0  0  0  0
   11.0402   -2.8567    5.3644 C   0  0  0  0  0  0  0  0  0  0  0  0
    3.1395    2.6626   -0.8484 H   0  0  0  0  0  0  0  0  0  0  0  0
    2.9282    2.5137    0.9117 H   0  0  0  0  0  0  0  0  0  0  0  0
    2.9436    1.0605   -0.1153 H   0  0  0  0  0  0  0  0  0  0  0  0
    5.3398    1.4606   -0.6881 H   0  0  0  0  0  0  0  0  0  0  0  0
    5.1716    3.9303    1.1383 H   0  0  0  0  0  0  0  0  0  0  0  0
    5.3044    3.9553   -0.6360 H   0  0  0  0  0  0  0  0  0  0  0  0
    6.6446    3.3185    0.3484 H   0  0  0  0  0  0  0  0  0  0  0  0
    4.9382    1.6342    2.3464 H   0  0  0  0  0  0  0  0  0  0  0  0
    6.4419    1.1789    1.5306 H   0  0  0  0  0  0  0  0  0  0  0  0
    3.7720   -0.3165    1.4477 H   0  0  0  0  0  0  0  0  0  0  0  0
    4.5783   -1.7338   -0.0631 H   0  0  0  0  0  0  0  0  0  0  0  0
    5.8237   -2.3190   -1.7158 H   0  0  0  0  0  0  0  0  0  0  0  0
    9.2889   -1.4435   -0.6823 H   0  0  0  0  0  0  0  0  0  0  0  0
   11.2557   -2.2780   -1.9512 H   0  0  0  0  0  0  0  0  0  0  0  0
   10.9511   -3.7461   -3.9492 H   0  0  0  0  0  0  0  0  0  0  0  0
    8.6326   -4.3845   -4.6528 H   0  0  0  0  0  0  0  0  0  0  0  0
    6.6772   -3.5671   -3.3825 H   0  0  0  0  0  0  0  0  0  0  0  0
    7.1952   -1.0640    2.3717 H   0  0  0  0  0  0  0  0  0  0  0  0
    6.3343   -1.4853    5.1301 H   0  0  0  0  0  0  0  0  0  0  0  0
    5.3646   -3.4675    4.4822 H   0  0  0  0  0  0  0  0  0  0  0  0
    6.8887   -3.8798    5.2675 H   0  0  0  0  0  0  0  0  0  0  0  0
    8.5941   -3.2977    2.5053 H   0  0  0  0  0  0  0  0  0  0  0  0
    9.0817   -4.7818    0.6442 H   0  0  0  0  0  0  0  0  0  0  0  0
    9.6038   -6.8498   -0.2811 H   0  0  0  0  0  0  0  0  0  0  0  0
    8.6557   -5.8331   -1.3906 H   0  0  0  0  0  0  0  0  0  0  0  0
    7.3195   -9.2088   -0.8607 H   0  0  0  0  0  0  0  0  0  0  0  0
    7.4415  -11.0374   -2.5502 H   0  0  0  0  0  0  0  0  0  0  0  0
    8.8907  -10.7836   -4.5653 H   0  0  0  0  0  0  0  0  0  0  0  0
   10.2093   -8.6866   -4.8806 H   0  0  0  0  0  0  0  0  0  0  0  0
   10.0729   -6.8650   -3.1977 H   0  0  0  0  0  0  0  0  0  0  0  0
    5.5786   -7.1271    1.5635 H   0  0  0  0  0  0  0  0  0  0  0  0
    5.0701   -5.5973    3.4562 H   0  0  0  0  0  0  0  0  0  0  0  0
    9.7292   -0.0996    7.0697 H   0  0  0  0  0  0  0  0  0  0  0  0
   10.5300   -0.1203    5.4705 H   0  0  0  0  0  0  0  0  0  0  0  0
   11.4459   -0.5588    6.9392 H   0  0  0  0  0  0  0  0  0  0  0  0
    9.2165   -2.2721    8.2707 H   0  0  0  0  0  0  0  0  0  0  0  0
   10.9274   -2.7727    8.1568 H   0  0  0  0  0  0  0  0  0  0  0  0
    9.6399   -3.8333    7.5190 H   0  0  0  0  0  0  0  0  0  0  0  0
   11.1436   -2.3605    4.3912 H   0  0  0  0  0  0  0  0  0  0  0  0
   10.6874   -3.8871    5.2023 H   0  0  0  0  0  0  0  0  0  0  0  0
   12.0319   -2.9069    5.8405 H   0  0  0  0  0  0  0  0  0  0  0  0
  1  2  1  0
  1 42  1  0
  1 43  1  0
  1 44  1  0
  2  3  1  0
  2  4  1  0
  2 45  1  6
  3 46  1  0
  3 47  1  0
  3 48  1  0
  4  5  1  0
  4 49  1  0
  4 50  1  0
  5  6  1  0
  5 16  1  0
  5 51  1  6
  6  7  1  0
  6 52  1  0
  7  8  2  0
  7  9  1  0
  9 10  1  0
  9 53  1  0
 10 11  2  0
 10 15  1  0
 11 12  1  0
 11 54  1  0
 12 13  2  0
 12 55  1  0
 13 14  1  0
 13 56  1  0
 14 15  2  0
 14 57  1  0
 15 58  1  0
 16 17  2  0
 16 18  1  0
 18 19  1  0
 18 59  1  0
 19 20  1  0
 19 35  1  0
 19 60  1  1
 20 21  1  0
 20 61  1  0
 20 62  1  0
 21 22  2  0
 21 34  1  0
 22 23  1  0
 22 63  1  0
 23 24  2  0
 23 64  1  0
 24 25  1  0
 24 33  1  0
 25 26  1  0
 26 27  1  0
 26 65  1  0
 26 66  1  0
 27 28  2  0
 27 32  1  0
 28 29  1  0
 28 67  1  0
 29 30  2  0
 29 68  1  0
 30 31  1  0
 30 69  1  0
 31 32  2  0
 31 70  1  0
 32 71  1  0
 33 34  2  0
 33 72  1  0
 34 73  1  0
 35 36  2  0
 35 37  1  0
 38 37  1  6
 38 39  1  0
 38 40  1  0
 38 41  1  0
 39 74  1  0
 39 75  1  0
 39 76  1  0
 40 77  1  0
 40 78  1  0
 40 79  1  0
 41 80  1  0
 41 81  1  0
 41 82  1  0
M  END

