
     RDKit          3D

 36 37  0  0  0  0  0  0  0  0999 V2000
    0.8017    1.5960    1.2065 C   0  0  0  0  0  0  0  0  0  0  0  0
    2.2390    1.4720    1.3489 N   0  0  0  0  0  0  0  0  0  0  0  0
    2.9210    0.9951    0.1653 C   0  0  0  0  0  0  0  0  0  0  0  0
    4.4690    1.0842    0.2583 C   0  0  1  0  0  0  0  0  0  0  0  0
    4.9759    0.1982    1.4120 C   0  0  0  0  0  0  0  0  0  0  0  0
    5.0583    0.5499   -1.0684 C   0  0  0  0  0  0  0  0  0  0  0  0
    4.9107    2.5246    0.4732 C   0  0  0  0  0  0  0  0  0  0  0  0
    5.7383    3.0543    1.4364 C   0  0  0  0  0  0  0  0  0  0  0  0
    5.9574    4.4553    1.3021 C   0  0  0  0  0  0  0  0  0  0  0  0
    5.3007    5.0179    0.2280 C   0  0  0  0  0  0  0  0  0  0  0  0
    5.2914    6.4188   -0.2152 C   0  0  0  0  0  0  0  0  0  0  0  0
    5.6276    7.4572    0.6792 C   0  0  0  0  0  0  0  0  0  0  0  0
    5.6346    8.7873    0.2593 C   0  0  0  0  0  0  0  0  0  0  0  0
    5.2979    9.1282   -1.0544 C   0  0  0  0  0  0  0  0  0  0  0  0
    4.9589    8.0987   -1.9289 C   0  0  0  0  0  0  0  0  0  0  0  0
    4.6350    8.3998   -3.1964 F   0  0  0  0  0  0  0  0  0  0  0  0
    4.9538    6.7640   -1.5385 C   0  0  0  0  0  0  0  0  0  0  0  0
    4.3919    3.7860   -0.6192 S   0  0  0  0  0  0  0  0  0  0  0  0
    0.3570    1.9170    2.1617 H   0  0  0  0  0  0  0  0  0  0  0  0
    0.2830    0.6629    0.8873 H   0  0  0  0  0  0  0  0  0  0  0  0
    0.5638    2.3713    0.4584 H   0  0  0  0  0  0  0  0  0  0  0  0
    2.4596    0.8825    2.1488 H   0  0  0  0  0  0  0  0  0  0  0  0
    2.5855    1.6119   -0.6872 H   0  0  0  0  0  0  0  0  0  0  0  0
    2.6564   -0.0552   -0.1039 H   0  0  0  0  0  0  0  0  0  0  0  0
    4.6206   -0.8362    1.2776 H   0  0  0  0  0  0  0  0  0  0  0  0
    4.6296    0.5597    2.3922 H   0  0  0  0  0  0  0  0  0  0  0  0
    6.0761    0.1704    1.4390 H   0  0  0  0  0  0  0  0  0  0  0  0
    4.7595   -0.4983   -1.2332 H   0  0  0  0  0  0  0  0  0  0  0  0
    6.1580    0.5955   -1.0523 H   0  0  0  0  0  0  0  0  0  0  0  0
    4.7114    1.1419   -1.9296 H   0  0  0  0  0  0  0  0  0  0  0  0
    6.1894    2.4594    2.2303 H   0  0  0  0  0  0  0  0  0  0  0  0
    6.6035    5.0263    1.9703 H   0  0  0  0  0  0  0  0  0  0  0  0
    5.8660    7.2198    1.7171 H   0  0  0  0  0  0  0  0  0  0  0  0
    5.8961    9.5760    0.9692 H   0  0  0  0  0  0  0  0  0  0  0  0
    5.2911   10.1616   -1.4050 H   0  0  0  0  0  0  0  0  0  0  0  0
    4.7015    6.0032   -2.2796 H   0  0  0  0  0  0  0  0  0  0  0  0
  1  2  1  0
  1 19  1  0
  1 20  1  0
  1 21  1  0
  2  3  1  0
  2 22  1  0
  4  3  1  6
  3 23  1  0
  3 24  1  0
  4  5  1  0
  4  6  1  0
  4  7  1  0
  5 25  1  0
  5 26  1  0
  5 27  1  0
  6 28  1  0
  6 29  1  0
  6 30  1  0
  7  8  2  0
  7 18  1  0
  8  9  1  0
  8 31  1  0
  9 10  2  0
  9 32  1  0
 10 11  1  0
 10 18  1  0
 11 12  2  0
 11 17  1  0
 12 13  1  0
 12 33  1  0
 13 14  2  0
 13 34  1  0
 14 15  1  0
 14 35  1  0
 15 16  1  0
 15 17  2  0
 17 36  1  0
M  END

