
     RDKit          3D

 52 54  0  0  0  0  0  0  0  0999 V2000
    0.8267   -0.9815   -2.2551 C   0  0  0  0  0  0  0  0  0  0  0  0
    2.1894   -0.6903   -1.9345 O   0  0  0  0  0  0  0  0  0  0  0  0
    2.5891   -0.9878   -0.6957 C   0  0  0  0  0  0  0  0  0  0  0  0
    1.8678   -1.4458    0.1599 O   0  0  0  0  0  0  0  0  0  0  0  0
    4.0796   -0.7168   -0.5067 C   0  0  1  0  0  0  0  0  0  0  0  0
    4.3393   -0.6431    0.9134 N   0  0  0  0  0  0  0  0  0  0  0  0
    5.3952    0.0650    1.4071 C   0  0  0  0  0  0  0  0  0  0  0  0
    6.1801    0.6839    0.7143 O   0  0  0  0  0  0  0  0  0  0  0  0
    5.4185   -0.0279    2.7540 O   0  0  0  0  0  0  0  0  0  0  0  0
    6.4444    0.6402    3.5560 C   0  0  1  0  0  0  0  0  0  0  0  0
    6.3550    2.1585    3.3660 C   0  0  0  0  0  0  0  0  0  0  0  0
    6.0652    0.2508    4.9864 C   0  0  0  0  0  0  0  0  0  0  0  0
    7.8309    0.0959    3.1951 C   0  0  0  0  0  0  0  0  0  0  0  0
    4.9014   -1.7869   -1.2327 C   0  0  0  0  0  0  0  0  0  0  0  0
    4.7077   -3.1499   -0.9064 C   0  0  0  0  0  0  0  0  0  0  0  0
    5.4408   -4.1688   -1.5199 C   0  0  0  0  0  0  0  0  0  0  0  0
    6.3709   -3.7612   -2.4689 C   0  0  0  0  0  0  0  0  0  0  0  0
    7.2197   -4.5181   -3.2194 O   0  0  0  0  0  0  0  0  0  0  0  0
    7.9145   -3.6135   -3.9820 C   0  0  0  0  0  0  0  0  0  0  0  0
    8.9312   -4.0809   -4.9203 C   0  0  0  0  0  0  0  0  0  0  0  0
    9.6247   -3.1040   -5.6628 C   0  0  0  0  0  0  0  0  0  0  0  0
   10.6111   -3.4311   -6.5826 C   0  0  0  0  0  0  0  0  0  0  0  0
   10.9372   -4.7825   -6.7881 C   0  0  0  0  0  0  0  0  0  0  0  0
   11.8865   -5.1813   -7.6662 O   0  0  0  0  0  0  0  0  0  0  0  0
   10.2661   -5.7741   -6.0665 C   0  0  0  0  0  0  0  0  0  0  0  0
    9.2712   -5.4412   -5.1391 C   0  0  0  0  0  0  0  0  0  0  0  0
    8.6268   -6.4055   -4.4466 O   0  0  0  0  0  0  0  0  0  0  0  0
    7.5804   -2.3697   -3.7789 N   0  0  0  0  0  0  0  0  0  0  0  0
    6.5902   -2.4164   -2.8137 C   0  0  0  0  0  0  0  0  0  0  0  0
    5.8485   -1.4062   -2.1869 C   0  0  0  0  0  0  0  0  0  0  0  0
    0.6878   -0.6743   -3.2985 H   0  0  0  0  0  0  0  0  0  0  0  0
    0.1439   -0.4240   -1.5967 H   0  0  0  0  0  0  0  0  0  0  0  0
    0.6230   -2.0570   -2.1428 H   0  0  0  0  0  0  0  0  0  0  0  0
    4.3162    0.2548   -0.9647 H   0  0  0  0  0  0  0  0  0  0  0  0
    3.6822   -1.0903    1.5441 H   0  0  0  0  0  0  0  0  0  0  0  0
    5.3373    2.5132    3.5936 H   0  0  0  0  0  0  0  0  0  0  0  0
    6.6066    2.4413    2.3360 H   0  0  0  0  0  0  0  0  0  0  0  0
    7.0532    2.6617    4.0532 H   0  0  0  0  0  0  0  0  0  0  0  0
    5.0511    0.6041    5.2279 H   0  0  0  0  0  0  0  0  0  0  0  0
    6.7710    0.6963    5.7038 H   0  0  0  0  0  0  0  0  0  0  0  0
    6.0866   -0.8429    5.1080 H   0  0  0  0  0  0  0  0  0  0  0  0
    8.0980    0.3529    2.1623 H   0  0  0  0  0  0  0  0  0  0  0  0
    7.8518   -0.9999    3.3044 H   0  0  0  0  0  0  0  0  0  0  0  0
    8.5863    0.5214    3.8743 H   0  0  0  0  0  0  0  0  0  0  0  0
    3.9642   -3.4135   -0.1497 H   0  0  0  0  0  0  0  0  0  0  0  0
    5.2928   -5.2206   -1.2699 H   0  0  0  0  0  0  0  0  0  0  0  0
    9.3569   -2.0609   -5.4878 H   0  0  0  0  0  0  0  0  0  0  0  0
   11.1301   -2.6472   -7.1414 H   0  0  0  0  0  0  0  0  0  0  0  0
   12.2740   -4.4075   -8.0968 H   0  0  0  0  0  0  0  0  0  0  0  0
   10.5323   -6.8202   -6.2391 H   0  0  0  0  0  0  0  0  0  0  0  0
    8.9729   -7.2692   -4.7081 H   0  0  0  0  0  0  0  0  0  0  0  0
    6.0197   -0.3560   -2.4286 H   0  0  0  0  0  0  0  0  0  0  0  0
  1  2  1  0
  1 31  1  0
  1 32  1  0
  1 33  1  0
  2  3  1  0
  3  4  2  0
  3  5  1  0
  5  6  1  0
  5 14  1  0
  5 34  1  6
  6  7  1  0
  6 35  1  0
  7  8  2  0
  7  9  1  0
 10  9  1  6
 10 11  1  0
 10 12  1  0
 10 13  1  0
 11 36  1  0
 11 37  1  0
 11 38  1  0
 12 39  1  0
 12 40  1  0
 12 41  1  0
 13 42  1  0
 13 43  1  0
 13 44  1  0
 14 15  2  0
 14 30  1  0
 15 16  1  0
 15 45  1  0
 16 17  2  0
 16 46  1  0
 17 18  1  0
 17 29  1  0
 18 19  1  0
 19 20  1  0
 19 28  2  0
 20 21  2  0
 20 26  1  0
 21 22  1  0
 21 47  1  0
 22 23  2  0
 22 48  1  0
 23 24  1  0
 23 25  1  0
 24 49  1  0
 25 26  2  0
 25 50  1  0
 26 27  1  0
 27 51  1  0
 28 29  1  0
 29 30  2  0
 30 52  1  0
M  END

