
     RDKit          3D

 41 44  0  0  0  0  0  0  0  0999 V2000
    2.5306   -5.1785   -5.5715 C   0  0  0  0  0  0  0  0  0  0  0  0
    3.6794   -5.6136   -4.6827 C   0  0  0  0  0  0  0  0  0  0  0  0
    3.8845   -4.6058   -3.7029 O   0  0  0  0  0  0  0  0  0  0  0  0
    4.8263   -4.7769   -2.7494 C   0  0  0  0  0  0  0  0  0  0  0  0
    5.7215   -5.8531   -2.6776 C   0  0  0  0  0  0  0  0  0  0  0  0
    6.6741   -5.9129   -1.6519 C   0  0  0  0  0  0  0  0  0  0  0  0
    6.7483   -4.9082   -0.6888 C   0  0  0  0  0  0  0  0  0  0  0  0
    5.8526   -3.8332   -0.7480 C   0  0  0  0  0  0  0  0  0  0  0  0
    4.9047   -3.7714   -1.7608 C   0  0  0  0  0  0  0  0  0  0  0  0
    4.0797   -2.6604   -1.8487 O   0  0  0  0  0  0  0  0  0  0  0  0
    2.7553   -2.7789   -1.5936 C   0  0  0  0  0  0  0  0  0  0  0  0
    2.2681   -3.8734   -1.1107 N   0  0  0  0  0  0  0  0  0  0  0  0
    0.9323   -3.9252   -0.8589 C   0  0  0  0  0  0  0  0  0  0  0  0
    0.1036   -4.9207   -0.3565 C   0  0  0  0  0  0  0  0  0  0  0  0
   -1.1923   -4.3422   -0.3321 C   0  0  0  0  0  0  0  0  0  0  0  0
   -2.4727   -4.9723    0.1219 C   0  0  0  0  0  0  0  0  0  0  0  0
   -1.1855   -3.0845   -0.7819 N   0  0  0  0  0  0  0  0  0  0  0  0
    0.1001   -2.8346   -1.0995 N   0  0  0  0  0  0  0  0  0  0  0  0
    0.5827   -1.6435   -1.6094 C   0  0  0  0  0  0  0  0  0  0  0  0
   -0.2464   -0.5357   -1.8560 C   0  0  0  0  0  0  0  0  0  0  0  0
    0.3176    0.6233   -2.3728 C   0  0  0  0  0  0  0  0  0  0  0  0
    1.6965    0.6988   -2.6509 C   0  0  0  0  0  0  0  0  0  0  0  0
    2.5156   -0.3954   -2.4077 C   0  0  0  0  0  0  0  0  0  0  0  0
    1.9732   -1.5852   -1.8808 C   0  0  0  0  0  0  0  0  0  0  0  0
    2.3471   -5.9339   -6.3512 H   0  0  0  0  0  0  0  0  0  0  0  0
    2.7596   -4.2200   -6.0616 H   0  0  0  0  0  0  0  0  0  0  0  0
    1.6095   -5.0537   -4.9824 H   0  0  0  0  0  0  0  0  0  0  0  0
    4.6028   -5.7547   -5.2756 H   0  0  0  0  0  0  0  0  0  0  0  0
    3.4519   -6.5757   -4.1870 H   0  0  0  0  0  0  0  0  0  0  0  0
    5.6856   -6.6473   -3.4234 H   0  0  0  0  0  0  0  0  0  0  0  0
    7.3644   -6.7593   -1.6165 H   0  0  0  0  0  0  0  0  0  0  0  0
    7.4932   -4.9555    0.1084 H   0  0  0  0  0  0  0  0  0  0  0  0
    5.8769   -3.0287   -0.0103 H   0  0  0  0  0  0  0  0  0  0  0  0
    0.4068   -5.9185   -0.0519 H   0  0  0  0  0  0  0  0  0  0  0  0
   -2.7057   -5.8748   -0.4669 H   0  0  0  0  0  0  0  0  0  0  0  0
   -3.3008   -4.2589    0.0101 H   0  0  0  0  0  0  0  0  0  0  0  0
   -2.4149   -5.2788    1.1792 H   0  0  0  0  0  0  0  0  0  0  0  0
   -1.3101   -0.6192   -1.6338 H   0  0  0  0  0  0  0  0  0  0  0  0
   -0.3213    1.4888   -2.5666 H   0  0  0  0  0  0  0  0  0  0  0  0
    2.1206    1.6190   -3.0588 H   0  0  0  0  0  0  0  0  0  0  0  0
    3.5851   -0.3572   -2.6181 H   0  0  0  0  0  0  0  0  0  0  0  0
  1  2  1  0
  1 25  1  0
  1 26  1  0
  1 27  1  0
  2  3  1  0
  2 28  1  0
  2 29  1  0
  3  4  1  0
  4  5  2  0
  4  9  1  0
  5  6  1  0
  5 30  1  0
  6  7  2  0
  6 31  1  0
  7  8  1  0
  7 32  1  0
  8  9  2  0
  8 33  1  0
  9 10  1  0
 10 11  1  0
 11 12  2  0
 11 24  1  0
 12 13  1  0
 13 14  2  0
 13 18  1  0
 14 15  1  0
 14 34  1  0
 15 16  1  0
 15 17  2  0
 16 35  1  0
 16 36  1  0
 16 37  1  0
 17 18  1  0
 18 19  1  0
 19 20  1  0
 19 24  2  0
 20 21  2  0
 20 38  1  0
 21 22  1  0
 21 39  1  0
 22 23  2  0
 22 40  1  0
 23 24  1  0
 23 41  1  0
M  END

