
     RDKit          3D

 50 52  0  0  0  0  0  0  0  0999 V2000
    1.7391    0.2302    4.5731 C   0  0  0  0  0  0  0  0  0  0  0  0
    3.2353    0.1981    4.3289 C   0  0  0  0  0  0  0  0  0  0  0  0
    3.4850    0.7638    3.0497 O   0  0  0  0  0  0  0  0  0  0  0  0
    4.7522    0.8591    2.5866 C   0  0  0  0  0  0  0  0  0  0  0  0
    4.9067    1.4503    1.3174 C   0  0  0  0  0  0  0  0  0  0  0  0
    6.1695    1.5966    0.7616 C   0  0  0  0  0  0  0  0  0  0  0  0
    7.3162    1.1307    1.4329 C   0  0  0  0  0  0  0  0  0  0  0  0
    8.6580    1.4101    0.8158 C   0  0  0  0  0  0  0  0  0  0  0  0
    8.8599    2.4743    0.2456 O   0  0  0  0  0  0  0  0  0  0  0  0
    9.6559    0.4592    0.9482 N   0  0  0  0  0  0  0  0  0  0  0  0
    9.4516   -0.9763    1.1281 C   0  0  0  0  0  0  0  0  0  0  0  0
    9.8437   -1.7456   -0.1419 C   0  0  0  0  0  0  0  0  0  0  0  0
   11.1907   -1.3927   -0.5773 N   0  0  0  0  0  0  0  0  0  0  0  0
   12.1732   -2.3488   -0.5423 C   0  0  0  0  0  0  0  0  0  0  0  0
   11.9753   -3.5004   -0.1908 O   0  0  0  0  0  0  0  0  0  0  0  0
   13.5482   -1.9510   -1.0468 C   0  0  0  0  0  0  0  0  0  0  0  0
   13.7363   -1.8004   -2.4278 C   0  0  0  0  0  0  0  0  0  0  0  0
   15.0063   -1.5645   -2.9590 C   0  0  0  0  0  0  0  0  0  0  0  0
   16.1088   -1.4654   -2.1083 C   0  0  0  0  0  0  0  0  0  0  0  0
   15.9347   -1.6045   -0.7300 C   0  0  0  0  0  0  0  0  0  0  0  0
   14.6651   -1.8512   -0.1942 C   0  0  0  0  0  0  0  0  0  0  0  0
   14.5267   -2.0197    1.3043 C   0  0  1  0  0  0  0  0  0  0  0  0
   13.4251   -1.3888    1.7753 F   0  0  0  0  0  0  0  0  0  0  0  0
   14.4317   -3.3030    1.6699 F   0  0  0  0  0  0  0  0  0  0  0  0
   15.5803   -1.4984    1.9594 F   0  0  0  0  0  0  0  0  0  0  0  0
   11.4009    0.0413   -0.7573 C   0  0  0  0  0  0  0  0  0  0  0  0
   11.0059    0.8054    0.5128 C   0  0  0  0  0  0  0  0  0  0  0  0
    7.1548    0.5587    2.7014 C   0  0  0  0  0  0  0  0  0  0  0  0
    5.8905    0.4226    3.2840 C   0  0  0  0  0  0  0  0  0  0  0  0
    1.5051   -0.2040    5.5574 H   0  0  0  0  0  0  0  0  0  0  0  0
    1.2069   -0.3471    3.8017 H   0  0  0  0  0  0  0  0  0  0  0  0
    1.3631    1.2644    4.5496 H   0  0  0  0  0  0  0  0  0  0  0  0
    3.6166   -0.8400    4.3624 H   0  0  0  0  0  0  0  0  0  0  0  0
    3.7727    0.7734    5.1061 H   0  0  0  0  0  0  0  0  0  0  0  0
    4.0118    1.7967    0.7966 H   0  0  0  0  0  0  0  0  0  0  0  0
    6.2916    2.0858   -0.2069 H   0  0  0  0  0  0  0  0  0  0  0  0
    8.4010   -1.1812    1.3619 H   0  0  0  0  0  0  0  0  0  0  0  0
   10.0680   -1.3337    1.9729 H   0  0  0  0  0  0  0  0  0  0  0  0
    9.1300   -1.5012   -0.9500 H   0  0  0  0  0  0  0  0  0  0  0  0
    9.8207   -2.8276    0.0386 H   0  0  0  0  0  0  0  0  0  0  0  0
   12.8727   -1.8787   -3.0930 H   0  0  0  0  0  0  0  0  0  0  0  0
   15.1323   -1.4572   -4.0392 H   0  0  0  0  0  0  0  0  0  0  0  0
   17.1053   -1.2766   -2.5141 H   0  0  0  0  0  0  0  0  0  0  0  0
   16.7897   -1.5161   -0.0585 H   0  0  0  0  0  0  0  0  0  0  0  0
   10.7856    0.3965   -1.6037 H   0  0  0  0  0  0  0  0  0  0  0  0
   12.4525    0.2373   -0.9999 H   0  0  0  0  0  0  0  0  0  0  0  0
   11.0356    1.8861    0.3292 H   0  0  0  0  0  0  0  0  0  0  0  0
   11.7162    0.5482    1.3176 H   0  0  0  0  0  0  0  0  0  0  0  0
    8.0303    0.2333    3.2684 H   0  0  0  0  0  0  0  0  0  0  0  0
    5.8075   -0.0148    4.2787 H   0  0  0  0  0  0  0  0  0  0  0  0
  1  2  1  0
  1 30  1  0
  1 31  1  0
  1 32  1  0
  2  3  1  0
  2 33  1  0
  2 34  1  0
  3  4  1  0
  4  5  2  0
  4 29  1  0
  5  6  1  0
  5 35  1  0
  6  7  2  0
  6 36  1  0
  7  8  1  0
  7 28  1  0
  8  9  2  0
  8 10  1  0
 10 11  1  0
 10 27  1  0
 11 12  1  0
 11 37  1  0
 11 38  1  0
 12 13  1  0
 12 39  1  0
 12 40  1  0
 13 14  1  0
 13 26  1  0
 14 15  2  0
 14 16  1  0
 16 17  2  0
 16 21  1  0
 17 18  1  0
 17 41  1  0
 18 19  2  0
 18 42  1  0
 19 20  1  0
 19 43  1  0
 20 21  2  0
 20 44  1  0
 21 22  1  0
 22 23  1  1
 22 24  1  0
 22 25  1  0
 26 27  1  0
 26 45  1  0
 26 46  1  0
 27 47  1  0
 27 48  1  0
 28 29  2  0
 28 49  1  0
 29 50  1  0
M  END

