
     RDKit          3D

 43 45  0  0  0  0  0  0  0  0999 V2000
    0.9849   -0.2013    0.5746 C   0  0  0  0  0  0  0  0  0  0  0  0
    2.4657    0.0064    0.2560 C   0  0  1  0  0  0  0  0  0  0  0  0
    2.9651    0.2109    1.2239 H   0  0  0  0  0  0  0  0  0  0  0  0
    3.0775   -1.2821   -0.3091 C   0  0  0  0  0  0  0  0  0  0  0  0
    4.4805   -1.0745   -0.5973 N   0  0  0  0  0  0  0  0  0  0  0  0
    5.3163   -2.1072   -0.7551 N   0  0  0  0  0  0  0  0  0  0  0  0
    6.4805   -1.5673   -1.0941 C   0  0  0  0  0  0  0  0  0  0  0  0
    6.3878   -0.1482   -1.1696 C   0  0  0  0  0  0  0  0  0  0  0  0
    7.4171    0.7501   -1.5006 N   0  0  0  0  0  0  0  0  0  0  0  0
    7.1768    2.0992   -2.0110 C   0  0  0  0  0  0  0  0  0  0  0  0
    8.5447    2.5117   -2.6056 C   0  0  2  0  0  0  0  0  0  0  0  0
    8.7191    2.1356   -4.0130 N   0  0  0  0  0  0  0  0  0  0  0  0
    7.9096    3.0253   -5.2072 S   0  0  1  0  0  0  0  0  0  0  0  0
    9.2553    3.7810   -6.1255 C   0  0  0  0  0  0  0  0  0  0  0  0
    7.2540    2.0613   -6.0914 O   0  0  0  0  0  0  0  0  0  0  0  0
    7.1678    4.1032   -4.5449 O   0  0  0  0  0  0  0  0  0  0  0  0
    9.5339    1.7261   -1.7374 C   0  0  0  0  0  0  0  0  0  0  0  0
    8.7635    0.4735   -1.3216 C   0  0  0  0  0  0  0  0  0  0  0  0
    9.2329   -0.5646   -0.9076 O   0  0  0  0  0  0  0  0  0  0  0  0
    5.0619    0.1385   -0.8377 C   0  0  0  0  0  0  0  0  0  0  0  0
    4.2754    1.4000   -0.6130 C   0  0  0  0  0  0  0  0  0  0  0  0
    2.8357    1.1257   -0.6359 N   0  0  0  0  0  0  0  0  0  0  0  0
    2.0500    2.1499   -1.1609 C   0  0  0  0  0  0  0  0  0  0  0  0
    2.5017    3.2196   -1.4852 O   0  0  0  0  0  0  0  0  0  0  0  0
    0.7346    1.8897   -1.3305 O   0  0  0  0  0  0  0  0  0  0  0  0
    0.9079   -0.9686    1.3593 H   0  0  0  0  0  0  0  0  0  0  0  0
    0.4099   -0.5909   -0.2845 H   0  0  0  0  0  0  0  0  0  0  0  0
    0.5031    0.7114    0.9488 H   0  0  0  0  0  0  0  0  0  0  0  0
    2.5414   -1.5786   -1.2293 H   0  0  0  0  0  0  0  0  0  0  0  0
    2.9973   -2.1078    0.4136 H   0  0  0  0  0  0  0  0  0  0  0  0
    7.3616   -2.1813   -1.2565 H   0  0  0  0  0  0  0  0  0  0  0  0
    6.8785    2.7936   -1.2038 H   0  0  0  0  0  0  0  0  0  0  0  0
    6.3847    2.1094   -2.7726 H   0  0  0  0  0  0  0  0  0  0  0  0
    8.6781    3.5981   -2.5387 H   0  0  0  0  0  0  0  0  0  0  0  0
    8.5909    1.1422   -4.2110 H   0  0  0  0  0  0  0  0  0  0  0  0
    9.8788    2.9846   -6.5506 H   0  0  0  0  0  0  0  0  0  0  0  0
    9.8317    4.4236   -5.4482 H   0  0  0  0  0  0  0  0  0  0  0  0
    8.7881    4.3770   -6.9215 H   0  0  0  0  0  0  0  0  0  0  0  0
    9.7936    2.2886   -0.8245 H   0  0  0  0  0  0  0  0  0  0  0  0
   10.4693    1.4669   -2.2508 H   0  0  0  0  0  0  0  0  0  0  0  0
    4.4825    2.1560   -1.3774 H   0  0  0  0  0  0  0  0  0  0  0  0
    4.5570    1.8551    0.3596 H   0  0  0  0  0  0  0  0  0  0  0  0
    0.5429    0.9487   -1.2364 H   0  0  0  0  0  0  0  0  0  0  0  0
  1  2  1  0
  1 26  1  0
  1 27  1  0
  1 28  1  0
  2  3  1  1
  2  4  1  0
  2 22  1  0
  4  5  1  0
  4 29  1  0
  4 30  1  0
  5  6  1  0
  5 20  1  0
  6  7  2  0
  7  8  1  0
  7 31  1  0
  8  9  1  0
  8 20  2  0
  9 10  1  0
  9 18  1  0
 10 11  1  0
 10 32  1  0
 10 33  1  0
 11 12  1  0
 11 17  1  0
 11 34  1  6
 13 12  1  1
 12 35  1  0
 13 14  1  0
 13 15  2  0
 13 16  2  0
 14 36  1  0
 14 37  1  0
 14 38  1  0
 17 18  1  0
 17 39  1  0
 17 40  1  0
 18 19  2  0
 20 21  1  0
 21 22  1  0
 21 41  1  0
 21 42  1  0
 22 23  1  0
 23 24  2  0
 23 25  1  0
 25 43  1  0
M  END

