
     RDKit          3D

 31 33  0  0  0  0  0  0  0  0999 V2000
    1.7087   -0.0757    1.6318 C   0  0  0  0  0  0  0  0  0  0  0  0
    2.7613    0.0657    0.5613 C   0  0  0  0  0  0  0  0  0  0  0  0
    3.4665    1.2683    0.4045 C   0  0  0  0  0  0  0  0  0  0  0  0
    4.4644    1.4162   -0.5619 C   0  0  0  0  0  0  0  0  0  0  0  0
    5.4089    3.0476   -0.7428 Br  0  0  0  0  0  0  0  0  0  0  0  0
    4.7723    0.3398   -1.4002 C   0  0  0  0  0  0  0  0  0  0  0  0
    5.7222    0.4569   -2.3267 F   0  0  0  0  0  0  0  0  0  0  0  0
    4.0825   -0.8616   -1.2800 C   0  0  0  0  0  0  0  0  0  0  0  0
    3.0826   -1.0003   -0.3081 C   0  0  0  0  0  0  0  0  0  0  0  0
    2.3988   -2.2457   -0.2046 N   0  0  0  0  0  0  0  0  0  0  0  0
    2.9183   -3.4481    0.2708 C   0  0  0  0  0  0  0  0  0  0  0  0
    4.2149   -3.5486    0.6756 N   0  0  0  0  0  0  0  0  0  0  0  0
    2.0615   -4.4403    0.2407 N   0  0  0  0  0  0  0  0  0  0  0  0
    0.9112   -3.9065   -0.2896 C   0  0  0  0  0  0  0  0  0  0  0  0
   -0.3307   -4.5167   -0.5635 C   0  0  0  0  0  0  0  0  0  0  0  0
   -0.5493   -5.9044   -0.2802 C   0  0  0  0  0  0  0  0  0  0  0  0
   -0.7534   -7.0260   -0.0581 N   0  0  0  0  0  0  0  0  0  0  0  0
   -1.3512   -3.7237   -1.1272 C   0  0  0  0  0  0  0  0  0  0  0  0
   -1.1469   -2.3696   -1.4155 C   0  0  0  0  0  0  0  0  0  0  0  0
    0.0809   -1.7444   -1.1495 C   0  0  0  0  0  0  0  0  0  0  0  0
    1.0808   -2.5277   -0.5837 C   0  0  0  0  0  0  0  0  0  0  0  0
    1.7457    0.7696    2.3330 H   0  0  0  0  0  0  0  0  0  0  0  0
    1.8413   -1.0065    2.2048 H   0  0  0  0  0  0  0  0  0  0  0  0
    0.6946   -0.1150    1.2020 H   0  0  0  0  0  0  0  0  0  0  0  0
    3.2428    2.1119    1.0602 H   0  0  0  0  0  0  0  0  0  0  0  0
    4.3257   -1.6859   -1.9522 H   0  0  0  0  0  0  0  0  0  0  0  0
    4.7066   -2.7160    0.9748 H   0  0  0  0  0  0  0  0  0  0  0  0
    4.4516   -4.4125    1.1489 H   0  0  0  0  0  0  0  0  0  0  0  0
   -2.3158   -4.1859   -1.3437 H   0  0  0  0  0  0  0  0  0  0  0  0
   -1.9585   -1.7897   -1.8600 H   0  0  0  0  0  0  0  0  0  0  0  0
    0.2415   -0.6907   -1.3872 H   0  0  0  0  0  0  0  0  0  0  0  0
  1  2  1  0
  1 22  1  0
  1 23  1  0
  1 24  1  0
  2  3  2  0
  2  9  1  0
  3  4  1  0
  3 25  1  0
  4  5  1  0
  4  6  2  0
  6  7  1  0
  6  8  1  0
  8  9  2  0
  8 26  1  0
  9 10  1  0
 10 11  1  0
 10 21  1  0
 11 12  1  0
 11 13  2  0
 12 27  1  0
 12 28  1  0
 13 14  1  0
 14 15  1  0
 14 21  2  0
 15 16  1  0
 15 18  2  0
 16 17  3  0
 18 19  1  0
 18 29  1  0
 19 20  2  0
 19 30  1  0
 20 21  1  0
 20 31  1  0
M  END

