
     RDKit          3D

 29 30  0  0  0  0  0  0  0  0999 V2000
    2.6744    0.8870    1.5803 C   0  0  0  0  0  0  0  0  0  0  0  0
    2.4404    0.1939    0.2258 C   0  0  1  0  0  0  0  0  0  0  0  0
    2.7849   -1.3012    0.3395 C   0  0  0  0  0  0  0  0  0  0  0  0
    0.9629    0.3556   -0.1807 C   0  0  0  0  0  0  0  0  0  0  0  0
    3.2759    0.8733   -0.8956 C   0  0  0  0  0  0  0  0  0  0  0  0
    4.7220    0.6835   -0.8220 N   0  0  0  0  0  0  0  0  0  0  0  0
    5.4279    1.4121    0.0812 N   0  0  0  0  0  0  0  0  0  0  0  0
    6.6718    1.1031    0.0280 N   0  0  0  0  0  0  0  0  0  0  0  0
    6.8431    0.1418   -0.9372 C   0  0  0  0  0  0  0  0  0  0  0  0
    8.0200   -0.4973   -1.3617 C   0  0  0  0  0  0  0  0  0  0  0  0
    7.9070   -1.4285   -2.3809 C   0  0  0  0  0  0  0  0  0  0  0  0
    6.6548   -1.7132   -2.9754 C   0  0  0  0  0  0  0  0  0  0  0  0
    5.4876   -1.0829   -2.5613 C   0  0  0  0  0  0  0  0  0  0  0  0
    3.8593   -1.5102   -3.4674 Br  0  0  0  0  0  0  0  0  0  0  0  0
    5.5752   -0.1432   -1.5117 C   0  0  0  0  0  0  0  0  0  0  0  0
    2.0543    0.4162    2.3605 H   0  0  0  0  0  0  0  0  0  0  0  0
    2.4053    1.9549    1.5333 H   0  0  0  0  0  0  0  0  0  0  0  0
    3.7265    0.8279    1.8932 H   0  0  0  0  0  0  0  0  0  0  0  0
    2.1433   -1.7825    1.0950 H   0  0  0  0  0  0  0  0  0  0  0  0
    3.8304   -1.4530    0.6516 H   0  0  0  0  0  0  0  0  0  0  0  0
    2.6345   -1.8284   -0.6157 H   0  0  0  0  0  0  0  0  0  0  0  0
    0.3013   -0.0649    0.5930 H   0  0  0  0  0  0  0  0  0  0  0  0
    0.7443   -0.1641   -1.1282 H   0  0  0  0  0  0  0  0  0  0  0  0
    0.6936    1.4176   -0.3065 H   0  0  0  0  0  0  0  0  0  0  0  0
    3.1003    1.9595   -0.8751 H   0  0  0  0  0  0  0  0  0  0  0  0
    2.9551    0.4998   -1.8756 H   0  0  0  0  0  0  0  0  0  0  0  0
    8.9750   -0.2525   -0.8944 H   0  0  0  0  0  0  0  0  0  0  0  0
    8.7915   -1.9541   -2.7478 H   0  0  0  0  0  0  0  0  0  0  0  0
    6.5985   -2.4419   -3.7860 H   0  0  0  0  0  0  0  0  0  0  0  0
  2  1  1  1
  1 16  1  0
  1 17  1  0
  1 18  1  0
  2  3  1  0
  2  4  1  0
  2  5  1  0
  3 19  1  0
  3 20  1  0
  3 21  1  0
  4 22  1  0
  4 23  1  0
  4 24  1  0
  5  6  1  0
  5 25  1  0
  5 26  1  0
  6  7  1  0
  6 15  1  0
  7  8  2  0
  8  9  1  0
  9 10  1  0
  9 15  2  0
 10 11  2  0
 10 27  1  0
 11 12  1  0
 11 28  1  0
 12 13  2  0
 12 29  1  0
 13 14  1  0
 13 15  1  0
M  END

