
     RDKit          3D

107112  0  0  0  0  0  0  0  0999 V2000
    7.6798    2.2629    1.9515 C   0  0  0  0  0  0  0  0  0  0  0  0
    6.5382    1.9226    1.3366 C   0  0  0  0  0  0  0  0  0  0  0  0
    5.5420    2.9907    0.9423 C   0  0  0  0  0  0  0  0  0  0  0  0
    6.0863    0.5174    0.9626 C   0  0  2  0  0  0  0  0  0  0  0  0
    4.8983    0.0239    1.8754 C   0  0  0  0  0  0  0  0  0  0  0  0
    5.2768   -1.3786    2.4158 C   0  0  0  0  0  0  0  0  0  0  0  0
    6.8151   -1.4734    2.3053 C   0  0  1  0  0  0  0  0  0  0  0  0
    7.5157   -0.8938    3.5568 C   0  0  0  0  0  0  0  0  0  0  0  0
    6.7447    0.1311    4.1970 O   0  0  0  0  0  0  0  0  0  0  0  0
    7.4056    0.9750    5.0226 C   0  0  0  0  0  0  0  0  0  0  0  0
    8.6098    0.9580    5.1657 O   0  0  0  0  0  0  0  0  0  0  0  0
    6.5211    1.9142    5.7406 C   0  0  0  0  0  0  0  0  0  0  0  0
    5.1729    1.8655    5.7303 C   0  0  0  0  0  0  0  0  0  0  0  0
    4.2427    2.7452    6.4428 C   0  0  0  0  0  0  0  0  0  0  0  0
    4.6792    3.8141    7.2484 C   0  0  0  0  0  0  0  0  0  0  0  0
    3.7498    4.6269    7.9057 C   0  0  0  0  0  0  0  0  0  0  0  0
    4.0719    5.6845    8.6873 O   0  0  0  0  0  0  0  0  0  0  0  0
    5.4305    5.9949    8.8995 C   0  0  0  0  0  0  0  0  0  0  0  0
    2.3643    4.3680    7.7847 C   0  0  0  0  0  0  0  0  0  0  0  0
    1.4766    5.1197    8.4869 O   0  0  0  0  0  0  0  0  0  0  0  0
    0.8206    6.1552    7.7710 C   0  0  0  0  0  0  0  0  0  0  0  0
    1.9277    3.3069    6.9659 C   0  0  0  0  0  0  0  0  0  0  0  0
    0.5827    3.1458    6.8887 O   0  0  0  0  0  0  0  0  0  0  0  0
    0.0587    2.0765    6.1341 C   0  0  0  0  0  0  0  0  0  0  0  0
    2.8640    2.4996    6.3060 C   0  0  0  0  0  0  0  0  0  0  0  0
    7.3634   -2.9020    2.1086 C   0  0  0  0  0  0  0  0  0  0  0  0
    8.8469   -2.8954    1.6906 C   0  0  0  0  0  0  0  0  0  0  0  0
    9.1472   -2.0844    0.3929 C   0  0  1  0  0  0  0  0  0  0  0  0
    8.4920   -2.8786   -0.7689 C   0  0  0  0  0  0  0  0  0  0  0  0
    8.5144   -0.6452    0.5161 C   0  0  1  0  0  0  0  0  0  0  0  0
    8.7311    0.1535   -0.7761 C   0  0  0  0  0  0  0  0  0  0  0  0
   10.2171    0.2618   -1.1452 C   0  0  0  0  0  0  0  0  0  0  0  0
   10.9361   -1.1005   -1.1918 C   0  0  1  0  0  0  0  0  0  0  0  0
   12.4075   -1.0391   -1.7655 C   0  0  2  0  0  0  0  0  0  0  0  0
   13.3369   -0.1122   -0.9449 C   0  0  0  0  0  0  0  0  0  0  0  0
   12.3453   -0.4937   -3.2229 C   0  0  0  0  0  0  0  0  0  0  0  0
   13.6448   -0.6900   -4.0159 C   0  0  0  0  0  0  0  0  0  0  0  0
   14.1011   -2.1530   -4.0586 C   0  0  2  0  0  0  0  0  0  0  0  0
   13.1691   -2.9635   -4.7700 O   0  0  0  0  0  0  0  0  0  0  0  0
   14.2241   -2.7536   -2.6470 C   0  0  1  0  0  0  0  0  0  0  0  0
   15.5365   -2.3499   -1.9596 C   0  0  0  0  0  0  0  0  0  0  0  0
   12.9068   -2.5185   -1.8617 C   0  0  1  0  0  0  0  0  0  0  0  0
   12.8562   -3.2339   -0.5095 C   0  0  0  0  0  0  0  0  0  0  0  0
   11.4215   -3.2895    0.0286 C   0  0  0  0  0  0  0  0  0  0  0  0
   10.7327   -1.9038    0.1522 C   0  0  2  0  0  0  0  0  0  0  0  0
   11.3845   -1.1719    1.3539 C   0  0  0  0  0  0  0  0  0  0  0  0
    7.0453   -0.7135    0.9662 C   0  0  2  0  0  0  0  0  0  0  0  0
    7.8974    3.3107    2.1801 H   0  0  0  0  0  0  0  0  0  0  0  0
    8.4332    1.5402    2.2614 H   0  0  0  0  0  0  0  0  0  0  0  0
    5.8673    3.9922    1.2592 H   0  0  0  0  0  0  0  0  0  0  0  0
    4.5498    2.7987    1.3861 H   0  0  0  0  0  0  0  0  0  0  0  0
    5.3948    3.0061   -0.1525 H   0  0  0  0  0  0  0  0  0  0  0  0
    5.7039    0.6172   -0.0682 H   0  0  0  0  0  0  0  0  0  0  0  0
    3.9481   -0.0071    1.3198 H   0  0  0  0  0  0  0  0  0  0  0  0
    4.7625    0.7244    2.7098 H   0  0  0  0  0  0  0  0  0  0  0  0
    4.8351   -2.1636    1.7801 H   0  0  0  0  0  0  0  0  0  0  0  0
    4.9052   -1.5446    3.4386 H   0  0  0  0  0  0  0  0  0  0  0  0
    8.5164   -0.4993    3.3398 H   0  0  0  0  0  0  0  0  0  0  0  0
    7.6508   -1.7026    4.2963 H   0  0  0  0  0  0  0  0  0  0  0  0
    7.0748    2.6492    6.3289 H   0  0  0  0  0  0  0  0  0  0  0  0
    4.7073    1.0788    5.1293 H   0  0  0  0  0  0  0  0  0  0  0  0
    5.7446    4.0108    7.3491 H   0  0  0  0  0  0  0  0  0  0  0  0
    5.4503    6.8678    9.5656 H   0  0  0  0  0  0  0  0  0  0  0  0
    5.9476    6.2524    7.9573 H   0  0  0  0  0  0  0  0  0  0  0  0
    5.9712    5.1626    9.3849 H   0  0  0  0  0  0  0  0  0  0  0  0
    0.1630    6.6692    8.4862 H   0  0  0  0  0  0  0  0  0  0  0  0
    0.2089    5.7513    6.9464 H   0  0  0  0  0  0  0  0  0  0  0  0
    1.5458    6.8832    7.3658 H   0  0  0  0  0  0  0  0  0  0  0  0
   -1.0338    2.1314    6.2320 H   0  0  0  0  0  0  0  0  0  0  0  0
    0.4027    1.0982    6.5152 H   0  0  0  0  0  0  0  0  0  0  0  0
    0.3259    2.1551    5.0646 H   0  0  0  0  0  0  0  0  0  0  0  0
    2.5366    1.6715    5.6779 H   0  0  0  0  0  0  0  0  0  0  0  0
    6.7552   -3.4118    1.3442 H   0  0  0  0  0  0  0  0  0  0  0  0
    7.2472   -3.4941    3.0330 H   0  0  0  0  0  0  0  0  0  0  0  0
    9.1784   -3.9371    1.5543 H   0  0  0  0  0  0  0  0  0  0  0  0
    9.4374   -2.5052    2.5316 H   0  0  0  0  0  0  0  0  0  0  0  0
    7.3980   -2.8998   -0.6752 H   0  0  0  0  0  0  0  0  0  0  0  0
    8.8203   -3.9279   -0.7650 H   0  0  0  0  0  0  0  0  0  0  0  0
    8.7075   -2.4740   -1.7646 H   0  0  0  0  0  0  0  0  0  0  0  0
    9.0808   -0.1298    1.3039 H   0  0  0  0  0  0  0  0  0  0  0  0
    8.3176    1.1664   -0.6570 H   0  0  0  0  0  0  0  0  0  0  0  0
    8.1692   -0.3128   -1.6043 H   0  0  0  0  0  0  0  0  0  0  0  0
   10.7074    0.9327   -0.4206 H   0  0  0  0  0  0  0  0  0  0  0  0
   10.3025    0.7647   -2.1205 H   0  0  0  0  0  0  0  0  0  0  0  0
   10.4126   -1.6898   -1.9599 H   0  0  0  0  0  0  0  0  0  0  0  0
   12.8028    0.7910   -0.6158 H   0  0  0  0  0  0  0  0  0  0  0  0
   14.1926    0.2331   -1.5409 H   0  0  0  0  0  0  0  0  0  0  0  0
   13.7512   -0.5913   -0.0494 H   0  0  0  0  0  0  0  0  0  0  0  0
   12.0887    0.5776   -3.2230 H   0  0  0  0  0  0  0  0  0  0  0  0
   11.5327   -1.0142   -3.7573 H   0  0  0  0  0  0  0  0  0  0  0  0
   14.4582   -0.0752   -3.5961 H   0  0  0  0  0  0  0  0  0  0  0  0
   13.5077   -0.3216   -5.0496 H   0  0  0  0  0  0  0  0  0  0  0  0
   15.0924   -2.2070   -4.5541 H   0  0  0  0  0  0  0  0  0  0  0  0
   13.0195   -2.5634   -5.6363 H   0  0  0  0  0  0  0  0  0  0  0  0
   14.2788   -3.8453   -2.8054 H   0  0  0  0  0  0  0  0  0  0  0  0
   15.6048   -2.7744   -0.9465 H   0  0  0  0  0  0  0  0  0  0  0  0
   15.6656   -1.2622   -1.8680 H   0  0  0  0  0  0  0  0  0  0  0  0
   16.3974   -2.7339   -2.5313 H   0  0  0  0  0  0  0  0  0  0  0  0
   12.1490   -3.0168   -2.4917 H   0  0  0  0  0  0  0  0  0  0  0  0
   13.5294   -2.7532    0.2194 H   0  0  0  0  0  0  0  0  0  0  0  0
   13.2336   -4.2649   -0.6264 H   0  0  0  0  0  0  0  0  0  0  0  0
   11.4141   -3.7941    1.0089 H   0  0  0  0  0  0  0  0  0  0  0  0
   10.8436   -3.9309   -0.6542 H   0  0  0  0  0  0  0  0  0  0  0  0
   12.4741   -1.2866    1.3425 H   0  0  0  0  0  0  0  0  0  0  0  0
   11.0482   -1.5874    2.3133 H   0  0  0  0  0  0  0  0  0  0  0  0
   11.1831   -0.0934    1.3776 H   0  0  0  0  0  0  0  0  0  0  0  0
    6.5486   -1.3703    0.2321 H   0  0  0  0  0  0  0  0  0  0  0  0
  1  2  2  0
  1 48  1  0
  1 49  1  0
  2  3  1  0
  2  4  1  0
  3 50  1  0
  3 51  1  0
  3 52  1  0
  4  5  1  0
  4 47  1  0
  4 53  1  6
  5  6  1  0
  5 54  1  0
  5 55  1  0
  6  7  1  0
  6 56  1  0
  6 57  1  0
  7  8  1  1
  7 26  1  0
  7 47  1  0
  8  9  1  0
  8 58  1  0
  8 59  1  0
  9 10  1  0
 10 11  2  0
 10 12  1  0
 12 13  2  0
 12 60  1  0
 13 14  1  0
 13 61  1  0
 14 15  2  0
 14 25  1  0
 15 16  1  0
 15 62  1  0
 16 17  1  0
 16 19  2  0
 17 18  1  0
 18 63  1  0
 18 64  1  0
 18 65  1  0
 19 20  1  0
 19 22  1  0
 20 21  1  0
 21 66  1  0
 21 67  1  0
 21 68  1  0
 22 23  1  0
 22 25  2  0
 23 24  1  0
 24 69  1  0
 24 70  1  0
 24 71  1  0
 25 72  1  0
 26 27  1  0
 26 73  1  0
 26 74  1  0
 27 28  1  0
 27 75  1  0
 27 76  1  0
 28 29  1  6
 28 30  1  0
 28 45  1  0
 29 77  1  0
 29 78  1  0
 29 79  1  0
 30 31  1  0
 30 47  1  0
 30 80  1  1
 31 32  1  0
 31 81  1  0
 31 82  1  0
 32 33  1  0
 32 83  1  0
 32 84  1  0
 33 34  1  0
 33 45  1  0
 33 85  1  6
 34 35  1  1
 34 36  1  0
 34 42  1  0
 35 86  1  0
 35 87  1  0
 35 88  1  0
 36 37  1  0
 36 89  1  0
 36 90  1  0
 37 38  1  0
 37 91  1  0
 37 92  1  0
 38 39  1  0
 38 40  1  0
 38 93  1  6
 39 94  1  0
 40 41  1  0
 40 42  1  0
 40 95  1  6
 41 96  1  0
 41 97  1  0
 41 98  1  0
 42 43  1  0
 42 99  1  6
 43 44  1  0
 43100  1  0
 43101  1  0
 44 45  1  0
 44102  1  0
 44103  1  0
 45 46  1  1
 46104  1  0
 46105  1  0
 46106  1  0
 47107  1  6
M  END

