
     RDKit          3D

 48 49  0  0  0  0  0  0  0  0999 V2000
    1.8317    3.0285   -4.3858 C   0  0  0  0  0  0  0  0  0  0  0  0
    1.6100    2.0972   -3.1840 C   0  0  0  0  0  0  0  0  0  0  0  0
    2.7085    1.0711   -3.0040 C   0  0  0  0  0  0  0  0  0  0  0  0
    3.7984    1.3058   -2.1602 C   0  0  0  0  0  0  0  0  0  0  0  0
    4.8290    0.3693   -2.0202 C   0  0  0  0  0  0  0  0  0  0  0  0
    4.7812   -0.8337   -2.7335 C   0  0  0  0  0  0  0  0  0  0  0  0
    5.7368   -1.8074   -2.6496 O   0  0  0  0  0  0  0  0  0  0  0  0
    6.8692   -1.5952   -1.8354 C   0  0  0  0  0  0  0  0  0  0  0  0
    3.6967   -1.1017   -3.6001 C   0  0  0  0  0  0  0  0  0  0  0  0
    3.6370   -2.3979   -4.3723 C   0  0  0  0  0  0  0  0  0  0  0  0
    3.2189   -3.6424   -3.5219 C   0  0  1  0  0  0  0  0  0  0  0  0
    1.9147   -3.4536   -2.8676 C   0  0  0  0  0  0  0  0  0  0  0  0
    0.8978   -3.2966   -2.3336 N   0  0  0  0  0  0  0  0  0  0  0  0
    3.3242   -4.9557   -4.3073 C   0  0  0  0  0  0  0  0  0  0  0  0
    4.4657   -5.7679   -4.1083 C   0  0  0  0  0  0  0  0  0  0  0  0
    5.5459   -5.4100   -3.1095 C   0  0  0  0  0  0  0  0  0  0  0  0
    4.6085   -6.9495   -4.8501 C   0  0  0  0  0  0  0  0  0  0  0  0
    3.6557   -7.3584   -5.7866 C   0  0  0  0  0  0  0  0  0  0  0  0
    3.8195   -8.6334   -6.5778 C   0  0  0  0  0  0  0  0  0  0  0  0
    2.5355   -6.5403   -5.9695 C   0  0  0  0  0  0  0  0  0  0  0  0
    2.3458   -5.3502   -5.2540 C   0  0  0  0  0  0  0  0  0  0  0  0
    1.0793   -4.5642   -5.5173 C   0  0  0  0  0  0  0  0  0  0  0  0
    2.6868   -0.1427   -3.7114 C   0  0  0  0  0  0  0  0  0  0  0  0
    1.0090    3.7558   -4.4821 H   0  0  0  0  0  0  0  0  0  0  0  0
    1.8898    2.4577   -5.3267 H   0  0  0  0  0  0  0  0  0  0  0  0
    2.7731    3.5921   -4.2836 H   0  0  0  0  0  0  0  0  0  0  0  0
    0.6432    1.5785   -3.3001 H   0  0  0  0  0  0  0  0  0  0  0  0
    1.5249    2.7027   -2.2661 H   0  0  0  0  0  0  0  0  0  0  0  0
    3.8503    2.2374   -1.5888 H   0  0  0  0  0  0  0  0  0  0  0  0
    5.6586    0.5875   -1.3477 H   0  0  0  0  0  0  0  0  0  0  0  0
    7.4994   -2.4893   -1.9347 H   0  0  0  0  0  0  0  0  0  0  0  0
    6.5939   -1.4684   -0.7732 H   0  0  0  0  0  0  0  0  0  0  0  0
    7.4470   -0.7118   -2.1608 H   0  0  0  0  0  0  0  0  0  0  0  0
    4.6275   -2.6327   -4.7890 H   0  0  0  0  0  0  0  0  0  0  0  0
    2.9472   -2.2875   -5.2205 H   0  0  0  0  0  0  0  0  0  0  0  0
    3.9353   -3.6863   -2.6905 H   0  0  0  0  0  0  0  0  0  0  0  0
    5.9550   -4.4012   -3.2758 H   0  0  0  0  0  0  0  0  0  0  0  0
    6.3786   -6.1254   -3.1688 H   0  0  0  0  0  0  0  0  0  0  0  0
    5.1676   -5.4350   -2.0728 H   0  0  0  0  0  0  0  0  0  0  0  0
    5.4962   -7.5677   -4.6871 H   0  0  0  0  0  0  0  0  0  0  0  0
    4.7589   -9.1481   -6.3277 H   0  0  0  0  0  0  0  0  0  0  0  0
    3.8222   -8.4345   -7.6626 H   0  0  0  0  0  0  0  0  0  0  0  0
    2.9900   -9.3339   -6.3833 H   0  0  0  0  0  0  0  0  0  0  0  0
    1.7745   -6.8358   -6.6986 H   0  0  0  0  0  0  0  0  0  0  0  0
    0.5989   -4.9125   -6.4431 H   0  0  0  0  0  0  0  0  0  0  0  0
    1.2573   -3.4845   -5.6233 H   0  0  0  0  0  0  0  0  0  0  0  0
    0.3529   -4.6797   -4.6973 H   0  0  0  0  0  0  0  0  0  0  0  0
    1.8425   -0.3548   -4.3748 H   0  0  0  0  0  0  0  0  0  0  0  0
  1  2  1  0
  1 24  1  0
  1 25  1  0
  1 26  1  0
  2  3  1  0
  2 27  1  0
  2 28  1  0
  3  4  2  0
  3 23  1  0
  4  5  1  0
  4 29  1  0
  5  6  2  0
  5 30  1  0
  6  7  1  0
  6  9  1  0
  7  8  1  0
  8 31  1  0
  8 32  1  0
  8 33  1  0
  9 10  1  0
  9 23  2  0
 10 11  1  0
 10 34  1  0
 10 35  1  0
 11 12  1  0
 11 14  1  0
 11 36  1  1
 12 13  3  0
 14 15  2  0
 14 21  1  0
 15 16  1  0
 15 17  1  0
 16 37  1  0
 16 38  1  0
 16 39  1  0
 17 18  2  0
 17 40  1  0
 18 19  1  0
 18 20  1  0
 19 41  1  0
 19 42  1  0
 19 43  1  0
 20 21  2  0
 20 44  1  0
 21 22  1  0
 22 45  1  0
 22 46  1  0
 22 47  1  0
 23 48  1  0
M  END

