
     RDKit          3D

 34 35  0  0  0  0  0  0  0  0999 V2000
    0.9304   -0.7406    0.5554 C   0  0  0  0  0  0  0  0  0  0  0  0
    2.3698   -1.0153    0.1499 C   0  0  0  0  0  0  0  0  0  0  0  0
    2.6465   -1.6548   -0.8470 O   0  0  0  0  0  0  0  0  0  0  0  0
    3.3192   -0.4874    1.0031 N   0  0  0  0  0  0  0  0  0  0  0  0
    4.7245   -0.5886    0.9237 C   0  0  0  0  0  0  0  0  0  0  0  0
    5.4123   -1.2845   -0.0096 C   0  0  0  0  0  0  0  0  0  0  0  0
    6.8821   -1.3858    0.0016 C   0  0  0  0  0  0  0  0  0  0  0  0
    7.5979   -1.3176   -1.2077 C   0  0  0  0  0  0  0  0  0  0  0  0
    8.9909   -1.3988   -1.2260 C   0  0  0  0  0  0  0  0  0  0  0  0
    9.6911   -1.5677   -0.0285 C   0  0  0  0  0  0  0  0  0  0  0  0
    8.9891   -1.6743    1.1757 C   0  0  0  0  0  0  0  0  0  0  0  0
    7.5913   -1.5964    1.2127 C   0  0  0  0  0  0  0  0  0  0  0  0
    6.8261   -1.8182    2.4996 C   0  0  0  0  0  0  0  0  0  0  0  0
    6.0758   -0.5851    3.0242 C   0  0  0  0  0  0  0  0  0  0  0  0
    5.3830    0.1467    1.9542 N   0  0  0  0  0  0  0  0  0  0  0  0
    5.6127    1.5213    1.8416 C   0  0  0  0  0  0  0  0  0  0  0  0
    5.0879    2.2010    0.5892 C   0  0  0  0  0  0  0  0  0  0  0  0
    6.2107    2.1355    2.7040 O   0  0  0  0  0  0  0  0  0  0  0  0
    0.4101   -0.2767   -0.2958 H   0  0  0  0  0  0  0  0  0  0  0  0
    0.8249   -0.0946    1.4391 H   0  0  0  0  0  0  0  0  0  0  0  0
    0.4314   -1.7020    0.7525 H   0  0  0  0  0  0  0  0  0  0  0  0
    2.9885    0.0177    1.8163 H   0  0  0  0  0  0  0  0  0  0  0  0
    4.8462   -1.7732   -0.8029 H   0  0  0  0  0  0  0  0  0  0  0  0
    7.0462   -1.1876   -2.1428 H   0  0  0  0  0  0  0  0  0  0  0  0
    9.5293   -1.3318   -2.1748 H   0  0  0  0  0  0  0  0  0  0  0  0
   10.7822   -1.6312   -0.0316 H   0  0  0  0  0  0  0  0  0  0  0  0
    9.5379   -1.8379    2.1078 H   0  0  0  0  0  0  0  0  0  0  0  0
    7.5090   -2.1621    3.2925 H   0  0  0  0  0  0  0  0  0  0  0  0
    6.1030   -2.6359    2.3343 H   0  0  0  0  0  0  0  0  0  0  0  0
    6.7641    0.1413    3.4760 H   0  0  0  0  0  0  0  0  0  0  0  0
    5.3623   -0.8932    3.8105 H   0  0  0  0  0  0  0  0  0  0  0  0
    5.5768    1.7881   -0.3063 H   0  0  0  0  0  0  0  0  0  0  0  0
    5.3102    3.2715    0.6710 H   0  0  0  0  0  0  0  0  0  0  0  0
    4.0048    2.0583    0.4614 H   0  0  0  0  0  0  0  0  0  0  0  0
  1  2  1  0
  1 19  1  0
  1 20  1  0
  1 21  1  0
  2  3  2  0
  2  4  1  0
  4  5  1  0
  4 22  1  0
  5  6  2  0
  5 15  1  0
  6  7  1  0
  6 23  1  0
  7  8  2  0
  7 12  1  0
  8  9  1  0
  8 24  1  0
  9 10  2  0
  9 25  1  0
 10 11  1  0
 10 26  1  0
 11 12  2  0
 11 27  1  0
 12 13  1  0
 13 14  1  0
 13 28  1  0
 13 29  1  0
 14 15  1  0
 14 30  1  0
 14 31  1  0
 15 16  1  0
 16 17  1  0
 16 18  2  0
 17 32  1  0
 17 33  1  0
 17 34  1  0
M  END

