
     RDKit          3D

 87 88  0  0  0  0  0  0  0  0999 V2000
   -0.0698    2.1343   -1.2844 C   0  0  0  0  0  0  0  0  0  0  0  0
    1.3845    1.7206   -1.0452 C   0  0  0  0  0  0  0  0  0  0  0  0
    1.7168    0.2607   -1.4213 C   0  0  1  0  0  0  0  0  0  0  0  0
    1.5600    0.0150   -2.9268 C   0  0  0  0  0  0  0  0  0  0  0  0
    3.1379   -0.1184   -0.9144 C   0  0  1  0  0  0  0  0  0  0  0  0
    3.8513    0.5842   -1.3768 H   0  0  0  0  0  0  0  0  0  0  0  0
    3.2189    0.0630    0.6127 C   0  0  0  0  0  0  0  0  0  0  0  0
    2.4387   -0.5155    1.3730 O   0  0  0  0  0  0  0  0  0  0  0  0
    4.1999    0.8771    1.0740 N   0  0  0  0  0  0  0  0  0  0  0  0
    4.5201    1.0557    2.4891 C   0  0  1  0  0  0  0  0  0  0  0  0
    4.3297    0.0832    2.9743 H   0  0  0  0  0  0  0  0  0  0  0  0
    6.0131    1.4108    2.6716 C   0  0  0  0  0  0  0  0  0  0  0  0
    6.5839    2.4225    1.6934 C   0  0  0  0  0  0  0  0  0  0  0  0
    7.4011    2.0009    0.6272 C   0  0  0  0  0  0  0  0  0  0  0  0
    7.9334    2.9071   -0.2885 C   0  0  0  0  0  0  0  0  0  0  0  0
    7.6642    4.2784   -0.1602 C   0  0  0  0  0  0  0  0  0  0  0  0
    8.2209    5.0861   -1.1069 O   0  0  0  0  0  0  0  0  0  0  0  0
    7.9266    6.4714   -1.1283 C   0  0  0  0  0  0  0  0  0  0  0  0
    8.6954    7.2933   -0.1104 C   0  0  0  0  0  0  0  0  0  0  0  0
    9.9744    6.9022    0.3100 C   0  0  0  0  0  0  0  0  0  0  0  0
   10.6972    7.6934    1.2066 C   0  0  0  0  0  0  0  0  0  0  0  0
   10.1541    8.8884    1.6890 C   0  0  0  0  0  0  0  0  0  0  0  0
    8.8800    9.2856    1.2734 C   0  0  0  0  0  0  0  0  0  0  0  0
    8.1545    8.4894    0.3824 C   0  0  0  0  0  0  0  0  0  0  0  0
    6.8611    4.7209    0.9019 C   0  0  0  0  0  0  0  0  0  0  0  0
    6.3290    3.7984    1.8083 C   0  0  0  0  0  0  0  0  0  0  0  0
    3.5781    2.0681    3.2108 C   0  0  0  0  0  0  0  0  0  0  0  0
    4.0181    3.0488    3.8012 O   0  0  0  0  0  0  0  0  0  0  0  0
    2.2691    1.7256    3.1566 N   0  0  0  0  0  0  0  0  0  0  0  0
    1.1573    2.4610    3.7988 C   0  0  1  0  0  0  0  0  0  0  0  0
    1.0792    3.8964    3.2468 C   0  0  0  0  0  0  0  0  0  0  0  0
   -0.1285    1.6968    3.4480 C   0  0  0  0  0  0  0  0  0  0  0  0
    1.3520    2.4853    5.3272 C   0  0  0  0  0  0  0  0  0  0  0  0
    3.6188   -1.4655   -1.2265 N   0  0  0  0  0  0  0  0  0  0  0  0
    2.7219   -2.5768   -0.9667 C   0  0  0  0  0  0  0  0  0  0  0  0
    4.5190   -1.5994   -2.3687 C   0  0  0  0  0  0  0  0  0  0  0  0
    5.9848   -1.2139   -2.0996 C   0  0  0  0  0  0  0  0  0  0  0  0
    6.8607   -2.1932   -1.2847 C   0  0  1  0  0  0  0  0  0  0  0  0
    6.4012   -2.3895    0.1667 C   0  0  0  0  0  0  0  0  0  0  0  0
    7.0446   -3.5435   -1.9925 C   0  0  0  0  0  0  0  0  0  0  0  0
   -0.2473    3.1645   -0.9363 H   0  0  0  0  0  0  0  0  0  0  0  0
   -0.7656    1.4753   -0.7382 H   0  0  0  0  0  0  0  0  0  0  0  0
   -0.3467    2.0991   -2.3496 H   0  0  0  0  0  0  0  0  0  0  0  0
    1.6163    1.8843    0.0202 H   0  0  0  0  0  0  0  0  0  0  0  0
    2.0569    2.3968   -1.6066 H   0  0  0  0  0  0  0  0  0  0  0  0
    1.0044   -0.3881   -0.8824 H   0  0  0  0  0  0  0  0  0  0  0  0
    2.2370    0.6624   -3.5104 H   0  0  0  0  0  0  0  0  0  0  0  0
    0.5326    0.2286   -3.2586 H   0  0  0  0  0  0  0  0  0  0  0  0
    1.7758   -1.0275   -3.1990 H   0  0  0  0  0  0  0  0  0  0  0  0
    4.7772    1.3852    0.4112 H   0  0  0  0  0  0  0  0  0  0  0  0
    6.5905    0.4775    2.5850 H   0  0  0  0  0  0  0  0  0  0  0  0
    6.1298    1.7765    3.7014 H   0  0  0  0  0  0  0  0  0  0  0  0
    7.6385    0.9384    0.5176 H   0  0  0  0  0  0  0  0  0  0  0  0
    8.5673    2.5747   -1.1132 H   0  0  0  0  0  0  0  0  0  0  0  0
    6.8404    6.6437   -1.0222 H   0  0  0  0  0  0  0  0  0  0  0  0
    8.2051    6.7944   -2.1455 H   0  0  0  0  0  0  0  0  0  0  0  0
   10.3970    5.9675   -0.0653 H   0  0  0  0  0  0  0  0  0  0  0  0
   11.6913    7.3744    1.5308 H   0  0  0  0  0  0  0  0  0  0  0  0
   10.7204    9.5060    2.3907 H   0  0  0  0  0  0  0  0  0  0  0  0
    8.4445   10.2146    1.6505 H   0  0  0  0  0  0  0  0  0  0  0  0
    7.1534    8.8019    0.0690 H   0  0  0  0  0  0  0  0  0  0  0  0
    6.6589    5.7820    1.0472 H   0  0  0  0  0  0  0  0  0  0  0  0
    5.7006    4.1474    2.6297 H   0  0  0  0  0  0  0  0  0  0  0  0
    2.0552    0.8400    2.6890 H   0  0  0  0  0  0  0  0  0  0  0  0
    0.9203    3.8848    2.1566 H   0  0  0  0  0  0  0  0  0  0  0  0
    2.0079    4.4427    3.4591 H   0  0  0  0  0  0  0  0  0  0  0  0
    0.2386    4.4371    3.7102 H   0  0  0  0  0  0  0  0  0  0  0  0
   -0.2822    1.6553    2.3578 H   0  0  0  0  0  0  0  0  0  0  0  0
   -1.0013    2.1940    3.8973 H   0  0  0  0  0  0  0  0  0  0  0  0
   -0.0933    0.6630    3.8284 H   0  0  0  0  0  0  0  0  0  0  0  0
    2.2871    2.9992    5.5880 H   0  0  0  0  0  0  0  0  0  0  0  0
    1.3917    1.4599    5.7284 H   0  0  0  0  0  0  0  0  0  0  0  0
    0.5139    3.0111    5.8121 H   0  0  0  0  0  0  0  0  0  0  0  0
    2.2034   -2.4170   -0.0118 H   0  0  0  0  0  0  0  0  0  0  0  0
    3.3028   -3.5096   -0.8745 H   0  0  0  0  0  0  0  0  0  0  0  0
    1.9553   -2.7441   -1.7545 H   0  0  0  0  0  0  0  0  0  0  0  0
    4.1667   -1.0050   -3.2357 H   0  0  0  0  0  0  0  0  0  0  0  0
    4.4754   -2.6476   -2.7047 H   0  0  0  0  0  0  0  0  0  0  0  0
    6.0103   -0.2222   -1.6138 H   0  0  0  0  0  0  0  0  0  0  0  0
    6.4688   -1.0693   -3.0828 H   0  0  0  0  0  0  0  0  0  0  0  0
    7.8600   -1.7194   -1.2435 H   0  0  0  0  0  0  0  0  0  0  0  0
    5.4407   -2.9227    0.2235 H   0  0  0  0  0  0  0  0  0  0  0  0
    6.2649   -1.4252    0.6807 H   0  0  0  0  0  0  0  0  0  0  0  0
    7.1459   -2.9737    0.7328 H   0  0  0  0  0  0  0  0  0  0  0  0
    6.1026   -4.1155   -2.0362 H   0  0  0  0  0  0  0  0  0  0  0  0
    7.7765   -4.1705   -1.4579 H   0  0  0  0  0  0  0  0  0  0  0  0
    7.4066   -3.4152   -3.0261 H   0  0  0  0  0  0  0  0  0  0  0  0
  1  2  1  0
  1 41  1  0
  1 42  1  0
  1 43  1  0
  2  3  1  0
  2 44  1  0
  2 45  1  0
  3  4  1  0
  3  5  1  0
  3 46  1  1
  4 47  1  0
  4 48  1  0
  4 49  1  0
  5  6  1  6
  5  7  1  0
  5 34  1  0
  7  8  2  0
  7  9  1  0
  9 10  1  0
  9 50  1  0
 10 11  1  1
 10 12  1  0
 10 27  1  0
 12 13  1  0
 12 51  1  0
 12 52  1  0
 13 14  2  0
 13 26  1  0
 14 15  1  0
 14 53  1  0
 15 16  2  0
 15 54  1  0
 16 17  1  0
 16 25  1  0
 17 18  1  0
 18 19  1  0
 18 55  1  0
 18 56  1  0
 19 20  2  0
 19 24  1  0
 20 21  1  0
 20 57  1  0
 21 22  2  0
 21 58  1  0
 22 23  1  0
 22 59  1  0
 23 24  2  0
 23 60  1  0
 24 61  1  0
 25 26  2  0
 25 62  1  0
 26 63  1  0
 27 28  2  0
 27 29  1  0
 30 29  1  6
 29 64  1  0
 30 31  1  0
 30 32  1  0
 30 33  1  0
 31 65  1  0
 31 66  1  0
 31 67  1  0
 32 68  1  0
 32 69  1  0
 32 70  1  0
 33 71  1  0
 33 72  1  0
 33 73  1  0
 34 35  1  0
 34 36  1  0
 35 74  1  0
 35 75  1  0
 35 76  1  0
 36 37  1  0
 36 77  1  0
 36 78  1  0
 37 38  1  0
 37 79  1  0
 37 80  1  0
 38 39  1  0
 38 40  1  0
 38 81  1  1
 39 82  1  0
 39 83  1  0
 39 84  1  0
 40 85  1  0
 40 86  1  0
 40 87  1  0
M  END

