
     RDKit          3D

 49 56  0  0  0  0  0  0  0  0999 V2000
    5.7453   -1.9841    0.4714 O   0  0  0  0  0  0  0  0  0  0  0  0
    5.2075   -2.0564   -0.8906 S   0  0  2  0  0  0  0  0  0  0  0  0
    5.5042   -3.2224   -1.7308 O   0  0  0  0  0  0  0  0  0  0  0  0
    5.5322   -0.5491   -1.8010 C   0  0  0  0  0  0  0  0  0  0  0  0
    4.3857    0.1118   -2.0912 C   0  0  0  0  0  0  0  0  0  0  0  0
    3.1555   -0.5033   -1.5865 C   0  0  0  0  0  0  0  0  0  0  0  0
    1.8289   -0.0751   -1.6959 C   0  0  0  0  0  0  0  0  0  0  0  0
    0.8134   -0.8480   -1.1149 C   0  0  0  0  0  0  0  0  0  0  0  0
    1.1067   -2.0323   -0.4315 C   0  0  0  0  0  0  0  0  0  0  0  0
    2.4350   -2.4750   -0.3141 C   0  0  0  0  0  0  0  0  0  0  0  0
    3.4255   -1.7026   -0.8945 C   0  0  0  0  0  0  0  0  0  0  0  0
    4.6878    1.3470   -2.9305 C   0  0  2  0  0  0  0  0  0  0  0  0
    6.2205    1.2529   -3.0488 C   0  0  0  0  0  0  0  0  0  0  0  0
    7.1067    2.0978   -3.7037 C   0  0  0  0  0  0  0  0  0  0  0  0
    8.4772    1.7927   -3.6733 C   0  0  0  0  0  0  0  0  0  0  0  0
    8.9474    0.6591   -2.9984 C   0  0  0  0  0  0  0  0  0  0  0  0
    8.0618   -0.1987   -2.3355 C   0  0  0  0  0  0  0  0  0  0  0  0
    6.6994    0.1074   -2.3658 C   0  0  0  0  0  0  0  0  0  0  0  0
    4.1943    2.6664   -2.3080 C   0  0  0  0  0  0  0  0  0  0  0  0
    4.4916    3.2078   -1.0642 C   0  0  0  0  0  0  0  0  0  0  0  0
    3.9255    4.4432   -0.7103 C   0  0  0  0  0  0  0  0  0  0  0  0
    3.0772    5.1190   -1.5950 C   0  0  0  0  0  0  0  0  0  0  0  0
    2.7728    4.5792   -2.8511 C   0  0  0  0  0  0  0  0  0  0  0  0
    3.3340    3.3491   -3.2048 C   0  0  0  0  0  0  0  0  0  0  0  0
    3.2230    2.5173   -4.3972 C   0  0  0  0  0  0  0  0  0  0  0  0
    2.3702    2.6291   -5.9122 S   0  0  0  0  0  0  0  0  0  0  0  0
    3.0283    1.0639   -6.4043 C   0  0  0  0  0  0  0  0  0  0  0  0
    2.7795    0.4060   -7.6138 C   0  0  0  0  0  0  0  0  0  0  0  0
    3.3797   -0.8334   -7.8308 C   0  0  0  0  0  0  0  0  0  0  0  0
    4.2147   -1.4121   -6.8553 C   0  0  0  0  0  0  0  0  0  0  0  0
    4.4665   -0.7611   -5.6527 C   0  0  0  0  0  0  0  0  0  0  0  0
    3.8765    0.4968   -5.4073 C   0  0  0  0  0  0  0  0  0  0  0  0
    3.9641    1.3687   -4.2714 C   0  0  0  0  0  0  0  0  0  0  0  0
    1.5889    0.8482   -2.2261 H   0  0  0  0  0  0  0  0  0  0  0  0
   -0.2246   -0.5171   -1.1984 H   0  0  0  0  0  0  0  0  0  0  0  0
    0.3001   -2.6190    0.0143 H   0  0  0  0  0  0  0  0  0  0  0  0
    2.6792   -3.3981    0.2166 H   0  0  0  0  0  0  0  0  0  0  0  0
    6.7472    2.9826   -4.2349 H   0  0  0  0  0  0  0  0  0  0  0  0
    9.1855    2.4487   -4.1852 H   0  0  0  0  0  0  0  0  0  0  0  0
   10.0180    0.4408   -2.9893 H   0  0  0  0  0  0  0  0  0  0  0  0
    8.4206   -1.0848   -1.8077 H   0  0  0  0  0  0  0  0  0  0  0  0
    5.1550    2.6840   -0.3712 H   0  0  0  0  0  0  0  0  0  0  0  0
    4.1505    4.8799    0.2656 H   0  0  0  0  0  0  0  0  0  0  0  0
    2.6463    6.0799   -1.3029 H   0  0  0  0  0  0  0  0  0  0  0  0
    2.1099    5.1099   -3.5388 H   0  0  0  0  0  0  0  0  0  0  0  0
    2.1293    0.8512   -8.3704 H   0  0  0  0  0  0  0  0  0  0  0  0
    3.1961   -1.3622   -8.7692 H   0  0  0  0  0  0  0  0  0  0  0  0
    4.6692   -2.3872   -7.0455 H   0  0  0  0  0  0  0  0  0  0  0  0
    5.1084   -1.2209   -4.8983 H   0  0  0  0  0  0  0  0  0  0  0  0
  1  2  2  0
  2  3  2  0
  2  4  1  6
  2 11  1  0
  4  5  2  0
  4 18  1  0
  5  6  1  0
 12  5  1  1
  6  7  2  0
  6 11  1  0
  7  8  1  0
  7 34  1  0
  8  9  2  0
  8 35  1  0
  9 10  1  0
  9 36  1  0
 10 11  2  0
 10 37  1  0
 12 13  1  0
 12 19  1  0
 12 33  1  0
 13 14  2  0
 13 18  1  0
 14 15  1  0
 14 38  1  0
 15 16  2  0
 15 39  1  0
 16 17  1  0
 16 40  1  0
 17 18  2  0
 17 41  1  0
 19 20  2  0
 19 24  1  0
 20 21  1  0
 20 42  1  0
 21 22  2  0
 21 43  1  0
 22 23  1  0
 22 44  1  0
 23 24  2  0
 23 45  1  0
 24 25  1  0
 25 26  1  0
 25 33  2  0
 26 27  1  0
 27 28  2  0
 27 32  1  0
 28 29  1  0
 28 46  1  0
 29 30  2  0
 29 47  1  0
 30 31  1  0
 30 48  1  0
 31 32  2  0
 31 49  1  0
 32 33  1  0
M  END

