
     RDKit          3D

 55 58  0  0  0  0  0  0  0  0999 V2000
    0.9616    0.9192    0.7264 C   0  0  0  0  0  0  0  0  0  0  0  0
    2.4208    0.7188    0.4011 C   0  0  0  0  0  0  0  0  0  0  0  0
    3.2933    1.8022    0.2287 C   0  0  0  0  0  0  0  0  0  0  0  0
    4.6400    1.6034   -0.0795 C   0  0  0  0  0  0  0  0  0  0  0  0
    5.1781    0.3105   -0.2297 C   0  0  0  0  0  0  0  0  0  0  0  0
    6.5976    0.1628   -0.5527 C   0  0  0  0  0  0  0  0  0  0  0  0
    7.2842   -0.9885   -0.7386 C   0  0  0  0  0  0  0  0  0  0  0  0
    8.6979   -1.0420   -1.0569 C   0  0  0  0  0  0  0  0  0  0  0  0
    9.4746    0.0780   -1.1963 N   0  0  0  0  0  0  0  0  0  0  0  0
   10.6948   -0.3353   -1.4825 C   0  0  0  0  0  0  0  0  0  0  0  0
   11.8455    0.5410   -1.7123 C   0  0  0  0  0  0  0  0  0  0  0  0
   11.6718    1.9384   -1.6227 C   0  0  0  0  0  0  0  0  0  0  0  0
   12.7412    2.8070   -1.8342 C   0  0  0  0  0  0  0  0  0  0  0  0
   14.0125    2.3122   -2.1403 C   0  0  0  0  0  0  0  0  0  0  0  0
   14.1726    0.9296   -2.2263 C   0  0  0  0  0  0  0  0  0  0  0  0
   15.5075    0.3783   -2.5491 N   0  0  0  0  0  0  0  0  0  0  0  0
   16.4169    1.1705   -2.7278 O   0  0  0  0  0  0  0  0  0  0  0  0
   15.6162   -0.8365   -2.6165 O   0  0  0  0  0  0  0  0  0  0  0  0
   13.1202    0.0402   -2.0198 C   0  0  0  0  0  0  0  0  0  0  0  0
   10.7457   -1.7048   -1.5371 N   0  0  0  0  0  0  0  0  0  0  0  0
   11.5623   -2.2689   -1.7311 H   0  0  0  0  0  0  0  0  0  0  0  0
    9.4830   -2.1949   -1.2689 C   0  0  0  0  0  0  0  0  0  0  0  0
    9.1281   -3.5884   -1.2342 C   0  0  0  0  0  0  0  0  0  0  0  0
    9.9561   -4.6396   -1.4623 C   0  0  0  0  0  0  0  0  0  0  0  0
    9.6144   -6.0613   -1.4306 C   0  0  0  0  0  0  0  0  0  0  0  0
   10.6137   -7.0159   -1.7039 C   0  0  0  0  0  0  0  0  0  0  0  0
   10.3394   -8.3840   -1.6876 C   0  0  0  0  0  0  0  0  0  0  0  0
    9.0546   -8.8633   -1.3972 C   0  0  0  0  0  0  0  0  0  0  0  0
    8.7449  -10.3390   -1.3715 C   0  0  0  0  0  0  0  0  0  0  0  0
    8.0527   -7.9123   -1.1234 C   0  0  0  0  0  0  0  0  0  0  0  0
    8.3206   -6.5483   -1.1384 C   0  0  0  0  0  0  0  0  0  0  0  0
    4.2954   -0.7783   -0.0538 C   0  0  0  0  0  0  0  0  0  0  0  0
    2.9544   -0.5758    0.2532 C   0  0  0  0  0  0  0  0  0  0  0  0
    0.7240    1.9815    0.8848 H   0  0  0  0  0  0  0  0  0  0  0  0
    0.6730    0.3687    1.6374 H   0  0  0  0  0  0  0  0  0  0  0  0
    0.3150    0.5495   -0.0881 H   0  0  0  0  0  0  0  0  0  0  0  0
    2.9126    2.8218    0.3381 H   0  0  0  0  0  0  0  0  0  0  0  0
    5.2966    2.4686   -0.2076 H   0  0  0  0  0  0  0  0  0  0  0  0
    7.1629    1.0944   -0.6546 H   0  0  0  0  0  0  0  0  0  0  0  0
    6.7743   -1.9517   -0.6510 H   0  0  0  0  0  0  0  0  0  0  0  0
   10.6768    2.3164   -1.3833 H   0  0  0  0  0  0  0  0  0  0  0  0
   12.5858    3.8857   -1.7601 H   0  0  0  0  0  0  0  0  0  0  0  0
   14.8681    2.9644   -2.3109 H   0  0  0  0  0  0  0  0  0  0  0  0
   13.3348   -1.0245   -2.1077 H   0  0  0  0  0  0  0  0  0  0  0  0
    8.0786   -3.7786   -0.9980 H   0  0  0  0  0  0  0  0  0  0  0  0
   11.0074   -4.4395   -1.7016 H   0  0  0  0  0  0  0  0  0  0  0  0
   11.6273   -6.6753   -1.9348 H   0  0  0  0  0  0  0  0  0  0  0  0
   11.1421   -9.0942   -1.9058 H   0  0  0  0  0  0  0  0  0  0  0  0
    9.6221  -10.9422   -1.6481 H   0  0  0  0  0  0  0  0  0  0  0  0
    7.9286  -10.5902   -2.0694 H   0  0  0  0  0  0  0  0  0  0  0  0
    8.4178  -10.6622   -0.3684 H   0  0  0  0  0  0  0  0  0  0  0  0
    7.0389   -8.2540   -0.8934 H   0  0  0  0  0  0  0  0  0  0  0  0
    7.5101   -5.8498   -0.9190 H   0  0  0  0  0  0  0  0  0  0  0  0
    4.6644   -1.8013   -0.1577 H   0  0  0  0  0  0  0  0  0  0  0  0
    2.2994   -1.4428    0.3834 H   0  0  0  0  0  0  0  0  0  0  0  0
  1  2  1  0
  1 34  1  0
  1 35  1  0
  1 36  1  0
  2  3  2  0
  2 33  1  0
  3  4  1  0
  3 37  1  0
  4  5  2  0
  4 38  1  0
  5  6  1  0
  5 32  1  0
  6  7  2  0
  6 39  1  0
  7  8  1  0
  7 40  1  0
  8  9  1  0
  8 22  2  0
  9 10  2  0
 10 11  1  0
 10 20  1  0
 11 12  2  0
 11 19  1  0
 12 13  1  0
 12 41  1  0
 13 14  2  0
 13 42  1  0
 14 15  1  0
 14 43  1  0
 15 16  1  0
 15 19  2  0
 16 17  2  0
 16 18  1  0
 19 44  1  0
 20 21  1  0
 20 22  1  0
 22 23  1  0
 23 24  2  0
 23 45  1  0
 24 25  1  0
 24 46  1  0
 25 26  2  0
 25 31  1  0
 26 27  1  0
 26 47  1  0
 27 28  2  0
 27 48  1  0
 28 29  1  0
 28 30  1  0
 29 49  1  0
 29 50  1  0
 29 51  1  0
 30 31  2  0
 30 52  1  0
 31 53  1  0
 32 33  2  0
 32 54  1  0
 33 55  1  0
M  CHG  2  16   1  18  -1
M  END

