
     RDKit          3D

 33 35  0  0  0  0  0  0  0  0999 V2000
    0.7355    0.0121    1.7872 C   0  0  0  0  0  0  0  0  0  0  0  0
    1.3908    0.4463    0.5085 C   0  0  0  0  0  0  0  0  0  0  0  0
    1.7592    1.7113    0.2225 C   0  0  0  0  0  0  0  0  0  0  0  0
    2.4181    2.1045   -1.0708 C   0  0  1  0  0  0  0  0  0  0  0  0
    2.2671    3.1813   -1.2402 H   0  0  0  0  0  0  0  0  0  0  0  0
    3.9284    1.7195   -1.0987 C   0  0  2  0  0  0  0  0  0  0  0  0
    4.4365    1.9833   -0.1596 H   0  0  0  0  0  0  0  0  0  0  0  0
    4.5903    2.4561   -2.2849 C   0  0  0  0  0  0  0  0  0  0  0  0
    3.5673    2.6189   -3.4202 C   0  0  0  0  0  0  0  0  0  0  0  0
    2.6496    1.5413   -3.4602 O   0  0  0  0  0  0  0  0  0  0  0  0
    1.9210    1.2349   -2.2558 C   0  0  2  0  0  0  0  0  0  0  0  0
    0.4406    1.3476   -2.6016 C   0  0  0  0  0  0  0  0  0  0  0  0
    2.4186   -0.1711   -1.7724 C   0  0  1  0  0  0  0  0  0  0  0  0
    2.3750   -1.2597   -2.8399 C   0  0  0  0  0  0  0  0  0  0  0  0
    3.8762    0.1779   -1.3009 C   0  0  0  0  0  0  0  0  0  0  0  0
    1.6203   -0.6016   -0.5309 C   0  0  0  0  0  0  0  0  0  0  0  0
    1.2239   -1.7419   -0.3743 O   0  0  0  0  0  0  0  0  0  0  0  0
    1.3310   -0.7701    2.2859 H   0  0  0  0  0  0  0  0  0  0  0  0
   -0.2481   -0.4416    1.5843 H   0  0  0  0  0  0  0  0  0  0  0  0
    0.6031    0.8551    2.4810 H   0  0  0  0  0  0  0  0  0  0  0  0
    1.6007    2.5016    0.9649 H   0  0  0  0  0  0  0  0  0  0  0  0
    5.4731    1.8918   -2.6260 H   0  0  0  0  0  0  0  0  0  0  0  0
    4.9499    3.4509   -1.9713 H   0  0  0  0  0  0  0  0  0  0  0  0
    4.0543    2.6360   -4.4068 H   0  0  0  0  0  0  0  0  0  0  0  0
    3.0294    3.5816   -3.3171 H   0  0  0  0  0  0  0  0  0  0  0  0
    0.2069    2.3804   -2.9045 H   0  0  0  0  0  0  0  0  0  0  0  0
   -0.2132    1.0750   -1.7613 H   0  0  0  0  0  0  0  0  0  0  0  0
    0.2090    0.6915   -3.4535 H   0  0  0  0  0  0  0  0  0  0  0  0
    2.9071   -0.9244   -3.7402 H   0  0  0  0  0  0  0  0  0  0  0  0
    1.3395   -1.5130   -3.1126 H   0  0  0  0  0  0  0  0  0  0  0  0
    2.8393   -2.1832   -2.4641 H   0  0  0  0  0  0  0  0  0  0  0  0
    4.5955   -0.1432   -2.0683 H   0  0  0  0  0  0  0  0  0  0  0  0
    4.1376   -0.3647   -0.3796 H   0  0  0  0  0  0  0  0  0  0  0  0
  1  2  1  0
  1 18  1  0
  1 19  1  0
  1 20  1  0
  2  3  2  0
  2 16  1  0
  3  4  1  0
  3 21  1  0
  4  5  1  6
  4  6  1  0
  4 11  1  0
  6  7  1  1
  6  8  1  0
  6 15  1  0
  8  9  1  0
  8 22  1  0
  8 23  1  0
  9 10  1  0
  9 24  1  0
  9 25  1  0
 10 11  1  0
 11 12  1  6
 11 13  1  0
 12 26  1  0
 12 27  1  0
 12 28  1  0
 13 14  1  6
 13 15  1  0
 13 16  1  0
 14 29  1  0
 14 30  1  0
 14 31  1  0
 15 32  1  0
 15 33  1  0
 16 17  2  0
M  END

