
     RDKit          3D

 35 36  0  0  0  0  0  0  0  0999 V2000
    1.3947   -0.6930   -0.2562 O   0  0  0  0  0  0  0  0  0  0  0  0
    2.5392   -0.3720    0.0245 C   0  0  0  0  0  0  0  0  0  0  0  0
    3.3820    0.5269   -0.8679 C   0  0  0  0  0  0  0  0  0  0  0  0
    3.8760   -0.1928   -2.1412 C   0  0  0  0  0  0  0  0  0  0  0  0
    2.7776   -0.5572   -3.1334 C   0  0  1  0  0  0  0  0  0  0  0  0
    2.0238    0.5762   -3.8840 C   0  0  0  0  0  0  0  0  0  0  0  0
    2.0590   -0.2996   -5.1632 C   0  0  0  0  0  0  0  0  0  0  0  0
    3.1856   -1.1427   -4.5129 C   0  0  0  0  0  0  0  0  0  0  0  0
    3.1670   -0.8278    1.1575 N   0  0  0  0  0  0  0  0  0  0  0  0
    2.5347   -1.7692    2.0639 C   0  0  0  0  0  0  0  0  0  0  0  0
    3.1362   -3.1497    2.0314 C   0  0  0  0  0  0  0  0  0  0  0  0
    3.8152   -3.8069    3.0352 C   0  0  0  0  0  0  0  0  0  0  0  0
    4.2643   -5.1026    2.6636 C   0  0  0  0  0  0  0  0  0  0  0  0
    3.9294   -5.4374    1.3699 C   0  0  0  0  0  0  0  0  0  0  0  0
    4.2789   -6.7289    0.7205 C   0  0  0  0  0  0  0  0  0  0  0  0
    4.9562   -7.5592    1.2671 O   0  0  0  0  0  0  0  0  0  0  0  0
    3.8024   -6.9476   -0.5268 O   0  0  0  0  0  0  0  0  0  0  0  0
    3.0468   -4.1392    0.6027 S   0  0  0  0  0  0  0  0  0  0  0  0
    4.2440    0.9271   -0.3090 H   0  0  0  0  0  0  0  0  0  0  0  0
    2.7495    1.3834   -1.1508 H   0  0  0  0  0  0  0  0  0  0  0  0
    4.4301   -1.1050   -1.8516 H   0  0  0  0  0  0  0  0  0  0  0  0
    4.6094    0.4648   -2.6413 H   0  0  0  0  0  0  0  0  0  0  0  0
    2.0434   -1.2159   -2.6443 H   0  0  0  0  0  0  0  0  0  0  0  0
    2.6501    1.4785   -3.9918 H   0  0  0  0  0  0  0  0  0  0  0  0
    1.0406    0.8774   -3.4914 H   0  0  0  0  0  0  0  0  0  0  0  0
    2.2830    0.2005   -6.1180 H   0  0  0  0  0  0  0  0  0  0  0  0
    1.1315   -0.8804   -5.2862 H   0  0  0  0  0  0  0  0  0  0  0  0
    4.1857   -0.7931   -4.8204 H   0  0  0  0  0  0  0  0  0  0  0  0
    3.1493   -2.2369   -4.6364 H   0  0  0  0  0  0  0  0  0  0  0  0
    4.1382   -0.5864    1.3143 H   0  0  0  0  0  0  0  0  0  0  0  0
    1.4738   -1.7965    1.7724 H   0  0  0  0  0  0  0  0  0  0  0  0
    2.5907   -1.3994    3.1012 H   0  0  0  0  0  0  0  0  0  0  0  0
    3.9830   -3.3616    4.0179 H   0  0  0  0  0  0  0  0  0  0  0  0
    4.8197   -5.7873    3.3052 H   0  0  0  0  0  0  0  0  0  0  0  0
    3.2343   -6.2255   -0.8319 H   0  0  0  0  0  0  0  0  0  0  0  0
  1  2  2  0
  2  3  1  0
  2  9  1  0
  3  4  1  0
  3 19  1  0
  3 20  1  0
  4  5  1  0
  4 21  1  0
  4 22  1  0
  5  6  1  0
  5  8  1  0
  5 23  1  1
  6  7  1  0
  6 24  1  0
  6 25  1  0
  7  8  1  0
  7 26  1  0
  7 27  1  0
  8 28  1  0
  8 29  1  0
  9 10  1  0
  9 30  1  0
 10 11  1  0
 10 31  1  0
 10 32  1  0
 11 12  2  0
 11 18  1  0
 12 13  1  0
 12 33  1  0
 13 14  2  0
 13 34  1  0
 14 15  1  0
 14 18  1  0
 15 16  2  0
 15 17  1  0
 17 35  1  0
M  END

