
     RDKit          3D

 52 55  0  0  0  0  0  0  0  0999 V2000
   -1.2897    1.2389   -2.3607 C   0  0  0  0  0  0  0  0  0  0  0  0
   -0.0059    1.1429   -2.9339 O   0  0  0  0  0  0  0  0  0  0  0  0
    0.9019    2.1234   -2.6846 C   0  0  0  0  0  0  0  0  0  0  0  0
    0.6707    3.2477   -1.8894 C   0  0  0  0  0  0  0  0  0  0  0  0
    1.6874    4.1954   -1.6970 C   0  0  0  0  0  0  0  0  0  0  0  0
    2.9383    4.0477   -2.2966 C   0  0  0  0  0  0  0  0  0  0  0  0
    4.0397    4.9196   -2.1984 N   0  0  0  0  0  0  0  0  0  0  0  0
    4.2174    6.1655   -1.6692 C   0  0  0  0  0  0  0  0  0  0  0  0
    3.1270    6.9320   -0.6362 S   0  0  0  0  0  0  0  0  0  0  0  0
    5.4178    6.7489   -2.0374 N   0  0  0  0  0  0  0  0  0  0  0  0
    6.0688    6.5458   -3.3401 C   0  0  0  0  0  0  0  0  0  0  0  0
    5.8034    7.7349   -4.2803 C   0  0  0  0  0  0  0  0  0  0  0  0
    6.1534    9.0825   -3.6364 C   0  0  0  0  0  0  0  0  0  0  0  0
    5.4846    9.2117   -2.2615 C   0  0  2  0  0  0  0  0  0  0  0  0
    5.8199   10.4877   -1.5514 C   0  0  0  0  0  0  0  0  0  0  0  0
    6.8228   11.2896   -1.8122 N   0  0  0  0  0  0  0  0  0  0  0  0
    6.7404   12.3036   -0.8721 C   0  0  0  0  0  0  0  0  0  0  0  0
    7.5527   13.4322   -0.6834 C   0  0  0  0  0  0  0  0  0  0  0  0
    7.2365   14.3046    0.3566 C   0  0  0  0  0  0  0  0  0  0  0  0
    6.1314   14.0694    1.2023 C   0  0  0  0  0  0  0  0  0  0  0  0
    5.3089   12.9546    1.0340 C   0  0  0  0  0  0  0  0  0  0  0  0
    5.6320   12.0822   -0.0106 C   0  0  0  0  0  0  0  0  0  0  0  0
    5.0660   10.9098   -0.4736 N   0  0  0  0  0  0  0  0  0  0  0  0
    4.2463   10.4362   -0.1110 H   0  0  0  0  0  0  0  0  0  0  0  0
    5.8584    7.9820   -1.4000 C   0  0  0  0  0  0  0  0  0  0  0  0
    3.1603    2.8956   -3.1053 C   0  0  0  0  0  0  0  0  0  0  0  0
    4.4076    2.8106   -3.6594 O   0  0  0  0  0  0  0  0  0  0  0  0
    4.7437    1.6880   -4.4478 C   0  0  0  0  0  0  0  0  0  0  0  0
    2.1603    1.9497   -3.2927 C   0  0  0  0  0  0  0  0  0  0  0  0
   -1.8482    0.3528   -2.6915 H   0  0  0  0  0  0  0  0  0  0  0  0
   -1.8245    2.1455   -2.6979 H   0  0  0  0  0  0  0  0  0  0  0  0
   -1.2483    1.2439   -1.2564 H   0  0  0  0  0  0  0  0  0  0  0  0
   -0.2898    3.4081   -1.4007 H   0  0  0  0  0  0  0  0  0  0  0  0
    1.5130    5.0641   -1.0661 H   0  0  0  0  0  0  0  0  0  0  0  0
    4.8577    4.5104   -2.6376 H   0  0  0  0  0  0  0  0  0  0  0  0
    5.7195    5.6205   -3.8142 H   0  0  0  0  0  0  0  0  0  0  0  0
    7.1548    6.4336   -3.1701 H   0  0  0  0  0  0  0  0  0  0  0  0
    4.7357    7.7235   -4.5613 H   0  0  0  0  0  0  0  0  0  0  0  0
    6.3793    7.5906   -5.2098 H   0  0  0  0  0  0  0  0  0  0  0  0
    5.8497    9.9145   -4.2906 H   0  0  0  0  0  0  0  0  0  0  0  0
    7.2446    9.1801   -3.5075 H   0  0  0  0  0  0  0  0  0  0  0  0
    4.3869    9.1720   -2.3811 H   0  0  0  0  0  0  0  0  0  0  0  0
    8.4061   13.6087   -1.3416 H   0  0  0  0  0  0  0  0  0  0  0  0
    7.8543   15.1905    0.5243 H   0  0  0  0  0  0  0  0  0  0  0  0
    5.9146   14.7761    2.0074 H   0  0  0  0  0  0  0  0  0  0  0  0
    4.4543   12.7765    1.6910 H   0  0  0  0  0  0  0  0  0  0  0  0
    5.4043    8.0404   -0.4050 H   0  0  0  0  0  0  0  0  0  0  0  0
    6.9563    7.9418   -1.2862 H   0  0  0  0  0  0  0  0  0  0  0  0
    5.7849    1.8287   -4.7671 H   0  0  0  0  0  0  0  0  0  0  0  0
    4.0995    1.6129   -5.3412 H   0  0  0  0  0  0  0  0  0  0  0  0
    4.6659    0.7501   -3.8708 H   0  0  0  0  0  0  0  0  0  0  0  0
    2.3109    1.0634   -3.9070 H   0  0  0  0  0  0  0  0  0  0  0  0
  1  2  1  0
  1 30  1  0
  1 31  1  0
  1 32  1  0
  2  3  1  0
  3  4  2  0
  3 29  1  0
  4  5  1  0
  4 33  1  0
  5  6  2  0
  5 34  1  0
  6  7  1  0
  6 26  1  0
  7  8  1  0
  7 35  1  0
  8  9  2  0
  8 10  1  0
 10 11  1  0
 10 25  1  0
 11 12  1  0
 11 36  1  0
 11 37  1  0
 12 13  1  0
 12 38  1  0
 12 39  1  0
 13 14  1  0
 13 40  1  0
 13 41  1  0
 14 15  1  0
 14 25  1  0
 14 42  1  6
 15 16  2  0
 15 23  1  0
 16 17  1  0
 17 18  2  0
 17 22  1  0
 18 19  1  0
 18 43  1  0
 19 20  2  0
 19 44  1  0
 20 21  1  0
 20 45  1  0
 21 22  2  0
 21 46  1  0
 22 23  1  0
 23 24  1  0
 25 47  1  0
 25 48  1  0
 26 27  1  0
 26 29  2  0
 27 28  1  0
 28 49  1  0
 28 50  1  0
 28 51  1  0
 29 52  1  0
M  END

