
     RDKit          3D

 37 38  0  0  0  0  0  0  0  0999 V2000
    4.7721    4.3079    3.0503 C   0  0  0  0  0  0  0  0  0  0  0  0
    5.0078    4.1421    1.5502 C   0  0  0  0  0  0  0  0  0  0  0  0
    4.1244    3.1561    0.9272 N   0  0  0  0  0  0  0  0  0  0  0  0
    2.9551    3.4818    0.2917 C   0  0  0  0  0  0  0  0  0  0  0  0
    2.3250    2.3164   -0.1536 C   0  0  0  0  0  0  0  0  0  0  0  0
    1.0860    2.2279   -0.7980 N   0  0  0  0  0  0  0  0  0  0  0  0
    3.1562    1.2429    0.2378 C   0  0  0  0  0  0  0  0  0  0  0  0
    4.2613    1.7818    0.9073 C   0  0  0  0  0  0  0  0  0  0  0  0
    5.3968    1.0805    1.4897 C   0  0  0  0  0  0  0  0  0  0  0  0
    6.3380    1.5849    2.0707 O   0  0  0  0  0  0  0  0  0  0  0  0
    5.2684   -0.2684    1.3229 O   0  0  0  0  0  0  0  0  0  0  0  0
    6.3412   -1.0858    1.7504 C   0  0  0  0  0  0  0  0  0  0  0  0
    7.1583   -1.5697    0.5509 C   0  0  1  0  0  0  0  0  0  0  0  0
    6.3464   -2.3066   -0.2668 F   0  0  0  0  0  0  0  0  0  0  0  0
    7.5523   -0.4771   -0.1710 F   0  0  0  0  0  0  0  0  0  0  0  0
    8.3680   -2.3868    0.9562 C   0  0  0  0  0  0  0  0  0  0  0  0
    8.2914   -3.7841    1.0177 C   0  0  0  0  0  0  0  0  0  0  0  0
    9.4002   -4.5273    1.4318 C   0  0  0  0  0  0  0  0  0  0  0  0
   10.5876   -3.8794    1.7843 C   0  0  0  0  0  0  0  0  0  0  0  0
   10.6661   -2.4844    1.7198 C   0  0  0  0  0  0  0  0  0  0  0  0
    9.5601   -1.7380    1.3072 C   0  0  0  0  0  0  0  0  0  0  0  0
    5.4290    5.0984    3.4474 H   0  0  0  0  0  0  0  0  0  0  0  0
    5.0072    3.3746    3.5816 H   0  0  0  0  0  0  0  0  0  0  0  0
    3.7281    4.5873    3.2632 H   0  0  0  0  0  0  0  0  0  0  0  0
    6.0459    3.8386    1.3665 H   0  0  0  0  0  0  0  0  0  0  0  0
    4.8341    5.0941    1.0247 H   0  0  0  0  0  0  0  0  0  0  0  0
    2.6467    4.5211    0.1953 H   0  0  0  0  0  0  0  0  0  0  0  0
    0.8366    3.0559   -1.3305 H   0  0  0  0  0  0  0  0  0  0  0  0
    0.9918    1.4006   -1.3792 H   0  0  0  0  0  0  0  0  0  0  0  0
    2.9968    0.1825    0.0585 H   0  0  0  0  0  0  0  0  0  0  0  0
    5.9179   -1.9620    2.2627 H   0  0  0  0  0  0  0  0  0  0  0  0
    6.9971   -0.5321    2.4357 H   0  0  0  0  0  0  0  0  0  0  0  0
    7.3668   -4.2868    0.7280 H   0  0  0  0  0  0  0  0  0  0  0  0
    9.3371   -5.6176    1.4739 H   0  0  0  0  0  0  0  0  0  0  0  0
   11.4544   -4.4620    2.1067 H   0  0  0  0  0  0  0  0  0  0  0  0
   11.5948   -1.9746    1.9881 H   0  0  0  0  0  0  0  0  0  0  0  0
    9.6209   -0.6494    1.2449 H   0  0  0  0  0  0  0  0  0  0  0  0
  1  2  1  0
  1 22  1  0
  1 23  1  0
  1 24  1  0
  2  3  1  0
  2 25  1  0
  2 26  1  0
  3  4  1  0
  3  8  1  0
  4  5  2  0
  4 27  1  0
  5  6  1  0
  5  7  1  0
  6 28  1  0
  6 29  1  0
  7  8  2  0
  7 30  1  0
  8  9  1  0
  9 10  2  0
  9 11  1  0
 11 12  1  0
 12 13  1  0
 12 31  1  0
 12 32  1  0
 13 14  1  6
 13 15  1  0
 13 16  1  0
 16 17  2  0
 16 21  1  0
 17 18  1  0
 17 33  1  0
 18 19  2  0
 18 34  1  0
 19 20  1  0
 19 35  1  0
 20 21  2  0
 20 36  1  0
 21 37  1  0
M  END

