
     RDKit          3D

 53 54  0  0  0  0  0  0  0  0999 V2000
    6.6312    5.8164   -1.3234 C   0  0  0  0  0  0  0  0  0  0  0  0
    7.6597    6.7369   -0.6465 C   0  0  0  0  0  0  0  0  0  0  0  0
    7.0748    8.0620   -0.2108 C   0  0  0  0  0  0  0  0  0  0  0  0
    6.5008    8.2190    1.0626 C   0  0  0  0  0  0  0  0  0  0  0  0
    5.9201    9.4241    1.4542 C   0  0  0  0  0  0  0  0  0  0  0  0
    5.8924   10.5199    0.5739 C   0  0  0  0  0  0  0  0  0  0  0  0
    5.2533   11.7701    0.9961 C   0  0  0  0  0  0  0  0  0  0  0  0
    4.9587   12.1327    2.2436 N   0  0  0  0  0  0  0  0  0  0  0  0
    4.3435   13.3392    2.0937 C   0  0  0  0  0  0  0  0  0  0  0  0
    3.7074   14.3233    3.4126 S   0  0  0  0  0  0  0  0  0  0  0  0
    3.8255   13.1386    4.8123 C   0  0  0  0  0  0  0  0  0  0  0  0
    5.1210   13.2481    5.6183 C   0  0  0  0  0  0  0  0  0  0  0  0
    5.1278   13.7563    6.7297 O   0  0  0  0  0  0  0  0  0  0  0  0
    6.2358   12.7487    5.0194 N   0  0  0  0  0  0  0  0  0  0  0  0
    7.5181   12.8353    5.6969 C   0  0  2  0  0  0  0  0  0  0  0  0
    7.3152   12.6831    6.7695 H   0  0  0  0  0  0  0  0  0  0  0  0
    8.2127   14.2206    5.6080 C   0  0  0  0  0  0  0  0  0  0  0  0
    8.9065   14.6134    4.2903 C   0  0  1  0  0  0  0  0  0  0  0  0
    7.9833   14.6054    3.0641 C   0  0  0  0  0  0  0  0  0  0  0  0
    9.5703   15.9879    4.4591 C   0  0  0  0  0  0  0  0  0  0  0  0
    8.4892   11.7325    5.3021 C   0  0  0  0  0  0  0  0  0  0  0  0
    9.5393   11.5440    5.8642 O   0  0  0  0  0  0  0  0  0  0  0  0
    8.0816   11.0091    4.2413 O   0  0  0  0  0  0  0  0  0  0  0  0
    8.9745    9.9810    3.8040 C   0  0  0  0  0  0  0  0  0  0  0  0
    4.2422   13.7542    0.8385 N   0  0  0  0  0  0  0  0  0  0  0  0
    4.8321   12.7478    0.1586 N   0  0  0  0  0  0  0  0  0  0  0  0
    4.8571   12.7723   -0.8541 H   0  0  0  0  0  0  0  0  0  0  0  0
    6.4743   10.3750   -0.6979 C   0  0  0  0  0  0  0  0  0  0  0  0
    7.0519    9.1649   -1.0801 C   0  0  0  0  0  0  0  0  0  0  0  0
    7.0949    4.8636   -1.6245 H   0  0  0  0  0  0  0  0  0  0  0  0
    6.2075    6.2875   -2.2247 H   0  0  0  0  0  0  0  0  0  0  0  0
    5.7944    5.5872   -0.6445 H   0  0  0  0  0  0  0  0  0  0  0  0
    8.4975    6.9187   -1.3402 H   0  0  0  0  0  0  0  0  0  0  0  0
    8.0873    6.2216    0.2298 H   0  0  0  0  0  0  0  0  0  0  0  0
    6.5080    7.3774    1.7614 H   0  0  0  0  0  0  0  0  0  0  0  0
    5.4776    9.5329    2.4457 H   0  0  0  0  0  0  0  0  0  0  0  0
    3.6691   12.1257    4.4162 H   0  0  0  0  0  0  0  0  0  0  0  0
    3.0041   13.4062    5.4883 H   0  0  0  0  0  0  0  0  0  0  0  0
    6.1567   12.3095    4.1030 H   0  0  0  0  0  0  0  0  0  0  0  0
    8.9680   14.2419    6.4101 H   0  0  0  0  0  0  0  0  0  0  0  0
    7.4501   14.9693    5.8784 H   0  0  0  0  0  0  0  0  0  0  0  0
    9.7171   13.8820    4.1093 H   0  0  0  0  0  0  0  0  0  0  0  0
    7.0971   15.2419    3.2227 H   0  0  0  0  0  0  0  0  0  0  0  0
    7.6269   13.5938    2.8216 H   0  0  0  0  0  0  0  0  0  0  0  0
    8.5168   14.9864    2.1774 H   0  0  0  0  0  0  0  0  0  0  0  0
    8.8133   16.7719    4.6331 H   0  0  0  0  0  0  0  0  0  0  0  0
   10.1399   16.2694    3.5586 H   0  0  0  0  0  0  0  0  0  0  0  0
   10.2649   16.0000    5.3146 H   0  0  0  0  0  0  0  0  0  0  0  0
    8.4988    9.5141    2.9339 H   0  0  0  0  0  0  0  0  0  0  0  0
    9.1327    9.2404    4.6024 H   0  0  0  0  0  0  0  0  0  0  0  0
    9.9507   10.4070    3.5285 H   0  0  0  0  0  0  0  0  0  0  0  0
    6.5034   11.2178   -1.3937 H   0  0  0  0  0  0  0  0  0  0  0  0
    7.5057    9.0784   -2.0714 H   0  0  0  0  0  0  0  0  0  0  0  0
  1  2  1  0
  1 30  1  0
  1 31  1  0
  1 32  1  0
  2  3  1  0
  2 33  1  0
  2 34  1  0
  3  4  2  0
  3 29  1  0
  4  5  1  0
  4 35  1  0
  5  6  2  0
  5 36  1  0
  6  7  1  0
  6 28  1  0
  7  8  2  0
  7 26  1  0
  8  9  1  0
  9 10  1  0
  9 25  2  0
 10 11  1  0
 11 12  1  0
 11 37  1  0
 11 38  1  0
 12 13  2  0
 12 14  1  0
 14 15  1  0
 14 39  1  0
 15 16  1  1
 15 17  1  0
 15 21  1  0
 17 18  1  0
 17 40  1  0
 17 41  1  0
 18 19  1  0
 18 20  1  0
 18 42  1  6
 19 43  1  0
 19 44  1  0
 19 45  1  0
 20 46  1  0
 20 47  1  0
 20 48  1  0
 21 22  2  0
 21 23  1  0
 23 24  1  0
 24 49  1  0
 24 50  1  0
 24 51  1  0
 25 26  1  0
 26 27  1  0
 28 29  2  0
 28 52  1  0
 29 53  1  0
M  END

