
     RDKit          3D

 68 71  0  0  0  0  0  0  0  0999 V2000
   10.4619    0.5057   -3.0855 C   0  0  0  0  0  0  0  0  0  0  0  0
    9.1641    0.3380   -2.2940 C   0  0  0  0  0  0  0  0  0  0  0  0
    9.3354    0.5478   -0.7863 C   0  0  0  0  0  0  0  0  0  0  0  0
    8.0394    0.3813    0.0127 C   0  0  0  0  0  0  0  0  0  0  0  0
    8.2195    0.5933    1.5183 C   0  0  0  0  0  0  0  0  0  0  0  0
    6.9117    0.4217    2.2936 C   0  0  0  0  0  0  0  0  0  0  0  0
    7.0875    0.5883    3.7438 N   0  0  0  0  0  0  0  0  0  0  0  0
    7.4211   -0.5033    4.4106 N   0  0  0  0  0  0  0  0  0  0  0  0
    7.6240   -0.4751    5.7010 C   0  0  0  0  0  0  0  0  0  0  0  0
    7.9729   -1.7980    6.3116 C   0  0  0  0  0  0  0  0  0  0  0  0
    8.1636   -1.9744    7.5034 O   0  0  0  0  0  0  0  0  0  0  0  0
    8.0535   -2.7824    5.4142 O   0  0  0  0  0  0  0  0  0  0  0  0
    8.5065   -4.0737    5.8543 C   0  0  0  0  0  0  0  0  0  0  0  0
    7.3756   -4.9783    6.3800 C   0  0  0  0  0  0  0  0  0  0  0  0
    7.0598   -5.9846    5.7685 O   0  0  0  0  0  0  0  0  0  0  0  0
    6.8260   -4.5553    7.5569 N   0  0  0  0  0  0  0  0  0  0  0  0
    5.7615   -5.1259    8.2860 C   0  0  0  0  0  0  0  0  0  0  0  0
    5.0957   -6.3016    7.9110 C   0  0  0  0  0  0  0  0  0  0  0  0
    4.0536   -6.8031    8.6949 C   0  0  0  0  0  0  0  0  0  0  0  0
    3.6198   -6.1543    9.8684 C   0  0  0  0  0  0  0  0  0  0  0  0
    2.5411   -6.6266   10.6399 N   0  0  0  0  0  0  0  0  0  0  0  0
    2.6809   -6.6535   12.0954 C   0  0  0  0  0  0  0  0  0  0  0  0
    1.3145   -6.7819   12.7613 C   0  0  0  0  0  0  0  0  0  0  0  0
    0.6127   -7.9105   12.2864 O   0  0  0  0  0  0  0  0  0  0  0  0
    0.4306   -7.8418   10.8887 C   0  0  0  0  0  0  0  0  0  0  0  0
    1.7613   -7.7506   10.1429 C   0  0  0  0  0  0  0  0  0  0  0  0
    4.2996   -4.9694   10.2293 C   0  0  0  0  0  0  0  0  0  0  0  0
    5.3442   -4.4723    9.4597 C   0  0  0  0  0  0  0  0  0  0  0  0
    7.5080    0.7538    6.4807 C   0  0  0  0  0  0  0  0  0  0  0  0
    7.7134    0.8642    7.8763 C   0  0  0  0  0  0  0  0  0  0  0  0
    7.5751    2.0945    8.5070 C   0  0  0  0  0  0  0  0  0  0  0  0
    7.2318    3.2485    7.7806 C   0  0  0  0  0  0  0  0  0  0  0  0
    7.0295    3.1623    6.4107 C   0  0  0  0  0  0  0  0  0  0  0  0
    7.1650    1.9247    5.7576 C   0  0  0  0  0  0  0  0  0  0  0  0
    6.9490    1.8759    4.3030 C   0  0  0  0  0  0  0  0  0  0  0  0
    6.6725    2.8321    3.5995 O   0  0  0  0  0  0  0  0  0  0  0  0
   10.3016    0.3485   -4.1640 H   0  0  0  0  0  0  0  0  0  0  0  0
   11.2292   -0.2144   -2.7549 H   0  0  0  0  0  0  0  0  0  0  0  0
   10.8828    1.5170   -2.9558 H   0  0  0  0  0  0  0  0  0  0  0  0
    8.7491   -0.6704   -2.4749 H   0  0  0  0  0  0  0  0  0  0  0  0
    8.4055    1.0462   -2.6744 H   0  0  0  0  0  0  0  0  0  0  0  0
    9.7490    1.5570   -0.6028 H   0  0  0  0  0  0  0  0  0  0  0  0
   10.0934   -0.1606   -0.4031 H   0  0  0  0  0  0  0  0  0  0  0  0
    7.6258   -0.6281   -0.1690 H   0  0  0  0  0  0  0  0  0  0  0  0
    7.2821    1.0908   -0.3688 H   0  0  0  0  0  0  0  0  0  0  0  0
    8.6154    1.6055    1.7078 H   0  0  0  0  0  0  0  0  0  0  0  0
    8.9613   -0.1230    1.9130 H   0  0  0  0  0  0  0  0  0  0  0  0
    6.4973   -0.5854    2.1469 H   0  0  0  0  0  0  0  0  0  0  0  0
    6.1740    1.1688    1.9723 H   0  0  0  0  0  0  0  0  0  0  0  0
    9.2925   -3.9472    6.6154 H   0  0  0  0  0  0  0  0  0  0  0  0
    8.9099   -4.5624    4.9614 H   0  0  0  0  0  0  0  0  0  0  0  0
    7.2303   -3.7036    7.9444 H   0  0  0  0  0  0  0  0  0  0  0  0
    5.4077   -6.8265    7.0109 H   0  0  0  0  0  0  0  0  0  0  0  0
    3.5839   -7.7327    8.3741 H   0  0  0  0  0  0  0  0  0  0  0  0
    3.1650   -5.7340   12.4501 H   0  0  0  0  0  0  0  0  0  0  0  0
    3.3195   -7.5071   12.4117 H   0  0  0  0  0  0  0  0  0  0  0  0
    0.7279   -5.8580   12.5753 H   0  0  0  0  0  0  0  0  0  0  0  0
    1.4318   -6.9065   13.8487 H   0  0  0  0  0  0  0  0  0  0  0  0
   -0.1933   -6.9622   10.6265 H   0  0  0  0  0  0  0  0  0  0  0  0
   -0.1096   -8.7521   10.5869 H   0  0  0  0  0  0  0  0  0  0  0  0
    1.5523   -7.6070    9.0722 H   0  0  0  0  0  0  0  0  0  0  0  0
    2.3084   -8.7130   10.2524 H   0  0  0  0  0  0  0  0  0  0  0  0
    3.9919   -4.4092   11.1136 H   0  0  0  0  0  0  0  0  0  0  0  0
    5.8396   -3.5465    9.7672 H   0  0  0  0  0  0  0  0  0  0  0  0
    7.9812   -0.0234    8.4442 H   0  0  0  0  0  0  0  0  0  0  0  0
    7.7376    2.1620    9.5858 H   0  0  0  0  0  0  0  0  0  0  0  0
    7.1266    4.2077    8.2931 H   0  0  0  0  0  0  0  0  0  0  0  0
    6.7652    4.0337    5.8091 H   0  0  0  0  0  0  0  0  0  0  0  0
  1  2  1  0
  1 37  1  0
  1 38  1  0
  1 39  1  0
  2  3  1  0
  2 40  1  0
  2 41  1  0
  3  4  1  0
  3 42  1  0
  3 43  1  0
  4  5  1  0
  4 44  1  0
  4 45  1  0
  5  6  1  0
  5 46  1  0
  5 47  1  0
  6  7  1  0
  6 48  1  0
  6 49  1  0
  7  8  1  0
  7 35  1  0
  8  9  2  0
  9 10  1  0
  9 29  1  0
 10 11  2  0
 10 12  1  0
 12 13  1  0
 13 14  1  0
 13 50  1  0
 13 51  1  0
 14 15  2  0
 14 16  1  0
 16 17  1  0
 16 52  1  0
 17 18  2  0
 17 28  1  0
 18 19  1  0
 18 53  1  0
 19 20  2  0
 19 54  1  0
 20 21  1  0
 20 27  1  0
 21 22  1  0
 21 26  1  0
 22 23  1  0
 22 55  1  0
 22 56  1  0
 23 24  1  0
 23 57  1  0
 23 58  1  0
 24 25  1  0
 25 26  1  0
 25 59  1  0
 25 60  1  0
 26 61  1  0
 26 62  1  0
 27 28  2  0
 27 63  1  0
 28 64  1  0
 29 30  1  0
 29 34  2  0
 30 31  2  0
 30 65  1  0
 31 32  1  0
 31 66  1  0
 32 33  2  0
 32 67  1  0
 33 34  1  0
 33 68  1  0
 34 35  1  0
 35 36  2  0
M  END

