
     RDKit          3D

 58 62  0  0  0  0  0  0  0  0999 V2000
    3.2490    1.0465   -1.8481 O   0  0  0  0  0  0  0  0  0  0  0  0
    3.5349    1.2318   -0.6954 C   0  0  0  0  0  0  0  0  0  0  0  0
    4.6923    1.8425   -0.3596 O   0  0  0  0  0  0  0  0  0  0  0  0
    2.6443    0.7746    0.4409 C   0  0  0  0  0  0  0  0  0  0  0  0
    3.2723    0.1165    1.4497 C   0  0  0  0  0  0  0  0  0  0  0  0
    2.9205   -0.9193    2.5208 C   0  0  0  0  0  0  0  0  0  0  0  0
    3.5230   -1.9631    2.3752 O   0  0  0  0  0  0  0  0  0  0  0  0
    1.9395   -0.7998    3.7468 C   0  0  1  0  0  0  0  0  0  0  0  0
    2.5500   -1.6593    4.8773 C   0  0  0  0  0  0  0  0  0  0  0  0
    1.8004   -1.7682    6.2117 C   0  0  0  0  0  0  0  0  0  0  0  0
    0.4829   -2.5726    6.2540 C   0  0  0  0  0  0  0  0  0  0  0  0
   -0.8345   -1.7917    6.0974 C   0  0  0  0  0  0  0  0  0  0  0  0
   -1.3720   -1.4698    4.6969 C   0  0  0  0  0  0  0  0  0  0  0  0
   -0.5339   -0.6035    3.7311 C   0  0  1  0  0  0  0  0  0  0  0  0
    0.0585    0.6868    4.3905 C   0  0  0  0  0  0  0  0  0  0  0  0
    1.5952    0.6372    4.2076 C   0  0  0  0  0  0  0  0  0  0  0  0
    0.6568   -1.3191    3.2366 N   0  0  0  0  0  0  0  0  0  0  0  0
   -1.4772   -0.2084    2.5245 C   0  0  0  0  0  0  0  0  0  0  0  0
   -2.6750   -0.3545    2.6168 O   0  0  0  0  0  0  0  0  0  0  0  0
   -0.8802    0.3651    1.2164 C   0  0  2  0  0  0  0  0  0  0  0  0
   -1.7623    1.5076    0.6455 C   0  0  0  0  0  0  0  0  0  0  0  0
   -1.3055    2.9195    1.0323 C   0  0  0  0  0  0  0  0  0  0  0  0
    0.1191    3.3262    0.5505 C   0  0  0  0  0  0  0  0  0  0  0  0
    0.8086    2.3619   -0.4271 C   0  0  0  0  0  0  0  0  0  0  0  0
    1.1477    0.9522    0.1901 C   0  0  1  0  0  0  0  0  0  0  0  0
    0.5535   -0.2367   -0.6767 C   0  0  0  0  0  0  0  0  0  0  0  0
   -0.6708   -0.7473    0.1345 C   0  0  0  0  0  0  0  0  0  0  0  0
    0.4760    0.8371    1.4780 N   0  0  0  0  0  0  0  0  0  0  0  0
    4.7111    2.0067    0.5946 H   0  0  0  0  0  0  0  0  0  0  0  0
    4.3618    0.0478    1.3380 H   0  0  0  0  0  0  0  0  0  0  0  0
    3.5555   -1.2529    5.0846 H   0  0  0  0  0  0  0  0  0  0  0  0
    2.7264   -2.6688    4.4748 H   0  0  0  0  0  0  0  0  0  0  0  0
    1.6314   -0.7683    6.6498 H   0  0  0  0  0  0  0  0  0  0  0  0
    2.5075   -2.2592    6.9009 H   0  0  0  0  0  0  0  0  0  0  0  0
    0.4386   -3.0578    7.2432 H   0  0  0  0  0  0  0  0  0  0  0  0
    0.5247   -3.4071    5.5295 H   0  0  0  0  0  0  0  0  0  0  0  0
   -0.7679   -0.8691    6.7014 H   0  0  0  0  0  0  0  0  0  0  0  0
   -1.6288   -2.3832    6.5838 H   0  0  0  0  0  0  0  0  0  0  0  0
   -2.3479   -0.9774    4.8129 H   0  0  0  0  0  0  0  0  0  0  0  0
   -1.6007   -2.4152    4.1712 H   0  0  0  0  0  0  0  0  0  0  0  0
   -0.2157    0.7117    5.4536 H   0  0  0  0  0  0  0  0  0  0  0  0
   -0.3530    1.5963    3.9329 H   0  0  0  0  0  0  0  0  0  0  0  0
    2.1248    0.8784    5.1405 H   0  0  0  0  0  0  0  0  0  0  0  0
    1.9051    1.3713    3.4546 H   0  0  0  0  0  0  0  0  0  0  0  0
    0.5854   -2.3323    3.2432 H   0  0  0  0  0  0  0  0  0  0  0  0
   -1.7838    1.4281   -0.4526 H   0  0  0  0  0  0  0  0  0  0  0  0
   -2.7976    1.3331    0.9747 H   0  0  0  0  0  0  0  0  0  0  0  0
   -1.3670    3.0381    2.1269 H   0  0  0  0  0  0  0  0  0  0  0  0
   -2.0462    3.6245    0.6186 H   0  0  0  0  0  0  0  0  0  0  0  0
    0.7745    3.4638    1.4235 H   0  0  0  0  0  0  0  0  0  0  0  0
    0.0635    4.3097    0.0535 H   0  0  0  0  0  0  0  0  0  0  0  0
    1.7208    2.8494   -0.7993 H   0  0  0  0  0  0  0  0  0  0  0  0
    0.1850    2.2247   -1.3228 H   0  0  0  0  0  0  0  0  0  0  0  0
    1.2968   -1.0343   -0.8114 H   0  0  0  0  0  0  0  0  0  0  0  0
    0.2822    0.1107   -1.6825 H   0  0  0  0  0  0  0  0  0  0  0  0
   -0.4324   -1.7050    0.6208 H   0  0  0  0  0  0  0  0  0  0  0  0
   -1.5680   -0.9033   -0.4828 H   0  0  0  0  0  0  0  0  0  0  0  0
    0.8950    0.0373    1.9387 H   0  0  0  0  0  0  0  0  0  0  0  0
  1  2  2  0
  2  3  1  0
  2  4  1  0
  3 29  1  0
  4  5  2  0
 25  4  1  1
  5  6  1  0
  5 30  1  0
  6  7  2  0
  8  6  1  6
  8  9  1  0
  8 16  1  0
  8 17  1  0
  9 10  1  0
  9 31  1  0
  9 32  1  0
 10 11  1  0
 10 33  1  0
 10 34  1  0
 11 12  1  0
 11 35  1  0
 11 36  1  0
 12 13  1  0
 12 37  1  0
 12 38  1  0
 13 14  1  0
 13 39  1  0
 13 40  1  0
 14 15  1  0
 14 17  1  0
 14 18  1  6
 15 16  1  0
 15 41  1  0
 15 42  1  0
 16 43  1  0
 16 44  1  0
 17 45  1  0
 18 19  2  0
 20 18  1  1
 20 21  1  0
 20 27  1  0
 20 28  1  0
 21 22  1  0
 21 46  1  0
 21 47  1  0
 22 23  1  0
 22 48  1  0
 22 49  1  0
 23 24  1  0
 23 50  1  0
 23 51  1  0
 24 25  1  0
 24 52  1  0
 24 53  1  0
 25 26  1  0
 25 28  1  0
 26 27  1  0
 26 54  1  0
 26 55  1  0
 27 56  1  0
 27 57  1  0
 28 58  1  0
M  END

