
     RDKit          3D

 29 31  0  0  0  0  0  0  0  0999 V2000
    0.8251    0.2747   -0.0073 O   0  0  0  0  0  0  0  0  0  0  0  0
    2.0262    0.1562   -0.0056 C   0  0  0  0  0  0  0  0  0  0  0  0
    2.6967   -1.2096    0.1539 C   0  0  0  0  0  0  0  0  0  0  0  0
    3.8787   -1.4252   -0.7686 C   0  0  0  0  0  0  0  0  0  0  0  0
    4.0540   -2.4359   -1.4028 O   0  0  0  0  0  0  0  0  0  0  0  0
    4.8632   -0.2357   -0.8944 C   0  0  2  0  0  0  0  0  0  0  0  0
    5.5024   -0.4649   -1.7567 H   0  0  0  0  0  0  0  0  0  0  0  0
    5.7559   -0.1720    0.2552 N   0  0  0  0  0  0  0  0  0  0  0  0
    7.1115   -0.2301    0.2677 C   0  0  0  0  0  0  0  0  0  0  0  0
    7.5621   -0.1442    1.5033 N   0  0  0  0  0  0  0  0  0  0  0  0
    6.4248   -0.0312    2.2343 C   0  0  0  0  0  0  0  0  0  0  0  0
    5.3055   -0.0428    1.5248 N   0  0  0  0  0  0  0  0  0  0  0  0
    4.0862    1.0879   -1.1692 C   0  0  2  0  0  0  0  0  0  0  0  0
    3.5881    0.9129   -2.1400 H   0  0  0  0  0  0  0  0  0  0  0  0
    5.0121    2.2660   -1.3343 C   0  0  0  0  0  0  0  0  0  0  0  0
    5.4402    3.1802   -0.3995 C   0  0  0  0  0  0  0  0  0  0  0  0
    6.3674    4.1328   -0.9240 C   0  0  0  0  0  0  0  0  0  0  0  0
    6.6384    3.9325   -2.2525 C   0  0  0  0  0  0  0  0  0  0  0  0
    5.7593    2.5816   -2.8810 S   0  0  0  0  0  0  0  0  0  0  0  0
    2.9746    1.3383   -0.1275 C   0  0  0  0  0  0  0  0  0  0  0  0
    1.9640   -2.0187    0.0394 H   0  0  0  0  0  0  0  0  0  0  0  0
    3.1080   -1.2182    1.1812 H   0  0  0  0  0  0  0  0  0  0  0  0
    7.7048   -0.3311   -0.6409 H   0  0  0  0  0  0  0  0  0  0  0  0
    6.4124    0.0595    3.3206 H   0  0  0  0  0  0  0  0  0  0  0  0
    5.1049    3.1776    0.6384 H   0  0  0  0  0  0  0  0  0  0  0  0
    6.8117    4.9364   -0.3347 H   0  0  0  0  0  0  0  0  0  0  0  0
    7.2958    4.5077   -2.9029 H   0  0  0  0  0  0  0  0  0  0  0  0
    2.3867    2.2278   -0.3912 H   0  0  0  0  0  0  0  0  0  0  0  0
    3.4283    1.4950    0.8650 H   0  0  0  0  0  0  0  0  0  0  0  0
  1  2  2  0
  2  3  1  0
  2 20  1  0
  3  4  1  0
  3 21  1  0
  3 22  1  0
  4  5  2  0
  4  6  1  0
  6  7  1  6
  6  8  1  0
  6 13  1  0
  8  9  1  0
  8 12  1  0
  9 10  2  0
  9 23  1  0
 10 11  1  0
 11 12  2  0
 11 24  1  0
 13 14  1  6
 13 15  1  0
 13 20  1  0
 15 16  2  0
 15 19  1  0
 16 17  1  0
 16 25  1  0
 17 18  2  0
 17 26  1  0
 18 19  1  0
 18 27  1  0
 20 28  1  0
 20 29  1  0
M  END

