
     RDKit          3D

 42 45  0  0  0  0  0  0  0  0999 V2000
    1.6129    0.5151   -0.1081 C   0  0  0  0  0  0  0  0  0  0  0  0
    3.1116    0.2410    0.1254 C   0  0  1  0  0  0  0  0  0  0  0  0
    3.2713   -0.3635    1.4512 N   0  0  0  0  0  0  0  0  0  0  0  0
    3.6033    0.4615    2.3209 N   0  0  0  0  0  0  0  0  0  0  0  0
    3.7487   -0.0584    3.6201 C   0  0  0  0  0  0  0  0  0  0  0  0
    3.6659   -1.2833    4.0275 N   0  0  0  0  0  0  0  0  0  0  0  0
    3.8885   -1.3665    5.3787 C   0  0  0  0  0  0  0  0  0  0  0  0
    3.8690   -2.5547    6.1372 C   0  0  0  0  0  0  0  0  0  0  0  0
    4.1083   -2.4961    7.5020 C   0  0  0  0  0  0  0  0  0  0  0  0
    4.3676   -1.2553    8.1124 C   0  0  0  0  0  0  0  0  0  0  0  0
    4.5949   -1.2333    9.4315 F   0  0  0  0  0  0  0  0  0  0  0  0
    4.3982   -0.0585    7.4093 C   0  0  0  0  0  0  0  0  0  0  0  0
    4.1560   -0.1260    6.0312 C   0  0  0  0  0  0  0  0  0  0  0  0
    4.1213    1.1578    4.8558 S   0  0  0  0  0  0  0  0  0  0  0  0
    3.6820   -0.7159   -0.8790 C   0  0  0  0  0  0  0  0  0  0  0  0
    4.1324   -2.0068   -0.8003 C   0  0  0  0  0  0  0  0  0  0  0  0
    4.5443   -2.3637   -2.1220 C   0  0  0  0  0  0  0  0  0  0  0  0
    4.3145   -1.2669   -2.9199 C   0  0  0  0  0  0  0  0  0  0  0  0
    4.5170   -0.9925   -4.3366 C   0  0  0  0  0  0  0  0  0  0  0  0
    5.0523   -1.9705   -5.1981 C   0  0  0  0  0  0  0  0  0  0  0  0
    5.2399   -1.6957   -6.5466 C   0  0  0  0  0  0  0  0  0  0  0  0
    4.8985   -0.4426   -7.0675 C   0  0  0  0  0  0  0  0  0  0  0  0
    5.1897   -0.2317   -8.7985 Cl  0  0  0  0  0  0  0  0  0  0  0  0
    4.3597    0.5651   -6.2432 C   0  0  0  0  0  0  0  0  0  0  0  0
    3.9274    1.9780   -6.6196 C   0  0  0  0  0  0  0  0  0  0  0  0
    3.4752    2.7240   -5.7889 O   0  0  0  0  0  0  0  0  0  0  0  0
    4.0564    2.3820   -7.8878 O   0  0  0  0  0  0  0  0  0  0  0  0
    4.1837    0.2548   -4.8845 C   0  0  0  0  0  0  0  0  0  0  0  0
    3.7876   -0.2636   -2.1538 O   0  0  0  0  0  0  0  0  0  0  0  0
    1.2522    1.2652    0.6114 H   0  0  0  0  0  0  0  0  0  0  0  0
    1.0292   -0.4095    0.0139 H   0  0  0  0  0  0  0  0  0  0  0  0
    1.4612    0.8992   -1.1274 H   0  0  0  0  0  0  0  0  0  0  0  0
    3.6597    1.2006    0.0813 H   0  0  0  0  0  0  0  0  0  0  0  0
    3.6639   -3.5018    5.6353 H   0  0  0  0  0  0  0  0  0  0  0  0
    4.1012   -3.3928    8.1243 H   0  0  0  0  0  0  0  0  0  0  0  0
    4.6047    0.8764    7.9320 H   0  0  0  0  0  0  0  0  0  0  0  0
    4.1597   -2.6135    0.1005 H   0  0  0  0  0  0  0  0  0  0  0  0
    4.9596   -3.3180   -2.4380 H   0  0  0  0  0  0  0  0  0  0  0  0
    5.3258   -2.9556   -4.8150 H   0  0  0  0  0  0  0  0  0  0  0  0
    5.6546   -2.4536   -7.2128 H   0  0  0  0  0  0  0  0  0  0  0  0
    4.4319    1.6869   -8.4553 H   0  0  0  0  0  0  0  0  0  0  0  0
    3.7677    1.0397   -4.2537 H   0  0  0  0  0  0  0  0  0  0  0  0
  1  2  1  0
  1 30  1  0
  1 31  1  0
  1 32  1  0
  2  3  1  0
  2 15  1  0
  2 33  1  1
  3  4  2  0
  4  5  1  0
  5  6  2  0
  5 14  1  0
  6  7  1  0
  7  8  2  0
  7 13  1  0
  8  9  1  0
  8 34  1  0
  9 10  2  0
  9 35  1  0
 10 11  1  0
 10 12  1  0
 12 13  2  0
 12 36  1  0
 13 14  1  0
 15 16  2  0
 15 29  1  0
 16 17  1  0
 16 37  1  0
 17 18  2  0
 17 38  1  0
 18 19  1  0
 18 29  1  0
 19 20  2  0
 19 28  1  0
 20 21  1  0
 20 39  1  0
 21 22  2  0
 21 40  1  0
 22 23  1  0
 22 24  1  0
 24 25  1  0
 24 28  2  0
 25 26  2  0
 25 27  1  0
 27 41  1  0
 28 42  1  0
M  END

