
     RDKit          3D

 55 56  0  0  0  0  0  0  0  0999 V2000
   10.1096    2.9687   -3.7232 C   0  0  0  0  0  0  0  0  0  0  0  0
    9.2487    1.7561   -3.3426 C   0  0  1  0  0  0  0  0  0  0  0  0
    9.7135    0.4979   -4.0892 C   0  0  0  0  0  0  0  0  0  0  0  0
    9.2071    1.4708   -1.8306 C   0  0  0  0  0  0  0  0  0  0  0  0
    8.5723    2.5491   -0.9129 C   0  0  2  0  0  0  0  0  0  0  0  0
    8.5162    2.0891    0.0923 H   0  0  0  0  0  0  0  0  0  0  0  0
    7.2262    2.9071   -1.2968 N   0  0  0  0  0  0  0  0  0  0  0  0
    6.1725    2.1155   -0.9634 C   0  0  0  0  0  0  0  0  0  0  0  0
    6.2897    1.0549   -0.3661 O   0  0  0  0  0  0  0  0  0  0  0  0
    4.7978    2.6563   -1.3938 C   0  0  0  0  0  0  0  0  0  0  0  0
    4.6042    2.7003   -2.8341 N   0  0  0  0  0  0  0  0  0  0  0  0
    5.0519    3.7508   -3.5821 C   0  0  0  0  0  0  0  0  0  0  0  0
    5.6756    4.6749   -3.0635 O   0  0  0  0  0  0  0  0  0  0  0  0
    4.7438    3.7355   -5.0486 C   0  0  0  0  0  0  0  0  0  0  0  0
    4.9505    4.9243   -5.7612 C   0  0  0  0  0  0  0  0  0  0  0  0
    4.6921    5.0094   -7.1293 C   0  0  0  0  0  0  0  0  0  0  0  0
    4.2241    3.8787   -7.8204 C   0  0  0  0  0  0  0  0  0  0  0  0
    3.9450    3.8472   -9.1432 O   0  0  0  0  0  0  0  0  0  0  0  0
    4.1025    5.0195   -9.9277 C   0  0  0  0  0  0  0  0  0  0  0  0
    3.6881    4.7382  -11.3525 C   0  0  0  0  0  0  0  0  0  0  0  0
    2.6482    3.8430  -11.6418 C   0  0  0  0  0  0  0  0  0  0  0  0
    2.2454    3.6313  -12.9628 C   0  0  0  0  0  0  0  0  0  0  0  0
    2.8717    4.3148  -14.0098 C   0  0  0  0  0  0  0  0  0  0  0  0
    3.9095    5.2077  -13.7287 C   0  0  0  0  0  0  0  0  0  0  0  0
    4.3177    5.4130  -12.4078 C   0  0  0  0  0  0  0  0  0  0  0  0
    4.0297    2.6733   -7.1197 C   0  0  0  0  0  0  0  0  0  0  0  0
    4.2862    2.6071   -5.7564 C   0  0  0  0  0  0  0  0  0  0  0  0
    9.4008    3.8288   -0.7545 C   0  0  0  0  0  0  0  0  0  0  0  0
    8.9781    4.9344   -0.9546 O   0  0  0  0  0  0  0  0  0  0  0  0
   10.6725    3.6410   -0.3443 O   0  0  0  0  0  0  0  0  0  0  0  0
   10.1637    3.0749   -4.8185 H   0  0  0  0  0  0  0  0  0  0  0  0
   11.1425    2.8617   -3.3494 H   0  0  0  0  0  0  0  0  0  0  0  0
    9.7041    3.9116   -3.3285 H   0  0  0  0  0  0  0  0  0  0  0  0
    8.2112    1.9680   -3.6575 H   0  0  0  0  0  0  0  0  0  0  0  0
   10.7517    0.2368   -3.8190 H   0  0  0  0  0  0  0  0  0  0  0  0
    9.6849    0.6500   -5.1800 H   0  0  0  0  0  0  0  0  0  0  0  0
    9.0798   -0.3723   -3.8532 H   0  0  0  0  0  0  0  0  0  0  0  0
   10.2300    1.2393   -1.4734 H   0  0  0  0  0  0  0  0  0  0  0  0
    8.6223    0.5544   -1.6554 H   0  0  0  0  0  0  0  0  0  0  0  0
    7.0572    3.8183   -1.7306 H   0  0  0  0  0  0  0  0  0  0  0  0
    4.6674    3.6743   -0.9922 H   0  0  0  0  0  0  0  0  0  0  0  0
    4.0470    1.9913   -0.9496 H   0  0  0  0  0  0  0  0  0  0  0  0
    4.0595    1.9665   -3.2656 H   0  0  0  0  0  0  0  0  0  0  0  0
    5.3244    5.7911   -5.2131 H   0  0  0  0  0  0  0  0  0  0  0  0
    4.8620    5.9542   -7.6452 H   0  0  0  0  0  0  0  0  0  0  0  0
    5.1524    5.3634   -9.8976 H   0  0  0  0  0  0  0  0  0  0  0  0
    3.4798    5.8322   -9.5040 H   0  0  0  0  0  0  0  0  0  0  0  0
    2.1637    3.3043  -10.8254 H   0  0  0  0  0  0  0  0  0  0  0  0
    1.4368    2.9272  -13.1759 H   0  0  0  0  0  0  0  0  0  0  0  0
    2.5550    4.1481  -15.0425 H   0  0  0  0  0  0  0  0  0  0  0  0
    4.4107    5.7405  -14.5409 H   0  0  0  0  0  0  0  0  0  0  0  0
    5.1391    6.1044  -12.1966 H   0  0  0  0  0  0  0  0  0  0  0  0
    3.6840    1.7996   -7.6753 H   0  0  0  0  0  0  0  0  0  0  0  0
    4.1469    1.6453   -5.2555 H   0  0  0  0  0  0  0  0  0  0  0  0
   10.8588    2.6980   -0.2285 H   0  0  0  0  0  0  0  0  0  0  0  0
  1  2  1  0
  1 31  1  0
  1 32  1  0
  1 33  1  0
  2  3  1  0
  2  4  1  0
  2 34  1  6
  3 35  1  0
  3 36  1  0
  3 37  1  0
  4  5  1  0
  4 38  1  0
  4 39  1  0
  5  6  1  1
  5  7  1  0
  5 28  1  0
  7  8  1  0
  7 40  1  0
  8  9  2  0
  8 10  1  0
 10 11  1  0
 10 41  1  0
 10 42  1  0
 11 12  1  0
 11 43  1  0
 12 13  2  0
 12 14  1  0
 14 15  2  0
 14 27  1  0
 15 16  1  0
 15 44  1  0
 16 17  2  0
 16 45  1  0
 17 18  1  0
 17 26  1  0
 18 19  1  0
 19 20  1  0
 19 46  1  0
 19 47  1  0
 20 21  2  0
 20 25  1  0
 21 22  1  0
 21 48  1  0
 22 23  2  0
 22 49  1  0
 23 24  1  0
 23 50  1  0
 24 25  2  0
 24 51  1  0
 25 52  1  0
 26 27  2  0
 26 53  1  0
 27 54  1  0
 28 29  2  0
 28 30  1  0
 30 55  1  0
M  END

