
     RDKit          3D

116122  0  0  0  0  0  0  0  0999 V2000
   -3.0468   17.4713  -12.3426 C   0  0  0  0  0  0  0  0  0  0  0  0
   -4.0954   16.6010  -12.9784 C   0  0  0  0  0  0  0  0  0  0  0  0
   -5.2790   17.0501  -13.5397 C   0  0  0  0  0  0  0  0  0  0  0  0
   -5.9194   15.9725  -14.2125 C   0  0  0  0  0  0  0  0  0  0  0  0
   -7.2196   16.0697  -14.7362 C   0  0  0  0  0  0  0  0  0  0  0  0
   -8.0878   15.0949  -15.2168 C   0  0  0  0  0  0  0  0  0  0  0  0
   -9.4110   15.3360  -15.6618 C   0  0  0  0  0  0  0  0  0  0  0  0
  -10.0230   16.6347  -15.7568 C   0  0  0  0  0  0  0  0  0  0  0  0
  -11.3298   16.8084  -16.1615 C   0  0  0  0  0  0  0  0  0  0  0  0
  -12.1330   15.7000  -16.5167 C   0  0  0  0  0  0  0  0  0  0  0  0
  -13.5608   15.9449  -16.9233 N   0  0  2  0  0  0  0  0  0  0  0  0
  -14.2763   14.6766  -17.2711 C   0  0  0  0  0  0  0  0  0  0  0  0
  -13.6111   16.8429  -18.1350 C   0  0  0  0  0  0  0  0  0  0  0  0
  -14.3175   16.5987  -15.7920 C   0  0  0  0  0  0  0  0  0  0  0  0
  -11.5669   14.4066  -16.4567 C   0  0  0  0  0  0  0  0  0  0  0  0
  -10.2561   14.2424  -16.0491 C   0  0  0  0  0  0  0  0  0  0  0  0
   -5.0782   14.8636  -14.1021 N   0  0  0  0  0  0  0  0  0  0  0  0
   -4.0021   15.2034  -13.3219 C   0  0  0  0  0  0  0  0  0  0  0  0
   -2.9409   14.2552  -13.0789 C   0  0  0  0  0  0  0  0  0  0  0  0
   -2.3243   14.0913  -11.7759 C   0  0  0  0  0  0  0  0  0  0  0  0
   -1.4105   13.0319  -11.4857 C   0  0  0  0  0  0  0  0  0  0  0  0
   -0.8438   12.8549  -10.2347 C   0  0  0  0  0  0  0  0  0  0  0  0
   -1.1680   13.7005   -9.1469 C   0  0  0  0  0  0  0  0  0  0  0  0
   -0.5805   13.5260   -7.8630 C   0  0  0  0  0  0  0  0  0  0  0  0
   -0.0771   13.3761   -6.7614 C   0  0  0  0  0  0  0  0  0  0  0  0
    0.4992   13.1723   -5.4439 C   0  0  0  0  0  0  0  0  0  0  0  0
    1.7006   13.9473   -5.2787 O   0  0  0  0  0  0  0  0  0  0  0  0
    2.5033   13.5877   -4.2194 C   0  0  2  0  0  0  0  0  0  0  0  0
    2.6742   12.4853   -4.2082 H   0  0  0  0  0  0  0  0  0  0  0  0
    1.9054   13.9690   -2.9887 O   0  0  0  0  0  0  0  0  0  0  0  0
    2.6796   13.6256   -1.8395 C   0  0  2  0  0  0  0  0  0  0  0  0
    2.8530   12.5304   -1.8206 H   0  0  0  0  0  0  0  0  0  0  0  0
    1.8424   14.0024   -0.6247 C   0  0  0  0  0  0  0  0  0  0  0  0
    0.6036   13.3375   -0.6251 O   0  0  0  0  0  0  0  0  0  0  0  0
    4.0371   14.3349   -1.8942 C   0  0  1  0  0  0  0  0  0  0  0  0
    3.8585   15.4301   -1.8750 H   0  0  0  0  0  0  0  0  0  0  0  0
    4.8105   13.9293   -0.7869 O   0  0  0  0  0  0  0  0  0  0  0  0
    4.7417   14.0053   -3.2062 C   0  0  2  0  0  0  0  0  0  0  0  0
    5.9501   14.7381   -3.2452 O   0  0  0  0  0  0  0  0  0  0  0  0
    3.8392   14.3138   -4.3906 C   0  0  1  0  0  0  0  0  0  0  0  0
    3.6151   15.3987   -4.4018 H   0  0  0  0  0  0  0  0  0  0  0  0
    4.5107   13.9149   -5.5644 O   0  0  0  0  0  0  0  0  0  0  0  0
   -2.1458   14.6950   -9.3884 C   0  0  0  0  0  0  0  0  0  0  0  0
   -2.7097   14.8692  -10.6409 C   0  0  0  0  0  0  0  0  0  0  0  0
   -2.6996   13.3452  -14.1733 C   0  0  0  0  0  0  0  0  0  0  0  0
   -1.4581   12.8391  -14.7050 C   0  0  0  0  0  0  0  0  0  0  0  0
   -0.0576   13.2095  -14.3019 C   0  0  0  0  0  0  0  0  0  0  0  0
   -1.8008   12.0861  -15.8156 C   0  0  0  0  0  0  0  0  0  0  0  0
   -3.2135   12.1073  -15.9805 C   0  0  0  0  0  0  0  0  0  0  0  0
   -3.8829   11.2995  -16.9151 C   0  0  0  0  0  0  0  0  0  0  0  0
   -5.2347   11.0097  -17.0688 C   0  0  0  0  0  0  0  0  0  0  0  0
   -5.7682   10.1174  -18.0311 C   0  0  0  0  0  0  0  0  0  0  0  0
   -5.0069    9.4433  -19.0470 C   0  0  0  0  0  0  0  0  0  0  0  0
   -5.5734    8.5511  -19.9380 C   0  0  0  0  0  0  0  0  0  0  0  0
   -6.9557    8.2717  -19.8895 C   0  0  0  0  0  0  0  0  0  0  0  0
   -7.6159    7.2891  -20.8177 N   0  0  2  0  0  0  0  0  0  0  0  0
   -6.6482    6.6839  -21.7880 C   0  0  0  0  0  0  0  0  0  0  0  0
   -8.6941    7.9746  -21.6198 C   0  0  0  0  0  0  0  0  0  0  0  0
   -8.2305    6.1609  -20.0249 C   0  0  0  0  0  0  0  0  0  0  0  0
   -7.7475    8.9292  -18.9167 C   0  0  0  0  0  0  0  0  0  0  0  0
   -7.1729    9.8168  -18.0309 C   0  0  0  0  0  0  0  0  0  0  0  0
   -3.7297   12.9362  -14.9824 N   0  0  0  0  0  0  0  0  0  0  0  0
   -5.1691   13.5336  -14.9125 B   0  0  1  0  0  0  0  0  0  0  0  0
   -6.0742   12.6315  -14.3226 F   0  0  0  0  0  0  0  0  0  0  0  0
   -5.5985   13.8252  -16.2084 F   0  0  0  0  0  0  0  0  0  0  0  0
   -2.0444   17.0308  -12.4467 H   0  0  0  0  0  0  0  0  0  0  0  0
   -3.2077   17.6426  -11.2646 H   0  0  0  0  0  0  0  0  0  0  0  0
   -3.0346   18.4611  -12.8279 H   0  0  0  0  0  0  0  0  0  0  0  0
   -5.6712   18.0673  -13.4974 H   0  0  0  0  0  0  0  0  0  0  0  0
   -7.5993   17.0959  -14.6779 H   0  0  0  0  0  0  0  0  0  0  0  0
   -7.7555   14.0574  -15.2137 H   0  0  0  0  0  0  0  0  0  0  0  0
   -9.4424   17.5229  -15.5036 H   0  0  0  0  0  0  0  0  0  0  0  0
  -11.7215   17.8293  -16.2009 H   0  0  0  0  0  0  0  0  0  0  0  0
  -13.7606   14.1893  -18.1051 H   0  0  0  0  0  0  0  0  0  0  0  0
  -15.3051   14.9264  -17.5592 H   0  0  0  0  0  0  0  0  0  0  0  0
  -14.2820   14.0146  -16.3988 H   0  0  0  0  0  0  0  0  0  0  0  0
  -13.0749   16.3444  -18.9505 H   0  0  0  0  0  0  0  0  0  0  0  0
  -13.1110   17.7874  -17.9000 H   0  0  0  0  0  0  0  0  0  0  0  0
  -14.6584   17.0298  -18.4134 H   0  0  0  0  0  0  0  0  0  0  0  0
  -14.2844   15.9261  -14.9274 H   0  0  0  0  0  0  0  0  0  0  0  0
  -15.3562   16.7860  -16.1009 H   0  0  0  0  0  0  0  0  0  0  0  0
  -13.8256   17.5414  -15.5333 H   0  0  0  0  0  0  0  0  0  0  0  0
  -12.1320   13.5128  -16.7222 H   0  0  0  0  0  0  0  0  0  0  0  0
   -9.8408   13.2325  -16.0088 H   0  0  0  0  0  0  0  0  0  0  0  0
   -1.1822   12.3020  -12.2581 H   0  0  0  0  0  0  0  0  0  0  0  0
   -0.1461   12.0288  -10.0738 H   0  0  0  0  0  0  0  0  0  0  0  0
    0.7436   12.1014   -5.2893 H   0  0  0  0  0  0  0  0  0  0  0  0
   -0.2217   13.4565   -4.6559 H   0  0  0  0  0  0  0  0  0  0  0  0
    1.7222   15.1061   -0.6106 H   0  0  0  0  0  0  0  0  0  0  0  0
    2.3883   13.7143    0.2856 H   0  0  0  0  0  0  0  0  0  0  0  0
    0.2139   13.4991   -1.4967 H   0  0  0  0  0  0  0  0  0  0  0  0
    5.7076   14.2575   -0.9460 H   0  0  0  0  0  0  0  0  0  0  0  0
    4.9544   12.9158   -3.2138 H   0  0  0  0  0  0  0  0  0  0  0  0
    6.3366   14.5967   -4.1215 H   0  0  0  0  0  0  0  0  0  0  0  0
    3.9028   14.0676   -6.3034 H   0  0  0  0  0  0  0  0  0  0  0  0
   -2.4773   15.3244   -8.5583 H   0  0  0  0  0  0  0  0  0  0  0  0
   -3.5112   15.5962  -10.7439 H   0  0  0  0  0  0  0  0  0  0  0  0
   -0.0362   14.1679  -13.7627 H   0  0  0  0  0  0  0  0  0  0  0  0
    0.5774   13.3098  -15.1974 H   0  0  0  0  0  0  0  0  0  0  0  0
    0.4256   12.4654  -13.6460 H   0  0  0  0  0  0  0  0  0  0  0  0
   -1.1132   11.5608  -16.4802 H   0  0  0  0  0  0  0  0  0  0  0  0
   -3.1792   10.7763  -17.5723 H   0  0  0  0  0  0  0  0  0  0  0  0
   -5.9432   11.4592  -16.3737 H   0  0  0  0  0  0  0  0  0  0  0  0
   -3.9365    9.6359  -19.1318 H   0  0  0  0  0  0  0  0  0  0  0  0
   -4.9144    8.0845  -20.6707 H   0  0  0  0  0  0  0  0  0  0  0  0
   -6.1999    7.4787  -22.3934 H   0  0  0  0  0  0  0  0  0  0  0  0
   -7.1953    5.9839  -22.4316 H   0  0  0  0  0  0  0  0  0  0  0  0
   -5.8672    6.1520  -21.2348 H   0  0  0  0  0  0  0  0  0  0  0  0
   -8.2261    8.7745  -22.2048 H   0  0  0  0  0  0  0  0  0  0  0  0
   -9.4252    8.4113  -20.9327 H   0  0  0  0  0  0  0  0  0  0  0  0
   -9.1846    7.2447  -22.2802 H   0  0  0  0  0  0  0  0  0  0  0  0
   -7.4301    5.6632  -19.4657 H   0  0  0  0  0  0  0  0  0  0  0  0
   -8.7258    5.4552  -20.7075 H   0  0  0  0  0  0  0  0  0  0  0  0
   -8.9565    6.5767  -19.3195 H   0  0  0  0  0  0  0  0  0  0  0  0
   -8.8241    8.7490  -18.8413 H   0  0  0  0  0  0  0  0  0  0  0  0
   -7.8051   10.3091  -17.2879 H   0  0  0  0  0  0  0  0  0  0  0  0
  1  2  1  0
  1 66  1  0
  1 67  1  0
  1 68  1  0
  2  3  1  0
  2 18  1  0
  3  4  2  0
  3 69  1  0
  4  5  1  0
  4 17  1  0
  5  6  2  0
  5 70  1  0
  6  7  1  0
  6 71  1  0
  7  8  2  0
  7 16  1  0
  8  9  1  0
  8 72  1  0
  9 10  2  0
  9 73  1  0
 10 11  1  0
 10 15  1  0
 11 12  1  6
 11 13  1  0
 11 14  1  0
 12 74  1  0
 12 75  1  0
 12 76  1  0
 13 77  1  0
 13 78  1  0
 13 79  1  0
 14 80  1  0
 14 81  1  0
 14 82  1  0
 15 16  2  0
 15 83  1  0
 16 84  1  0
 17 18  1  0
 17 63  1  0
 18 19  2  0
 19 20  1  0
 19 45  1  0
 20 21  2  0
 20 44  1  0
 21 22  1  0
 21 85  1  0
 22 23  2  0
 22 86  1  0
 23 24  1  0
 23 43  1  0
 24 25  3  0
 25 26  1  0
 26 27  1  0
 26 87  1  0
 26 88  1  0
 27 28  1  0
 28 29  1  1
 28 30  1  0
 28 40  1  0
 30 31  1  0
 31 32  1  1
 31 33  1  0
 31 35  1  0
 33 34  1  0
 33 89  1  0
 33 90  1  0
 34 91  1  0
 35 36  1  1
 35 37  1  0
 35 38  1  0
 37 92  1  0
 38 39  1  0
 38 40  1  0
 38 93  1  1
 39 94  1  0
 40 41  1  6
 40 42  1  0
 42 95  1  0
 43 44  2  0
 43 96  1  0
 44 97  1  0
 45 46  2  0
 45 62  1  0
 46 47  1  0
 46 48  1  0
 47 98  1  0
 47 99  1  0
 47100  1  0
 48 49  2  0
 48101  1  0
 49 50  1  0
 49 62  1  0
 50 51  2  0
 50102  1  0
 51 52  1  0
 51103  1  0
 52 53  2  0
 52 61  1  0
 53 54  1  0
 53104  1  0
 54 55  2  0
 54105  1  0
 55 56  1  0
 55 60  1  0
 56 57  1  6
 56 58  1  0
 56 59  1  0
 57106  1  0
 57107  1  0
 57108  1  0
 58109  1  0
 58110  1  0
 58111  1  0
 59112  1  0
 59113  1  0
 59114  1  0
 60 61  2  0
 60115  1  0
 61116  1  0
 62 63  1  0
 63 64  1  1
 63 65  1  0
M  CHG  4   2  -1  11   1  56   1  63  -1
M  END

