
     RDKit          3D

 36 37  0  0  0  0  0  0  0  0999 V2000
    0.6836    0.2092    0.4544 C   0  0  0  0  0  0  0  0  0  0  0  0
    1.9474    0.1189    1.0691 O   0  0  0  0  0  0  0  0  0  0  0  0
    2.8684    1.0844    0.8517 C   0  0  0  0  0  0  0  0  0  0  0  0
    2.6534    2.2050    0.0297 C   0  0  0  0  0  0  0  0  0  0  0  0
    3.6583    3.1584   -0.1467 C   0  0  0  0  0  0  0  0  0  0  0  0
    3.5301    4.2662   -0.9360 O   0  0  0  0  0  0  0  0  0  0  0  0
    2.3034    4.5376   -1.5791 C   0  0  0  0  0  0  0  0  0  0  0  0
    4.9100    3.0255    0.5035 C   0  0  0  0  0  0  0  0  0  0  0  0
    5.8336    4.0574    0.2472 N   0  0  0  0  0  0  0  0  0  0  0  0
    7.1157    4.2696    0.6513 C   0  0  0  0  0  0  0  0  0  0  0  0
    8.0010    3.3674    1.7459 S   0  0  0  0  0  0  0  0  0  0  0  0
    7.7176    5.3934    0.1028 N   0  0  0  0  0  0  0  0  0  0  0  0
    7.3631    6.2216   -0.9677 C   0  0  0  0  0  0  0  0  0  0  0  0
    6.6723    5.7697   -2.1105 C   0  0  0  0  0  0  0  0  0  0  0  0
    6.3669    6.6278   -3.1673 C   0  0  0  0  0  0  0  0  0  0  0  0
    6.7782    7.9557   -3.1065 C   0  0  0  0  0  0  0  0  0  0  0  0
    6.4940    8.7855   -4.1188 F   0  0  0  0  0  0  0  0  0  0  0  0
    7.4915    8.4408   -2.0138 C   0  0  0  0  0  0  0  0  0  0  0  0
    7.7717    7.5779   -0.9551 C   0  0  0  0  0  0  0  0  0  0  0  0
    8.6742    8.1906    0.4116 Cl  0  0  0  0  0  0  0  0  0  0  0  0
    5.1170    1.9095    1.3214 C   0  0  0  0  0  0  0  0  0  0  0  0
    4.1149    0.9544    1.4896 C   0  0  0  0  0  0  0  0  0  0  0  0
    4.4095   -0.4253    2.5166 Cl  0  0  0  0  0  0  0  0  0  0  0  0
    0.1167   -0.6738    0.7779 H   0  0  0  0  0  0  0  0  0  0  0  0
    0.7592    0.1991   -0.6483 H   0  0  0  0  0  0  0  0  0  0  0  0
    0.1367    1.1175    0.7670 H   0  0  0  0  0  0  0  0  0  0  0  0
    1.6997    2.3279   -0.4772 H   0  0  0  0  0  0  0  0  0  0  0  0
    2.4386    5.4806   -2.1250 H   0  0  0  0  0  0  0  0  0  0  0  0
    1.4812    4.6572   -0.8518 H   0  0  0  0  0  0  0  0  0  0  0  0
    2.0359    3.7423   -2.2971 H   0  0  0  0  0  0  0  0  0  0  0  0
    5.4103    4.7944   -0.3118 H   0  0  0  0  0  0  0  0  0  0  0  0
    8.5605    5.6521    0.6076 H   0  0  0  0  0  0  0  0  0  0  0  0
    6.3844    4.7213   -2.1847 H   0  0  0  0  0  0  0  0  0  0  0  0
    5.8322    6.2682   -4.0480 H   0  0  0  0  0  0  0  0  0  0  0  0
    7.8169    9.4810   -1.9869 H   0  0  0  0  0  0  0  0  0  0  0  0
    6.0694    1.7945    1.8339 H   0  0  0  0  0  0  0  0  0  0  0  0
  1  2  1  0
  1 24  1  0
  1 25  1  0
  1 26  1  0
  2  3  1  0
  3  4  2  0
  3 22  1  0
  4  5  1  0
  4 27  1  0
  5  6  1  0
  5  8  2  0
  6  7  1  0
  7 28  1  0
  7 29  1  0
  7 30  1  0
  8  9  1  0
  8 21  1  0
  9 10  1  0
  9 31  1  0
 10 11  2  0
 10 12  1  0
 12 13  1  0
 12 32  1  0
 13 14  2  0
 13 19  1  0
 14 15  1  0
 14 33  1  0
 15 16  2  0
 15 34  1  0
 16 17  1  0
 16 18  1  0
 18 19  2  0
 18 35  1  0
 19 20  1  0
 21 22  2  0
 21 36  1  0
 22 23  1  0
M  END

