
     RDKit          3D

 57 61  0  0  0  0  0  0  0  0999 V2000
    1.7999   -0.0248   -1.2775 O   0  0  0  0  0  0  0  0  0  0  0  0
    2.8567   -0.1108   -0.6964 C   0  0  0  0  0  0  0  0  0  0  0  0
    3.6348   -1.3232   -0.3302 C   0  0  0  0  0  0  0  0  0  0  0  0
    3.0893   -2.6702   -0.5750 C   0  0  0  0  0  0  0  0  0  0  0  0
    3.1386   -3.6682    0.4206 C   0  0  0  0  0  0  0  0  0  0  0  0
    2.5909   -4.9327    0.1995 C   0  0  0  0  0  0  0  0  0  0  0  0
    1.9716   -5.2275   -1.0191 C   0  0  0  0  0  0  0  0  0  0  0  0
    1.8984   -4.2430   -2.0094 C   0  0  0  0  0  0  0  0  0  0  0  0
    2.4462   -2.9777   -1.7914 C   0  0  0  0  0  0  0  0  0  0  0  0
    4.7654   -0.9064    0.3386 C   0  0  0  0  0  0  0  0  0  0  0  0
    5.8674   -1.5907    0.7534 N   0  0  0  0  0  0  0  0  0  0  0  0
    6.2447   -2.8885    0.2093 C   0  0  0  0  0  0  0  0  0  0  0  0
    7.7292   -2.9033   -0.1745 C   0  0  0  0  0  0  0  0  0  0  0  0
    8.5679   -2.5037    0.9413 N   0  0  0  0  0  0  0  0  0  0  0  0
    9.9327   -2.8566    0.9316 C   0  0  0  0  0  0  0  0  0  0  0  0
   10.5537   -3.4284   -0.1982 C   0  0  0  0  0  0  0  0  0  0  0  0
   11.8991   -3.8085   -0.1623 C   0  0  0  0  0  0  0  0  0  0  0  0
   12.6684   -3.6169    0.9854 C   0  0  0  0  0  0  0  0  0  0  0  0
   12.0651   -3.0421    2.1102 C   0  0  0  0  0  0  0  0  0  0  0  0
   10.7221   -2.6727    2.0893 C   0  0  0  0  0  0  0  0  0  0  0  0
    8.1881   -1.1963    1.4736 C   0  0  0  0  0  0  0  0  0  0  0  0
    6.7158   -1.1711    1.8707 C   0  0  0  0  0  0  0  0  0  0  0  0
    4.7204    0.6191    0.4312 C   0  0  0  0  0  0  0  0  0  0  0  0
    5.5412    1.3650    0.9308 O   0  0  0  0  0  0  0  0  0  0  0  0
    3.5653    1.0123   -0.2018 N   0  0  0  0  0  0  0  0  0  0  0  0
    3.1111    2.3915   -0.3287 C   0  0  0  0  0  0  0  0  0  0  0  0
    3.5839    3.0870   -1.5949 C   0  0  0  0  0  0  0  0  0  0  0  0
    4.9592    3.3044   -1.7944 C   0  0  0  0  0  0  0  0  0  0  0  0
    5.4428    3.9318   -2.9421 C   0  0  0  0  0  0  0  0  0  0  0  0
    4.5476    4.3672   -3.9241 C   0  0  0  0  0  0  0  0  0  0  0  0
    3.1777    4.1777   -3.7476 C   0  0  0  0  0  0  0  0  0  0  0  0
    2.7040    3.5442   -2.5919 C   0  0  0  0  0  0  0  0  0  0  0  0
    0.9673    3.3597   -2.4270 Cl  0  0  0  0  0  0  0  0  0  0  0  0
    3.5913   -3.4380    1.3877 H   0  0  0  0  0  0  0  0  0  0  0  0
    2.6373   -5.6882    0.9883 H   0  0  0  0  0  0  0  0  0  0  0  0
    1.5400   -6.2166   -1.1921 H   0  0  0  0  0  0  0  0  0  0  0  0
    1.4079   -4.4606   -2.9617 H   0  0  0  0  0  0  0  0  0  0  0  0
    2.3725   -2.2126   -2.5651 H   0  0  0  0  0  0  0  0  0  0  0  0
    5.6406   -3.1044   -0.6788 H   0  0  0  0  0  0  0  0  0  0  0  0
    6.0535   -3.6872    0.9500 H   0  0  0  0  0  0  0  0  0  0  0  0
    7.8786   -2.2493   -1.0620 H   0  0  0  0  0  0  0  0  0  0  0  0
    7.9855   -3.9298   -0.4737 H   0  0  0  0  0  0  0  0  0  0  0  0
    9.9956   -3.5702   -1.1237 H   0  0  0  0  0  0  0  0  0  0  0  0
   12.3494   -4.2494   -1.0560 H   0  0  0  0  0  0  0  0  0  0  0  0
   13.7202   -3.9107    1.0072 H   0  0  0  0  0  0  0  0  0  0  0  0
   12.6445   -2.8910    3.0250 H   0  0  0  0  0  0  0  0  0  0  0  0
   10.2709   -2.2602    2.9935 H   0  0  0  0  0  0  0  0  0  0  0  0
    8.3683   -0.3969    0.7236 H   0  0  0  0  0  0  0  0  0  0  0  0
    8.7941   -0.9579    2.3563 H   0  0  0  0  0  0  0  0  0  0  0  0
    6.4358   -0.1625    2.1872 H   0  0  0  0  0  0  0  0  0  0  0  0
    6.5571   -1.8738    2.7119 H   0  0  0  0  0  0  0  0  0  0  0  0
    3.4935    2.9315    0.5503 H   0  0  0  0  0  0  0  0  0  0  0  0
    2.0159    2.3805   -0.2899 H   0  0  0  0  0  0  0  0  0  0  0  0
    5.6537    2.9728   -1.0184 H   0  0  0  0  0  0  0  0  0  0  0  0
    6.5172    4.0861   -3.0672 H   0  0  0  0  0  0  0  0  0  0  0  0
    4.9126    4.8611   -4.8281 H   0  0  0  0  0  0  0  0  0  0  0  0
    2.4623    4.5163   -4.4987 H   0  0  0  0  0  0  0  0  0  0  0  0
  1  2  2  0
  2  3  1  0
  2 25  1  0
  3  4  1  0
  3 10  2  0
  4  5  2  0
  4  9  1  0
  5  6  1  0
  5 34  1  0
  6  7  2  0
  6 35  1  0
  7  8  1  0
  7 36  1  0
  8  9  2  0
  8 37  1  0
  9 38  1  0
 10 11  1  0
 10 23  1  0
 11 12  1  0
 11 22  1  0
 12 13  1  0
 12 39  1  0
 12 40  1  0
 13 14  1  0
 13 41  1  0
 13 42  1  0
 14 15  1  0
 14 21  1  0
 15 16  2  0
 15 20  1  0
 16 17  1  0
 16 43  1  0
 17 18  2  0
 17 44  1  0
 18 19  1  0
 18 45  1  0
 19 20  2  0
 19 46  1  0
 20 47  1  0
 21 22  1  0
 21 48  1  0
 21 49  1  0
 22 50  1  0
 22 51  1  0
 23 24  2  0
 23 25  1  0
 25 26  1  0
 26 27  1  0
 26 52  1  0
 26 53  1  0
 27 28  2  0
 27 32  1  0
 28 29  1  0
 28 54  1  0
 29 30  2  0
 29 55  1  0
 30 31  1  0
 30 56  1  0
 31 32  2  0
 31 57  1  0
 32 33  1  0
M  END

