
     RDKit          3D

 56 60  0  0  0  0  0  0  0  0999 V2000
   -0.6200    2.4624    4.5389 C   0  0  0  0  0  0  0  0  0  0  0  0
    0.1538    1.6051    3.5436 C   0  0  1  0  0  0  0  0  0  0  0  0
    1.9287    2.0988    3.4227 S   0  0  0  0  0  0  0  0  0  0  0  0
    1.8098    3.3991    2.1904 C   0  0  0  0  0  0  0  0  0  0  0  0
    0.6853    3.5818    1.5665 N   0  0  0  0  0  0  0  0  0  0  0  0
    0.6429    4.5910    0.6651 C   0  0  0  0  0  0  0  0  0  0  0  0
   -0.7767    4.9722   -0.2721 S   0  0  0  0  0  0  0  0  0  0  0  0
    0.0616    6.2998   -1.0615 C   0  0  0  0  0  0  0  0  0  0  0  0
    1.3581    6.4377   -0.6300 C   0  0  0  0  0  0  0  0  0  0  0  0
    1.6940    5.4560    0.3681 C   0  0  0  0  0  0  0  0  0  0  0  0
    2.9499    5.2695    1.0633 C   0  0  0  0  0  0  0  0  0  0  0  0
    3.9650    5.9343    0.9375 O   0  0  0  0  0  0  0  0  0  0  0  0
    2.9326    4.1662    1.9869 N   0  0  0  0  0  0  0  0  0  0  0  0
    4.2233    3.8988    2.6610 C   0  0  0  0  0  0  0  0  0  0  0  0
    5.1415    3.0457    1.8546 C   0  0  0  0  0  0  0  0  0  0  0  0
    6.2574    3.3199    1.1115 C   0  0  0  0  0  0  0  0  0  0  0  0
    6.6674    2.0741    0.5309 C   0  0  0  0  0  0  0  0  0  0  0  0
    5.7643    1.1408    0.9561 C   0  0  0  0  0  0  0  0  0  0  0  0
    4.8391    1.7207    1.7616 O   0  0  0  0  0  0  0  0  0  0  0  0
    2.2711    7.5129   -1.1667 C   0  0  0  0  0  0  0  0  0  0  0  0
    1.7135    8.1360   -2.4547 C   0  0  0  0  0  0  0  0  0  0  0  0
    0.2145    8.4390   -2.3384 C   0  0  0  0  0  0  0  0  0  0  0  0
   -0.6013    7.1562   -2.1048 C   0  0  0  0  0  0  0  0  0  0  0  0
    0.0044    0.1016    3.8477 C   0  0  0  0  0  0  0  0  0  0  0  0
   -0.8730   -0.2821    4.5958 O   0  0  0  0  0  0  0  0  0  0  0  0
    0.8634   -0.7400    3.1687 N   0  0  0  0  0  0  0  0  0  0  0  0
    0.8802   -2.1406    3.1792 C   0  0  0  0  0  0  0  0  0  0  0  0
   -0.0608   -2.9186    3.8801 C   0  0  0  0  0  0  0  0  0  0  0  0
    0.0070   -4.3107    3.8397 C   0  0  0  0  0  0  0  0  0  0  0  0
    1.0004   -4.9738    3.1110 C   0  0  0  0  0  0  0  0  0  0  0  0
    1.9403   -4.2227    2.4143 C   0  0  0  0  0  0  0  0  0  0  0  0
    1.8925   -2.8159    2.4411 C   0  0  0  0  0  0  0  0  0  0  0  0
    2.8838   -2.0772    1.7180 C   0  0  0  0  0  0  0  0  0  0  0  0
    3.6934   -1.4834    1.1337 N   0  0  0  0  0  0  0  0  0  0  0  0
   -0.5782    3.5169    4.2341 H   0  0  0  0  0  0  0  0  0  0  0  0
   -0.2111    2.3643    5.5553 H   0  0  0  0  0  0  0  0  0  0  0  0
   -1.6711    2.1414    4.5655 H   0  0  0  0  0  0  0  0  0  0  0  0
   -0.2362    1.7778    2.5259 H   0  0  0  0  0  0  0  0  0  0  0  0
    4.0106    3.4459    3.6399 H   0  0  0  0  0  0  0  0  0  0  0  0
    4.6983    4.8732    2.8192 H   0  0  0  0  0  0  0  0  0  0  0  0
    6.7112    4.2999    0.9829 H   0  0  0  0  0  0  0  0  0  0  0  0
    7.5181    1.8989   -0.1243 H   0  0  0  0  0  0  0  0  0  0  0  0
    5.6231    0.0780    0.7796 H   0  0  0  0  0  0  0  0  0  0  0  0
    3.2785    7.0997   -1.3258 H   0  0  0  0  0  0  0  0  0  0  0  0
    2.4025    8.2904   -0.3917 H   0  0  0  0  0  0  0  0  0  0  0  0
    1.8760    7.4411   -3.2986 H   0  0  0  0  0  0  0  0  0  0  0  0
    2.2721    9.0547   -2.6960 H   0  0  0  0  0  0  0  0  0  0  0  0
   -0.1511    8.9482   -3.2448 H   0  0  0  0  0  0  0  0  0  0  0  0
    0.0479    9.1343   -1.4964 H   0  0  0  0  0  0  0  0  0  0  0  0
   -0.6892    6.5899   -3.0514 H   0  0  0  0  0  0  0  0  0  0  0  0
   -1.6337    7.4054   -1.8058 H   0  0  0  0  0  0  0  0  0  0  0  0
    1.5908   -0.2813    2.6214 H   0  0  0  0  0  0  0  0  0  0  0  0
   -0.8337   -2.4132    4.4520 H   0  0  0  0  0  0  0  0  0  0  0  0
   -0.7379   -4.8878    4.3935 H   0  0  0  0  0  0  0  0  0  0  0  0
    1.0415   -6.0646    3.0878 H   0  0  0  0  0  0  0  0  0  0  0  0
    2.7293   -4.7090    1.8377 H   0  0  0  0  0  0  0  0  0  0  0  0
  1  2  1  0
  1 35  1  0
  1 36  1  0
  1 37  1  0
  2  3  1  0
  2 24  1  0
  2 38  1  6
  3  4  2  0
  4  5  1  0
  4 13  1  0
  5  6  2  0
  6  7  1  0
  6 10  1  0
  7  8  1  0
  8  9  2  0
  8 23  1  0
  9 10  1  0
  9 20  1  0
 10 11  2  0
 11 12  1  0
 11 13  1  0
 13 14  1  0
 14 15  1  0
 14 39  1  0
 14 40  1  0
 15 16  2  0
 15 19  1  0
 16 17  1  0
 16 41  1  0
 17 18  2  0
 17 42  1  0
 18 19  1  0
 18 43  1  0
 20 21  1  0
 20 44  1  0
 20 45  1  0
 21 22  1  0
 21 46  1  0
 21 47  1  0
 22 23  1  0
 22 48  1  0
 22 49  1  0
 23 50  1  0
 23 51  1  0
 24 25  2  0
 24 26  1  0
 26 27  1  0
 26 52  1  0
 27 28  2  0
 27 32  1  0
 28 29  1  0
 28 53  1  0
 29 30  2  0
 29 54  1  0
 30 31  1  0
 30 55  1  0
 31 32  2  0
 31 56  1  0
 32 33  1  0
 33 34  3  0
M  CHG  2   3   1  12  -1
M  END

