
     RDKit          3D

 34 36  0  0  0  0  0  0  0  0999 V2000
    3.6578   -1.0281   -0.2326 C   0  0  0  0  0  0  0  0  0  0  0  0
    2.7352   -0.5677    0.8011 N   0  0  0  0  0  0  0  0  0  0  0  0
    3.2291    0.3972    1.6362 C   0  0  0  0  0  0  0  0  0  0  0  0
    4.3537    0.8643    1.4925 O   0  0  0  0  0  0  0  0  0  0  0  0
    2.4314    0.9360    2.8024 C   0  0  0  0  0  0  0  0  0  0  0  0
    2.9062    2.0411    3.5683 C   0  0  0  0  0  0  0  0  0  0  0  0
    1.9593    2.2005    4.5438 C   0  0  0  0  0  0  0  0  0  0  0  0
    1.8020    3.1307    5.6615 C   0  0  0  0  0  0  0  0  0  0  0  0
    2.7566    4.1307    5.9119 C   0  0  0  0  0  0  0  0  0  0  0  0
    2.5595    4.9932    6.9912 C   0  0  0  0  0  0  0  0  0  0  0  0
    1.5066    4.9261    7.8110 N   0  0  0  0  0  0  0  0  0  0  0  0
    0.6003    3.9750    7.5721 C   0  0  0  0  0  0  0  0  0  0  0  0
    0.6946    3.0584    6.5225 C   0  0  0  0  0  0  0  0  0  0  0  0
    0.9984    1.2612    4.3733 O   0  0  0  0  0  0  0  0  0  0  0  0
    1.2966    0.4751    3.2909 N   0  0  0  0  0  0  0  0  0  0  0  0
    1.3744   -1.0852    0.7941 C   0  0  1  0  0  0  0  0  0  0  0  0
    0.5702   -1.1548   -0.5333 C   0  0  0  0  0  0  0  0  0  0  0  0
   -0.0656   -2.4697   -0.0079 C   0  0  0  0  0  0  0  0  0  0  0  0
    1.1031   -2.5991    1.0044 C   0  0  0  0  0  0  0  0  0  0  0  0
    4.6785   -1.0521    0.1686 H   0  0  0  0  0  0  0  0  0  0  0  0
    3.6609   -0.3552   -1.1075 H   0  0  0  0  0  0  0  0  0  0  0  0
    3.3715   -2.0348   -0.5630 H   0  0  0  0  0  0  0  0  0  0  0  0
    3.8219    2.5938    3.3874 H   0  0  0  0  0  0  0  0  0  0  0  0
    3.6401    4.2388    5.2797 H   0  0  0  0  0  0  0  0  0  0  0  0
    3.2946    5.7791    7.2010 H   0  0  0  0  0  0  0  0  0  0  0  0
   -0.2572    3.9336    8.2541 H   0  0  0  0  0  0  0  0  0  0  0  0
   -0.0760    2.3008    6.3739 H   0  0  0  0  0  0  0  0  0  0  0  0
    0.7973   -0.5267    1.5352 H   0  0  0  0  0  0  0  0  0  0  0  0
    1.2131   -1.3419   -1.4065 H   0  0  0  0  0  0  0  0  0  0  0  0
   -0.0925   -0.3060   -0.7637 H   0  0  0  0  0  0  0  0  0  0  0  0
   -0.1964   -3.2869   -0.7322 H   0  0  0  0  0  0  0  0  0  0  0  0
   -1.0292   -2.2918    0.4937 H   0  0  0  0  0  0  0  0  0  0  0  0
    1.9141   -3.2306    0.6093 H   0  0  0  0  0  0  0  0  0  0  0  0
    0.8764   -2.9217    2.0319 H   0  0  0  0  0  0  0  0  0  0  0  0
  1  2  1  0
  1 20  1  0
  1 21  1  0
  1 22  1  0
  2  3  1  0
  2 16  1  0
  3  4  2  0
  3  5  1  0
  5  6  1  0
  5 15  2  0
  6  7  2  0
  6 23  1  0
  7  8  1  0
  7 14  1  0
  8  9  2  0
  8 13  1  0
  9 10  1  0
  9 24  1  0
 10 11  2  0
 10 25  1  0
 11 12  1  0
 12 13  2  0
 12 26  1  0
 13 27  1  0
 14 15  1  0
 16 17  1  0
 16 19  1  0
 16 28  1  1
 17 18  1  0
 17 29  1  0
 17 30  1  0
 18 19  1  0
 18 31  1  0
 18 32  1  0
 19 33  1  0
 19 34  1  0
M  END

