
     RDKit          3D

 25 25  0  0  0  0  0  0  0  0999 V2000
    2.2620    1.2714    0.9120 C   0  0  0  0  0  0  0  0  0  0  0  0
    2.3727    0.0632   -0.0220 C   0  0  0  0  0  0  0  0  0  0  0  0
    2.9696   -1.1634    0.6600 C   0  0  1  0  0  0  0  0  0  0  0  0
    2.1364   -1.9038    1.7562 C   0  0  1  0  0  0  0  0  0  0  0  0
    0.7440   -1.6758    1.7547 O   0  0  0  0  0  0  0  0  0  0  0  0
    2.6084   -3.2558    1.1601 C   0  0  0  0  0  0  0  0  0  0  0  0
    3.1493   -2.5249   -0.1113 C   0  0  1  0  0  0  0  0  0  0  0  0
    2.2213   -2.6969   -1.3193 C   0  0  0  0  0  0  0  0  0  0  0  0
    4.5881   -2.8573   -0.5057 C   0  0  0  0  0  0  0  0  0  0  0  0
    1.8446    2.1470    0.3892 H   0  0  0  0  0  0  0  0  0  0  0  0
    3.2480    1.5613    1.3127 H   0  0  0  0  0  0  0  0  0  0  0  0
    1.6037    1.0433    1.7648 H   0  0  0  0  0  0  0  0  0  0  0  0
    2.9917    0.3232   -0.8996 H   0  0  0  0  0  0  0  0  0  0  0  0
    1.3710   -0.1715   -0.4199 H   0  0  0  0  0  0  0  0  0  0  0  0
    3.9433   -0.8802    1.0971 H   0  0  0  0  0  0  0  0  0  0  0  0
    2.4574   -1.7081    2.7904 H   0  0  0  0  0  0  0  0  0  0  0  0
    0.3895   -1.8935    0.8832 H   0  0  0  0  0  0  0  0  0  0  0  0
    1.8065   -3.9956    1.0004 H   0  0  0  0  0  0  0  0  0  0  0  0
    3.4030   -3.7329    1.7551 H   0  0  0  0  0  0  0  0  0  0  0  0
    1.1658   -2.4916   -1.0767 H   0  0  0  0  0  0  0  0  0  0  0  0
    2.2697   -3.7329   -1.6947 H   0  0  0  0  0  0  0  0  0  0  0  0
    2.5027   -2.0260   -2.1473 H   0  0  0  0  0  0  0  0  0  0  0  0
    5.2716   -2.7620    0.3539 H   0  0  0  0  0  0  0  0  0  0  0  0
    4.9504   -2.1805   -1.2985 H   0  0  0  0  0  0  0  0  0  0  0  0
    4.6705   -3.8896   -0.8870 H   0  0  0  0  0  0  0  0  0  0  0  0
  1  2  1  0
  1 10  1  0
  1 11  1  0
  1 12  1  0
  2  3  1  0
  2 13  1  0
  2 14  1  0
  3  4  1  0
  3  7  1  0
  3 15  1  1
  4  5  1  0
  4  6  1  0
  4 16  1  1
  5 17  1  0
  6  7  1  0
  6 18  1  0
  6 19  1  0
  7  8  1  6
  7  9  1  0
  8 20  1  0
  8 21  1  0
  8 22  1  0
  9 23  1  0
  9 24  1  0
  9 25  1  0
M  END

