
     RDKit          3D

 40 40  0  0  0  0  0  0  0  0999 V2000
    0.9909   -0.0587    1.2027 C   0  0  0  0  0  0  0  0  0  0  0  0
    2.2712    0.1266    0.3647 C   0  0  1  0  0  0  0  0  0  0  0  0
    2.0323   -0.2467   -1.1026 C   0  0  0  0  0  0  0  0  0  0  0  0
    2.8928    1.4483    0.4678 N   0  0  0  0  0  0  0  0  0  0  0  0
    2.1348    2.6299    0.0748 C   0  0  0  0  0  0  0  0  0  0  0  0
    3.0690    3.8033    0.4465 C   0  0  0  0  0  0  0  0  0  0  0  0
    4.0944    3.2055    1.4529 C   0  0  2  0  0  0  0  0  0  0  0  0
    5.5034    3.1652    0.8367 C   0  0  0  0  0  0  0  0  0  0  0  0
    6.5333    2.6475    1.7274 N   0  0  0  0  0  0  0  0  0  0  0  0
    7.1506    3.4339    2.6418 C   0  0  0  0  0  0  0  0  0  0  0  0
    6.9088    4.6197    2.7891 O   0  0  0  0  0  0  0  0  0  0  0  0
    8.2474    2.7709    3.5388 C   0  0  1  0  0  0  0  0  0  0  0  0
    9.5924    3.4711    3.2303 C   0  0  0  0  0  0  0  0  0  0  0  0
    7.8477    2.9893    5.0166 C   0  0  0  0  0  0  0  0  0  0  0  0
    8.3711    1.3286    3.2726 C   0  0  0  0  0  0  0  0  0  0  0  0
    8.4516    0.1934    3.0474 N   0  0  0  0  0  0  0  0  0  0  0  0
    3.5337    1.7970    1.7247 C   0  0  0  0  0  0  0  0  0  0  0  0
    0.6595   -1.1087    1.1690 H   0  0  0  0  0  0  0  0  0  0  0  0
    0.1616    0.5602    0.8229 H   0  0  0  0  0  0  0  0  0  0  0  0
    1.1519    0.2025    2.2606 H   0  0  0  0  0  0  0  0  0  0  0  0
    3.0264   -0.5764    0.7608 H   0  0  0  0  0  0  0  0  0  0  0  0
    1.2417    0.3733   -1.5566 H   0  0  0  0  0  0  0  0  0  0  0  0
    1.7142   -1.2975   -1.1898 H   0  0  0  0  0  0  0  0  0  0  0  0
    2.9534   -0.1100   -1.6895 H   0  0  0  0  0  0  0  0  0  0  0  0
    1.1757    2.7246    0.6313 H   0  0  0  0  0  0  0  0  0  0  0  0
    1.8851    2.6083   -0.9975 H   0  0  0  0  0  0  0  0  0  0  0  0
    2.5063    4.6418    0.8822 H   0  0  0  0  0  0  0  0  0  0  0  0
    3.5841    4.1955   -0.4449 H   0  0  0  0  0  0  0  0  0  0  0  0
    4.1459    3.8008    2.3766 H   0  0  0  0  0  0  0  0  0  0  0  0
    5.7975    4.1835    0.5406 H   0  0  0  0  0  0  0  0  0  0  0  0
    5.4823    2.5325   -0.0641 H   0  0  0  0  0  0  0  0  0  0  0  0
    6.7845    1.6669    1.6727 H   0  0  0  0  0  0  0  0  0  0  0  0
    9.4671    4.5513    3.3870 H   0  0  0  0  0  0  0  0  0  0  0  0
    9.8999    3.3007    2.1877 H   0  0  0  0  0  0  0  0  0  0  0  0
   10.3848    3.0958    3.8947 H   0  0  0  0  0  0  0  0  0  0  0  0
    7.7065    4.0658    5.1835 H   0  0  0  0  0  0  0  0  0  0  0  0
    8.6339    2.6147    5.6888 H   0  0  0  0  0  0  0  0  0  0  0  0
    6.9070    2.4713    5.2559 H   0  0  0  0  0  0  0  0  0  0  0  0
    2.8237    1.8349    2.5830 H   0  0  0  0  0  0  0  0  0  0  0  0
    4.3124    1.0613    1.9892 H   0  0  0  0  0  0  0  0  0  0  0  0
  1  2  1  0
  1 18  1  0
  1 19  1  0
  1 20  1  0
  2  3  1  0
  2  4  1  0
  2 21  1  1
  3 22  1  0
  3 23  1  0
  3 24  1  0
  4  5  1  0
  4 17  1  0
  5  6  1  0
  5 25  1  0
  5 26  1  0
  6  7  1  0
  6 27  1  0
  6 28  1  0
  7  8  1  0
  7 17  1  0
  7 29  1  1
  8  9  1  0
  8 30  1  0
  8 31  1  0
  9 10  1  0
  9 32  1  0
 10 11  2  0
 10 12  1  0
 12 13  1  0
 12 14  1  0
 12 15  1  6
 13 33  1  0
 13 34  1  0
 13 35  1  0
 14 36  1  0
 14 37  1  0
 14 38  1  0
 15 16  3  0
 17 39  1  0
 17 40  1  0
M  END

