
     RDKit          3D

119127  0  0  0  0  0  0  0  0999 V2000
   -4.7621   -3.7609   -1.3213 C   0  0  0  0  0  0  0  0  0  0  0  0
   -3.7875   -3.3161   -2.2393 O   0  0  0  0  0  0  0  0  0  0  0  0
   -2.9307   -4.2090   -2.7880 C   0  0  0  0  0  0  0  0  0  0  0  0
   -1.9879   -3.6871   -3.6942 C   0  0  0  0  0  0  0  0  0  0  0  0
   -1.0669   -4.5213   -4.3092 C   0  0  0  0  0  0  0  0  0  0  0  0
   -1.0512   -5.9120   -4.0430 C   0  0  0  0  0  0  0  0  0  0  0  0
   -0.1045   -6.7702   -4.6754 C   0  0  0  0  0  0  0  0  0  0  0  0
    0.7073   -7.5032   -5.2185 C   0  0  0  0  0  0  0  0  0  0  0  0
    1.6540   -8.3585   -5.8521 C   0  0  0  0  0  0  0  0  0  0  0  0
    2.6025   -7.8415   -6.7645 C   0  0  0  0  0  0  0  0  0  0  0  0
    3.5254   -8.6754   -7.3825 C   0  0  0  0  0  0  0  0  0  0  0  0
    3.5408  -10.0633   -7.1153 C   0  0  0  0  0  0  0  0  0  0  0  0
    4.4878  -10.9189   -7.7497 C   0  0  0  0  0  0  0  0  0  0  0  0
    5.2989  -11.6510   -8.2938 C   0  0  0  0  0  0  0  0  0  0  0  0
    6.2474  -12.5052   -8.9301 C   0  0  0  0  0  0  0  0  0  0  0  0
    6.2643  -13.8915   -8.6593 C   0  0  0  0  0  0  0  0  0  0  0  0
    7.1911  -14.7245   -9.2824 C   0  0  0  0  0  0  0  0  0  0  0  0
    8.1301  -14.1982  -10.1845 C   0  0  0  0  0  0  0  0  0  0  0  0
    9.3985  -15.1869  -11.0636 P   0  0  1  0  0  0  0  0  0  0  0  0
    9.8491  -14.5226  -12.3391 O   0  0  0  0  0  0  0  0  0  0  0  0
   10.7849  -15.4337   -9.8905 C   0  0  0  0  0  0  0  0  0  0  0  0
   10.6405  -15.5640   -8.4995 C   0  0  0  0  0  0  0  0  0  0  0  0
   11.7563  -15.7527   -7.6868 C   0  0  0  0  0  0  0  0  0  0  0  0
   13.0522  -15.8073   -8.2463 C   0  0  0  0  0  0  0  0  0  0  0  0
   14.1960  -16.0000   -7.4164 C   0  0  0  0  0  0  0  0  0  0  0  0
   15.1762  -16.1659   -6.7079 C   0  0  0  0  0  0  0  0  0  0  0  0
   16.3221  -16.3593   -5.8830 C   0  0  0  0  0  0  0  0  0  0  0  0
   16.1915  -16.5108   -4.4838 C   0  0  0  0  0  0  0  0  0  0  0  0
   17.3088  -16.6994   -3.6805 C   0  0  0  0  0  0  0  0  0  0  0  0
   18.6062  -16.7449   -4.2409 C   0  0  0  0  0  0  0  0  0  0  0  0
   19.7523  -16.9383   -3.4173 C   0  0  0  0  0  0  0  0  0  0  0  0
   20.7356  -17.1040   -2.7125 C   0  0  0  0  0  0  0  0  0  0  0  0
   21.8825  -17.2970   -1.8878 C   0  0  0  0  0  0  0  0  0  0  0  0
   21.7555  -17.4553   -0.4864 C   0  0  0  0  0  0  0  0  0  0  0  0
   22.8713  -17.6429    0.3149 C   0  0  0  0  0  0  0  0  0  0  0  0
   24.1597  -17.6799   -0.2520 C   0  0  0  0  0  0  0  0  0  0  0  0
   25.1854  -17.8675    0.6113 O   0  0  0  0  0  0  0  0  0  0  0  0
   26.5073  -17.9155    0.1208 C   0  0  0  0  0  0  0  0  0  0  0  0
   24.3051  -17.5247   -1.6406 C   0  0  0  0  0  0  0  0  0  0  0  0
   23.1777  -17.3363   -2.4409 C   0  0  0  0  0  0  0  0  0  0  0  0
   18.7359  -16.5931   -5.6408 C   0  0  0  0  0  0  0  0  0  0  0  0
   17.6187  -16.4045   -6.4440 C   0  0  0  0  0  0  0  0  0  0  0  0
   13.1910  -15.6569   -9.6442 C   0  0  0  0  0  0  0  0  0  0  0  0
   12.0726  -15.4692  -10.4517 C   0  0  0  0  0  0  0  0  0  0  0  0
    8.6644  -16.8379  -11.3708 C   0  0  0  0  0  0  0  0  0  0  0  0
    8.1615  -17.0618  -12.6636 C   0  0  0  0  0  0  0  0  0  0  0  0
    7.5797  -18.2826  -12.9944 C   0  0  0  0  0  0  0  0  0  0  0  0
    7.4915  -19.3201  -12.0394 C   0  0  0  0  0  0  0  0  0  0  0  0
    6.8960  -20.5720  -12.3747 C   0  0  0  0  0  0  0  0  0  0  0  0
    6.3851  -21.6427  -12.6621 C   0  0  0  0  0  0  0  0  0  0  0  0
    5.7884  -22.8924  -12.9988 C   0  0  0  0  0  0  0  0  0  0  0  0
    5.6986  -23.9329  -12.0463 C   0  0  0  0  0  0  0  0  0  0  0  0
    5.1169  -25.1506  -12.3746 C   0  0  0  0  0  0  0  0  0  0  0  0
    4.5993  -25.3819  -13.6699 C   0  0  0  0  0  0  0  0  0  0  0  0
    4.0026  -26.6308  -14.0068 C   0  0  0  0  0  0  0  0  0  0  0  0
    3.4911  -27.7015  -14.2955 C   0  0  0  0  0  0  0  0  0  0  0  0
    2.8937  -28.9505  -14.6357 C   0  0  0  0  0  0  0  0  0  0  0  0
    2.3793  -29.1833  -15.9342 C   0  0  0  0  0  0  0  0  0  0  0  0
    1.7985  -30.3981  -16.2649 C   0  0  0  0  0  0  0  0  0  0  0  0
    1.7083  -31.4298  -15.3109 C   0  0  0  0  0  0  0  0  0  0  0  0
    1.1253  -32.5779  -15.7282 O   0  0  0  0  0  0  0  0  0  0  0  0
    0.9972  -33.6591  -14.8309 C   0  0  0  0  0  0  0  0  0  0  0  0
    2.2133  -31.2169  -14.0173 C   0  0  0  0  0  0  0  0  0  0  0  0
    2.7965  -29.9918  -13.6916 C   0  0  0  0  0  0  0  0  0  0  0  0
    4.6897  -24.3405  -14.6222 C   0  0  0  0  0  0  0  0  0  0  0  0
    5.2713  -23.1228  -14.2940 C   0  0  0  0  0  0  0  0  0  0  0  0
    8.0153  -19.0943  -10.7471 C   0  0  0  0  0  0  0  0  0  0  0  0
    8.5968  -17.8708  -10.4215 C   0  0  0  0  0  0  0  0  0  0  0  0
    8.1075  -12.8229  -10.4719 C   0  0  0  0  0  0  0  0  0  0  0  0
    7.1835  -11.9860   -9.8523 C   0  0  0  0  0  0  0  0  0  0  0  0
    2.5931  -10.5809   -6.2033 C   0  0  0  0  0  0  0  0  0  0  0  0
    1.6702   -9.7471   -5.5854 C   0  0  0  0  0  0  0  0  0  0  0  0
   -2.0004   -6.4200   -3.1342 C   0  0  0  0  0  0  0  0  0  0  0  0
   -2.9302   -5.5864   -2.5116 C   0  0  0  0  0  0  0  0  0  0  0  0
   -5.3316   -2.8730   -1.0158 H   0  0  0  0  0  0  0  0  0  0  0  0
   -4.3043   -4.2179   -0.4257 H   0  0  0  0  0  0  0  0  0  0  0  0
   -5.4547   -4.4901   -1.7787 H   0  0  0  0  0  0  0  0  0  0  0  0
   -2.0040   -2.6142   -3.8961 H   0  0  0  0  0  0  0  0  0  0  0  0
   -0.3404   -4.1054   -5.0103 H   0  0  0  0  0  0  0  0  0  0  0  0
    2.6029   -6.7714   -6.9811 H   0  0  0  0  0  0  0  0  0  0  0  0
    4.2513   -8.2609   -8.0849 H   0  0  0  0  0  0  0  0  0  0  0  0
    5.5352  -14.3071   -7.9609 H   0  0  0  0  0  0  0  0  0  0  0  0
    7.1646  -15.7968   -9.0737 H   0  0  0  0  0  0  0  0  0  0  0  0
    9.6524  -15.4998   -8.0372 H   0  0  0  0  0  0  0  0  0  0  0  0
   11.6377  -15.8510   -6.6059 H   0  0  0  0  0  0  0  0  0  0  0  0
   15.1964  -16.4778   -4.0358 H   0  0  0  0  0  0  0  0  0  0  0  0
   17.1920  -16.8148   -2.6011 H   0  0  0  0  0  0  0  0  0  0  0  0
   20.7613  -17.4283   -0.0358 H   0  0  0  0  0  0  0  0  0  0  0  0
   22.7786  -17.7653    1.3959 H   0  0  0  0  0  0  0  0  0  0  0  0
   27.1579  -18.0731    0.9913 H   0  0  0  0  0  0  0  0  0  0  0  0
   26.7959  -16.9714   -0.3752 H   0  0  0  0  0  0  0  0  0  0  0  0
   26.6518  -18.7495   -0.5894 H   0  0  0  0  0  0  0  0  0  0  0  0
   25.2894  -17.5487   -2.1083 H   0  0  0  0  0  0  0  0  0  0  0  0
   23.2992  -17.2164   -3.5195 H   0  0  0  0  0  0  0  0  0  0  0  0
   19.7310  -16.6256   -6.0887 H   0  0  0  0  0  0  0  0  0  0  0  0
   17.7354  -16.2888   -7.5234 H   0  0  0  0  0  0  0  0  0  0  0  0
   14.1890  -15.6831  -10.0864 H   0  0  0  0  0  0  0  0  0  0  0  0
   12.1824  -15.3319  -11.5301 H   0  0  0  0  0  0  0  0  0  0  0  0
    8.2483  -16.2674  -13.4086 H   0  0  0  0  0  0  0  0  0  0  0  0
    7.1911  -18.4505  -14.0009 H   0  0  0  0  0  0  0  0  0  0  0  0
    6.0940  -23.7699  -11.0417 H   0  0  0  0  0  0  0  0  0  0  0  0
    5.0549  -25.9449  -11.6281 H   0  0  0  0  0  0  0  0  0  0  0  0
    2.4439  -28.3905  -16.6822 H   0  0  0  0  0  0  0  0  0  0  0  0
    1.4005  -30.5825  -17.2647 H   0  0  0  0  0  0  0  0  0  0  0  0
    0.5020  -34.4676  -15.3848 H   0  0  0  0  0  0  0  0  0  0  0  0
    0.3784  -33.3945  -13.9547 H   0  0  0  0  0  0  0  0  0  0  0  0
    1.9805  -34.0178  -14.4771 H   0  0  0  0  0  0  0  0  0  0  0  0
    2.1578  -31.9965  -13.2575 H   0  0  0  0  0  0  0  0  0  0  0  0
    3.1867  -29.8342  -12.6840 H   0  0  0  0  0  0  0  0  0  0  0  0
    4.2947  -24.5036  -15.6269 H   0  0  0  0  0  0  0  0  0  0  0  0
    5.3337  -22.3285  -15.0406 H   0  0  0  0  0  0  0  0  0  0  0  0
    7.9678  -19.8942  -10.0055 H   0  0  0  0  0  0  0  0  0  0  0  0
    9.0169  -17.7328   -9.4222 H   0  0  0  0  0  0  0  0  0  0  0  0
    8.8168  -12.4242  -11.2011 H   0  0  0  0  0  0  0  0  0  0  0  0
    7.1708  -10.9183  -10.0803 H   0  0  0  0  0  0  0  0  0  0  0  0
    2.5925  -11.6512   -5.9871 H   0  0  0  0  0  0  0  0  0  0  0  0
    0.9440  -10.1616   -4.8834 H   0  0  0  0  0  0  0  0  0  0  0  0
   -2.0066   -7.4895   -2.9141 H   0  0  0  0  0  0  0  0  0  0  0  0
   -3.6478   -6.0196   -1.8148 H   0  0  0  0  0  0  0  0  0  0  0  0
  1  2  1  0
  1 75  1  0
  1 76  1  0
  1 77  1  0
  2  3  1  0
  3  4  2  0
  3 74  1  0
  4  5  1  0
  4 78  1  0
  5  6  2  0
  5 79  1  0
  6  7  1  0
  6 73  1  0
  7  8  3  0
  8  9  1  0
  9 10  2  0
  9 72  1  0
 10 11  1  0
 10 80  1  0
 11 12  2  0
 11 81  1  0
 12 13  1  0
 12 71  1  0
 13 14  3  0
 14 15  1  0
 15 16  2  0
 15 70  1  0
 16 17  1  0
 16 82  1  0
 17 18  2  0
 17 83  1  0
 19 18  1  1
 18 69  1  0
 19 20  2  0
 19 21  1  0
 19 45  1  0
 21 22  2  0
 21 44  1  0
 22 23  1  0
 22 84  1  0
 23 24  2  0
 23 85  1  0
 24 25  1  0
 24 43  1  0
 25 26  3  0
 26 27  1  0
 27 28  2  0
 27 42  1  0
 28 29  1  0
 28 86  1  0
 29 30  2  0
 29 87  1  0
 30 31  1  0
 30 41  1  0
 31 32  3  0
 32 33  1  0
 33 34  2  0
 33 40  1  0
 34 35  1  0
 34 88  1  0
 35 36  2  0
 35 89  1  0
 36 37  1  0
 36 39  1  0
 37 38  1  0
 38 90  1  0
 38 91  1  0
 38 92  1  0
 39 40  2  0
 39 93  1  0
 40 94  1  0
 41 42  2  0
 41 95  1  0
 42 96  1  0
 43 44  2  0
 43 97  1  0
 44 98  1  0
 45 46  2  0
 45 68  1  0
 46 47  1  0
 46 99  1  0
 47 48  2  0
 47100  1  0
 48 49  1  0
 48 67  1  0
 49 50  3  0
 50 51  1  0
 51 52  2  0
 51 66  1  0
 52 53  1  0
 52101  1  0
 53 54  2  0
 53102  1  0
 54 55  1  0
 54 65  1  0
 55 56  3  0
 56 57  1  0
 57 58  2  0
 57 64  1  0
 58 59  1  0
 58103  1  0
 59 60  2  0
 59104  1  0
 60 61  1  0
 60 63  1  0
 61 62  1  0
 62105  1  0
 62106  1  0
 62107  1  0
 63 64  2  0
 63108  1  0
 64109  1  0
 65 66  2  0
 65110  1  0
 66111  1  0
 67 68  2  0
 67112  1  0
 68113  1  0
 69 70  2  0
 69114  1  0
 70115  1  0
 71 72  2  0
 71116  1  0
 72117  1  0
 73 74  2  0
 73118  1  0
 74119  1  0
M  END

