
     RDKit          3D

 47 49  0  0  0  0  0  0  0  0999 V2000
    0.0061    1.7026   -1.2716 C   0  0  0  0  0  0  0  0  0  0  0  0
    1.4843    2.0965   -1.2831 C   0  0  0  0  0  0  0  0  0  0  0  0
    2.4318    0.8970   -1.1623 C   0  0  0  0  0  0  0  0  0  0  0  0
    3.9330    1.2484   -1.2251 C   0  0  1  0  0  0  0  0  0  0  0  0
    4.4550    2.0279   -0.0004 C   0  0  0  0  0  0  0  0  0  0  0  0
    4.6159    1.1669    1.2658 C   0  0  0  0  0  0  0  0  0  0  0  0
    5.3886   -0.1620    1.0799 C   0  0  2  0  0  0  0  0  0  0  0  0
    6.9175   -0.1224    1.1435 C   0  0  0  0  0  0  0  0  0  0  0  0
    7.7723    0.9880    1.0883 C   0  0  0  0  0  0  0  0  0  0  0  0
    7.2607    2.2261    0.9507 F   0  0  0  0  0  0  0  0  0  0  0  0
    9.1616    0.9100    1.1721 C   0  0  0  0  0  0  0  0  0  0  0  0
    9.7984   -0.3282    1.3351 C   0  0  0  0  0  0  0  0  0  0  0  0
   11.2789   -0.4305    1.4232 C   0  0  0  0  0  0  0  0  0  0  0  0
   12.0399    0.5769    2.0459 C   0  0  0  0  0  0  0  0  0  0  0  0
   13.4303    0.4801    2.1273 C   0  0  0  0  0  0  0  0  0  0  0  0
   14.0927   -0.6264    1.5873 C   0  0  0  0  0  0  0  0  0  0  0  0
   13.3510   -1.6353    0.9658 C   0  0  0  0  0  0  0  0  0  0  0  0
   11.9604   -1.5386    0.8853 C   0  0  0  0  0  0  0  0  0  0  0  0
    8.9825   -1.4697    1.4193 C   0  0  0  0  0  0  0  0  0  0  0  0
    7.6041   -1.3385    1.3299 C   0  0  0  0  0  0  0  0  0  0  0  0
    6.8681   -2.4603    1.4532 F   0  0  0  0  0  0  0  0  0  0  0  0
    4.8726   -0.8945   -0.1905 C   0  0  0  0  0  0  0  0  0  0  0  0
    4.8224    0.0056   -1.4289 C   0  0  0  0  0  0  0  0  0  0  0  0
   -0.6493    2.5837   -1.3621 H   0  0  0  0  0  0  0  0  0  0  0  0
   -0.2635    1.1830   -0.3366 H   0  0  0  0  0  0  0  0  0  0  0  0
   -0.2347    1.0218   -2.1055 H   0  0  0  0  0  0  0  0  0  0  0  0
    1.6748    2.8104   -0.4628 H   0  0  0  0  0  0  0  0  0  0  0  0
    1.7123    2.6444   -2.2158 H   0  0  0  0  0  0  0  0  0  0  0  0
    2.2053    0.1899   -1.9818 H   0  0  0  0  0  0  0  0  0  0  0  0
    2.1978    0.3518   -0.2305 H   0  0  0  0  0  0  0  0  0  0  0  0
    4.0649    1.8980   -2.1097 H   0  0  0  0  0  0  0  0  0  0  0  0
    3.7914    2.8779    0.2304 H   0  0  0  0  0  0  0  0  0  0  0  0
    5.4254    2.4702   -0.2656 H   0  0  0  0  0  0  0  0  0  0  0  0
    3.6127    0.8879    1.6319 H   0  0  0  0  0  0  0  0  0  0  0  0
    5.0704    1.7678    2.0681 H   0  0  0  0  0  0  0  0  0  0  0  0
    5.1124   -0.8047    1.9325 H   0  0  0  0  0  0  0  0  0  0  0  0
    9.7277    1.8379    1.0842 H   0  0  0  0  0  0  0  0  0  0  0  0
   11.5346    1.4353    2.4943 H   0  0  0  0  0  0  0  0  0  0  0  0
   13.9989    1.2709    2.6233 H   0  0  0  0  0  0  0  0  0  0  0  0
   15.1811   -0.7021    1.6508 H   0  0  0  0  0  0  0  0  0  0  0  0
   13.8585   -2.5012    0.5329 H   0  0  0  0  0  0  0  0  0  0  0  0
   11.3966   -2.3230    0.3752 H   0  0  0  0  0  0  0  0  0  0  0  0
    9.3982   -2.4637    1.5876 H   0  0  0  0  0  0  0  0  0  0  0  0
    3.8591   -1.2709    0.0299 H   0  0  0  0  0  0  0  0  0  0  0  0
    5.4850   -1.7861   -0.3870 H   0  0  0  0  0  0  0  0  0  0  0  0
    4.4671   -0.5780   -2.2958 H   0  0  0  0  0  0  0  0  0  0  0  0
    5.8465    0.3367   -1.6799 H   0  0  0  0  0  0  0  0  0  0  0  0
  1  2  1  0
  1 24  1  0
  1 25  1  0
  1 26  1  0
  2  3  1  0
  2 27  1  0
  2 28  1  0
  3  4  1  0
  3 29  1  0
  3 30  1  0
  4  5  1  0
  4 23  1  0
  4 31  1  6
  5  6  1  0
  5 32  1  0
  5 33  1  0
  6  7  1  0
  6 34  1  0
  6 35  1  0
  7  8  1  0
  7 22  1  0
  7 36  1  1
  8  9  2  0
  8 20  1  0
  9 10  1  0
  9 11  1  0
 11 12  2  0
 11 37  1  0
 12 13  1  0
 12 19  1  0
 13 14  2  0
 13 18  1  0
 14 15  1  0
 14 38  1  0
 15 16  2  0
 15 39  1  0
 16 17  1  0
 16 40  1  0
 17 18  2  0
 17 41  1  0
 18 42  1  0
 19 20  2  0
 19 43  1  0
 20 21  1  0
 22 23  1  0
 22 44  1  0
 22 45  1  0
 23 46  1  0
 23 47  1  0
M  END

