
     RDKit          3D

 37 38  0  0  0  0  0  0  0  0999 V2000
    0.9540    0.1565   -0.1159 C   0  0  0  0  0  0  0  0  0  0  0  0
    2.4774    0.0400   -0.0480 C   0  0  0  0  0  0  0  0  0  0  0  0
    2.9827   -1.4059   -0.0750 C   0  0  0  0  0  0  0  0  0  0  0  0
    4.5075   -1.5308   -0.0060 C   0  0  0  0  0  0  0  0  0  0  0  0
    5.0069   -2.9777   -0.0329 C   0  0  0  0  0  0  0  0  0  0  0  0
    6.5345   -3.0772    0.0533 C   0  0  0  0  0  0  0  0  0  0  0  0
    7.0364   -4.4384    0.0221 N   0  0  0  0  0  0  0  0  0  0  0  0
    7.3561   -5.1458    1.1836 C   0  0  0  0  0  0  0  0  0  0  0  0
    7.2883   -4.7423    2.3285 O   0  0  0  0  0  0  0  0  0  0  0  0
    7.7735   -6.4099    0.7575 N   0  0  0  0  0  0  0  0  0  0  0  0
    8.2016   -7.4445    1.6679 C   0  0  0  0  0  0  0  0  0  0  0  0
    7.7121   -6.4900   -0.6272 C   0  0  0  0  0  0  0  0  0  0  0  0
    8.0235   -7.5203   -1.5096 C   0  0  0  0  0  0  0  0  0  0  0  0
    7.8538   -7.2786   -2.8828 C   0  0  0  0  0  0  0  0  0  0  0  0
    7.3878   -6.0434   -3.3470 C   0  0  0  0  0  0  0  0  0  0  0  0
    7.0724   -5.0033   -2.4571 C   0  0  0  0  0  0  0  0  0  0  0  0
    7.2393   -5.2403   -1.0953 C   0  0  0  0  0  0  0  0  0  0  0  0
    0.6267    1.2083   -0.0943 H   0  0  0  0  0  0  0  0  0  0  0  0
    0.4743   -0.3585    0.7333 H   0  0  0  0  0  0  0  0  0  0  0  0
    0.5578   -0.2961   -1.0405 H   0  0  0  0  0  0  0  0  0  0  0  0
    2.8449    0.5351    0.8693 H   0  0  0  0  0  0  0  0  0  0  0  0
    2.9281    0.5976   -0.8894 H   0  0  0  0  0  0  0  0  0  0  0  0
    2.6168   -1.9030   -0.9929 H   0  0  0  0  0  0  0  0  0  0  0  0
    2.5335   -1.9651    0.7667 H   0  0  0  0  0  0  0  0  0  0  0  0
    4.8729   -1.0355    0.9126 H   0  0  0  0  0  0  0  0  0  0  0  0
    4.9570   -0.9704   -0.8474 H   0  0  0  0  0  0  0  0  0  0  0  0
    4.6567   -3.4770   -0.9537 H   0  0  0  0  0  0  0  0  0  0  0  0
    4.5726   -3.5400    0.8115 H   0  0  0  0  0  0  0  0  0  0  0  0
    6.8853   -2.6380    0.9994 H   0  0  0  0  0  0  0  0  0  0  0  0
    7.0065   -2.5135   -0.7696 H   0  0  0  0  0  0  0  0  0  0  0  0
    8.1240   -7.0418    2.6866 H   0  0  0  0  0  0  0  0  0  0  0  0
    9.2471   -7.7386    1.4753 H   0  0  0  0  0  0  0  0  0  0  0  0
    7.5625   -8.3395    1.5840 H   0  0  0  0  0  0  0  0  0  0  0  0
    8.3888   -8.4837   -1.1486 H   0  0  0  0  0  0  0  0  0  0  0  0
    8.0903   -8.0703   -3.5977 H   0  0  0  0  0  0  0  0  0  0  0  0
    7.2643   -5.8818   -4.4205 H   0  0  0  0  0  0  0  0  0  0  0  0
    6.7067   -4.0430   -2.8253 H   0  0  0  0  0  0  0  0  0  0  0  0
  1  2  1  0
  1 18  1  0
  1 19  1  0
  1 20  1  0
  2  3  1  0
  2 21  1  0
  2 22  1  0
  3  4  1  0
  3 23  1  0
  3 24  1  0
  4  5  1  0
  4 25  1  0
  4 26  1  0
  5  6  1  0
  5 27  1  0
  5 28  1  0
  6  7  1  0
  6 29  1  0
  6 30  1  0
  7  8  1  0
  7 17  1  0
  8  9  2  0
  8 10  1  0
 10 11  1  0
 10 12  1  0
 11 31  1  0
 11 32  1  0
 11 33  1  0
 12 13  1  0
 12 17  2  0
 13 14  2  0
 13 34  1  0
 14 15  1  0
 14 35  1  0
 15 16  2  0
 15 36  1  0
 16 17  1  0
 16 37  1  0
M  END

