
     RDKit          3D

 41 43  0  0  0  0  0  0  0  0999 V2000
    2.6505   -1.7029   -0.5049 C   0  0  0  0  0  0  0  0  0  0  0  0
    2.8029   -0.2262   -0.2501 C   0  0  0  0  0  0  0  0  0  0  0  0
    2.3227    0.7007   -1.0072 N   0  0  0  0  0  0  0  0  0  0  0  0
    1.6094    0.2056   -2.0891 O   0  0  0  0  0  0  0  0  0  0  0  0
    1.1654    1.1641   -2.9587 C   0  0  0  0  0  0  0  0  0  0  0  0
    1.5727    2.5046   -2.9574 C   0  0  0  0  0  0  0  0  0  0  0  0
    1.0435    3.3549   -3.9262 C   0  0  0  0  0  0  0  0  0  0  0  0
    0.1406    2.8132   -4.8450 C   0  0  0  0  0  0  0  0  0  0  0  0
   -0.3778    3.6123   -5.7837 F   0  0  0  0  0  0  0  0  0  0  0  0
   -0.2449    1.5590   -4.8578 N   0  0  0  0  0  0  0  0  0  0  0  0
    0.2513    0.7382   -3.9315 C   0  0  0  0  0  0  0  0  0  0  0  0
    3.5529    0.2391    0.9412 C   0  0  0  0  0  0  0  0  0  0  0  0
    3.5953    1.5999    1.3147 C   0  0  0  0  0  0  0  0  0  0  0  0
    4.3191    1.9865    2.4277 C   0  0  0  0  0  0  0  0  0  0  0  0
    4.9988    0.9936    3.1732 C   0  0  0  0  0  0  0  0  0  0  0  0
    5.7071    1.3954    4.3104 N   0  0  0  0  0  0  0  0  0  0  0  0
    6.6797    0.7003    5.0229 C   0  0  0  0  0  0  0  0  0  0  0  0
    7.0887   -0.3992    4.7440 O   0  0  0  0  0  0  0  0  0  0  0  0
    7.1988    1.4488    6.2386 C   0  0  0  0  0  0  0  0  0  0  0  0
    7.4948    2.8201    6.2629 C   0  0  0  0  0  0  0  0  0  0  0  0
    7.2075    3.5640    5.1726 F   0  0  0  0  0  0  0  0  0  0  0  0
    8.0654    3.4661    7.3539 C   0  0  0  0  0  0  0  0  0  0  0  0
    8.3546    2.7159    8.4954 C   0  0  0  0  0  0  0  0  0  0  0  0
    8.0700    1.3502    8.5337 C   0  0  0  0  0  0  0  0  0  0  0  0
    7.5060    0.7392    7.4155 C   0  0  0  0  0  0  0  0  0  0  0  0
    7.2282   -0.5589    7.4875 F   0  0  0  0  0  0  0  0  0  0  0  0
    4.9573   -0.2918    2.8424 N   0  0  0  0  0  0  0  0  0  0  0  0
    4.2635   -0.6510    1.7635 C   0  0  0  0  0  0  0  0  0  0  0  0
    1.9967   -1.8908   -1.3618 H   0  0  0  0  0  0  0  0  0  0  0  0
    2.2356   -2.2062    0.3819 H   0  0  0  0  0  0  0  0  0  0  0  0
    3.6332   -2.1590   -0.7074 H   0  0  0  0  0  0  0  0  0  0  0  0
    2.2850    2.8594   -2.2145 H   0  0  0  0  0  0  0  0  0  0  0  0
    1.3189    4.4093   -3.9807 H   0  0  0  0  0  0  0  0  0  0  0  0
   -0.0756   -0.3072   -3.9438 H   0  0  0  0  0  0  0  0  0  0  0  0
    3.0533    2.3366    0.7206 H   0  0  0  0  0  0  0  0  0  0  0  0
    4.3666    3.0374    2.7248 H   0  0  0  0  0  0  0  0  0  0  0  0
    5.5831    2.3673    4.5669 H   0  0  0  0  0  0  0  0  0  0  0  0
    8.2739    4.5350    7.2903 H   0  0  0  0  0  0  0  0  0  0  0  0
    8.8022    3.2021    9.3650 H   0  0  0  0  0  0  0  0  0  0  0  0
    8.2746    0.7410    9.4154 H   0  0  0  0  0  0  0  0  0  0  0  0
    4.2745   -1.7229    1.5417 H   0  0  0  0  0  0  0  0  0  0  0  0
  1  2  1  0
  1 29  1  0
  1 30  1  0
  1 31  1  0
  2  3  2  0
  2 12  1  0
  3  4  1  0
  4  5  1  0
  5  6  2  0
  5 11  1  0
  6  7  1  0
  6 32  1  0
  7  8  2  0
  7 33  1  0
  8  9  1  0
  8 10  1  0
 10 11  2  0
 11 34  1  0
 12 13  2  0
 12 28  1  0
 13 14  1  0
 13 35  1  0
 14 15  2  0
 14 36  1  0
 15 16  1  0
 15 27  1  0
 16 17  1  0
 16 37  1  0
 17 18  2  0
 17 19  1  0
 19 20  2  0
 19 25  1  0
 20 21  1  0
 20 22  1  0
 22 23  2  0
 22 38  1  0
 23 24  1  0
 23 39  1  0
 24 25  2  0
 24 40  1  0
 25 26  1  0
 27 28  2  0
 28 41  1  0
M  END

