
     RDKit          3D

 69 69  0  0  0  0  0  0  0  0999 V2000
    7.4930   -3.4579   -0.6018 C   0  0  0  0  0  0  0  0  0  0  0  0
    6.3489   -2.8976   -1.0048 C   0  0  0  0  0  0  0  0  0  0  0  0
    6.1897   -1.4697   -1.4475 C   0  0  0  0  0  0  0  0  0  0  0  0
    5.1128   -0.6772   -0.6811 C   0  0  2  0  0  0  0  0  0  0  0  0
    5.0736    0.3363   -1.1113 H   0  0  0  0  0  0  0  0  0  0  0  0
    5.3575   -0.6153    0.8253 C   0  0  0  0  0  0  0  0  0  0  0  0
    4.6481    0.5198    1.5895 C   0  0  1  0  0  0  0  0  0  0  0  0
    4.9446    1.4694    1.0995 H   0  0  0  0  0  0  0  0  0  0  0  0
    3.1115    0.4873    1.5581 C   0  0  0  0  0  0  0  0  0  0  0  0
    2.4098   -0.7783    2.0836 C   0  0  0  0  0  0  0  0  0  0  0  0
    2.2455   -0.8988    3.6071 C   0  0  0  0  0  0  0  0  0  0  0  0
    1.2020    0.0676    4.2019 C   0  0  0  0  0  0  0  0  0  0  0  0
    0.9558   -0.1384    5.6812 C   0  0  0  0  0  0  0  0  0  0  0  0
    1.5824    0.6678    6.6447 C   0  0  0  0  0  0  0  0  0  0  0  0
    1.3732    0.4552    8.0111 C   0  0  0  0  0  0  0  0  0  0  0  0
    0.5294   -0.5723    8.4413 C   0  0  0  0  0  0  0  0  0  0  0  0
   -0.1042   -1.3828    7.4938 C   0  0  0  0  0  0  0  0  0  0  0  0
    0.1082   -1.1656    6.1302 C   0  0  0  0  0  0  0  0  0  0  0  0
    5.0946    0.5381    2.9401 O   0  0  0  0  0  0  0  0  0  0  0  0
    6.5472    1.1158    3.5848 Si  0  0  1  0  0  4  0  0  0  0  0  0
    7.7852   -0.3032    3.7333 C   0  0  0  0  0  0  0  0  0  0  0  0
    7.2554    2.4534    2.4506 C   0  0  0  0  0  0  0  0  0  0  0  0
    6.1109    1.8209    5.3151 C   0  0  1  0  0  0  0  0  0  0  0  0
    5.6361    0.6801    6.2386 C   0  0  0  0  0  0  0  0  0  0  0  0
    7.3546    2.4905    5.9368 C   0  0  0  0  0  0  0  0  0  0  0  0
    4.9856    2.8655    5.1754 C   0  0  0  0  0  0  0  0  0  0  0  0
    3.8191   -1.2914   -0.9049 O   0  0  0  0  0  0  0  0  0  0  0  0
    3.1401   -0.9547   -2.0229 C   0  0  0  0  0  0  0  0  0  0  0  0
    3.5447   -0.1659   -2.8461 O   0  0  0  0  0  0  0  0  0  0  0  0
    1.8418   -1.6801   -2.0898 C   0  0  0  0  0  0  0  0  0  0  0  0
    1.0028   -1.4907   -3.1135 C   0  0  0  0  0  0  0  0  0  0  0  0
    7.5421   -4.5093   -0.3048 H   0  0  0  0  0  0  0  0  0  0  0  0
    8.4285   -2.8891   -0.5607 H   0  0  0  0  0  0  0  0  0  0  0  0
    5.4375   -3.5074   -1.0315 H   0  0  0  0  0  0  0  0  0  0  0  0
    5.9157   -1.4355   -2.5163 H   0  0  0  0  0  0  0  0  0  0  0  0
    7.1478   -0.9317   -1.3531 H   0  0  0  0  0  0  0  0  0  0  0  0
    6.4409   -0.4730    0.9653 H   0  0  0  0  0  0  0  0  0  0  0  0
    5.1251   -1.5899    1.2822 H   0  0  0  0  0  0  0  0  0  0  0  0
    2.8073    0.6514    0.5119 H   0  0  0  0  0  0  0  0  0  0  0  0
    2.7589    1.3752    2.1095 H   0  0  0  0  0  0  0  0  0  0  0  0
    2.9382   -1.6677    1.7055 H   0  0  0  0  0  0  0  0  0  0  0  0
    1.4054   -0.8253    1.6244 H   0  0  0  0  0  0  0  0  0  0  0  0
    3.2170   -0.7451    4.1014 H   0  0  0  0  0  0  0  0  0  0  0  0
    1.9333   -1.9305    3.8460 H   0  0  0  0  0  0  0  0  0  0  0  0
    0.2507   -0.0630    3.6557 H   0  0  0  0  0  0  0  0  0  0  0  0
    1.5170    1.1099    4.0291 H   0  0  0  0  0  0  0  0  0  0  0  0
    2.2414    1.4772    6.3189 H   0  0  0  0  0  0  0  0  0  0  0  0
    1.8699    1.0986    8.7424 H   0  0  0  0  0  0  0  0  0  0  0  0
    0.3625   -0.7385    9.5087 H   0  0  0  0  0  0  0  0  0  0  0  0
   -0.7715   -2.1858    7.8188 H   0  0  0  0  0  0  0  0  0  0  0  0
   -0.3982   -1.8017    5.3975 H   0  0  0  0  0  0  0  0  0  0  0  0
    8.1150   -0.6528    2.7417 H   0  0  0  0  0  0  0  0  0  0  0  0
    7.3394   -1.1641    4.2565 H   0  0  0  0  0  0  0  0  0  0  0  0
    8.6851    0.0035    4.2918 H   0  0  0  0  0  0  0  0  0  0  0  0
    7.4850    2.0537    1.4491 H   0  0  0  0  0  0  0  0  0  0  0  0
    8.1970    2.8515    2.8629 H   0  0  0  0  0  0  0  0  0  0  0  0
    6.5622    3.3003    2.3222 H   0  0  0  0  0  0  0  0  0  0  0  0
    6.4239   -0.0730    6.4038 H   0  0  0  0  0  0  0  0  0  0  0  0
    4.7539    0.1606    5.8333 H   0  0  0  0  0  0  0  0  0  0  0  0
    5.3548    1.0792    7.2303 H   0  0  0  0  0  0  0  0  0  0  0  0
    8.1937    1.7848    6.0548 H   0  0  0  0  0  0  0  0  0  0  0  0
    7.1172    2.8809    6.9431 H   0  0  0  0  0  0  0  0  0  0  0  0
    7.7146    3.3417    5.3358 H   0  0  0  0  0  0  0  0  0  0  0  0
    4.0837    2.4270    4.7211 H   0  0  0  0  0  0  0  0  0  0  0  0
    5.2904    3.7226    4.5519 H   0  0  0  0  0  0  0  0  0  0  0  0
    4.7051    3.2679    6.1660 H   0  0  0  0  0  0  0  0  0  0  0  0
    1.6163   -2.3645   -1.2682 H   0  0  0  0  0  0  0  0  0  0  0  0
    1.2657   -0.7963   -3.9169 H   0  0  0  0  0  0  0  0  0  0  0  0
    0.0463   -2.0155   -3.1748 H   0  0  0  0  0  0  0  0  0  0  0  0
  1  2  2  0
  1 32  1  0
  1 33  1  0
  2  3  1  0
  2 34  1  0
  3  4  1  0
  3 35  1  0
  3 36  1  0
  4  5  1  6
  4  6  1  0
  4 27  1  0
  6  7  1  0
  6 37  1  0
  6 38  1  0
  7  8  1  6
  7  9  1  0
  7 19  1  0
  9 10  1  0
  9 39  1  0
  9 40  1  0
 10 11  1  0
 10 41  1  0
 10 42  1  0
 11 12  1  0
 11 43  1  0
 11 44  1  0
 12 13  1  0
 12 45  1  0
 12 46  1  0
 13 14  2  0
 13 18  1  0
 14 15  1  0
 14 47  1  0
 15 16  2  0
 15 48  1  0
 16 17  1  0
 16 49  1  0
 17 18  2  0
 17 50  1  0
 18 51  1  0
 20 19  1  6
 20 21  1  0
 20 22  1  0
 20 23  1  0
 21 52  1  0
 21 53  1  0
 21 54  1  0
 22 55  1  0
 22 56  1  0
 22 57  1  0
 23 24  1  1
 23 25  1  0
 23 26  1  0
 24 58  1  0
 24 59  1  0
 24 60  1  0
 25 61  1  0
 25 62  1  0
 25 63  1  0
 26 64  1  0
 26 65  1  0
 26 66  1  0
 27 28  1  0
 28 29  2  0
 28 30  1  0
 30 31  2  0
 30 67  1  0
 31 68  1  0
 31 69  1  0
M  END

