
     RDKit          3D

 51 54  0  0  0  0  0  0  0  0999 V2000
    0.7137    0.9698   -0.9460 O   0  0  0  0  0  0  0  0  0  0  0  0
    1.2000    0.7251    0.1444 C   0  0  0  0  0  0  0  0  0  0  0  0
    2.4050   -0.2226    0.2570 C   0  0  0  0  0  0  0  0  0  0  0  0
    2.0157   -1.9156    0.8683 S   0  0  0  0  0  0  0  0  0  0  0  0
    2.1657   -1.6764    2.6097 C   0  0  0  0  0  0  0  0  0  0  0  0
    2.2070   -0.4799    3.1640 N   0  0  0  0  0  0  0  0  0  0  0  0
    2.2923   -0.6299    4.5096 N   0  0  0  0  0  0  0  0  0  0  0  0
    2.2850   -1.9158    4.7670 C   0  0  0  0  0  0  0  0  0  0  0  0
    2.3286   -2.4368    6.1474 C   0  0  0  0  0  0  0  0  0  0  0  0
    1.5001   -3.4675    6.6225 C   0  0  0  0  0  0  0  0  0  0  0  0
    1.5893   -3.8402    7.9672 C   0  0  0  0  0  0  0  0  0  0  0  0
    2.4165   -3.2652    8.8417 N   0  0  0  0  0  0  0  0  0  0  0  0
    3.1885   -2.2701    8.3958 C   0  0  0  0  0  0  0  0  0  0  0  0
    3.1852   -1.8200    7.0740 C   0  0  0  0  0  0  0  0  0  0  0  0
    2.2207   -2.6506    3.5821 N   0  0  0  0  0  0  0  0  0  0  0  0
    2.3532   -4.1342    3.5323 C   0  0  1  0  0  0  0  0  0  0  0  0
    1.0565   -4.8720    3.1259 C   0  0  0  0  0  0  0  0  0  0  0  0
    0.9205   -5.1939    1.6324 C   0  0  0  0  0  0  0  0  0  0  0  0
    2.1682   -5.9112    1.1027 C   0  0  0  0  0  0  0  0  0  0  0  0
    3.4317   -5.0699    1.3222 C   0  0  0  0  0  0  0  0  0  0  0  0
    3.6089   -4.6653    2.7939 C   0  0  0  0  0  0  0  0  0  0  0  0
    0.7910    1.2365    1.3427 N   0  0  0  0  0  0  0  0  0  0  0  0
   -0.2827    2.1023    1.6036 C   0  0  0  0  0  0  0  0  0  0  0  0
   -1.0998    2.6558    0.6004 C   0  0  0  0  0  0  0  0  0  0  0  0
   -2.1428    3.5108    0.9629 C   0  0  0  0  0  0  0  0  0  0  0  0
   -2.3991    3.8333    2.2975 C   0  0  0  0  0  0  0  0  0  0  0  0
   -1.5791    3.2744    3.2820 C   0  0  0  0  0  0  0  0  0  0  0  0
   -1.8720    3.6541    4.9674 Cl  0  0  0  0  0  0  0  0  0  0  0  0
   -0.5304    2.4179    2.9541 C   0  0  0  0  0  0  0  0  0  0  0  0
    3.2064    0.1892    0.8863 H   0  0  0  0  0  0  0  0  0  0  0  0
    2.7742   -0.3886   -0.7628 H   0  0  0  0  0  0  0  0  0  0  0  0
    0.7705   -3.9576    5.9754 H   0  0  0  0  0  0  0  0  0  0  0  0
    0.9482   -4.6422    8.3520 H   0  0  0  0  0  0  0  0  0  0  0  0
    3.8541   -1.8003    9.1294 H   0  0  0  0  0  0  0  0  0  0  0  0
    3.8307   -0.9990    6.7586 H   0  0  0  0  0  0  0  0  0  0  0  0
    2.5245   -4.3704    4.5865 H   0  0  0  0  0  0  0  0  0  0  0  0
    0.1837   -4.3067    3.4906 H   0  0  0  0  0  0  0  0  0  0  0  0
    1.0590   -5.8267    3.6814 H   0  0  0  0  0  0  0  0  0  0  0  0
    0.7469   -4.2710    1.0548 H   0  0  0  0  0  0  0  0  0  0  0  0
    0.0245   -5.8185    1.4831 H   0  0  0  0  0  0  0  0  0  0  0  0
    2.0500   -6.1424    0.0316 H   0  0  0  0  0  0  0  0  0  0  0  0
    2.2747   -6.8835    1.6200 H   0  0  0  0  0  0  0  0  0  0  0  0
    3.3900   -4.1750    0.6843 H   0  0  0  0  0  0  0  0  0  0  0  0
    4.3249   -5.6336    1.0056 H   0  0  0  0  0  0  0  0  0  0  0  0
    4.4338   -3.9444    2.9115 H   0  0  0  0  0  0  0  0  0  0  0  0
    3.9146   -5.5651    3.3560 H   0  0  0  0  0  0  0  0  0  0  0  0
    1.3038    0.8784    2.1609 H   0  0  0  0  0  0  0  0  0  0  0  0
   -0.9070    2.4079   -0.4404 H   0  0  0  0  0  0  0  0  0  0  0  0
   -2.7741    3.9387    0.1797 H   0  0  0  0  0  0  0  0  0  0  0  0
   -3.2140    4.5022    2.5768 H   0  0  0  0  0  0  0  0  0  0  0  0
    0.0930    1.9925    3.7432 H   0  0  0  0  0  0  0  0  0  0  0  0
  1  2  2  0
  2  3  1  0
  2 22  1  0
  3  4  1  0
  3 30  1  0
  3 31  1  0
  4  5  1  0
  5  6  2  0
  5 15  1  0
  6  7  1  0
  7  8  2  0
  8  9  1  0
  8 15  1  0
  9 10  2  0
  9 14  1  0
 10 11  1  0
 10 32  1  0
 11 12  2  0
 11 33  1  0
 12 13  1  0
 13 14  2  0
 13 34  1  0
 14 35  1  0
 15 16  1  0
 16 17  1  0
 16 21  1  0
 16 36  1  1
 17 18  1  0
 17 37  1  0
 17 38  1  0
 18 19  1  0
 18 39  1  0
 18 40  1  0
 19 20  1  0
 19 41  1  0
 19 42  1  0
 20 21  1  0
 20 43  1  0
 20 44  1  0
 21 45  1  0
 21 46  1  0
 22 23  1  0
 22 47  1  0
 23 24  2  0
 23 29  1  0
 24 25  1  0
 24 48  1  0
 25 26  2  0
 25 49  1  0
 26 27  1  0
 26 50  1  0
 27 28  1  0
 27 29  2  0
 29 51  1  0
M  END

