
     RDKit          3D

 33 34  0  0  0  0  0  0  0  0999 V2000
    0.8521   -0.1410    0.0778 C   0  0  0  0  0  0  0  0  0  0  0  0
    2.3380    0.0311    0.0545 C   0  0  0  0  0  0  0  0  0  0  0  0
    3.0678    1.2148    0.0965 C   0  0  0  0  0  0  0  0  0  0  0  0
    2.5468    2.6195    0.1760 C   0  0  0  0  0  0  0  0  0  0  0  0
    2.6034    3.4400   -1.1256 C   0  0  0  0  0  0  0  0  0  0  0  0
    2.4738    4.6332   -1.1484 O   0  0  0  0  0  0  0  0  0  0  0  0
    2.7715    2.7267   -2.2543 O   0  0  0  0  0  0  0  0  0  0  0  0
    4.4569    0.8361    0.0692 C   0  0  0  0  0  0  0  0  0  0  0  0
    5.6864    1.5122    0.0888 C   0  0  0  0  0  0  0  0  0  0  0  0
    6.8472    0.7411    0.0500 C   0  0  0  0  0  0  0  0  0  0  0  0
    6.7537   -0.6637   -0.0087 C   0  0  0  0  0  0  0  0  0  0  0  0
    5.6007   -1.3339   -0.0291 N   0  0  0  0  0  0  0  0  0  0  0  0
    4.5004   -0.5863    0.0109 C   0  0  0  0  0  0  0  0  0  0  0  0
    3.1995   -1.0595    0.0023 N   0  0  0  0  0  0  0  0  0  0  0  0
    2.8079   -2.4802   -0.0537 C   0  0  1  0  0  0  0  0  0  0  0  0
    3.2688   -3.1370   -1.3607 C   0  0  0  0  0  0  0  0  0  0  0  0
    3.2846   -3.2400    1.1903 C   0  0  0  0  0  0  0  0  0  0  0  0
    0.3557    0.8368    0.1280 H   0  0  0  0  0  0  0  0  0  0  0  0
    0.5189   -0.7274    0.9505 H   0  0  0  0  0  0  0  0  0  0  0  0
    0.4777   -0.6538   -0.8241 H   0  0  0  0  0  0  0  0  0  0  0  0
    3.0885    3.2110    0.9311 H   0  0  0  0  0  0  0  0  0  0  0  0
    1.4914    2.6388    0.4935 H   0  0  0  0  0  0  0  0  0  0  0  0
    2.8999    1.7925   -2.0116 H   0  0  0  0  0  0  0  0  0  0  0  0
    5.7377    2.6035    0.1307 H   0  0  0  0  0  0  0  0  0  0  0  0
    7.8318    1.2134    0.0629 H   0  0  0  0  0  0  0  0  0  0  0  0
    7.6671   -1.2680   -0.0411 H   0  0  0  0  0  0  0  0  0  0  0  0
    1.7087   -2.4782   -0.0469 H   0  0  0  0  0  0  0  0  0  0  0  0
    4.3659   -3.1615   -1.4169 H   0  0  0  0  0  0  0  0  0  0  0  0
    2.8853   -2.5878   -2.2350 H   0  0  0  0  0  0  0  0  0  0  0  0
    2.8908   -4.1700   -1.4140 H   0  0  0  0  0  0  0  0  0  0  0  0
    4.3824   -3.2681    1.2304 H   0  0  0  0  0  0  0  0  0  0  0  0
    2.9073   -4.2744    1.1647 H   0  0  0  0  0  0  0  0  0  0  0  0
    2.9126   -2.7625    2.1103 H   0  0  0  0  0  0  0  0  0  0  0  0
  1  2  1  0
  1 18  1  0
  1 19  1  0
  1 20  1  0
  2  3  2  0
  2 14  1  0
  3  4  1  0
  3  8  1  0
  4  5  1  0
  4 21  1  0
  4 22  1  0
  5  6  2  0
  5  7  1  0
  7 23  1  0
  8  9  2  0
  8 13  1  0
  9 10  1  0
  9 24  1  0
 10 11  2  0
 10 25  1  0
 11 12  1  0
 11 26  1  0
 12 13  2  0
 13 14  1  0
 14 15  1  0
 15 16  1  0
 15 17  1  0
 15 27  1  6
 16 28  1  0
 16 29  1  0
 16 30  1  0
 17 31  1  0
 17 32  1  0
 17 33  1  0
M  END

