
     RDKit          3D

126135  0  0  0  0  0  0  0  0999 V2000
   14.0433  -12.6124   -5.6611 C   0  0  0  0  0  0  0  0  0  0  0  0
   14.6066  -11.4281   -4.8743 C   0  0  0  0  0  0  0  0  0  0  0  0
   13.7821  -11.0669   -3.6347 C   0  0  0  0  0  0  0  0  0  0  0  0
   14.3393   -9.8821   -2.8405 C   0  0  0  0  0  0  0  0  0  0  0  0
   13.5139   -9.5227   -1.6013 C   0  0  0  0  0  0  0  0  0  0  0  0
   14.0712   -8.3386   -0.8058 C   0  0  0  0  0  0  0  0  0  0  0  0
   13.2432   -7.9838    0.4325 C   0  0  0  0  0  0  0  0  0  0  0  0
   13.8085   -6.7942    1.2299 C   0  0  0  0  0  0  0  0  0  0  0  0
   12.9922   -6.4471    2.4542 C   0  0  0  0  0  0  0  0  0  0  0  0
   11.9642   -5.4922    2.3941 C   0  0  0  0  0  0  0  0  0  0  0  0
   11.1876   -5.1940    3.5135 C   0  0  0  0  0  0  0  0  0  0  0  0
   11.4112   -5.8685    4.7199 C   0  0  0  0  0  0  0  0  0  0  0  0
   10.5753   -5.6087    5.8484 N   0  0  0  0  0  0  0  0  0  0  0  0
    9.2095   -5.8815    5.9604 C   0  0  0  0  0  0  0  0  0  0  0  0
    8.6941   -5.3105    7.1635 C   0  0  0  0  0  0  0  0  0  0  0  0
    9.8529   -4.7691    7.8103 C   0  0  0  0  0  0  0  0  0  0  0  0
   10.9734   -4.9309    6.9982 C   0  0  0  0  0  0  0  0  0  0  0  0
   12.1295   -4.3776    7.6399 C   0  0  0  0  0  0  0  0  0  0  0  0
   11.6446   -3.9585    8.9162 C   0  0  0  0  0  0  0  0  0  0  0  0
   10.2638   -4.1579    8.9920 N   0  0  0  0  0  0  0  0  0  0  0  0
    9.3894   -3.7310   10.0374 C   0  0  0  0  0  0  0  0  0  0  0  0
    9.1831   -2.3679   10.2670 C   0  0  0  0  0  0  0  0  0  0  0  0
    8.3777   -1.9477   11.3282 C   0  0  0  0  0  0  0  0  0  0  0  0
    7.7423   -2.8739   12.1692 C   0  0  0  0  0  0  0  0  0  0  0  0
    6.8325   -2.4675   13.3134 C   0  0  0  0  0  0  0  0  0  0  0  0
    6.8596   -0.9971   13.7365 C   0  0  0  0  0  0  0  0  0  0  0  0
    5.9619   -0.7053   14.9433 C   0  0  0  0  0  0  0  0  0  0  0  0
    5.9628    0.7644   15.3737 C   0  0  0  0  0  0  0  0  0  0  0  0
    5.0677    1.0574   16.5814 C   0  0  0  0  0  0  0  0  0  0  0  0
    5.0671    2.5270   17.0120 C   0  0  0  0  0  0  0  0  0  0  0  0
    4.1719    2.8208   18.2200 C   0  0  0  0  0  0  0  0  0  0  0  0
    4.1767    4.2904   18.6433 C   0  0  0  0  0  0  0  0  0  0  0  0
    7.9458   -4.2406   11.9081 C   0  0  0  0  0  0  0  0  0  0  0  0
    8.7566   -4.6705   10.8598 C   0  0  0  0  0  0  0  0  0  0  0  0
   12.5156   -3.5037    9.9894 C   0  0  0  0  0  0  0  0  0  0  0  0
   12.1322   -3.2897   11.3388 C   0  0  0  0  0  0  0  0  0  0  0  0
   13.0357   -2.8661   12.3044 C   0  0  0  0  0  0  0  0  0  0  0  0
   14.3780   -2.6369   11.9653 C   0  0  0  0  0  0  0  0  0  0  0  0
   14.7981   -2.8676   10.6641 C   0  0  0  0  0  0  0  0  0  0  0  0
   13.8970   -3.3146    9.6765 C   0  0  0  0  0  0  0  0  0  0  0  0
   14.3569   -3.5790    8.4017 N   0  0  0  0  0  0  0  0  0  0  0  0
   13.6024   -4.1077    7.3086 B   0  0  0  0  0  0  0  0  0  0  0  0
   14.4188   -4.2304    5.9593 C   0  0  0  0  0  0  0  0  0  0  0  0
   14.0306   -3.5466    4.7912 C   0  0  0  0  0  0  0  0  0  0  0  0
   14.8398   -3.5299    3.6516 C   0  0  0  0  0  0  0  0  0  0  0  0
   16.0592   -4.2143    3.6442 C   0  0  0  0  0  0  0  0  0  0  0  0
   16.4629   -4.9126    4.7863 C   0  0  0  0  0  0  0  0  0  0  0  0
   15.6554   -4.9096    5.9276 C   0  0  0  0  0  0  0  0  0  0  0  0
    7.1798   -5.3771    7.3969 B   0  0  0  0  0  0  0  0  0  0  0  0
    6.2473   -4.6837    8.4705 C   0  0  0  0  0  0  0  0  0  0  0  0
    6.2133   -3.2853    8.6317 C   0  0  0  0  0  0  0  0  0  0  0  0
    5.2734   -2.6684    9.4623 C   0  0  0  0  0  0  0  0  0  0  0  0
    4.3471   -3.4398   10.1713 C   0  0  0  0  0  0  0  0  0  0  0  0
    4.3683   -4.8319   10.0410 C   0  0  0  0  0  0  0  0  0  0  0  0
    5.3003   -5.4392    9.1943 C   0  0  0  0  0  0  0  0  0  0  0  0
    6.4738   -6.1448    6.4193 N   0  0  0  0  0  0  0  0  0  0  0  0
    7.0160   -6.8133    5.3395 C   0  0  0  0  0  0  0  0  0  0  0  0
    6.1835   -7.5960    4.5141 C   0  0  0  0  0  0  0  0  0  0  0  0
    6.7039   -8.3167    3.4498 C   0  0  0  0  0  0  0  0  0  0  0  0
    8.0844   -8.2748    3.2014 C   0  0  0  0  0  0  0  0  0  0  0  0
    8.9149   -7.4942    3.9946 C   0  0  0  0  0  0  0  0  0  0  0  0
    8.4159   -6.7153    5.0707 C   0  0  0  0  0  0  0  0  0  0  0  0
   12.4400   -6.8122    4.8029 C   0  0  0  0  0  0  0  0  0  0  0  0
   13.2200   -7.0923    3.6801 C   0  0  0  0  0  0  0  0  0  0  0  0
   14.6605  -12.8437   -6.5441 H   0  0  0  0  0  0  0  0  0  0  0  0
   13.0191  -12.4073   -6.0160 H   0  0  0  0  0  0  0  0  0  0  0  0
   13.9987  -13.5223   -5.0392 H   0  0  0  0  0  0  0  0  0  0  0  0
   14.6737  -10.5445   -5.5351 H   0  0  0  0  0  0  0  0  0  0  0  0
   15.6450  -11.6499   -4.5668 H   0  0  0  0  0  0  0  0  0  0  0  0
   13.7143  -11.9506   -2.9727 H   0  0  0  0  0  0  0  0  0  0  0  0
   12.7427  -10.8444   -3.9413 H   0  0  0  0  0  0  0  0  0  0  0  0
   14.4068   -8.9987   -3.5025 H   0  0  0  0  0  0  0  0  0  0  0  0
   15.3785  -10.1049   -2.5341 H   0  0  0  0  0  0  0  0  0  0  0  0
   13.4459  -10.4062   -0.9395 H   0  0  0  0  0  0  0  0  0  0  0  0
   12.4749   -9.2992   -1.9074 H   0  0  0  0  0  0  0  0  0  0  0  0
   14.1386   -7.4538   -1.4661 H   0  0  0  0  0  0  0  0  0  0  0  0
   15.1102   -8.5610   -0.4986 H   0  0  0  0  0  0  0  0  0  0  0  0
   13.1753   -8.8638    1.0971 H   0  0  0  0  0  0  0  0  0  0  0  0
   12.2049   -7.7553    0.1315 H   0  0  0  0  0  0  0  0  0  0  0  0
   13.8688   -5.9137    0.5675 H   0  0  0  0  0  0  0  0  0  0  0  0
   14.8441   -7.0231    1.5344 H   0  0  0  0  0  0  0  0  0  0  0  0
   11.7745   -4.9645    1.4549 H   0  0  0  0  0  0  0  0  0  0  0  0
   10.3889   -4.4517    3.4557 H   0  0  0  0  0  0  0  0  0  0  0  0
    9.6776   -1.6365    9.6244 H   0  0  0  0  0  0  0  0  0  0  0  0
    8.2452   -0.8770   11.4919 H   0  0  0  0  0  0  0  0  0  0  0  0
    7.0726   -3.0989   14.1876 H   0  0  0  0  0  0  0  0  0  0  0  0
    5.7969   -2.7416   13.0367 H   0  0  0  0  0  0  0  0  0  0  0  0
    6.5425   -0.3586   12.8928 H   0  0  0  0  0  0  0  0  0  0  0  0
    7.8970   -0.6973   13.9711 H   0  0  0  0  0  0  0  0  0  0  0  0
    6.2794   -1.3352   15.7951 H   0  0  0  0  0  0  0  0  0  0  0  0
    4.9264   -1.0176   14.7120 H   0  0  0  0  0  0  0  0  0  0  0  0
    5.6438    1.3939   14.5221 H   0  0  0  0  0  0  0  0  0  0  0  0
    6.9988    1.0762   15.6031 H   0  0  0  0  0  0  0  0  0  0  0  0
    5.3873    0.4281   17.4330 H   0  0  0  0  0  0  0  0  0  0  0  0
    4.0320    0.7443   16.3519 H   0  0  0  0  0  0  0  0  0  0  0  0
    4.7474    3.1568   16.1605 H   0  0  0  0  0  0  0  0  0  0  0  0
    6.1028    2.8406   17.2417 H   0  0  0  0  0  0  0  0  0  0  0  0
    4.4921    2.1909   19.0700 H   0  0  0  0  0  0  0  0  0  0  0  0
    3.1374    2.5067   17.9893 H   0  0  0  0  0  0  0  0  0  0  0  0
    5.1913    4.6255   18.9174 H   0  0  0  0  0  0  0  0  0  0  0  0
    3.5233    4.4644   19.5132 H   0  0  0  0  0  0  0  0  0  0  0  0
    3.8249    4.9440   17.8273 H   0  0  0  0  0  0  0  0  0  0  0  0
    7.4583   -4.9847   12.5444 H   0  0  0  0  0  0  0  0  0  0  0  0
    8.9186   -5.7353   10.6813 H   0  0  0  0  0  0  0  0  0  0  0  0
   11.1071   -3.4739   11.6444 H   0  0  0  0  0  0  0  0  0  0  0  0
   12.6938   -2.7166   13.3312 H   0  0  0  0  0  0  0  0  0  0  0  0
   15.0916   -2.2943   12.7186 H   0  0  0  0  0  0  0  0  0  0  0  0
   15.8457   -2.7178   10.3861 H   0  0  0  0  0  0  0  0  0  0  0  0
   15.3341   -3.3481    8.2524 H   0  0  0  0  0  0  0  0  0  0  0  0
   13.0818   -3.0034    4.7772 H   0  0  0  0  0  0  0  0  0  0  0  0
   14.5171   -2.9790    2.7639 H   0  0  0  0  0  0  0  0  0  0  0  0
   16.6927   -4.2019    2.7530 H   0  0  0  0  0  0  0  0  0  0  0  0
   17.4130   -5.4544    4.7905 H   0  0  0  0  0  0  0  0  0  0  0  0
   15.9945   -5.4536    6.8155 H   0  0  0  0  0  0  0  0  0  0  0  0
    6.9272   -2.6642    8.0841 H   0  0  0  0  0  0  0  0  0  0  0  0
    5.2626   -1.5790    9.5555 H   0  0  0  0  0  0  0  0  0  0  0  0
    3.6094   -2.9580   10.8192 H   0  0  0  0  0  0  0  0  0  0  0  0
    3.6511   -5.4454   10.5939 H   0  0  0  0  0  0  0  0  0  0  0  0
    5.2930   -6.5299    9.0972 H   0  0  0  0  0  0  0  0  0  0  0  0
    5.4633   -6.2122    6.4894 H   0  0  0  0  0  0  0  0  0  0  0  0
    5.1133   -7.6356    4.7385 H   0  0  0  0  0  0  0  0  0  0  0  0
    6.0439   -8.9215    2.8230 H   0  0  0  0  0  0  0  0  0  0  0  0
    8.5151   -8.8594    2.3851 H   0  0  0  0  0  0  0  0  0  0  0  0
    9.9795   -7.5029    3.7830 H   0  0  0  0  0  0  0  0  0  0  0  0
   12.6170   -7.3307    5.7472 H   0  0  0  0  0  0  0  0  0  0  0  0
   14.0255   -7.8275    3.7594 H   0  0  0  0  0  0  0  0  0  0  0  0
  1  2  1  0
  1 65  1  0
  1 66  1  0
  1 67  1  0
  2  3  1  0
  2 68  1  0
  2 69  1  0
  3  4  1  0
  3 70  1  0
  3 71  1  0
  4  5  1  0
  4 72  1  0
  4 73  1  0
  5  6  1  0
  5 74  1  0
  5 75  1  0
  6  7  1  0
  6 76  1  0
  6 77  1  0
  7  8  1  0
  7 78  1  0
  7 79  1  0
  8  9  1  0
  8 80  1  0
  8 81  1  0
  9 10  2  0
  9 64  1  0
 10 11  1  0
 10 82  1  0
 11 12  2  0
 11 83  1  0
 12 13  1  0
 12 63  1  0
 13 14  1  0
 13 17  1  0
 14 15  2  0
 14 62  1  0
 15 16  1  0
 15 49  1  0
 16 17  2  0
 16 20  1  0
 17 18  1  0
 18 19  2  0
 18 42  1  0
 19 20  1  0
 19 35  1  0
 20 21  1  0
 21 22  2  0
 21 34  1  0
 22 23  1  0
 22 84  1  0
 23 24  2  0
 23 85  1  0
 24 25  1  0
 24 33  1  0
 25 26  1  0
 25 86  1  0
 25 87  1  0
 26 27  1  0
 26 88  1  0
 26 89  1  0
 27 28  1  0
 27 90  1  0
 27 91  1  0
 28 29  1  0
 28 92  1  0
 28 93  1  0
 29 30  1  0
 29 94  1  0
 29 95  1  0
 30 31  1  0
 30 96  1  0
 30 97  1  0
 31 32  1  0
 31 98  1  0
 31 99  1  0
 32100  1  0
 32101  1  0
 32102  1  0
 33 34  2  0
 33103  1  0
 34104  1  0
 35 36  2  0
 35 40  1  0
 36 37  1  0
 36105  1  0
 37 38  2  0
 37106  1  0
 38 39  1  0
 38107  1  0
 39 40  2  0
 39108  1  0
 40 41  1  0
 41 42  1  0
 41109  1  0
 42 43  1  0
 43 44  2  0
 43 48  1  0
 44 45  1  0
 44110  1  0
 45 46  2  0
 45111  1  0
 46 47  1  0
 46112  1  0
 47 48  2  0
 47113  1  0
 48114  1  0
 49 50  1  0
 49 56  1  0
 50 51  2  0
 50 55  1  0
 51 52  1  0
 51115  1  0
 52 53  2  0
 52116  1  0
 53 54  1  0
 53117  1  0
 54 55  2  0
 54118  1  0
 55119  1  0
 56 57  1  0
 56120  1  0
 57 58  1  0
 57 62  2  0
 58 59  2  0
 58121  1  0
 59 60  1  0
 59122  1  0
 60 61  2  0
 60123  1  0
 61 62  1  0
 61124  1  0
 63 64  2  0
 63125  1  0
 64126  1  0
M  END

