
     RDKit          3D

 46 49  0  0  0  0  0  0  0  0999 V2000
    7.9036    3.8231    5.1533 C   0  0  0  0  0  0  0  0  0  0  0  0
    7.3118    2.5929    4.4753 C   0  0  0  0  0  0  0  0  0  0  0  0
    7.8933    2.5087    2.7496 S   0  0  1  0  0  0  0  0  0  0  0  0
    7.3263    3.6620    2.0348 O   0  0  0  0  0  0  0  0  0  0  0  0
    9.3472    2.2774    2.7859 O   0  0  0  0  0  0  0  0  0  0  0  0
    7.1253    1.0193    2.0887 C   0  0  0  0  0  0  0  0  0  0  0  0
    5.8447    1.0727    1.5289 C   0  0  0  0  0  0  0  0  0  0  0  0
    5.2517   -0.0143    1.0342 N   0  0  0  0  0  0  0  0  0  0  0  0
    5.9127   -1.1717    1.0706 C   0  0  0  0  0  0  0  0  0  0  0  0
    7.2148   -1.3346    1.5921 C   0  0  0  0  0  0  0  0  0  0  0  0
    7.9062   -2.6501    1.5719 C   0  0  0  0  0  0  0  0  0  0  0  0
    7.1434   -3.8372    1.7556 C   0  0  0  0  0  0  0  0  0  0  0  0
    7.7389   -5.0991    1.7413 C   0  0  0  0  0  0  0  0  0  0  0  0
    7.0385   -6.2931    1.9236 N   0  0  0  0  0  0  0  0  0  0  0  0
    5.6901   -6.4817    2.1141 C   0  0  0  0  0  0  0  0  0  0  0  0
    4.8488   -5.5997    2.1637 O   0  0  0  0  0  0  0  0  0  0  0  0
    5.3366   -7.9278    2.2616 C   0  0  0  0  0  0  0  0  0  0  0  0
    4.0546   -8.3760    2.4612 C   0  0  0  0  0  0  0  0  0  0  0  0
    4.0599  -10.0933    2.5794 S   0  0  0  0  0  0  0  0  0  0  0  0
    5.8045  -10.0958    2.3501 C   0  0  0  0  0  0  0  0  0  0  0  0
    6.5949  -11.3679    2.3343 C   0  0  0  0  0  0  0  0  0  0  0  0
    6.3033   -8.9033    2.2019 N   0  0  0  0  0  0  0  0  0  0  0  0
    9.1424   -5.1733    1.5356 C   0  0  0  0  0  0  0  0  0  0  0  0
   10.1223   -6.2130    1.4449 C   0  0  0  0  0  0  0  0  0  0  0  0
   11.3265   -5.7153    1.2325 N   0  0  0  0  0  0  0  0  0  0  0  0
   11.1785   -4.3776    1.1789 N   0  0  0  0  0  0  0  0  0  0  0  0
   11.9903   -3.7945    1.0199 H   0  0  0  0  0  0  0  0  0  0  0  0
    9.8816   -3.9778    1.3567 C   0  0  0  0  0  0  0  0  0  0  0  0
    9.2876   -2.7061    1.3707 C   0  0  0  0  0  0  0  0  0  0  0  0
    7.8252   -0.1849    2.1168 C   0  0  0  0  0  0  0  0  0  0  0  0
    7.5547    3.8815    6.1957 H   0  0  0  0  0  0  0  0  0  0  0  0
    7.5952    4.7397    4.6295 H   0  0  0  0  0  0  0  0  0  0  0  0
    9.0023    3.7744    5.1540 H   0  0  0  0  0  0  0  0  0  0  0  0
    6.2129    2.6233    4.4268 H   0  0  0  0  0  0  0  0  0  0  0  0
    7.6277    1.6525    4.9513 H   0  0  0  0  0  0  0  0  0  0  0  0
    5.3027    2.0224    1.4724 H   0  0  0  0  0  0  0  0  0  0  0  0
    5.3943   -2.0345    0.6384 H   0  0  0  0  0  0  0  0  0  0  0  0
    6.0735   -3.7770    1.9355 H   0  0  0  0  0  0  0  0  0  0  0  0
    7.5730   -7.1588    1.9120 H   0  0  0  0  0  0  0  0  0  0  0  0
    3.1524   -7.7729    2.5377 H   0  0  0  0  0  0  0  0  0  0  0  0
    5.9539  -12.2487    2.4766 H   0  0  0  0  0  0  0  0  0  0  0  0
    7.3530  -11.3540    3.1335 H   0  0  0  0  0  0  0  0  0  0  0  0
    7.1262  -11.4729    1.3750 H   0  0  0  0  0  0  0  0  0  0  0  0
    9.9941   -7.2927    1.5247 H   0  0  0  0  0  0  0  0  0  0  0  0
    9.8762   -1.8035    1.1995 H   0  0  0  0  0  0  0  0  0  0  0  0
    8.8288   -0.2132    2.5461 H   0  0  0  0  0  0  0  0  0  0  0  0
  1  2  1  0
  1 31  1  0
  1 32  1  0
  1 33  1  0
  3  2  1  1
  2 34  1  0
  2 35  1  0
  3  4  2  0
  3  5  2  0
  3  6  1  0
  6  7  2  0
  6 30  1  0
  7  8  1  0
  7 36  1  0
  8  9  2  0
  9 10  1  0
  9 37  1  0
 10 11  1  0
 10 30  2  0
 11 12  2  0
 11 29  1  0
 12 13  1  0
 12 38  1  0
 13 14  1  0
 13 23  2  0
 14 15  1  0
 14 39  1  0
 15 16  2  0
 15 17  1  0
 17 18  2  0
 17 22  1  0
 18 19  1  0
 18 40  1  0
 19 20  1  0
 20 21  1  0
 20 22  2  0
 21 41  1  0
 21 42  1  0
 21 43  1  0
 23 24  1  0
 23 28  1  0
 24 25  2  0
 24 44  1  0
 25 26  1  0
 26 27  1  0
 26 28  1  0
 28 29  2  0
 29 45  1  0
 30 46  1  0
M  END

