
     RDKit          3D

 23 23  0  0  0  0  0  0  0  0999 V2000
    0.9456   -0.0807    0.5261 C   0  0  0  0  0  0  0  0  0  0  0  0
    2.4218    0.1856    0.7392 C   0  0  0  0  0  0  0  0  0  0  0  0
    3.1481   -0.9591    0.2620 O   0  0  0  0  0  0  0  0  0  0  0  0
    4.4334   -1.1970    0.6441 C   0  0  0  0  0  0  0  0  0  0  0  0
    5.3887   -0.1992    0.8968 C   0  0  0  0  0  0  0  0  0  0  0  0
    5.0510    1.1015    0.7769 F   0  0  0  0  0  0  0  0  0  0  0  0
    6.6935   -0.5197    1.2581 C   0  0  0  0  0  0  0  0  0  0  0  0
    7.0797   -1.8561    1.3532 C   0  0  0  0  0  0  0  0  0  0  0  0
    6.1342   -2.8428    1.0813 C   0  0  0  0  0  0  0  0  0  0  0  0
    6.5111   -4.1300    1.1763 F   0  0  0  0  0  0  0  0  0  0  0  0
    4.8128   -2.5532    0.7342 C   0  0  0  0  0  0  0  0  0  0  0  0
    3.7892   -3.6371    0.4489 C   0  0  0  0  0  0  0  0  0  0  0  0
    3.2282   -3.5513   -0.8396 O   0  0  0  0  0  0  0  0  0  0  0  0
    0.3559    0.7859    0.8635 H   0  0  0  0  0  0  0  0  0  0  0  0
    0.6157   -0.9668    1.0896 H   0  0  0  0  0  0  0  0  0  0  0  0
    0.7281   -0.2463   -0.5407 H   0  0  0  0  0  0  0  0  0  0  0  0
    2.6496    0.3394    1.8080 H   0  0  0  0  0  0  0  0  0  0  0  0
    2.7464    1.0848    0.1940 H   0  0  0  0  0  0  0  0  0  0  0  0
    7.3969    0.2937    1.4450 H   0  0  0  0  0  0  0  0  0  0  0  0
    8.0963   -2.1431    1.6250 H   0  0  0  0  0  0  0  0  0  0  0  0
    3.0088   -3.5934    1.2371 H   0  0  0  0  0  0  0  0  0  0  0  0
    4.2734   -4.6195    0.5296 H   0  0  0  0  0  0  0  0  0  0  0  0
    2.8093   -2.6802   -0.8975 H   0  0  0  0  0  0  0  0  0  0  0  0
  1  2  1  0
  1 14  1  0
  1 15  1  0
  1 16  1  0
  2  3  1  0
  2 17  1  0
  2 18  1  0
  3  4  1  0
  4  5  2  0
  4 11  1  0
  5  6  1  0
  5  7  1  0
  7  8  2  0
  7 19  1  0
  8  9  1  0
  8 20  1  0
  9 10  1  0
  9 11  2  0
 11 12  1  0
 12 13  1  0
 12 21  1  0
 12 22  1  0
 13 23  1  0
M  END

