
     RDKit          3D

 38 38  0  0  0  0  0  0  0  0999 V2000
    0.8117   -0.1743   -0.1068 C   0  0  0  0  0  0  0  0  0  0  0  0
    2.3359   -0.0518   -0.1313 C   0  0  0  0  0  0  0  0  0  0  0  0
    2.8575    1.1471    0.6660 C   0  0  0  0  0  0  0  0  0  0  0  0
    4.3830    1.2894    0.6438 C   0  0  1  0  0  0  0  0  0  0  0  0
    4.9348    1.4178   -0.6631 O   0  0  0  0  0  0  0  0  0  0  0  0
    4.4738    2.4682   -1.4927 C   0  0  0  0  0  0  0  0  0  0  0  0
    5.2644    2.4229   -2.7891 C   0  0  0  0  0  0  0  0  0  0  0  0
    4.8861    2.3978    1.6032 C   0  0  1  0  0  0  0  0  0  0  0  0
    4.4189    2.1625    2.9186 O   0  0  0  0  0  0  0  0  0  0  0  0
    6.4216    2.5368    1.5477 C   0  0  0  0  0  0  0  0  0  0  0  0
    6.9648    3.5641    2.5099 C   0  0  0  0  0  0  0  0  0  0  0  0
    7.2250    4.8908    2.1300 C   0  0  0  0  0  0  0  0  0  0  0  0
    7.6962    5.8305    3.0499 C   0  0  0  0  0  0  0  0  0  0  0  0
    7.9215    5.4653    4.3804 C   0  0  0  0  0  0  0  0  0  0  0  0
    7.6699    4.1538    4.7696 C   0  0  0  0  0  0  0  0  0  0  0  0
    7.8782    3.7667    6.0319 F   0  0  0  0  0  0  0  0  0  0  0  0
    7.1977    3.2208    3.8443 C   0  0  0  0  0  0  0  0  0  0  0  0
    6.9797    1.9584    4.2628 F   0  0  0  0  0  0  0  0  0  0  0  0
    0.4668   -1.0515   -0.6773 H   0  0  0  0  0  0  0  0  0  0  0  0
    0.3301    0.7165   -0.5444 H   0  0  0  0  0  0  0  0  0  0  0  0
    0.4339   -0.2770    0.9243 H   0  0  0  0  0  0  0  0  0  0  0  0
    2.6899    0.0164   -1.1740 H   0  0  0  0  0  0  0  0  0  0  0  0
    2.7885   -0.9754    0.2730 H   0  0  0  0  0  0  0  0  0  0  0  0
    2.5573    1.0620    1.7221 H   0  0  0  0  0  0  0  0  0  0  0  0
    2.3880    2.0783    0.2999 H   0  0  0  0  0  0  0  0  0  0  0  0
    4.8163    0.3404    1.0124 H   0  0  0  0  0  0  0  0  0  0  0  0
    4.6029    3.4552   -1.0048 H   0  0  0  0  0  0  0  0  0  0  0  0
    3.3937    2.3599   -1.7085 H   0  0  0  0  0  0  0  0  0  0  0  0
    6.3398    2.5625   -2.5980 H   0  0  0  0  0  0  0  0  0  0  0  0
    4.9261    3.2137   -3.4771 H   0  0  0  0  0  0  0  0  0  0  0  0
    5.1327    1.4486   -3.2847 H   0  0  0  0  0  0  0  0  0  0  0  0
    4.4344    3.3621    1.3122 H   0  0  0  0  0  0  0  0  0  0  0  0
    4.9687    1.4786    3.3267 H   0  0  0  0  0  0  0  0  0  0  0  0
    6.7161    2.7905    0.5203 H   0  0  0  0  0  0  0  0  0  0  0  0
    6.8668    1.5500    1.7630 H   0  0  0  0  0  0  0  0  0  0  0  0
    7.0569    5.1834    1.0904 H   0  0  0  0  0  0  0  0  0  0  0  0
    7.8939    6.8562    2.7310 H   0  0  0  0  0  0  0  0  0  0  0  0
    8.2902    6.1743    5.1242 H   0  0  0  0  0  0  0  0  0  0  0  0
  1  2  1  0
  1 19  1  0
  1 20  1  0
  1 21  1  0
  2  3  1  0
  2 22  1  0
  2 23  1  0
  3  4  1  0
  3 24  1  0
  3 25  1  0
  4  5  1  0
  4  8  1  0
  4 26  1  1
  5  6  1  0
  6  7  1  0
  6 27  1  0
  6 28  1  0
  7 29  1  0
  7 30  1  0
  7 31  1  0
  8  9  1  0
  8 10  1  0
  8 32  1  6
  9 33  1  0
 10 11  1  0
 10 34  1  0
 10 35  1  0
 11 12  2  0
 11 17  1  0
 12 13  1  0
 12 36  1  0
 13 14  2  0
 13 37  1  0
 14 15  1  0
 14 38  1  0
 15 16  1  0
 15 17  2  0
 17 18  1  0
M  END

