
     RDKit          3D

 35 37  0  0  0  0  0  0  0  0999 V2000
    2.1524    1.8811   -0.8519 N   0  0  0  0  0  0  0  0  0  0  0  0
    3.0487    1.2857   -0.4040 C   0  0  0  0  0  0  0  0  0  0  0  0
    4.1287    0.5161    0.1079 C   0  0  0  0  0  0  0  0  0  0  0  0
    4.9335    0.9747    1.1601 C   0  0  0  0  0  0  0  0  0  0  0  0
    6.0281    0.3032    1.7118 C   0  0  0  0  0  0  0  0  0  0  0  0
    6.4554   -0.9394    1.2356 C   0  0  0  0  0  0  0  0  0  0  0  0
    5.8880   -1.6555    0.1723 C   0  0  0  0  0  0  0  0  0  0  0  0
    6.3783   -2.9297   -0.2233 C   0  0  0  0  0  0  0  0  0  0  0  0
    6.7502   -3.9741   -0.5830 N   0  0  0  0  0  0  0  0  0  0  0  0
    4.4657   -1.0342   -0.6987 P   0  0  1  0  0  0  0  0  0  0  0  0
    3.0392   -2.1742   -0.5961 C   0  0  0  0  0  0  0  0  0  0  0  0
    2.0481   -1.9594    0.3746 C   0  0  0  0  0  0  0  0  0  0  0  0
    0.9997   -2.8717    0.5143 C   0  0  0  0  0  0  0  0  0  0  0  0
    0.9469   -4.0083   -0.2980 C   0  0  0  0  0  0  0  0  0  0  0  0
    1.9410   -4.2331   -1.2561 C   0  0  0  0  0  0  0  0  0  0  0  0
    2.9844   -3.3183   -1.4115 C   0  0  0  0  0  0  0  0  0  0  0  0
    4.8032   -0.8256   -2.4841 C   0  0  0  0  0  0  0  0  0  0  0  0
    6.1303   -0.7603   -2.9368 C   0  0  0  0  0  0  0  0  0  0  0  0
    6.3954   -0.5172   -4.2866 C   0  0  0  0  0  0  0  0  0  0  0  0
    5.3411   -0.3196   -5.1832 C   0  0  0  0  0  0  0  0  0  0  0  0
    4.0178   -0.3693   -4.7326 C   0  0  0  0  0  0  0  0  0  0  0  0
    3.7445   -0.6260   -3.3877 C   0  0  0  0  0  0  0  0  0  0  0  0
    4.6645    1.9508    1.5762 H   0  0  0  0  0  0  0  0  0  0  0  0
    6.5659    0.7635    2.5411 H   0  0  0  0  0  0  0  0  0  0  0  0
    7.3117   -1.4127    1.7264 H   0  0  0  0  0  0  0  0  0  0  0  0
    2.0935   -1.0772    1.0173 H   0  0  0  0  0  0  0  0  0  0  0  0
    0.2233   -2.6940    1.2622 H   0  0  0  0  0  0  0  0  0  0  0  0
    0.1285   -4.7236   -0.1833 H   0  0  0  0  0  0  0  0  0  0  0  0
    1.9046   -5.1244   -1.8869 H   0  0  0  0  0  0  0  0  0  0  0  0
    3.7557   -3.5004   -2.1631 H   0  0  0  0  0  0  0  0  0  0  0  0
    6.9555   -0.9039   -2.2356 H   0  0  0  0  0  0  0  0  0  0  0  0
    7.4295   -0.4801   -4.6372 H   0  0  0  0  0  0  0  0  0  0  0  0
    5.5510   -0.1242   -6.2379 H   0  0  0  0  0  0  0  0  0  0  0  0
    3.1932   -0.2082   -5.4310 H   0  0  0  0  0  0  0  0  0  0  0  0
    2.7083   -0.6647   -3.0443 H   0  0  0  0  0  0  0  0  0  0  0  0
  1  2  3  0
  2  3  1  0
  3  4  1  0
  3 10  2  0
  4  5  2  0
  4 23  1  0
  5  6  1  0
  5 24  1  0
  6  7  2  0
  6 25  1  0
  7  8  1  0
  7 10  1  0
  8  9  3  0
 10 11  1  6
 10 17  1  0
 11 12  2  0
 11 16  1  0
 12 13  1  0
 12 26  1  0
 13 14  2  0
 13 27  1  0
 14 15  1  0
 14 28  1  0
 15 16  2  0
 15 29  1  0
 16 30  1  0
 17 18  2  0
 17 22  1  0
 18 19  1  0
 18 31  1  0
 19 20  2  0
 19 32  1  0
 20 21  1  0
 20 33  1  0
 21 22  2  0
 21 34  1  0
 22 35  1  0
M  END

