
     RDKit          3D

 41 42  0  0  0  0  0  0  0  0999 V2000
    6.5605    0.1131    1.4042 C   0  0  0  0  0  0  0  0  0  0  0  0
    5.4470   -0.0334    2.2730 O   0  0  0  0  0  0  0  0  0  0  0  0
    4.4241   -0.8708    1.9706 C   0  0  0  0  0  0  0  0  0  0  0  0
    3.1555   -0.5303    2.4663 C   0  0  0  0  0  0  0  0  0  0  0  0
    2.0581   -1.3585    2.2374 C   0  0  0  0  0  0  0  0  0  0  0  0
    2.1962   -2.5306    1.4909 C   0  0  0  0  0  0  0  0  0  0  0  0
    3.4454   -2.9011    0.9604 C   0  0  0  0  0  0  0  0  0  0  0  0
    3.6864   -4.1571    0.2148 C   0  0  0  0  0  0  0  0  0  0  0  0
    2.9843   -4.6762   -0.8158 C   0  0  0  0  0  0  0  0  0  0  0  0
    3.3826   -6.0115   -1.3952 C   0  0  0  0  0  0  0  0  0  0  0  0
    1.8177   -3.9840   -1.4975 C   0  0  0  0  0  0  0  0  0  0  0  0
    2.2203   -2.7510   -2.3692 C   0  0  1  0  0  0  0  0  0  0  0  0
    3.1525   -3.0881   -3.5475 C   0  0  0  0  0  0  0  0  0  0  0  0
    2.4173   -3.7800   -4.7042 C   0  0  0  0  0  0  0  0  0  0  0  0
    1.1949   -2.9595   -5.1347 C   0  0  0  0  0  0  0  0  0  0  0  0
    0.2981   -2.6585   -3.9318 C   0  0  0  0  0  0  0  0  0  0  0  0
    1.0746   -2.0032   -2.8857 N   0  0  0  0  0  0  0  0  0  0  0  0
    4.5395   -2.0644    1.2383 C   0  0  0  0  0  0  0  0  0  0  0  0
    5.7543   -2.4433    0.7802 F   0  0  0  0  0  0  0  0  0  0  0  0
    7.0720    1.0334    1.7199 H   0  0  0  0  0  0  0  0  0  0  0  0
    6.2418    0.2230    0.3534 H   0  0  0  0  0  0  0  0  0  0  0  0
    7.2591   -0.7338    1.4773 H   0  0  0  0  0  0  0  0  0  0  0  0
    3.0693    0.3950    3.0392 H   0  0  0  0  0  0  0  0  0  0  0  0
    1.0830   -1.0873    2.6493 H   0  0  0  0  0  0  0  0  0  0  0  0
    1.3391   -3.1893    1.3451 H   0  0  0  0  0  0  0  0  0  0  0  0
    4.5754   -4.7098    0.5390 H   0  0  0  0  0  0  0  0  0  0  0  0
    4.2804   -6.4241   -0.9118 H   0  0  0  0  0  0  0  0  0  0  0  0
    3.5756   -5.9394   -2.4795 H   0  0  0  0  0  0  0  0  0  0  0  0
    2.5636   -6.7441   -1.2774 H   0  0  0  0  0  0  0  0  0  0  0  0
    1.0932   -3.6189   -0.7546 H   0  0  0  0  0  0  0  0  0  0  0  0
    1.2740   -4.7178   -2.1130 H   0  0  0  0  0  0  0  0  0  0  0  0
    2.7680   -2.0689   -1.6981 H   0  0  0  0  0  0  0  0  0  0  0  0
    4.0019   -3.6952   -3.1963 H   0  0  0  0  0  0  0  0  0  0  0  0
    3.5749   -2.1382   -3.9166 H   0  0  0  0  0  0  0  0  0  0  0  0
    2.0895   -4.7903   -4.3984 H   0  0  0  0  0  0  0  0  0  0  0  0
    3.1044   -3.9268   -5.5544 H   0  0  0  0  0  0  0  0  0  0  0  0
    0.6190   -3.4895   -5.9120 H   0  0  0  0  0  0  0  0  0  0  0  0
    1.5318   -2.0028   -5.5706 H   0  0  0  0  0  0  0  0  0  0  0  0
   -0.1872   -3.6064   -3.6023 H   0  0  0  0  0  0  0  0  0  0  0  0
   -0.5199   -1.9814   -4.2293 H   0  0  0  0  0  0  0  0  0  0  0  0
    0.4765   -1.6854   -2.1264 H   0  0  0  0  0  0  0  0  0  0  0  0
  1  2  1  0
  1 20  1  0
  1 21  1  0
  1 22  1  0
  2  3  1  0
  3  4  2  0
  3 18  1  0
  4  5  1  0
  4 23  1  0
  5  6  2  0
  5 24  1  0
  6  7  1  0
  6 25  1  0
  7  8  1  0
  7 18  2  0
  8  9  2  0
  8 26  1  0
  9 10  1  0
  9 11  1  0
 10 27  1  0
 10 28  1  0
 10 29  1  0
 11 12  1  0
 11 30  1  0
 11 31  1  0
 12 13  1  0
 12 17  1  0
 12 32  1  1
 13 14  1  0
 13 33  1  0
 13 34  1  0
 14 15  1  0
 14 35  1  0
 14 36  1  0
 15 16  1  0
 15 37  1  0
 15 38  1  0
 16 17  1  0
 16 39  1  0
 16 40  1  0
 17 41  1  0
 18 19  1  0
M  END

