
     RDKit          3D

 42 44  0  0  0  0  0  0  0  0999 V2000
    1.8678   -1.5293    1.5438 C   0  0  0  0  0  0  0  0  0  0  0  0
    3.2580   -1.5170    1.2294 O   0  0  0  0  0  0  0  0  0  0  0  0
    3.5748   -1.1465   -0.0177 C   0  0  0  0  0  0  0  0  0  0  0  0
    2.7459   -0.8392   -0.8529 O   0  0  0  0  0  0  0  0  0  0  0  0
    5.0351   -1.1512   -0.2402 C   0  0  0  0  0  0  0  0  0  0  0  0
    5.9288   -1.3941    0.6974 N   0  0  0  0  0  0  0  0  0  0  0  0
    7.1476   -1.2523    0.0964 C   0  0  0  0  0  0  0  0  0  0  0  0
    8.5100   -1.3624    0.5430 C   0  0  0  0  0  0  0  0  0  0  0  0
    8.8817   -1.6828    1.8120 N   0  0  0  0  0  0  0  0  0  0  0  0
    7.9387   -1.9512    2.8844 C   0  0  0  0  0  0  0  0  0  0  0  0
   10.2818   -1.7766    2.1837 C   0  0  0  0  0  0  0  0  0  0  0  0
    9.4699   -1.1294   -0.3624 N   0  0  0  0  0  0  0  0  0  0  0  0
    9.1585   -0.8128   -1.6349 C   0  0  0  0  0  0  0  0  0  0  0  0
   10.2144   -0.6216   -2.4761 N   0  0  0  0  0  0  0  0  0  0  0  0
    7.9322   -0.6827   -2.1639 N   0  0  0  0  0  0  0  0  0  0  0  0
    6.9761   -0.9095   -1.2639 C   0  0  0  0  0  0  0  0  0  0  0  0
    5.6218   -0.8442   -1.4680 N   0  0  0  0  0  0  0  0  0  0  0  0
    5.0067   -0.5488   -2.7698 C   0  0  0  0  0  0  0  0  0  0  0  0
    4.7318   -1.7820   -3.6135 C   0  0  0  0  0  0  0  0  0  0  0  0
    3.4395   -2.3226   -3.6951 C   0  0  0  0  0  0  0  0  0  0  0  0
    3.1933   -3.4535   -4.4802 C   0  0  0  0  0  0  0  0  0  0  0  0
    4.2349   -4.0585   -5.1889 C   0  0  0  0  0  0  0  0  0  0  0  0
    5.5265   -3.5269   -5.1101 C   0  0  0  0  0  0  0  0  0  0  0  0
    5.7735   -2.3953   -4.3290 C   0  0  0  0  0  0  0  0  0  0  0  0
    1.7967   -1.8474    2.5912 H   0  0  0  0  0  0  0  0  0  0  0  0
    1.3231   -2.2318    0.8943 H   0  0  0  0  0  0  0  0  0  0  0  0
    1.4261   -0.5287    1.4181 H   0  0  0  0  0  0  0  0  0  0  0  0
    6.9064   -1.8632    2.5300 H   0  0  0  0  0  0  0  0  0  0  0  0
    8.0954   -1.2397    3.7158 H   0  0  0  0  0  0  0  0  0  0  0  0
    8.0976   -2.9693    3.2841 H   0  0  0  0  0  0  0  0  0  0  0  0
   10.9058   -1.5719    1.3086 H   0  0  0  0  0  0  0  0  0  0  0  0
   10.5089   -2.7867    2.5695 H   0  0  0  0  0  0  0  0  0  0  0  0
   10.5182   -1.0494    2.9817 H   0  0  0  0  0  0  0  0  0  0  0  0
   11.1411   -0.5634   -2.0790 H   0  0  0  0  0  0  0  0  0  0  0  0
   10.0345   -0.2348   -3.3920 H   0  0  0  0  0  0  0  0  0  0  0  0
    5.7219    0.1048   -3.2886 H   0  0  0  0  0  0  0  0  0  0  0  0
    4.0806    0.0037   -2.5830 H   0  0  0  0  0  0  0  0  0  0  0  0
    2.6296   -1.8556   -3.1307 H   0  0  0  0  0  0  0  0  0  0  0  0
    2.1812   -3.8633   -4.5378 H   0  0  0  0  0  0  0  0  0  0  0  0
    4.0412   -4.9421   -5.8029 H   0  0  0  0  0  0  0  0  0  0  0  0
    6.3456   -3.9944   -5.6631 H   0  0  0  0  0  0  0  0  0  0  0  0
    6.7820   -1.9793   -4.2610 H   0  0  0  0  0  0  0  0  0  0  0  0
  1  2  1  0
  1 25  1  0
  1 26  1  0
  1 27  1  0
  2  3  1  0
  3  4  2  0
  3  5  1  0
  5  6  2  0
  5 17  1  0
  6  7  1  0
  7  8  2  0
  7 16  1  0
  8  9  1  0
  8 12  1  0
  9 10  1  0
  9 11  1  0
 10 28  1  0
 10 29  1  0
 10 30  1  0
 11 31  1  0
 11 32  1  0
 11 33  1  0
 12 13  2  0
 13 14  1  0
 13 15  1  0
 14 34  1  0
 14 35  1  0
 15 16  2  0
 16 17  1  0
 17 18  1  0
 18 19  1  0
 18 36  1  0
 18 37  1  0
 19 20  2  0
 19 24  1  0
 20 21  1  0
 20 38  1  0
 21 22  2  0
 21 39  1  0
 22 23  1  0
 22 40  1  0
 23 24  2  0
 23 41  1  0
 24 42  1  0
M  END

