
     RDKit          3D

 26 27  0  0  0  0  0  0  0  0999 V2000
    1.1777    0.0121    0.5719 C   0  0  0  0  0  0  0  0  0  0  0  0
    2.6077    0.1036    0.1538 C   0  0  0  0  0  0  0  0  0  0  0  0
    3.3298    1.1310    0.4190 N   0  0  0  0  0  0  0  0  0  0  0  0
    4.6937    1.0810    0.0405 C   0  0  0  0  0  0  0  0  0  0  0  0
    5.3736    2.4262   -0.0146 C   0  0  0  0  0  0  0  0  0  0  0  0
    5.2994    3.1348    1.2412 N   0  0  0  0  0  0  0  0  0  0  0  0
    6.1745    4.2987    1.4521 C   0  0  0  0  0  0  0  0  0  0  0  0
    5.0445    4.9588    2.2753 C   0  0  0  0  0  0  0  0  0  0  0  0
    4.1098    3.9175    1.6175 C   0  0  0  0  0  0  0  0  0  0  0  0
    5.3669    0.0091   -0.2073 N   0  0  0  0  0  0  0  0  0  0  0  0
    4.6781   -1.2140   -0.2068 C   0  0  0  0  0  0  0  0  0  0  0  0
    5.1885   -2.2712    0.0494 O   0  0  0  0  0  0  0  0  0  0  0  0
    3.2087   -1.0636   -0.6120 C   0  0  1  0  0  0  0  0  0  0  0  0
    2.4935   -2.2154   -0.4374 F   0  0  0  0  0  0  0  0  0  0  0  0
    0.8808    0.9253    1.1020 H   0  0  0  0  0  0  0  0  0  0  0  0
    1.0360   -0.8693    1.2188 H   0  0  0  0  0  0  0  0  0  0  0  0
    0.5268   -0.1439   -0.3049 H   0  0  0  0  0  0  0  0  0  0  0  0
    4.9153    3.0034   -0.8574 H   0  0  0  0  0  0  0  0  0  0  0  0
    6.4284    2.2478   -0.2656 H   0  0  0  0  0  0  0  0  0  0  0  0
    6.3898    4.8600    0.5176 H   0  0  0  0  0  0  0  0  0  0  0  0
    7.1319    4.0810    1.9566 H   0  0  0  0  0  0  0  0  0  0  0  0
    4.8355    6.0192    2.0775 H   0  0  0  0  0  0  0  0  0  0  0  0
    5.1608    4.8040    3.3573 H   0  0  0  0  0  0  0  0  0  0  0  0
    3.5690    4.3285    0.7383 H   0  0  0  0  0  0  0  0  0  0  0  0
    3.3811    3.3908    2.2524 H   0  0  0  0  0  0  0  0  0  0  0  0
    3.1979   -0.7951   -1.6900 H   0  0  0  0  0  0  0  0  0  0  0  0
  1  2  1  0
  1 15  1  0
  1 16  1  0
  1 17  1  0
  2  3  2  0
  2 13  1  0
  3  4  1  0
  4  5  1  0
  4 10  2  0
  5  6  1  0
  5 18  1  0
  5 19  1  0
  6  7  1  0
  6  9  1  0
  7  8  1  0
  7 20  1  0
  7 21  1  0
  8  9  1  0
  8 22  1  0
  8 23  1  0
  9 24  1  0
  9 25  1  0
 10 11  1  0
 11 12  2  0
 11 13  1  0
 13 14  1  0
 13 26  1  6
M  END

