
     RDKit          3D

 31 32  0  0  0  0  0  0  0  0999 V2000
    1.4207   -0.3283    1.0286 C   0  0  0  0  0  0  0  0  0  0  0  0
    2.8768   -0.1693    0.6871 C   0  0  0  0  0  0  0  0  0  0  0  0
    3.5484    1.0609    0.9117 C   0  0  0  0  0  0  0  0  0  0  0  0
    2.8601    2.1402    1.4212 N   0  0  0  0  0  0  0  0  0  0  0  0
    4.9112    1.1855    0.5687 C   0  0  0  0  0  0  0  0  0  0  0  0
    5.5827    0.0968    0.0241 C   0  0  0  0  0  0  0  0  0  0  0  0
    7.3291    0.2573   -0.3483 S   0  0  1  0  0  0  0  0  0  0  0  0
    7.6520   -0.6010   -1.4883 O   0  0  0  0  0  0  0  0  0  0  0  0
    7.6627    1.6842   -0.3250 O   0  0  0  0  0  0  0  0  0  0  0  0
    8.0778   -0.5139    0.9773 N   0  0  0  0  0  0  0  0  0  0  0  0
    8.5419    0.2895    2.1083 C   0  0  0  0  0  0  0  0  0  0  0  0
    7.5849    0.2462    3.2654 C   0  0  0  0  0  0  0  0  0  0  0  0
    7.6347    0.9833    4.3606 N   0  0  0  0  0  0  0  0  0  0  0  0
    6.5620    0.5425    5.0742 C   0  0  0  0  0  0  0  0  0  0  0  0
    5.8541   -0.4107    4.4889 N   0  0  0  0  0  0  0  0  0  0  0  0
    6.5263   -0.5928    3.3355 N   0  0  0  0  0  0  0  0  0  0  0  0
    6.2152   -1.2562    2.6335 H   0  0  0  0  0  0  0  0  0  0  0  0
    4.9580   -1.1285   -0.2180 C   0  0  0  0  0  0  0  0  0  0  0  0
    3.6118   -1.2189    0.1266 C   0  0  0  0  0  0  0  0  0  0  0  0
    2.9838   -2.3846   -0.1002 F   0  0  0  0  0  0  0  0  0  0  0  0
    0.8085    0.4327    0.5143 H   0  0  0  0  0  0  0  0  0  0  0  0
    1.2455   -0.2122    2.1137 H   0  0  0  0  0  0  0  0  0  0  0  0
    1.0501   -1.3187    0.7384 H   0  0  0  0  0  0  0  0  0  0  0  0
    2.0087    1.9664    1.9392 H   0  0  0  0  0  0  0  0  0  0  0  0
    3.4048    2.9217    1.7640 H   0  0  0  0  0  0  0  0  0  0  0  0
    5.4413    2.1267    0.7219 H   0  0  0  0  0  0  0  0  0  0  0  0
    8.7643   -1.1577    0.5875 H   0  0  0  0  0  0  0  0  0  0  0  0
    8.7101    1.3393    1.8163 H   0  0  0  0  0  0  0  0  0  0  0  0
    9.5186   -0.1026    2.4346 H   0  0  0  0  0  0  0  0  0  0  0  0
    6.2922    0.9364    6.0541 H   0  0  0  0  0  0  0  0  0  0  0  0
    5.4772   -1.9700   -0.6756 H   0  0  0  0  0  0  0  0  0  0  0  0
  1  2  1  0
  1 21  1  0
  1 22  1  0
  1 23  1  0
  2  3  2  0
  2 19  1  0
  3  4  1  0
  3  5  1  0
  4 24  1  0
  4 25  1  0
  5  6  2  0
  5 26  1  0
  6  7  1  0
  6 18  1  0
  7  8  2  0
  7  9  2  0
  7 10  1  1
 10 11  1  0
 10 27  1  0
 11 12  1  0
 11 28  1  0
 11 29  1  0
 12 13  2  0
 12 16  1  0
 13 14  1  0
 14 15  2  0
 14 30  1  0
 15 16  1  0
 16 17  1  0
 18 19  2  0
 18 31  1  0
 19 20  1  0
M  END

