
     RDKit          3D

 45 46  0  0  0  0  0  0  0  0999 V2000
    0.1387    8.0285    4.4201 C   0  0  0  0  0  0  0  0  0  0  0  0
    0.8642    6.8771    4.0447 O   0  0  0  0  0  0  0  0  0  0  0  0
    2.1057    7.0023    3.5262 C   0  0  0  0  0  0  0  0  0  0  0  0
    2.7635    8.2270    3.3572 C   0  0  0  0  0  0  0  0  0  0  0  0
    4.0523    8.2942    2.7934 C   0  0  0  0  0  0  0  0  0  0  0  0
    4.6938    9.4682    2.6260 O   0  0  0  0  0  0  0  0  0  0  0  0
    4.0789   10.6799    2.9982 C   0  0  0  0  0  0  0  0  0  0  0  0
    4.6973    7.0969    2.3886 C   0  0  0  0  0  0  0  0  0  0  0  0
    6.0463    6.9775    1.7730 C   0  0  0  0  0  0  0  0  0  0  0  0
    6.5406    5.9101    1.4644 O   0  0  0  0  0  0  0  0  0  0  0  0
    6.6742    8.1528    1.5674 O   0  0  0  0  0  0  0  0  0  0  0  0
    8.0249    8.1380    1.0620 C   0  0  2  0  0  0  0  0  0  0  0  0
    8.2534    7.1188    0.7165 H   0  0  0  0  0  0  0  0  0  0  0  0
    8.9796    8.5479    2.1687 C   0  0  0  0  0  0  0  0  0  0  0  0
    8.0520    9.1124   -0.1322 C   0  0  0  0  0  0  0  0  0  0  0  0
    8.7151   10.1292   -0.0717 O   0  0  0  0  0  0  0  0  0  0  0  0
    7.2494    8.7843   -1.3531 C   0  0  0  0  0  0  0  0  0  0  0  0
    7.1327    9.7804   -2.3412 C   0  0  0  0  0  0  0  0  0  0  0  0
    6.4226    9.5477   -3.5146 C   0  0  0  0  0  0  0  0  0  0  0  0
    5.8301    8.2974   -3.7007 C   0  0  0  0  0  0  0  0  0  0  0  0
    5.1469    8.0643   -4.8272 F   0  0  0  0  0  0  0  0  0  0  0  0
    5.9325    7.2859   -2.7478 C   0  0  0  0  0  0  0  0  0  0  0  0
    6.6423    7.5338   -1.5720 C   0  0  0  0  0  0  0  0  0  0  0  0
    4.0141    5.8791    2.5818 C   0  0  0  0  0  0  0  0  0  0  0  0
    2.7460    5.8004    3.1335 C   0  0  0  0  0  0  0  0  0  0  0  0
    2.1132    4.5928    3.2273 O   0  0  0  0  0  0  0  0  0  0  0  0
    1.9421    4.0606    4.5315 C   0  0  0  0  0  0  0  0  0  0  0  0
   -0.8339    7.6767    4.7885 H   0  0  0  0  0  0  0  0  0  0  0  0
   -0.0260    8.7035    3.5619 H   0  0  0  0  0  0  0  0  0  0  0  0
    0.6458    8.5886    5.2259 H   0  0  0  0  0  0  0  0  0  0  0  0
    2.2666    9.1437    3.6616 H   0  0  0  0  0  0  0  0  0  0  0  0
    4.7961   11.4751    2.7555 H   0  0  0  0  0  0  0  0  0  0  0  0
    3.8587   10.7164    4.0805 H   0  0  0  0  0  0  0  0  0  0  0  0
    3.1447   10.8586    2.4361 H   0  0  0  0  0  0  0  0  0  0  0  0
   10.0129    8.5652    1.7924 H   0  0  0  0  0  0  0  0  0  0  0  0
    8.9184    7.8304    3.0002 H   0  0  0  0  0  0  0  0  0  0  0  0
    8.7356    9.5541    2.5366 H   0  0  0  0  0  0  0  0  0  0  0  0
    7.6184   10.7416   -2.1628 H   0  0  0  0  0  0  0  0  0  0  0  0
    6.3195   10.3104   -4.2889 H   0  0  0  0  0  0  0  0  0  0  0  0
    5.4581    6.3211   -2.9360 H   0  0  0  0  0  0  0  0  0  0  0  0
    6.7193    6.7337   -0.8336 H   0  0  0  0  0  0  0  0  0  0  0  0
    4.5066    4.9581    2.2681 H   0  0  0  0  0  0  0  0  0  0  0  0
    1.4652    3.0773    4.4127 H   0  0  0  0  0  0  0  0  0  0  0  0
    1.2949    4.7000    5.1544 H   0  0  0  0  0  0  0  0  0  0  0  0
    2.9146    3.9258    5.0400 H   0  0  0  0  0  0  0  0  0  0  0  0
  1  2  1  0
  1 28  1  0
  1 29  1  0
  1 30  1  0
  2  3  1  0
  3  4  2  0
  3 25  1  0
  4  5  1  0
  4 31  1  0
  5  6  1  0
  5  8  2  0
  6  7  1  0
  7 32  1  0
  7 33  1  0
  7 34  1  0
  8  9  1  0
  8 24  1  0
  9 10  2  0
  9 11  1  0
 11 12  1  0
 12 13  1  6
 12 14  1  0
 12 15  1  0
 14 35  1  0
 14 36  1  0
 14 37  1  0
 15 16  2  0
 15 17  1  0
 17 18  2  0
 17 23  1  0
 18 19  1  0
 18 38  1  0
 19 20  2  0
 19 39  1  0
 20 21  1  0
 20 22  1  0
 22 23  2  0
 22 40  1  0
 23 41  1  0
 24 25  2  0
 24 42  1  0
 25 26  1  0
 26 27  1  0
 27 43  1  0
 27 44  1  0
 27 45  1  0
M  END

