
     RDKit          3D

 36 38  0  0  0  0  0  0  0  0999 V2000
    3.5440   -0.5829    0.9315 C   0  0  0  0  0  0  0  0  0  0  0  0
    2.4571    0.1324    0.1273 C   0  0  0  0  0  0  0  0  0  0  0  0
    2.9041    1.3678   -0.4928 N   0  0  0  0  0  0  0  0  0  0  0  0
    2.6985    2.6472   -0.0292 C   0  0  0  0  0  0  0  0  0  0  0  0
    3.2537    3.5826   -0.7546 N   0  0  0  0  0  0  0  0  0  0  0  0
    3.8866    2.9023   -1.7812 C   0  0  0  0  0  0  0  0  0  0  0  0
    4.6333    3.3988   -2.8554 C   0  0  0  0  0  0  0  0  0  0  0  0
    5.1779    2.4973   -3.7863 C   0  0  0  0  0  0  0  0  0  0  0  0
    5.9575    2.9920   -4.8350 N   0  0  0  0  0  0  0  0  0  0  0  0
    6.3120    2.1964   -5.9911 C   0  0  0  0  0  0  0  0  0  0  0  0
    7.2163    2.9611   -6.9362 C   0  0  0  0  0  0  0  0  0  0  0  0
    8.3199    3.6798   -6.4480 C   0  0  0  0  0  0  0  0  0  0  0  0
    9.1763    4.3625   -7.3129 C   0  0  0  0  0  0  0  0  0  0  0  0
    8.9323    4.3278   -8.6896 C   0  0  0  0  0  0  0  0  0  0  0  0
   10.0010    5.1806   -9.7809 Cl  0  0  0  0  0  0  0  0  0  0  0  0
    7.8408    3.6217   -9.2000 C   0  0  0  0  0  0  0  0  0  0  0  0
    6.9904    2.9476   -8.3194 C   0  0  0  0  0  0  0  0  0  0  0  0
    4.9463    1.1029   -3.6260 C   0  0  0  0  0  0  0  0  0  0  0  0
    4.2092    0.5948   -2.5548 C   0  0  0  0  0  0  0  0  0  0  0  0
    3.6834    1.5043   -1.6357 C   0  0  0  0  0  0  0  0  0  0  0  0
    3.1446   -1.5107    1.3711 H   0  0  0  0  0  0  0  0  0  0  0  0
    3.9124    0.0553    1.7497 H   0  0  0  0  0  0  0  0  0  0  0  0
    4.4026   -0.8481    0.2959 H   0  0  0  0  0  0  0  0  0  0  0  0
    1.6025    0.3810    0.7763 H   0  0  0  0  0  0  0  0  0  0  0  0
    2.0664   -0.5294   -0.6641 H   0  0  0  0  0  0  0  0  0  0  0  0
    2.1065    2.8209    0.8725 H   0  0  0  0  0  0  0  0  0  0  0  0
    4.7910    4.4755   -2.9554 H   0  0  0  0  0  0  0  0  0  0  0  0
    5.7889    3.9694   -5.0471 H   0  0  0  0  0  0  0  0  0  0  0  0
    5.4256    1.8278   -6.5499 H   0  0  0  0  0  0  0  0  0  0  0  0
    6.8484    1.2932   -5.6462 H   0  0  0  0  0  0  0  0  0  0  0  0
    8.5050    3.7069   -5.3715 H   0  0  0  0  0  0  0  0  0  0  0  0
   10.0326    4.9189   -6.9278 H   0  0  0  0  0  0  0  0  0  0  0  0
    7.6572    3.6075  -10.2757 H   0  0  0  0  0  0  0  0  0  0  0  0
    6.1321    2.4020   -8.7216 H   0  0  0  0  0  0  0  0  0  0  0  0
    5.3522    0.3999   -4.3535 H   0  0  0  0  0  0  0  0  0  0  0  0
    4.0530   -0.4824   -2.4618 H   0  0  0  0  0  0  0  0  0  0  0  0
  1  2  1  0
  1 21  1  0
  1 22  1  0
  1 23  1  0
  2  3  1  0
  2 24  1  0
  2 25  1  0
  3  4  1  0
  3 20  1  0
  4  5  2  0
  4 26  1  0
  5  6  1  0
  6  7  1  0
  6 20  2  0
  7  8  2  0
  7 27  1  0
  8  9  1  0
  8 18  1  0
  9 10  1  0
  9 28  1  0
 10 11  1  0
 10 29  1  0
 10 30  1  0
 11 12  2  0
 11 17  1  0
 12 13  1  0
 12 31  1  0
 13 14  2  0
 13 32  1  0
 14 15  1  0
 14 16  1  0
 16 17  2  0
 16 33  1  0
 17 34  1  0
 18 19  2  0
 18 35  1  0
 19 20  1  0
 19 36  1  0
M  END

