
     RDKit          3D

 39 40  0  0  0  0  0  0  0  0999 V2000
    0.9391    0.4718   -0.5383 C   0  0  0  0  0  0  0  0  0  0  0  0
    2.3780    0.2215   -0.2328 C   0  0  0  0  0  0  0  0  0  0  0  0
    2.8487   -0.9302    0.1331 N   0  0  0  0  0  0  0  0  0  0  0  0
    4.2219   -0.7577    0.3167 C   0  0  0  0  0  0  0  0  0  0  0  0
    5.1598   -1.6657    0.7034 C   0  0  0  0  0  0  0  0  0  0  0  0
    5.0198   -3.0743    1.0390 C   0  0  0  0  0  0  0  0  0  0  0  0
    3.7824   -3.7545    1.0101 C   0  0  0  0  0  0  0  0  0  0  0  0
    3.7530   -5.1038    1.3503 C   0  0  0  0  0  0  0  0  0  0  0  0
    4.9098   -5.7959    1.7165 C   0  0  0  0  0  0  0  0  0  0  0  0
    6.1669   -5.1415    1.7529 C   0  0  0  0  0  0  0  0  0  0  0  0
    7.3227   -5.8149    2.1104 N   0  0  0  0  0  0  0  0  0  0  0  0
    7.2602   -7.2117    2.4838 C   0  0  0  0  0  0  0  0  0  0  0  0
    8.5859   -5.1100    2.1595 C   0  0  0  0  0  0  0  0  0  0  0  0
    6.1887   -3.7713    1.4083 C   0  0  0  0  0  0  0  0  0  0  0  0
    4.5724    0.6585    0.0213 C   0  0  0  0  0  0  0  0  0  0  0  0
    5.6572    1.2259    0.0613 O   0  0  0  0  0  0  0  0  0  0  0  0
    3.3464    1.2330   -0.3171 N   0  0  0  0  0  0  0  0  0  0  0  0
    3.1462    2.6059   -0.7844 C   0  0  0  0  0  0  0  0  0  0  0  0
    3.8004    3.6953    0.0815 C   0  0  0  0  0  0  0  0  0  0  0  0
    5.1556    3.8954   -0.1782 O   0  0  0  0  0  0  0  0  0  0  0  0
    0.3888   -0.4666   -0.3987 H   0  0  0  0  0  0  0  0  0  0  0  0
    0.7981    0.8178   -1.5757 H   0  0  0  0  0  0  0  0  0  0  0  0
    0.5099    1.2387    0.1280 H   0  0  0  0  0  0  0  0  0  0  0  0
    6.1720   -1.2516    0.7658 H   0  0  0  0  0  0  0  0  0  0  0  0
    2.8807   -3.2146    0.7253 H   0  0  0  0  0  0  0  0  0  0  0  0
    2.8020   -5.6432    1.3336 H   0  0  0  0  0  0  0  0  0  0  0  0
    4.8297   -6.8513    1.9744 H   0  0  0  0  0  0  0  0  0  0  0  0
    6.6180   -7.3843    3.3686 H   0  0  0  0  0  0  0  0  0  0  0  0
    8.2685   -7.5689    2.7297 H   0  0  0  0  0  0  0  0  0  0  0  0
    6.8720   -7.8465    1.6654 H   0  0  0  0  0  0  0  0  0  0  0  0
    8.8638   -4.6819    1.1784 H   0  0  0  0  0  0  0  0  0  0  0  0
    9.3813   -5.8067    2.4540 H   0  0  0  0  0  0  0  0  0  0  0  0
    8.5784   -4.2802    2.8918 H   0  0  0  0  0  0  0  0  0  0  0  0
    7.1274   -3.2183    1.4219 H   0  0  0  0  0  0  0  0  0  0  0  0
    2.0614    2.7773   -0.8194 H   0  0  0  0  0  0  0  0  0  0  0  0
    3.5335    2.7114   -1.8135 H   0  0  0  0  0  0  0  0  0  0  0  0
    3.5866    3.4693    1.1496 H   0  0  0  0  0  0  0  0  0  0  0  0
    3.2827    4.6427   -0.1489 H   0  0  0  0  0  0  0  0  0  0  0  0
    5.5978    3.0305   -0.0621 H   0  0  0  0  0  0  0  0  0  0  0  0
  1  2  1  0
  1 21  1  0
  1 22  1  0
  1 23  1  0
  2  3  2  0
  2 17  1  0
  3  4  1  0
  4  5  2  0
  4 15  1  0
  5  6  1  0
  5 24  1  0
  6  7  2  0
  6 14  1  0
  7  8  1  0
  7 25  1  0
  8  9  2  0
  8 26  1  0
  9 10  1  0
  9 27  1  0
 10 11  1  0
 10 14  2  0
 11 12  1  0
 11 13  1  0
 12 28  1  0
 12 29  1  0
 12 30  1  0
 13 31  1  0
 13 32  1  0
 13 33  1  0
 14 34  1  0
 15 16  2  0
 15 17  1  0
 17 18  1  0
 18 19  1  0
 18 35  1  0
 18 36  1  0
 19 20  1  0
 19 37  1  0
 19 38  1  0
 20 39  1  0
M  END

