
     RDKit          3D

 32 34  0  0  0  0  0  0  0  0999 V2000
    0.9852   -0.0170   -0.0386 C   0  0  0  0  0  0  0  0  0  0  0  0
    2.4807    0.0617    0.0151 C   0  0  0  0  0  0  0  0  0  0  0  0
    3.2746    1.1888   -0.0322 C   0  0  0  0  0  0  0  0  0  0  0  0
    2.8769    2.6219   -0.1881 C   0  0  0  0  0  0  0  0  0  0  0  0
    4.6276    0.8085    0.0332 N   0  0  0  0  0  0  0  0  0  0  0  0
    5.7464    1.6770   -0.0088 C   0  0  0  0  0  0  0  0  0  0  0  0
    5.9252    2.6710    0.9658 C   0  0  0  0  0  0  0  0  0  0  0  0
    7.0293    3.5228    0.9101 C   0  0  0  0  0  0  0  0  0  0  0  0
    7.9808    3.3827   -0.1040 C   0  0  0  0  0  0  0  0  0  0  0  0
    9.4960    4.5175   -0.1905 Br  0  0  0  0  0  0  0  0  0  0  0  0
    7.8054    2.3798   -1.0648 C   0  0  0  0  0  0  0  0  0  0  0  0
    8.6986    2.2303   -2.0434 F   0  0  0  0  0  0  0  0  0  0  0  0
    6.6982    1.5375   -1.0302 C   0  0  0  0  0  0  0  0  0  0  0  0
    4.6963   -0.5797    0.1194 C   0  0  0  0  0  0  0  0  0  0  0  0
    5.8028   -1.4317    0.2330 C   0  0  0  0  0  0  0  0  0  0  0  0
    5.5586   -2.8017    0.3242 C   0  0  0  0  0  0  0  0  0  0  0  0
    4.2448   -3.3135    0.3098 C   0  0  0  0  0  0  0  0  0  0  0  0
    3.1478   -2.4612    0.2104 C   0  0  0  0  0  0  0  0  0  0  0  0
    3.3650   -1.0745    0.1158 C   0  0  0  0  0  0  0  0  0  0  0  0
    0.5198    0.9717   -0.1616 H   0  0  0  0  0  0  0  0  0  0  0  0
    0.5710   -0.4615    0.8833 H   0  0  0  0  0  0  0  0  0  0  0  0
    0.6450   -0.6500   -0.8764 H   0  0  0  0  0  0  0  0  0  0  0  0
    1.8128    2.6901   -0.4504 H   0  0  0  0  0  0  0  0  0  0  0  0
    3.4534    3.1195   -0.9851 H   0  0  0  0  0  0  0  0  0  0  0  0
    3.0270    3.2109    0.7325 H   0  0  0  0  0  0  0  0  0  0  0  0
    5.2062    2.7653    1.7804 H   0  0  0  0  0  0  0  0  0  0  0  0
    7.1674    4.2951    1.6686 H   0  0  0  0  0  0  0  0  0  0  0  0
    6.5829    0.7832   -1.8097 H   0  0  0  0  0  0  0  0  0  0  0  0
    6.8226   -1.0429    0.2537 H   0  0  0  0  0  0  0  0  0  0  0  0
    6.4034   -3.4897    0.4112 H   0  0  0  0  0  0  0  0  0  0  0  0
    4.0890   -4.3928    0.3824 H   0  0  0  0  0  0  0  0  0  0  0  0
    2.1313   -2.8635    0.2097 H   0  0  0  0  0  0  0  0  0  0  0  0
  1  2  1  0
  1 20  1  0
  1 21  1  0
  1 22  1  0
  2  3  2  0
  2 19  1  0
  3  4  1  0
  3  5  1  0
  4 23  1  0
  4 24  1  0
  4 25  1  0
  5  6  1  0
  5 14  1  0
  6  7  2  0
  6 13  1  0
  7  8  1  0
  7 26  1  0
  8  9  2  0
  8 27  1  0
  9 10  1  0
  9 11  1  0
 11 12  1  0
 11 13  2  0
 13 28  1  0
 14 15  1  0
 14 19  2  0
 15 16  2  0
 15 29  1  0
 16 17  1  0
 16 30  1  0
 17 18  2  0
 17 31  1  0
 18 19  1  0
 18 32  1  0
M  END

