
     RDKit          3D

 37 39  0  0  0  0  0  0  0  0999 V2000
    1.1882    0.4206   -1.0329 C   0  0  0  0  0  0  0  0  0  0  0  0
    2.6852    0.1751   -0.8950 C   0  0  0  0  0  0  0  0  0  0  0  0
    3.1124   -1.2427   -1.2115 C   0  0  0  0  0  0  0  0  0  0  0  0
    2.3219   -2.1111   -1.5513 O   0  0  0  0  0  0  0  0  0  0  0  0
    4.4847   -1.4568   -1.0927 N   0  0  0  0  0  0  0  0  0  0  0  0
    4.9499   -2.6467   -1.2629 C   0  0  0  0  0  0  0  0  0  0  0  0
    3.9874   -4.1084   -1.6228 S   0  0  0  0  0  0  0  0  0  0  0  0
    5.4752   -5.1761   -1.4308 C   0  0  2  0  0  0  0  0  0  0  0  0
    5.4480   -5.9529   -2.2061 H   0  0  0  0  0  0  0  0  0  0  0  0
    5.5858   -5.8292   -0.0567 C   0  0  0  0  0  0  0  0  0  0  0  0
    7.3424   -6.3247    0.0068 S   0  0  1  0  0  0  0  0  0  0  0  0
    7.8587   -6.3742    1.3758 O   0  0  0  0  0  0  0  0  0  0  0  0
    7.5112   -7.4532   -0.9193 O   0  0  0  0  0  0  0  0  0  0  0  0
    7.9179   -4.8062   -0.8626 C   0  0  0  0  0  0  0  0  0  0  0  0
    6.7109   -4.2601   -1.6532 C   0  0  2  0  0  0  0  0  0  0  0  0
    6.9400   -4.2336   -2.7323 H   0  0  0  0  0  0  0  0  0  0  0  0
    6.3015   -2.9211   -1.1989 N   0  0  0  0  0  0  0  0  0  0  0  0
    7.2704   -1.8803   -1.0725 C   0  0  0  0  0  0  0  0  0  0  0  0
    8.3133   -1.7844   -2.0046 C   0  0  0  0  0  0  0  0  0  0  0  0
    9.2767   -0.7833   -1.8543 C   0  0  0  0  0  0  0  0  0  0  0  0
   10.5755   -0.6740   -3.0153 Cl  0  0  0  0  0  0  0  0  0  0  0  0
    9.2189    0.1330   -0.8039 C   0  0  0  0  0  0  0  0  0  0  0  0
    8.1660    0.0209    0.1099 C   0  0  0  0  0  0  0  0  0  0  0  0
    8.0730    1.1503    1.4367 Cl  0  0  0  0  0  0  0  0  0  0  0  0
    7.1966   -0.9754   -0.0041 C   0  0  0  0  0  0  0  0  0  0  0  0
    0.9398    1.4655   -0.7922 H   0  0  0  0  0  0  0  0  0  0  0  0
    0.6147   -0.2350   -0.3603 H   0  0  0  0  0  0  0  0  0  0  0  0
    0.8453    0.2108   -2.0574 H   0  0  0  0  0  0  0  0  0  0  0  0
    3.0468    0.4013    0.1244 H   0  0  0  0  0  0  0  0  0  0  0  0
    3.2745    0.8409   -1.5503 H   0  0  0  0  0  0  0  0  0  0  0  0
    4.9749   -6.7327    0.0682 H   0  0  0  0  0  0  0  0  0  0  0  0
    5.4085   -5.1289    0.7724 H   0  0  0  0  0  0  0  0  0  0  0  0
    8.7539   -5.1236   -1.4984 H   0  0  0  0  0  0  0  0  0  0  0  0
    8.2779   -4.1134   -0.0924 H   0  0  0  0  0  0  0  0  0  0  0  0
    8.3850   -2.4671   -2.8504 H   0  0  0  0  0  0  0  0  0  0  0  0
    9.9732    0.9116   -0.6966 H   0  0  0  0  0  0  0  0  0  0  0  0
    6.3881   -1.0396    0.7201 H   0  0  0  0  0  0  0  0  0  0  0  0
  1  2  1  0
  1 26  1  0
  1 27  1  0
  1 28  1  0
  2  3  1  0
  2 29  1  0
  2 30  1  0
  3  4  2  0
  3  5  1  0
  5  6  2  0
  6  7  1  0
  6 17  1  0
  7  8  1  0
  8  9  1  6
  8 10  1  0
  8 15  1  0
 11 10  1  1
 10 31  1  0
 10 32  1  0
 11 12  2  0
 11 13  2  0
 11 14  1  0
 14 15  1  0
 14 33  1  0
 14 34  1  0
 15 16  1  6
 15 17  1  0
 17 18  1  0
 18 19  2  0
 18 25  1  0
 19 20  1  0
 19 35  1  0
 20 21  1  0
 20 22  2  0
 22 23  1  0
 22 36  1  0
 23 24  1  0
 23 25  2  0
 25 37  1  0
M  END

