
     RDKit          3D

 42 42  0  0  0  0  0  0  0  0999 V2000
    1.0466    0.7095    0.3108 C   0  0  0  0  0  0  0  0  0  0  0  0
    2.5625    0.8502    0.4985 C   0  0  1  0  0  0  0  0  0  0  0  0
    2.9408    2.3106    0.7748 C   0  0  0  0  0  0  0  0  0  0  0  0
    3.0823   -0.0835    1.6132 C   0  0  1  0  0  0  0  0  0  0  0  0
    2.7670    0.3732    2.5784 H   0  0  0  0  0  0  0  0  0  0  0  0
    2.5787   -1.4510    1.4417 N   0  0  0  0  0  0  0  0  0  0  0  0
    4.6275   -0.1562    1.6019 C   0  0  0  0  0  0  0  0  0  0  0  0
    5.2694    0.2218    0.6330 O   0  0  0  0  0  0  0  0  0  0  0  0
    5.2508   -0.7059    2.7048 N   0  0  0  0  0  0  0  0  0  0  0  0
    4.5846   -1.0819    3.9403 C   0  0  0  0  0  0  0  0  0  0  0  0
    6.7207   -0.8658    2.6482 C   0  0  1  0  0  0  0  0  0  0  0  0
    7.4083    0.3074    3.3702 C   0  0  0  0  0  0  0  0  0  0  0  0
    8.9445    0.2960    3.3939 C   0  0  0  0  0  0  0  0  0  0  0  0
    9.5582   -0.8044    4.2754 C   0  0  0  0  0  0  0  0  0  0  0  0
    9.7120   -2.1919    3.6237 C   0  0  0  0  0  0  0  0  0  0  0  0
    8.5852   -2.6371    2.6732 C   0  0  0  0  0  0  0  0  0  0  0  0
    7.1489   -2.2779    3.0927 C   0  0  0  0  0  0  0  0  0  0  0  0
    0.6915    1.3919   -0.4778 H   0  0  0  0  0  0  0  0  0  0  0  0
    0.4964    0.9659    1.2348 H   0  0  0  0  0  0  0  0  0  0  0  0
    0.7669   -0.3118    0.0119 H   0  0  0  0  0  0  0  0  0  0  0  0
    3.0625    0.5301   -0.4293 H   0  0  0  0  0  0  0  0  0  0  0  0
    2.4754    2.6753    1.7080 H   0  0  0  0  0  0  0  0  0  0  0  0
    2.5908    2.9628   -0.0414 H   0  0  0  0  0  0  0  0  0  0  0  0
    4.0298    2.4354    0.8555 H   0  0  0  0  0  0  0  0  0  0  0  0
    1.5976   -1.5127    1.7091 H   0  0  0  0  0  0  0  0  0  0  0  0
    3.0827   -2.1121    2.0290 H   0  0  0  0  0  0  0  0  0  0  0  0
    3.5905   -0.6270    4.0109 H   0  0  0  0  0  0  0  0  0  0  0  0
    5.1650   -0.7284    4.8076 H   0  0  0  0  0  0  0  0  0  0  0  0
    4.4694   -2.1757    4.0466 H   0  0  0  0  0  0  0  0  0  0  0  0
    6.9625   -0.7744    1.5804 H   0  0  0  0  0  0  0  0  0  0  0  0
    7.0509    0.3612    4.4156 H   0  0  0  0  0  0  0  0  0  0  0  0
    7.0630    1.2302    2.8761 H   0  0  0  0  0  0  0  0  0  0  0  0
    9.2724    1.2763    3.7784 H   0  0  0  0  0  0  0  0  0  0  0  0
    9.3424    0.2341    2.3648 H   0  0  0  0  0  0  0  0  0  0  0  0
    8.9438   -0.8903    5.1898 H   0  0  0  0  0  0  0  0  0  0  0  0
   10.5530   -0.4819    4.6262 H   0  0  0  0  0  0  0  0  0  0  0  0
    9.8251   -2.9377    4.4302 H   0  0  0  0  0  0  0  0  0  0  0  0
   10.6601   -2.2251    3.0592 H   0  0  0  0  0  0  0  0  0  0  0  0
    8.6592   -3.7304    2.5496 H   0  0  0  0  0  0  0  0  0  0  0  0
    8.7612   -2.2201    1.6666 H   0  0  0  0  0  0  0  0  0  0  0  0
    7.0277   -2.4140    4.1825 H   0  0  0  0  0  0  0  0  0  0  0  0
    6.4561   -2.9902    2.6142 H   0  0  0  0  0  0  0  0  0  0  0  0
  1  2  1  0
  1 18  1  0
  1 19  1  0
  1 20  1  0
  2  3  1  0
  2  4  1  0
  2 21  1  6
  3 22  1  0
  3 23  1  0
  3 24  1  0
  4  5  1  1
  4  6  1  0
  4  7  1  0
  6 25  1  0
  6 26  1  0
  7  8  2  0
  7  9  1  0
  9 10  1  0
  9 11  1  0
 10 27  1  0
 10 28  1  0
 10 29  1  0
 11 12  1  0
 11 17  1  0
 11 30  1  6
 12 13  1  0
 12 31  1  0
 12 32  1  0
 13 14  1  0
 13 33  1  0
 13 34  1  0
 14 15  1  0
 14 35  1  0
 14 36  1  0
 15 16  1  0
 15 37  1  0
 15 38  1  0
 16 17  1  0
 16 39  1  0
 16 40  1  0
 17 41  1  0
 17 42  1  0
M  END

