
     RDKit          3D

 52 58  0  0  0  0  0  0  0  0999 V2000
    1.1643   -0.1604   -1.1536 Br  0  0  0  0  0  0  0  0  0  0  0  0
    3.0555   -0.1804   -0.8952 C   0  0  0  0  0  0  0  0  0  0  0  0
    3.7612    1.0052   -1.0932 C   0  0  0  0  0  0  0  0  0  0  0  0
    5.1553    1.0322   -0.9183 C   0  0  0  0  0  0  0  0  0  0  0  0
    5.8639   -0.1061   -0.5400 C   0  0  0  0  0  0  0  0  0  0  0  0
    5.1391   -1.2860   -0.3352 C   0  0  0  0  0  0  0  0  0  0  0  0
    3.7251   -1.3564   -0.5153 C   0  0  0  0  0  0  0  0  0  0  0  0
    3.3406   -2.7307   -0.2432 C   0  0  0  0  0  0  0  0  0  0  0  0
    2.1224   -3.4279   -0.2517 C   0  0  0  0  0  0  0  0  0  0  0  0
    2.1069   -4.7824    0.0923 C   0  0  0  0  0  0  0  0  0  0  0  0
    0.8766   -5.4994    0.1026 N   0  0  0  0  0  0  0  0  0  0  0  0
   -0.2161   -5.2369    0.9321 C   0  0  0  0  0  0  0  0  0  0  0  0
   -0.3682   -4.2546    1.9192 C   0  0  0  0  0  0  0  0  0  0  0  0
   -1.5731   -4.2192    2.6218 C   0  0  0  0  0  0  0  0  0  0  0  0
   -2.6062   -5.1382    2.3554 C   0  0  0  0  0  0  0  0  0  0  0  0
   -2.4479   -6.1187    1.3770 C   0  0  0  0  0  0  0  0  0  0  0  0
   -1.2461   -6.1779    0.6558 C   0  0  0  0  0  0  0  0  0  0  0  0
   -0.7464   -7.0465   -0.3919 C   0  0  0  0  0  0  0  0  0  0  0  0
   -1.2848   -8.1397   -1.0864 C   0  0  0  0  0  0  0  0  0  0  0  0
   -0.5221   -8.7604   -2.0749 C   0  0  0  0  0  0  0  0  0  0  0  0
    0.7714   -8.2948   -2.3792 C   0  0  0  0  0  0  0  0  0  0  0  0
    1.3315   -7.2096   -1.7040 C   0  0  0  0  0  0  0  0  0  0  0  0
    0.5654   -6.5947   -0.7050 C   0  0  0  0  0  0  0  0  0  0  0  0
    3.3026   -5.4477    0.4398 C   0  0  0  0  0  0  0  0  0  0  0  0
    4.5259   -4.7834    0.4329 C   0  0  0  0  0  0  0  0  0  0  0  0
    4.5372   -3.4264    0.0873 C   0  0  0  0  0  0  0  0  0  0  0  0
    5.6140   -2.5448    0.0289 N   0  0  0  0  0  0  0  0  0  0  0  0
    6.9736   -2.8740    0.2973 C   0  0  0  0  0  0  0  0  0  0  0  0
    7.6399   -3.8133   -0.5030 C   0  0  0  0  0  0  0  0  0  0  0  0
    8.9702   -4.1419   -0.2309 C   0  0  0  0  0  0  0  0  0  0  0  0
    9.6463   -3.5250    0.8262 C   0  0  0  0  0  0  0  0  0  0  0  0
    8.9841   -2.5820    1.6184 C   0  0  0  0  0  0  0  0  0  0  0  0
    7.6486   -2.2612    1.3630 C   0  0  0  0  0  0  0  0  0  0  0  0
    3.2261    1.9091   -1.3870 H   0  0  0  0  0  0  0  0  0  0  0  0
    5.6916    1.9695   -1.0855 H   0  0  0  0  0  0  0  0  0  0  0  0
    6.9465   -0.0798   -0.4109 H   0  0  0  0  0  0  0  0  0  0  0  0
    1.1940   -2.9273   -0.5230 H   0  0  0  0  0  0  0  0  0  0  0  0
    0.4280   -3.5396    2.1322 H   0  0  0  0  0  0  0  0  0  0  0  0
   -1.7155   -3.4605    3.3958 H   0  0  0  0  0  0  0  0  0  0  0  0
   -3.5382   -5.0814    2.9229 H   0  0  0  0  0  0  0  0  0  0  0  0
   -3.2490   -6.8345    1.1752 H   0  0  0  0  0  0  0  0  0  0  0  0
   -2.2915   -8.4984   -0.8567 H   0  0  0  0  0  0  0  0  0  0  0  0
   -0.9309   -9.6131   -2.6223 H   0  0  0  0  0  0  0  0  0  0  0  0
    1.3503   -8.7906   -3.1628 H   0  0  0  0  0  0  0  0  0  0  0  0
    2.3321   -6.8501   -1.9497 H   0  0  0  0  0  0  0  0  0  0  0  0
    3.2567   -6.5010    0.7236 H   0  0  0  0  0  0  0  0  0  0  0  0
    5.4448   -5.3049    0.7045 H   0  0  0  0  0  0  0  0  0  0  0  0
    7.1120   -4.2765   -1.3393 H   0  0  0  0  0  0  0  0  0  0  0  0
    9.4839   -4.8761   -0.8564 H   0  0  0  0  0  0  0  0  0  0  0  0
   10.6887   -3.7792    1.0327 H   0  0  0  0  0  0  0  0  0  0  0  0
    9.5058   -2.1003    2.4491 H   0  0  0  0  0  0  0  0  0  0  0  0
    7.1195   -1.5407    1.9901 H   0  0  0  0  0  0  0  0  0  0  0  0
  1  2  1  0
  2  3  2  0
  2  7  1  0
  3  4  1  0
  3 34  1  0
  4  5  2  0
  4 35  1  0
  5  6  1  0
  5 36  1  0
  6  7  2  0
  6 27  1  0
  7  8  1  0
  8  9  2  0
  8 26  1  0
  9 10  1  0
  9 37  1  0
 10 11  1  0
 10 24  2  0
 11 12  1  0
 11 23  1  0
 12 13  2  0
 12 17  1  0
 13 14  1  0
 13 38  1  0
 14 15  2  0
 14 39  1  0
 15 16  1  0
 15 40  1  0
 16 17  2  0
 16 41  1  0
 17 18  1  0
 18 19  1  0
 18 23  2  0
 19 20  2  0
 19 42  1  0
 20 21  1  0
 20 43  1  0
 21 22  2  0
 21 44  1  0
 22 23  1  0
 22 45  1  0
 24 25  1  0
 24 46  1  0
 25 26  2  0
 25 47  1  0
 26 27  1  0
 27 28  1  0
 28 29  2  0
 28 33  1  0
 29 30  1  0
 29 48  1  0
 30 31  2  0
 30 49  1  0
 31 32  1  0
 31 50  1  0
 32 33  2  0
 32 51  1  0
 33 52  1  0
M  END

