
     RDKit          3D

 87 98  0  0  0  0  0  0  0  0999 V2000
    1.2111   -0.0005    0.1256 F   0  0  0  0  0  0  0  0  0  0  0  0
    2.5294    0.0674   -0.0169 C   0  0  0  0  0  0  0  0  0  0  0  0
    3.1336    1.3326   -0.0807 C   0  0  0  0  0  0  0  0  0  0  0  0
    2.3790    2.5136   -0.0259 N   0  0  0  0  0  0  0  0  0  0  0  0
    2.5236    3.5359    0.9271 C   0  0  0  0  0  0  0  0  0  0  0  0
    3.3935    3.6187    2.0180 C   0  0  0  0  0  0  0  0  0  0  0  0
    3.3126    4.7523    2.8287 C   0  0  0  0  0  0  0  0  0  0  0  0
    2.3864    5.7771    2.5637 C   0  0  0  0  0  0  0  0  0  0  0  0
    1.5160    5.6843    1.4781 C   0  0  0  0  0  0  0  0  0  0  0  0
    1.5782    4.5559    0.6486 C   0  0  0  0  0  0  0  0  0  0  0  0
    0.8346    4.1359   -0.5257 C   0  0  0  0  0  0  0  0  0  0  0  0
   -0.1977    4.7184   -1.2741 C   0  0  0  0  0  0  0  0  0  0  0  0
   -0.6933    4.0421   -2.3884 C   0  0  0  0  0  0  0  0  0  0  0  0
   -0.1636    2.7940   -2.7625 C   0  0  0  0  0  0  0  0  0  0  0  0
    0.8648    2.1936   -2.0339 C   0  0  0  0  0  0  0  0  0  0  0  0
    1.3510    2.8729   -0.9132 C   0  0  0  0  0  0  0  0  0  0  0  0
    4.5323    1.3555   -0.2026 C   0  0  0  0  0  0  0  0  0  0  0  0
    5.1386    2.5320   -0.2987 F   0  0  0  0  0  0  0  0  0  0  0  0
    5.3125    0.1914   -0.2431 C   0  0  0  0  0  0  0  0  0  0  0  0
    6.7060    0.3257   -0.4133 N   0  0  0  0  0  0  0  0  0  0  0  0
    7.6087    0.7668    0.5586 C   0  0  0  0  0  0  0  0  0  0  0  0
    7.3747    1.1110    1.8927 C   0  0  0  0  0  0  0  0  0  0  0  0
    8.4673    1.5215    2.6580 C   0  0  0  0  0  0  0  0  0  0  0  0
    9.7618    1.5835    2.1099 C   0  0  0  0  0  0  0  0  0  0  0  0
    9.9887    1.2307    0.7798 C   0  0  0  0  0  0  0  0  0  0  0  0
    8.9074    0.8170   -0.0109 C   0  0  0  0  0  0  0  0  0  0  0  0
    8.7780    0.3842   -1.3907 C   0  0  0  0  0  0  0  0  0  0  0  0
    9.6836    0.2275   -2.4490 C   0  0  0  0  0  0  0  0  0  0  0  0
    9.2143   -0.2115   -3.6874 C   0  0  0  0  0  0  0  0  0  0  0  0
    7.8493   -0.4923   -3.8789 C   0  0  0  0  0  0  0  0  0  0  0  0
    6.9257   -0.3442   -2.8417 C   0  0  0  0  0  0  0  0  0  0  0  0
    7.4048    0.0913   -1.6024 C   0  0  0  0  0  0  0  0  0  0  0  0
    4.6702   -1.0680   -0.1881 C   0  0  0  0  0  0  0  0  0  0  0  0
    5.4682   -2.2998   -0.2232 C   0  0  0  0  0  0  0  0  0  0  0  0
    6.5809   -2.5567    0.3964 N   0  0  0  0  0  0  0  0  0  0  0  0
    6.9347   -3.8393    0.0592 N   0  0  0  0  0  0  0  0  0  0  0  0
    6.0158   -4.2889   -0.7489 C   0  0  0  0  0  0  0  0  0  0  0  0
    5.9298   -5.5944   -1.3942 C   0  0  0  0  0  0  0  0  0  0  0  0
    6.9682   -6.5235   -1.1958 C   0  0  0  0  0  0  0  0  0  0  0  0
    6.9043   -7.7760   -1.8031 C   0  0  0  0  0  0  0  0  0  0  0  0
    5.8105   -8.1132   -2.6097 C   0  0  0  0  0  0  0  0  0  0  0  0
    4.7772   -7.1918   -2.8069 C   0  0  0  0  0  0  0  0  0  0  0  0
    4.8314   -5.9347   -2.2032 C   0  0  0  0  0  0  0  0  0  0  0  0
    5.0517   -3.3562   -0.9702 O   0  0  0  0  0  0  0  0  0  0  0  0
    3.2610   -1.1263   -0.0832 C   0  0  0  0  0  0  0  0  0  0  0  0
    2.5630   -2.3490    0.0293 N   0  0  0  0  0  0  0  0  0  0  0  0
    1.7392   -2.9074   -0.9517 C   0  0  0  0  0  0  0  0  0  0  0  0
    1.4628   -2.4469   -2.2429 C   0  0  0  0  0  0  0  0  0  0  0  0
    0.6045   -3.2116   -3.0353 C   0  0  0  0  0  0  0  0  0  0  0  0
    0.0379   -4.4073   -2.5556 C   0  0  0  0  0  0  0  0  0  0  0  0
    0.3240   -4.8644   -1.2689 C   0  0  0  0  0  0  0  0  0  0  0  0
    1.1828   -4.1145   -0.4523 C   0  0  0  0  0  0  0  0  0  0  0  0
    1.6949   -4.2866    0.8955 C   0  0  0  0  0  0  0  0  0  0  0  0
    1.5105   -5.2603    1.8875 C   0  0  0  0  0  0  0  0  0  0  0  0
    2.1665   -5.1168    3.1098 C   0  0  0  0  0  0  0  0  0  0  0  0
    3.0027   -4.0111    3.3508 C   0  0  0  0  0  0  0  0  0  0  0  0
    3.2027   -3.0263    2.3815 C   0  0  0  0  0  0  0  0  0  0  0  0
    2.5427   -3.1782    1.1580 C   0  0  0  0  0  0  0  0  0  0  0  0
    4.1176    2.8322    2.2350 H   0  0  0  0  0  0  0  0  0  0  0  0
    3.9850    4.8422    3.6853 H   0  0  0  0  0  0  0  0  0  0  0  0
    2.3492    6.6518    3.2171 H   0  0  0  0  0  0  0  0  0  0  0  0
    0.7925    6.4782    1.2776 H   0  0  0  0  0  0  0  0  0  0  0  0
   -0.6054    5.6914   -0.9891 H   0  0  0  0  0  0  0  0  0  0  0  0
   -1.4985    4.4847   -2.9794 H   0  0  0  0  0  0  0  0  0  0  0  0
   -0.5631    2.2808   -3.6407 H   0  0  0  0  0  0  0  0  0  0  0  0
    1.2663    1.2253   -2.3356 H   0  0  0  0  0  0  0  0  0  0  0  0
    6.3753    1.0500    2.3283 H   0  0  0  0  0  0  0  0  0  0  0  0
    8.3129    1.7949    3.7049 H   0  0  0  0  0  0  0  0  0  0  0  0
   10.5965    1.9073    2.7361 H   0  0  0  0  0  0  0  0  0  0  0  0
   10.9966    1.2738    0.3595 H   0  0  0  0  0  0  0  0  0  0  0  0
   10.7444    0.4475   -2.3054 H   0  0  0  0  0  0  0  0  0  0  0  0
    9.9117   -0.3383   -4.5187 H   0  0  0  0  0  0  0  0  0  0  0  0
    7.5017   -0.8323   -4.8577 H   0  0  0  0  0  0  0  0  0  0  0  0
    5.8671   -0.5608   -2.9992 H   0  0  0  0  0  0  0  0  0  0  0  0
    7.8134   -6.2443   -0.5643 H   0  0  0  0  0  0  0  0  0  0  0  0
    7.7123   -8.4950   -1.6477 H   0  0  0  0  0  0  0  0  0  0  0  0
    5.7641   -9.0966   -3.0844 H   0  0  0  0  0  0  0  0  0  0  0  0
    3.9211   -7.4533   -3.4335 H   0  0  0  0  0  0  0  0  0  0  0  0
    4.0228   -5.2169   -2.3524 H   0  0  0  0  0  0  0  0  0  0  0  0
    1.9060   -1.5247   -2.6243 H   0  0  0  0  0  0  0  0  0  0  0  0
    0.3699   -2.8734   -4.0477 H   0  0  0  0  0  0  0  0  0  0  0  0
   -0.6318   -4.9819   -3.1998 H   0  0  0  0  0  0  0  0  0  0  0  0
   -0.1148   -5.7953   -0.9015 H   0  0  0  0  0  0  0  0  0  0  0  0
    0.8603   -6.1195    1.7051 H   0  0  0  0  0  0  0  0  0  0  0  0
    2.0320   -5.8696    3.8900 H   0  0  0  0  0  0  0  0  0  0  0  0
    3.5089   -3.9189    4.3148 H   0  0  0  0  0  0  0  0  0  0  0  0
    3.8552   -2.1731    2.5758 H   0  0  0  0  0  0  0  0  0  0  0  0
  1  2  1  0
  2  3  2  0
  2 45  1  0
  3  4  1  0
  3 17  1  0
  4  5  1  0
  4 16  1  0
  5  6  2  0
  5 10  1  0
  6  7  1  0
  6 59  1  0
  7  8  2  0
  7 60  1  0
  8  9  1  0
  8 61  1  0
  9 10  2  0
  9 62  1  0
 10 11  1  0
 11 12  1  0
 11 16  2  0
 12 13  2  0
 12 63  1  0
 13 14  1  0
 13 64  1  0
 14 15  2  0
 14 65  1  0
 15 16  1  0
 15 66  1  0
 17 18  1  0
 17 19  2  0
 19 20  1  0
 19 33  1  0
 20 21  1  0
 20 32  1  0
 21 22  2  0
 21 26  1  0
 22 23  1  0
 22 67  1  0
 23 24  2  0
 23 68  1  0
 24 25  1  0
 24 69  1  0
 25 26  2  0
 25 70  1  0
 26 27  1  0
 27 28  1  0
 27 32  2  0
 28 29  2  0
 28 71  1  0
 29 30  1  0
 29 72  1  0
 30 31  2  0
 30 73  1  0
 31 32  1  0
 31 74  1  0
 33 34  1  0
 33 45  2  0
 34 35  2  0
 34 44  1  0
 35 36  1  0
 36 37  2  0
 37 38  1  0
 37 44  1  0
 38 39  2  0
 38 43  1  0
 39 40  1  0
 39 75  1  0
 40 41  2  0
 40 76  1  0
 41 42  1  0
 41 77  1  0
 42 43  2  0
 42 78  1  0
 43 79  1  0
 45 46  1  0
 46 47  1  0
 46 58  1  0
 47 48  2  0
 47 52  1  0
 48 49  1  0
 48 80  1  0
 49 50  2  0
 49 81  1  0
 50 51  1  0
 50 82  1  0
 51 52  2  0
 51 83  1  0
 52 53  1  0
 53 54  1  0
 53 58  2  0
 54 55  2  0
 54 84  1  0
 55 56  1  0
 55 85  1  0
 56 57  2  0
 56 86  1  0
 57 58  1  0
 57 87  1  0
M  END

