
     RDKit          3D

 42 46  0  0  0  0  0  0  0  0999 V2000
    4.4664    2.4687    1.9090 O   0  0  0  0  0  0  0  0  0  0  0  0
    4.1035    1.3140    1.2848 C   0  0  0  0  0  0  0  0  0  0  0  0
    4.8246    0.1155    1.5186 C   0  0  0  0  0  0  0  0  0  0  0  0
    4.4439   -1.0556    0.9072 C   0  0  0  0  0  0  0  0  0  0  0  0
    3.3267   -1.0902    0.0300 C   0  0  0  0  0  0  0  0  0  0  0  0
    2.9249   -2.2974   -0.6071 C   0  0  0  0  0  0  0  0  0  0  0  0
    1.8424   -2.3229   -1.4590 C   0  0  0  0  0  0  0  0  0  0  0  0
    1.1168   -1.1313   -1.7042 C   0  0  0  0  0  0  0  0  0  0  0  0
    1.4783    0.0559   -1.1010 C   0  0  0  0  0  0  0  0  0  0  0  0
    2.5933    0.1213   -0.2161 C   0  0  0  0  0  0  0  0  0  0  0  0
    3.0079    1.3444    0.4213 C   0  0  0  0  0  0  0  0  0  0  0  0
    2.2639    2.6035    0.2188 C   0  0  0  0  0  0  0  0  0  0  0  0
    0.9641    2.7711    0.3969 N   0  0  0  0  0  0  0  0  0  0  0  0
    0.6452    4.0637    0.1076 C   0  0  0  0  0  0  0  0  0  0  0  0
   -0.7383    4.5476    0.2342 C   0  0  0  0  0  0  0  0  0  0  0  0
   -1.6406    3.8371    1.0526 C   0  0  0  0  0  0  0  0  0  0  0  0
   -2.9602    4.2617    1.2004 C   0  0  0  0  0  0  0  0  0  0  0  0
   -3.4166    5.4051    0.5343 C   0  0  0  0  0  0  0  0  0  0  0  0
   -2.5380    6.1105   -0.2925 C   0  0  0  0  0  0  0  0  0  0  0  0
   -1.2163    5.6850   -0.4461 C   0  0  0  0  0  0  0  0  0  0  0  0
    1.8151    4.7522   -0.2674 C   0  0  0  0  0  0  0  0  0  0  0  0
    2.1716    6.0801   -0.6234 C   0  0  0  0  0  0  0  0  0  0  0  0
    3.4717    6.3799   -0.9510 C   0  0  0  0  0  0  0  0  0  0  0  0
    4.4664    5.3520   -0.9378 C   0  0  0  0  0  0  0  0  0  0  0  0
    4.1403    4.0812   -0.5631 C   0  0  0  0  0  0  0  0  0  0  0  0
    2.8419    3.7867   -0.2058 N   0  0  0  0  0  0  0  0  0  0  0  0
    5.1945    2.2938    2.5191 H   0  0  0  0  0  0  0  0  0  0  0  0
    5.6799    0.1343    2.2018 H   0  0  0  0  0  0  0  0  0  0  0  0
    5.0009   -1.9773    1.0950 H   0  0  0  0  0  0  0  0  0  0  0  0
    3.4952   -3.2086   -0.4060 H   0  0  0  0  0  0  0  0  0  0  0  0
    1.5417   -3.2554   -1.9430 H   0  0  0  0  0  0  0  0  0  0  0  0
    0.2560   -1.1523   -2.3776 H   0  0  0  0  0  0  0  0  0  0  0  0
    0.8946    0.9579   -1.2803 H   0  0  0  0  0  0  0  0  0  0  0  0
   -1.2798    2.9453    1.5677 H   0  0  0  0  0  0  0  0  0  0  0  0
   -3.6400    3.6967    1.8440 H   0  0  0  0  0  0  0  0  0  0  0  0
   -4.4508    5.7384    0.6528 H   0  0  0  0  0  0  0  0  0  0  0  0
   -2.8861    6.9941   -0.8344 H   0  0  0  0  0  0  0  0  0  0  0  0
   -0.5628    6.2271   -1.1314 H   0  0  0  0  0  0  0  0  0  0  0  0
    1.4025    6.8517   -0.6228 H   0  0  0  0  0  0  0  0  0  0  0  0
    3.7506    7.4000   -1.2223 H   0  0  0  0  0  0  0  0  0  0  0  0
    5.4969    5.5719   -1.2214 H   0  0  0  0  0  0  0  0  0  0  0  0
    4.8498    3.2572   -0.5249 H   0  0  0  0  0  0  0  0  0  0  0  0
  1  2  1  0
  1 27  1  0
  2  3  2  0
  2 11  1  0
  3  4  1  0
  3 28  1  0
  4  5  2  0
  4 29  1  0
  5  6  1  0
  5 10  1  0
  6  7  2  0
  6 30  1  0
  7  8  1  0
  7 31  1  0
  8  9  2  0
  8 32  1  0
  9 10  1  0
  9 33  1  0
 10 11  2  0
 11 12  1  0
 12 13  2  0
 12 26  1  0
 13 14  1  0
 14 15  1  0
 14 21  2  0
 15 16  2  0
 15 20  1  0
 16 17  1  0
 16 34  1  0
 17 18  2  0
 17 35  1  0
 18 19  1  0
 18 36  1  0
 19 20  2  0
 19 37  1  0
 20 38  1  0
 21 22  1  0
 21 26  1  0
 22 23  2  0
 22 39  1  0
 23 24  1  0
 23 40  1  0
 24 25  2  0
 24 41  1  0
 25 26  1  0
 25 42  1  0
M  END

