
     RDKit          3D

 51 53  0  0  0  0  0  0  0  0999 V2000
    2.9723   -1.6935   -2.6638 C   0  0  0  0  0  0  0  0  0  0  0  0
    3.2909   -0.4336   -1.9131 C   0  0  0  0  0  0  0  0  0  0  0  0
    4.5379   -0.3222   -1.3281 N   0  0  0  0  0  0  0  0  0  0  0  0
    4.7077    0.8036   -0.7060 C   0  0  0  0  0  0  0  0  0  0  0  0
    5.9878    1.1840    0.0327 C   0  0  1  0  0  0  0  0  0  0  0  0
    6.5847    2.4734   -0.5740 C   0  0  0  0  0  0  0  0  0  0  0  0
    5.6876    1.3821    1.5360 C   0  0  0  0  0  0  0  0  0  0  0  0
    6.8964    0.0500   -0.1671 N   0  0  0  0  0  0  0  0  0  0  0  0
    8.1570   -0.0456    0.3232 C   0  0  0  0  0  0  0  0  0  0  0  0
    8.7019    0.8174    1.0006 O   0  0  0  0  0  0  0  0  0  0  0  0
    8.9007   -1.3253   -0.0793 C   0  0  0  0  0  0  0  0  0  0  0  0
   10.0049   -1.6712    0.9161 C   0  0  0  0  0  0  0  0  0  0  0  0
    9.4713   -2.1887    2.2110 C   0  0  0  0  0  0  0  0  0  0  0  0
    8.2625   -2.5675    2.5014 N   0  0  0  0  0  0  0  0  0  0  0  0
    8.3724   -2.9590    3.8196 C   0  0  0  0  0  0  0  0  0  0  0  0
    7.2235   -3.4754    4.6239 C   0  0  1  0  0  0  0  0  0  0  0  0
    6.0549   -2.4775    4.7694 C   0  0  0  0  0  0  0  0  0  0  0  0
    4.9105   -3.3647    5.2741 C   0  0  0  0  0  0  0  0  0  0  0  0
    5.0625   -4.6833    4.4787 C   0  0  0  0  0  0  0  0  0  0  0  0
    6.5470   -4.7356    4.0186 C   0  0  0  0  0  0  0  0  0  0  0  0
    9.5798   -2.8335    4.3097 N   0  0  0  0  0  0  0  0  0  0  0  0
   10.3157   -2.3188    3.2411 O   0  0  0  0  0  0  0  0  0  0  0  0
    3.3147    1.8601   -0.7834 S   0  0  0  0  0  0  0  0  0  0  0  0
    2.4692    0.6552   -1.7312 C   0  0  0  0  0  0  0  0  0  0  0  0
    1.0698    0.9035   -2.2058 C   0  0  0  0  0  0  0  0  0  0  0  0
    3.0597   -2.5696   -2.0005 H   0  0  0  0  0  0  0  0  0  0  0  0
    3.6885   -1.8424   -3.4885 H   0  0  0  0  0  0  0  0  0  0  0  0
    1.9593   -1.6830   -3.0870 H   0  0  0  0  0  0  0  0  0  0  0  0
    5.8950    3.3215   -0.4439 H   0  0  0  0  0  0  0  0  0  0  0  0
    6.7735    2.3402   -1.6500 H   0  0  0  0  0  0  0  0  0  0  0  0
    7.5330    2.7049   -0.0708 H   0  0  0  0  0  0  0  0  0  0  0  0
    4.9833    2.2148    1.6868 H   0  0  0  0  0  0  0  0  0  0  0  0
    6.6236    1.6037    2.0658 H   0  0  0  0  0  0  0  0  0  0  0  0
    5.2459    0.4685    1.9616 H   0  0  0  0  0  0  0  0  0  0  0  0
    6.4900   -0.7237   -0.6895 H   0  0  0  0  0  0  0  0  0  0  0  0
    9.3536   -1.1432   -1.0688 H   0  0  0  0  0  0  0  0  0  0  0  0
    8.1962   -2.1633   -0.1905 H   0  0  0  0  0  0  0  0  0  0  0  0
   10.6064   -0.7734    1.1249 H   0  0  0  0  0  0  0  0  0  0  0  0
   10.6862   -2.4292    0.4933 H   0  0  0  0  0  0  0  0  0  0  0  0
    7.6157   -3.7100    5.6264 H   0  0  0  0  0  0  0  0  0  0  0  0
    5.8150   -2.0560    3.7781 H   0  0  0  0  0  0  0  0  0  0  0  0
    6.2944   -1.6376    5.4400 H   0  0  0  0  0  0  0  0  0  0  0  0
    3.9192   -2.9009    5.1524 H   0  0  0  0  0  0  0  0  0  0  0  0
    5.0456   -3.5551    6.3525 H   0  0  0  0  0  0  0  0  0  0  0  0
    4.3935   -4.6856    3.6037 H   0  0  0  0  0  0  0  0  0  0  0  0
    4.7843   -5.5582    5.0864 H   0  0  0  0  0  0  0  0  0  0  0  0
    6.6138   -4.6876    2.9209 H   0  0  0  0  0  0  0  0  0  0  0  0
    7.0624   -5.6558    4.3331 H   0  0  0  0  0  0  0  0  0  0  0  0
    1.0092    1.7926   -2.8554 H   0  0  0  0  0  0  0  0  0  0  0  0
    0.3745    1.0642   -1.3650 H   0  0  0  0  0  0  0  0  0  0  0  0
    0.7001    0.0447   -2.7830 H   0  0  0  0  0  0  0  0  0  0  0  0
  1  2  1  0
  1 26  1  0
  1 27  1  0
  1 28  1  0
  2  3  1  0
  2 24  2  0
  3  4  2  0
  4  5  1  0
  4 23  1  0
  5  6  1  0
  5  7  1  0
  5  8  1  1
  6 29  1  0
  6 30  1  0
  6 31  1  0
  7 32  1  0
  7 33  1  0
  7 34  1  0
  8  9  1  0
  8 35  1  0
  9 10  2  0
  9 11  1  0
 11 12  1  0
 11 36  1  0
 11 37  1  0
 12 13  1  0
 12 38  1  0
 12 39  1  0
 13 14  2  0
 13 22  1  0
 14 15  1  0
 15 16  1  0
 15 21  2  0
 16 17  1  0
 16 20  1  0
 16 40  1  1
 17 18  1  0
 17 41  1  0
 17 42  1  0
 18 19  1  0
 18 43  1  0
 18 44  1  0
 19 20  1  0
 19 45  1  0
 19 46  1  0
 20 47  1  0
 20 48  1  0
 21 22  1  0
 23 24  1  0
 24 25  1  0
 25 49  1  0
 25 50  1  0
 25 51  1  0
M  END

