
     RDKit          3D

 20 20  0  0  0  0  0  0  0  0999 V2000
    0.9235    0.0250    0.1463 C   0  0  0  0  0  0  0  0  0  0  0  0
    2.4512    0.0559    0.1480 C   0  0  0  0  0  0  0  0  0  0  0  0
    3.0157    1.4694    0.3984 C   0  0  0  0  0  0  0  0  0  0  0  0
    4.5074    1.5248    0.3753 C   0  0  0  0  0  0  0  0  0  0  0  0
    5.4004    1.7218    1.3648 C   0  0  0  0  0  0  0  0  0  0  0  0
    6.7791    1.6723    0.8115 C   0  0  0  0  0  0  0  0  0  0  0  0
    7.9212    1.8040    1.3600 N   0  0  0  0  0  0  0  0  0  0  0  0
    6.6190    1.4354   -0.5557 N   0  0  0  0  0  0  0  0  0  0  0  0
    5.2850    1.3346   -0.9116 C   0  0  0  0  0  0  0  0  0  0  0  0
    4.8413    1.1387   -2.0216 O   0  0  0  0  0  0  0  0  0  0  0  0
    0.5458   -0.9946   -0.0290 H   0  0  0  0  0  0  0  0  0  0  0  0
    0.5110    0.6729   -0.6448 H   0  0  0  0  0  0  0  0  0  0  0  0
    0.5102    0.3724    1.1081 H   0  0  0  0  0  0  0  0  0  0  0  0
    2.8358   -0.3099   -0.8176 H   0  0  0  0  0  0  0  0  0  0  0  0
    2.8404   -0.6282    0.9220 H   0  0  0  0  0  0  0  0  0  0  0  0
    2.6471    1.8554    1.3634 H   0  0  0  0  0  0  0  0  0  0  0  0
    2.6323    2.1418   -0.3896 H   0  0  0  0  0  0  0  0  0  0  0  0
    5.1976    1.8982    2.4220 H   0  0  0  0  0  0  0  0  0  0  0  0
    7.8156    1.9726    2.3641 H   0  0  0  0  0  0  0  0  0  0  0  0
    7.3917    1.3566   -1.2062 H   0  0  0  0  0  0  0  0  0  0  0  0
  1  2  1  0
  1 11  1  0
  1 12  1  0
  1 13  1  0
  2  3  1  0
  2 14  1  0
  2 15  1  0
  3  4  1  0
  3 16  1  0
  3 17  1  0
  4  5  2  0
  4  9  1  0
  5  6  1  0
  5 18  1  0
  6  7  2  0
  6  8  1  0
  7 19  1  0
  8  9  1  0
  8 20  1  0
  9 10  2  0
M  END

