
     RDKit          3D

 44 47  0  0  0  0  0  0  0  0999 V2000
    0.5585   -1.0725    1.9082 C   0  0  0  0  0  0  0  0  0  0  0  0
    2.0868   -0.8881    1.8779 C   0  0  1  0  0  0  0  0  0  0  0  0
    2.5533    0.2415    2.8009 C   0  0  0  0  0  0  0  0  0  0  0  0
    2.7707   -2.1927    2.1807 C   0  0  0  0  0  0  0  0  0  0  0  0
    3.5397   -2.3817    3.2222 N   0  0  0  0  0  0  0  0  0  0  0  0
    3.9281   -3.7193    3.1092 O   0  0  0  0  0  0  0  0  0  0  0  0
    3.3464   -4.1920    2.0040 C   0  0  0  0  0  0  0  0  0  0  0  0
    3.5976   -5.6292    1.6515 C   0  0  0  0  0  0  0  0  0  0  0  0
    2.9920   -5.9556    0.4133 O   0  0  0  0  0  0  0  0  0  0  0  0
    1.6805   -6.3182    0.4552 C   0  0  0  0  0  0  0  0  0  0  0  0
    1.0630   -6.4530    1.4752 O   0  0  0  0  0  0  0  0  0  0  0  0
    1.1419   -6.5488   -0.9614 C   0  0  1  0  0  0  0  0  0  0  0  0
    1.0046   -8.0422   -1.2050 C   0  0  0  0  0  0  0  0  0  0  0  0
    2.1279   -8.8606   -1.3957 C   0  0  0  0  0  0  0  0  0  0  0  0
    1.9992  -10.2399   -1.5582 C   0  0  0  0  0  0  0  0  0  0  0  0
    0.7258  -10.8226   -1.5296 C   0  0  0  0  0  0  0  0  0  0  0  0
   -0.4041  -10.0275   -1.3530 C   0  0  0  0  0  0  0  0  0  0  0  0
   -0.2625   -8.6428   -1.1943 C   0  0  0  0  0  0  0  0  0  0  0  0
   -1.4155   -7.9241   -1.0493 O   0  0  0  0  0  0  0  0  0  0  0  0
   -1.3819   -6.5584   -1.1353 C   0  0  0  0  0  0  0  0  0  0  0  0
   -2.6183   -5.9086   -1.2389 C   0  0  0  0  0  0  0  0  0  0  0  0
   -2.6607   -4.5205   -1.3457 C   0  0  0  0  0  0  0  0  0  0  0  0
   -1.4725   -3.7785   -1.3544 C   0  0  0  0  0  0  0  0  0  0  0  0
   -0.2478   -4.4377   -1.2474 C   0  0  0  0  0  0  0  0  0  0  0  0
   -0.1831   -5.8341   -1.1340 C   0  0  0  0  0  0  0  0  0  0  0  0
    2.6266   -3.3134    1.3832 N   0  0  0  0  0  0  0  0  0  0  0  0
    0.0571   -0.1472    1.5838 H   0  0  0  0  0  0  0  0  0  0  0  0
    0.2141   -1.3067    2.9286 H   0  0  0  0  0  0  0  0  0  0  0  0
    0.2406   -1.8910    1.2457 H   0  0  0  0  0  0  0  0  0  0  0  0
    2.3709   -0.6415    0.8384 H   0  0  0  0  0  0  0  0  0  0  0  0
    2.3009    0.0231    3.8502 H   0  0  0  0  0  0  0  0  0  0  0  0
    2.0641    1.1866    2.5196 H   0  0  0  0  0  0  0  0  0  0  0  0
    3.6427    0.3854    2.7473 H   0  0  0  0  0  0  0  0  0  0  0  0
    3.2154   -6.2727    2.4597 H   0  0  0  0  0  0  0  0  0  0  0  0
    4.6783   -5.8005    1.5373 H   0  0  0  0  0  0  0  0  0  0  0  0
    1.8872   -6.1310   -1.6549 H   0  0  0  0  0  0  0  0  0  0  0  0
    3.1191   -8.3985   -1.4066 H   0  0  0  0  0  0  0  0  0  0  0  0
    2.8868  -10.8593   -1.7048 H   0  0  0  0  0  0  0  0  0  0  0  0
    0.6120  -11.9024   -1.6530 H   0  0  0  0  0  0  0  0  0  0  0  0
   -1.4097  -10.4520   -1.3400 H   0  0  0  0  0  0  0  0  0  0  0  0
   -3.5268   -6.5137   -1.2380 H   0  0  0  0  0  0  0  0  0  0  0  0
   -3.6261   -4.0147   -1.4265 H   0  0  0  0  0  0  0  0  0  0  0  0
   -1.5023   -2.6900   -1.4399 H   0  0  0  0  0  0  0  0  0  0  0  0
    0.6833   -3.8644   -1.2259 H   0  0  0  0  0  0  0  0  0  0  0  0
  1  2  1  0
  1 27  1  0
  1 28  1  0
  1 29  1  0
  2  3  1  0
  2  4  1  0
  2 30  1  6
  3 31  1  0
  3 32  1  0
  3 33  1  0
  4  5  2  0
  4 26  1  0
  5  6  1  0
  6  7  1  0
  7  8  1  0
  7 26  2  0
  8  9  1  0
  8 34  1  0
  8 35  1  0
  9 10  1  0
 10 11  2  0
 10 12  1  0
 12 13  1  0
 12 25  1  0
 12 36  1  6
 13 14  2  0
 13 18  1  0
 14 15  1  0
 14 37  1  0
 15 16  2  0
 15 38  1  0
 16 17  1  0
 16 39  1  0
 17 18  2  0
 17 40  1  0
 18 19  1  0
 19 20  1  0
 20 21  2  0
 20 25  1  0
 21 22  1  0
 21 41  1  0
 22 23  2  0
 22 42  1  0
 23 24  1  0
 23 43  1  0
 24 25  2  0
 24 44  1  0
M  END

