
     RDKit          3D

 54 56  0  0  0  0  0  0  0  0999 V2000
   -1.7839   -1.6912   -0.7490 C   0  0  0  0  0  0  0  0  0  0  0  0
   -1.8135   -2.9903   -1.2950 O   0  0  0  0  0  0  0  0  0  0  0  0
   -0.6671   -3.7232   -1.3214 C   0  0  0  0  0  0  0  0  0  0  0  0
    0.5648   -3.2968   -0.8138 C   0  0  0  0  0  0  0  0  0  0  0  0
    1.7146   -4.0906   -0.9078 C   0  0  0  0  0  0  0  0  0  0  0  0
    1.6405   -5.3468   -1.5216 C   0  0  0  0  0  0  0  0  0  0  0  0
    2.7473   -6.2105   -1.6709 N   0  0  0  0  0  0  0  0  0  0  0  0
    4.0392   -6.0315   -1.2695 C   0  0  0  0  0  0  0  0  0  0  0  0
    4.4655   -5.0557   -0.6755 O   0  0  0  0  0  0  0  0  0  0  0  0
    4.9965   -7.1702   -1.7106 C   0  0  1  0  0  0  0  0  0  0  0  0
    6.2338   -7.2678   -0.8007 C   0  0  0  0  0  0  0  0  0  0  0  0
    5.8973   -7.9059    0.5536 C   0  0  0  0  0  0  0  0  0  0  0  0
    5.1738   -9.2455    0.3677 C   0  0  0  0  0  0  0  0  0  0  0  0
    3.9459   -9.0719   -0.5322 C   0  0  0  0  0  0  0  0  0  0  0  0
    4.2945   -8.4594   -1.8231 N   0  0  0  0  0  0  0  0  0  0  0  0
    4.5681   -9.3596   -2.7848 N   0  0  0  0  0  0  0  0  0  0  0  0
    5.2018   -9.0976   -3.8726 C   0  0  0  0  0  0  0  0  0  0  0  0
    5.3872  -10.1323   -4.8997 C   0  0  0  0  0  0  0  0  0  0  0  0
    6.0959   -9.8319   -6.0786 C   0  0  0  0  0  0  0  0  0  0  0  0
    6.2920  -10.7959   -7.0718 C   0  0  0  0  0  0  0  0  0  0  0  0
    5.7855  -12.0854   -6.9134 C   0  0  0  0  0  0  0  0  0  0  0  0
    5.0829  -12.3738   -5.7391 C   0  0  0  0  0  0  0  0  0  0  0  0
    4.5372  -13.7392   -5.5545 N   0  0  0  0  0  0  0  0  0  0  0  0
    4.7325  -14.5488   -6.4469 O   0  0  0  0  0  0  0  0  0  0  0  0
    3.9273  -13.9713   -4.5239 O   0  0  0  0  0  0  0  0  0  0  0  0
    4.8744  -11.4329   -4.7384 C   0  0  0  0  0  0  0  0  0  0  0  0
    0.4011   -5.7889   -2.0188 C   0  0  0  0  0  0  0  0  0  0  0  0
   -0.7446   -5.0021   -1.9290 C   0  0  0  0  0  0  0  0  0  0  0  0
   -1.8934   -5.4717   -2.4946 O   0  0  0  0  0  0  0  0  0  0  0  0
   -3.0110   -5.6896   -1.6449 C   0  0  0  0  0  0  0  0  0  0  0  0
   -2.7996   -1.2857   -0.8504 H   0  0  0  0  0  0  0  0  0  0  0  0
   -1.0805   -1.0347   -1.2922 H   0  0  0  0  0  0  0  0  0  0  0  0
   -1.5070   -1.6986    0.3211 H   0  0  0  0  0  0  0  0  0  0  0  0
    0.6513   -2.3184   -0.3407 H   0  0  0  0  0  0  0  0  0  0  0  0
    2.6641   -3.7387   -0.5123 H   0  0  0  0  0  0  0  0  0  0  0  0
    2.5683   -7.1000   -2.1289 H   0  0  0  0  0  0  0  0  0  0  0  0
    5.3169   -6.8657   -2.7182 H   0  0  0  0  0  0  0  0  0  0  0  0
    6.6463   -6.2579   -0.6665 H   0  0  0  0  0  0  0  0  0  0  0  0
    6.9932   -7.8760   -1.3210 H   0  0  0  0  0  0  0  0  0  0  0  0
    5.2576   -7.2146    1.1297 H   0  0  0  0  0  0  0  0  0  0  0  0
    6.8189   -8.0413    1.1425 H   0  0  0  0  0  0  0  0  0  0  0  0
    4.8605   -9.6626    1.3392 H   0  0  0  0  0  0  0  0  0  0  0  0
    5.8529   -9.9840   -0.0943 H   0  0  0  0  0  0  0  0  0  0  0  0
    3.2064   -8.4228   -0.0323 H   0  0  0  0  0  0  0  0  0  0  0  0
    3.4610  -10.0311   -0.7562 H   0  0  0  0  0  0  0  0  0  0  0  0
    5.6278   -8.1092   -4.1054 H   0  0  0  0  0  0  0  0  0  0  0  0
    6.4994   -8.8249   -6.2179 H   0  0  0  0  0  0  0  0  0  0  0  0
    6.8451  -10.5385   -7.9780 H   0  0  0  0  0  0  0  0  0  0  0  0
    5.9184  -12.8618   -7.6656 H   0  0  0  0  0  0  0  0  0  0  0  0
    4.3199  -11.7010   -3.8409 H   0  0  0  0  0  0  0  0  0  0  0  0
    0.3015   -6.7631   -2.5040 H   0  0  0  0  0  0  0  0  0  0  0  0
   -3.7969   -6.1348   -2.2711 H   0  0  0  0  0  0  0  0  0  0  0  0
   -3.3831   -4.7513   -1.2062 H   0  0  0  0  0  0  0  0  0  0  0  0
   -2.7605   -6.3964   -0.8326 H   0  0  0  0  0  0  0  0  0  0  0  0
  1  2  1  0
  1 31  1  0
  1 32  1  0
  1 33  1  0
  2  3  1  0
  3  4  2  0
  3 28  1  0
  4  5  1  0
  4 34  1  0
  5  6  2  0
  5 35  1  0
  6  7  1  0
  6 27  1  0
  7  8  1  0
  7 36  1  0
  8  9  2  0
  8 10  1  0
 10 11  1  0
 10 15  1  0
 10 37  1  6
 11 12  1  0
 11 38  1  0
 11 39  1  0
 12 13  1  0
 12 40  1  0
 12 41  1  0
 13 14  1  0
 13 42  1  0
 13 43  1  0
 14 15  1  0
 14 44  1  0
 14 45  1  0
 15 16  1  0
 16 17  2  0
 17 18  1  0
 17 46  1  0
 18 19  2  0
 18 26  1  0
 19 20  1  0
 19 47  1  0
 20 21  2  0
 20 48  1  0
 21 22  1  0
 21 49  1  0
 22 23  1  0
 22 26  2  0
 23 24  2  0
 23 25  1  0
 26 50  1  0
 27 28  2  0
 27 51  1  0
 28 29  1  0
 29 30  1  0
 30 52  1  0
 30 53  1  0
 30 54  1  0
M  CHG  2  23   1  25  -1
M  END

