
     RDKit          3D

 66 72  0  0  0  0  0  0  0  0999 V2000
    2.3565    0.0130    2.6664 C   0  0  0  0  0  0  0  0  0  0  0  0
    1.6844   -1.3676    2.5709 C   0  0  1  0  0  0  0  0  0  0  0  0
    0.3086   -1.2729    1.8885 C   0  0  0  0  0  0  0  0  0  0  0  0
    2.5845   -2.3953    1.8969 C   0  0  0  0  0  0  0  0  0  0  0  0
    3.0212   -3.5344    2.5879 C   0  0  0  0  0  0  0  0  0  0  0  0
    3.8405   -4.4857    1.9756 C   0  0  0  0  0  0  0  0  0  0  0  0
    4.2620   -4.3338    0.6452 C   0  0  0  0  0  0  0  0  0  0  0  0
    5.1602   -5.3903    0.0347 C   0  0  1  0  0  0  0  0  0  0  0  0
    5.1306   -6.2795    0.6837 H   0  0  0  0  0  0  0  0  0  0  0  0
    4.8003   -5.9116   -1.3811 C   0  0  2  0  0  0  0  0  0  0  0  0
    4.5878   -5.0663   -2.0606 H   0  0  0  0  0  0  0  0  0  0  0  0
    3.5715   -6.8448   -1.2687 C   0  0  0  0  0  0  0  0  0  0  0  0
    3.6331   -7.8512   -0.5910 O   0  0  0  0  0  0  0  0  0  0  0  0
    2.3195   -6.4713   -1.9554 C   0  0  0  0  0  0  0  0  0  0  0  0
    1.1296   -7.1718   -1.8628 C   0  0  0  0  0  0  0  0  0  0  0  0
    0.0861   -6.6051   -2.6371 C   0  0  0  0  0  0  0  0  0  0  0  0
    0.4902   -5.4773   -3.3187 C   0  0  0  0  0  0  0  0  0  0  0  0
    2.1408   -5.0944   -3.0186 S   0  0  0  0  0  0  0  0  0  0  0  0
    6.0121   -6.6118   -1.7606 N   0  0  0  0  0  0  0  0  0  0  0  0
    6.1112   -7.6869   -2.6281 C   0  0  0  0  0  0  0  0  0  0  0  0
    5.2499   -7.8729   -3.7239 C   0  0  0  0  0  0  0  0  0  0  0  0
    5.3929   -8.9769   -4.5644 C   0  0  0  0  0  0  0  0  0  0  0  0
    6.4026   -9.9128   -4.3186 C   0  0  0  0  0  0  0  0  0  0  0  0
    6.5902  -11.2923   -5.3852 Cl  0  0  0  0  0  0  0  0  0  0  0  0
    7.2541   -9.7610   -3.2253 C   0  0  0  0  0  0  0  0  0  0  0  0
    7.1193   -8.6601   -2.3670 C   0  0  0  0  0  0  0  0  0  0  0  0
    7.9046   -8.5196   -1.1436 C   0  0  0  0  0  0  0  0  0  0  0  0
    7.9162   -7.3693   -0.4449 C   0  0  0  0  0  0  0  0  0  0  0  0
    7.2091   -6.1710   -1.0391 C   0  0  2  0  0  0  0  0  0  0  0  0
    6.6783   -5.0482   -0.0898 C   0  0  2  0  0  0  0  0  0  0  0  0
    7.3447   -4.9542    1.2963 C   0  0  0  0  0  0  0  0  0  0  0  0
    7.3312   -5.8138    2.1485 O   0  0  0  0  0  0  0  0  0  0  0  0
    7.9720   -3.6096    1.4171 C   0  0  0  0  0  0  0  0  0  0  0  0
    8.6921   -3.0748    2.4888 C   0  0  0  0  0  0  0  0  0  0  0  0
    9.1774   -1.7713    2.3623 C   0  0  0  0  0  0  0  0  0  0  0  0
    8.9440   -1.0201    1.1935 C   0  0  0  0  0  0  0  0  0  0  0  0
    8.2203   -1.5565    0.1263 C   0  0  0  0  0  0  0  0  0  0  0  0
    7.7381   -2.8618    0.2560 C   0  0  0  0  0  0  0  0  0  0  0  0
    6.9490   -3.6639   -0.7171 C   0  0  0  0  0  0  0  0  0  0  0  0
    6.5950   -3.3032   -1.8187 O   0  0  0  0  0  0  0  0  0  0  0  0
    3.8268   -3.1916   -0.0509 C   0  0  0  0  0  0  0  0  0  0  0  0
    3.0046   -2.2463    0.5648 C   0  0  0  0  0  0  0  0  0  0  0  0
    1.7155    0.7219    3.2159 H   0  0  0  0  0  0  0  0  0  0  0  0
    2.5425    0.4404    1.6672 H   0  0  0  0  0  0  0  0  0  0  0  0
    3.3239   -0.0475    3.1892 H   0  0  0  0  0  0  0  0  0  0  0  0
    1.5155   -1.7228    3.6024 H   0  0  0  0  0  0  0  0  0  0  0  0
    0.3981   -0.9067    0.8524 H   0  0  0  0  0  0  0  0  0  0  0  0
   -0.3494   -0.5748    2.4315 H   0  0  0  0  0  0  0  0  0  0  0  0
   -0.1896   -2.2543    1.8537 H   0  0  0  0  0  0  0  0  0  0  0  0
    2.7102   -3.6854    3.6259 H   0  0  0  0  0  0  0  0  0  0  0  0
    4.1599   -5.3658    2.5402 H   0  0  0  0  0  0  0  0  0  0  0  0
    1.0456   -8.0675   -1.2467 H   0  0  0  0  0  0  0  0  0  0  0  0
   -0.9253   -7.0098   -2.6952 H   0  0  0  0  0  0  0  0  0  0  0  0
   -0.1024   -4.8487   -3.9830 H   0  0  0  0  0  0  0  0  0  0  0  0
    4.4705   -7.1396   -3.9374 H   0  0  0  0  0  0  0  0  0  0  0  0
    4.7290   -9.1070   -5.4207 H   0  0  0  0  0  0  0  0  0  0  0  0
    8.0183  -10.5144   -3.0235 H   0  0  0  0  0  0  0  0  0  0  0  0
    8.4623   -9.3908   -0.7883 H   0  0  0  0  0  0  0  0  0  0  0  0
    8.4621   -7.2785    0.4950 H   0  0  0  0  0  0  0  0  0  0  0  0
    7.9107   -5.6864   -1.7527 H   0  0  0  0  0  0  0  0  0  0  0  0
    8.8628   -3.6688    3.3894 H   0  0  0  0  0  0  0  0  0  0  0  0
    9.7470   -1.3225    3.1800 H   0  0  0  0  0  0  0  0  0  0  0  0
    9.3368   -0.0023    1.1262 H   0  0  0  0  0  0  0  0  0  0  0  0
    8.0290   -0.9861   -0.7852 H   0  0  0  0  0  0  0  0  0  0  0  0
    4.1326   -3.0297   -1.0856 H   0  0  0  0  0  0  0  0  0  0  0  0
    2.6848   -1.3748   -0.0130 H   0  0  0  0  0  0  0  0  0  0  0  0
  1  2  1  0
  1 43  1  0
  1 44  1  0
  1 45  1  0
  2  3  1  0
  2  4  1  0
  2 46  1  1
  3 47  1  0
  3 48  1  0
  3 49  1  0
  4  5  2  0
  4 42  1  0
  5  6  1  0
  5 50  1  0
  6  7  2  0
  6 51  1  0
  7  8  1  0
  7 41  1  0
  8  9  1  1
  8 10  1  0
  8 30  1  0
 10 11  1  6
 10 12  1  0
 10 19  1  0
 12 13  2  0
 12 14  1  0
 14 15  2  0
 14 18  1  0
 15 16  1  0
 15 52  1  0
 16 17  2  0
 16 53  1  0
 17 18  1  0
 17 54  1  0
 19 20  1  0
 19 29  1  0
 20 21  2  0
 20 26  1  0
 21 22  1  0
 21 55  1  0
 22 23  2  0
 22 56  1  0
 23 24  1  0
 23 25  1  0
 25 26  2  0
 25 57  1  0
 26 27  1  0
 27 28  2  0
 27 58  1  0
 28 29  1  0
 28 59  1  0
 29 30  1  0
 29 60  1  6
 30 31  1  1
 30 39  1  0
 31 32  2  0
 31 33  1  0
 33 34  1  0
 33 38  2  0
 34 35  2  0
 34 61  1  0
 35 36  1  0
 35 62  1  0
 36 37  2  0
 36 63  1  0
 37 38  1  0
 37 64  1  0
 38 39  1  0
 39 40  2  0
 41 42  2  0
 41 65  1  0
 42 66  1  0
M  END

