
     RDKit          3D

 85 89  0  0  0  0  0  0  0  0999 V2000
    2.6686   -1.4432    0.4388 O   0  0  0  0  0  0  0  0  0  0  0  0
    2.0401   -0.3921    0.4201 C   0  0  0  0  0  0  0  0  0  0  0  0
    0.5506   -0.3329    0.5073 C   0  0  0  0  0  0  0  0  0  0  0  0
   -0.1640   -1.4695    0.6052 C   0  0  0  0  0  0  0  0  0  0  0  0
   -1.6179   -1.6210    0.7007 C   0  0  0  0  0  0  0  0  0  0  0  0
   -2.1626   -2.9172    0.7929 C   0  0  0  0  0  0  0  0  0  0  0  0
   -3.5380   -3.1285    0.8860 C   0  0  0  0  0  0  0  0  0  0  0  0
   -4.3983   -2.0278    0.8882 C   0  0  0  0  0  0  0  0  0  0  0  0
   -6.1236   -2.2737    1.0043 Cl  0  0  0  0  0  0  0  0  0  0  0  0
   -3.8894   -0.7258    0.7983 C   0  0  0  0  0  0  0  0  0  0  0  0
   -2.5144   -0.5317    0.7060 C   0  0  0  0  0  0  0  0  0  0  0  0
    2.6468    0.8289    0.3135 N   0  0  0  0  0  0  0  0  0  0  0  0
    4.0807    0.9956    0.2671 C   0  0  0  0  0  0  0  0  0  0  0  0
    4.5264    2.1835    1.1268 C   0  0  1  0  0  0  0  0  0  0  0  0
    4.1804    1.9896    2.1590 H   0  0  0  0  0  0  0  0  0  0  0  0
    6.0582    2.3105    1.1649 C   0  0  0  0  0  0  0  0  0  0  0  0
    6.5787    3.4714    2.0250 C   0  0  0  0  0  0  0  0  0  0  0  0
    6.4531    4.7951    1.4076 N   0  0  0  0  0  0  0  0  0  0  0  0
    7.6568    5.5724    1.1070 C   0  0  0  0  0  0  0  0  0  0  0  0
    7.9392    6.6792    2.1560 C   0  0  1  0  0  0  0  0  0  0  0  0
    8.0944    6.1028    3.5635 C   0  0  0  0  0  0  0  0  0  0  0  0
    9.3163    5.5755    4.0137 C   0  0  0  0  0  0  0  0  0  0  0  0
    9.4278    5.0073    5.2857 C   0  0  0  0  0  0  0  0  0  0  0  0
    8.3172    4.9591    6.1345 C   0  0  0  0  0  0  0  0  0  0  0  0
    7.0972    5.4844    5.6999 C   0  0  0  0  0  0  0  0  0  0  0  0
    6.9857    6.0523    4.4259 C   0  0  0  0  0  0  0  0  0  0  0  0
    9.0926    7.5941    1.7564 C   0  0  0  0  0  0  0  0  0  0  0  0
    9.1076    8.9145    2.2400 C   0  0  0  0  0  0  0  0  0  0  0  0
   10.1467    9.7904    1.9242 C   0  0  0  0  0  0  0  0  0  0  0  0
   11.2015    9.3647    1.1092 C   0  0  0  0  0  0  0  0  0  0  0  0
   11.2009    8.0586    0.6174 C   0  0  0  0  0  0  0  0  0  0  0  0
   10.1565    7.1828    0.9381 C   0  0  0  0  0  0  0  0  0  0  0  0
    5.2485    5.3805    1.1345 C   0  0  0  0  0  0  0  0  0  0  0  0
    5.1725    6.4807    0.5936 O   0  0  0  0  0  0  0  0  0  0  0  0
    3.9774    4.5845    1.4975 C   0  0  1  0  0  0  0  0  0  0  0  0
    4.0562    4.2743    2.5493 H   0  0  0  0  0  0  0  0  0  0  0  0
    2.7657    5.5105    1.3870 C   0  0  0  0  0  0  0  0  0  0  0  0
    2.8668    6.6382    2.4165 C   0  0  0  0  0  0  0  0  0  0  0  0
    3.4997    6.4506    3.4535 O   0  0  0  0  0  0  0  0  0  0  0  0
    2.2170    7.8171    2.1718 N   0  0  0  0  0  0  0  0  0  0  0  0
    2.4149    8.9400    3.0910 C   0  0  0  0  0  0  0  0  0  0  0  0
    3.2689   10.0314    2.4322 C   0  0  0  0  0  0  0  0  0  0  0  0
    2.6783   10.4642    1.0827 C   0  0  0  0  0  0  0  0  0  0  0  0
    2.4129    9.2520    0.1789 C   0  0  0  0  0  0  0  0  0  0  0  0
    1.5733    8.2010    0.9183 C   0  0  0  0  0  0  0  0  0  0  0  0
    3.8099    3.3808    0.6795 N   0  0  0  0  0  0  0  0  0  0  0  0
    0.0718    0.6514    0.4866 H   0  0  0  0  0  0  0  0  0  0  0  0
    0.4232   -2.3948    0.6144 H   0  0  0  0  0  0  0  0  0  0  0  0
   -1.4890   -3.7781    0.7912 H   0  0  0  0  0  0  0  0  0  0  0  0
   -3.9460   -4.1380    0.9568 H   0  0  0  0  0  0  0  0  0  0  0  0
   -4.5744    0.1236    0.8019 H   0  0  0  0  0  0  0  0  0  0  0  0
   -2.1330    0.4893    0.6372 H   0  0  0  0  0  0  0  0  0  0  0  0
    2.1038    1.6858    0.3408 H   0  0  0  0  0  0  0  0  0  0  0  0
    4.4308    1.1509   -0.7746 H   0  0  0  0  0  0  0  0  0  0  0  0
    4.5387    0.0587    0.6153 H   0  0  0  0  0  0  0  0  0  0  0  0
    6.4559    2.4129    0.1390 H   0  0  0  0  0  0  0  0  0  0  0  0
    6.4720    1.3717    1.5723 H   0  0  0  0  0  0  0  0  0  0  0  0
    7.6466    3.3189    2.2257 H   0  0  0  0  0  0  0  0  0  0  0  0
    6.0896    3.4608    3.0140 H   0  0  0  0  0  0  0  0  0  0  0  0
    7.5275    6.0517    0.1258 H   0  0  0  0  0  0  0  0  0  0  0  0
    8.4992    4.8696    1.0401 H   0  0  0  0  0  0  0  0  0  0  0  0
    7.0331    7.3027    2.1621 H   0  0  0  0  0  0  0  0  0  0  0  0
   10.1968    5.6222    3.3674 H   0  0  0  0  0  0  0  0  0  0  0  0
   10.3895    4.6069    5.6182 H   0  0  0  0  0  0  0  0  0  0  0  0
    8.4050    4.5193    7.1315 H   0  0  0  0  0  0  0  0  0  0  0  0
    6.2219    5.4572    6.3544 H   0  0  0  0  0  0  0  0  0  0  0  0
    6.0191    6.4488    4.1009 H   0  0  0  0  0  0  0  0  0  0  0  0
    8.2873    9.2563    2.8777 H   0  0  0  0  0  0  0  0  0  0  0  0
   10.1324   10.8121    2.3129 H   0  0  0  0  0  0  0  0  0  0  0  0
   12.0159   10.0490    0.8577 H   0  0  0  0  0  0  0  0  0  0  0  0
   12.0169    7.7138   -0.0235 H   0  0  0  0  0  0  0  0  0  0  0  0
   10.1838    6.1682    0.5351 H   0  0  0  0  0  0  0  0  0  0  0  0
    2.6977    5.8905    0.3609 H   0  0  0  0  0  0  0  0  0  0  0  0
    1.8575    4.9198    1.5917 H   0  0  0  0  0  0  0  0  0  0  0  0
    2.8865    8.5493    3.9998 H   0  0  0  0  0  0  0  0  0  0  0  0
    1.4231    9.3476    3.3626 H   0  0  0  0  0  0  0  0  0  0  0  0
    4.2880    9.6353    2.2820 H   0  0  0  0  0  0  0  0  0  0  0  0
    3.3547   10.8942    3.1142 H   0  0  0  0  0  0  0  0  0  0  0  0
    3.3498   11.1793    0.5795 H   0  0  0  0  0  0  0  0  0  0  0  0
    1.7267   11.0009    1.2572 H   0  0  0  0  0  0  0  0  0  0  0  0
    3.3676    8.7844   -0.1171 H   0  0  0  0  0  0  0  0  0  0  0  0
    1.8933    9.5602   -0.7442 H   0  0  0  0  0  0  0  0  0  0  0  0
    1.3968    7.3196    0.2923 H   0  0  0  0  0  0  0  0  0  0  0  0
    0.5779    8.6204    1.1587 H   0  0  0  0  0  0  0  0  0  0  0  0
    4.0239    3.5817   -0.2991 H   0  0  0  0  0  0  0  0  0  0  0  0
  1  2  2  0
  2  3  1  0
  2 12  1  0
  3  4  2  0
  3 47  1  0
  4  5  1  0
  4 48  1  0
  5  6  2  0
  5 11  1  0
  6  7  1  0
  6 49  1  0
  7  8  2  0
  7 50  1  0
  8  9  1  0
  8 10  1  0
 10 11  2  0
 10 51  1  0
 11 52  1  0
 12 13  1  0
 12 53  1  0
 13 14  1  0
 13 54  1  0
 13 55  1  0
 14 15  1  1
 14 16  1  0
 14 46  1  0
 16 17  1  0
 16 56  1  0
 16 57  1  0
 17 18  1  0
 17 58  1  0
 17 59  1  0
 18 19  1  0
 18 33  1  0
 19 20  1  0
 19 60  1  0
 19 61  1  0
 20 21  1  0
 20 27  1  0
 20 62  1  1
 21 22  2  0
 21 26  1  0
 22 23  1  0
 22 63  1  0
 23 24  2  0
 23 64  1  0
 24 25  1  0
 24 65  1  0
 25 26  2  0
 25 66  1  0
 26 67  1  0
 27 28  2  0
 27 32  1  0
 28 29  1  0
 28 68  1  0
 29 30  2  0
 29 69  1  0
 30 31  1  0
 30 70  1  0
 31 32  2  0
 31 71  1  0
 32 72  1  0
 33 34  2  0
 33 35  1  0
 35 36  1  1
 35 37  1  0
 35 46  1  0
 37 38  1  0
 37 73  1  0
 37 74  1  0
 38 39  2  0
 38 40  1  0
 40 41  1  0
 40 45  1  0
 41 42  1  0
 41 75  1  0
 41 76  1  0
 42 43  1  0
 42 77  1  0
 42 78  1  0
 43 44  1  0
 43 79  1  0
 43 80  1  0
 44 45  1  0
 44 81  1  0
 44 82  1  0
 45 83  1  0
 45 84  1  0
 46 85  1  0
M  END

