
     RDKit          3D

 68 71  0  0  0  0  0  0  0  0999 V2000
    5.2176   -2.6001   -2.2821 C   0  0  0  0  0  0  0  0  0  0  0  0
    5.6364   -1.5048   -1.3432 C   0  0  0  0  0  0  0  0  0  0  0  0
    5.2576   -0.2207   -1.3987 C   0  0  0  0  0  0  0  0  0  0  0  0
    4.3455    0.4146   -2.4515 C   0  0  0  0  0  0  0  0  0  0  0  0
    4.4069    1.9448   -2.2001 C   0  0  0  0  0  0  0  0  0  0  0  0
    5.6941    2.1098   -1.3800 C   0  0  1  0  0  0  0  0  0  0  0  0
    6.5301    1.9297   -2.0854 H   0  0  0  0  0  0  0  0  0  0  0  0
    6.0117    3.4235   -0.6642 C   0  0  2  0  0  0  0  0  0  0  0  0
    5.2645    3.5837    0.1360 H   0  0  0  0  0  0  0  0  0  0  0  0
    5.9827    4.6579   -1.5702 C   0  0  0  0  0  0  0  0  0  0  0  0
    6.1610    5.9333   -0.7452 C   0  0  0  0  0  0  0  0  0  0  0  0
    7.2752    5.8456    0.2816 C   0  0  0  0  0  0  0  0  0  0  0  0
    7.7250    7.0300    0.8824 C   0  0  0  0  0  0  0  0  0  0  0  0
    8.7251    7.0496    1.8642 C   0  0  0  0  0  0  0  0  0  0  0  0
    9.1715    8.1724    2.4520 O   0  0  0  0  0  0  0  0  0  0  0  0
    8.8347    9.8406    2.3684 Si  0  0  1  0  0  4  0  0  0  0  0  0
    9.1758   10.4584    0.6198 C   0  0  0  0  0  0  0  0  0  0  0  0
    7.0316   10.1346    2.8351 C   0  0  0  0  0  0  0  0  0  0  0  0
   10.0447   10.5872    3.6474 C   0  0  1  0  0  0  0  0  0  0  0  0
   11.4955   10.2548    3.2396 C   0  0  0  0  0  0  0  0  0  0  0  0
    9.8639   12.1187    3.7036 C   0  0  0  0  0  0  0  0  0  0  0  0
    9.7605    9.9839    5.0390 C   0  0  0  0  0  0  0  0  0  0  0  0
    9.2788    5.8082    2.2364 C   0  0  0  0  0  0  0  0  0  0  0  0
   10.6479    5.7460    3.5631 Br  0  0  0  0  0  0  0  0  0  0  0  0
    8.8412    4.6249    1.6479 C   0  0  0  0  0  0  0  0  0  0  0  0
    7.8369    4.6095    0.6654 C   0  0  0  0  0  0  0  0  0  0  0  0
    7.4111    3.3021   -0.0060 C   0  0  1  0  0  0  0  0  0  0  0  0
    8.1173    3.1327   -0.8450 H   0  0  0  0  0  0  0  0  0  0  0  0
    7.5152    2.0573    0.9023 C   0  0  0  0  0  0  0  0  0  0  0  0
    7.0830    0.7542    0.2022 C   0  0  0  0  0  0  0  0  0  0  0  0
    5.6883    0.8786   -0.4294 C   0  0  2  0  0  0  0  0  0  0  0  0
    4.6089    0.9681    0.6803 C   0  0  0  0  0  0  0  0  0  0  0  0
    6.0944   -3.0962   -2.7350 H   0  0  0  0  0  0  0  0  0  0  0  0
    4.5772   -2.2357   -3.0988 H   0  0  0  0  0  0  0  0  0  0  0  0
    4.6589   -3.3905   -1.7489 H   0  0  0  0  0  0  0  0  0  0  0  0
    6.3157   -1.8073   -0.5365 H   0  0  0  0  0  0  0  0  0  0  0  0
    4.7082    0.1731   -3.4648 H   0  0  0  0  0  0  0  0  0  0  0  0
    3.3147    0.0265   -2.3963 H   0  0  0  0  0  0  0  0  0  0  0  0
    3.5300    2.2907   -1.6281 H   0  0  0  0  0  0  0  0  0  0  0  0
    4.4199    2.5175   -3.1397 H   0  0  0  0  0  0  0  0  0  0  0  0
    5.0348    4.7116   -2.1291 H   0  0  0  0  0  0  0  0  0  0  0  0
    6.7873    4.5736   -2.3237 H   0  0  0  0  0  0  0  0  0  0  0  0
    5.2159    6.1493   -0.2120 H   0  0  0  0  0  0  0  0  0  0  0  0
    6.3334    6.8006   -1.4046 H   0  0  0  0  0  0  0  0  0  0  0  0
    7.2774    7.9771    0.5719 H   0  0  0  0  0  0  0  0  0  0  0  0
    8.4743   10.0243   -0.1099 H   0  0  0  0  0  0  0  0  0  0  0  0
   10.1965   10.1997    0.2967 H   0  0  0  0  0  0  0  0  0  0  0  0
    9.0710   11.5547    0.5659 H   0  0  0  0  0  0  0  0  0  0  0  0
    6.3435    9.6916    2.0980 H   0  0  0  0  0  0  0  0  0  0  0  0
    6.8113   11.2138    2.8850 H   0  0  0  0  0  0  0  0  0  0  0  0
    6.7967    9.6953    3.8175 H   0  0  0  0  0  0  0  0  0  0  0  0
   11.7644   10.6975    2.2663 H   0  0  0  0  0  0  0  0  0  0  0  0
   11.6590    9.1680    3.1745 H   0  0  0  0  0  0  0  0  0  0  0  0
   12.2034   10.6575    3.9867 H   0  0  0  0  0  0  0  0  0  0  0  0
   10.0738   12.6005    2.7340 H   0  0  0  0  0  0  0  0  0  0  0  0
   10.5598   12.5587    4.4405 H   0  0  0  0  0  0  0  0  0  0  0  0
    8.8447   12.4084    4.0091 H   0  0  0  0  0  0  0  0  0  0  0  0
    9.8663    8.8881    5.0346 H   0  0  0  0  0  0  0  0  0  0  0  0
    8.7457   10.2255    5.3962 H   0  0  0  0  0  0  0  0  0  0  0  0
   10.4716   10.3880    5.7823 H   0  0  0  0  0  0  0  0  0  0  0  0
    9.3088    3.6948    1.9694 H   0  0  0  0  0  0  0  0  0  0  0  0
    6.9143    2.2224    1.8127 H   0  0  0  0  0  0  0  0  0  0  0  0
    8.5531    1.9303    1.2469 H   0  0  0  0  0  0  0  0  0  0  0  0
    7.1183   -0.0767    0.9274 H   0  0  0  0  0  0  0  0  0  0  0  0
    7.8089    0.5076   -0.5920 H   0  0  0  0  0  0  0  0  0  0  0  0
    4.6309    0.0447    1.2798 H   0  0  0  0  0  0  0  0  0  0  0  0
    3.5935    1.0594    0.2666 H   0  0  0  0  0  0  0  0  0  0  0  0
    4.7646    1.8157    1.3642 H   0  0  0  0  0  0  0  0  0  0  0  0
  1  2  1  0
  1 33  1  0
  1 34  1  0
  1 35  1  0
  2  3  2  0
  2 36  1  0
  3  4  1  0
  3 31  1  0
  4  5  1  0
  4 37  1  0
  4 38  1  0
  5  6  1  0
  5 39  1  0
  5 40  1  0
  6  7  1  6
  6  8  1  0
  6 31  1  0
  8  9  1  1
  8 10  1  0
  8 27  1  0
 10 11  1  0
 10 41  1  0
 10 42  1  0
 11 12  1  0
 11 43  1  0
 11 44  1  0
 12 13  2  0
 12 26  1  0
 13 14  1  0
 13 45  1  0
 14 15  1  0
 14 23  2  0
 16 15  1  6
 16 17  1  0
 16 18  1  0
 16 19  1  0
 17 46  1  0
 17 47  1  0
 17 48  1  0
 18 49  1  0
 18 50  1  0
 18 51  1  0
 19 20  1  6
 19 21  1  0
 19 22  1  0
 20 52  1  0
 20 53  1  0
 20 54  1  0
 21 55  1  0
 21 56  1  0
 21 57  1  0
 22 58  1  0
 22 59  1  0
 22 60  1  0
 23 24  1  0
 23 25  1  0
 25 26  2  0
 25 61  1  0
 26 27  1  0
 27 28  1  6
 27 29  1  0
 29 30  1  0
 29 62  1  0
 29 63  1  0
 30 31  1  0
 30 64  1  0
 30 65  1  0
 31 32  1  1
 32 66  1  0
 32 67  1  0
 32 68  1  0
M  END

