
     RDKit          3D

 31 32  0  0  0  0  0  0  0  0999 V2000
    2.3568   -1.4863    1.1621 C   0  0  0  0  0  0  0  0  0  0  0  0
    3.8676   -1.5372    1.3050 C   0  0  0  0  0  0  0  0  0  0  0  0
    4.3803   -0.3504    1.9500 O   0  0  0  0  0  0  0  0  0  0  0  0
    4.6380    0.7092    1.1819 C   0  0  0  0  0  0  0  0  0  0  0  0
    4.4557    0.7681   -0.0050 O   0  0  0  0  0  0  0  0  0  0  0  0
    5.1913    1.8494    2.0306 C   0  0  1  0  0  0  0  0  0  0  0  0
    5.4276    1.5246    3.4234 C   0  0  0  0  0  0  0  0  0  0  0  0
    5.6467    1.2808    4.5347 N   0  0  0  0  0  0  0  0  0  0  0  0
    6.1553    2.8945    1.4058 C   0  0  1  0  0  0  0  0  0  0  0  0
    6.7728    2.7823    0.0481 C   0  0  0  0  0  0  0  0  0  0  0  0
    6.9077    3.9193   -0.7907 C   0  0  0  0  0  0  0  0  0  0  0  0
    6.4497    5.1626   -0.3905 N   0  0  0  0  0  0  0  0  0  0  0  0
    7.5923    3.7814   -2.0173 C   0  0  0  0  0  0  0  0  0  0  0  0
    8.1555    2.5662   -2.3932 C   0  0  0  0  0  0  0  0  0  0  0  0
    8.0639    1.4462   -1.5618 C   0  0  0  0  0  0  0  0  0  0  0  0
    7.3856    1.5919   -0.3593 C   0  0  0  0  0  0  0  0  0  0  0  0
    7.3308    0.5350    0.4753 F   0  0  0  0  0  0  0  0  0  0  0  0
    4.7418    3.2899    1.7124 C   0  0  1  0  0  0  0  0  0  0  0  0
    3.5633    3.5728    0.4284 Cl  0  0  0  0  0  0  0  0  0  0  0  0
    4.4814    4.3933    3.0757 Cl  0  0  0  0  0  0  0  0  0  0  0  0
    1.9931   -2.4362    0.7387 H   0  0  0  0  0  0  0  0  0  0  0  0
    2.0523   -0.6731    0.4868 H   0  0  0  0  0  0  0  0  0  0  0  0
    1.8734   -1.3384    2.1401 H   0  0  0  0  0  0  0  0  0  0  0  0
    4.3595   -1.6442    0.3273 H   0  0  0  0  0  0  0  0  0  0  0  0
    4.1839   -2.3594    1.9617 H   0  0  0  0  0  0  0  0  0  0  0  0
    6.8415    3.2869    2.1679 H   0  0  0  0  0  0  0  0  0  0  0  0
    5.6429    5.1933    0.2211 H   0  0  0  0  0  0  0  0  0  0  0  0
    6.4091    5.8678   -1.1173 H   0  0  0  0  0  0  0  0  0  0  0  0
    7.6851    4.6531   -2.6701 H   0  0  0  0  0  0  0  0  0  0  0  0
    8.6801    2.4890   -3.3486 H   0  0  0  0  0  0  0  0  0  0  0  0
    8.5056    0.4830   -1.8186 H   0  0  0  0  0  0  0  0  0  0  0  0
  1  2  1  0
  1 21  1  0
  1 22  1  0
  1 23  1  0
  2  3  1  0
  2 24  1  0
  2 25  1  0
  3  4  1  0
  4  5  2  0
  4  6  1  0
  6  7  1  1
  6  9  1  0
  6 18  1  0
  7  8  3  0
  9 10  1  0
  9 18  1  0
  9 26  1  1
 10 11  2  0
 10 16  1  0
 11 12  1  0
 11 13  1  0
 12 27  1  0
 12 28  1  0
 13 14  2  0
 13 29  1  0
 14 15  1  0
 14 30  1  0
 15 16  2  0
 15 31  1  0
 16 17  1  0
 18 19  1  6
 18 20  1  0
M  END

