
     RDKit          3D

 48 50  0  0  0  0  0  0  0  0999 V2000
    2.8787    1.4516   -0.8548 C   0  0  0  0  0  0  0  0  0  0  0  0
    2.5056    0.2320   -0.0005 C   0  0  1  0  0  0  0  0  0  0  0  0
    0.9888   -0.0020   -0.0345 C   0  0  0  0  0  0  0  0  0  0  0  0
    3.2424   -1.0488   -0.4387 C   0  0  0  0  0  0  0  0  0  0  0  0
    4.7773   -1.0685   -0.2507 C   0  0  1  0  0  0  0  0  0  0  0  0
    5.1474   -0.7442    1.1978 C   0  0  0  0  0  0  0  0  0  0  0  0
    5.7155    0.4918    1.5416 C   0  0  0  0  0  0  0  0  0  0  0  0
    6.0272    0.8080    2.8713 C   0  0  0  0  0  0  0  0  0  0  0  0
    5.7736   -0.1289    3.8718 C   0  0  0  0  0  0  0  0  0  0  0  0
    5.2131   -1.3752    3.5384 C   0  0  0  0  0  0  0  0  0  0  0  0
    4.9030   -1.6838    2.2154 C   0  0  0  0  0  0  0  0  0  0  0  0
    5.0252   -2.2145    4.7856 C   0  0  0  0  0  0  0  0  0  0  0  0
    5.9348   -1.5132    5.8229 C   0  0  0  0  0  0  0  0  0  0  0  0
    6.0022   -0.0359    5.3658 C   0  0  0  0  0  0  0  0  0  0  0  0
    5.3516   -2.3799   -0.6132 N   0  0  0  0  0  0  0  0  0  0  0  0
    4.8664   -3.0738   -1.8060 C   0  0  0  0  0  0  0  0  0  0  0  0
    5.4558   -2.5297   -3.1144 C   0  0  0  0  0  0  0  0  0  0  0  0
    6.9107   -2.5968   -3.0402 N   0  0  0  0  0  0  0  0  0  0  0  0
    7.4418   -1.8647   -1.8954 C   0  0  0  0  0  0  0  0  0  0  0  0
    6.8172   -2.4144   -0.6052 C   0  0  0  0  0  0  0  0  0  0  0  0
    2.3218    2.3454   -0.5297 H   0  0  0  0  0  0  0  0  0  0  0  0
    2.6357    1.2782   -1.9180 H   0  0  0  0  0  0  0  0  0  0  0  0
    3.9504    1.6939   -0.7934 H   0  0  0  0  0  0  0  0  0  0  0  0
    2.7849    0.4510    1.0446 H   0  0  0  0  0  0  0  0  0  0  0  0
    0.6447   -0.2397   -1.0564 H   0  0  0  0  0  0  0  0  0  0  0  0
    0.4390    0.8929    0.2997 H   0  0  0  0  0  0  0  0  0  0  0  0
    0.6947   -0.8399    0.6183 H   0  0  0  0  0  0  0  0  0  0  0  0
    3.0038   -1.2151   -1.5030 H   0  0  0  0  0  0  0  0  0  0  0  0
    2.8250   -1.9098    0.1120 H   0  0  0  0  0  0  0  0  0  0  0  0
    5.1955   -0.2539   -0.8786 H   0  0  0  0  0  0  0  0  0  0  0  0
    5.9304    1.2191    0.7532 H   0  0  0  0  0  0  0  0  0  0  0  0
    6.4755    1.7765    3.1119 H   0  0  0  0  0  0  0  0  0  0  0  0
    4.4960   -2.6618    1.9459 H   0  0  0  0  0  0  0  0  0  0  0  0
    5.2779   -3.2766    4.6373 H   0  0  0  0  0  0  0  0  0  0  0  0
    3.9662   -2.1847    5.1051 H   0  0  0  0  0  0  0  0  0  0  0  0
    6.9451   -1.9529    5.7731 H   0  0  0  0  0  0  0  0  0  0  0  0
    5.5794   -1.6292    6.8580 H   0  0  0  0  0  0  0  0  0  0  0  0
    6.9518    0.4554    5.6328 H   0  0  0  0  0  0  0  0  0  0  0  0
    5.1968    0.5598    5.8362 H   0  0  0  0  0  0  0  0  0  0  0  0
    3.7697   -3.0679   -1.8430 H   0  0  0  0  0  0  0  0  0  0  0  0
    5.1764   -4.1304   -1.7164 H   0  0  0  0  0  0  0  0  0  0  0  0
    5.0750   -1.4954   -3.2879 H   0  0  0  0  0  0  0  0  0  0  0  0
    5.1074   -3.1458   -3.9609 H   0  0  0  0  0  0  0  0  0  0  0  0
    7.3333   -2.2693   -3.9063 H   0  0  0  0  0  0  0  0  0  0  0  0
    7.2519   -0.7678   -1.9581 H   0  0  0  0  0  0  0  0  0  0  0  0
    8.5364   -1.9958   -1.8572 H   0  0  0  0  0  0  0  0  0  0  0  0
    7.1943   -1.8618    0.2673 H   0  0  0  0  0  0  0  0  0  0  0  0
    7.1340   -3.4668   -0.4936 H   0  0  0  0  0  0  0  0  0  0  0  0
  1  2  1  0
  1 21  1  0
  1 22  1  0
  1 23  1  0
  2  3  1  0
  2  4  1  0
  2 24  1  1
  3 25  1  0
  3 26  1  0
  3 27  1  0
  4  5  1  0
  4 28  1  0
  4 29  1  0
  5  6  1  0
  5 15  1  0
  5 30  1  6
  6  7  2  0
  6 11  1  0
  7  8  1  0
  7 31  1  0
  8  9  2  0
  8 32  1  0
  9 10  1  0
  9 14  1  0
 10 11  2  0
 10 12  1  0
 11 33  1  0
 12 13  1  0
 12 34  1  0
 12 35  1  0
 13 14  1  0
 13 36  1  0
 13 37  1  0
 14 38  1  0
 14 39  1  0
 15 16  1  0
 15 20  1  0
 16 17  1  0
 16 40  1  0
 16 41  1  0
 17 18  1  0
 17 42  1  0
 17 43  1  0
 18 19  1  0
 18 44  1  0
 19 20  1  0
 19 45  1  0
 19 46  1  0
 20 47  1  0
 20 48  1  0
M  END

