
     RDKit          3D

 52 53  0  0  0  0  0  0  0  0999 V2000
    0.9172   -0.3101   -0.0411 C   0  0  0  0  0  0  0  0  0  0  0  0
    2.3404   -0.0825   -0.5156 C   0  0  0  0  0  0  0  0  0  0  0  0
    3.1925   -1.0057    0.1333 O   0  0  0  0  0  0  0  0  0  0  0  0
    4.5351   -0.9409   -0.2525 C   0  0  1  0  0  0  0  0  0  0  0  0
    5.4356    0.1378    0.4001 C   0  0  0  0  0  0  0  0  0  0  0  0
    6.5612   -0.9330    0.5397 C   0  0  2  0  0  0  0  0  0  0  0  0
    7.2771   -0.8906    1.8091 N   0  0  0  0  0  0  0  0  0  0  0  0
    7.9839   -1.9523    2.3129 C   0  0  0  0  0  0  0  0  0  0  0  0
    8.2669   -2.9518    1.6813 O   0  0  0  0  0  0  0  0  0  0  0  0
    8.4530   -1.7805    3.7558 C   0  0  0  0  0  0  0  0  0  0  0  0
    7.9011   -0.6065    4.3317 O   0  0  0  0  0  0  0  0  0  0  0  0
    8.2654   -0.3312    5.6270 C   0  0  0  0  0  0  0  0  0  0  0  0
    9.4622    0.2858    6.0809 C   0  0  0  0  0  0  0  0  0  0  0  0
   10.6373    0.7470    5.2765 C   0  0  0  0  0  0  0  0  0  0  0  0
    9.4144    0.4302    7.4028 N   0  0  0  0  0  0  0  0  0  0  0  0
    8.2293   -0.0745    7.7962 N   0  0  0  0  0  0  0  0  0  0  0  0
    7.8641   -0.0435    9.1960 C   0  0  0  0  0  0  0  0  0  0  0  0
    7.4851   -0.5523    6.7564 C   0  0  0  0  0  0  0  0  0  0  0  0
    6.1227   -1.1443    6.8927 C   0  0  0  0  0  0  0  0  0  0  0  0
    7.5236   -0.7729   -0.6584 C   0  0  0  0  0  0  0  0  0  0  0  0
    7.1642   -0.8697   -1.8031 O   0  0  0  0  0  0  0  0  0  0  0  0
    8.7787   -0.4186   -0.3519 O   0  0  0  0  0  0  0  0  0  0  0  0
    5.4415   -2.0584    0.3399 C   0  0  1  0  0  0  0  0  0  0  0  0
    4.8969   -2.5506    1.6876 C   0  0  0  0  0  0  0  0  0  0  0  0
    5.7473   -3.2534   -0.5618 C   0  0  0  0  0  0  0  0  0  0  0  0
    0.2276    0.3932   -0.5336 H   0  0  0  0  0  0  0  0  0  0  0  0
    0.8431   -0.1657    1.0480 H   0  0  0  0  0  0  0  0  0  0  0  0
    0.5932   -1.3368   -0.2723 H   0  0  0  0  0  0  0  0  0  0  0  0
    2.6571    0.9584   -0.2969 H   0  0  0  0  0  0  0  0  0  0  0  0
    2.4107   -0.2106   -1.6155 H   0  0  0  0  0  0  0  0  0  0  0  0
    4.6302   -0.9082   -1.3518 H   0  0  0  0  0  0  0  0  0  0  0  0
    5.0417    0.4239    1.3869 H   0  0  0  0  0  0  0  0  0  0  0  0
    5.6787    1.0411   -0.1770 H   0  0  0  0  0  0  0  0  0  0  0  0
    7.0149   -0.1835    2.4915 H   0  0  0  0  0  0  0  0  0  0  0  0
    9.5578   -1.7509    3.7514 H   0  0  0  0  0  0  0  0  0  0  0  0
    8.1523   -2.6852    4.3133 H   0  0  0  0  0  0  0  0  0  0  0  0
   10.3147    1.3135    4.3882 H   0  0  0  0  0  0  0  0  0  0  0  0
   11.2537   -0.0973    4.9221 H   0  0  0  0  0  0  0  0  0  0  0  0
   11.2781    1.3937    5.8919 H   0  0  0  0  0  0  0  0  0  0  0  0
    8.7152    0.3800    9.7426 H   0  0  0  0  0  0  0  0  0  0  0  0
    7.6567   -1.0562    9.5777 H   0  0  0  0  0  0  0  0  0  0  0  0
    6.9761    0.5871    9.3665 H   0  0  0  0  0  0  0  0  0  0  0  0
    5.4098   -0.4410    7.3558 H   0  0  0  0  0  0  0  0  0  0  0  0
    6.1250   -2.0615    7.5062 H   0  0  0  0  0  0  0  0  0  0  0  0
    5.7375   -1.4044    5.8968 H   0  0  0  0  0  0  0  0  0  0  0  0
    8.8441   -0.3603    0.6164 H   0  0  0  0  0  0  0  0  0  0  0  0
    4.7206   -1.7391    2.4090 H   0  0  0  0  0  0  0  0  0  0  0  0
    5.5874   -3.2788    2.1370 H   0  0  0  0  0  0  0  0  0  0  0  0
    3.9308   -3.0477    1.5213 H   0  0  0  0  0  0  0  0  0  0  0  0
    6.0753   -2.9398   -1.5605 H   0  0  0  0  0  0  0  0  0  0  0  0
    4.8386   -3.8680   -0.6727 H   0  0  0  0  0  0  0  0  0  0  0  0
    6.5366   -3.8757   -0.1146 H   0  0  0  0  0  0  0  0  0  0  0  0
  1  2  1  0
  1 26  1  0
  1 27  1  0
  1 28  1  0
  2  3  1  0
  2 29  1  0
  2 30  1  0
  3  4  1  0
  4  5  1  0
  4 23  1  0
  4 31  1  6
  5  6  1  0
  5 32  1  0
  5 33  1  0
  6  7  1  0
  6 20  1  6
  6 23  1  0
  7  8  1  0
  7 34  1  0
  8  9  2  0
  8 10  1  0
 10 11  1  0
 10 35  1  0
 10 36  1  0
 11 12  1  0
 12 13  1  0
 12 18  2  0
 13 14  1  0
 13 15  2  0
 14 37  1  0
 14 38  1  0
 14 39  1  0
 15 16  1  0
 16 17  1  0
 16 18  1  0
 17 40  1  0
 17 41  1  0
 17 42  1  0
 18 19  1  0
 19 43  1  0
 19 44  1  0
 19 45  1  0
 20 21  2  0
 20 22  1  0
 22 46  1  0
 23 24  1  1
 23 25  1  0
 24 47  1  0
 24 48  1  0
 24 49  1  0
 25 50  1  0
 25 51  1  0
 25 52  1  0
M  END

