
     RDKit          3D

 48 49  0  0  0  0  0  0  0  0999 V2000
    3.5053   -0.0823    4.0712 C   0  0  0  0  0  0  0  0  0  0  0  0
    2.6676   -1.1549    3.3680 C   0  0  1  0  0  0  0  0  0  0  0  0
    1.2956   -1.3252    4.0294 C   0  0  0  0  0  0  0  0  0  0  0  0
    2.4905   -0.8683    1.8653 C   0  0  0  0  0  0  0  0  0  0  0  0
    3.7354   -0.7759    1.1174 N   0  0  0  0  0  0  0  0  0  0  0  0
    4.2811    0.4505    0.5719 C   0  0  0  0  0  0  0  0  0  0  0  0
    5.5734   -0.0723   -0.0849 C   0  0  2  0  0  0  0  0  0  0  0  0
    6.4176    0.0201    0.6240 H   0  0  0  0  0  0  0  0  0  0  0  0
    5.9334    0.5844   -1.4075 C   0  0  0  0  0  0  0  0  0  0  0  0
    7.1490   -0.0641   -2.0664 C   0  0  0  0  0  0  0  0  0  0  0  0
    7.5194    0.8165   -3.6169 S   0  0  1  0  0  0  0  0  0  0  0  0
    6.3452    0.6860   -4.4974 O   0  0  0  0  0  0  0  0  0  0  0  0
    8.0273    2.1473   -3.2462 O   0  0  0  0  0  0  0  0  0  0  0  0
    8.8969   -0.0957   -4.3797 C   0  0  0  0  0  0  0  0  0  0  0  0
    8.5020   -1.4504   -4.9765 C   0  0  0  0  0  0  0  0  0  0  0  0
    9.6470   -2.0856   -5.7395 C   0  0  0  0  0  0  0  0  0  0  0  0
   10.5390   -2.9634   -5.1041 C   0  0  0  0  0  0  0  0  0  0  0  0
   11.6128   -3.5238   -5.8016 C   0  0  0  0  0  0  0  0  0  0  0  0
   11.8120   -3.2131   -7.1498 C   0  0  0  0  0  0  0  0  0  0  0  0
   10.9293   -2.3415   -7.7950 C   0  0  0  0  0  0  0  0  0  0  0  0
    9.8566   -1.7836   -7.0946 C   0  0  0  0  0  0  0  0  0  0  0  0
    5.3277   -1.4734   -0.2775 O   0  0  0  0  0  0  0  0  0  0  0  0
    4.2820   -1.8815    0.5091 C   0  0  0  0  0  0  0  0  0  0  0  0
    3.9344   -3.0274    0.6122 O   0  0  0  0  0  0  0  0  0  0  0  0
    3.6473   -0.3264    5.1362 H   0  0  0  0  0  0  0  0  0  0  0  0
    3.0142    0.9057    4.0212 H   0  0  0  0  0  0  0  0  0  0  0  0
    4.5053    0.0096    3.6188 H   0  0  0  0  0  0  0  0  0  0  0  0
    3.2058   -2.1169    3.4391 H   0  0  0  0  0  0  0  0  0  0  0  0
    0.7065   -0.3930    3.9728 H   0  0  0  0  0  0  0  0  0  0  0  0
    1.3986   -1.5864    5.0944 H   0  0  0  0  0  0  0  0  0  0  0  0
    0.7083   -2.1222    3.5452 H   0  0  0  0  0  0  0  0  0  0  0  0
    1.9388    0.0779    1.7252 H   0  0  0  0  0  0  0  0  0  0  0  0
    1.8853   -1.6733    1.4177 H   0  0  0  0  0  0  0  0  0  0  0  0
    4.4898    1.2025    1.3485 H   0  0  0  0  0  0  0  0  0  0  0  0
    3.5995    0.9071   -0.1734 H   0  0  0  0  0  0  0  0  0  0  0  0
    6.1375    1.6537   -1.2320 H   0  0  0  0  0  0  0  0  0  0  0  0
    5.0765    0.5208   -2.0966 H   0  0  0  0  0  0  0  0  0  0  0  0
    6.9516   -1.1187   -2.3062 H   0  0  0  0  0  0  0  0  0  0  0  0
    8.0529    0.0125   -1.4428 H   0  0  0  0  0  0  0  0  0  0  0  0
    9.6921   -0.1630   -3.6214 H   0  0  0  0  0  0  0  0  0  0  0  0
    9.2343    0.6116   -5.1539 H   0  0  0  0  0  0  0  0  0  0  0  0
    7.6377   -1.2912   -5.6385 H   0  0  0  0  0  0  0  0  0  0  0  0
    8.1718   -2.1304   -4.1745 H   0  0  0  0  0  0  0  0  0  0  0  0
   10.3865   -3.2187   -4.0509 H   0  0  0  0  0  0  0  0  0  0  0  0
   12.2936   -4.2097   -5.2906 H   0  0  0  0  0  0  0  0  0  0  0  0
   12.6494   -3.6527   -7.6975 H   0  0  0  0  0  0  0  0  0  0  0  0
   11.0731   -2.0984   -8.8509 H   0  0  0  0  0  0  0  0  0  0  0  0
    9.1661   -1.1086   -7.6093 H   0  0  0  0  0  0  0  0  0  0  0  0
  1  2  1  0
  1 25  1  0
  1 26  1  0
  1 27  1  0
  2  3  1  0
  2  4  1  0
  2 28  1  6
  3 29  1  0
  3 30  1  0
  3 31  1  0
  4  5  1  0
  4 32  1  0
  4 33  1  0
  5  6  1  0
  5 23  1  0
  6  7  1  0
  6 34  1  0
  6 35  1  0
  7  8  1  1
  7  9  1  0
  7 22  1  0
  9 10  1  0
  9 36  1  0
  9 37  1  0
 11 10  1  1
 10 38  1  0
 10 39  1  0
 11 12  2  0
 11 13  2  0
 11 14  1  0
 14 15  1  0
 14 40  1  0
 14 41  1  0
 15 16  1  0
 15 42  1  0
 15 43  1  0
 16 17  2  0
 16 21  1  0
 17 18  1  0
 17 44  1  0
 18 19  2  0
 18 45  1  0
 19 20  1  0
 19 46  1  0
 20 21  2  0
 20 47  1  0
 21 48  1  0
 22 23  1  0
 23 24  2  0
M  END

