
     RDKit          3D

 44 45  0  0  0  0  0  0  0  0999 V2000
    1.8713   -0.5275   -0.7357 C   0  0  0  0  0  0  0  0  0  0  0  0
    2.8533   -0.5367    0.2709 O   0  0  0  0  0  0  0  0  0  0  0  0
    3.2243    0.6439    0.8425 C   0  0  0  0  0  0  0  0  0  0  0  0
    2.7005    1.8995    0.5022 C   0  0  0  0  0  0  0  0  0  0  0  0
    3.1435    3.0497    1.1605 C   0  0  0  0  0  0  0  0  0  0  0  0
    4.1322    3.0028    2.1622 C   0  0  0  0  0  0  0  0  0  0  0  0
    4.5513    4.1847    2.8162 N   0  0  0  0  0  0  0  0  0  0  0  0
    5.3052    4.0527    4.0495 C   0  0  0  0  0  0  0  0  0  0  0  0
    5.2360    5.2789    4.9641 C   0  0  0  0  0  0  0  0  0  0  0  0
    5.8408    6.5771    4.4225 C   0  0  0  0  0  0  0  0  0  0  0  0
    4.9708    7.3546    3.5551 N   0  0  0  0  0  0  0  0  0  0  0  0
    5.5292    8.6588    3.2614 C   0  0  0  0  0  0  0  0  0  0  0  0
    4.3299    6.6998    2.3942 C   0  0  2  0  0  0  0  0  0  0  0  0
    2.7972    6.6189    2.5584 C   0  0  0  0  0  0  0  0  0  0  0  0
    2.0967    7.9520    2.8151 C   0  0  0  0  0  0  0  0  0  0  0  0
    2.1206    8.8206    1.6356 N   0  0  0  0  0  0  0  0  0  0  0  0
    4.9216    5.3318    1.9887 C   0  0  0  0  0  0  0  0  0  0  0  0
    4.6546    1.7299    2.4828 C   0  0  0  0  0  0  0  0  0  0  0  0
    4.2025    0.5773    1.8439 C   0  0  0  0  0  0  0  0  0  0  0  0
    1.7322   -1.5709   -1.0512 H   0  0  0  0  0  0  0  0  0  0  0  0
    2.1811    0.0704   -1.6131 H   0  0  0  0  0  0  0  0  0  0  0  0
    0.9041   -0.1358   -0.3691 H   0  0  0  0  0  0  0  0  0  0  0  0
    1.9296    1.9992   -0.2626 H   0  0  0  0  0  0  0  0  0  0  0  0
    2.6860    4.0057    0.9008 H   0  0  0  0  0  0  0  0  0  0  0  0
    6.3777    3.8239    3.8474 H   0  0  0  0  0  0  0  0  0  0  0  0
    4.9017    3.1954    4.6077 H   0  0  0  0  0  0  0  0  0  0  0  0
    5.7908    5.0136    5.8801 H   0  0  0  0  0  0  0  0  0  0  0  0
    4.1934    5.4664    5.2698 H   0  0  0  0  0  0  0  0  0  0  0  0
    6.8271    6.3457    3.9512 H   0  0  0  0  0  0  0  0  0  0  0  0
    6.0779    7.2242    5.2841 H   0  0  0  0  0  0  0  0  0  0  0  0
    6.4383    8.6265    2.6151 H   0  0  0  0  0  0  0  0  0  0  0  0
    5.8119    9.1699    4.1966 H   0  0  0  0  0  0  0  0  0  0  0  0
    4.7861    9.2963    2.7579 H   0  0  0  0  0  0  0  0  0  0  0  0
    4.5393    7.3351    1.5134 H   0  0  0  0  0  0  0  0  0  0  0  0
    2.5759    5.9276    3.3866 H   0  0  0  0  0  0  0  0  0  0  0  0
    2.3650    6.1753    1.6446 H   0  0  0  0  0  0  0  0  0  0  0  0
    2.5360    8.4056    3.7278 H   0  0  0  0  0  0  0  0  0  0  0  0
    1.0385    7.7450    3.0491 H   0  0  0  0  0  0  0  0  0  0  0  0
    3.0744    9.1070    1.4143 H   0  0  0  0  0  0  0  0  0  0  0  0
    1.6083    9.6831    1.8205 H   0  0  0  0  0  0  0  0  0  0  0  0
    6.0272    5.4180    1.9321 H   0  0  0  0  0  0  0  0  0  0  0  0
    4.5876    5.1295    0.9633 H   0  0  0  0  0  0  0  0  0  0  0  0
    5.4385    1.6275    3.2332 H   0  0  0  0  0  0  0  0  0  0  0  0
    4.6149   -0.4006    2.1021 H   0  0  0  0  0  0  0  0  0  0  0  0
  1  2  1  0
  1 20  1  0
  1 21  1  0
  1 22  1  0
  2  3  1  0
  3  4  2  0
  3 19  1  0
  4  5  1  0
  4 23  1  0
  5  6  2  0
  5 24  1  0
  6  7  1  0
  6 18  1  0
  7  8  1  0
  7 17  1  0
  8  9  1  0
  8 25  1  0
  8 26  1  0
  9 10  1  0
  9 27  1  0
  9 28  1  0
 10 11  1  0
 10 29  1  0
 10 30  1  0
 11 12  1  0
 11 13  1  0
 12 31  1  0
 12 32  1  0
 12 33  1  0
 13 14  1  0
 13 17  1  0
 13 34  1  6
 14 15  1  0
 14 35  1  0
 14 36  1  0
 15 16  1  0
 15 37  1  0
 15 38  1  0
 16 39  1  0
 16 40  1  0
 17 41  1  0
 17 42  1  0
 18 19  2  0
 18 43  1  0
 19 44  1  0
M  END

