
     RDKit          3D

 66 72  0  0  0  0  0  0  0  0999 V2000
    1.2475    0.9466    0.0960 C   0  0  0  0  0  0  0  0  0  0  0  0
    2.4778    0.0034    0.1700 C   0  0  1  0  0  0  0  0  0  0  0  0
    2.5037   -0.9077   -1.0862 C   0  0  0  0  0  0  0  0  0  0  0  0
    3.7577    0.8508    0.1998 C   0  0  0  0  0  0  0  0  0  0  0  0
    4.0315    1.7209   -0.8669 C   0  0  0  0  0  0  0  0  0  0  0  0
    5.1722    2.5215   -0.9142 C   0  0  0  0  0  0  0  0  0  0  0  0
    6.0816    2.4563    0.1428 C   0  0  0  0  0  0  0  0  0  0  0  0
    5.8426    1.6049    1.2173 C   0  0  0  0  0  0  0  0  0  0  0  0
    4.6863    0.7941    1.2649 C   0  0  0  0  0  0  0  0  0  0  0  0
    4.4719   -0.0557    2.3636 N   0  0  0  0  0  0  0  0  0  0  0  0
    5.4392   -0.0879    3.4228 C   0  0  0  0  0  0  0  0  0  0  0  0
    5.3209    0.7812    4.5150 C   0  0  0  0  0  0  0  0  0  0  0  0
    6.2611    0.7500    5.5449 C   0  0  0  0  0  0  0  0  0  0  0  0
    7.3368   -0.1523    5.4991 C   0  0  0  0  0  0  0  0  0  0  0  0
    8.3252   -0.1795    6.5892 C   0  0  0  0  0  0  0  0  0  0  0  0
    8.2767    0.6416    7.6709 N   0  0  0  0  0  0  0  0  0  0  0  0
    9.3281    0.2920    8.3968 C   0  0  0  0  0  0  0  0  0  0  0  0
    9.6330    0.8825    9.7151 C   0  0  0  0  0  0  0  0  0  0  0  0
    8.9101    2.0175   10.1281 C   0  0  0  0  0  0  0  0  0  0  0  0
    9.1797    2.5533   11.3852 C   0  0  0  0  0  0  0  0  0  0  0  0
   10.1506    1.9458   12.1867 C   0  0  0  0  0  0  0  0  0  0  0  0
   10.8099    0.8193   11.6851 C   0  0  0  0  0  0  0  0  0  0  0  0
   10.5602    0.2993   10.4841 N   0  0  0  0  0  0  0  0  0  0  0  0
   10.0034   -0.7144    7.7514 N   0  0  0  0  0  0  0  0  0  0  0  0
   11.2105   -1.4223    8.0587 C   0  0  0  0  0  0  0  0  0  0  0  0
   11.1785   -2.8194    8.0885 C   0  0  0  0  0  0  0  0  0  0  0  0
   12.3556   -3.5298    8.3349 C   0  0  0  0  0  0  0  0  0  0  0  0
   13.5571   -2.8479    8.5472 C   0  0  0  0  0  0  0  0  0  0  0  0
   13.5810   -1.4497    8.5046 C   0  0  0  0  0  0  0  0  0  0  0  0
   12.4104   -0.7325    8.2552 C   0  0  0  0  0  0  0  0  0  0  0  0
    9.3572   -1.0171    6.6056 N   0  0  0  0  0  0  0  0  0  0  0  0
    7.4522   -1.0228    4.4011 C   0  0  0  0  0  0  0  0  0  0  0  0
    6.5112   -0.9899    3.3734 C   0  0  0  0  0  0  0  0  0  0  0  0
    3.3340   -0.8763    2.4491 C   0  0  0  0  0  0  0  0  0  0  0  0
    3.1540   -1.7153    3.5717 C   0  0  0  0  0  0  0  0  0  0  0  0
    2.0378   -2.5386    3.6840 C   0  0  0  0  0  0  0  0  0  0  0  0
    1.0701   -2.5469    2.6780 C   0  0  0  0  0  0  0  0  0  0  0  0
    1.2482   -1.7186    1.5705 C   0  0  0  0  0  0  0  0  0  0  0  0
    2.3606   -0.8754    1.4233 C   0  0  0  0  0  0  0  0  0  0  0  0
    1.2869    1.5834   -0.8009 H   0  0  0  0  0  0  0  0  0  0  0  0
    1.2068    1.6039    0.9779 H   0  0  0  0  0  0  0  0  0  0  0  0
    0.3084    0.3740    0.0552 H   0  0  0  0  0  0  0  0  0  0  0  0
    2.5704   -0.3116   -2.0091 H   0  0  0  0  0  0  0  0  0  0  0  0
    1.5922   -1.5211   -1.1523 H   0  0  0  0  0  0  0  0  0  0  0  0
    3.3692   -1.5870   -1.0571 H   0  0  0  0  0  0  0  0  0  0  0  0
    3.3227    1.7745   -1.6962 H   0  0  0  0  0  0  0  0  0  0  0  0
    5.3459    3.1849   -1.7645 H   0  0  0  0  0  0  0  0  0  0  0  0
    6.9861    3.0700    0.1372 H   0  0  0  0  0  0  0  0  0  0  0  0
    6.5611    1.5648    2.0345 H   0  0  0  0  0  0  0  0  0  0  0  0
    4.4838    1.4819    4.5491 H   0  0  0  0  0  0  0  0  0  0  0  0
    6.1741    1.4237    6.3988 H   0  0  0  0  0  0  0  0  0  0  0  0
    8.1588    2.4439    9.4634 H   0  0  0  0  0  0  0  0  0  0  0  0
    8.6379    3.4351   11.7366 H   0  0  0  0  0  0  0  0  0  0  0  0
   10.3930    2.3324   13.1791 H   0  0  0  0  0  0  0  0  0  0  0  0
   11.5754    0.3126   12.2845 H   0  0  0  0  0  0  0  0  0  0  0  0
   10.2340   -3.3363    7.9124 H   0  0  0  0  0  0  0  0  0  0  0  0
   12.3314   -4.6219    8.3605 H   0  0  0  0  0  0  0  0  0  0  0  0
   14.4770   -3.4054    8.7397 H   0  0  0  0  0  0  0  0  0  0  0  0
   14.5198   -0.9121    8.6588 H   0  0  0  0  0  0  0  0  0  0  0  0
   12.4244    0.3572    8.2100 H   0  0  0  0  0  0  0  0  0  0  0  0
    8.2885   -1.7231    4.3641 H   0  0  0  0  0  0  0  0  0  0  0  0
    6.5992   -1.6651    2.5195 H   0  0  0  0  0  0  0  0  0  0  0  0
    3.9004   -1.7197    4.3645 H   0  0  0  0  0  0  0  0  0  0  0  0
    1.9290   -3.1756    4.5657 H   0  0  0  0  0  0  0  0  0  0  0  0
    0.1887   -3.1878    2.7517 H   0  0  0  0  0  0  0  0  0  0  0  0
    0.4889   -1.7280    0.7853 H   0  0  0  0  0  0  0  0  0  0  0  0
  2  1  1  6
  1 40  1  0
  1 41  1  0
  1 42  1  0
  2  3  1  0
  2  4  1  0
  2 39  1  0
  3 43  1  0
  3 44  1  0
  3 45  1  0
  4  5  1  0
  4  9  2  0
  5  6  2  0
  5 46  1  0
  6  7  1  0
  6 47  1  0
  7  8  2  0
  7 48  1  0
  8  9  1  0
  8 49  1  0
  9 10  1  0
 10 11  1  0
 10 34  1  0
 11 12  2  0
 11 33  1  0
 12 13  1  0
 12 50  1  0
 13 14  2  0
 13 51  1  0
 14 15  1  0
 14 32  1  0
 15 16  1  0
 15 31  2  0
 16 17  2  0
 17 18  1  0
 17 24  1  0
 18 19  2  0
 18 23  1  0
 19 20  1  0
 19 52  1  0
 20 21  2  0
 20 53  1  0
 21 22  1  0
 21 54  1  0
 22 23  2  0
 22 55  1  0
 24 25  1  0
 24 31  1  0
 25 26  2  0
 25 30  1  0
 26 27  1  0
 26 56  1  0
 27 28  2  0
 27 57  1  0
 28 29  1  0
 28 58  1  0
 29 30  2  0
 29 59  1  0
 30 60  1  0
 32 33  2  0
 32 61  1  0
 33 62  1  0
 34 35  1  0
 34 39  2  0
 35 36  2  0
 35 63  1  0
 36 37  1  0
 36 64  1  0
 37 38  2  0
 37 65  1  0
 38 39  1  0
 38 66  1  0
M  END

