
     RDKit          3D

 60 63  0  0  0  0  0  0  0  0999 V2000
    1.5643    2.7566    2.2884 C   0  0  0  0  0  0  0  0  0  0  0  0
    3.0642    2.5088    2.1215 C   0  0  0  0  0  0  0  0  0  0  0  0
    3.3520    1.2356    1.3344 C   0  0  0  0  0  0  0  0  0  0  0  0
    4.7565    1.0451    1.1057 O   0  0  0  0  0  0  0  0  0  0  0  0
    5.4575    0.4096    2.0743 C   0  0  0  0  0  0  0  0  0  0  0  0
    4.9496    0.0182    3.1097 O   0  0  0  0  0  0  0  0  0  0  0  0
    6.7795    0.2649    1.7257 N   0  0  0  0  0  0  0  0  0  0  0  0
    7.4201    1.2111    0.8086 C   0  0  0  0  0  0  0  0  0  0  0  0
    7.9905    2.3961    1.5974 C   0  0  0  0  0  0  0  0  0  0  0  0
    8.8518    1.9500    2.6953 N   0  0  0  0  0  0  0  0  0  0  0  0
   10.1682    2.3564    2.6931 C   0  0  0  0  0  0  0  0  0  0  0  0
   10.6634    2.9742    1.7600 O   0  0  0  0  0  0  0  0  0  0  0  0
   11.0257    2.0709    3.9039 C   0  0  0  0  0  0  0  0  0  0  0  0
   12.3769    1.6873    3.6691 C   0  0  0  0  0  0  0  0  0  0  0  0
   13.2548    1.5115    4.7149 C   0  0  0  0  0  0  0  0  0  0  0  0
   12.8372    1.7433    6.0524 C   0  0  0  0  0  0  0  0  0  0  0  0
   13.6627    1.6040    7.2043 C   0  0  0  0  0  0  0  0  0  0  0  0
   15.3247    1.0994    7.0377 Cl  0  0  0  0  0  0  0  0  0  0  0  0
   13.1618    1.8679    8.4584 C   0  0  0  0  0  0  0  0  0  0  0  0
   11.8036    2.2835    8.5942 C   0  0  0  0  0  0  0  0  0  0  0  0
   11.2211    2.5831    9.9370 C   0  0  0  0  0  0  0  0  0  0  0  0
   11.9352    2.3970   11.1417 C   0  0  0  0  0  0  0  0  0  0  0  0
   11.3062    2.7044   12.3429 C   0  0  0  0  0  0  0  0  0  0  0  0
   10.0545    3.1715   12.4302 N   0  0  0  0  0  0  0  0  0  0  0  0
    9.3832    3.3455   11.2987 C   0  0  0  0  0  0  0  0  0  0  0  0
    8.1225    3.8126   11.3423 O   0  0  0  0  0  0  0  0  0  0  0  0
    7.5631    4.1022   12.6156 C   0  0  0  0  0  0  0  0  0  0  0  0
    9.9164    3.0670   10.0256 C   0  0  0  0  0  0  0  0  0  0  0  0
   11.0126    2.4223    7.5453 N   0  0  0  0  0  0  0  0  0  0  0  0
   11.4877    2.1641    6.3032 C   0  0  0  0  0  0  0  0  0  0  0  0
   10.6031    2.3141    5.1975 C   0  0  0  0  0  0  0  0  0  0  0  0
    8.2769    0.9134    3.5557 C   0  0  0  0  0  0  0  0  0  0  0  0
    7.7459   -0.2700    2.7031 C   0  0  1  0  0  0  0  0  0  0  0  0
    8.6021   -0.6189    2.0974 H   0  0  0  0  0  0  0  0  0  0  0  0
    7.2441   -1.4052    3.4272 N   0  0  0  0  0  0  0  0  0  0  0  0
    1.3761    3.6796    2.8580 H   0  0  0  0  0  0  0  0  0  0  0  0
    1.0771    1.9284    2.8292 H   0  0  0  0  0  0  0  0  0  0  0  0
    1.0590    2.8600    1.3133 H   0  0  0  0  0  0  0  0  0  0  0  0
    3.5444    2.4244    3.1100 H   0  0  0  0  0  0  0  0  0  0  0  0
    3.5362    3.3616    1.6033 H   0  0  0  0  0  0  0  0  0  0  0  0
    2.9081    1.2866    0.3283 H   0  0  0  0  0  0  0  0  0  0  0  0
    2.9496    0.3561    1.8585 H   0  0  0  0  0  0  0  0  0  0  0  0
    6.6916    1.5567    0.0678 H   0  0  0  0  0  0  0  0  0  0  0  0
    8.2299    0.6856    0.2769 H   0  0  0  0  0  0  0  0  0  0  0  0
    7.1513    2.9814    2.0174 H   0  0  0  0  0  0  0  0  0  0  0  0
    8.5884    3.0510    0.9520 H   0  0  0  0  0  0  0  0  0  0  0  0
   12.7051    1.5466    2.6378 H   0  0  0  0  0  0  0  0  0  0  0  0
   14.2850    1.2050    4.5292 H   0  0  0  0  0  0  0  0  0  0  0  0
   13.8111    1.7611    9.3249 H   0  0  0  0  0  0  0  0  0  0  0  0
   12.9561    2.0165   11.1598 H   0  0  0  0  0  0  0  0  0  0  0  0
   11.8389    2.5671   13.2910 H   0  0  0  0  0  0  0  0  0  0  0  0
    6.5450    4.4648   12.4217 H   0  0  0  0  0  0  0  0  0  0  0  0
    8.1456    4.8735   13.1439 H   0  0  0  0  0  0  0  0  0  0  0  0
    7.5304    3.2048   13.2534 H   0  0  0  0  0  0  0  0  0  0  0  0
    9.3209    3.2272    9.1285 H   0  0  0  0  0  0  0  0  0  0  0  0
    9.5883    2.6461    5.4218 H   0  0  0  0  0  0  0  0  0  0  0  0
    7.4430    1.3213    4.1568 H   0  0  0  0  0  0  0  0  0  0  0  0
    9.0432    0.5390    4.2437 H   0  0  0  0  0  0  0  0  0  0  0  0
    6.4450   -1.1551    4.0074 H   0  0  0  0  0  0  0  0  0  0  0  0
    7.9793   -1.8241    3.9924 H   0  0  0  0  0  0  0  0  0  0  0  0
  1  2  1  0
  1 36  1  0
  1 37  1  0
  1 38  1  0
  2  3  1  0
  2 39  1  0
  2 40  1  0
  3  4  1  0
  3 41  1  0
  3 42  1  0
  4  5  1  0
  5  6  2  0
  5  7  1  0
  7  8  1  0
  7 33  1  0
  8  9  1  0
  8 43  1  0
  8 44  1  0
  9 10  1  0
  9 45  1  0
  9 46  1  0
 10 11  1  0
 10 32  1  0
 11 12  2  0
 11 13  1  0
 13 14  2  0
 13 31  1  0
 14 15  1  0
 14 47  1  0
 15 16  2  0
 15 48  1  0
 16 17  1  0
 16 30  1  0
 17 18  1  0
 17 19  2  0
 19 20  1  0
 19 49  1  0
 20 21  1  0
 20 29  2  0
 21 22  2  0
 21 28  1  0
 22 23  1  0
 22 50  1  0
 23 24  2  0
 23 51  1  0
 24 25  1  0
 25 26  1  0
 25 28  2  0
 26 27  1  0
 27 52  1  0
 27 53  1  0
 27 54  1  0
 28 55  1  0
 29 30  1  0
 30 31  2  0
 31 56  1  0
 32 33  1  0
 32 57  1  0
 32 58  1  0
 33 34  1  6
 33 35  1  0
 35 59  1  0
 35 60  1  0
M  END

