
     RDKit          3D

 50 49  0  0  0  0  0  0  0  0999 V2000
    0.8244   -0.1730   -0.2628 C   0  0  0  0  0  0  0  0  0  0  0  0
    2.3490   -0.0621   -0.3132 C   0  0  0  0  0  0  0  0  0  0  0  0
    2.9171    1.0173    0.6136 C   0  0  0  0  0  0  0  0  0  0  0  0
    4.4434    1.1349    0.5693 C   0  0  0  0  0  0  0  0  0  0  0  0
    5.0110    2.2143    1.4958 C   0  0  0  0  0  0  0  0  0  0  0  0
    6.5374    2.3313    1.4512 C   0  0  0  0  0  0  0  0  0  0  0  0
    7.1051    3.4109    2.3775 C   0  0  0  0  0  0  0  0  0  0  0  0
    8.6315    3.5270    2.3330 C   0  0  0  0  0  0  0  0  0  0  0  0
    9.1992    4.6089    3.2576 C   0  0  0  0  0  0  0  0  0  0  0  0
   10.7270    4.7018    3.2095 C   0  0  0  0  0  0  0  0  0  0  0  0
   11.3254    5.8565    4.0287 C   0  0  1  0  0  0  0  0  0  0  0  0
   11.0013    5.8309    5.5450 C   0  0  0  0  0  0  0  0  0  0  0  0
   11.4704    4.5837    6.3026 C   0  0  0  0  0  0  0  0  0  0  0  0
   11.1819    4.6608    7.8031 C   0  0  0  0  0  0  0  0  0  0  0  0
   12.8330    5.9277    3.8239 C   0  0  0  0  0  0  0  0  0  0  0  0
   13.5320    5.0466    3.3849 O   0  0  0  0  0  0  0  0  0  0  0  0
   13.3250    7.1226    4.2165 O   0  0  0  0  0  0  0  0  0  0  0  0
   14.7368    7.2944    4.1039 C   0  0  0  0  0  0  0  0  0  0  0  0
    0.4517   -0.9577   -0.9406 H   0  0  0  0  0  0  0  0  0  0  0  0
    0.3434    0.7754   -0.5561 H   0  0  0  0  0  0  0  0  0  0  0  0
    0.4735   -0.4178    0.7539 H   0  0  0  0  0  0  0  0  0  0  0  0
    2.6697    0.1454   -1.3505 H   0  0  0  0  0  0  0  0  0  0  0  0
    2.7986   -1.0375   -0.0518 H   0  0  0  0  0  0  0  0  0  0  0  0
    2.5968    0.8105    1.6521 H   0  0  0  0  0  0  0  0  0  0  0  0
    2.4679    1.9941    0.3526 H   0  0  0  0  0  0  0  0  0  0  0  0
    4.7631    1.3412   -0.4693 H   0  0  0  0  0  0  0  0  0  0  0  0
    4.8919    0.1581    0.8302 H   0  0  0  0  0  0  0  0  0  0  0  0
    4.6914    2.0081    2.5345 H   0  0  0  0  0  0  0  0  0  0  0  0
    4.5627    3.1913    1.2349 H   0  0  0  0  0  0  0  0  0  0  0  0
    6.8572    2.5373    0.4126 H   0  0  0  0  0  0  0  0  0  0  0  0
    6.9859    1.3546    1.7123 H   0  0  0  0  0  0  0  0  0  0  0  0
    6.7848    3.2052    3.4161 H   0  0  0  0  0  0  0  0  0  0  0  0
    6.6571    4.3879    2.1160 H   0  0  0  0  0  0  0  0  0  0  0  0
    8.9524    3.7299    1.2944 H   0  0  0  0  0  0  0  0  0  0  0  0
    9.0802    2.5515    2.5974 H   0  0  0  0  0  0  0  0  0  0  0  0
    8.8620    4.4074    4.2899 H   0  0  0  0  0  0  0  0  0  0  0  0
    8.7607    5.5874    2.9848 H   0  0  0  0  0  0  0  0  0  0  0  0
   11.0479    4.8236    2.1609 H   0  0  0  0  0  0  0  0  0  0  0  0
   11.1756    3.7489    3.5349 H   0  0  0  0  0  0  0  0  0  0  0  0
   10.9253    6.8112    3.6437 H   0  0  0  0  0  0  0  0  0  0  0  0
    9.9114    5.9468    5.6715 H   0  0  0  0  0  0  0  0  0  0  0  0
   11.4540    6.7264    6.0024 H   0  0  0  0  0  0  0  0  0  0  0  0
   12.5532    4.4350    6.1430 H   0  0  0  0  0  0  0  0  0  0  0  0
   10.9836    3.6859    5.8846 H   0  0  0  0  0  0  0  0  0  0  0  0
   11.6895    5.5237    8.2660 H   0  0  0  0  0  0  0  0  0  0  0  0
   11.5227    3.7537    8.3270 H   0  0  0  0  0  0  0  0  0  0  0  0
   10.1020    4.7719    7.9993 H   0  0  0  0  0  0  0  0  0  0  0  0
   14.9527    8.3087    4.4625 H   0  0  0  0  0  0  0  0  0  0  0  0
   15.0637    7.1822    3.0588 H   0  0  0  0  0  0  0  0  0  0  0  0
   15.2741    6.5523    4.7142 H   0  0  0  0  0  0  0  0  0  0  0  0
  1  2  1  0
  1 19  1  0
  1 20  1  0
  1 21  1  0
  2  3  1  0
  2 22  1  0
  2 23  1  0
  3  4  1  0
  3 24  1  0
  3 25  1  0
  4  5  1  0
  4 26  1  0
  4 27  1  0
  5  6  1  0
  5 28  1  0
  5 29  1  0
  6  7  1  0
  6 30  1  0
  6 31  1  0
  7  8  1  0
  7 32  1  0
  7 33  1  0
  8  9  1  0
  8 34  1  0
  8 35  1  0
  9 10  1  0
  9 36  1  0
  9 37  1  0
 10 11  1  0
 10 38  1  0
 10 39  1  0
 11 12  1  0
 11 15  1  0
 11 40  1  6
 12 13  1  0
 12 41  1  0
 12 42  1  0
 13 14  1  0
 13 43  1  0
 13 44  1  0
 14 45  1  0
 14 46  1  0
 14 47  1  0
 15 16  2  0
 15 17  1  0
 17 18  1  0
 18 48  1  0
 18 49  1  0
 18 50  1  0
M  END

