
     RDKit          3D

 51 52  0  0  0  0  0  0  0  0999 V2000
    1.4480   -0.8077   -0.2843 C   0  0  0  0  0  0  0  0  0  0  0  0
    2.6078   -0.8806    0.5164 O   0  0  0  0  0  0  0  0  0  0  0  0
    3.1044    0.2478    1.0748 C   0  0  0  0  0  0  0  0  0  0  0  0
    2.5464    1.5277    0.9171 C   0  0  0  0  0  0  0  0  0  0  0  0
    3.1430    2.6232    1.5421 C   0  0  0  0  0  0  0  0  0  0  0  0
    4.3010    2.4838    2.3187 C   0  0  0  0  0  0  0  0  0  0  0  0
    4.8610    3.7255    2.9532 C   0  0  0  0  0  0  0  0  0  0  0  0
    4.1959    4.7508    3.0421 O   0  0  0  0  0  0  0  0  0  0  0  0
    6.1543    3.6210    3.4015 N   0  0  0  0  0  0  0  0  0  0  0  0
    6.9325    4.5768    4.0702 C   0  0  0  0  0  0  0  0  0  0  0  0
    6.4861    5.8629    4.4096 C   0  0  0  0  0  0  0  0  0  0  0  0
    7.3342    6.7428    5.0833 C   0  0  0  0  0  0  0  0  0  0  0  0
    6.9828    8.0135    5.4532 O   0  0  0  0  0  0  0  0  0  0  0  0
    5.6879    8.4840    5.1462 C   0  0  0  0  0  0  0  0  0  0  0  0
    8.6474    6.3552    5.4296 C   0  0  0  0  0  0  0  0  0  0  0  0
    9.4307    7.3070    6.1050 N   0  0  0  0  0  0  0  0  0  0  0  0
   10.7201    7.1974    6.5544 C   0  0  0  0  0  0  0  0  0  0  0  0
   11.4096    6.1963    6.4214 O   0  0  0  0  0  0  0  0  0  0  0  0
   11.2647    8.4480    7.2575 C   0  0  1  0  0  0  0  0  0  0  0  0
   11.6317    8.0972    8.7070 C   0  0  0  0  0  0  0  0  0  0  0  0
   12.4780    8.9802    6.4808 C   0  0  0  0  0  0  0  0  0  0  0  0
    9.0952    5.0702    5.0890 C   0  0  0  0  0  0  0  0  0  0  0  0
    8.2466    4.1896    4.4177 C   0  0  0  0  0  0  0  0  0  0  0  0
    8.5970    2.9185    4.0476 O   0  0  0  0  0  0  0  0  0  0  0  0
    9.8967    2.4523    4.3410 C   0  0  0  0  0  0  0  0  0  0  0  0
    4.8417    1.1929    2.4788 C   0  0  0  0  0  0  0  0  0  0  0  0
    4.2561    0.0910    1.8679 C   0  0  0  0  0  0  0  0  0  0  0  0
    1.2370   -1.8313   -0.6216 H   0  0  0  0  0  0  0  0  0  0  0  0
    1.5996   -0.1635   -1.1688 H   0  0  0  0  0  0  0  0  0  0  0  0
    0.5791   -0.4320    0.2851 H   0  0  0  0  0  0  0  0  0  0  0  0
    1.6507    1.6795    0.3146 H   0  0  0  0  0  0  0  0  0  0  0  0
    2.7138    3.6215    1.4381 H   0  0  0  0  0  0  0  0  0  0  0  0
    6.6609    2.7664    3.2027 H   0  0  0  0  0  0  0  0  0  0  0  0
    5.4751    6.1396    4.1272 H   0  0  0  0  0  0  0  0  0  0  0  0
    5.6277    9.5109    5.5314 H   0  0  0  0  0  0  0  0  0  0  0  0
    4.9062    7.8709    5.6282 H   0  0  0  0  0  0  0  0  0  0  0  0
    5.5054    8.4953    4.0573 H   0  0  0  0  0  0  0  0  0  0  0  0
    8.9472    8.1833    6.2681 H   0  0  0  0  0  0  0  0  0  0  0  0
   10.4815    9.2268    7.2687 H   0  0  0  0  0  0  0  0  0  0  0  0
   12.3728    7.2834    8.7202 H   0  0  0  0  0  0  0  0  0  0  0  0
   10.7504    7.7625    9.2772 H   0  0  0  0  0  0  0  0  0  0  0  0
   12.0611    8.9704    9.2233 H   0  0  0  0  0  0  0  0  0  0  0  0
   13.2509    8.1996    6.4107 H   0  0  0  0  0  0  0  0  0  0  0  0
   12.9111    9.8577    6.9867 H   0  0  0  0  0  0  0  0  0  0  0  0
   12.2029    9.2779    5.4563 H   0  0  0  0  0  0  0  0  0  0  0  0
   10.1084    4.7956    5.3665 H   0  0  0  0  0  0  0  0  0  0  0  0
    9.9572    1.4263    3.9535 H   0  0  0  0  0  0  0  0  0  0  0  0
   10.0897    2.4400    5.4281 H   0  0  0  0  0  0  0  0  0  0  0  0
   10.6711    3.0693    3.8524 H   0  0  0  0  0  0  0  0  0  0  0  0
    5.7164    1.0261    3.1131 H   0  0  0  0  0  0  0  0  0  0  0  0
    4.6650   -0.9132    1.9953 H   0  0  0  0  0  0  0  0  0  0  0  0
  1  2  1  0
  1 28  1  0
  1 29  1  0
  1 30  1  0
  2  3  1  0
  3  4  2  0
  3 27  1  0
  4  5  1  0
  4 31  1  0
  5  6  2  0
  5 32  1  0
  6  7  1  0
  6 26  1  0
  7  8  2  0
  7  9  1  0
  9 10  1  0
  9 33  1  0
 10 11  2  0
 10 23  1  0
 11 12  1  0
 11 34  1  0
 12 13  1  0
 12 15  2  0
 13 14  1  0
 14 35  1  0
 14 36  1  0
 14 37  1  0
 15 16  1  0
 15 22  1  0
 16 17  1  0
 16 38  1  0
 17 18  2  0
 17 19  1  0
 19 20  1  0
 19 21  1  0
 19 39  1  1
 20 40  1  0
 20 41  1  0
 20 42  1  0
 21 43  1  0
 21 44  1  0
 21 45  1  0
 22 23  2  0
 22 46  1  0
 23 24  1  0
 24 25  1  0
 25 47  1  0
 25 48  1  0
 25 49  1  0
 26 27  2  0
 26 50  1  0
 27 51  1  0
M  END

