
     RDKit          3D

 82 87  0  0  0  0  0  0  0  0999 V2000
    3.0135    1.0834   -1.7830 C   0  0  0  0  0  0  0  0  0  0  0  0
    3.3402    0.5375   -3.1834 C   0  0  1  0  0  0  0  0  0  0  0  0
    4.2785   -0.6785   -3.1362 C   0  0  0  0  0  0  0  0  0  0  0  0
    3.6219   -1.8729   -2.6264 N   0  0  0  0  0  0  0  0  0  0  0  0
    4.5874   -2.9370   -2.3068 C   0  0  1  0  0  0  0  0  0  0  0  0
    5.1882   -2.7206   -0.9043 C   0  0  0  0  0  0  0  0  0  0  0  0
    4.1414   -3.0023    0.1772 C   0  0  0  0  0  0  0  0  0  0  0  0
    3.4740   -4.3902    0.0368 C   0  0  1  0  0  0  0  0  0  0  0  0
    4.4922   -5.4973    0.4681 C   0  0  0  0  0  0  0  0  0  0  0  0
    5.3688   -5.2030    1.2713 O   0  0  0  0  0  0  0  0  0  0  0  0
    4.3985   -6.7754   -0.0371 N   0  0  0  0  0  0  0  0  0  0  0  0
    5.4855   -7.7106    0.2472 C   0  0  0  0  0  0  0  0  0  0  0  0
    4.9716   -9.0380    0.8008 C   0  0  0  0  0  0  0  0  0  0  0  0
    3.9731   -9.6149   -0.0866 N   0  0  0  0  0  0  0  0  0  0  0  0
    3.7047  -10.9904   -0.0263 C   0  0  0  0  0  0  0  0  0  0  0  0
    4.2718  -11.8268    0.9619 C   0  0  0  0  0  0  0  0  0  0  0  0
    4.0264  -13.2008    0.9685 C   0  0  0  0  0  0  0  0  0  0  0  0
    3.1981  -13.7913    0.0139 C   0  0  0  0  0  0  0  0  0  0  0  0
    2.6212  -12.9715   -0.9620 C   0  0  0  0  0  0  0  0  0  0  0  0
    1.6954  -13.5480   -2.0054 C   0  0  1  0  0  0  0  0  0  0  0  0
    1.7260  -14.8900   -2.0312 F   0  0  0  0  0  0  0  0  0  0  0  0
    0.4154  -13.1850   -1.7864 F   0  0  0  0  0  0  0  0  0  0  0  0
    2.0078  -13.1152   -3.2429 F   0  0  0  0  0  0  0  0  0  0  0  0
    2.8717  -11.5989   -0.9892 C   0  0  0  0  0  0  0  0  0  0  0  0
    2.8766   -8.6884   -0.3570 C   0  0  0  0  0  0  0  0  0  0  0  0
    3.3710   -7.3482   -0.9043 C   0  0  0  0  0  0  0  0  0  0  0  0
    2.2142   -4.4167    0.9046 C   0  0  2  0  0  0  0  0  0  0  0  0
    2.2881   -4.4064    2.4086 C   0  0  0  0  0  0  0  0  0  0  0  0
    1.7048   -5.5982    1.6937 C   0  0  0  0  0  0  0  0  0  0  0  0
    3.0230   -4.5638   -1.3151 O   0  0  0  0  0  0  0  0  0  0  0  0
    4.0038   -4.3535   -2.3163 C   0  0  0  0  0  0  0  0  0  0  0  0
    2.4973   -2.2123   -3.4854 C   0  0  0  0  0  0  0  0  0  0  0  0
    1.5073   -1.0512   -3.5671 C   0  0  0  0  0  0  0  0  0  0  0  0
    2.1478    0.1977   -3.9710 N   0  0  0  0  0  0  0  0  0  0  0  0
    1.4585    1.1742   -4.6890 C   0  0  0  0  0  0  0  0  0  0  0  0
    1.9282    2.5110   -4.7743 C   0  0  0  0  0  0  0  0  0  0  0  0
    1.2666    3.4705   -5.5391 C   0  0  0  0  0  0  0  0  0  0  0  0
    0.1131    3.1297   -6.2275 C   0  0  0  0  0  0  0  0  0  0  0  0
   -0.5129    4.0967   -6.9618 F   0  0  0  0  0  0  0  0  0  0  0  0
   -0.4085    1.8328   -6.1712 C   0  0  0  0  0  0  0  0  0  0  0  0
   -1.6572    1.3591   -6.8814 C   0  0  0  0  0  0  0  0  0  0  0  0
   -2.0505    0.2241   -6.7886 O   0  0  0  0  0  0  0  0  0  0  0  0
   -2.3251    2.2568   -7.6222 O   0  0  0  0  0  0  0  0  0  0  0  0
    0.2728    0.8823   -5.4011 C   0  0  0  0  0  0  0  0  0  0  0  0
    3.9300    1.4447   -1.2894 H   0  0  0  0  0  0  0  0  0  0  0  0
    2.5774    0.3011   -1.1452 H   0  0  0  0  0  0  0  0  0  0  0  0
    2.3042    1.9232   -1.8361 H   0  0  0  0  0  0  0  0  0  0  0  0
    3.8944    1.3062   -3.7413 H   0  0  0  0  0  0  0  0  0  0  0  0
    5.1389   -0.4277   -2.4981 H   0  0  0  0  0  0  0  0  0  0  0  0
    4.6757   -0.8536   -4.1634 H   0  0  0  0  0  0  0  0  0  0  0  0
    5.4049   -2.9459   -3.0631 H   0  0  0  0  0  0  0  0  0  0  0  0
    5.5694   -1.6933   -0.7925 H   0  0  0  0  0  0  0  0  0  0  0  0
    6.0580   -3.3867   -0.7761 H   0  0  0  0  0  0  0  0  0  0  0  0
    3.3397   -2.2535    0.0976 H   0  0  0  0  0  0  0  0  0  0  0  0
    4.5895   -2.9274    1.1751 H   0  0  0  0  0  0  0  0  0  0  0  0
    6.1637   -7.2332    0.9637 H   0  0  0  0  0  0  0  0  0  0  0  0
    6.0382   -7.9095   -0.6903 H   0  0  0  0  0  0  0  0  0  0  0  0
    4.5711   -8.8836    1.8264 H   0  0  0  0  0  0  0  0  0  0  0  0
    5.8276   -9.7229    0.8797 H   0  0  0  0  0  0  0  0  0  0  0  0
    4.9025  -11.4065    1.7445 H   0  0  0  0  0  0  0  0  0  0  0  0
    4.4830  -13.8186    1.7459 H   0  0  0  0  0  0  0  0  0  0  0  0
    3.0018  -14.8635    0.0227 H   0  0  0  0  0  0  0  0  0  0  0  0
    2.4376  -11.0031   -1.7926 H   0  0  0  0  0  0  0  0  0  0  0  0
    2.2889   -8.5114    0.5689 H   0  0  0  0  0  0  0  0  0  0  0  0
    2.1883   -9.1208   -1.0933 H   0  0  0  0  0  0  0  0  0  0  0  0
    2.5314   -6.6567   -1.0049 H   0  0  0  0  0  0  0  0  0  0  0  0
    3.7954   -7.5106   -1.9134 H   0  0  0  0  0  0  0  0  0  0  0  0
    1.4434   -3.7828    0.4540 H   0  0  0  0  0  0  0  0  0  0  0  0
    1.6228   -3.7326    2.9552 H   0  0  0  0  0  0  0  0  0  0  0  0
    3.2753   -4.5361    2.8613 H   0  0  0  0  0  0  0  0  0  0  0  0
    0.6230   -5.7566    1.7243 H   0  0  0  0  0  0  0  0  0  0  0  0
    2.2916   -6.5188    1.7066 H   0  0  0  0  0  0  0  0  0  0  0  0
    3.5242   -4.6036   -3.2728 H   0  0  0  0  0  0  0  0  0  0  0  0
    4.8506   -5.0556   -2.1897 H   0  0  0  0  0  0  0  0  0  0  0  0
    1.9561   -3.0716   -3.0674 H   0  0  0  0  0  0  0  0  0  0  0  0
    2.8257   -2.4761   -4.5183 H   0  0  0  0  0  0  0  0  0  0  0  0
    1.0077   -0.9340   -2.5852 H   0  0  0  0  0  0  0  0  0  0  0  0
    0.7313   -1.3268   -4.2884 H   0  0  0  0  0  0  0  0  0  0  0  0
    2.8204    2.8255   -4.2361 H   0  0  0  0  0  0  0  0  0  0  0  0
    1.6393    4.4949   -5.5968 H   0  0  0  0  0  0  0  0  0  0  0  0
   -1.8872    3.1233   -7.5963 H   0  0  0  0  0  0  0  0  0  0  0  0
   -0.1750   -0.1091   -5.4021 H   0  0  0  0  0  0  0  0  0  0  0  0
  1  2  1  0
  1 45  1  0
  1 46  1  0
  1 47  1  0
  2  3  1  0
  2 34  1  0
  2 48  1  6
  3  4  1  0
  3 49  1  0
  3 50  1  0
  4  5  1  0
  4 32  1  0
  5  6  1  0
  5 31  1  0
  5 51  1  6
  6  7  1  0
  6 52  1  0
  6 53  1  0
  7  8  1  0
  7 54  1  0
  7 55  1  0
  8  9  1  1
  8 27  1  0
  8 30  1  0
  9 10  2  0
  9 11  1  0
 11 12  1  0
 11 26  1  0
 12 13  1  0
 12 56  1  0
 12 57  1  0
 13 14  1  0
 13 58  1  0
 13 59  1  0
 14 15  1  0
 14 25  1  0
 15 16  2  0
 15 24  1  0
 16 17  1  0
 16 60  1  0
 17 18  2  0
 17 61  1  0
 18 19  1  0
 18 62  1  0
 19 20  1  0
 19 24  2  0
 20 21  1  6
 20 22  1  0
 20 23  1  0
 24 63  1  0
 25 26  1  0
 25 64  1  0
 25 65  1  0
 26 66  1  0
 26 67  1  0
 27 28  1  0
 27 29  1  0
 27 68  1  6
 28 29  1  0
 28 69  1  0
 28 70  1  0
 29 71  1  0
 29 72  1  0
 30 31  1  0
 31 73  1  0
 31 74  1  0
 32 33  1  0
 32 75  1  0
 32 76  1  0
 33 34  1  0
 33 77  1  0
 33 78  1  0
 34 35  1  0
 35 36  2  0
 35 44  1  0
 36 37  1  0
 36 79  1  0
 37 38  2  0
 37 80  1  0
 38 39  1  0
 38 40  1  0
 40 41  1  0
 40 44  2  0
 41 42  2  0
 41 43  1  0
 43 81  1  0
 44 82  1  0
M  END

