
     RDKit          3D

 67 73  0  0  0  0  0  0  0  0999 V2000
    3.2717   -0.5570    0.9221 C   0  0  0  0  0  0  0  0  0  0  0  0
    2.6033   -0.0080   -0.3403 C   0  0  0  0  0  0  0  0  0  0  0  0
    3.0110    1.3447   -0.6806 N   0  0  0  0  0  0  0  0  0  0  0  0
    4.1167    1.6847   -1.4588 C   0  0  0  0  0  0  0  0  0  0  0  0
    5.0334    0.8520   -2.1134 C   0  0  0  0  0  0  0  0  0  0  0  0
    6.0542    1.4583   -2.8474 C   0  0  0  0  0  0  0  0  0  0  0  0
    6.1677    2.8588   -2.9291 C   0  0  0  0  0  0  0  0  0  0  0  0
    5.2557    3.6850   -2.2729 C   0  0  0  0  0  0  0  0  0  0  0  0
    4.2210    3.1012   -1.5293 C   0  0  0  0  0  0  0  0  0  0  0  0
    3.1249    3.6323   -0.7408 C   0  0  0  0  0  0  0  0  0  0  0  0
    2.6977    4.9234   -0.4322 C   0  0  0  0  0  0  0  0  0  0  0  0
    1.5628    5.1030    0.3850 C   0  0  0  0  0  0  0  0  0  0  0  0
    1.1158    6.4155    0.7092 C   0  0  0  0  0  0  0  0  0  0  0  0
    0.7467    7.5476    0.9768 C   0  0  0  0  0  0  0  0  0  0  0  0
    0.3047    8.8661    1.2964 C   0  0  0  0  0  0  0  0  0  0  0  0
   -0.8234    9.0751    2.1104 C   0  0  0  0  0  0  0  0  0  0  0  0
   -1.2007   10.4026    2.3828 C   0  0  0  0  0  0  0  0  0  0  0  0
   -2.3339   10.6919    3.2003 C   0  0  0  0  0  0  0  0  0  0  0  0
   -3.3048   10.9282    3.9009 C   0  0  0  0  0  0  0  0  0  0  0  0
   -4.4344   11.2254    4.7154 C   0  0  0  0  0  0  0  0  0  0  0  0
   -5.2072   10.1744    5.2812 C   0  0  0  0  0  0  0  0  0  0  0  0
   -6.3135   10.4313    6.0815 C   0  0  0  0  0  0  0  0  0  0  0  0
   -6.6622   11.7699    6.3218 C   0  0  0  0  0  0  0  0  0  0  0  0
   -5.9000   12.8419    5.7686 C   0  0  0  0  0  0  0  0  0  0  0  0
   -4.7922   12.5657    4.9680 C   0  0  0  0  0  0  0  0  0  0  0  0
   -6.5295   14.0690    6.2194 C   0  0  0  0  0  0  0  0  0  0  0  0
   -6.2608   15.4300    6.0190 C   0  0  0  0  0  0  0  0  0  0  0  0
   -7.0900   16.3792    6.6159 C   0  0  0  0  0  0  0  0  0  0  0  0
   -8.1816   15.9798    7.4096 C   0  0  0  0  0  0  0  0  0  0  0  0
   -8.4706   14.6313    7.6251 C   0  0  0  0  0  0  0  0  0  0  0  0
   -7.6382   13.6805    7.0207 C   0  0  0  0  0  0  0  0  0  0  0  0
   -7.7089   12.2888    7.0614 N   0  0  0  0  0  0  0  0  0  0  0  0
   -8.6805   11.5156    7.8165 C   0  0  0  0  0  0  0  0  0  0  0  0
   -8.2569   11.2281    9.2587 C   0  0  0  0  0  0  0  0  0  0  0  0
   -0.4988   11.4382    1.8763 N   0  0  0  0  0  0  0  0  0  0  0  0
    0.5507   11.1222    1.1192 C   0  0  0  0  0  0  0  0  0  0  0  0
    1.3040   12.2445    0.5758 C   0  0  0  0  0  0  0  0  0  0  0  0
    1.9033   13.1372    0.1436 N   0  0  0  0  0  0  0  0  0  0  0  0
    0.9985    9.9100    0.7959 N   0  0  0  0  0  0  0  0  0  0  0  0
    0.8704    3.9656    0.8838 C   0  0  0  0  0  0  0  0  0  0  0  0
    1.2822    2.6722    0.5869 C   0  0  0  0  0  0  0  0  0  0  0  0
    2.4110    2.5066   -0.2315 C   0  0  0  0  0  0  0  0  0  0  0  0
    2.9246   -1.5832    1.1223 H   0  0  0  0  0  0  0  0  0  0  0  0
    3.0323    0.0630    1.7999 H   0  0  0  0  0  0  0  0  0  0  0  0
    4.3669   -0.5813    0.8126 H   0  0  0  0  0  0  0  0  0  0  0  0
    1.5075   -0.0134   -0.2293 H   0  0  0  0  0  0  0  0  0  0  0  0
    2.8238   -0.6543   -1.2045 H   0  0  0  0  0  0  0  0  0  0  0  0
    4.9628   -0.2359   -2.0557 H   0  0  0  0  0  0  0  0  0  0  0  0
    6.7815    0.8295   -3.3673 H   0  0  0  0  0  0  0  0  0  0  0  0
    6.9797    3.3004   -3.5114 H   0  0  0  0  0  0  0  0  0  0  0  0
    5.3469    4.7721   -2.3373 H   0  0  0  0  0  0  0  0  0  0  0  0
    3.2293    5.7975   -0.8134 H   0  0  0  0  0  0  0  0  0  0  0  0
   -1.3870    8.2355    2.5168 H   0  0  0  0  0  0  0  0  0  0  0  0
   -4.9153    9.1421    5.0786 H   0  0  0  0  0  0  0  0  0  0  0  0
   -6.8856    9.6056    6.5084 H   0  0  0  0  0  0  0  0  0  0  0  0
   -4.1972   13.3717    4.5342 H   0  0  0  0  0  0  0  0  0  0  0  0
   -5.4133   15.7429    5.4041 H   0  0  0  0  0  0  0  0  0  0  0  0
   -6.8916   17.4433    6.4689 H   0  0  0  0  0  0  0  0  0  0  0  0
   -8.8170   16.7404    7.8704 H   0  0  0  0  0  0  0  0  0  0  0  0
   -9.3178   14.3384    8.2481 H   0  0  0  0  0  0  0  0  0  0  0  0
   -8.8605   10.5747    7.2731 H   0  0  0  0  0  0  0  0  0  0  0  0
   -9.6356   12.0640    7.7981 H   0  0  0  0  0  0  0  0  0  0  0  0
   -7.3186   10.6529    9.2896 H   0  0  0  0  0  0  0  0  0  0  0  0
   -9.0345   10.6433    9.7755 H   0  0  0  0  0  0  0  0  0  0  0  0
   -8.1009   12.1620    9.8203 H   0  0  0  0  0  0  0  0  0  0  0  0
   -0.0047    4.1215    1.5176 H   0  0  0  0  0  0  0  0  0  0  0  0
    0.7358    1.8167    0.9879 H   0  0  0  0  0  0  0  0  0  0  0  0
  1  2  1  0
  1 43  1  0
  1 44  1  0
  1 45  1  0
  2  3  1  0
  2 46  1  0
  2 47  1  0
  3  4  1  0
  3 42  1  0
  4  5  2  0
  4  9  1  0
  5  6  1  0
  5 48  1  0
  6  7  2  0
  6 49  1  0
  7  8  1  0
  7 50  1  0
  8  9  2  0
  8 51  1  0
  9 10  1  0
 10 11  1  0
 10 42  2  0
 11 12  2  0
 11 52  1  0
 12 13  1  0
 12 40  1  0
 13 14  3  0
 14 15  1  0
 15 16  2  0
 15 39  1  0
 16 17  1  0
 16 53  1  0
 17 18  1  0
 17 35  2  0
 18 19  3  0
 19 20  1  0
 20 21  2  0
 20 25  1  0
 21 22  1  0
 21 54  1  0
 22 23  2  0
 22 55  1  0
 23 24  1  0
 23 32  1  0
 24 25  2  0
 24 26  1  0
 25 56  1  0
 26 27  2  0
 26 31  1  0
 27 28  1  0
 27 57  1  0
 28 29  2  0
 28 58  1  0
 29 30  1  0
 29 59  1  0
 30 31  2  0
 30 60  1  0
 31 32  1  0
 32 33  1  0
 33 34  1  0
 33 61  1  0
 33 62  1  0
 34 63  1  0
 34 64  1  0
 34 65  1  0
 35 36  1  0
 36 37  1  0
 36 39  2  0
 37 38  3  0
 40 41  2  0
 40 66  1  0
 41 42  1  0
 41 67  1  0
M  END

