
     RDKit          3D

 64 66  0  0  0  0  0  0  0  0999 V2000
    4.2929    1.3792   -2.1484 C   0  0  0  0  0  0  0  0  0  0  0  0
    3.8491    0.1482   -1.3613 C   0  0  0  0  0  0  0  0  0  0  0  0
    4.8999   -0.4466   -0.5346 N   0  0  0  0  0  0  0  0  0  0  0  0
    5.4356    0.4186    0.5195 C   0  0  0  0  0  0  0  0  0  0  0  0
    4.4700    0.8227    1.6432 C   0  0  0  0  0  0  0  0  0  0  0  0
    4.5793   -1.8032   -0.0902 C   0  0  0  0  0  0  0  0  0  0  0  0
    4.8132   -2.8462   -1.1888 C   0  0  0  0  0  0  0  0  0  0  0  0
    6.1517   -2.7230   -1.7248 N   0  0  0  0  0  0  0  0  0  0  0  0
    6.9742   -3.7908   -1.9308 C   0  0  0  0  0  0  0  0  0  0  0  0
    6.6310   -4.9442   -1.7021 O   0  0  0  0  0  0  0  0  0  0  0  0
    8.3527   -3.4795   -2.4557 C   0  0  0  0  0  0  0  0  0  0  0  0
    8.7241   -2.2596   -3.0398 C   0  0  0  0  0  0  0  0  0  0  0  0
   10.0160   -2.0378   -3.5194 C   0  0  0  0  0  0  0  0  0  0  0  0
   10.9754   -3.0604   -3.4198 C   0  0  0  0  0  0  0  0  0  0  0  0
   12.3017   -2.9250   -3.8748 N   0  0  0  0  0  0  0  0  0  0  0  0
   12.9129   -1.8435   -4.4614 C   0  0  0  0  0  0  0  0  0  0  0  0
   12.3663   -0.7759   -4.6758 O   0  0  0  0  0  0  0  0  0  0  0  0
   14.3687   -2.0816   -4.8685 C   0  0  1  0  0  0  0  0  0  0  0  0
   14.5612   -2.0636   -6.4002 C   0  0  0  0  0  0  0  0  0  0  0  0
   16.0511   -1.7553   -6.5706 C   0  0  0  0  0  0  0  0  0  0  0  0
   16.3761   -0.9532   -5.3960 N   0  0  0  0  0  0  0  0  0  0  0  0
   17.5731   -0.3126   -5.2499 C   0  0  0  0  0  0  0  0  0  0  0  0
   17.8053    0.5420   -4.1046 C   0  0  0  0  0  0  0  0  0  0  0  0
   18.9234    1.1800   -3.9084 N   0  0  0  0  0  0  0  0  0  0  0  0
   19.9094    1.0573   -4.7842 N   0  0  0  0  0  0  0  0  0  0  0  0
   21.1375    1.7934   -4.5138 C   0  0  0  0  0  0  0  0  0  0  0  0
   19.8618    0.2691   -5.9679 C   0  0  0  0  0  0  0  0  0  0  0  0
   20.8404    0.2347   -6.7028 O   0  0  0  0  0  0  0  0  0  0  0  0
   18.6132   -0.4242   -6.1586 C   0  0  0  0  0  0  0  0  0  0  0  0
   15.3003   -0.9469   -4.4060 C   0  0  0  0  0  0  0  0  0  0  0  0
   10.6076   -4.2924   -2.8457 C   0  0  0  0  0  0  0  0  0  0  0  0
    9.3154   -4.4980   -2.3787 C   0  0  0  0  0  0  0  0  0  0  0  0
    3.4922    1.6971   -2.8344 H   0  0  0  0  0  0  0  0  0  0  0  0
    5.1912    1.1586   -2.7472 H   0  0  0  0  0  0  0  0  0  0  0  0
    4.5222    2.2371   -1.4974 H   0  0  0  0  0  0  0  0  0  0  0  0
    3.5213   -0.6204   -2.0789 H   0  0  0  0  0  0  0  0  0  0  0  0
    2.9450    0.3978   -0.7619 H   0  0  0  0  0  0  0  0  0  0  0  0
    5.8429    1.3271    0.0472 H   0  0  0  0  0  0  0  0  0  0  0  0
    6.3040   -0.1014    0.9580 H   0  0  0  0  0  0  0  0  0  0  0  0
    3.6163    1.4092    1.2677 H   0  0  0  0  0  0  0  0  0  0  0  0
    4.9941    1.4453    2.3862 H   0  0  0  0  0  0  0  0  0  0  0  0
    4.0671   -0.0557    2.1730 H   0  0  0  0  0  0  0  0  0  0  0  0
    3.5355   -1.8996    0.2790 H   0  0  0  0  0  0  0  0  0  0  0  0
    5.2390   -2.0476    0.7575 H   0  0  0  0  0  0  0  0  0  0  0  0
    4.0608   -2.7386   -1.9929 H   0  0  0  0  0  0  0  0  0  0  0  0
    4.6993   -3.8630   -0.7862 H   0  0  0  0  0  0  0  0  0  0  0  0
    6.4993   -1.7719   -1.7894 H   0  0  0  0  0  0  0  0  0  0  0  0
    7.9940   -1.4549   -3.1564 H   0  0  0  0  0  0  0  0  0  0  0  0
   10.2900   -1.0890   -3.9739 H   0  0  0  0  0  0  0  0  0  0  0  0
   12.8795   -3.7482   -3.7510 H   0  0  0  0  0  0  0  0  0  0  0  0
   14.7375   -3.0407   -4.4665 H   0  0  0  0  0  0  0  0  0  0  0  0
   13.9486   -1.2503   -6.8197 H   0  0  0  0  0  0  0  0  0  0  0  0
   14.2608   -3.0047   -6.8832 H   0  0  0  0  0  0  0  0  0  0  0  0
   16.2570   -1.1986   -7.5003 H   0  0  0  0  0  0  0  0  0  0  0  0
   16.6637   -2.6778   -6.6032 H   0  0  0  0  0  0  0  0  0  0  0  0
   17.0367    0.7046   -3.3468 H   0  0  0  0  0  0  0  0  0  0  0  0
   20.9927    2.3457   -3.5788 H   0  0  0  0  0  0  0  0  0  0  0  0
   21.3584    2.4829   -5.3422 H   0  0  0  0  0  0  0  0  0  0  0  0
   21.9871    1.0995   -4.4270 H   0  0  0  0  0  0  0  0  0  0  0  0
   18.5519   -1.0411   -7.0539 H   0  0  0  0  0  0  0  0  0  0  0  0
   14.7449    0.0082   -4.4016 H   0  0  0  0  0  0  0  0  0  0  0  0
   15.6855   -1.1259   -3.3890 H   0  0  0  0  0  0  0  0  0  0  0  0
   11.3458   -5.0971   -2.7704 H   0  0  0  0  0  0  0  0  0  0  0  0
    9.0180   -5.4545   -1.9453 H   0  0  0  0  0  0  0  0  0  0  0  0
  1  2  1  0
  1 33  1  0
  1 34  1  0
  1 35  1  0
  2  3  1  0
  2 36  1  0
  2 37  1  0
  3  4  1  0
  3  6  1  0
  4  5  1  0
  4 38  1  0
  4 39  1  0
  5 40  1  0
  5 41  1  0
  5 42  1  0
  6  7  1  0
  6 43  1  0
  6 44  1  0
  7  8  1  0
  7 45  1  0
  7 46  1  0
  8  9  1  0
  8 47  1  0
  9 10  2  0
  9 11  1  0
 11 12  2  0
 11 32  1  0
 12 13  1  0
 12 48  1  0
 13 14  2  0
 13 49  1  0
 14 15  1  0
 14 31  1  0
 15 16  1  0
 15 50  1  0
 16 17  2  0
 16 18  1  0
 18 19  1  0
 18 30  1  0
 18 51  1  1
 19 20  1  0
 19 52  1  0
 19 53  1  0
 20 21  1  0
 20 54  1  0
 20 55  1  0
 21 22  1  0
 21 30  1  0
 22 23  1  0
 22 29  2  0
 23 24  2  0
 23 56  1  0
 24 25  1  0
 25 26  1  0
 25 27  1  0
 26 57  1  0
 26 58  1  0
 26 59  1  0
 27 28  2  0
 27 29  1  0
 29 60  1  0
 30 61  1  0
 30 62  1  0
 31 32  2  0
 31 63  1  0
 32 64  1  0
M  END

