
     RDKit          3D

 49 52  0  0  0  0  0  0  0  0999 V2000
    2.8101    0.4947   -0.1934 C   0  0  0  0  0  0  0  0  0  0  0  0
    4.0218   -0.4416   -0.3606 C   0  0  1  0  0  0  0  0  0  0  0  0
    4.6431   -0.2285   -1.7740 C   0  0  0  0  0  0  0  0  0  0  0  0
    5.6617    0.4356   -1.8900 O   0  0  0  0  0  0  0  0  0  0  0  0
    3.9739   -0.6934   -2.9010 N   0  0  0  0  0  0  0  0  0  0  0  0
    4.2840   -0.0535   -4.1864 C   0  0  0  0  0  0  0  0  0  0  0  0
    3.1047    0.8338   -4.5862 C   0  0  0  0  0  0  0  0  0  0  0  0
    1.8186    0.0034   -4.7168 C   0  0  0  0  0  0  0  0  0  0  0  0
    1.7473   -1.1881   -3.7762 C   0  0  0  0  0  0  0  0  0  0  0  0
    0.6210   -2.0250   -3.7985 C   0  0  0  0  0  0  0  0  0  0  0  0
    0.5475   -3.1793   -3.0200 C   0  0  0  0  0  0  0  0  0  0  0  0
    1.6397   -3.5406   -2.2247 C   0  0  0  0  0  0  0  0  0  0  0  0
    2.7741   -2.7321   -2.1955 C   0  0  0  0  0  0  0  0  0  0  0  0
    2.8217   -1.5293   -2.9238 C   0  0  0  0  0  0  0  0  0  0  0  0
    4.9891   -0.2835    0.6958 N   0  0  0  0  0  0  0  0  0  0  0  0
    5.5931    0.9965    1.0767 C   0  0  2  0  0  0  0  0  0  0  0  0
    7.1124    0.7438    0.9264 C   0  0  0  0  0  0  0  0  0  0  0  0
    7.2961   -0.7782    1.1387 C   0  0  0  0  0  0  0  0  0  0  0  0
    5.8664   -1.3972    1.0745 C   0  0  1  0  0  0  0  0  0  0  0  0
    5.3710   -2.0347    2.4213 C   0  0  0  0  0  0  0  0  0  0  0  0
    4.6338   -0.9112    3.1507 C   0  0  0  0  0  0  0  0  0  0  0  0
    3.4398   -0.9190    3.3468 O   0  0  0  0  0  0  0  0  0  0  0  0
    5.4340    0.2188    3.4243 N   0  0  0  0  0  0  0  0  0  0  0  0
    5.1798    1.3571    2.5305 C   0  0  0  0  0  0  0  0  0  0  0  0
    2.0318    0.2703   -0.9376 H   0  0  0  0  0  0  0  0  0  0  0  0
    3.0968    1.5510   -0.3106 H   0  0  0  0  0  0  0  0  0  0  0  0
    2.3851    0.3539    0.8110 H   0  0  0  0  0  0  0  0  0  0  0  0
    3.6323   -1.4627   -0.2771 H   0  0  0  0  0  0  0  0  0  0  0  0
    4.4662   -0.8357   -4.9436 H   0  0  0  0  0  0  0  0  0  0  0  0
    5.2069    0.5213   -4.0533 H   0  0  0  0  0  0  0  0  0  0  0  0
    3.3191    1.3571   -5.5320 H   0  0  0  0  0  0  0  0  0  0  0  0
    2.9871    1.6123   -3.8139 H   0  0  0  0  0  0  0  0  0  0  0  0
    1.7381   -0.3881   -5.7469 H   0  0  0  0  0  0  0  0  0  0  0  0
    0.9313    0.6436   -4.5772 H   0  0  0  0  0  0  0  0  0  0  0  0
   -0.2157   -1.7592   -4.4518 H   0  0  0  0  0  0  0  0  0  0  0  0
   -0.3457   -3.8075   -3.0516 H   0  0  0  0  0  0  0  0  0  0  0  0
    1.6182   -4.4643   -1.6415 H   0  0  0  0  0  0  0  0  0  0  0  0
    3.6476   -3.0440   -1.6215 H   0  0  0  0  0  0  0  0  0  0  0  0
    5.2694    1.7969    0.3953 H   0  0  0  0  0  0  0  0  0  0  0  0
    7.7166    1.3487    1.6225 H   0  0  0  0  0  0  0  0  0  0  0  0
    7.4024    1.0137   -0.0966 H   0  0  0  0  0  0  0  0  0  0  0  0
    7.7941   -1.0130    2.0936 H   0  0  0  0  0  0  0  0  0  0  0  0
    7.9308   -1.2098    0.3507 H   0  0  0  0  0  0  0  0  0  0  0  0
    5.8334   -2.1773    0.2959 H   0  0  0  0  0  0  0  0  0  0  0  0
    6.2109   -2.4488    3.0056 H   0  0  0  0  0  0  0  0  0  0  0  0
    4.6497   -2.8441    2.2420 H   0  0  0  0  0  0  0  0  0  0  0  0
    6.4228   -0.0177    3.4159 H   0  0  0  0  0  0  0  0  0  0  0  0
    5.7297    2.2421    2.8920 H   0  0  0  0  0  0  0  0  0  0  0  0
    4.1059    1.5873    2.5764 H   0  0  0  0  0  0  0  0  0  0  0  0
  1  2  1  0
  1 25  1  0
  1 26  1  0
  1 27  1  0
  2  3  1  0
  2 15  1  0
  2 28  1  6
  3  4  2  0
  3  5  1  0
  5  6  1  0
  5 14  1  0
  6  7  1  0
  6 29  1  0
  6 30  1  0
  7  8  1  0
  7 31  1  0
  7 32  1  0
  8  9  1  0
  8 33  1  0
  8 34  1  0
  9 10  2  0
  9 14  1  0
 10 11  1  0
 10 35  1  0
 11 12  2  0
 11 36  1  0
 12 13  1  0
 12 37  1  0
 13 14  2  0
 13 38  1  0
 15 16  1  0
 15 19  1  0
 16 17  1  0
 16 24  1  0
 16 39  1  6
 17 18  1  0
 17 40  1  0
 17 41  1  0
 18 19  1  0
 18 42  1  0
 18 43  1  0
 19 20  1  0
 19 44  1  6
 20 21  1  0
 20 45  1  0
 20 46  1  0
 21 22  2  0
 21 23  1  0
 23 24  1  0
 23 47  1  0
 24 48  1  0
 24 49  1  0
M  END

