
     RDKit          3D

 38 40  0  0  0  0  0  0  0  0999 V2000
    2.4916   10.2794   -3.9830 C   0  0  0  0  0  0  0  0  0  0  0  0
    2.3861    9.7590   -2.6788 O   0  0  0  0  0  0  0  0  0  0  0  0
    2.9365    8.5477   -2.4000 C   0  0  0  0  0  0  0  0  0  0  0  0
    3.6247    7.7522   -3.3295 C   0  0  0  0  0  0  0  0  0  0  0  0
    4.1524    6.5188   -2.9327 C   0  0  0  0  0  0  0  0  0  0  0  0
    4.0158    6.0500   -1.6210 C   0  0  0  0  0  0  0  0  0  0  0  0
    4.5502    4.6867   -1.2197 C   0  0  0  0  0  0  0  0  0  0  0  0
    5.8318    4.3718   -1.8091 N   0  0  0  0  0  0  0  0  0  0  0  0
    6.9715    5.1882   -1.3860 C   0  0  0  0  0  0  0  0  0  0  0  0
    8.1562    4.3238   -1.7375 C   0  0  0  0  0  0  0  0  0  0  0  0
    9.5105    4.6475   -1.8159 C   0  0  0  0  0  0  0  0  0  0  0  0
   10.4176    3.6322   -2.1398 C   0  0  0  0  0  0  0  0  0  0  0  0
    9.9732    2.3254   -2.3742 C   0  0  0  0  0  0  0  0  0  0  0  0
    8.6118    1.9861   -2.2950 C   0  0  0  0  0  0  0  0  0  0  0  0
    8.1281    0.5789   -2.5415 C   0  0  0  0  0  0  0  0  0  0  0  0
    7.7170    3.0168   -1.9755 C   0  0  0  0  0  0  0  0  0  0  0  0
    6.2201    2.9617   -1.8023 C   0  0  0  0  0  0  0  0  0  0  0  0
    3.3323    6.8625   -0.7018 C   0  0  0  0  0  0  0  0  0  0  0  0
    2.7956    8.0905   -1.0791 C   0  0  0  0  0  0  0  0  0  0  0  0
    1.9805   11.2518   -3.9758 H   0  0  0  0  0  0  0  0  0  0  0  0
    2.0039    9.6263   -4.7298 H   0  0  0  0  0  0  0  0  0  0  0  0
    3.5444   10.4327   -4.2835 H   0  0  0  0  0  0  0  0  0  0  0  0
    3.7570    8.0809   -4.3608 H   0  0  0  0  0  0  0  0  0  0  0  0
    4.6957    5.9040   -3.6548 H   0  0  0  0  0  0  0  0  0  0  0  0
    3.8357    3.9110   -1.5517 H   0  0  0  0  0  0  0  0  0  0  0  0
    4.5725    4.6211   -0.1055 H   0  0  0  0  0  0  0  0  0  0  0  0
    6.9585    5.3980   -0.2890 H   0  0  0  0  0  0  0  0  0  0  0  0
    6.9765    6.1692   -1.8915 H   0  0  0  0  0  0  0  0  0  0  0  0
    9.8589    5.6675   -1.6330 H   0  0  0  0  0  0  0  0  0  0  0  0
   11.4845    3.8589   -2.2136 H   0  0  0  0  0  0  0  0  0  0  0  0
   10.7005    1.5485   -2.6272 H   0  0  0  0  0  0  0  0  0  0  0  0
    8.9595   -0.0962   -2.7922 H   0  0  0  0  0  0  0  0  0  0  0  0
    7.4016    0.5414   -3.3713 H   0  0  0  0  0  0  0  0  0  0  0  0
    7.6166    0.1668   -1.6546 H   0  0  0  0  0  0  0  0  0  0  0  0
    5.9635    2.4460   -0.8445 H   0  0  0  0  0  0  0  0  0  0  0  0
    5.7034    2.4020   -2.6038 H   0  0  0  0  0  0  0  0  0  0  0  0
    3.2190    6.5273    0.3338 H   0  0  0  0  0  0  0  0  0  0  0  0
    2.2652    8.7236   -0.3647 H   0  0  0  0  0  0  0  0  0  0  0  0
  1  2  1  0
  1 20  1  0
  1 21  1  0
  1 22  1  0
  2  3  1  0
  3  4  2  0
  3 19  1  0
  4  5  1  0
  4 23  1  0
  5  6  2  0
  5 24  1  0
  6  7  1  0
  6 18  1  0
  7  8  1  0
  7 25  1  0
  7 26  1  0
  8  9  1  0
  8 17  1  0
  9 10  1  0
  9 27  1  0
  9 28  1  0
 10 11  1  0
 10 16  2  0
 11 12  2  0
 11 29  1  0
 12 13  1  0
 12 30  1  0
 13 14  2  0
 13 31  1  0
 14 15  1  0
 14 16  1  0
 15 32  1  0
 15 33  1  0
 15 34  1  0
 16 17  1  0
 17 35  1  0
 17 36  1  0
 18 19  2  0
 18 37  1  0
 19 38  1  0
M  END

