
     RDKit          3D

 42 43  0  0  0  0  0  0  0  0999 V2000
    3.5613   -0.9854   -0.2563 C   0  0  0  0  0  0  0  0  0  0  0  0
    2.9305   -1.5401   -1.5387 C   0  0  1  0  0  0  0  0  0  0  0  0
    3.6006   -2.7387   -1.9250 O   0  0  0  0  0  0  0  0  0  0  0  0
    1.4203   -1.8040   -1.3810 C   0  0  0  0  0  0  0  0  0  0  0  0
    0.6029   -0.5092   -1.3356 C   0  0  0  0  0  0  0  0  0  0  0  0
    0.9532    0.4054   -2.5103 C   0  0  0  0  0  0  0  0  0  0  0  0
    2.3909    0.6577   -2.5766 N   0  0  0  0  0  0  0  0  0  0  0  0
    2.7610    1.6564   -3.5722 C   0  0  0  0  0  0  0  0  0  0  0  0
    2.3296    3.0879   -3.2291 C   0  0  0  0  0  0  0  0  0  0  0  0
    2.8292    3.5826   -1.8477 C   0  0  1  0  0  0  0  0  0  0  0  0
    4.2800    3.5006   -1.6888 N   0  0  0  0  0  0  0  0  0  0  0  0
    2.3142    4.9935   -1.5696 C   0  0  0  0  0  0  0  0  0  0  0  0
    3.1660    6.1043   -1.6786 C   0  0  0  0  0  0  0  0  0  0  0  0
    2.7132    7.4083   -1.4698 C   0  0  0  0  0  0  0  0  0  0  0  0
    1.3783    7.6367   -1.1279 C   0  0  0  0  0  0  0  0  0  0  0  0
    0.5088    6.5540   -0.9882 C   0  0  0  0  0  0  0  0  0  0  0  0
    0.9811    5.2568   -1.2075 C   0  0  0  0  0  0  0  0  0  0  0  0
   -0.1656    3.9357   -0.9710 Cl  0  0  0  0  0  0  0  0  0  0  0  0
    3.1408   -0.5831   -2.7248 C   0  0  0  0  0  0  0  0  0  0  0  0
    3.3885   -1.6707    0.5914 H   0  0  0  0  0  0  0  0  0  0  0  0
    3.1474   -0.0024    0.0094 H   0  0  0  0  0  0  0  0  0  0  0  0
    4.6489   -0.8797   -0.3927 H   0  0  0  0  0  0  0  0  0  0  0  0
    3.5112   -3.3747   -1.2029 H   0  0  0  0  0  0  0  0  0  0  0  0
    1.2361   -2.4182   -0.4811 H   0  0  0  0  0  0  0  0  0  0  0  0
    1.1100   -2.4087   -2.2504 H   0  0  0  0  0  0  0  0  0  0  0  0
    0.7875    0.0312   -0.3921 H   0  0  0  0  0  0  0  0  0  0  0  0
   -0.4751   -0.7390   -1.3611 H   0  0  0  0  0  0  0  0  0  0  0  0
    0.4230    1.3616   -2.4002 H   0  0  0  0  0  0  0  0  0  0  0  0
    0.5930   -0.0579   -3.4609 H   0  0  0  0  0  0  0  0  0  0  0  0
    2.3641    1.3959   -4.5811 H   0  0  0  0  0  0  0  0  0  0  0  0
    3.8589    1.6320   -3.6646 H   0  0  0  0  0  0  0  0  0  0  0  0
    1.2350    3.1878   -3.2817 H   0  0  0  0  0  0  0  0  0  0  0  0
    2.7292    3.7593   -4.0108 H   0  0  0  0  0  0  0  0  0  0  0  0
    2.3892    2.9192   -1.0878 H   0  0  0  0  0  0  0  0  0  0  0  0
    4.7625    3.7222   -2.5608 H   0  0  0  0  0  0  0  0  0  0  0  0
    4.5492    2.5504   -1.4430 H   0  0  0  0  0  0  0  0  0  0  0  0
    4.2180    5.9230   -1.9039 H   0  0  0  0  0  0  0  0  0  0  0  0
    3.4080    8.2464   -1.5654 H   0  0  0  0  0  0  0  0  0  0  0  0
    1.0117    8.6520   -0.9577 H   0  0  0  0  0  0  0  0  0  0  0  0
   -0.5340    6.7021   -0.7029 H   0  0  0  0  0  0  0  0  0  0  0  0
    4.2152   -0.3536   -2.8071 H   0  0  0  0  0  0  0  0  0  0  0  0
    2.8596   -1.1359   -3.6503 H   0  0  0  0  0  0  0  0  0  0  0  0
  1  2  1  0
  1 20  1  0
  1 21  1  0
  1 22  1  0
  2  3  1  6
  2  4  1  0
  2 19  1  0
  3 23  1  0
  4  5  1  0
  4 24  1  0
  4 25  1  0
  5  6  1  0
  5 26  1  0
  5 27  1  0
  6  7  1  0
  6 28  1  0
  6 29  1  0
  7  8  1  0
  7 19  1  0
  8  9  1  0
  8 30  1  0
  8 31  1  0
  9 10  1  0
  9 32  1  0
  9 33  1  0
 10 11  1  0
 10 12  1  0
 10 34  1  1
 11 35  1  0
 11 36  1  0
 12 13  2  0
 12 17  1  0
 13 14  1  0
 13 37  1  0
 14 15  2  0
 14 38  1  0
 15 16  1  0
 15 39  1  0
 16 17  2  0
 16 40  1  0
 17 18  1  0
 19 41  1  0
 19 42  1  0
M  END

