
     RDKit          3D

 51 52  0  0  0  0  0  0  0  0999 V2000
    3.4528   -0.4872   -1.5070 C   0  0  0  0  0  0  0  0  0  0  0  0
    4.1621   -0.5935   -0.2875 O   0  0  0  0  0  0  0  0  0  0  0  0
    4.2165    0.4736    0.5555 C   0  0  0  0  0  0  0  0  0  0  0  0
    3.7296    1.7487    0.2537 C   0  0  0  0  0  0  0  0  0  0  0  0
    3.8441    2.7834    1.1869 C   0  0  0  0  0  0  0  0  0  0  0  0
    4.4453    2.5213    2.4154 C   0  0  0  0  0  0  0  0  0  0  0  0
    4.5839    3.8487    3.6150 S   0  0  1  0  0  0  0  0  0  0  0  0
    3.4814    4.7833    3.3583 O   0  0  0  0  0  0  0  0  0  0  0  0
    4.7915    3.2346    4.9302 O   0  0  0  0  0  0  0  0  0  0  0  0
    5.9786    4.6953    3.1673 N   0  0  0  0  0  0  0  0  0  0  0  0
    7.2228    4.5588    3.9569 C   0  0  1  0  0  0  0  0  0  0  0  0
    8.0188    3.3270    3.5240 C   0  0  0  0  0  0  0  0  0  0  0  0
    8.0297    5.8463    3.7814 C   0  0  0  0  0  0  0  0  0  0  0  0
    4.9170    1.2488    2.7515 C   0  0  0  0  0  0  0  0  0  0  0  0
    4.8138    0.2120    1.8181 C   0  0  0  0  0  0  0  0  0  0  0  0
    5.2527   -1.0984    2.0466 N   0  0  0  0  0  0  0  0  0  0  0  0
    5.9904   -1.5692    3.0993 C   0  0  0  0  0  0  0  0  0  0  0  0
    6.3896   -0.8964    4.0321 O   0  0  0  0  0  0  0  0  0  0  0  0
    6.2767   -3.0796    3.0720 C   0  0  0  0  0  0  0  0  0  0  0  0
    6.1995   -3.9407    1.4642 S   0  0  0  0  0  0  0  0  0  0  0  0
    7.7160   -3.2444    0.6646 C   0  0  0  0  0  0  0  0  0  0  0  0
    7.7492   -3.6170   -0.7950 C   0  0  0  0  0  0  0  0  0  0  0  0
    7.0437   -2.8541   -1.7402 C   0  0  0  0  0  0  0  0  0  0  0  0
    7.0664   -3.2075   -3.0905 C   0  0  0  0  0  0  0  0  0  0  0  0
    7.7837   -4.3268   -3.5226 C   0  0  0  0  0  0  0  0  0  0  0  0
    8.4776   -5.0879   -2.5787 C   0  0  0  0  0  0  0  0  0  0  0  0
    9.3820   -6.4922   -3.0974 Cl  0  0  0  0  0  0  0  0  0  0  0  0
    8.4643   -4.7440   -1.2241 C   0  0  0  0  0  0  0  0  0  0  0  0
    3.5009   -1.4762   -1.9808 H   0  0  0  0  0  0  0  0  0  0  0  0
    3.9108    0.2585   -2.1798 H   0  0  0  0  0  0  0  0  0  0  0  0
    2.3965   -0.2173   -1.3355 H   0  0  0  0  0  0  0  0  0  0  0  0
    3.2573    1.9457   -0.7085 H   0  0  0  0  0  0  0  0  0  0  0  0
    3.4562    3.7788    0.9673 H   0  0  0  0  0  0  0  0  0  0  0  0
    5.6815    5.6594    3.0200 H   0  0  0  0  0  0  0  0  0  0  0  0
    6.9635    4.4485    5.0245 H   0  0  0  0  0  0  0  0  0  0  0  0
    8.2912    3.3950    2.4583 H   0  0  0  0  0  0  0  0  0  0  0  0
    7.4473    2.4002    3.6761 H   0  0  0  0  0  0  0  0  0  0  0  0
    8.9427    3.2443    4.1184 H   0  0  0  0  0  0  0  0  0  0  0  0
    8.3011    6.0017    2.7241 H   0  0  0  0  0  0  0  0  0  0  0  0
    8.9595    5.7957    4.3679 H   0  0  0  0  0  0  0  0  0  0  0  0
    7.4628    6.7263    4.1280 H   0  0  0  0  0  0  0  0  0  0  0  0
    5.3486    1.0520    3.7301 H   0  0  0  0  0  0  0  0  0  0  0  0
    5.0202   -1.7776    1.3216 H   0  0  0  0  0  0  0  0  0  0  0  0
    5.5256   -3.5759    3.7088 H   0  0  0  0  0  0  0  0  0  0  0  0
    7.2517   -3.2300    3.5584 H   0  0  0  0  0  0  0  0  0  0  0  0
    8.5981   -3.6337    1.1947 H   0  0  0  0  0  0  0  0  0  0  0  0
    7.6923   -2.1508    0.7833 H   0  0  0  0  0  0  0  0  0  0  0  0
    6.4727   -1.9830   -1.4084 H   0  0  0  0  0  0  0  0  0  0  0  0
    6.5226   -2.6047   -3.8223 H   0  0  0  0  0  0  0  0  0  0  0  0
    7.8098   -4.6099   -4.5760 H   0  0  0  0  0  0  0  0  0  0  0  0
    9.0163   -5.3565   -0.5084 H   0  0  0  0  0  0  0  0  0  0  0  0
  1  2  1  0
  1 29  1  0
  1 30  1  0
  1 31  1  0
  2  3  1  0
  3  4  2  0
  3 15  1  0
  4  5  1  0
  4 32  1  0
  5  6  2  0
  5 33  1  0
  6  7  1  0
  6 14  1  0
  7  8  2  0
  7  9  2  0
  7 10  1  6
 10 11  1  0
 10 34  1  0
 11 12  1  0
 11 13  1  0
 11 35  1  1
 12 36  1  0
 12 37  1  0
 12 38  1  0
 13 39  1  0
 13 40  1  0
 13 41  1  0
 14 15  2  0
 14 42  1  0
 15 16  1  0
 16 17  1  0
 16 43  1  0
 17 18  2  0
 17 19  1  0
 19 20  1  0
 19 44  1  0
 19 45  1  0
 20 21  1  0
 21 22  1  0
 21 46  1  0
 21 47  1  0
 22 23  2  0
 22 28  1  0
 23 24  1  0
 23 48  1  0
 24 25  2  0
 24 49  1  0
 25 26  1  0
 25 50  1  0
 26 27  1  0
 26 28  2  0
 28 51  1  0
M  END

