
     RDKit          3D

 43 43  0  0  0  0  0  0  0  0999 V2000
    1.0033    0.0730   -1.2299 C   0  0  0  0  0  0  0  0  0  0  0  0
    2.4955    0.0571   -0.8874 C   0  0  0  0  0  0  0  0  0  0  0  0
    2.9397    1.2521   -0.0236 C   0  0  1  0  0  0  0  0  0  0  0  0
    2.3405    1.2956    1.3988 C   0  0  0  0  0  0  0  0  0  0  0  0
    2.7488    0.1765    2.3598 C   0  0  0  0  0  0  0  0  0  0  0  0
    4.4127    1.4082   -0.0086 N   0  0  0  0  0  0  0  0  0  0  0  0
    5.2849    0.2439    0.0702 C   0  0  0  0  0  0  0  0  0  0  0  0
    4.9056    2.6906   -0.0860 C   0  0  0  0  0  0  0  0  0  0  0  0
    4.1723    3.6678   -0.1067 O   0  0  0  0  0  0  0  0  0  0  0  0
    6.4384    2.8353   -0.1179 C   0  0  0  0  0  0  0  0  0  0  0  0
    6.9231    4.2043   -0.5290 C   0  0  0  0  0  0  0  0  0  0  0  0
    6.6284    5.3424    0.2363 C   0  0  0  0  0  0  0  0  0  0  0  0
    7.0936    6.6007   -0.1441 C   0  0  0  0  0  0  0  0  0  0  0  0
    7.8630    6.7629   -1.3097 C   0  0  0  0  0  0  0  0  0  0  0  0
    8.3549    8.1018   -1.7206 C   0  0  0  0  0  0  0  0  0  0  0  0
    7.7012    9.2164   -1.2389 N   0  0  0  0  0  0  0  0  0  0  0  0
    9.4055    8.1591   -2.4733 N   0  0  0  0  0  0  0  0  0  0  0  0
    9.7014    9.4962   -2.7988 O   0  0  0  0  0  0  0  0  0  0  0  0
    8.1610    5.6258   -2.0774 C   0  0  0  0  0  0  0  0  0  0  0  0
    7.6968    4.3702   -1.6882 C   0  0  0  0  0  0  0  0  0  0  0  0
    0.7496   -0.7551   -1.9103 H   0  0  0  0  0  0  0  0  0  0  0  0
    0.7168    1.0141   -1.7275 H   0  0  0  0  0  0  0  0  0  0  0  0
    0.3707   -0.0348   -0.3347 H   0  0  0  0  0  0  0  0  0  0  0  0
    3.0784    0.0816   -1.8240 H   0  0  0  0  0  0  0  0  0  0  0  0
    2.7396   -0.9028   -0.4007 H   0  0  0  0  0  0  0  0  0  0  0  0
    2.5813    2.1633   -0.5236 H   0  0  0  0  0  0  0  0  0  0  0  0
    1.2412    1.3127    1.3041 H   0  0  0  0  0  0  0  0  0  0  0  0
    2.6143    2.2716    1.8313 H   0  0  0  0  0  0  0  0  0  0  0  0
    2.4857   -0.8240    1.9779 H   0  0  0  0  0  0  0  0  0  0  0  0
    2.2388    0.2954    3.3291 H   0  0  0  0  0  0  0  0  0  0  0  0
    3.8314    0.1850    2.5639 H   0  0  0  0  0  0  0  0  0  0  0  0
    4.7044   -0.6321    0.3780 H   0  0  0  0  0  0  0  0  0  0  0  0
    6.0790    0.3795    0.8201 H   0  0  0  0  0  0  0  0  0  0  0  0
    5.7650    0.0010   -0.8951 H   0  0  0  0  0  0  0  0  0  0  0  0
    6.8776    2.0745   -0.7804 H   0  0  0  0  0  0  0  0  0  0  0  0
    6.8071    2.5948    0.8970 H   0  0  0  0  0  0  0  0  0  0  0  0
    6.0233    5.2430    1.1393 H   0  0  0  0  0  0  0  0  0  0  0  0
    6.8749    7.4661    0.4854 H   0  0  0  0  0  0  0  0  0  0  0  0
    6.7032    9.1269   -1.0881 H   0  0  0  0  0  0  0  0  0  0  0  0
    7.9939   10.0861   -1.6721 H   0  0  0  0  0  0  0  0  0  0  0  0
   10.4927    9.4102   -3.3431 H   0  0  0  0  0  0  0  0  0  0  0  0
    8.7577    5.7447   -2.9829 H   0  0  0  0  0  0  0  0  0  0  0  0
    7.9370    3.4981   -2.3038 H   0  0  0  0  0  0  0  0  0  0  0  0
  1  2  1  0
  1 21  1  0
  1 22  1  0
  1 23  1  0
  2  3  1  0
  2 24  1  0
  2 25  1  0
  3  4  1  0
  3  6  1  0
  3 26  1  6
  4  5  1  0
  4 27  1  0
  4 28  1  0
  5 29  1  0
  5 30  1  0
  5 31  1  0
  6  7  1  0
  6  8  1  0
  7 32  1  0
  7 33  1  0
  7 34  1  0
  8  9  2  0
  8 10  1  0
 10 11  1  0
 10 35  1  0
 10 36  1  0
 11 12  2  0
 11 20  1  0
 12 13  1  0
 12 37  1  0
 13 14  2  0
 13 38  1  0
 14 15  1  0
 14 19  1  0
 15 16  1  0
 15 17  2  0
 16 39  1  0
 16 40  1  0
 17 18  1  0
 18 41  1  0
 19 20  2  0
 19 42  1  0
 20 43  1  0
M  END

