
     RDKit          3D

 55 58  0  0  0  0  0  0  0  0999 V2000
    1.3757   -0.3094    1.4486 C   0  0  0  0  0  0  0  0  0  0  0  0
    2.7238   -0.1356    0.8285 C   0  0  0  0  0  0  0  0  0  0  0  0
    3.5357    0.9685    0.7506 C   0  0  0  0  0  0  0  0  0  0  0  0
    4.7343    0.5966    0.0474 C   0  0  0  0  0  0  0  0  0  0  0  0
    5.8779    1.4638   -0.2643 C   0  0  0  0  0  0  0  0  0  0  0  0
    6.8791    1.0966   -0.8633 O   0  0  0  0  0  0  0  0  0  0  0  0
    5.7626    2.9089    0.2072 C   0  0  0  0  0  0  0  0  0  0  0  0
    7.2882    3.8079   -0.2429 S   0  0  0  0  0  0  0  0  0  0  0  0
    6.8357    5.3583    0.4652 C   0  0  0  0  0  0  0  0  0  0  0  0
    5.7730    5.6242    1.1879 N   0  0  0  0  0  0  0  0  0  0  0  0
    5.8421    6.9485    1.5429 N   0  0  0  0  0  0  0  0  0  0  0  0
    6.9345    7.4565    1.0286 C   0  0  0  0  0  0  0  0  0  0  0  0
    7.6168    6.4827    0.3189 N   0  0  0  0  0  0  0  0  0  0  0  0
    8.8836    6.5571   -0.4092 C   0  0  0  0  0  0  0  0  0  0  0  0
    9.1765    7.9475   -0.9747 C   0  0  0  0  0  0  0  0  0  0  0  0
    9.6747    8.9886    0.0422 C   0  0  0  0  0  0  0  0  0  0  0  0
    8.8941    9.0444    1.3681 C   0  0  0  0  0  0  0  0  0  0  0  0
    7.3749    8.8788    1.2089 C   0  0  0  0  0  0  0  0  0  0  0  0
    4.6121   -0.7563   -0.2888 C   0  0  0  0  0  0  0  0  0  0  0  0
    5.5441   -1.6658   -1.0202 C   0  0  0  0  0  0  0  0  0  0  0  0
    3.3928   -1.1855    0.1887 N   0  0  0  0  0  0  0  0  0  0  0  0
    2.8830   -2.5153    0.0571 C   0  0  0  0  0  0  0  0  0  0  0  0
    3.1725   -3.4823    1.0308 C   0  0  0  0  0  0  0  0  0  0  0  0
    2.6699   -4.7751    0.9089 C   0  0  0  0  0  0  0  0  0  0  0  0
    1.8770   -5.1128   -0.1951 C   0  0  0  0  0  0  0  0  0  0  0  0
    1.4351   -6.4144   -0.2455 O   0  0  0  0  0  0  0  0  0  0  0  0
    0.2856   -6.7168   -0.9258 C   0  0  1  0  0  0  0  0  0  0  0  0
    0.5195   -6.7855   -2.2606 F   0  0  0  0  0  0  0  0  0  0  0  0
   -0.1032   -7.9272   -0.5177 F   0  0  0  0  0  0  0  0  0  0  0  0
    1.5942   -4.1611   -1.1830 C   0  0  0  0  0  0  0  0  0  0  0  0
    2.0945   -2.8632   -1.0441 C   0  0  0  0  0  0  0  0  0  0  0  0
    1.0522    0.6409    1.8954 H   0  0  0  0  0  0  0  0  0  0  0  0
    1.3771   -1.0736    2.2443 H   0  0  0  0  0  0  0  0  0  0  0  0
    0.6123   -0.6136    0.7123 H   0  0  0  0  0  0  0  0  0  0  0  0
    3.2941    1.9476    1.1591 H   0  0  0  0  0  0  0  0  0  0  0  0
    5.6138    2.9685    1.2957 H   0  0  0  0  0  0  0  0  0  0  0  0
    4.8919    3.4059   -0.2476 H   0  0  0  0  0  0  0  0  0  0  0  0
    8.8145    5.8316   -1.2345 H   0  0  0  0  0  0  0  0  0  0  0  0
    9.7081    6.2187    0.2443 H   0  0  0  0  0  0  0  0  0  0  0  0
    8.2669    8.3083   -1.4839 H   0  0  0  0  0  0  0  0  0  0  0  0
    9.9359    7.8345   -1.7656 H   0  0  0  0  0  0  0  0  0  0  0  0
    9.6390    9.9777   -0.4461 H   0  0  0  0  0  0  0  0  0  0  0  0
   10.7395    8.8023    0.2654 H   0  0  0  0  0  0  0  0  0  0  0  0
    9.1067   10.0060    1.8625 H   0  0  0  0  0  0  0  0  0  0  0  0
    9.2629    8.2669    2.0591 H   0  0  0  0  0  0  0  0  0  0  0  0
    7.0145    9.5020    0.3692 H   0  0  0  0  0  0  0  0  0  0  0  0
    6.8440    9.2397    2.1017 H   0  0  0  0  0  0  0  0  0  0  0  0
    6.4417   -1.1039   -1.3005 H   0  0  0  0  0  0  0  0  0  0  0  0
    5.0777   -2.0748   -1.9325 H   0  0  0  0  0  0  0  0  0  0  0  0
    5.8409   -2.5275   -0.3987 H   0  0  0  0  0  0  0  0  0  0  0  0
    3.7908   -3.2106    1.8889 H   0  0  0  0  0  0  0  0  0  0  0  0
    2.8784   -5.5391    1.6598 H   0  0  0  0  0  0  0  0  0  0  0  0
   -0.5177   -5.9769   -0.7521 H   0  0  0  0  0  0  0  0  0  0  0  0
    1.0180   -4.4303   -2.0684 H   0  0  0  0  0  0  0  0  0  0  0  0
    1.8815   -2.1130   -1.8085 H   0  0  0  0  0  0  0  0  0  0  0  0
  1  2  1  0
  1 32  1  0
  1 33  1  0
  1 34  1  0
  2  3  2  0
  2 21  1  0
  3  4  1  0
  3 35  1  0
  4  5  1  0
  4 19  2  0
  5  6  2  0
  5  7  1  0
  7  8  1  0
  7 36  1  0
  7 37  1  0
  8  9  1  0
  9 10  2  0
  9 13  1  0
 10 11  1  0
 11 12  2  0
 12 13  1  0
 12 18  1  0
 13 14  1  0
 14 15  1  0
 14 38  1  0
 14 39  1  0
 15 16  1  0
 15 40  1  0
 15 41  1  0
 16 17  1  0
 16 42  1  0
 16 43  1  0
 17 18  1  0
 17 44  1  0
 17 45  1  0
 18 46  1  0
 18 47  1  0
 19 20  1  0
 19 21  1  0
 20 48  1  0
 20 49  1  0
 20 50  1  0
 21 22  1  0
 22 23  2  0
 22 31  1  0
 23 24  1  0
 23 51  1  0
 24 25  2  0
 24 52  1  0
 25 26  1  0
 25 30  1  0
 26 27  1  0
 27 28  1  0
 27 29  1  0
 27 53  1  6
 30 31  2  0
 30 54  1  0
 31 55  1  0
M  END

