
     RDKit          3D

 36 37  0  0  0  0  0  0  0  0999 V2000
    1.8408   -0.5532    0.9866 C   0  0  0  0  0  0  0  0  0  0  0  0
    2.7636    0.2527    0.0535 C   0  0  2  0  0  0  0  0  0  0  0  0
    2.0322    1.4169   -0.5689 C   0  0  0  0  0  0  0  0  0  0  0  0
    1.6378    1.5897   -1.8380 C   0  0  0  0  0  0  0  0  0  0  0  0
    1.7453    0.6869   -3.0514 C   0  0  1  0  0  0  0  0  0  0  0  0
    2.8615    1.1697   -4.0113 C   0  0  0  0  0  0  0  0  0  0  0  0
    1.8179   -0.8230   -2.8285 C   0  0  0  0  0  0  0  0  0  0  0  0
    2.6045   -1.4223   -1.9105 C   0  0  0  0  0  0  0  0  0  0  0  0
    3.5004   -0.6287   -0.9750 C   0  0  0  0  0  0  0  0  0  0  0  0
    2.6460   -2.9384   -1.7337 C   0  0  2  0  0  0  0  0  0  0  0  0
    3.9807   -3.5331   -2.2272 C   0  0  0  0  0  0  0  0  0  0  0  0
    1.4351   -3.6321   -2.3799 C   0  0  0  0  0  0  0  0  0  0  0  0
    1.1890   -3.1117   -3.7959 C   0  0  0  0  0  0  0  0  0  0  0  0
    0.9187   -1.6071   -3.7669 C   0  0  0  0  0  0  0  0  0  0  0  0
    1.3619    0.1025    1.7316 H   0  0  0  0  0  0  0  0  0  0  0  0
    2.4054   -1.3259    1.5344 H   0  0  0  0  0  0  0  0  0  0  0  0
    1.0393   -1.0484    0.4163 H   0  0  0  0  0  0  0  0  0  0  0  0
    3.5477    0.6988    0.6955 H   0  0  0  0  0  0  0  0  0  0  0  0
    1.7999    2.2298    0.1313 H   0  0  0  0  0  0  0  0  0  0  0  0
    1.1532    2.5484   -2.0657 H   0  0  0  0  0  0  0  0  0  0  0  0
    0.8006    0.8581   -3.5994 H   0  0  0  0  0  0  0  0  0  0  0  0
    3.8575    1.0407   -3.5611 H   0  0  0  0  0  0  0  0  0  0  0  0
    2.7383    2.2376   -4.2549 H   0  0  0  0  0  0  0  0  0  0  0  0
    2.8389    0.6028   -4.9558 H   0  0  0  0  0  0  0  0  0  0  0  0
    4.1799    0.0211   -1.5519 H   0  0  0  0  0  0  0  0  0  0  0  0
    4.1505   -1.3247   -0.4203 H   0  0  0  0  0  0  0  0  0  0  0  0
    2.5997   -3.1304   -0.6454 H   0  0  0  0  0  0  0  0  0  0  0  0
    4.8466   -3.0328   -1.7660 H   0  0  0  0  0  0  0  0  0  0  0  0
    4.0874   -3.4287   -3.3186 H   0  0  0  0  0  0  0  0  0  0  0  0
    4.0464   -4.6055   -1.9795 H   0  0  0  0  0  0  0  0  0  0  0  0
    0.5370   -3.4391   -1.7663 H   0  0  0  0  0  0  0  0  0  0  0  0
    1.5840   -4.7252   -2.3823 H   0  0  0  0  0  0  0  0  0  0  0  0
    0.3444   -3.6414   -4.2668 H   0  0  0  0  0  0  0  0  0  0  0  0
    2.0714   -3.3182   -4.4261 H   0  0  0  0  0  0  0  0  0  0  0  0
   -0.1326   -1.4183   -3.4712 H   0  0  0  0  0  0  0  0  0  0  0  0
    1.0051   -1.1862   -4.7856 H   0  0  0  0  0  0  0  0  0  0  0  0
  1  2  1  0
  1 15  1  0
  1 16  1  0
  1 17  1  0
  2  3  1  0
  2  9  1  0
  2 18  1  1
  3  4  2  0
  3 19  1  0
  4  5  1  0
  4 20  1  0
  5  6  1  0
  5  7  1  0
  5 21  1  6
  6 22  1  0
  6 23  1  0
  6 24  1  0
  7  8  2  0
  7 14  1  0
  8  9  1  0
  8 10  1  0
  9 25  1  0
  9 26  1  0
 10 11  1  0
 10 12  1  0
 10 27  1  1
 11 28  1  0
 11 29  1  0
 11 30  1  0
 12 13  1  0
 12 31  1  0
 12 32  1  0
 13 14  1  0
 13 33  1  0
 13 34  1  0
 14 35  1  0
 14 36  1  0
M  END

