
     RDKit          3D

 52 58  0  0  0  0  0  0  0  0999 V2000
    4.8841    4.1284   -1.5254 F   0  0  0  0  0  0  0  0  0  0  0  0
    3.5615    4.0017   -1.2143 B   0  0  2  0  0  0  0  0  0  0  0  0
    2.7222    4.6159   -2.1276 F   0  0  0  0  0  0  0  0  0  0  0  0
    3.2697    4.5832    0.2294 N   0  0  0  0  0  0  0  0  0  0  0  0
    3.4352    5.8380    0.7146 C   0  0  0  0  0  0  0  0  0  0  0  0
    4.0561    6.7817    0.0035 O   0  0  0  0  0  0  0  0  0  0  0  0
    3.3519    7.9126   -0.4210 C   0  0  0  0  0  0  0  0  0  0  0  0
    3.9104    9.1616   -0.1528 C   0  0  0  0  0  0  0  0  0  0  0  0
    3.2569   10.3070   -0.6143 C   0  0  0  0  0  0  0  0  0  0  0  0
    2.0590   10.1976   -1.3284 C   0  0  0  0  0  0  0  0  0  0  0  0
    1.5203    8.9345   -1.5933 C   0  0  0  0  0  0  0  0  0  0  0  0
    2.1680    7.7783   -1.1480 C   0  0  0  0  0  0  0  0  0  0  0  0
    2.9423    5.9235    2.0401 C   0  0  0  0  0  0  0  0  0  0  0  0
    3.0109    7.3501    3.0110 Cl  0  0  0  0  0  0  0  0  0  0  0  0
    2.4547    4.6488    2.3796 C   0  0  0  0  0  0  0  0  0  0  0  0
    2.6804    3.8577    1.2297 C   0  0  0  0  0  0  0  0  0  0  0  0
    2.3300    2.5128    1.1407 C   0  0  0  0  0  0  0  0  0  0  0  0
    2.5661    1.7836   -0.0415 C   0  0  0  0  0  0  0  0  0  0  0  0
    2.3127    0.4476   -0.4334 C   0  0  0  0  0  0  0  0  0  0  0  0
    1.5518   -0.9239    0.5884 Br  0  0  0  0  0  0  0  0  0  0  0  0
    2.7570    0.3183   -1.7538 C   0  0  0  0  0  0  0  0  0  0  0  0
    2.7414   -1.0886   -2.7387 Cl  0  0  0  0  0  0  0  0  0  0  0  0
    3.2699    1.5823   -2.1311 C   0  0  0  0  0  0  0  0  0  0  0  0
    3.8702    1.9303   -3.2734 O   0  0  0  0  0  0  0  0  0  0  0  0
    3.1941    1.8570   -4.4852 C   0  0  0  0  0  0  0  0  0  0  0  0
    3.9667    1.5913   -5.6168 C   0  0  0  0  0  0  0  0  0  0  0  0
    3.3483    1.5536   -6.8678 C   0  0  0  0  0  0  0  0  0  0  0  0
    1.9719    1.7763   -6.9850 C   0  0  0  0  0  0  0  0  0  0  0  0
    1.2159    2.0483   -5.8409 C   0  0  0  0  0  0  0  0  0  0  0  0
    1.8219    2.0968   -4.5824 C   0  0  0  0  0  0  0  0  0  0  0  0
    3.1579    2.4556   -1.1148 N   0  0  0  0  0  0  0  0  0  0  0  0
    1.7533    1.9374    2.2012 O   0  0  0  0  0  0  0  0  0  0  0  0
    1.5085    2.6325    3.3650 C   0  0  0  0  0  0  0  0  0  0  0  0
    0.9086    1.9025    4.3948 C   0  0  0  0  0  0  0  0  0  0  0  0
    0.6282    2.5365    5.6011 C   0  0  0  0  0  0  0  0  0  0  0  0
    0.9448    3.8938    5.7784 C   0  0  0  0  0  0  0  0  0  0  0  0
    1.5414    4.6170    4.7524 C   0  0  0  0  0  0  0  0  0  0  0  0
    1.8395    4.0036    3.5166 C   0  0  0  0  0  0  0  0  0  0  0  0
    4.8417    9.2184    0.4129 H   0  0  0  0  0  0  0  0  0  0  0  0
    3.6859   11.2911   -0.4095 H   0  0  0  0  0  0  0  0  0  0  0  0
    1.5497   11.0961   -1.6847 H   0  0  0  0  0  0  0  0  0  0  0  0
    0.5942    8.8424   -2.1662 H   0  0  0  0  0  0  0  0  0  0  0  0
    1.7898    6.7835   -1.3892 H   0  0  0  0  0  0  0  0  0  0  0  0
    5.0379    1.4189   -5.4984 H   0  0  0  0  0  0  0  0  0  0  0  0
    3.9479    1.3452   -7.7575 H   0  0  0  0  0  0  0  0  0  0  0  0
    1.4914    1.7432   -7.9654 H   0  0  0  0  0  0  0  0  0  0  0  0
    0.1425    2.2357   -5.9249 H   0  0  0  0  0  0  0  0  0  0  0  0
    1.2421    2.3375   -3.6898 H   0  0  0  0  0  0  0  0  0  0  0  0
    0.6752    0.8502    4.2249 H   0  0  0  0  0  0  0  0  0  0  0  0
    0.1598    1.9723    6.4107 H   0  0  0  0  0  0  0  0  0  0  0  0
    0.7218    4.3852    6.7280 H   0  0  0  0  0  0  0  0  0  0  0  0
    1.7889    5.6704    4.8858 H   0  0  0  0  0  0  0  0  0  0  0  0
  2  1  1  6
  2  3  1  0
  2  4  1  0
  2 31  1  0
  4  5  1  0
  4 16  1  0
  5  6  1  0
  5 13  2  0
  6  7  1  0
  7  8  2  0
  7 12  1  0
  8  9  1  0
  8 39  1  0
  9 10  2  0
  9 40  1  0
 10 11  1  0
 10 41  1  0
 11 12  2  0
 11 42  1  0
 12 43  1  0
 13 14  1  0
 13 15  1  0
 15 16  1  0
 15 38  2  0
 16 17  2  0
 17 18  1  0
 17 32  1  0
 18 19  2  0
 18 31  1  0
 19 20  1  0
 19 21  1  0
 21 22  1  0
 21 23  2  0
 23 24  1  0
 23 31  1  0
 24 25  1  0
 25 26  2  0
 25 30  1  0
 26 27  1  0
 26 44  1  0
 27 28  2  0
 27 45  1  0
 28 29  1  0
 28 46  1  0
 29 30  2  0
 29 47  1  0
 30 48  1  0
 32 33  2  0
 33 34  1  0
 33 38  1  0
 34 35  2  0
 34 49  1  0
 35 36  1  0
 35 50  1  0
 36 37  2  0
 36 51  1  0
 37 38  1  0
 37 52  1  0
M  CHG  2   2  -1  32   1
M  END

