
     RDKit          3D

 49 51  0  0  0  0  0  0  0  0999 V2000
    1.5858    1.3028    1.8905 O   0  0  0  0  0  0  0  0  0  0  0  0
    1.7718    0.6255    0.8948 C   0  0  0  0  0  0  0  0  0  0  0  0
    1.3000   -0.6468    0.7074 N   0  0  0  0  0  0  0  0  0  0  0  0
    0.5578   -1.4437    1.5941 C   0  0  0  0  0  0  0  0  0  0  0  0
    0.1164   -1.0022    2.8577 C   0  0  0  0  0  0  0  0  0  0  0  0
   -0.6233   -1.8603    3.6760 C   0  0  0  0  0  0  0  0  0  0  0  0
   -0.9422   -3.1571    3.2721 C   0  0  0  0  0  0  0  0  0  0  0  0
   -0.4948   -3.5718    2.0176 C   0  0  0  0  0  0  0  0  0  0  0  0
   -0.8166   -4.9415    1.5568 N   0  0  0  0  0  0  0  0  0  0  0  0
   -1.4568   -5.6538    2.3127 O   0  0  0  0  0  0  0  0  0  0  0  0
   -0.4234   -5.2734    0.4501 O   0  0  0  0  0  0  0  0  0  0  0  0
    0.2454   -2.7482    1.1754 C   0  0  0  0  0  0  0  0  0  0  0  0
    2.6025    1.1634   -0.3055 C   0  0  1  0  0  0  0  0  0  0  0  0
    2.8749    2.6697   -0.1429 C   0  0  0  0  0  0  0  0  0  0  0  0
    3.4824    3.3136   -1.3679 C   0  0  0  0  0  0  0  0  0  0  0  0
    2.6628    3.7614   -2.4175 C   0  0  0  0  0  0  0  0  0  0  0  0
    3.2128    4.3444   -3.5621 C   0  0  0  0  0  0  0  0  0  0  0  0
    4.5986    4.4925   -3.6768 C   0  0  0  0  0  0  0  0  0  0  0  0
    5.4261    4.0556   -2.6384 C   0  0  0  0  0  0  0  0  0  0  0  0
    4.8710    3.4716   -1.4960 C   0  0  0  0  0  0  0  0  0  0  0  0
    3.8486    0.4105   -0.4737 N   0  0  0  0  0  0  0  0  0  0  0  0
    3.9941   -0.9364   -1.4572 S   0  0  1  0  0  0  0  0  0  0  0  0
    4.9709   -1.7991   -0.7959 O   0  0  0  0  0  0  0  0  0  0  0  0
    2.6238   -1.3952   -1.7690 O   0  0  0  0  0  0  0  0  0  0  0  0
    4.7021   -0.3717   -2.9975 C   0  0  0  0  0  0  0  0  0  0  0  0
    6.0945   -0.2658   -3.0952 C   0  0  0  0  0  0  0  0  0  0  0  0
    6.6624    0.1746   -4.2889 C   0  0  0  0  0  0  0  0  0  0  0  0
    5.8237    0.4945   -5.3581 C   0  0  0  0  0  0  0  0  0  0  0  0
    6.3684    0.9178   -6.5010 F   0  0  0  0  0  0  0  0  0  0  0  0
    4.4370    0.3758   -5.2732 C   0  0  0  0  0  0  0  0  0  0  0  0
    3.8690   -0.0665   -4.0783 C   0  0  0  0  0  0  0  0  0  0  0  0
    1.5627   -1.0942   -0.1749 H   0  0  0  0  0  0  0  0  0  0  0  0
    0.3613    0.0070    3.1803 H   0  0  0  0  0  0  0  0  0  0  0  0
   -0.9578   -1.5028    4.6527 H   0  0  0  0  0  0  0  0  0  0  0  0
   -1.5180   -3.8406    3.8941 H   0  0  0  0  0  0  0  0  0  0  0  0
    0.5715   -3.1315    0.2079 H   0  0  0  0  0  0  0  0  0  0  0  0
    2.0124    1.0008   -1.2208 H   0  0  0  0  0  0  0  0  0  0  0  0
    3.5183    2.8153    0.7388 H   0  0  0  0  0  0  0  0  0  0  0  0
    1.9176    3.1503    0.1066 H   0  0  0  0  0  0  0  0  0  0  0  0
    1.5761    3.6626   -2.3318 H   0  0  0  0  0  0  0  0  0  0  0  0
    2.5561    4.6929   -4.3637 H   0  0  0  0  0  0  0  0  0  0  0  0
    5.0310    4.9537   -4.5683 H   0  0  0  0  0  0  0  0  0  0  0  0
    6.5100    4.1747   -2.7153 H   0  0  0  0  0  0  0  0  0  0  0  0
    5.5258    3.1396   -0.6857 H   0  0  0  0  0  0  0  0  0  0  0  0
    4.4769    0.3458    0.3252 H   0  0  0  0  0  0  0  0  0  0  0  0
    6.7237   -0.5430   -2.2480 H   0  0  0  0  0  0  0  0  0  0  0  0
    7.7433    0.2669   -4.4087 H   0  0  0  0  0  0  0  0  0  0  0  0
    3.8228    0.6232   -6.1407 H   0  0  0  0  0  0  0  0  0  0  0  0
    2.7893   -0.1909   -3.9872 H   0  0  0  0  0  0  0  0  0  0  0  0
  1  2  2  0
  2  3  1  0
  2 13  1  0
  3  4  1  0
  3 32  1  0
  4  5  2  0
  4 12  1  0
  5  6  1  0
  5 33  1  0
  6  7  2  0
  6 34  1  0
  7  8  1  0
  7 35  1  0
  8  9  1  0
  8 12  2  0
  9 10  2  0
  9 11  1  0
 12 36  1  0
 13 14  1  0
 13 21  1  0
 13 37  1  6
 14 15  1  0
 14 38  1  0
 14 39  1  0
 15 16  2  0
 15 20  1  0
 16 17  1  0
 16 40  1  0
 17 18  2  0
 17 41  1  0
 18 19  1  0
 18 42  1  0
 19 20  2  0
 19 43  1  0
 20 44  1  0
 22 21  1  1
 21 45  1  0
 22 23  2  0
 22 24  2  0
 22 25  1  0
 25 26  2  0
 25 31  1  0
 26 27  1  0
 26 46  1  0
 27 28  2  0
 27 47  1  0
 28 29  1  0
 28 30  1  0
 30 31  2  0
 30 48  1  0
 31 49  1  0
M  CHG  2   9   1  11  -1
M  END

