
     RDKit          3D

 44 45  0  0  0  0  0  0  0  0999 V2000
    5.8737    0.2205   -3.2621 C   0  0  0  0  0  0  0  0  0  0  0  0
    6.1916    0.3925   -1.7763 C   0  0  0  0  0  0  0  0  0  0  0  0
    4.9428    0.4937   -0.8962 C   0  0  0  0  0  0  0  0  0  0  0  0
    5.2325    0.6790    0.5974 C   0  0  0  0  0  0  0  0  0  0  0  0
    5.9034    1.9295    0.8963 N   0  0  0  0  0  0  0  0  0  0  0  0
    7.0201    2.0180    1.6596 C   0  0  0  0  0  0  0  0  0  0  0  0
    7.6229    1.0786    2.1474 O   0  0  0  0  0  0  0  0  0  0  0  0
    7.3991    3.5095    1.8830 C   0  0  0  0  0  0  0  0  0  0  0  0
    6.5430    4.3634    1.6997 O   0  0  0  0  0  0  0  0  0  0  0  0
    8.6567    3.7836    2.3668 N   0  0  0  0  0  0  0  0  0  0  0  0
    9.7561    2.8619    2.2764 C   0  0  0  0  0  0  0  0  0  0  0  0
   10.1922    2.4035    1.0277 C   0  0  0  0  0  0  0  0  0  0  0  0
   11.2807    1.5315    0.9447 C   0  0  0  0  0  0  0  0  0  0  0  0
   11.9506    1.1319    2.1039 C   0  0  0  0  0  0  0  0  0  0  0  0
   11.5256    1.6084    3.3494 C   0  0  0  0  0  0  0  0  0  0  0  0
   10.4323    2.4697    3.4382 C   0  0  0  0  0  0  0  0  0  0  0  0
    8.9498    5.1098    2.8441 C   0  0  0  0  0  0  0  0  0  0  0  0
    8.1167    5.7404    3.7789 C   0  0  0  0  0  0  0  0  0  0  0  0
    8.4125    7.0172    4.2458 C   0  0  0  0  0  0  0  0  0  0  0  0
    9.5586    7.7084    3.8013 C   0  0  0  0  0  0  0  0  0  0  0  0
    9.8800    8.9589    4.3075 N   0  0  0  0  0  0  0  0  0  0  0  0
   10.3927    7.0647    2.8663 C   0  0  0  0  0  0  0  0  0  0  0  0
   10.0884    5.7900    2.3938 C   0  0  0  0  0  0  0  0  0  0  0  0
    6.7926    0.1488   -3.8657 H   0  0  0  0  0  0  0  0  0  0  0  0
    5.2881    1.0716   -3.6489 H   0  0  0  0  0  0  0  0  0  0  0  0
    5.2843   -0.6939   -3.4451 H   0  0  0  0  0  0  0  0  0  0  0  0
    6.8086    1.2962   -1.6313 H   0  0  0  0  0  0  0  0  0  0  0  0
    6.8105   -0.4533   -1.4265 H   0  0  0  0  0  0  0  0  0  0  0  0
    4.3315   -0.4194   -1.0110 H   0  0  0  0  0  0  0  0  0  0  0  0
    4.3056    1.3264   -1.2500 H   0  0  0  0  0  0  0  0  0  0  0  0
    5.8860   -0.1229    0.9728 H   0  0  0  0  0  0  0  0  0  0  0  0
    4.2860    0.6174    1.1660 H   0  0  0  0  0  0  0  0  0  0  0  0
    5.4545    2.8186    0.6886 H   0  0  0  0  0  0  0  0  0  0  0  0
    9.6744    2.7314    0.1232 H   0  0  0  0  0  0  0  0  0  0  0  0
   11.6108    1.1701   -0.0325 H   0  0  0  0  0  0  0  0  0  0  0  0
   12.8050    0.4539    2.0382 H   0  0  0  0  0  0  0  0  0  0  0  0
   12.0448    1.2991    4.2601 H   0  0  0  0  0  0  0  0  0  0  0  0
   10.0884    2.8380    4.4067 H   0  0  0  0  0  0  0  0  0  0  0  0
    7.2204    5.2325    4.1365 H   0  0  0  0  0  0  0  0  0  0  0  0
    7.7485    7.4898    4.9751 H   0  0  0  0  0  0  0  0  0  0  0  0
    9.1212    9.4913    4.7167 H   0  0  0  0  0  0  0  0  0  0  0  0
   10.5091    9.5257    3.7510 H   0  0  0  0  0  0  0  0  0  0  0  0
   11.2910    7.5731    2.5046 H   0  0  0  0  0  0  0  0  0  0  0  0
   10.7491    5.3150    1.6661 H   0  0  0  0  0  0  0  0  0  0  0  0
  1  2  1  0
  1 24  1  0
  1 25  1  0
  1 26  1  0
  2  3  1  0
  2 27  1  0
  2 28  1  0
  3  4  1  0
  3 29  1  0
  3 30  1  0
  4  5  1  0
  4 31  1  0
  4 32  1  0
  5  6  1  0
  5 33  1  0
  6  7  2  0
  6  8  1  0
  8  9  2  0
  8 10  1  0
 10 11  1  0
 10 17  1  0
 11 12  2  0
 11 16  1  0
 12 13  1  0
 12 34  1  0
 13 14  2  0
 13 35  1  0
 14 15  1  0
 14 36  1  0
 15 16  2  0
 15 37  1  0
 16 38  1  0
 17 18  2  0
 17 23  1  0
 18 19  1  0
 18 39  1  0
 19 20  2  0
 19 40  1  0
 20 21  1  0
 20 22  1  0
 21 41  1  0
 21 42  1  0
 22 23  2  0
 22 43  1  0
 23 44  1  0
M  END

