
     RDKit          3D

 24 23  0  0  0  0  0  0  0  0999 V2000
    3.0962   -1.0820    0.0901 C   0  0  0  0  0  0  0  0  0  0  0  0
    2.3568    0.0403    0.0415 C   0  0  0  0  0  0  0  0  0  0  0  0
    0.8487   -0.0096    0.0415 C   0  0  0  0  0  0  0  0  0  0  0  0
    3.0076    1.3749   -0.0143 C   0  0  0  0  0  0  0  0  0  0  0  0
    2.3260    2.5394   -0.0643 C   0  0  0  0  0  0  0  0  0  0  0  0
    4.3656    1.2908   -0.0091 O   0  0  0  0  0  0  0  0  0  0  0  0
    5.1351    2.4720   -0.0585 C   0  0  0  0  0  0  0  0  0  0  0  0
    6.5987    2.0648   -0.0397 C   0  0  0  0  0  0  0  0  0  0  0  0
    7.3670    3.2377   -0.0893 O   0  0  0  0  0  0  0  0  0  0  0  0
    8.7509    3.0131   -0.0785 C   0  0  0  0  0  0  0  0  0  0  0  0
    2.6185   -2.0644    0.1311 H   0  0  0  0  0  0  0  0  0  0  0  0
    4.1858   -1.0460    0.0900 H   0  0  0  0  0  0  0  0  0  0  0  0
    0.4953   -1.0493    0.0849 H   0  0  0  0  0  0  0  0  0  0  0  0
    0.4284    0.4558   -0.8655 H   0  0  0  0  0  0  0  0  0  0  0  0
    0.4260    0.5304    0.9051 H   0  0  0  0  0  0  0  0  0  0  0  0
    1.2382    2.5402   -0.0657 H   0  0  0  0  0  0  0  0  0  0  0  0
    2.8195    3.5095   -0.1047 H   0  0  0  0  0  0  0  0  0  0  0  0
    4.9173    3.1250    0.8066 H   0  0  0  0  0  0  0  0  0  0  0  0
    4.9193    3.0491   -0.9765 H   0  0  0  0  0  0  0  0  0  0  0  0
    6.8113    1.4020   -0.9043 H   0  0  0  0  0  0  0  0  0  0  0  0
    6.8097    1.4785    0.8790 H   0  0  0  0  0  0  0  0  0  0  0  0
    9.2513    3.9915   -0.1202 H   0  0  0  0  0  0  0  0  0  0  0  0
    9.0811    2.4104   -0.9492 H   0  0  0  0  0  0  0  0  0  0  0  0
    9.0797    2.4874    0.8413 H   0  0  0  0  0  0  0  0  0  0  0  0
  1  2  2  0
  1 11  1  0
  1 12  1  0
  2  3  1  0
  2  4  1  0
  3 13  1  0
  3 14  1  0
  3 15  1  0
  4  5  2  0
  4  6  1  0
  5 16  1  0
  5 17  1  0
  6  7  1  0
  7  8  1  0
  7 18  1  0
  7 19  1  0
  8  9  1  0
  8 20  1  0
  8 21  1  0
  9 10  1  0
 10 22  1  0
 10 23  1  0
 10 24  1  0
M  END

