
     RDKit          3D

 56 59  0  0  0  0  0  0  0  0999 V2000
    2.1631   -0.0473    2.3374 C   0  0  0  0  0  0  0  0  0  0  0  0
    3.2712    0.6772    1.7520 N   0  0  0  0  0  0  0  0  0  0  0  0
    4.3362    0.1669    1.0757 C   0  0  0  0  0  0  0  0  0  0  0  0
    5.1416    1.2425    0.7220 C   0  0  0  0  0  0  0  0  0  0  0  0
    6.4705    1.2524   -0.0060 C   0  0  1  0  0  0  0  0  0  0  0  0
    7.6059    1.6623    0.9346 C   0  0  0  0  0  0  0  0  0  0  0  0
    6.7972   -0.1079   -0.6536 C   0  0  0  0  0  0  0  0  0  0  0  0
    5.9228   -0.4061   -1.7809 N   0  0  0  0  0  0  0  0  0  0  0  0
    5.2894   -1.6351   -1.8445 C   0  0  0  0  0  0  0  0  0  0  0  0
    5.2210   -2.3712   -0.8592 O   0  0  0  0  0  0  0  0  0  0  0  0
    4.7389   -1.9594   -3.0619 N   0  0  0  0  0  0  0  0  0  0  0  0
    4.0241   -3.1956   -3.4253 C   0  0  1  0  0  0  0  0  0  0  0  0
    4.9134   -4.4584   -3.5463 C   0  0  0  0  0  0  0  0  0  0  0  0
    5.0527   -5.2569   -2.2454 C   0  0  0  0  0  0  0  0  0  0  0  0
    3.7306   -5.5707   -1.6999 N   0  0  0  0  0  0  0  0  0  0  0  0
    3.3057   -6.8780   -1.7044 C   0  0  0  0  0  0  0  0  0  0  0  0
    4.0124   -7.7811   -2.1432 O   0  0  0  0  0  0  0  0  0  0  0  0
    1.9479   -7.2079   -1.1425 C   0  0  1  0  0  0  0  0  0  0  0  0
    1.1727   -8.3087   -1.8479 C   0  0  0  0  0  0  0  0  0  0  0  0
    1.7958   -8.5833   -0.5196 C   0  0  0  0  0  0  0  0  0  0  0  0
    2.9568   -4.3808   -1.3581 C   0  0  0  0  0  0  0  0  0  0  0  0
    2.7518   -3.4873   -2.5939 C   0  0  0  0  0  0  0  0  0  0  0  0
    5.8700    0.6495   -2.7822 C   0  0  0  0  0  0  0  0  0  0  0  0
    5.5755    1.9908   -2.1010 C   0  0  0  0  0  0  0  0  0  0  0  0
    6.4706    2.2546   -1.0452 O   0  0  0  0  0  0  0  0  0  0  0  0
    4.4455    2.3675    1.2407 C   0  0  0  0  0  0  0  0  0  0  0  0
    3.3225    2.0139    1.8573 N   0  0  0  0  0  0  0  0  0  0  0  0
    2.2760   -1.1170    2.1167 H   0  0  0  0  0  0  0  0  0  0  0  0
    1.2103    0.3118    1.9198 H   0  0  0  0  0  0  0  0  0  0  0  0
    2.1430    0.0963    3.4288 H   0  0  0  0  0  0  0  0  0  0  0  0
    4.4404   -0.8981    0.8722 H   0  0  0  0  0  0  0  0  0  0  0  0
    7.7116    0.9348    1.7531 H   0  0  0  0  0  0  0  0  0  0  0  0
    7.3941    2.6483    1.3720 H   0  0  0  0  0  0  0  0  0  0  0  0
    8.5552    1.7264    0.3804 H   0  0  0  0  0  0  0  0  0  0  0  0
    6.7181   -0.9270    0.0693 H   0  0  0  0  0  0  0  0  0  0  0  0
    7.8431   -0.0607   -1.0124 H   0  0  0  0  0  0  0  0  0  0  0  0
    5.0864   -1.4452   -3.8601 H   0  0  0  0  0  0  0  0  0  0  0  0
    3.6699   -2.9647   -4.4423 H   0  0  0  0  0  0  0  0  0  0  0  0
    5.9071   -4.1714   -3.9282 H   0  0  0  0  0  0  0  0  0  0  0  0
    4.4590   -5.1193   -4.3046 H   0  0  0  0  0  0  0  0  0  0  0  0
    5.6112   -4.6736   -1.4981 H   0  0  0  0  0  0  0  0  0  0  0  0
    5.5678   -6.2065   -2.4303 H   0  0  0  0  0  0  0  0  0  0  0  0
    1.3544   -6.4124   -0.6934 H   0  0  0  0  0  0  0  0  0  0  0  0
    1.6574   -8.7454   -2.7247 H   0  0  0  0  0  0  0  0  0  0  0  0
    0.0868   -8.1965   -1.9140 H   0  0  0  0  0  0  0  0  0  0  0  0
    2.6972   -9.2004   -0.5106 H   0  0  0  0  0  0  0  0  0  0  0  0
    1.1527   -8.6650    0.3611 H   0  0  0  0  0  0  0  0  0  0  0  0
    3.4982   -3.8198   -0.5836 H   0  0  0  0  0  0  0  0  0  0  0  0
    1.9778   -4.6623   -0.9554 H   0  0  0  0  0  0  0  0  0  0  0  0
    2.2794   -2.5364   -2.2994 H   0  0  0  0  0  0  0  0  0  0  0  0
    2.0439   -4.0022   -3.2661 H   0  0  0  0  0  0  0  0  0  0  0  0
    5.0687    0.4518   -3.5073 H   0  0  0  0  0  0  0  0  0  0  0  0
    6.8310    0.7137   -3.3311 H   0  0  0  0  0  0  0  0  0  0  0  0
    4.5297    1.9887   -1.7389 H   0  0  0  0  0  0  0  0  0  0  0  0
    5.6898    2.8123   -2.8256 H   0  0  0  0  0  0  0  0  0  0  0  0
    4.7250    3.4191    1.1741 H   0  0  0  0  0  0  0  0  0  0  0  0
  1  2  1  0
  1 28  1  0
  1 29  1  0
  1 30  1  0
  2  3  1  0
  2 27  1  0
  3  4  2  0
  3 31  1  0
  4  5  1  0
  4 26  1  0
  5  6  1  1
  5  7  1  0
  5 25  1  0
  6 32  1  0
  6 33  1  0
  6 34  1  0
  7  8  1  0
  7 35  1  0
  7 36  1  0
  8  9  1  0
  8 23  1  0
  9 10  2  0
  9 11  1  0
 11 12  1  0
 11 37  1  0
 12 13  1  0
 12 22  1  0
 12 38  1  6
 13 14  1  0
 13 39  1  0
 13 40  1  0
 14 15  1  0
 14 41  1  0
 14 42  1  0
 15 16  1  0
 15 21  1  0
 16 17  2  0
 16 18  1  0
 18 19  1  0
 18 20  1  0
 18 43  1  1
 19 20  1  0
 19 44  1  0
 19 45  1  0
 20 46  1  0
 20 47  1  0
 21 22  1  0
 21 48  1  0
 21 49  1  0
 22 50  1  0
 22 51  1  0
 23 24  1  0
 23 52  1  0
 23 53  1  0
 24 25  1  0
 24 54  1  0
 24 55  1  0
 26 27  2  0
 26 56  1  0
M  END

