
     RDKit          3D

 54 58  0  0  0  0  0  0  0  0999 V2000
    1.0735    0.1827   -0.0994 C   0  0  0  0  0  0  0  0  0  0  0  0
    2.5807    0.0887   -0.0868 C   0  0  0  0  0  0  0  0  0  0  0  0
    3.3847    1.2210   -0.2787 C   0  0  0  0  0  0  0  0  0  0  0  0
    4.7872    1.1587   -0.2562 C   0  0  0  0  0  0  0  0  0  0  0  0
    5.3808   -0.0796   -0.0385 C   0  0  0  0  0  0  0  0  0  0  0  0
    4.5974   -1.2330    0.1433 C   0  0  0  0  0  0  0  0  0  0  0  0
    3.2144   -1.1538    0.1226 C   0  0  0  0  0  0  0  0  0  0  0  0
    5.5269   -2.4151    0.2794 C   0  0  2  0  0  0  0  0  0  0  0  0
    5.5129   -3.4974   -1.2480 S   0  0  0  0  0  0  0  0  0  0  0  0
    4.6476   -4.8301   -0.3492 C   0  0  0  0  0  0  0  0  0  0  0  0
    5.1975   -4.7534    1.0671 C   0  0  0  0  0  0  0  0  0  0  0  0
    5.2991   -3.3329    1.3964 N   0  0  0  0  0  0  0  0  0  0  0  0
    5.5380   -2.8328    2.6690 C   0  0  0  0  0  0  0  0  0  0  0  0
    5.7341   -1.6403    2.8530 O   0  0  0  0  0  0  0  0  0  0  0  0
    5.5141   -3.7729    3.6830 N   0  0  0  0  0  0  0  0  0  0  0  0
    5.6617   -3.5536    5.0665 C   0  0  0  0  0  0  0  0  0  0  0  0
    5.6021   -2.2839    5.6680 C   0  0  0  0  0  0  0  0  0  0  0  0
    5.7349   -2.1598    7.0520 C   0  0  0  0  0  0  0  0  0  0  0  0
    5.9244   -3.2899    7.8503 C   0  0  0  0  0  0  0  0  0  0  0  0
    6.0885   -3.1213    9.5842 Cl  0  0  0  0  0  0  0  0  0  0  0  0
    5.9831   -4.5576    7.2660 C   0  0  0  0  0  0  0  0  0  0  0  0
    5.8542   -4.6822    5.8843 C   0  0  0  0  0  0  0  0  0  0  0  0
    6.9340   -1.7364    0.3340 C   0  0  0  0  0  0  0  0  0  0  0  0
    7.9829   -2.2947    0.5524 O   0  0  0  0  0  0  0  0  0  0  0  0
    6.7488   -0.3990    0.0499 N   0  0  0  0  0  0  0  0  0  0  0  0
    7.8510    0.5391   -0.0375 C   0  0  0  0  0  0  0  0  0  0  0  0
    7.9286    1.5529    1.0931 C   0  0  0  0  0  0  0  0  0  0  0  0
    7.5499    1.2206    2.4032 C   0  0  0  0  0  0  0  0  0  0  0  0
    7.6818    2.1495    3.4380 C   0  0  0  0  0  0  0  0  0  0  0  0
    8.1975    3.4127    3.1573 C   0  0  0  0  0  0  0  0  0  0  0  0
    8.3243    4.3066    4.1509 F   0  0  0  0  0  0  0  0  0  0  0  0
    8.5783    3.7726    1.8673 C   0  0  0  0  0  0  0  0  0  0  0  0
    8.4360    2.8358    0.8404 C   0  0  0  0  0  0  0  0  0  0  0  0
    0.7350    1.2106   -0.2966 H   0  0  0  0  0  0  0  0  0  0  0  0
    0.6420   -0.1309    0.8664 H   0  0  0  0  0  0  0  0  0  0  0  0
    0.6341   -0.4684   -0.8740 H   0  0  0  0  0  0  0  0  0  0  0  0
    2.9057    2.1901   -0.4438 H   0  0  0  0  0  0  0  0  0  0  0  0
    5.3845    2.0620   -0.3861 H   0  0  0  0  0  0  0  0  0  0  0  0
    2.6110   -2.0544    0.2703 H   0  0  0  0  0  0  0  0  0  0  0  0
    4.8774   -5.7905   -0.8318 H   0  0  0  0  0  0  0  0  0  0  0  0
    3.5581   -4.6716   -0.3687 H   0  0  0  0  0  0  0  0  0  0  0  0
    6.1842   -5.2502    1.1225 H   0  0  0  0  0  0  0  0  0  0  0  0
    4.5042   -5.2547    1.7637 H   0  0  0  0  0  0  0  0  0  0  0  0
    5.4850   -4.7473    3.4161 H   0  0  0  0  0  0  0  0  0  0  0  0
    5.4563   -1.4029    5.0481 H   0  0  0  0  0  0  0  0  0  0  0  0
    5.6883   -1.1729    7.5158 H   0  0  0  0  0  0  0  0  0  0  0  0
    6.1325   -5.4405    7.8895 H   0  0  0  0  0  0  0  0  0  0  0  0
    5.9068   -5.6777    5.4329 H   0  0  0  0  0  0  0  0  0  0  0  0
    7.8045    1.0658   -1.0062 H   0  0  0  0  0  0  0  0  0  0  0  0
    8.7605   -0.0833   -0.0461 H   0  0  0  0  0  0  0  0  0  0  0  0
    7.1336    0.2340    2.6200 H   0  0  0  0  0  0  0  0  0  0  0  0
    7.3882    1.9061    4.4610 H   0  0  0  0  0  0  0  0  0  0  0  0
    8.9723    4.7738    1.6817 H   0  0  0  0  0  0  0  0  0  0  0  0
    8.7290    3.1135   -0.1766 H   0  0  0  0  0  0  0  0  0  0  0  0
  1  2  1  0
  1 34  1  0
  1 35  1  0
  1 36  1  0
  2  3  2  0
  2  7  1  0
  3  4  1  0
  3 37  1  0
  4  5  2  0
  4 38  1  0
  5  6  1  0
  5 25  1  0
  6  7  2  0
  6  8  1  0
  7 39  1  0
  8  9  1  6
  8 12  1  0
  8 23  1  0
  9 10  1  0
 10 11  1  0
 10 40  1  0
 10 41  1  0
 11 12  1  0
 11 42  1  0
 11 43  1  0
 12 13  1  0
 13 14  2  0
 13 15  1  0
 15 16  1  0
 15 44  1  0
 16 17  2  0
 16 22  1  0
 17 18  1  0
 17 45  1  0
 18 19  2  0
 18 46  1  0
 19 20  1  0
 19 21  1  0
 21 22  2  0
 21 47  1  0
 22 48  1  0
 23 24  2  0
 23 25  1  0
 25 26  1  0
 26 27  1  0
 26 49  1  0
 26 50  1  0
 27 28  2  0
 27 33  1  0
 28 29  1  0
 28 51  1  0
 29 30  2  0
 29 52  1  0
 30 31  1  0
 30 32  1  0
 32 33  2  0
 32 53  1  0
 33 54  1  0
M  END

