
     RDKit          3D

 40 42  0  0  0  0  0  0  0  0999 V2000
    1.7345    0.3037    1.1531 C   0  0  0  0  0  0  0  0  0  0  0  0
    2.9082    0.0288    0.2655 C   0  0  0  0  0  0  0  0  0  0  0  0
    3.6813    1.0157   -0.1197 N   0  0  0  0  0  0  0  0  0  0  0  0
    4.6691    0.4477   -0.9036 O   0  0  0  0  0  0  0  0  0  0  0  0
    4.4909   -0.8822   -0.9757 C   0  0  0  0  0  0  0  0  0  0  0  0
    5.4625   -1.6443   -1.8076 C   0  0  0  0  0  0  0  0  0  0  0  0
    3.3778   -1.2347   -0.2483 C   0  0  0  0  0  0  0  0  0  0  0  0
    2.8106   -2.5817   -0.0331 C   0  0  0  0  0  0  0  0  0  0  0  0
    3.6381   -3.6458    0.3677 C   0  0  0  0  0  0  0  0  0  0  0  0
    3.1179   -4.9362    0.5366 C   0  0  0  0  0  0  0  0  0  0  0  0
    3.8867   -5.9859    0.9193 O   0  0  0  0  0  0  0  0  0  0  0  0
    1.7570   -5.1755    0.3113 C   0  0  0  0  0  0  0  0  0  0  0  0
    0.9165   -4.1194   -0.0522 C   0  0  0  0  0  0  0  0  0  0  0  0
   -0.5187   -4.4546   -0.3864 C   0  0  0  0  0  0  0  0  0  0  0  0
   -0.7659   -5.4044   -1.1136 O   0  0  0  0  0  0  0  0  0  0  0  0
   -1.5134   -3.6396    0.1125 N   0  0  0  0  0  0  0  0  0  0  0  0
   -1.4171   -2.8057    1.3087 C   0  0  0  0  0  0  0  0  0  0  0  0
   -2.2360   -1.5295    1.1162 C   0  0  0  0  0  0  0  0  0  0  0  0
   -3.5712   -1.8206    0.7667 O   0  0  0  0  0  0  0  0  0  0  0  0
   -3.6520   -2.5920   -0.4174 C   0  0  0  0  0  0  0  0  0  0  0  0
   -2.8947   -3.9103   -0.2835 C   0  0  0  0  0  0  0  0  0  0  0  0
    1.4411   -2.8296   -0.2296 C   0  0  0  0  0  0  0  0  0  0  0  0
    1.7845    1.3377    1.5207 H   0  0  0  0  0  0  0  0  0  0  0  0
    1.7213   -0.3832    2.0136 H   0  0  0  0  0  0  0  0  0  0  0  0
    0.7820    0.1784    0.6134 H   0  0  0  0  0  0  0  0  0  0  0  0
    5.6092   -1.1432   -2.7771 H   0  0  0  0  0  0  0  0  0  0  0  0
    5.0991   -2.6650   -1.9858 H   0  0  0  0  0  0  0  0  0  0  0  0
    6.4489   -1.7044   -1.3176 H   0  0  0  0  0  0  0  0  0  0  0  0
    4.6988   -3.4621    0.5632 H   0  0  0  0  0  0  0  0  0  0  0  0
    4.8012   -5.6968    1.0362 H   0  0  0  0  0  0  0  0  0  0  0  0
    1.3650   -6.1884    0.4115 H   0  0  0  0  0  0  0  0  0  0  0  0
   -0.3704   -2.5641    1.5276 H   0  0  0  0  0  0  0  0  0  0  0  0
   -1.8247   -3.3602    2.1771 H   0  0  0  0  0  0  0  0  0  0  0  0
   -1.7602   -0.9007    0.3338 H   0  0  0  0  0  0  0  0  0  0  0  0
   -2.2659   -0.9506    2.0521 H   0  0  0  0  0  0  0  0  0  0  0  0
   -3.2450   -2.0191   -1.2763 H   0  0  0  0  0  0  0  0  0  0  0  0
   -4.7200   -2.7807   -0.6038 H   0  0  0  0  0  0  0  0  0  0  0  0
   -2.8826   -4.4691   -1.2279 H   0  0  0  0  0  0  0  0  0  0  0  0
   -3.3884   -4.5453    0.4775 H   0  0  0  0  0  0  0  0  0  0  0  0
    0.7918   -2.0233   -0.5743 H   0  0  0  0  0  0  0  0  0  0  0  0
  1  2  1  0
  1 23  1  0
  1 24  1  0
  1 25  1  0
  2  3  2  0
  2  7  1  0
  3  4  1  0
  4  5  1  0
  5  6  1  0
  5  7  2  0
  6 26  1  0
  6 27  1  0
  6 28  1  0
  7  8  1  0
  8  9  2  0
  8 22  1  0
  9 10  1  0
  9 29  1  0
 10 11  1  0
 10 12  2  0
 11 30  1  0
 12 13  1  0
 12 31  1  0
 13 14  1  0
 13 22  2  0
 14 15  2  0
 14 16  1  0
 16 17  1  0
 16 21  1  0
 17 18  1  0
 17 32  1  0
 17 33  1  0
 18 19  1  0
 18 34  1  0
 18 35  1  0
 19 20  1  0
 20 21  1  0
 20 36  1  0
 20 37  1  0
 21 38  1  0
 21 39  1  0
 22 40  1  0
M  END

