
     RDKit          3D

 33 34  0  0  0  0  0  0  0  0999 V2000
    0.9366   -0.3092    0.2230 C   0  0  0  0  0  0  0  0  0  0  0  0
    2.4223   -0.2575   -0.0176 C   0  0  0  0  0  0  0  0  0  0  0  0
    2.9812    0.9090   -0.5754 C   0  0  0  0  0  0  0  0  0  0  0  0
    4.3421    1.0437   -0.8262 C   0  0  0  0  0  0  0  0  0  0  0  0
    5.2275   -0.0103   -0.5485 C   0  0  0  0  0  0  0  0  0  0  0  0
    6.6885    0.2201   -0.8386 C   0  0  0  0  0  0  0  0  0  0  0  0
    7.1174    1.3442   -1.0360 O   0  0  0  0  0  0  0  0  0  0  0  0
    7.4724   -0.9131   -0.8756 N   0  0  0  0  0  0  0  0  0  0  0  0
    8.8564   -1.0088   -1.0926 C   0  0  0  0  0  0  0  0  0  0  0  0
    9.6998    0.1047   -1.2747 C   0  0  0  0  0  0  0  0  0  0  0  0
   11.0651   -0.0848   -1.4707 C   0  0  0  0  0  0  0  0  0  0  0  0
   11.6400   -1.3614   -1.5166 C   0  0  0  0  0  0  0  0  0  0  0  0
   13.3590   -1.4793   -1.7200 Cl  0  0  0  0  0  0  0  0  0  0  0  0
   10.7884   -2.4655   -1.3416 C   0  0  0  0  0  0  0  0  0  0  0  0
   11.2617   -3.8672   -1.3854 N   0  0  0  0  0  0  0  0  0  0  0  0
   12.2088   -4.1261   -2.1019 O   0  0  0  0  0  0  0  0  0  0  0  0
   10.6419   -4.6768   -0.7119 O   0  0  0  0  0  0  0  0  0  0  0  0
    9.4233   -2.2895   -1.1180 C   0  0  0  0  0  0  0  0  0  0  0  0
    4.7061   -1.1793    0.0081 C   0  0  0  0  0  0  0  0  0  0  0  0
    3.3372   -1.2943    0.2674 C   0  0  0  0  0  0  0  0  0  0  0  0
    2.9065   -2.5798    0.8690 N   0  0  0  0  0  0  0  0  0  0  0  0
    1.7619   -2.6674    1.2823 O   0  0  0  0  0  0  0  0  0  0  0  0
    3.7282   -3.4818    0.9203 O   0  0  0  0  0  0  0  0  0  0  0  0
    0.4619    0.5976   -0.1774 H   0  0  0  0  0  0  0  0  0  0  0  0
    0.7091   -0.3885    1.2961 H   0  0  0  0  0  0  0  0  0  0  0  0
    0.4776   -1.1920   -0.2446 H   0  0  0  0  0  0  0  0  0  0  0  0
    2.3110    1.7381   -0.8144 H   0  0  0  0  0  0  0  0  0  0  0  0
    4.7492    1.9665   -1.2430 H   0  0  0  0  0  0  0  0  0  0  0  0
    6.9943   -1.8007   -0.7822 H   0  0  0  0  0  0  0  0  0  0  0  0
    9.2764    1.1058   -1.2576 H   0  0  0  0  0  0  0  0  0  0  0  0
   11.7183    0.7808   -1.5922 H   0  0  0  0  0  0  0  0  0  0  0  0
    8.8184   -3.1836   -0.9591 H   0  0  0  0  0  0  0  0  0  0  0  0
    5.3236   -2.0344    0.2820 H   0  0  0  0  0  0  0  0  0  0  0  0
  1  2  1  0
  1 24  1  0
  1 25  1  0
  1 26  1  0
  2  3  2  0
  2 20  1  0
  3  4  1  0
  3 27  1  0
  4  5  2  0
  4 28  1  0
  5  6  1  0
  5 19  1  0
  6  7  2  0
  6  8  1  0
  8  9  1  0
  8 29  1  0
  9 10  2  0
  9 18  1  0
 10 11  1  0
 10 30  1  0
 11 12  2  0
 11 31  1  0
 12 13  1  0
 12 14  1  0
 14 15  1  0
 14 18  2  0
 15 16  2  0
 15 17  1  0
 18 32  1  0
 19 20  2  0
 19 33  1  0
 20 21  1  0
 21 22  2  0
 21 23  1  0
M  CHG  4  15   1  17  -1  21   1  23  -1
M  END

