
     RDKit          3D

 44 46  0  0  0  0  0  0  0  0999 V2000
    2.5095   -0.4122   -1.3121 N   0  0  0  0  0  0  0  0  0  0  0  0
    2.8995    0.3376   -0.1222 C   0  0  2  0  0  0  0  0  0  0  0  0
    2.0358    0.9550    0.1624 H   0  0  0  0  0  0  0  0  0  0  0  0
    4.1636    1.2600   -0.2065 C   0  0  0  0  0  0  0  0  0  0  0  0
    5.0819    0.8538    0.9697 C   0  0  0  0  0  0  0  0  0  0  0  0
    4.1373    0.1712    1.9731 C   0  0  0  0  0  0  0  0  0  0  0  0
    3.2007   -0.6248    1.0534 C   0  0  1  0  0  0  0  0  0  0  0  0
    3.8034   -1.4487    0.6220 H   0  0  0  0  0  0  0  0  0  0  0  0
    1.9685   -1.3024    1.6603 C   0  0  0  0  0  0  0  0  0  0  0  0
    1.0063   -0.3925    2.4225 C   0  0  0  0  0  0  0  0  0  0  0  0
    1.1111    0.8287    2.4174 O   0  0  0  0  0  0  0  0  0  0  0  0
   -0.0047   -1.0026    3.1366 N   0  0  0  0  0  0  0  0  0  0  0  0
   -0.3048   -2.4241    3.1055 C   0  0  0  0  0  0  0  0  0  0  0  0
    0.1605   -3.1673    4.3389 C   0  0  0  0  0  0  0  0  0  0  0  0
    1.1193   -2.8028    5.2536 C   0  0  0  0  0  0  0  0  0  0  0  0
    1.3255   -3.7829    6.2749 C   0  0  0  0  0  0  0  0  0  0  0  0
    0.5215   -4.8816    6.1233 C   0  0  0  0  0  0  0  0  0  0  0  0
   -0.5047   -4.7299    4.7351 S   0  0  0  0  0  0  0  0  0  0  0  0
   -0.9214   -0.1437    3.8992 C   0  0  0  0  0  0  0  0  0  0  0  0
   -2.1432    0.2879    3.1295 C   0  0  0  0  0  0  0  0  0  0  0  0
   -2.2442    1.2947    2.1970 C   0  0  0  0  0  0  0  0  0  0  0  0
   -3.5498    1.4077    1.6308 C   0  0  0  0  0  0  0  0  0  0  0  0
   -4.4312    0.4843    2.1355 C   0  0  0  0  0  0  0  0  0  0  0  0
   -3.6739   -0.5312    3.3126 S   0  0  0  0  0  0  0  0  0  0  0  0
    3.3175   -0.8903   -1.7156 H   0  0  0  0  0  0  0  0  0  0  0  0
    2.1554    0.2124   -2.0363 H   0  0  0  0  0  0  0  0  0  0  0  0
    3.8681    2.3179   -0.1189 H   0  0  0  0  0  0  0  0  0  0  0  0
    4.6623    1.1518   -1.1836 H   0  0  0  0  0  0  0  0  0  0  0  0
    5.6307    1.7052    1.4015 H   0  0  0  0  0  0  0  0  0  0  0  0
    5.8391    0.1264    0.6293 H   0  0  0  0  0  0  0  0  0  0  0  0
    3.5589    0.9216    2.5334 H   0  0  0  0  0  0  0  0  0  0  0  0
    4.6685   -0.4640    2.7015 H   0  0  0  0  0  0  0  0  0  0  0  0
    1.4136   -1.7671    0.8252 H   0  0  0  0  0  0  0  0  0  0  0  0
    2.2821   -2.1279    2.3207 H   0  0  0  0  0  0  0  0  0  0  0  0
    0.1408   -2.8727    2.2065 H   0  0  0  0  0  0  0  0  0  0  0  0
   -1.3949   -2.5503    2.9825 H   0  0  0  0  0  0  0  0  0  0  0  0
    1.6556   -1.8543    5.1999 H   0  0  0  0  0  0  0  0  0  0  0  0
    2.0427   -3.6710    7.0897 H   0  0  0  0  0  0  0  0  0  0  0  0
    0.4648   -5.7718    6.7482 H   0  0  0  0  0  0  0  0  0  0  0  0
   -0.3558    0.7491    4.1944 H   0  0  0  0  0  0  0  0  0  0  0  0
   -1.2085   -0.6848    4.8133 H   0  0  0  0  0  0  0  0  0  0  0  0
   -1.3925    1.9227    1.9317 H   0  0  0  0  0  0  0  0  0  0  0  0
   -3.8269    2.1506    0.8807 H   0  0  0  0  0  0  0  0  0  0  0  0
   -5.4843    0.3511    1.8913 H   0  0  0  0  0  0  0  0  0  0  0  0
  1  2  1  0
  1 25  1  0
  1 26  1  0
  2  3  1  1
  2  4  1  0
  2  7  1  0
  4  5  1  0
  4 27  1  0
  4 28  1  0
  5  6  1  0
  5 29  1  0
  5 30  1  0
  6  7  1  0
  6 31  1  0
  6 32  1  0
  7  8  1  6
  7  9  1  0
  9 10  1  0
  9 33  1  0
  9 34  1  0
 10 11  2  0
 10 12  1  0
 12 13  1  0
 12 19  1  0
 13 14  1  0
 13 35  1  0
 13 36  1  0
 14 15  2  0
 14 18  1  0
 15 16  1  0
 15 37  1  0
 16 17  2  0
 16 38  1  0
 17 18  1  0
 17 39  1  0
 19 20  1  0
 19 40  1  0
 19 41  1  0
 20 21  2  0
 20 24  1  0
 21 22  1  0
 21 42  1  0
 22 23  2  0
 22 43  1  0
 23 24  1  0
 23 44  1  0
M  END

