
     RDKit          3D

 38 40  0  0  0  0  0  0  0  0999 V2000
    2.2393   -0.3296    3.2929 C   0  0  0  0  0  0  0  0  0  0  0  0
    3.6121   -0.3722    2.6708 C   0  0  0  0  0  0  0  0  0  0  0  0
    4.7005    0.3026    3.2406 C   0  0  0  0  0  0  0  0  0  0  0  0
    5.9650    0.2570    2.6518 C   0  0  0  0  0  0  0  0  0  0  0  0
    6.1962   -0.4659    1.4662 C   0  0  0  0  0  0  0  0  0  0  0  0
    7.5445   -0.4814    0.8937 C   0  0  0  0  0  0  0  0  0  0  0  0
    7.9532   -1.1395   -0.2147 C   0  0  0  0  0  0  0  0  0  0  0  0
    9.3096   -1.1191   -0.7730 C   0  0  0  0  0  0  0  0  0  0  0  0
   10.2623   -0.1315   -0.4423 C   0  0  0  0  0  0  0  0  0  0  0  0
   11.5319   -0.1170   -1.0142 C   0  0  0  0  0  0  0  0  0  0  0  0
   11.9006   -1.0861   -1.9547 C   0  0  0  0  0  0  0  0  0  0  0  0
   10.9850   -2.0767   -2.3069 C   0  0  0  0  0  0  0  0  0  0  0  0
    9.7208   -2.0895   -1.7146 C   0  0  0  0  0  0  0  0  0  0  0  0
    8.8180   -3.1475   -2.0926 N   0  0  0  0  0  0  0  0  0  0  0  0
    8.2516   -3.0772   -3.2752 N   0  0  0  0  0  0  0  0  0  0  0  0
    7.4954   -4.1901   -3.3577 O   0  0  0  0  0  0  0  0  0  0  0  0
    7.5892   -4.9910   -2.1776 C   0  0  0  0  0  0  0  0  0  0  0  0
    6.9904   -6.0285   -2.0536 O   0  0  0  0  0  0  0  0  0  0  0  0
    8.4955   -4.2398   -1.3622 C   0  0  0  0  0  0  0  0  0  0  0  0
    9.0064   -4.5921   -0.0104 C   0  0  0  0  0  0  0  0  0  0  0  0
    5.0976   -1.1438    0.8936 C   0  0  0  0  0  0  0  0  0  0  0  0
    3.8405   -1.0964    1.4845 C   0  0  0  0  0  0  0  0  0  0  0  0
    2.2371    0.2400    4.2337 H   0  0  0  0  0  0  0  0  0  0  0  0
    1.8671   -1.3447    3.5101 H   0  0  0  0  0  0  0  0  0  0  0  0
    1.5079    0.1396    2.6131 H   0  0  0  0  0  0  0  0  0  0  0  0
    4.5573    0.8739    4.1621 H   0  0  0  0  0  0  0  0  0  0  0  0
    6.7953    0.7932    3.1203 H   0  0  0  0  0  0  0  0  0  0  0  0
    8.2800    0.1030    1.4571 H   0  0  0  0  0  0  0  0  0  0  0  0
    7.2301   -1.7494   -0.7612 H   0  0  0  0  0  0  0  0  0  0  0  0
    9.9852    0.6588    0.2576 H   0  0  0  0  0  0  0  0  0  0  0  0
   12.2381    0.6691   -0.7358 H   0  0  0  0  0  0  0  0  0  0  0  0
   12.8910   -1.0676   -2.4142 H   0  0  0  0  0  0  0  0  0  0  0  0
   11.2369   -2.8473   -3.0375 H   0  0  0  0  0  0  0  0  0  0  0  0
    8.6452   -5.6020    0.2308 H   0  0  0  0  0  0  0  0  0  0  0  0
    8.6443   -3.9048    0.7729 H   0  0  0  0  0  0  0  0  0  0  0  0
   10.1080   -4.5984    0.0329 H   0  0  0  0  0  0  0  0  0  0  0  0
    5.2265   -1.7176   -0.0267 H   0  0  0  0  0  0  0  0  0  0  0  0
    3.0107   -1.6340    1.0162 H   0  0  0  0  0  0  0  0  0  0  0  0
  1  2  1  0
  1 23  1  0
  1 24  1  0
  1 25  1  0
  2  3  2  0
  2 22  1  0
  3  4  1  0
  3 26  1  0
  4  5  2  0
  4 27  1  0
  5  6  1  0
  5 21  1  0
  6  7  2  0
  6 28  1  0
  7  8  1  0
  7 29  1  0
  8  9  2  0
  8 13  1  0
  9 10  1  0
  9 30  1  0
 10 11  2  0
 10 31  1  0
 11 12  1  0
 11 32  1  0
 12 13  2  0
 12 33  1  0
 13 14  1  0
 14 15  1  0
 14 19  1  0
 15 16  2  0
 16 17  1  0
 17 18  1  0
 17 19  2  0
 19 20  1  0
 20 34  1  0
 20 35  1  0
 20 36  1  0
 21 22  2  0
 21 37  1  0
 22 38  1  0
M  CHG  2  16   1  18  -1
M  END

