
     RDKit          3D

 45 45  0  0  0  0  0  0  0  0999 V2000
    2.8090   -0.9734    3.1737 C   0  0  0  0  0  0  0  0  0  0  0  0
    3.1284   -0.3461    1.8365 C   0  0  0  0  0  0  0  0  0  0  0  0
    3.8527    0.8542    1.7903 C   0  0  0  0  0  0  0  0  0  0  0  0
    4.1632    1.4793    0.5809 C   0  0  0  0  0  0  0  0  0  0  0  0
    3.7494    0.8966   -0.6197 C   0  0  0  0  0  0  0  0  0  0  0  0
    3.0316   -0.2978   -0.5942 C   0  0  0  0  0  0  0  0  0  0  0  0
    2.6990   -0.9352    0.6174 C   0  0  0  0  0  0  0  0  0  0  0  0
    1.9258   -2.1922    0.6271 C   0  0  0  0  0  0  0  0  0  0  0  0
    1.0996   -2.6356   -0.3370 C   0  0  0  0  0  0  0  0  0  0  0  0
    0.3501   -3.9357   -0.2935 C   0  0  0  0  0  0  0  0  0  0  0  0
   -1.1844   -3.7532   -0.3582 C   0  0  0  0  0  0  0  0  0  0  0  0
   -1.9249   -5.0541   -0.4002 C   0  0  0  0  0  0  0  0  0  0  0  0
   -2.8442   -5.4657    0.4836 C   0  0  0  0  0  0  0  0  0  0  0  0
   -3.5130   -6.7943    0.3313 C   0  0  0  0  0  0  0  0  0  0  0  0
   -3.2608   -7.5690   -0.5816 O   0  0  0  0  0  0  0  0  0  0  0  0
   -4.4436   -7.0781    1.2966 N   0  0  0  0  0  0  0  0  0  0  0  0
   -5.1824   -8.3276    1.3142 C   0  0  0  0  0  0  0  0  0  0  0  0
   -4.4942   -9.4740    2.0827 C   0  0  1  0  0  0  0  0  0  0  0  0
   -4.2589   -9.1198    3.5546 C   0  0  0  0  0  0  0  0  0  0  0  0
   -5.3078  -10.7640    1.9358 C   0  0  0  0  0  0  0  0  0  0  0  0
    3.1877   -0.3524    3.9984 H   0  0  0  0  0  0  0  0  0  0  0  0
    3.2631   -1.9736    3.2789 H   0  0  0  0  0  0  0  0  0  0  0  0
    1.7235   -1.0995    3.3196 H   0  0  0  0  0  0  0  0  0  0  0  0
    4.1782    1.3098    2.7300 H   0  0  0  0  0  0  0  0  0  0  0  0
    4.7316    2.4129    0.5772 H   0  0  0  0  0  0  0  0  0  0  0  0
    3.9955    1.3650   -1.5761 H   0  0  0  0  0  0  0  0  0  0  0  0
    2.7380   -0.7640   -1.5375 H   0  0  0  0  0  0  0  0  0  0  0  0
    2.0396   -2.8215    1.5165 H   0  0  0  0  0  0  0  0  0  0  0  0
    0.9246   -2.0141   -1.2248 H   0  0  0  0  0  0  0  0  0  0  0  0
    0.6161   -4.4975    0.6173 H   0  0  0  0  0  0  0  0  0  0  0  0
    0.6594   -4.5661   -1.1491 H   0  0  0  0  0  0  0  0  0  0  0  0
   -1.4265   -3.1772   -1.2719 H   0  0  0  0  0  0  0  0  0  0  0  0
   -1.5210   -3.1424    0.4958 H   0  0  0  0  0  0  0  0  0  0  0  0
   -1.6936   -5.7446   -1.2217 H   0  0  0  0  0  0  0  0  0  0  0  0
   -3.1243   -4.8307    1.3330 H   0  0  0  0  0  0  0  0  0  0  0  0
   -4.5954   -6.4063    2.0379 H   0  0  0  0  0  0  0  0  0  0  0  0
   -5.3242   -8.6341    0.2670 H   0  0  0  0  0  0  0  0  0  0  0  0
   -6.1801   -8.1361    1.7477 H   0  0  0  0  0  0  0  0  0  0  0  0
   -3.5131   -9.6281    1.5995 H   0  0  0  0  0  0  0  0  0  0  0  0
   -5.2154   -8.9586    4.0835 H   0  0  0  0  0  0  0  0  0  0  0  0
   -3.6550   -8.2041    3.6580 H   0  0  0  0  0  0  0  0  0  0  0  0
   -3.7239   -9.9278    4.0791 H   0  0  0  0  0  0  0  0  0  0  0  0
   -6.3107  -10.6570    2.3857 H   0  0  0  0  0  0  0  0  0  0  0  0
   -4.8095  -11.6086    2.4379 H   0  0  0  0  0  0  0  0  0  0  0  0
   -5.4440  -11.0372    0.8768 H   0  0  0  0  0  0  0  0  0  0  0  0
  1  2  1  0
  1 21  1  0
  1 22  1  0
  1 23  1  0
  2  3  2  0
  2  7  1  0
  3  4  1  0
  3 24  1  0
  4  5  2  0
  4 25  1  0
  5  6  1  0
  5 26  1  0
  6  7  2  0
  6 27  1  0
  7  8  1  0
  8  9  2  0
  8 28  1  0
  9 10  1  0
  9 29  1  0
 10 11  1  0
 10 30  1  0
 10 31  1  0
 11 12  1  0
 11 32  1  0
 11 33  1  0
 12 13  2  0
 12 34  1  0
 13 14  1  0
 13 35  1  0
 14 15  2  0
 14 16  1  0
 16 17  1  0
 16 36  1  0
 17 18  1  0
 17 37  1  0
 17 38  1  0
 18 19  1  0
 18 20  1  0
 18 39  1  6
 19 40  1  0
 19 41  1  0
 19 42  1  0
 20 43  1  0
 20 44  1  0
 20 45  1  0
M  END

