
     RDKit          3D

 64 67  0  0  0  0  0  0  0  0999 V2000
    8.5971  -16.0749   -9.1339 C   0  0  0  0  0  0  0  0  0  0  0  0
    8.9531  -14.8277   -9.6882 O   0  0  0  0  0  0  0  0  0  0  0  0
    8.1610  -13.7511   -9.4716 C   0  0  0  0  0  0  0  0  0  0  0  0
    8.5826  -12.5444  -10.0644 C   0  0  0  0  0  0  0  0  0  0  0  0
    7.8387  -11.3856   -9.9020 C   0  0  0  0  0  0  0  0  0  0  0  0
    6.6512  -11.3958   -9.1419 C   0  0  0  0  0  0  0  0  0  0  0  0
    5.8536  -10.1767   -8.9656 C   0  0  0  0  0  0  0  0  0  0  0  0
    6.1695   -9.0232   -9.5120 N   0  0  0  0  0  0  0  0  0  0  0  0
    5.1582   -8.1693   -9.0856 O   0  0  0  0  0  0  0  0  0  0  0  0
    4.3242   -8.8922   -8.3244 C   0  0  0  0  0  0  0  0  0  0  0  0
    3.1115   -8.2196   -7.7670 C   0  0  0  0  0  0  0  0  0  0  0  0
    2.5887   -8.8588   -6.4743 C   0  0  0  0  0  0  0  0  0  0  0  0
    3.5132   -8.6566   -5.2677 C   0  0  0  0  0  0  0  0  0  0  0  0
    2.9760   -9.2363   -3.9526 C   0  0  0  0  0  0  0  0  0  0  0  0
    2.8747  -10.7671   -3.9406 C   0  0  0  0  0  0  0  0  0  0  0  0
    2.4349  -11.2953   -2.6595 N   0  0  0  0  0  0  0  0  0  0  0  0
    1.2237  -11.8977   -2.4822 C   0  0  0  0  0  0  0  0  0  0  0  0
    0.4329  -12.0623   -3.3987 O   0  0  0  0  0  0  0  0  0  0  0  0
    0.9165  -12.4378   -1.0668 C   0  0  1  0  0  0  0  0  0  0  0  0
    1.5873  -11.7063    0.1108 C   0  0  0  0  0  0  0  0  0  0  0  0
    0.9662  -10.3235    0.3391 C   0  0  0  0  0  0  0  0  0  0  0  0
   -0.5518  -10.4410    0.5026 C   0  0  0  0  0  0  0  0  0  0  0  0
   -1.1651  -11.1668   -0.6061 N   0  0  0  0  0  0  0  0  0  0  0  0
   -2.0471  -10.4894   -1.4286 C   0  0  0  0  0  0  0  0  0  0  0  0
   -2.2002   -9.2773   -1.3454 O   0  0  0  0  0  0  0  0  0  0  0  0
   -2.8595  -11.2760   -2.4020 C   0  0  0  0  0  0  0  0  0  0  0  0
   -3.4685  -12.5812   -2.3131 C   0  0  0  0  0  0  0  0  0  0  0  0
   -4.1939  -12.7381   -3.4567 C   0  0  0  0  0  0  0  0  0  0  0  0
   -4.0800  -11.6359   -4.2436 O   0  0  0  0  0  0  0  0  0  0  0  0
   -3.2878  -10.7573   -3.5958 C   0  0  0  0  0  0  0  0  0  0  0  0
   -0.6125  -12.4907   -0.8616 C   0  0  0  0  0  0  0  0  0  0  0  0
    4.6981  -10.1302   -8.2098 N   0  0  0  0  0  0  0  0  0  0  0  0
    6.2376  -12.5984   -8.5547 C   0  0  0  0  0  0  0  0  0  0  0  0
    6.9799  -13.7716   -8.7129 C   0  0  0  0  0  0  0  0  0  0  0  0
    9.3748  -16.7869   -9.4410 H   0  0  0  0  0  0  0  0  0  0  0  0
    7.6201  -16.4278   -9.5101 H   0  0  0  0  0  0  0  0  0  0  0  0
    8.5609  -16.0389   -8.0301 H   0  0  0  0  0  0  0  0  0  0  0  0
    9.5038  -12.5507  -10.6503 H   0  0  0  0  0  0  0  0  0  0  0  0
    8.1684  -10.4529  -10.3638 H   0  0  0  0  0  0  0  0  0  0  0  0
    2.3271   -8.2578   -8.5442 H   0  0  0  0  0  0  0  0  0  0  0  0
    3.3446   -7.1519   -7.6241 H   0  0  0  0  0  0  0  0  0  0  0  0
    2.4287   -9.9328   -6.6587 H   0  0  0  0  0  0  0  0  0  0  0  0
    1.5983   -8.4267   -6.2522 H   0  0  0  0  0  0  0  0  0  0  0  0
    3.6878   -7.5749   -5.1292 H   0  0  0  0  0  0  0  0  0  0  0  0
    4.5008   -9.1010   -5.4847 H   0  0  0  0  0  0  0  0  0  0  0  0
    1.9807   -8.8130   -3.7298 H   0  0  0  0  0  0  0  0  0  0  0  0
    3.6385   -8.9166   -3.1279 H   0  0  0  0  0  0  0  0  0  0  0  0
    3.8529  -11.2080   -4.2057 H   0  0  0  0  0  0  0  0  0  0  0  0
    2.1434  -11.1196   -4.6803 H   0  0  0  0  0  0  0  0  0  0  0  0
    3.0371  -11.1629   -1.8576 H   0  0  0  0  0  0  0  0  0  0  0  0
    1.2754  -13.4837   -1.0843 H   0  0  0  0  0  0  0  0  0  0  0  0
    2.6820  -11.6421   -0.0142 H   0  0  0  0  0  0  0  0  0  0  0  0
    1.4426  -12.3208    1.0174 H   0  0  0  0  0  0  0  0  0  0  0  0
    1.1859   -9.6616   -0.5154 H   0  0  0  0  0  0  0  0  0  0  0  0
    1.3984   -9.8492    1.2359 H   0  0  0  0  0  0  0  0  0  0  0  0
   -1.0232   -9.4524    0.5512 H   0  0  0  0  0  0  0  0  0  0  0  0
   -0.7764  -10.9834    1.4423 H   0  0  0  0  0  0  0  0  0  0  0  0
   -3.3978  -13.2951   -1.4962 H   0  0  0  0  0  0  0  0  0  0  0  0
   -4.8233  -13.5378   -3.8384 H   0  0  0  0  0  0  0  0  0  0  0  0
   -3.0989   -9.8056   -4.0839 H   0  0  0  0  0  0  0  0  0  0  0  0
   -1.0631  -12.9106   -1.7649 H   0  0  0  0  0  0  0  0  0  0  0  0
   -0.8335  -13.1591   -0.0077 H   0  0  0  0  0  0  0  0  0  0  0  0
    5.3176  -12.6095   -7.9677 H   0  0  0  0  0  0  0  0  0  0  0  0
    6.6286  -14.6908   -8.2440 H   0  0  0  0  0  0  0  0  0  0  0  0
  1  2  1  0
  1 35  1  0
  1 36  1  0
  1 37  1  0
  2  3  1  0
  3  4  2  0
  3 34  1  0
  4  5  1  0
  4 38  1  0
  5  6  2  0
  5 39  1  0
  6  7  1  0
  6 33  1  0
  7  8  2  0
  7 32  1  0
  8  9  1  0
  9 10  1  0
 10 11  1  0
 10 32  2  0
 11 12  1  0
 11 40  1  0
 11 41  1  0
 12 13  1  0
 12 42  1  0
 12 43  1  0
 13 14  1  0
 13 44  1  0
 13 45  1  0
 14 15  1  0
 14 46  1  0
 14 47  1  0
 15 16  1  0
 15 48  1  0
 15 49  1  0
 16 17  1  0
 16 50  1  0
 17 18  2  0
 17 19  1  0
 19 20  1  0
 19 31  1  0
 19 51  1  6
 20 21  1  0
 20 52  1  0
 20 53  1  0
 21 22  1  0
 21 54  1  0
 21 55  1  0
 22 23  1  0
 22 56  1  0
 22 57  1  0
 23 24  1  0
 23 31  1  0
 24 25  2  0
 24 26  1  0
 26 27  1  0
 26 30  2  0
 27 28  2  0
 27 58  1  0
 28 29  1  0
 28 59  1  0
 29 30  1  0
 30 60  1  0
 31 61  1  0
 31 62  1  0
 33 34  2  0
 33 63  1  0
 34 64  1  0
M  END

