
     RDKit          3D

 89 89  0  0  0  0  0  0  0  0999 V2000
    2.1335   -4.7706   -3.5002 C   0  0  0  0  0  0  0  0  0  0  0  0
    2.5404   -4.1763   -2.1506 C   0  0  0  0  0  0  0  0  0  0  0  0
    3.4587   -5.1028   -1.3459 C   0  0  0  0  0  0  0  0  0  0  0  0
    3.9563   -4.5062   -0.0269 C   0  0  1  0  0  0  0  0  0  0  0  0
    2.8880   -4.3189    1.0383 C   0  0  0  0  0  0  0  0  0  0  0  0
    4.9413   -5.4078    0.5488 O   0  0  0  0  0  0  0  0  0  0  0  0
    6.2015   -5.2584    0.1567 C   0  0  0  0  0  0  0  0  0  0  0  0
    6.6384   -4.4234   -0.5866 O   0  0  0  0  0  0  0  0  0  0  0  0
    6.9281   -6.2236    0.7814 O   0  0  0  0  0  0  0  0  0  0  0  0
    8.2473   -6.4174    0.4306 C   0  0  0  0  0  0  0  0  0  0  0  0
    9.2135   -5.4129    0.4928 C   0  0  0  0  0  0  0  0  0  0  0  0
   10.5444   -5.7046    0.1930 C   0  0  0  0  0  0  0  0  0  0  0  0
   10.9434   -7.0021   -0.1763 C   0  0  0  0  0  0  0  0  0  0  0  0
   12.4171   -7.2969   -0.4415 C   0  0  2  0  0  0  0  0  0  0  0  0
   12.6778   -8.3971   -1.4859 C   0  0  0  0  0  0  0  0  0  0  0  0
   12.0452   -8.1743   -2.8642 C   0  0  1  0  0  0  0  0  0  0  0  0
   12.6013   -6.9817   -3.6243 C   0  0  0  0  0  0  0  0  0  0  0  0
   12.3074   -9.3368   -3.6928 O   0  0  0  0  0  0  0  0  0  0  0  0
   11.5429  -10.4170   -3.5009 C   0  0  0  0  0  0  0  0  0  0  0  0
   10.6704  -10.5138   -2.6646 O   0  0  0  0  0  0  0  0  0  0  0  0
   11.9149  -11.3418   -4.3807 O   0  0  0  0  0  0  0  0  0  0  0  0
   11.2755  -12.6642   -4.4479 C   0  0  1  0  0  0  0  0  0  0  0  0
   11.4520  -13.4032   -3.1177 C   0  0  0  0  0  0  0  0  0  0  0  0
    9.7966  -12.4995   -4.8112 C   0  0  0  0  0  0  0  0  0  0  0  0
   12.0255  -13.3548   -5.6038 C   0  0  0  0  0  0  0  0  0  0  0  0
   13.5336  -13.5288   -5.4215 C   0  0  0  0  0  0  0  0  0  0  0  0
   13.1701   -7.6402    0.8773 C   0  0  2  0  0  0  0  0  0  0  0  0
   14.1986   -7.9308    0.5980 H   0  0  0  0  0  0  0  0  0  0  0  0
   12.6194   -8.7230    1.6945 N   0  0  0  0  0  0  0  0  0  0  0  0
   13.3706   -6.3874    1.7672 C   0  0  0  0  0  0  0  0  0  0  0  0
   13.5962   -5.2903    1.3210 O   0  0  0  0  0  0  0  0  0  0  0  0
   13.3237   -6.6618    3.0671 O   0  0  0  0  0  0  0  0  0  0  0  0
    9.9586   -8.0026   -0.2453 C   0  0  0  0  0  0  0  0  0  0  0  0
    8.6268   -7.7105    0.0499 C   0  0  0  0  0  0  0  0  0  0  0  0
    7.7135   -8.7485    0.0309 O   0  0  0  0  0  0  0  0  0  0  0  0
    6.6340   -8.6659   -0.7837 C   0  0  0  0  0  0  0  0  0  0  0  0
    6.4313   -7.7983   -1.5921 O   0  0  0  0  0  0  0  0  0  0  0  0
    5.8675   -9.7191   -0.5291 O   0  0  0  0  0  0  0  0  0  0  0  0
    4.6418   -9.8615   -1.2983 C   0  0  1  0  0  0  0  0  0  0  0  0
    4.9538  -10.5461   -2.6225 C   0  0  0  0  0  0  0  0  0  0  0  0
    3.6660  -10.6355   -0.4181 C   0  0  0  0  0  0  0  0  0  0  0  0
    3.2879   -9.9251    0.8848 C   0  0  0  0  0  0  0  0  0  0  0  0
    2.3032  -10.7227    1.7404 C   0  0  0  0  0  0  0  0  0  0  0  0
    1.4787   -4.0851   -4.0612 H   0  0  0  0  0  0  0  0  0  0  0  0
    1.5886   -5.7210   -3.3715 H   0  0  0  0  0  0  0  0  0  0  0  0
    3.0160   -4.9790   -4.1272 H   0  0  0  0  0  0  0  0  0  0  0  0
    1.6320   -3.9428   -1.5682 H   0  0  0  0  0  0  0  0  0  0  0  0
    3.0533   -3.2113   -2.3143 H   0  0  0  0  0  0  0  0  0  0  0  0
    4.3415   -5.3547   -1.9563 H   0  0  0  0  0  0  0  0  0  0  0  0
    2.9425   -6.0560   -1.1306 H   0  0  0  0  0  0  0  0  0  0  0  0
    4.4659   -3.5520   -0.2332 H   0  0  0  0  0  0  0  0  0  0  0  0
    2.3940   -5.2760    1.2694 H   0  0  0  0  0  0  0  0  0  0  0  0
    2.1228   -3.6061    0.6968 H   0  0  0  0  0  0  0  0  0  0  0  0
    3.3316   -3.9266    1.9656 H   0  0  0  0  0  0  0  0  0  0  0  0
    8.9164   -4.4030    0.7741 H   0  0  0  0  0  0  0  0  0  0  0  0
   11.2934   -4.9134    0.2580 H   0  0  0  0  0  0  0  0  0  0  0  0
   12.8843   -6.3621   -0.7848 H   0  0  0  0  0  0  0  0  0  0  0  0
   12.3198   -9.3645   -1.1009 H   0  0  0  0  0  0  0  0  0  0  0  0
   13.7682   -8.4983   -1.6253 H   0  0  0  0  0  0  0  0  0  0  0  0
   10.9544   -8.0817   -2.7613 H   0  0  0  0  0  0  0  0  0  0  0  0
   13.6924   -7.0675   -3.7491 H   0  0  0  0  0  0  0  0  0  0  0  0
   12.3822   -6.0469   -3.0879 H   0  0  0  0  0  0  0  0  0  0  0  0
   12.1434   -6.9178   -4.6223 H   0  0  0  0  0  0  0  0  0  0  0  0
   10.8660  -12.9254   -2.3226 H   0  0  0  0  0  0  0  0  0  0  0  0
   12.5085  -13.4207   -2.8121 H   0  0  0  0  0  0  0  0  0  0  0  0
   11.1121  -14.4448   -3.2280 H   0  0  0  0  0  0  0  0  0  0  0  0
    9.2496  -11.9753   -4.0171 H   0  0  0  0  0  0  0  0  0  0  0  0
    9.3390  -13.4900   -4.9577 H   0  0  0  0  0  0  0  0  0  0  0  0
    9.6920  -11.9335   -5.7498 H   0  0  0  0  0  0  0  0  0  0  0  0
   11.8354  -12.7642   -6.5155 H   0  0  0  0  0  0  0  0  0  0  0  0
   11.5473  -14.3361   -5.7643 H   0  0  0  0  0  0  0  0  0  0  0  0
   14.0192  -12.5610   -5.2262 H   0  0  0  0  0  0  0  0  0  0  0  0
   13.9822  -13.9542   -6.3328 H   0  0  0  0  0  0  0  0  0  0  0  0
   13.7783  -14.2080   -4.5898 H   0  0  0  0  0  0  0  0  0  0  0  0
   12.9464   -9.6414    1.4025 H   0  0  0  0  0  0  0  0  0  0  0  0
   11.5979   -8.7312    1.6591 H   0  0  0  0  0  0  0  0  0  0  0  0
   13.0967   -7.6257    3.1046 H   0  0  0  0  0  0  0  0  0  0  0  0
   10.1814   -9.0181   -0.5783 H   0  0  0  0  0  0  0  0  0  0  0  0
    4.2583   -8.8466   -1.4894 H   0  0  0  0  0  0  0  0  0  0  0  0
    5.3865  -11.5447   -2.4526 H   0  0  0  0  0  0  0  0  0  0  0  0
    5.6629   -9.9460   -3.2111 H   0  0  0  0  0  0  0  0  0  0  0  0
    4.0329  -10.6628   -3.2149 H   0  0  0  0  0  0  0  0  0  0  0  0
    4.1023  -11.6257   -0.1945 H   0  0  0  0  0  0  0  0  0  0  0  0
    2.7581  -10.8254   -1.0177 H   0  0  0  0  0  0  0  0  0  0  0  0
    2.8572   -8.9356    0.6463 H   0  0  0  0  0  0  0  0  0  0  0  0
    4.2057   -9.7241    1.4613 H   0  0  0  0  0  0  0  0  0  0  0  0
    1.3594  -10.9127    1.2014 H   0  0  0  0  0  0  0  0  0  0  0  0
    2.0529  -10.1871    2.6698 H   0  0  0  0  0  0  0  0  0  0  0  0
    2.7222  -11.7024    2.0251 H   0  0  0  0  0  0  0  0  0  0  0  0
  1  2  1  0
  1 44  1  0
  1 45  1  0
  1 46  1  0
  2  3  1  0
  2 47  1  0
  2 48  1  0
  3  4  1  0
  3 49  1  0
  3 50  1  0
  4  5  1  0
  4  6  1  0
  4 51  1  6
  5 52  1  0
  5 53  1  0
  5 54  1  0
  6  7  1  0
  7  8  2  0
  7  9  1  0
  9 10  1  0
 10 11  2  0
 10 34  1  0
 11 12  1  0
 11 55  1  0
 12 13  2  0
 12 56  1  0
 13 14  1  0
 13 33  1  0
 14 15  1  0
 14 27  1  0
 14 57  1  6
 15 16  1  0
 15 58  1  0
 15 59  1  0
 16 17  1  0
 16 18  1  0
 16 60  1  1
 17 61  1  0
 17 62  1  0
 17 63  1  0
 18 19  1  0
 19 20  2  0
 19 21  1  0
 22 21  1  1
 22 23  1  0
 22 24  1  0
 22 25  1  0
 23 64  1  0
 23 65  1  0
 23 66  1  0
 24 67  1  0
 24 68  1  0
 24 69  1  0
 25 26  1  0
 25 70  1  0
 25 71  1  0
 26 72  1  0
 26 73  1  0
 26 74  1  0
 27 28  1  6
 27 29  1  0
 27 30  1  0
 29 75  1  0
 29 76  1  0
 30 31  2  0
 30 32  1  0
 32 77  1  0
 33 34  2  0
 33 78  1  0
 34 35  1  0
 35 36  1  0
 36 37  2  0
 36 38  1  0
 38 39  1  0
 39 40  1  0
 39 41  1  0
 39 79  1  6
 40 80  1  0
 40 81  1  0
 40 82  1  0
 41 42  1  0
 41 83  1  0
 41 84  1  0
 42 43  1  0
 42 85  1  0
 42 86  1  0
 43 87  1  0
 43 88  1  0
 43 89  1  0
M  END

