
     RDKit          3D

 45 46  0  0  0  0  0  0  0  0999 V2000
    5.4999   -2.2742    0.2544 C   0  0  0  0  0  0  0  0  0  0  0  0
    4.5494   -1.2156   -0.3231 C   0  0  0  0  0  0  0  0  0  0  0  0
    3.3097   -0.9571    0.4244 N   0  0  0  0  0  0  0  0  0  0  0  0
    2.4562   -2.1459    0.5399 C   0  0  0  0  0  0  0  0  0  0  0  0
    0.9853   -1.8427    0.7458 C   0  0  0  0  0  0  0  0  0  0  0  0
    0.1815   -1.4323   -0.2920 C   0  0  0  0  0  0  0  0  0  0  0  0
   -1.2005   -1.1540   -0.0955 C   0  0  0  0  0  0  0  0  0  0  0  0
   -2.0710   -0.7283   -1.1330 C   0  0  0  0  0  0  0  0  0  0  0  0
   -3.4039   -0.4779   -0.8709 C   0  0  0  0  0  0  0  0  0  0  0  0
   -3.9133   -0.6460    0.4403 C   0  0  0  0  0  0  0  0  0  0  0  0
   -3.0897   -1.0600    1.4694 C   0  0  0  0  0  0  0  0  0  0  0  0
   -1.7155   -1.3236    1.2289 C   0  0  0  0  0  0  0  0  0  0  0  0
   -0.9186   -1.7320    2.2567 N   0  0  0  0  0  0  0  0  0  0  0  0
    0.3443   -1.9727    2.0286 C   0  0  0  0  0  0  0  0  0  0  0  0
    1.1362   -2.3708    3.0482 O   0  0  0  0  0  0  0  0  0  0  0  0
    0.5364   -2.5395    4.3264 C   0  0  0  0  0  0  0  0  0  0  0  0
    3.5127   -0.1934    1.6631 C   0  0  0  0  0  0  0  0  0  0  0  0
    3.2225    1.3276    1.4871 C   0  0  1  0  0  0  0  0  0  0  0  0
    1.7174    1.6243    1.5537 C   0  0  0  0  0  0  0  0  0  0  0  0
    3.9765    2.1284    2.5473 C   0  0  0  0  0  0  0  0  0  0  0  0
    3.7254    1.7541    0.2228 O   0  0  0  0  0  0  0  0  0  0  0  0
    6.4078   -2.3429   -0.3666 H   0  0  0  0  0  0  0  0  0  0  0  0
    5.0412   -3.2754    0.2794 H   0  0  0  0  0  0  0  0  0  0  0  0
    5.8200   -2.0257    1.2791 H   0  0  0  0  0  0  0  0  0  0  0  0
    4.2690   -1.5092   -1.3509 H   0  0  0  0  0  0  0  0  0  0  0  0
    5.0789   -0.2553   -0.4096 H   0  0  0  0  0  0  0  0  0  0  0  0
    2.7924   -2.8329    1.3386 H   0  0  0  0  0  0  0  0  0  0  0  0
    2.5501   -2.6957   -0.4106 H   0  0  0  0  0  0  0  0  0  0  0  0
    0.6115   -1.3132   -1.2915 H   0  0  0  0  0  0  0  0  0  0  0  0
   -1.6694   -0.6010   -2.1423 H   0  0  0  0  0  0  0  0  0  0  0  0
   -4.0691   -0.1493   -1.6731 H   0  0  0  0  0  0  0  0  0  0  0  0
   -4.9698   -0.4451    0.6368 H   0  0  0  0  0  0  0  0  0  0  0  0
   -3.4643   -1.1951    2.4860 H   0  0  0  0  0  0  0  0  0  0  0  0
    1.3418   -2.8691    4.9959 H   0  0  0  0  0  0  0  0  0  0  0  0
   -0.2643   -3.2943    4.2916 H   0  0  0  0  0  0  0  0  0  0  0  0
    0.0991   -1.5965    4.6891 H   0  0  0  0  0  0  0  0  0  0  0  0
    4.5538   -0.3081    2.0173 H   0  0  0  0  0  0  0  0  0  0  0  0
    2.8733   -0.5971    2.4622 H   0  0  0  0  0  0  0  0  0  0  0  0
    1.2933    1.3739    2.5397 H   0  0  0  0  0  0  0  0  0  0  0  0
    1.1735    1.0416    0.7950 H   0  0  0  0  0  0  0  0  0  0  0  0
    1.5406    2.6927    1.3564 H   0  0  0  0  0  0  0  0  0  0  0  0
    3.6813    1.8180    3.5623 H   0  0  0  0  0  0  0  0  0  0  0  0
    3.7654    3.2032    2.4376 H   0  0  0  0  0  0  0  0  0  0  0  0
    5.0620    1.9816    2.4363 H   0  0  0  0  0  0  0  0  0  0  0  0
    3.3307    1.1415   -0.4184 H   0  0  0  0  0  0  0  0  0  0  0  0
  1  2  1  0
  1 22  1  0
  1 23  1  0
  1 24  1  0
  2  3  1  0
  2 25  1  0
  2 26  1  0
  3  4  1  0
  3 17  1  0
  4  5  1  0
  4 27  1  0
  4 28  1  0
  5  6  2  0
  5 14  1  0
  6  7  1  0
  6 29  1  0
  7  8  2  0
  7 12  1  0
  8  9  1  0
  8 30  1  0
  9 10  2  0
  9 31  1  0
 10 11  1  0
 10 32  1  0
 11 12  2  0
 11 33  1  0
 12 13  1  0
 13 14  2  0
 14 15  1  0
 15 16  1  0
 16 34  1  0
 16 35  1  0
 16 36  1  0
 17 18  1  0
 17 37  1  0
 17 38  1  0
 18 19  1  0
 18 20  1  0
 18 21  1  6
 19 39  1  0
 19 40  1  0
 19 41  1  0
 20 42  1  0
 20 43  1  0
 20 44  1  0
 21 45  1  0
M  END

