
     RDKit          3D

 44 47  0  0  0  0  0  0  0  0999 V2000
    8.3944    3.5791   -0.2822 C   0  0  0  0  0  0  0  0  0  0  0  0
    7.8582    2.2502   -0.7411 C   0  0  0  0  0  0  0  0  0  0  0  0
    8.6853    1.4433   -1.4204 N   0  0  0  0  0  0  0  0  0  0  0  0
    8.1821    0.2791   -1.8352 C   0  0  0  0  0  0  0  0  0  0  0  0
    6.8641   -0.1049   -1.5911 C   0  0  0  0  0  0  0  0  0  0  0  0
    6.0808    0.8043   -0.8713 C   0  0  0  0  0  0  0  0  0  0  0  0
    4.6198    0.5423   -0.5457 C   0  0  2  0  0  0  0  0  0  0  0  0
    4.3001    0.6830    0.9689 C   0  0  0  0  0  0  0  0  0  0  0  0
    4.2872   -0.7195    1.5919 C   0  0  1  0  0  0  0  0  0  0  0  0
    4.3246   -0.7737    3.1107 C   0  0  0  0  0  0  0  0  0  0  0  0
    4.3248   -2.5205    3.7277 S   0  0  0  0  0  0  0  0  0  0  0  0
    4.1910   -3.4429    2.1821 C   0  0  0  0  0  0  0  0  0  0  0  0
    4.5768   -4.7524    2.3517 N   0  0  0  0  0  0  0  0  0  0  0  0
    3.7341   -3.0252    1.0648 N   0  0  0  0  0  0  0  0  0  0  0  0
    3.2017   -1.6646    0.9767 C   0  0  1  0  0  0  0  0  0  0  0  0
    1.7620   -1.6662    1.5554 C   0  0  0  0  0  0  0  0  0  0  0  0
    0.9931   -2.8371    1.3806 C   0  0  0  0  0  0  0  0  0  0  0  0
   -0.3404   -2.9420    1.7723 C   0  0  0  0  0  0  0  0  0  0  0  0
   -0.9502   -1.8414    2.3675 C   0  0  0  0  0  0  0  0  0  0  0  0
   -2.2275   -1.9179    2.7604 F   0  0  0  0  0  0  0  0  0  0  0  0
   -0.2512   -0.6574    2.5628 C   0  0  0  0  0  0  0  0  0  0  0  0
    1.0780   -0.5945    2.1454 C   0  0  0  0  0  0  0  0  0  0  0  0
    1.6953    0.5892    2.3563 F   0  0  0  0  0  0  0  0  0  0  0  0
    3.0820   -1.2639   -0.5268 C   0  0  0  0  0  0  0  0  0  0  0  0
    4.2887   -0.7464   -1.0382 O   0  0  0  0  0  0  0  0  0  0  0  0
    6.5807    1.9699   -0.4515 N   0  0  0  0  0  0  0  0  0  0  0  0
    9.4894    3.5939   -0.3513 H   0  0  0  0  0  0  0  0  0  0  0  0
    8.0712    3.7914    0.7476 H   0  0  0  0  0  0  0  0  0  0  0  0
    7.9922    4.3859   -0.9185 H   0  0  0  0  0  0  0  0  0  0  0  0
    8.8623   -0.3812   -2.3876 H   0  0  0  0  0  0  0  0  0  0  0  0
    6.4532   -1.0544   -1.9298 H   0  0  0  0  0  0  0  0  0  0  0  0
    4.0376    1.3087   -1.0986 H   0  0  0  0  0  0  0  0  0  0  0  0
    3.3427    1.1955    1.1085 H   0  0  0  0  0  0  0  0  0  0  0  0
    5.0700    1.3163    1.4336 H   0  0  0  0  0  0  0  0  0  0  0  0
    5.2225   -1.1864    1.2457 H   0  0  0  0  0  0  0  0  0  0  0  0
    3.4696   -0.2630    3.5712 H   0  0  0  0  0  0  0  0  0  0  0  0
    5.2480   -0.3087    3.4872 H   0  0  0  0  0  0  0  0  0  0  0  0
    5.3103   -4.9414    3.0255 H   0  0  0  0  0  0  0  0  0  0  0  0
    4.6150   -5.2927    1.4926 H   0  0  0  0  0  0  0  0  0  0  0  0
    1.4805   -3.6985    0.9242 H   0  0  0  0  0  0  0  0  0  0  0  0
   -0.9073   -3.8628    1.6259 H   0  0  0  0  0  0  0  0  0  0  0  0
   -0.7200    0.2091    3.0301 H   0  0  0  0  0  0  0  0  0  0  0  0
    2.2657   -0.5279   -0.6558 H   0  0  0  0  0  0  0  0  0  0  0  0
    2.8398   -2.1619   -1.1118 H   0  0  0  0  0  0  0  0  0  0  0  0
  1  2  1  0
  1 27  1  0
  1 28  1  0
  1 29  1  0
  2  3  2  0
  2 26  1  0
  3  4  1  0
  4  5  2  0
  4 30  1  0
  5  6  1  0
  5 31  1  0
  6  7  1  0
  6 26  2  0
  7  8  1  0
  7 25  1  0
  7 32  1  6
  8  9  1  0
  8 33  1  0
  8 34  1  0
  9 10  1  0
  9 15  1  0
  9 35  1  6
 10 11  1  0
 10 36  1  0
 10 37  1  0
 11 12  1  0
 12 13  1  0
 12 14  2  0
 13 38  1  0
 13 39  1  0
 14 15  1  0
 15 16  1  1
 15 24  1  0
 16 17  2  0
 16 22  1  0
 17 18  1  0
 17 40  1  0
 18 19  2  0
 18 41  1  0
 19 20  1  0
 19 21  1  0
 21 22  2  0
 21 42  1  0
 22 23  1  0
 24 25  1  0
 24 43  1  0
 24 44  1  0
M  END

