
     RDKit          3D

 49 54  0  0  0  0  0  0  0  0999 V2000
    1.5939   -0.0104    3.6421 C   0  0  0  0  0  0  0  0  0  0  0  0
    2.7563   -0.0536    2.8436 O   0  0  0  0  0  0  0  0  0  0  0  0
    3.2768    1.0987    2.3522 C   0  0  0  0  0  0  0  0  0  0  0  0
    2.7284    2.3673    2.5923 C   0  0  0  0  0  0  0  0  0  0  0  0
    3.2935    3.4996    1.9971 C   0  0  0  0  0  0  0  0  0  0  0  0
    4.3981    3.3821    1.1532 C   0  0  0  0  0  0  0  0  0  0  0  0
    4.9482    2.1190    0.9221 C   0  0  0  0  0  0  0  0  0  0  0  0
    4.4206    0.9703    1.5279 C   0  0  0  0  0  0  0  0  0  0  0  0
    5.0266   -0.3425    1.2117 C   0  0  0  0  0  0  0  0  0  0  0  0
    5.1773   -0.7984   -0.0119 N   0  0  0  0  0  0  0  0  0  0  0  0
    5.8169   -2.0018    0.1144 C   0  0  0  0  0  0  0  0  0  0  0  0
    6.1930   -2.8994   -0.9416 C   0  0  0  0  0  0  0  0  0  0  0  0
    5.9191   -2.6445   -2.3011 C   0  0  0  0  0  0  0  0  0  0  0  0
    6.3140   -3.5757   -3.2448 C   0  0  0  0  0  0  0  0  0  0  0  0
    6.9742   -4.7420   -2.8012 C   0  0  0  0  0  0  0  0  0  0  0  0
    7.2426   -4.9981   -1.5334 N   0  0  0  0  0  0  0  0  0  0  0  0
    6.8687   -4.1036   -0.5971 C   0  0  0  0  0  0  0  0  0  0  0  0
    7.1869   -4.3884    0.8134 C   0  0  0  0  0  0  0  0  0  0  0  0
    7.8551   -5.5253    1.0799 N   0  0  0  0  0  0  0  0  0  0  0  0
    8.1889   -5.8102    2.3252 C   0  0  0  0  0  0  0  0  0  0  0  0
    7.8898   -4.9713    3.4147 C   0  0  0  0  0  0  0  0  0  0  0  0
    7.1957   -3.7982    3.1746 C   0  0  0  0  0  0  0  0  0  0  0  0
    6.8065   -3.4718    1.8544 C   0  0  0  0  0  0  0  0  0  0  0  0
    6.0856   -2.2907    1.4526 C   0  0  0  0  0  0  0  0  0  0  0  0
    5.5625   -1.2093    2.1614 N   0  0  0  0  0  0  0  0  0  0  0  0
    5.6188   -0.9734    3.5718 C   0  0  0  0  0  0  0  0  0  0  0  0
    4.8066   -1.7131    4.4415 C   0  0  0  0  0  0  0  0  0  0  0  0
    4.8800   -1.4895    5.8173 C   0  0  0  0  0  0  0  0  0  0  0  0
    5.7487   -0.5174    6.3277 C   0  0  0  0  0  0  0  0  0  0  0  0
    6.5480    0.2278    5.4569 C   0  0  0  0  0  0  0  0  0  0  0  0
    6.4883   -0.0013    4.0787 C   0  0  0  0  0  0  0  0  0  0  0  0
    1.3549   -1.0504    3.9009 H   0  0  0  0  0  0  0  0  0  0  0  0
    0.7400    0.4269    3.0953 H   0  0  0  0  0  0  0  0  0  0  0  0
    1.7561    0.5616    4.5728 H   0  0  0  0  0  0  0  0  0  0  0  0
    1.8516    2.4793    3.2296 H   0  0  0  0  0  0  0  0  0  0  0  0
    2.8522    4.4804    2.1929 H   0  0  0  0  0  0  0  0  0  0  0  0
    4.8298    4.2649    0.6768 H   0  0  0  0  0  0  0  0  0  0  0  0
    5.8070    2.0026    0.2577 H   0  0  0  0  0  0  0  0  0  0  0  0
    5.4014   -1.7219   -2.5717 H   0  0  0  0  0  0  0  0  0  0  0  0
    6.1229   -3.4229   -4.3097 H   0  0  0  0  0  0  0  0  0  0  0  0
    7.2939   -5.4963   -3.5318 H   0  0  0  0  0  0  0  0  0  0  0  0
    8.7303   -6.7510    2.4877 H   0  0  0  0  0  0  0  0  0  0  0  0
    8.2019   -5.2423    4.4261 H   0  0  0  0  0  0  0  0  0  0  0  0
    6.9575   -3.1303    4.0006 H   0  0  0  0  0  0  0  0  0  0  0  0
    4.1266   -2.4600    4.0287 H   0  0  0  0  0  0  0  0  0  0  0  0
    4.2522   -2.0734    6.4951 H   0  0  0  0  0  0  0  0  0  0  0  0
    5.8014   -0.3421    7.4050 H   0  0  0  0  0  0  0  0  0  0  0  0
    7.2280    0.9877    5.8493 H   0  0  0  0  0  0  0  0  0  0  0  0
    7.1165    0.5677    3.3909 H   0  0  0  0  0  0  0  0  0  0  0  0
  1  2  1  0
  1 32  1  0
  1 33  1  0
  1 34  1  0
  2  3  1  0
  3  4  2  0
  3  8  1  0
  4  5  1  0
  4 35  1  0
  5  6  2  0
  5 36  1  0
  6  7  1  0
  6 37  1  0
  7  8  2  0
  7 38  1  0
  8  9  1  0
  9 10  2  0
  9 25  1  0
 10 11  1  0
 11 12  2  0
 11 24  1  0
 12 13  1  0
 12 17  1  0
 13 14  2  0
 13 39  1  0
 14 15  1  0
 14 40  1  0
 15 16  2  0
 15 41  1  0
 16 17  1  0
 17 18  2  0
 18 19  1  0
 18 23  1  0
 19 20  2  0
 20 21  1  0
 20 42  1  0
 21 22  2  0
 21 43  1  0
 22 23  1  0
 22 44  1  0
 23 24  2  0
 24 25  1  0
 25 26  1  0
 26 27  2  0
 26 31  1  0
 27 28  1  0
 27 45  1  0
 28 29  2  0
 28 46  1  0
 29 30  1  0
 29 47  1  0
 30 31  2  0
 30 48  1  0
 31 49  1  0
M  END

