
     RDKit          3D

 37 39  0  0  0  0  0  0  0  0999 V2000
    1.3382    0.0013    1.1417 C   0  0  0  0  0  0  0  0  0  0  0  0
    2.6267    0.0244    0.3509 C   0  0  0  0  0  0  0  0  0  0  0  0
    3.3655    1.2167    0.2863 C   0  0  0  0  0  0  0  0  0  0  0  0
    4.5780    1.2997   -0.4005 C   0  0  0  0  0  0  0  0  0  0  0  0
    5.0843    0.1670   -1.0408 C   0  0  0  0  0  0  0  0  0  0  0  0
    4.3646   -1.0268   -0.9916 C   0  0  0  0  0  0  0  0  0  0  0  0
    3.1353   -1.1234   -0.3105 C   0  0  0  0  0  0  0  0  0  0  0  0
    2.4358   -2.4345   -0.2947 C   0  0  0  0  0  0  0  0  0  0  0  0
    3.0912   -3.6284    0.0592 C   0  0  0  0  0  0  0  0  0  0  0  0
    2.5109   -4.8196    0.0547 N   0  0  0  0  0  0  0  0  0  0  0  0
    1.2153   -4.8728   -0.3199 C   0  0  0  0  0  0  0  0  0  0  0  0
    0.6030   -6.0958   -0.3361 N   0  0  0  0  0  0  0  0  0  0  0  0
   -0.8080   -6.2598   -0.6656 C   0  0  0  0  0  0  0  0  0  0  0  0
   -0.9851   -7.3961   -1.6736 C   0  0  0  0  0  0  0  0  0  0  0  0
   -0.3654   -8.6091   -1.1568 N   0  0  0  0  0  0  0  0  0  0  0  0
    1.0612   -8.4302   -0.9218 C   0  0  0  0  0  0  0  0  0  0  0  0
    1.2766   -7.3134    0.1004 C   0  0  0  0  0  0  0  0  0  0  0  0
    0.4871   -3.7972   -0.6873 N   0  0  0  0  0  0  0  0  0  0  0  0
    1.0935   -2.6189   -0.6724 C   0  0  0  0  0  0  0  0  0  0  0  0
    1.3216    0.8168    1.8802 H   0  0  0  0  0  0  0  0  0  0  0  0
    1.2023   -0.9496    1.6784 H   0  0  0  0  0  0  0  0  0  0  0  0
    0.4532    0.1344    0.4963 H   0  0  0  0  0  0  0  0  0  0  0  0
    2.9807    2.1011    0.8026 H   0  0  0  0  0  0  0  0  0  0  0  0
    5.1268    2.2446   -0.4287 H   0  0  0  0  0  0  0  0  0  0  0  0
    6.0326    0.2120   -1.5822 H   0  0  0  0  0  0  0  0  0  0  0  0
    4.7496   -1.9093   -1.5091 H   0  0  0  0  0  0  0  0  0  0  0  0
    4.1424   -3.5993    0.3740 H   0  0  0  0  0  0  0  0  0  0  0  0
   -1.1854   -5.3107   -1.0616 H   0  0  0  0  0  0  0  0  0  0  0  0
   -1.3728   -6.5072    0.2542 H   0  0  0  0  0  0  0  0  0  0  0  0
   -0.5536   -7.0701   -2.6479 H   0  0  0  0  0  0  0  0  0  0  0  0
   -2.0614   -7.5747   -1.8306 H   0  0  0  0  0  0  0  0  0  0  0  0
   -0.5334   -9.3953   -1.7809 H   0  0  0  0  0  0  0  0  0  0  0  0
    1.6239   -8.1706   -1.8479 H   0  0  0  0  0  0  0  0  0  0  0  0
    1.4862   -9.3675   -0.5270 H   0  0  0  0  0  0  0  0  0  0  0  0
    2.3412   -7.0931    0.2350 H   0  0  0  0  0  0  0  0  0  0  0  0
    0.8577   -7.6349    1.0737 H   0  0  0  0  0  0  0  0  0  0  0  0
    0.4907   -1.7626   -0.9976 H   0  0  0  0  0  0  0  0  0  0  0  0
  1  2  1  0
  1 20  1  0
  1 21  1  0
  1 22  1  0
  2  3  2  0
  2  7  1  0
  3  4  1  0
  3 23  1  0
  4  5  2  0
  4 24  1  0
  5  6  1  0
  5 25  1  0
  6  7  2  0
  6 26  1  0
  7  8  1  0
  8  9  2  0
  8 19  1  0
  9 10  1  0
  9 27  1  0
 10 11  2  0
 11 12  1  0
 11 18  1  0
 12 13  1  0
 12 17  1  0
 13 14  1  0
 13 28  1  0
 13 29  1  0
 14 15  1  0
 14 30  1  0
 14 31  1  0
 15 16  1  0
 15 32  1  0
 16 17  1  0
 16 33  1  0
 16 34  1  0
 17 35  1  0
 17 36  1  0
 18 19  2  0
 19 37  1  0
M  END

