
     RDKit          3D

 33 33  0  0  0  0  0  0  0  0999 V2000
    2.5031   -3.1850   -1.3246 C   0  0  0  0  0  0  0  0  0  0  0  0
    4.0235   -3.2686   -1.1669 C   0  0  0  0  0  0  0  0  0  0  0  0
    4.7434   -1.9366   -0.9371 C   0  0  1  0  0  0  0  0  0  0  0  0
    5.8296   -2.0956   -1.0045 H   0  0  0  0  0  0  0  0  0  0  0  0
    4.3774   -1.0275   -1.9822 O   0  0  0  0  0  0  0  0  0  0  0  0
    5.3800   -0.4810   -2.7237 C   0  0  0  0  0  0  0  0  0  0  0  0
    4.8725    0.4814   -3.5422 N   0  0  0  0  0  0  0  0  0  0  0  0
    6.5390   -0.8240   -2.6855 O   0  0  0  0  0  0  0  0  0  0  0  0
    4.4564   -1.2266    0.4045 C   0  0  2  0  0  0  0  0  0  0  0  0
    3.3800   -0.9898    0.4630 H   0  0  0  0  0  0  0  0  0  0  0  0
    5.2096   -0.0283    0.3723 O   0  0  0  0  0  0  0  0  0  0  0  0
    4.8152    0.9478    1.3053 C   0  0  0  0  0  0  0  0  0  0  0  0
    4.8563   -2.0804    1.6030 C   0  0  0  0  0  0  0  0  0  0  0  0
    6.2232   -2.3326    1.8160 C   0  0  0  0  0  0  0  0  0  0  0  0
    6.6819   -3.0994    2.8843 C   0  0  0  0  0  0  0  0  0  0  0  0
    5.7520   -3.6313    3.7832 C   0  0  0  0  0  0  0  0  0  0  0  0
    6.2983   -4.5981    5.1309 Cl  0  0  0  0  0  0  0  0  0  0  0  0
    4.3877   -3.3909    3.6224 C   0  0  0  0  0  0  0  0  0  0  0  0
    3.9572   -2.6166    2.5389 C   0  0  0  0  0  0  0  0  0  0  0  0
    2.2280   -2.3243    2.4139 Cl  0  0  0  0  0  0  0  0  0  0  0  0
    2.0893   -4.1724   -1.5830 H   0  0  0  0  0  0  0  0  0  0  0  0
    2.2316   -2.4848   -2.1291 H   0  0  0  0  0  0  0  0  0  0  0  0
    2.0070   -2.8543   -0.3999 H   0  0  0  0  0  0  0  0  0  0  0  0
    4.4602   -3.7079   -2.0794 H   0  0  0  0  0  0  0  0  0  0  0  0
    4.2883   -3.9538   -0.3444 H   0  0  0  0  0  0  0  0  0  0  0  0
    3.9098    0.7776   -3.4588 H   0  0  0  0  0  0  0  0  0  0  0  0
    5.5138    0.9936   -4.1313 H   0  0  0  0  0  0  0  0  0  0  0  0
    5.4597    1.8256    1.1533 H   0  0  0  0  0  0  0  0  0  0  0  0
    4.9316    0.6033    2.3508 H   0  0  0  0  0  0  0  0  0  0  0  0
    3.7599    1.2517    1.1590 H   0  0  0  0  0  0  0  0  0  0  0  0
    6.9432   -1.8916    1.1226 H   0  0  0  0  0  0  0  0  0  0  0  0
    7.7474   -3.2840    3.0271 H   0  0  0  0  0  0  0  0  0  0  0  0
    3.6647   -3.7935    4.3312 H   0  0  0  0  0  0  0  0  0  0  0  0
  1  2  1  0
  1 21  1  0
  1 22  1  0
  1 23  1  0
  2  3  1  0
  2 24  1  0
  2 25  1  0
  3  4  1  1
  3  5  1  0
  3  9  1  0
  5  6  1  0
  6  7  1  0
  6  8  2  0
  7 26  1  0
  7 27  1  0
  9 10  1  1
  9 11  1  0
  9 13  1  0
 11 12  1  0
 12 28  1  0
 12 29  1  0
 12 30  1  0
 13 14  2  0
 13 19  1  0
 14 15  1  0
 14 31  1  0
 15 16  2  0
 15 32  1  0
 16 17  1  0
 16 18  1  0
 18 19  2  0
 18 33  1  0
 19 20  1  0
M  END

