
     RDKit          3D

 88 95  0  0  0  0  0  0  0  0999 V2000
    0.9985   -0.2942   -0.6476 C   0  0  0  0  0  0  0  0  0  0  0  0
    2.1119    0.3393    0.1887 C   0  0  0  0  0  0  0  0  0  0  0  0
    2.7673   -0.5880    1.2596 C   0  0  2  0  0  0  0  0  0  0  0  0
    3.9143    0.1634    2.0050 C   0  0  0  0  0  0  0  0  0  0  0  0
    4.6688   -0.6512    3.0574 C   0  0  0  0  0  0  0  0  0  0  0  0
    3.3531   -1.8018    0.5612 C   0  0  0  0  0  0  0  0  0  0  0  0
    4.3435   -1.7847   -0.4185 C   0  0  0  0  0  0  0  0  0  0  0  0
    4.7725   -2.9979   -0.9620 C   0  0  0  0  0  0  0  0  0  0  0  0
    6.1275   -3.0047   -2.3054 Br  0  0  0  0  0  0  0  0  0  0  0  0
    4.2186   -4.2055   -0.5314 C   0  0  0  0  0  0  0  0  0  0  0  0
    3.2260   -4.2045    0.4523 C   0  0  0  0  0  0  0  0  0  0  0  0
    2.7733   -3.0005    1.0186 C   0  0  0  0  0  0  0  0  0  0  0  0
    1.7598   -2.6603    2.0561 C   0  0  0  0  0  0  0  0  0  0  0  0
    1.7475   -1.2397    2.2073 C   0  0  0  0  0  0  0  0  0  0  0  0
    0.8734   -0.6388    3.1313 C   0  0  0  0  0  0  0  0  0  0  0  0
   -0.0014   -1.4490    3.9176 C   0  0  0  0  0  0  0  0  0  0  0  0
    0.0105   -2.8482    3.7694 C   0  0  0  0  0  0  0  0  0  0  0  0
    0.8984   -3.4584    2.8306 C   0  0  0  0  0  0  0  0  0  0  0  0
    0.7293   -4.9863    2.8465 C   0  0  1  0  0  0  0  0  0  0  0  0
    0.2112   -5.5635    1.4923 C   0  0  0  0  0  0  0  0  0  0  0  0
   -1.0732   -4.9338    0.9498 C   0  0  0  0  0  0  0  0  0  0  0  0
    2.0120   -5.7453    3.3098 C   0  0  0  0  0  0  0  0  0  0  0  0
    2.6006   -5.2990    4.6495 C   0  0  0  0  0  0  0  0  0  0  0  0
   -0.3499   -5.1646    3.9003 C   0  0  0  0  0  0  0  0  0  0  0  0
   -0.9000   -6.3708    4.3158 C   0  0  0  0  0  0  0  0  0  0  0  0
   -1.9022   -6.3989    5.3065 C   0  0  0  0  0  0  0  0  0  0  0  0
   -2.4751   -7.6734    5.7583 C   0  0  0  0  0  0  0  0  0  0  0  0
   -1.9344   -8.9430    5.6733 C   0  0  0  0  0  0  0  0  0  0  0  0
   -2.7736   -9.9583    6.2156 C   0  0  0  0  0  0  0  0  0  0  0  0
   -3.9532   -9.4610    6.7109 C   0  0  0  0  0  0  0  0  0  0  0  0
   -4.0522   -7.7469    6.5157 S   0  0  0  0  0  0  0  0  0  0  0  0
   -2.3196   -5.1647    5.8417 C   0  0  0  0  0  0  0  0  0  0  0  0
   -1.7713   -3.9556    5.4161 C   0  0  0  0  0  0  0  0  0  0  0  0
   -0.7674   -3.9292    4.4327 C   0  0  0  0  0  0  0  0  0  0  0  0
   -0.8557   -0.5734    4.8480 C   0  0  1  0  0  0  0  0  0  0  0  0
   -2.3843   -0.6556    4.5434 C   0  0  0  0  0  0  0  0  0  0  0  0
   -2.7897   -0.3749    3.0952 C   0  0  0  0  0  0  0  0  0  0  0  0
   -0.5853   -0.8339    6.3631 C   0  0  0  0  0  0  0  0  0  0  0  0
    0.8764   -0.7373    6.8037 C   0  0  0  0  0  0  0  0  0  0  0  0
   -0.3617    0.8179    4.4958 C   0  0  0  0  0  0  0  0  0  0  0  0
   -0.8093    2.0125    5.0557 C   0  0  0  0  0  0  0  0  0  0  0  0
   -0.2464    3.2132    4.6167 C   0  0  0  0  0  0  0  0  0  0  0  0
   -0.8398    4.8645    5.3661 Br  0  0  0  0  0  0  0  0  0  0  0  0
    0.7465    3.2161    3.6344 C   0  0  0  0  0  0  0  0  0  0  0  0
    1.1838    2.0086    3.0833 C   0  0  0  0  0  0  0  0  0  0  0  0
    0.6374    0.7841    3.5042 C   0  0  0  0  0  0  0  0  0  0  0  0
    0.6128    0.4319   -1.3807 H   0  0  0  0  0  0  0  0  0  0  0  0
    0.1515   -0.6121   -0.0198 H   0  0  0  0  0  0  0  0  0  0  0  0
    1.3521   -1.1742   -1.2068 H   0  0  0  0  0  0  0  0  0  0  0  0
    1.7148    1.2413    0.6718 H   0  0  0  0  0  0  0  0  0  0  0  0
    2.9179    0.6907   -0.4786 H   0  0  0  0  0  0  0  0  0  0  0  0
    3.5167    1.0678    2.4834 H   0  0  0  0  0  0  0  0  0  0  0  0
    4.6240    0.5211    1.2390 H   0  0  0  0  0  0  0  0  0  0  0  0
    4.0015   -0.9812    3.8689 H   0  0  0  0  0  0  0  0  0  0  0  0
    5.4657   -0.0413    3.5118 H   0  0  0  0  0  0  0  0  0  0  0  0
    5.1419   -1.5466    2.6254 H   0  0  0  0  0  0  0  0  0  0  0  0
    4.7825   -0.8464   -0.7621 H   0  0  0  0  0  0  0  0  0  0  0  0
    4.5591   -5.1488   -0.9611 H   0  0  0  0  0  0  0  0  0  0  0  0
    2.8259   -5.1663    0.7541 H   0  0  0  0  0  0  0  0  0  0  0  0
    0.0564   -6.6469    1.6356 H   0  0  0  0  0  0  0  0  0  0  0  0
    0.9928   -5.4760    0.7265 H   0  0  0  0  0  0  0  0  0  0  0  0
   -1.9139   -5.0426    1.6522 H   0  0  0  0  0  0  0  0  0  0  0  0
   -1.3651   -5.4177    0.0043 H   0  0  0  0  0  0  0  0  0  0  0  0
   -0.9423   -3.8597    0.7449 H   0  0  0  0  0  0  0  0  0  0  0  0
    2.7921   -5.6639    2.5419 H   0  0  0  0  0  0  0  0  0  0  0  0
    1.7563   -6.8180    3.3603 H   0  0  0  0  0  0  0  0  0  0  0  0
    2.9178   -4.2448    4.6212 H   0  0  0  0  0  0  0  0  0  0  0  0
    3.4869   -5.9044    4.8973 H   0  0  0  0  0  0  0  0  0  0  0  0
    1.8798   -5.4114    5.4741 H   0  0  0  0  0  0  0  0  0  0  0  0
   -0.5704   -7.3062    3.8588 H   0  0  0  0  0  0  0  0  0  0  0  0
   -0.9463   -9.1395    5.2557 H   0  0  0  0  0  0  0  0  0  0  0  0
   -2.5090  -11.0165    6.2429 H   0  0  0  0  0  0  0  0  0  0  0  0
   -4.7727  -10.0055    7.1780 H   0  0  0  0  0  0  0  0  0  0  0  0
   -3.0823   -5.1470    6.6240 H   0  0  0  0  0  0  0  0  0  0  0  0
   -2.1442   -3.0484    5.8790 H   0  0  0  0  0  0  0  0  0  0  0  0
   -2.8912    0.0613    5.2125 H   0  0  0  0  0  0  0  0  0  0  0  0
   -2.7657   -1.6449    4.8268 H   0  0  0  0  0  0  0  0  0  0  0  0
   -2.4862    0.6318    2.7687 H   0  0  0  0  0  0  0  0  0  0  0  0
   -3.8836   -0.4433    2.9860 H   0  0  0  0  0  0  0  0  0  0  0  0
   -2.3419   -1.1034    2.4013 H   0  0  0  0  0  0  0  0  0  0  0  0
   -0.9695   -1.8232    6.6432 H   0  0  0  0  0  0  0  0  0  0  0  0
   -1.1900   -0.1078    6.9337 H   0  0  0  0  0  0  0  0  0  0  0  0
    1.5035   -1.4847    6.2930 H   0  0  0  0  0  0  0  0  0  0  0  0
    0.9605   -0.9196    7.8868 H   0  0  0  0  0  0  0  0  0  0  0  0
    1.3042    0.2567    6.6005 H   0  0  0  0  0  0  0  0  0  0  0  0
   -1.5846    2.0209    5.8237 H   0  0  0  0  0  0  0  0  0  0  0  0
    1.1809    4.1582    3.2969 H   0  0  0  0  0  0  0  0  0  0  0  0
    1.9563    2.0615    2.3238 H   0  0  0  0  0  0  0  0  0  0  0  0
  1  2  1  0
  1 47  1  0
  1 48  1  0
  1 49  1  0
  3  2  1  6
  2 50  1  0
  2 51  1  0
  3  4  1  0
  3  6  1  0
  3 14  1  0
  4  5  1  0
  4 52  1  0
  4 53  1  0
  5 54  1  0
  5 55  1  0
  5 56  1  0
  6  7  2  0
  6 12  1  0
  7  8  1  0
  7 57  1  0
  8  9  1  0
  8 10  2  0
 10 11  1  0
 10 58  1  0
 11 12  2  0
 11 59  1  0
 12 13  1  0
 13 14  2  0
 13 18  1  0
 14 15  1  0
 15 16  2  0
 15 46  1  0
 16 17  1  0
 16 35  1  0
 17 18  2  0
 17 34  1  0
 18 19  1  0
 19 20  1  6
 19 22  1  0
 19 24  1  0
 20 21  1  0
 20 60  1  0
 20 61  1  0
 21 62  1  0
 21 63  1  0
 21 64  1  0
 22 23  1  0
 22 65  1  0
 22 66  1  0
 23 67  1  0
 23 68  1  0
 23 69  1  0
 24 25  1  0
 24 34  2  0
 25 26  2  0
 25 70  1  0
 26 27  1  0
 26 32  1  0
 27 28  2  0
 27 31  1  0
 28 29  1  0
 28 71  1  0
 29 30  2  0
 29 72  1  0
 30 31  1  0
 30 73  1  0
 32 33  2  0
 32 74  1  0
 33 34  1  0
 33 75  1  0
 35 36  1  1
 35 38  1  0
 35 40  1  0
 36 37  1  0
 36 76  1  0
 36 77  1  0
 37 78  1  0
 37 79  1  0
 37 80  1  0
 38 39  1  0
 38 81  1  0
 38 82  1  0
 39 83  1  0
 39 84  1  0
 39 85  1  0
 40 41  1  0
 40 46  2  0
 41 42  2  0
 41 86  1  0
 42 43  1  0
 42 44  1  0
 44 45  2  0
 44 87  1  0
 45 46  1  0
 45 88  1  0
M  END

