
     RDKit          3D

 49 52  0  0  0  0  0  0  0  0999 V2000
    1.5424   -1.6365   -1.1325 C   0  0  0  0  0  0  0  0  0  0  0  0
    2.0063   -0.6539   -0.0562 C   0  0  0  0  0  0  0  0  0  0  0  0
    3.3901   -0.9761    0.5401 C   0  0  2  0  0  0  0  0  0  0  0  0
    4.5191   -1.0157   -0.4992 C   0  0  0  0  0  0  0  0  0  0  0  0
    4.7214    0.2829   -1.2816 C   0  0  0  0  0  0  0  0  0  0  0  0
    3.3729   -2.2814    1.1481 O   0  0  0  0  0  0  0  0  0  0  0  0
    2.8369   -2.2139    2.4622 C   0  0  1  0  0  0  0  0  0  0  0  0
    1.7325   -2.2753    2.4668 H   0  0  0  0  0  0  0  0  0  0  0  0
    3.3982   -3.3624    3.2417 C   0  0  0  0  0  0  0  0  0  0  0  0
    4.5159   -4.1682    2.9968 C   0  0  0  0  0  0  0  0  0  0  0  0
    4.6290   -5.1175    4.0308 C   0  0  0  0  0  0  0  0  0  0  0  0
    3.5698   -4.8902    4.9151 C   0  0  0  0  0  0  0  0  0  0  0  0
    3.0825   -5.4440    6.1273 C   0  0  0  0  0  0  0  0  0  0  0  0
    3.7886   -6.6004    6.7737 C   0  0  0  0  0  0  0  0  0  0  0  0
    2.0009   -4.9500    6.7025 N   0  0  0  0  0  0  0  0  0  0  0  0
    1.3819   -3.9032    6.0904 C   0  0  0  0  0  0  0  0  0  0  0  0
    1.7274   -3.3001    4.9826 N   0  0  0  0  0  0  0  0  0  0  0  0
    2.8315   -3.8043    4.3980 N   0  0  0  0  0  0  0  0  0  0  0  0
    3.2074   -0.8018    2.9899 C   0  0  2  0  0  0  0  0  0  0  0  0
    3.9510   -0.8589    3.8029 H   0  0  0  0  0  0  0  0  0  0  0  0
    2.0779   -0.0479    3.3828 O   0  0  0  0  0  0  0  0  0  0  0  0
    2.2914    1.2950    2.9726 C   0  0  1  0  0  0  0  0  0  0  0  0
    0.9483    1.9363    2.6674 C   0  0  0  0  0  0  0  0  0  0  0  0
    3.0874    2.0736    4.0248 C   0  0  0  0  0  0  0  0  0  0  0  0
    3.0579    1.1951    1.7640 O   0  0  0  0  0  0  0  0  0  0  0  0
    3.7321   -0.0451    1.7474 C   0  0  2  0  0  0  0  0  0  0  0  0
    4.8231    0.1129    1.7935 H   0  0  0  0  0  0  0  0  0  0  0  0
    0.5004   -1.4299   -1.4234 H   0  0  0  0  0  0  0  0  0  0  0  0
    1.5942   -2.6729   -0.7649 H   0  0  0  0  0  0  0  0  0  0  0  0
    2.1546   -1.5748   -2.0463 H   0  0  0  0  0  0  0  0  0  0  0  0
    1.2747   -0.6435    0.7674 H   0  0  0  0  0  0  0  0  0  0  0  0
    2.0195    0.3763   -0.4428 H   0  0  0  0  0  0  0  0  0  0  0  0
    4.3289   -1.8526   -1.1899 H   0  0  0  0  0  0  0  0  0  0  0  0
    5.4444   -1.2792    0.0413 H   0  0  0  0  0  0  0  0  0  0  0  0
    3.8636    0.5085   -1.9343 H   0  0  0  0  0  0  0  0  0  0  0  0
    5.6128    0.2127   -1.9245 H   0  0  0  0  0  0  0  0  0  0  0  0
    4.8600    1.1477   -0.6124 H   0  0  0  0  0  0  0  0  0  0  0  0
    5.1595   -4.0619    2.1272 H   0  0  0  0  0  0  0  0  0  0  0  0
    5.3879   -5.8903    4.1310 H   0  0  0  0  0  0  0  0  0  0  0  0
    3.8169   -7.4695    6.0958 H   0  0  0  0  0  0  0  0  0  0  0  0
    3.2654   -6.8778    7.6975 H   0  0  0  0  0  0  0  0  0  0  0  0
    4.8336   -6.3396    7.0096 H   0  0  0  0  0  0  0  0  0  0  0  0
    0.4843   -3.5066    6.5761 H   0  0  0  0  0  0  0  0  0  0  0  0
    0.3370    1.9863    3.5801 H   0  0  0  0  0  0  0  0  0  0  0  0
    0.4129    1.3443    1.9131 H   0  0  0  0  0  0  0  0  0  0  0  0
    1.0957    2.9560    2.2829 H   0  0  0  0  0  0  0  0  0  0  0  0
    2.5235    2.1282    4.9680 H   0  0  0  0  0  0  0  0  0  0  0  0
    3.2885    3.0947    3.6687 H   0  0  0  0  0  0  0  0  0  0  0  0
    4.0536    1.5870    4.2266 H   0  0  0  0  0  0  0  0  0  0  0  0
  1  2  1  0
  1 28  1  0
  1 29  1  0
  1 30  1  0
  3  2  1  6
  2 31  1  0
  2 32  1  0
  3  4  1  0
  3  6  1  0
  3 26  1  0
  4  5  1  0
  4 33  1  0
  4 34  1  0
  5 35  1  0
  5 36  1  0
  5 37  1  0
  6  7  1  0
  7  8  1  6
  7  9  1  0
  7 19  1  0
  9 10  2  0
  9 18  1  0
 10 11  1  0
 10 38  1  0
 11 12  2  0
 11 39  1  0
 12 13  1  0
 12 18  1  0
 13 14  1  0
 13 15  2  0
 14 40  1  0
 14 41  1  0
 14 42  1  0
 15 16  1  0
 16 17  2  0
 16 43  1  0
 17 18  1  0
 19 20  1  1
 19 21  1  0
 19 26  1  0
 21 22  1  0
 22 23  1  6
 22 24  1  0
 22 25  1  0
 23 44  1  0
 23 45  1  0
 23 46  1  0
 24 47  1  0
 24 48  1  0
 24 49  1  0
 25 26  1  0
 26 27  1  1
M  END

