
     RDKit          3D

 72 76  0  0  0  0  0  0  0  0999 V2000
    8.0980    0.0811   -2.0524 N   0  0  0  0  0  0  0  0  0  0  0  0
    7.9878    1.2898   -1.2310 C   0  0  2  0  0  0  0  0  0  0  0  0
    6.6669    2.0179   -1.5344 C   0  0  0  0  0  0  0  0  0  0  0  0
    6.7298    2.8149   -2.8115 C   0  0  0  0  0  0  0  0  0  0  0  0
    5.4586    3.0492   -3.5873 C   0  0  0  0  0  0  0  0  0  0  0  0
    4.3673    3.5150   -2.7429 N   0  0  0  0  0  0  0  0  0  0  0  0
    4.4985    4.8861   -2.2462 C   0  0  0  0  0  0  0  0  0  0  0  0
    4.1064    5.9595   -3.2800 C   0  0  0  0  0  0  0  0  0  0  0  0
    2.7229    5.7169   -3.9236 C   0  0  2  0  0  0  0  0  0  0  0  0
    1.5788    6.1070   -2.9748 C   0  0  0  0  0  0  0  0  0  0  0  0
    1.7504    6.1628   -1.7636 O   0  0  0  0  0  0  0  0  0  0  0  0
    0.3412    6.3707   -3.5259 N   0  0  0  0  0  0  0  0  0  0  0  0
   -0.7744    6.7093   -2.6443 C   0  0  0  0  0  0  0  0  0  0  0  0
   -1.3428    8.0879   -2.9878 C   0  0  0  0  0  0  0  0  0  0  0  0
   -1.7430    8.2174   -4.4663 C   0  0  2  0  0  0  0  0  0  0  0  0
   -0.5665    7.7617   -5.3561 C   0  0  0  0  0  0  0  0  0  0  0  0
   -0.0131    6.3916   -4.9379 C   0  0  0  0  0  0  0  0  0  0  0  0
   -2.2329    9.6386   -4.7653 C   0  0  0  0  0  0  0  0  0  0  0  0
   -2.8898    9.8034   -6.1454 C   0  0  1  0  0  0  0  0  0  0  0  0
   -1.9238   10.0247   -7.2316 N   0  0  0  0  0  0  0  0  0  0  0  0
   -1.2957   11.2134   -7.3851 C   0  0  0  0  0  0  0  0  0  0  0  0
   -1.4166   12.1769   -6.6574 O   0  0  0  0  0  0  0  0  0  0  0  0
   -0.3155   11.2723   -8.5853 C   0  0  1  0  0  0  0  0  0  0  0  0
   -0.4566   10.2094   -9.4092 F   0  0  0  0  0  0  0  0  0  0  0  0
   -0.5158   12.3758   -9.2987 F   0  0  0  0  0  0  0  0  0  0  0  0
    0.9453   11.2730   -8.1404 F   0  0  0  0  0  0  0  0  0  0  0  0
   -3.7676    8.6137   -6.4697 C   0  0  0  0  0  0  0  0  0  0  0  0
   -4.6890    8.6726   -7.5294 C   0  0  0  0  0  0  0  0  0  0  0  0
   -5.5041    7.5843   -7.8067 C   0  0  0  0  0  0  0  0  0  0  0  0
   -6.3802    7.6565   -8.8208 F   0  0  0  0  0  0  0  0  0  0  0  0
   -5.4343    6.4167   -7.0441 C   0  0  0  0  0  0  0  0  0  0  0  0
   -4.5231    6.3481   -5.9956 C   0  0  0  0  0  0  0  0  0  0  0  0
   -3.6823    7.4367   -5.7022 C   0  0  0  0  0  0  0  0  0  0  0  0
   -2.8404    7.2872   -4.6454 O   0  0  0  0  0  0  0  0  0  0  0  0
    2.5991    4.2356   -4.3712 C   0  0  0  0  0  0  0  0  0  0  0  0
    3.0246    3.2681   -3.2514 C   0  0  0  0  0  0  0  0  0  0  0  0
    7.9311    3.2886   -3.1967 C   0  0  0  0  0  0  0  0  0  0  0  0
    9.1289    2.9608   -2.4126 C   0  0  0  0  0  0  0  0  0  0  0  0
    9.1992    2.0781   -1.4889 N   0  0  0  0  0  0  0  0  0  0  0  0
    7.4969   -0.6513   -1.6710 H   0  0  0  0  0  0  0  0  0  0  0  0
    9.0567   -0.2656   -1.9873 H   0  0  0  0  0  0  0  0  0  0  0  0
    8.0048    1.0642   -0.1452 H   0  0  0  0  0  0  0  0  0  0  0  0
    6.4199    2.7058   -0.7046 H   0  0  0  0  0  0  0  0  0  0  0  0
    5.8365    1.2936   -1.5683 H   0  0  0  0  0  0  0  0  0  0  0  0
    5.1529    2.0728   -4.0081 H   0  0  0  0  0  0  0  0  0  0  0  0
    5.6824    3.7040   -4.4581 H   0  0  0  0  0  0  0  0  0  0  0  0
    5.5380    5.0482   -1.9198 H   0  0  0  0  0  0  0  0  0  0  0  0
    3.8527    4.9984   -1.3632 H   0  0  0  0  0  0  0  0  0  0  0  0
    4.8534    5.9807   -4.0926 H   0  0  0  0  0  0  0  0  0  0  0  0
    4.1310    6.9511   -2.8020 H   0  0  0  0  0  0  0  0  0  0  0  0
    2.6584    6.3556   -4.8189 H   0  0  0  0  0  0  0  0  0  0  0  0
   -0.4029    6.6823   -1.6137 H   0  0  0  0  0  0  0  0  0  0  0  0
   -1.5659    5.9469   -2.7514 H   0  0  0  0  0  0  0  0  0  0  0  0
   -0.5896    8.8612   -2.7643 H   0  0  0  0  0  0  0  0  0  0  0  0
   -2.2263    8.2935   -2.3629 H   0  0  0  0  0  0  0  0  0  0  0  0
    0.2336    8.5180   -5.2958 H   0  0  0  0  0  0  0  0  0  0  0  0
   -0.8823    7.7098   -6.4089 H   0  0  0  0  0  0  0  0  0  0  0  0
    0.8534    6.1412   -5.5586 H   0  0  0  0  0  0  0  0  0  0  0  0
   -0.7805    5.6196   -5.1299 H   0  0  0  0  0  0  0  0  0  0  0  0
   -1.4142   10.3633   -4.6558 H   0  0  0  0  0  0  0  0  0  0  0  0
   -2.9876    9.8981   -4.0047 H   0  0  0  0  0  0  0  0  0  0  0  0
   -3.5092   10.7143   -6.1015 H   0  0  0  0  0  0  0  0  0  0  0  0
   -1.8050    9.3082   -7.9389 H   0  0  0  0  0  0  0  0  0  0  0  0
   -4.7818    9.5767   -8.1361 H   0  0  0  0  0  0  0  0  0  0  0  0
   -6.0926    5.5789   -7.2820 H   0  0  0  0  0  0  0  0  0  0  0  0
   -4.4423    5.4510   -5.3788 H   0  0  0  0  0  0  0  0  0  0  0  0
    3.2430    4.0817   -5.2545 H   0  0  0  0  0  0  0  0  0  0  0  0
    1.5700    4.0027   -4.6920 H   0  0  0  0  0  0  0  0  0  0  0  0
    2.9604    2.2276   -3.6105 H   0  0  0  0  0  0  0  0  0  0  0  0
    2.3183    3.3575   -2.4071 H   0  0  0  0  0  0  0  0  0  0  0  0
    8.0411    3.9195   -4.0838 H   0  0  0  0  0  0  0  0  0  0  0  0
   10.0526    3.5150   -2.6459 H   0  0  0  0  0  0  0  0  0  0  0  0
  1  2  1  0
  1 40  1  0
  1 41  1  0
  2  3  1  0
  2 39  1  0
  2 42  1  1
  3  4  1  0
  3 43  1  0
  3 44  1  0
  4  5  1  0
  4 37  2  0
  5  6  1  0
  5 45  1  0
  5 46  1  0
  6  7  1  0
  6 36  1  0
  7  8  1  0
  7 47  1  0
  7 48  1  0
  8  9  1  0
  8 49  1  0
  8 50  1  0
  9 10  1  0
  9 35  1  0
  9 51  1  6
 10 11  2  0
 10 12  1  0
 12 13  1  0
 12 17  1  0
 13 14  1  0
 13 52  1  0
 13 53  1  0
 14 15  1  0
 14 54  1  0
 14 55  1  0
 15 16  1  0
 15 18  1  0
 15 34  1  1
 16 17  1  0
 16 56  1  0
 16 57  1  0
 17 58  1  0
 17 59  1  0
 18 19  1  0
 18 60  1  0
 18 61  1  0
 19 20  1  0
 19 27  1  0
 19 62  1  1
 20 21  1  0
 20 63  1  0
 21 22  2  0
 21 23  1  0
 23 24  1  6
 23 25  1  0
 23 26  1  0
 27 28  2  0
 27 33  1  0
 28 29  1  0
 28 64  1  0
 29 30  1  0
 29 31  2  0
 31 32  1  0
 31 65  1  0
 32 33  2  0
 32 66  1  0
 33 34  1  0
 35 36  1  0
 35 67  1  0
 35 68  1  0
 36 69  1  0
 36 70  1  0
 37 38  1  0
 37 71  1  0
 38 39  2  0
 38 72  1  0
M  END

