
     RDKit          3D

 40 41  0  0  0  0  0  0  0  0999 V2000
    1.8216    2.3289   -1.5004 C   0  0  0  0  0  0  0  0  0  0  0  0
    2.5107    1.0215   -1.0917 C   0  0  1  0  0  0  0  0  0  0  0  0
    2.8008    0.1474   -2.3198 C   0  0  0  0  0  0  0  0  0  0  0  0
    3.7627    1.2937   -0.2156 C   0  0  1  0  0  0  0  0  0  0  0  0
    3.4523    1.9715    0.5936 H   0  0  0  0  0  0  0  0  0  0  0  0
    4.3644    0.0329    0.4148 C   0  0  0  0  0  0  0  0  0  0  0  0
    4.7942    2.0351   -0.9396 N   0  0  0  0  0  0  0  0  0  0  0  0
    5.1658    3.2976   -0.6120 C   0  0  0  0  0  0  0  0  0  0  0  0
    4.6312    3.9832    0.2407 O   0  0  0  0  0  0  0  0  0  0  0  0
    6.3282    3.9232   -1.4009 C   0  0  0  0  0  0  0  0  0  0  0  0
    7.2663    2.8913   -2.5932 S   0  0  0  0  0  0  0  0  0  0  0  0
    8.3131    2.0373   -1.4712 C   0  0  0  0  0  0  0  0  0  0  0  0
    8.3520    2.2020   -0.1632 N   0  0  0  0  0  0  0  0  0  0  0  0
    9.2640    1.3191    0.3032 N   0  0  0  0  0  0  0  0  0  0  0  0
    9.7779    0.6306   -0.6428 N   0  0  0  0  0  0  0  0  0  0  0  0
    9.2007    1.0566   -1.8033 N   0  0  0  0  0  0  0  0  0  0  0  0
    9.5452    0.4580   -3.0478 C   0  0  0  0  0  0  0  0  0  0  0  0
    9.8283   -0.9141   -3.0828 C   0  0  0  0  0  0  0  0  0  0  0  0
   10.1767   -1.5049   -4.2984 C   0  0  0  0  0  0  0  0  0  0  0  0
   10.2362   -0.7511   -5.4739 C   0  0  0  0  0  0  0  0  0  0  0  0
    9.9520    0.6105   -5.4048 C   0  0  0  0  0  0  0  0  0  0  0  0
   10.0158    1.3503   -6.5170 F   0  0  0  0  0  0  0  0  0  0  0  0
    9.6151    1.2383   -4.2075 C   0  0  0  0  0  0  0  0  0  0  0  0
    0.8808    2.1273   -2.0375 H   0  0  0  0  0  0  0  0  0  0  0  0
    2.4657    2.9227   -2.1695 H   0  0  0  0  0  0  0  0  0  0  0  0
    1.5894    2.9556   -0.6255 H   0  0  0  0  0  0  0  0  0  0  0  0
    1.8137    0.4633   -0.4398 H   0  0  0  0  0  0  0  0  0  0  0  0
    3.4975    0.6488   -3.0137 H   0  0  0  0  0  0  0  0  0  0  0  0
    1.8749   -0.0495   -2.8832 H   0  0  0  0  0  0  0  0  0  0  0  0
    3.2329   -0.8289   -2.0501 H   0  0  0  0  0  0  0  0  0  0  0  0
    3.6005   -0.5232    0.9810 H   0  0  0  0  0  0  0  0  0  0  0  0
    5.1779    0.3012    1.1055 H   0  0  0  0  0  0  0  0  0  0  0  0
    4.7801   -0.6506   -0.3440 H   0  0  0  0  0  0  0  0  0  0  0  0
    5.3295    1.5544   -1.6552 H   0  0  0  0  0  0  0  0  0  0  0  0
    7.0302    4.3448   -0.6702 H   0  0  0  0  0  0  0  0  0  0  0  0
    5.9265    4.7488   -2.0075 H   0  0  0  0  0  0  0  0  0  0  0  0
    9.7806   -1.4954   -2.1625 H   0  0  0  0  0  0  0  0  0  0  0  0
   10.4003   -2.5735   -4.3318 H   0  0  0  0  0  0  0  0  0  0  0  0
   10.5002   -1.1967   -6.4345 H   0  0  0  0  0  0  0  0  0  0  0  0
    9.4332    2.3131   -4.1995 H   0  0  0  0  0  0  0  0  0  0  0  0
  1  2  1  0
  1 24  1  0
  1 25  1  0
  1 26  1  0
  2  3  1  0
  2  4  1  0
  2 27  1  1
  3 28  1  0
  3 29  1  0
  3 30  1  0
  4  5  1  1
  4  6  1  0
  4  7  1  0
  6 31  1  0
  6 32  1  0
  6 33  1  0
  7  8  1  0
  7 34  1  0
  8  9  2  0
  8 10  1  0
 10 11  1  0
 10 35  1  0
 10 36  1  0
 11 12  1  0
 12 13  2  0
 12 16  1  0
 13 14  1  0
 14 15  2  0
 15 16  1  0
 16 17  1  0
 17 18  2  0
 17 23  1  0
 18 19  1  0
 18 37  1  0
 19 20  2  0
 19 38  1  0
 20 21  1  0
 20 39  1  0
 21 22  1  0
 21 23  2  0
 23 40  1  0
M  END

