
     RDKit          3D

 57 60  0  0  0  0  0  0  0  0999 V2000
    8.3642    2.9611    4.4007 C   0  0  0  0  0  0  0  0  0  0  0  0
    7.2664    3.2640    3.3788 C   0  0  0  0  0  0  0  0  0  0  0  0
    7.8243    3.4554    1.9776 C   0  0  0  0  0  0  0  0  0  0  0  0
    8.7893    4.1773    1.7329 O   0  0  0  0  0  0  0  0  0  0  0  0
    7.1745    2.7788    1.0010 N   0  0  0  0  0  0  0  0  0  0  0  0
    7.5607    2.9064   -0.3134 N   0  0  0  0  0  0  0  0  0  0  0  0
    6.9815    2.1119   -1.2447 C   0  0  0  0  0  0  0  0  0  0  0  0
    6.0682    1.3425   -0.9683 O   0  0  0  0  0  0  0  0  0  0  0  0
    7.4684    2.3130   -2.6800 C   0  0  0  0  0  0  0  0  0  0  0  0
    8.8967    2.7570   -2.9611 C   0  0  0  0  0  0  0  0  0  0  0  0
    9.4494    2.5132   -4.2399 C   0  0  0  0  0  0  0  0  0  0  0  0
   10.7289    2.9593   -4.5957 C   0  0  0  0  0  0  0  0  0  0  0  0
   11.3364    2.7302   -5.9492 C   0  0  0  0  0  0  0  0  0  0  0  0
   11.4264    3.6461   -3.5863 C   0  0  0  0  0  0  0  0  0  0  0  0
   12.6772    4.2196   -3.5606 N   0  0  0  0  0  0  0  0  0  0  0  0
   12.8224    4.7108   -2.3493 C   0  0  0  0  0  0  0  0  0  0  0  0
   14.0578    5.4282   -1.8851 C   0  0  0  0  0  0  0  0  0  0  0  0
   15.0291    5.7412   -3.0227 C   0  0  0  0  0  0  0  0  0  0  0  0
   11.7083    4.4863   -1.5385 N   0  0  0  0  0  0  0  0  0  0  0  0
   11.4446    4.8353   -0.1432 C   0  0  2  0  0  0  0  0  0  0  0  0
   11.1650    6.3320    0.1432 C   0  0  0  0  0  0  0  0  0  0  0  0
   11.4804    6.4896    1.6468 C   0  0  0  0  0  0  0  0  0  0  0  0
   12.5332    5.4301    1.8947 C   0  0  0  0  0  0  0  0  0  0  0  0
   13.4046    5.2936    2.9763 C   0  0  0  0  0  0  0  0  0  0  0  0
   14.2569    4.1836    3.0073 C   0  0  0  0  0  0  0  0  0  0  0  0
   15.4727    3.9828    4.4674 Br  0  0  0  0  0  0  0  0  0  0  0  0
   14.2407    3.2172    1.9952 C   0  0  0  0  0  0  0  0  0  0  0  0
   13.3575    3.3626    0.9183 C   0  0  0  0  0  0  0  0  0  0  0  0
   12.5203    4.4763    0.8662 C   0  0  0  0  0  0  0  0  0  0  0  0
   10.7980    3.8140   -2.3354 C   0  0  0  0  0  0  0  0  0  0  0  0
    9.5740    3.4148   -2.0090 N   0  0  0  0  0  0  0  0  0  0  0  0
    7.9528    2.9316    5.4210 H   0  0  0  0  0  0  0  0  0  0  0  0
    9.1450    3.7343    4.3604 H   0  0  0  0  0  0  0  0  0  0  0  0
    8.8420    1.9894    4.1976 H   0  0  0  0  0  0  0  0  0  0  0  0
    6.7615    4.2090    3.6474 H   0  0  0  0  0  0  0  0  0  0  0  0
    6.4913    2.4800    3.3832 H   0  0  0  0  0  0  0  0  0  0  0  0
    6.3926    2.1417    1.1319 H   0  0  0  0  0  0  0  0  0  0  0  0
    8.4328    3.4115   -0.5259 H   0  0  0  0  0  0  0  0  0  0  0  0
    6.7774    3.0525   -3.1286 H   0  0  0  0  0  0  0  0  0  0  0  0
    7.2569    1.3681   -3.2006 H   0  0  0  0  0  0  0  0  0  0  0  0
    8.8509    1.9672   -4.9736 H   0  0  0  0  0  0  0  0  0  0  0  0
   10.6583    2.1751   -6.6129 H   0  0  0  0  0  0  0  0  0  0  0  0
   12.2815    2.1702   -5.8604 H   0  0  0  0  0  0  0  0  0  0  0  0
   11.5911    3.6903   -6.4265 H   0  0  0  0  0  0  0  0  0  0  0  0
   14.5586    4.8144   -1.1167 H   0  0  0  0  0  0  0  0  0  0  0  0
   13.7668    6.3539   -1.3613 H   0  0  0  0  0  0  0  0  0  0  0  0
   15.3451    4.8215   -3.5350 H   0  0  0  0  0  0  0  0  0  0  0  0
   15.9227    6.2504   -2.6308 H   0  0  0  0  0  0  0  0  0  0  0  0
   14.5621    6.3886   -3.7798 H   0  0  0  0  0  0  0  0  0  0  0  0
   10.5385    4.2717    0.1295 H   0  0  0  0  0  0  0  0  0  0  0  0
   10.1325    6.6081   -0.1129 H   0  0  0  0  0  0  0  0  0  0  0  0
   11.8431    6.9602   -0.4567 H   0  0  0  0  0  0  0  0  0  0  0  0
   10.5814    6.2485    2.2403 H   0  0  0  0  0  0  0  0  0  0  0  0
   11.8040    7.5052    1.9233 H   0  0  0  0  0  0  0  0  0  0  0  0
   13.4281    6.0301    3.7819 H   0  0  0  0  0  0  0  0  0  0  0  0
   14.9130    2.3595    2.0492 H   0  0  0  0  0  0  0  0  0  0  0  0
   13.3381    2.6073    0.1278 H   0  0  0  0  0  0  0  0  0  0  0  0
  1  2  1  0
  1 32  1  0
  1 33  1  0
  1 34  1  0
  2  3  1  0
  2 35  1  0
  2 36  1  0
  3  4  2  0
  3  5  1  0
  5  6  1  0
  5 37  1  0
  6  7  1  0
  6 38  1  0
  7  8  2  0
  7  9  1  0
  9 10  1  0
  9 39  1  0
  9 40  1  0
 10 11  2  0
 10 31  1  0
 11 12  1  0
 11 41  1  0
 12 13  1  0
 12 14  2  0
 13 42  1  0
 13 43  1  0
 13 44  1  0
 14 15  1  0
 14 30  1  0
 15 16  2  0
 16 17  1  0
 16 19  1  0
 17 18  1  0
 17 45  1  0
 17 46  1  0
 18 47  1  0
 18 48  1  0
 18 49  1  0
 19 20  1  0
 19 30  1  0
 20 21  1  0
 20 29  1  0
 20 50  1  1
 21 22  1  0
 21 51  1  0
 21 52  1  0
 22 23  1  0
 22 53  1  0
 22 54  1  0
 23 24  1  0
 23 29  2  0
 24 25  2  0
 24 55  1  0
 25 26  1  0
 25 27  1  0
 27 28  2  0
 27 56  1  0
 28 29  1  0
 28 57  1  0
 30 31  2  0
M  END

