
     RDKit          3D

 36 38  0  0  0  0  0  0  0  0999 V2000
    0.7117   -1.4129    1.9318 N   0  0  0  0  0  0  0  0  0  0  0  0
    2.1574   -1.6036    1.9903 C   0  0  0  0  0  0  0  0  0  0  0  0
    2.8127   -1.1669    0.6703 C   0  0  0  0  0  0  0  0  0  0  0  0
    4.3096   -1.2853    0.6561 C   0  0  0  0  0  0  0  0  0  0  0  0
    5.2175   -0.2538    0.7666 C   0  0  0  0  0  0  0  0  0  0  0  0
    6.5190   -0.7276    0.7368 N   0  0  0  0  0  0  0  0  0  0  0  0
    7.7444    0.0540    0.8175 C   0  0  0  0  0  0  0  0  0  0  0  0
    7.8832    0.8341    2.1095 C   0  0  0  0  0  0  0  0  0  0  0  0
    8.3256    0.1845    3.2723 C   0  0  0  0  0  0  0  0  0  0  0  0
    8.6172   -1.1194    3.1907 F   0  0  0  0  0  0  0  0  0  0  0  0
    8.4826    0.8265    4.4963 C   0  0  0  0  0  0  0  0  0  0  0  0
    8.1824    2.1875    4.5803 C   0  0  0  0  0  0  0  0  0  0  0  0
    7.7346    2.8827    3.4563 C   0  0  0  0  0  0  0  0  0  0  0  0
    7.5872    2.2019    2.2432 C   0  0  0  0  0  0  0  0  0  0  0  0
    7.0045    3.1145    0.8604 Cl  0  0  0  0  0  0  0  0  0  0  0  0
    6.4707   -2.0990    0.5961 C   0  0  0  0  0  0  0  0  0  0  0  0
    7.5262   -2.8991    0.5024 N   0  0  0  0  0  0  0  0  0  0  0  0
    7.2503   -4.1950    0.3562 C   0  0  0  0  0  0  0  0  0  0  0  0
    5.9417   -4.7173    0.2938 C   0  0  0  0  0  0  0  0  0  0  0  0
    4.8452   -3.8601    0.3863 C   0  0  0  0  0  0  0  0  0  0  0  0
    5.0974   -2.4885    0.5451 C   0  0  0  0  0  0  0  0  0  0  0  0
    0.2859   -1.6291    2.8330 H   0  0  0  0  0  0  0  0  0  0  0  0
    0.2969   -2.0632    1.2622 H   0  0  0  0  0  0  0  0  0  0  0  0
    2.4749   -2.6434    2.2240 H   0  0  0  0  0  0  0  0  0  0  0  0
    2.5573   -0.9756    2.8046 H   0  0  0  0  0  0  0  0  0  0  0  0
    2.5097   -0.1268    0.4701 H   0  0  0  0  0  0  0  0  0  0  0  0
    2.3850   -1.7730   -0.1509 H   0  0  0  0  0  0  0  0  0  0  0  0
    5.0288    0.8149    0.8562 H   0  0  0  0  0  0  0  0  0  0  0  0
    7.8014    0.7468   -0.0343 H   0  0  0  0  0  0  0  0  0  0  0  0
    8.5626   -0.6737    0.7310 H   0  0  0  0  0  0  0  0  0  0  0  0
    8.8354    0.2542    5.3558 H   0  0  0  0  0  0  0  0  0  0  0  0
    8.2980    2.7129    5.5311 H   0  0  0  0  0  0  0  0  0  0  0  0
    7.4939    3.9449    3.5089 H   0  0  0  0  0  0  0  0  0  0  0  0
    8.1093   -4.8713    0.2794 H   0  0  0  0  0  0  0  0  0  0  0  0
    5.8001   -5.7931    0.1694 H   0  0  0  0  0  0  0  0  0  0  0  0
    3.8246   -4.2489    0.3336 H   0  0  0  0  0  0  0  0  0  0  0  0
  1  2  1  0
  1 22  1  0
  1 23  1  0
  2  3  1  0
  2 24  1  0
  2 25  1  0
  3  4  1  0
  3 26  1  0
  3 27  1  0
  4  5  2  0
  4 21  1  0
  5  6  1  0
  5 28  1  0
  6  7  1  0
  6 16  1  0
  7  8  1  0
  7 29  1  0
  7 30  1  0
  8  9  2  0
  8 14  1  0
  9 10  1  0
  9 11  1  0
 11 12  2  0
 11 31  1  0
 12 13  1  0
 12 32  1  0
 13 14  2  0
 13 33  1  0
 14 15  1  0
 16 17  1  0
 16 21  2  0
 17 18  2  0
 18 19  1  0
 18 34  1  0
 19 20  2  0
 19 35  1  0
 20 21  1  0
 20 36  1  0
M  END

