
     RDKit          3D

 40 41  0  0  0  0  0  0  0  0999 V2000
    3.0771   -0.3757    0.8623 C   0  0  0  0  0  0  0  0  0  0  0  0
    3.2993   -0.0525   -0.5113 O   0  0  0  0  0  0  0  0  0  0  0  0
    4.0817    1.0109   -0.7544 C   0  0  0  0  0  0  0  0  0  0  0  0
    4.5806    1.6871    0.1121 O   0  0  0  0  0  0  0  0  0  0  0  0
    4.2289    1.2578   -2.2438 C   0  0  0  0  0  0  0  0  0  0  0  0
    5.3034    2.2921   -2.5473 C   0  0  0  0  0  0  0  0  0  0  0  0
    6.6965    1.7762   -2.2474 C   0  0  0  0  0  0  0  0  0  0  0  0
    6.9717    0.6304   -2.0040 O   0  0  0  0  0  0  0  0  0  0  0  0
    7.5883    2.7969   -2.3236 O   0  0  0  0  0  0  0  0  0  0  0  0
    8.9572    2.7065   -2.1381 C   0  0  0  0  0  0  0  0  0  0  0  0
    9.6559    1.5702   -1.7146 C   0  0  0  0  0  0  0  0  0  0  0  0
   11.0419    1.6545   -1.5650 C   0  0  0  0  0  0  0  0  0  0  0  0
   11.7621    2.8360   -1.8235 C   0  0  0  0  0  0  0  0  0  0  0  0
   13.2159    2.8388   -1.6426 C   0  0  0  0  0  0  0  0  0  0  0  0
   14.0642    3.8715   -1.8425 C   0  0  0  0  0  0  0  0  0  0  0  0
   15.5183    3.8553   -1.6562 C   0  0  0  0  0  0  0  0  0  0  0  0
   16.2659    5.0211   -1.9106 C   0  0  0  0  0  0  0  0  0  0  0  0
   17.6512    5.0101   -1.7349 C   0  0  0  0  0  0  0  0  0  0  0  0
   18.3375    3.9392   -1.3301 N   0  0  0  0  0  0  0  0  0  0  0  0
   17.6353    2.8267   -1.0856 C   0  0  0  0  0  0  0  0  0  0  0  0
   16.2522    2.7298   -1.2290 C   0  0  0  0  0  0  0  0  0  0  0  0
   11.0246    3.9634   -2.2475 C   0  0  0  0  0  0  0  0  0  0  0  0
    9.6467    3.9004   -2.4019 C   0  0  0  0  0  0  0  0  0  0  0  0
    2.4263   -1.2587    0.8675 H   0  0  0  0  0  0  0  0  0  0  0  0
    2.5910    0.4601    1.3884 H   0  0  0  0  0  0  0  0  0  0  0  0
    4.0281   -0.5994    1.3687 H   0  0  0  0  0  0  0  0  0  0  0  0
    3.2500    1.5937   -2.6250 H   0  0  0  0  0  0  0  0  0  0  0  0
    4.4435    0.2969   -2.7344 H   0  0  0  0  0  0  0  0  0  0  0  0
    5.1469    3.2130   -1.9662 H   0  0  0  0  0  0  0  0  0  0  0  0
    5.2796    2.5823   -3.6114 H   0  0  0  0  0  0  0  0  0  0  0  0
    9.1280    0.6433   -1.5102 H   0  0  0  0  0  0  0  0  0  0  0  0
   11.5847    0.7648   -1.2336 H   0  0  0  0  0  0  0  0  0  0  0  0
   13.6286    1.8815   -1.3078 H   0  0  0  0  0  0  0  0  0  0  0  0
   13.6616    4.8328   -2.1776 H   0  0  0  0  0  0  0  0  0  0  0  0
   15.7657    5.9340   -2.2451 H   0  0  0  0  0  0  0  0  0  0  0  0
   18.2328    5.9187   -1.9333 H   0  0  0  0  0  0  0  0  0  0  0  0
   18.2083    1.9525   -0.7534 H   0  0  0  0  0  0  0  0  0  0  0  0
   15.7577    1.7821   -1.0074 H   0  0  0  0  0  0  0  0  0  0  0  0
   11.5334    4.9056   -2.4599 H   0  0  0  0  0  0  0  0  0  0  0  0
    9.0750    4.7716   -2.7271 H   0  0  0  0  0  0  0  0  0  0  0  0
  1  2  1  0
  1 24  1  0
  1 25  1  0
  1 26  1  0
  2  3  1  0
  3  4  2  0
  3  5  1  0
  5  6  1  0
  5 27  1  0
  5 28  1  0
  6  7  1  0
  6 29  1  0
  6 30  1  0
  7  8  2  0
  7  9  1  0
  9 10  1  0
 10 11  2  0
 10 23  1  0
 11 12  1  0
 11 31  1  0
 12 13  2  0
 12 32  1  0
 13 14  1  0
 13 22  1  0
 14 15  2  0
 14 33  1  0
 15 16  1  0
 15 34  1  0
 16 17  2  0
 16 21  1  0
 17 18  1  0
 17 35  1  0
 18 19  2  0
 18 36  1  0
 19 20  1  0
 20 21  2  0
 20 37  1  0
 21 38  1  0
 22 23  2  0
 22 39  1  0
 23 40  1  0
M  END

