
     RDKit          3D

 49 51  0  0  0  0  0  0  0  0999 V2000
    3.4653    0.8322   -7.7770 O   0  0  0  0  0  0  0  0  0  0  0  0
    3.1288    0.7828   -6.6038 C   0  0  0  0  0  0  0  0  0  0  0  0
    3.7620   -0.0042   -5.6809 N   0  0  0  0  0  0  0  0  0  0  0  0
    4.8763   -0.8784   -6.0214 C   0  0  0  0  0  0  0  0  0  0  0  0
    4.6657   -2.2791   -5.5173 C   0  0  0  0  0  0  0  0  0  0  0  0
    5.4982   -2.9164   -4.6867 C   0  0  0  0  0  0  0  0  0  0  0  0
    5.3216   -4.3222   -4.1599 C   0  0  0  0  0  0  0  0  0  0  0  0
    4.2769   -5.0823   -4.8287 N   0  0  0  0  0  0  0  0  0  0  0  0
    4.6674   -5.6835   -6.1041 C   0  0  0  0  0  0  0  0  0  0  0  0
    5.4287   -7.0129   -5.9491 C   0  0  0  0  0  0  0  0  0  0  0  0
    4.6755   -7.9510   -5.1139 N   0  0  0  0  0  0  0  0  0  0  0  0
    4.0367   -9.0738   -5.6435 C   0  0  0  0  0  0  0  0  0  0  0  0
    2.6661   -9.3210   -5.4085 C   0  0  0  0  0  0  0  0  0  0  0  0
    2.0277  -10.4530   -5.9097 C   0  0  0  0  0  0  0  0  0  0  0  0
    2.7229  -11.3754   -6.6901 C   0  0  0  0  0  0  0  0  0  0  0  0
    4.0835  -11.1655   -6.9317 C   0  0  0  0  0  0  0  0  0  0  0  0
    4.9506  -12.3489   -7.8755 Cl  0  0  0  0  0  0  0  0  0  0  0  0
    4.7482  -10.0479   -6.3999 C   0  0  0  0  0  0  0  0  0  0  0  0
    6.4781   -9.9107   -6.5978 Cl  0  0  0  0  0  0  0  0  0  0  0  0
    4.2687   -7.3756   -3.8369 C   0  0  0  0  0  0  0  0  0  0  0  0
    3.5339   -6.0350   -4.0116 C   0  0  0  0  0  0  0  0  0  0  0  0
    1.9799    1.6087   -6.0854 C   0  0  0  0  0  0  0  0  0  0  0  0
    1.2240    1.2935   -4.9486 C   0  0  0  0  0  0  0  0  0  0  0  0
    0.1677    2.1296   -4.5850 C   0  0  0  0  0  0  0  0  0  0  0  0
   -0.0938    3.2531   -5.3754 C   0  0  0  0  0  0  0  0  0  0  0  0
    0.6098    3.5615   -6.4685 N   0  0  0  0  0  0  0  0  0  0  0  0
    1.6115    2.7535   -6.8142 C   0  0  0  0  0  0  0  0  0  0  0  0
    3.5138    0.0822   -4.7034 H   0  0  0  0  0  0  0  0  0  0  0  0
    5.8254   -0.4684   -5.6302 H   0  0  0  0  0  0  0  0  0  0  0  0
    4.9426   -0.8559   -7.1205 H   0  0  0  0  0  0  0  0  0  0  0  0
    3.7641   -2.7979   -5.8621 H   0  0  0  0  0  0  0  0  0  0  0  0
    6.3991   -2.3992   -4.3290 H   0  0  0  0  0  0  0  0  0  0  0  0
    5.0669   -4.2525   -3.0861 H   0  0  0  0  0  0  0  0  0  0  0  0
    6.3155   -4.8230   -4.1766 H   0  0  0  0  0  0  0  0  0  0  0  0
    5.2780   -4.9638   -6.6716 H   0  0  0  0  0  0  0  0  0  0  0  0
    3.7524   -5.8691   -6.6960 H   0  0  0  0  0  0  0  0  0  0  0  0
    6.4234   -6.8359   -5.4978 H   0  0  0  0  0  0  0  0  0  0  0  0
    5.6068   -7.4524   -6.9376 H   0  0  0  0  0  0  0  0  0  0  0  0
    2.0879   -8.5903   -4.8420 H   0  0  0  0  0  0  0  0  0  0  0  0
    0.9638  -10.6047   -5.7123 H   0  0  0  0  0  0  0  0  0  0  0  0
    2.2342  -12.2550   -7.1099 H   0  0  0  0  0  0  0  0  0  0  0  0
    5.1799   -7.2079   -3.2279 H   0  0  0  0  0  0  0  0  0  0  0  0
    3.6512   -8.0978   -3.2842 H   0  0  0  0  0  0  0  0  0  0  0  0
    3.3210   -5.5859   -3.0276 H   0  0  0  0  0  0  0  0  0  0  0  0
    2.5593   -6.2190   -4.5006 H   0  0  0  0  0  0  0  0  0  0  0  0
    1.4322    0.3928   -4.3643 H   0  0  0  0  0  0  0  0  0  0  0  0
   -0.4497    1.9115   -3.7107 H   0  0  0  0  0  0  0  0  0  0  0  0
   -0.9159    3.9305   -5.1147 H   0  0  0  0  0  0  0  0  0  0  0  0
    2.1756    3.0022   -7.7189 H   0  0  0  0  0  0  0  0  0  0  0  0
  1  2  2  0
  2  3  1  0
  2 22  1  0
  3  4  1  0
  3 28  1  0
  4  5  1  0
  4 29  1  0
  4 30  1  0
  5  6  2  0
  5 31  1  0
  6  7  1  0
  6 32  1  0
  7  8  1  0
  7 33  1  0
  7 34  1  0
  8  9  1  0
  8 21  1  0
  9 10  1  0
  9 35  1  0
  9 36  1  0
 10 11  1  0
 10 37  1  0
 10 38  1  0
 11 12  1  0
 11 20  1  0
 12 13  2  0
 12 18  1  0
 13 14  1  0
 13 39  1  0
 14 15  2  0
 14 40  1  0
 15 16  1  0
 15 41  1  0
 16 17  1  0
 16 18  2  0
 18 19  1  0
 20 21  1  0
 20 42  1  0
 20 43  1  0
 21 44  1  0
 21 45  1  0
 22 23  2  0
 22 27  1  0
 23 24  1  0
 23 46  1  0
 24 25  2  0
 24 47  1  0
 25 26  1  0
 25 48  1  0
 26 27  2  0
 27 49  1  0
M  END

