
     RDKit          3D

 40 41  0  0  0  0  0  0  0  0999 V2000
    6.3432    1.4640   -2.1247 C   0  0  0  0  0  0  0  0  0  0  0  0
    6.0362    0.2668   -1.3733 N   0  0  0  0  0  0  0  0  0  0  0  0
    4.7830   -0.0097   -0.9372 C   0  0  0  0  0  0  0  0  0  0  0  0
    3.8157    0.7088   -1.1295 O   0  0  0  0  0  0  0  0  0  0  0  0
    4.6459   -1.3554   -0.2043 C   0  0  0  0  0  0  0  0  0  0  0  0
    5.9063   -1.8893    0.2967 N   0  0  0  0  0  0  0  0  0  0  0  0
    6.3469   -1.3081    1.5711 C   0  0  0  0  0  0  0  0  0  0  0  0
    5.6361   -1.9193    2.7859 C   0  0  0  0  0  0  0  0  0  0  0  0
    5.7488   -3.3785    2.7789 N   0  0  0  0  0  0  0  0  0  0  0  0
    6.5007   -3.9870    3.7660 C   0  0  0  0  0  0  0  0  0  0  0  0
    7.1477   -3.3381    4.5759 O   0  0  0  0  0  0  0  0  0  0  0  0
    6.4774   -5.4925    3.8587 C   0  0  0  0  0  0  0  0  0  0  0  0
    7.6856   -6.1529    4.1206 C   0  0  0  0  0  0  0  0  0  0  0  0
    7.6915   -7.5395    4.2952 C   0  0  0  0  0  0  0  0  0  0  0  0
    6.4965   -8.2393    4.2398 C   0  0  0  0  0  0  0  0  0  0  0  0
    6.4877   -9.5799    4.4064 F   0  0  0  0  0  0  0  0  0  0  0  0
    5.2556   -7.6106    4.0167 C   0  0  0  0  0  0  0  0  0  0  0  0
    4.0913   -8.3535    4.0543 N   0  0  0  0  0  0  0  0  0  0  0  0
    5.2774   -6.2196    3.8157 C   0  0  0  0  0  0  0  0  0  0  0  0
    5.3108   -3.9993    1.5317 C   0  0  0  0  0  0  0  0  0  0  0  0
    6.0221   -3.3444    0.3321 C   0  0  0  0  0  0  0  0  0  0  0  0
    7.3961    1.4379   -2.4379 H   0  0  0  0  0  0  0  0  0  0  0  0
    6.1757    2.3739   -1.5239 H   0  0  0  0  0  0  0  0  0  0  0  0
    5.7061    1.5443   -3.0208 H   0  0  0  0  0  0  0  0  0  0  0  0
    6.7467   -0.4235   -1.1481 H   0  0  0  0  0  0  0  0  0  0  0  0
    4.2240   -2.0614   -0.9392 H   0  0  0  0  0  0  0  0  0  0  0  0
    3.8600   -1.2069    0.5610 H   0  0  0  0  0  0  0  0  0  0  0  0
    6.1908   -0.2184    1.5452 H   0  0  0  0  0  0  0  0  0  0  0  0
    7.4324   -1.4806    1.6754 H   0  0  0  0  0  0  0  0  0  0  0  0
    4.5642   -1.6484    2.7779 H   0  0  0  0  0  0  0  0  0  0  0  0
    6.0802   -1.5530    3.7195 H   0  0  0  0  0  0  0  0  0  0  0  0
    8.6086   -5.5767    4.1960 H   0  0  0  0  0  0  0  0  0  0  0  0
    8.6146   -8.0918    4.4828 H   0  0  0  0  0  0  0  0  0  0  0  0
    4.1961   -9.3562    3.9585 H   0  0  0  0  0  0  0  0  0  0  0  0
    3.2774   -7.9675    3.5929 H   0  0  0  0  0  0  0  0  0  0  0  0
    4.3293   -5.6995    3.6562 H   0  0  0  0  0  0  0  0  0  0  0  0
    4.2142   -3.8887    1.4269 H   0  0  0  0  0  0  0  0  0  0  0  0
    5.5350   -5.0723    1.5485 H   0  0  0  0  0  0  0  0  0  0  0  0
    5.6322   -3.7651   -0.6086 H   0  0  0  0  0  0  0  0  0  0  0  0
    7.0950   -3.6033    0.3878 H   0  0  0  0  0  0  0  0  0  0  0  0
  1  2  1  0
  1 22  1  0
  1 23  1  0
  1 24  1  0
  2  3  1  0
  2 25  1  0
  3  4  2  0
  3  5  1  0
  5  6  1  0
  5 26  1  0
  5 27  1  0
  6  7  1  0
  6 21  1  0
  7  8  1  0
  7 28  1  0
  7 29  1  0
  8  9  1  0
  8 30  1  0
  8 31  1  0
  9 10  1  0
  9 20  1  0
 10 11  2  0
 10 12  1  0
 12 13  2  0
 12 19  1  0
 13 14  1  0
 13 32  1  0
 14 15  2  0
 14 33  1  0
 15 16  1  0
 15 17  1  0
 17 18  1  0
 17 19  2  0
 18 34  1  0
 18 35  1  0
 19 36  1  0
 20 21  1  0
 20 37  1  0
 20 38  1  0
 21 39  1  0
 21 40  1  0
M  END

