
     RDKit          3D

 70 78  0  0  0  0  0  0  0  0999 V2000
   -2.9752  -21.2005   -0.4444 C   0  0  0  0  0  0  0  0  0  0  0  0
   -2.9849  -19.8084   -0.6836 O   0  0  0  0  0  0  0  0  0  0  0  0
   -1.8262  -19.1176   -0.6845 C   0  0  0  0  0  0  0  0  0  0  0  0
   -1.9263  -17.7352   -0.9334 C   0  0  0  0  0  0  0  0  0  0  0  0
   -0.7919  -16.9445   -0.9495 C   0  0  0  0  0  0  0  0  0  0  0  0
    0.4894  -17.5013   -0.7175 C   0  0  0  0  0  0  0  0  0  0  0  0
    0.5911  -18.9022   -0.4877 C   0  0  0  0  0  0  0  0  0  0  0  0
   -0.5618  -19.6907   -0.4678 C   0  0  0  0  0  0  0  0  0  0  0  0
    1.9415  -19.5276   -0.2130 C   0  0  0  0  0  0  0  0  0  0  0  0
    3.0593  -18.8910   -1.0504 C   0  0  0  0  0  0  0  0  0  0  0  0
    2.9969  -17.3993   -0.9185 C   0  0  0  0  0  0  0  0  0  0  0  0
    3.9859  -16.4292   -0.9032 C   0  0  0  0  0  0  0  0  0  0  0  0
    5.4341  -16.5992   -1.0933 C   0  0  0  0  0  0  0  0  0  0  0  0
    5.9267  -17.5724   -1.9884 C   0  0  0  0  0  0  0  0  0  0  0  0
    7.2984  -17.7521   -2.1719 C   0  0  0  0  0  0  0  0  0  0  0  0
    8.2111  -16.9641   -1.4646 C   0  0  0  0  0  0  0  0  0  0  0  0
    7.7383  -15.9893   -0.5802 C   0  0  0  0  0  0  0  0  0  0  0  0
    6.3680  -15.8040   -0.3970 C   0  0  0  0  0  0  0  0  0  0  0  0
    3.2983  -15.1695   -0.6640 C   0  0  0  0  0  0  0  0  0  0  0  0
    1.9178  -15.4116   -0.5832 N   0  0  0  0  0  0  0  0  0  0  0  0
    1.7285  -16.7428   -0.7316 C   0  0  0  0  0  0  0  0  0  0  0  0
    0.8797  -14.2540   -0.3051 B   0  0  1  0  0  0  0  0  0  0  0  0
    0.0490  -14.0720   -1.4132 F   0  0  0  0  0  0  0  0  0  0  0  0
    0.1288  -14.5401    0.8218 F   0  0  0  0  0  0  0  0  0  0  0  0
    1.7382  -12.9792   -0.0997 N   0  0  0  0  0  0  0  0  0  0  0  0
    1.3026  -11.7175    0.1598 C   0  0  0  0  0  0  0  0  0  0  0  0
   -0.0331  -11.2936    0.3725 C   0  0  0  0  0  0  0  0  0  0  0  0
   -0.2517   -9.9653    0.6329 C   0  0  0  0  0  0  0  0  0  0  0  0
    0.8178   -9.0064    0.7237 C   0  0  0  0  0  0  0  0  0  0  0  0
    0.5399   -7.6536    1.0363 C   0  0  0  0  0  0  0  0  0  0  0  0
    1.5578   -6.7233    1.1667 C   0  0  0  0  0  0  0  0  0  0  0  0
    2.8945   -7.1291    0.9926 C   0  0  0  0  0  0  0  0  0  0  0  0
    3.1972   -8.4467    0.6770 C   0  0  0  0  0  0  0  0  0  0  0  0
    2.1782   -9.4154    0.5220 C   0  0  0  0  0  0  0  0  0  0  0  0
    2.4150  -10.8084    0.1980 C   0  0  0  0  0  0  0  0  0  0  0  0
    3.5711  -11.5818   -0.0670 C   0  0  0  0  0  0  0  0  0  0  0  0
    4.9883  -11.1864   -0.2021 C   0  0  0  0  0  0  0  0  0  0  0  0
    5.9738  -11.7521    0.6275 C   0  0  0  0  0  0  0  0  0  0  0  0
    7.3173  -11.3969    0.4853 C   0  0  0  0  0  0  0  0  0  0  0  0
    7.7029  -10.4781   -0.4952 C   0  0  0  0  0  0  0  0  0  0  0  0
    6.7344   -9.9153   -1.3330 C   0  0  0  0  0  0  0  0  0  0  0  0
    5.3904  -10.2645   -1.1874 C   0  0  0  0  0  0  0  0  0  0  0  0
    3.1112  -12.9245   -0.2409 C   0  0  0  0  0  0  0  0  0  0  0  0
    3.8586  -13.9942   -0.5197 N   0  0  0  0  0  0  0  0  0  0  0  0
   -4.0213  -21.5306   -0.4880 H   0  0  0  0  0  0  0  0  0  0  0  0
   -2.5645  -21.4411    0.5521 H   0  0  0  0  0  0  0  0  0  0  0  0
   -2.3952  -21.7432   -1.2117 H   0  0  0  0  0  0  0  0  0  0  0  0
   -2.9141  -17.3104   -1.1204 H   0  0  0  0  0  0  0  0  0  0  0  0
   -0.8825  -15.8842   -1.1746 H   0  0  0  0  0  0  0  0  0  0  0  0
   -0.4607  -20.7600   -0.2795 H   0  0  0  0  0  0  0  0  0  0  0  0
    1.8966  -20.6131   -0.3891 H   0  0  0  0  0  0  0  0  0  0  0  0
    2.1814  -19.3928    0.8585 H   0  0  0  0  0  0  0  0  0  0  0  0
    2.9334  -19.1873   -2.1093 H   0  0  0  0  0  0  0  0  0  0  0  0
    4.0426  -19.2692   -0.7338 H   0  0  0  0  0  0  0  0  0  0  0  0
    5.2270  -18.1718   -2.5730 H   0  0  0  0  0  0  0  0  0  0  0  0
    7.6556  -18.5061   -2.8781 H   0  0  0  0  0  0  0  0  0  0  0  0
    9.2857  -17.1046   -1.6069 H   0  0  0  0  0  0  0  0  0  0  0  0
    8.4439  -15.3634   -0.0280 H   0  0  0  0  0  0  0  0  0  0  0  0
    6.0088  -15.0355    0.2857 H   0  0  0  0  0  0  0  0  0  0  0  0
   -0.8505  -12.0134    0.3296 H   0  0  0  0  0  0  0  0  0  0  0  0
   -1.2719   -9.6073    0.7962 H   0  0  0  0  0  0  0  0  0  0  0  0
   -0.5016   -7.3534    1.1822 H   0  0  0  0  0  0  0  0  0  0  0  0
    1.3263   -5.6835    1.4104 H   0  0  0  0  0  0  0  0  0  0  0  0
    3.7037   -6.4034    1.1084 H   0  0  0  0  0  0  0  0  0  0  0  0
    4.2389   -8.7395    0.5536 H   0  0  0  0  0  0  0  0  0  0  0  0
    5.6749  -12.4652    1.3985 H   0  0  0  0  0  0  0  0  0  0  0  0
    8.0671  -11.8387    1.1468 H   0  0  0  0  0  0  0  0  0  0  0  0
    8.7545  -10.2022   -0.6077 H   0  0  0  0  0  0  0  0  0  0  0  0
    7.0276   -9.2031   -2.1087 H   0  0  0  0  0  0  0  0  0  0  0  0
    4.6389   -9.8292   -1.8503 H   0  0  0  0  0  0  0  0  0  0  0  0
  1  2  1  0
  1 45  1  0
  1 46  1  0
  1 47  1  0
  2  3  1  0
  3  4  2  0
  3  8  1  0
  4  5  1  0
  4 48  1  0
  5  6  2  0
  5 49  1  0
  6  7  1  0
  6 21  1  0
  7  8  2  0
  7  9  1  0
  8 50  1  0
  9 10  1  0
  9 51  1  0
  9 52  1  0
 10 11  1  0
 10 53  1  0
 10 54  1  0
 11 12  1  0
 11 21  2  0
 12 13  1  0
 12 19  2  0
 13 14  2  0
 13 18  1  0
 14 15  1  0
 14 55  1  0
 15 16  2  0
 15 56  1  0
 16 17  1  0
 16 57  1  0
 17 18  2  0
 17 58  1  0
 18 59  1  0
 19 20  1  0
 19 44  1  0
 20 21  1  0
 20 22  1  0
 22 23  1  6
 22 24  1  0
 22 25  1  0
 25 26  2  0
 25 43  1  0
 26 27  1  0
 26 35  1  0
 27 28  2  0
 27 60  1  0
 28 29  1  0
 28 61  1  0
 29 30  1  0
 29 34  2  0
 30 31  2  0
 30 62  1  0
 31 32  1  0
 31 63  1  0
 32 33  2  0
 32 64  1  0
 33 34  1  0
 33 65  1  0
 34 35  1  0
 35 36  2  0
 36 37  1  0
 36 43  1  0
 37 38  2  0
 37 42  1  0
 38 39  1  0
 38 66  1  0
 39 40  2  0
 39 67  1  0
 40 41  1  0
 40 68  1  0
 41 42  2  0
 41 69  1  0
 42 70  1  0
 43 44  2  0
M  CHG  2  22  -1  25   1
M  END

