
     RDKit          3D

 47 49  0  0  0  0  0  0  0  0999 V2000
    3.1459   -2.3256   -2.0520 C   0  0  0  0  0  0  0  0  0  0  0  0
    3.8791   -1.3999   -1.1499 C   0  0  0  0  0  0  0  0  0  0  0  0
    4.9329   -0.6788   -1.3967 N   0  0  0  0  0  0  0  0  0  0  0  0
    5.1527   -0.0384   -0.1979 C   0  0  0  0  0  0  0  0  0  0  0  0
    6.2764    0.9662   -0.0207 C   0  0  1  0  0  0  0  0  0  0  0  0
    5.8657    2.2676   -0.7488 C   0  0  0  0  0  0  0  0  0  0  0  0
    6.5374    1.2199    1.4691 C   0  0  0  0  0  0  0  0  0  0  0  0
    7.4400    0.2984   -0.6629 N   0  0  0  0  0  0  0  0  0  0  0  0
    8.9634    1.0109   -0.8449 S   0  0  1  0  0  0  0  0  0  0  0  0
    9.3118    0.8815   -2.2655 O   0  0  0  0  0  0  0  0  0  0  0  0
    8.9670    2.3286   -0.1914 O   0  0  0  0  0  0  0  0  0  0  0  0
   10.0047   -0.1207    0.1302 C   0  0  0  0  0  0  0  0  0  0  0  0
   11.5310    0.0677    0.0451 C   0  0  2  0  0  0  0  0  0  0  0  0
   11.9819    1.5195    0.3401 C   0  0  0  0  0  0  0  0  0  0  0  0
   13.5338    1.6119    0.3428 C   0  0  0  0  0  0  0  0  0  0  0  0
   14.1475    0.2411    0.0141 C   0  0  2  0  0  0  0  0  0  0  0  0
   13.6378   -0.2246   -1.3600 C   0  0  0  0  0  0  0  0  0  0  0  0
   12.0897   -0.3587   -1.3362 C   0  0  0  0  0  0  0  0  0  0  0  0
   13.7088   -0.7736    1.0830 C   0  0  0  0  0  0  0  0  0  0  0  0
   12.1580   -0.8587    1.1221 C   0  0  0  0  0  0  0  0  0  0  0  0
    4.2896   -0.3425    0.7342 N   0  0  0  0  0  0  0  0  0  0  0  0
    3.4360   -1.2457    0.1057 O   0  0  0  0  0  0  0  0  0  0  0  0
    3.6476   -2.3558   -3.0265 H   0  0  0  0  0  0  0  0  0  0  0  0
    2.1060   -1.9893   -2.1874 H   0  0  0  0  0  0  0  0  0  0  0  0
    3.1139   -3.3391   -1.6232 H   0  0  0  0  0  0  0  0  0  0  0  0
    4.9666    2.6988   -0.2826 H   0  0  0  0  0  0  0  0  0  0  0  0
    5.6442    2.0624   -1.8072 H   0  0  0  0  0  0  0  0  0  0  0  0
    6.6845    2.9969   -0.6947 H   0  0  0  0  0  0  0  0  0  0  0  0
    5.6316    1.6179    1.9464 H   0  0  0  0  0  0  0  0  0  0  0  0
    7.3512    1.9465    1.5866 H   0  0  0  0  0  0  0  0  0  0  0  0
    6.8065    0.2843    1.9807 H   0  0  0  0  0  0  0  0  0  0  0  0
    7.1869   -0.1401   -1.5509 H   0  0  0  0  0  0  0  0  0  0  0  0
    9.7137   -1.1253   -0.2113 H   0  0  0  0  0  0  0  0  0  0  0  0
    9.6395    0.0117    1.1599 H   0  0  0  0  0  0  0  0  0  0  0  0
   11.5647    1.8408    1.3082 H   0  0  0  0  0  0  0  0  0  0  0  0
   11.5530    2.1997   -0.4091 H   0  0  0  0  0  0  0  0  0  0  0  0
   13.9013    1.9575    1.3230 H   0  0  0  0  0  0  0  0  0  0  0  0
   13.8744    2.3559   -0.3955 H   0  0  0  0  0  0  0  0  0  0  0  0
   15.2474    0.3162    0.0008 H   0  0  0  0  0  0  0  0  0  0  0  0
   14.1073   -1.1871   -1.6221 H   0  0  0  0  0  0  0  0  0  0  0  0
   13.9517    0.4942   -2.1344 H   0  0  0  0  0  0  0  0  0  0  0  0
   11.7858   -1.4005   -1.5358 H   0  0  0  0  0  0  0  0  0  0  0  0
   11.6231    0.2515   -2.1208 H   0  0  0  0  0  0  0  0  0  0  0  0
   14.1032   -0.4714    2.0668 H   0  0  0  0  0  0  0  0  0  0  0  0
   14.1468   -1.7606    0.8618 H   0  0  0  0  0  0  0  0  0  0  0  0
   11.7755   -0.5671    2.1146 H   0  0  0  0  0  0  0  0  0  0  0  0
   11.8188   -1.8942    0.9506 H   0  0  0  0  0  0  0  0  0  0  0  0
  1  2  1  0
  1 23  1  0
  1 24  1  0
  1 25  1  0
  2  3  2  0
  2 22  1  0
  3  4  1  0
  4  5  1  0
  4 21  2  0
  5  6  1  0
  5  7  1  0
  5  8  1  6
  6 26  1  0
  6 27  1  0
  6 28  1  0
  7 29  1  0
  7 30  1  0
  7 31  1  0
  9  8  1  6
  8 32  1  0
  9 10  2  0
  9 11  2  0
  9 12  1  0
 13 12  1  6
 12 33  1  0
 12 34  1  0
 13 14  1  0
 13 18  1  0
 13 20  1  0
 14 15  1  0
 14 35  1  0
 14 36  1  0
 15 16  1  0
 15 37  1  0
 15 38  1  0
 16 17  1  0
 16 19  1  0
 16 39  1  6
 17 18  1  0
 17 40  1  0
 17 41  1  0
 18 42  1  0
 18 43  1  0
 19 20  1  0
 19 44  1  0
 19 45  1  0
 20 46  1  0
 20 47  1  0
 21 22  1  0
M  END

