
     RDKit          3D

 41 45  0  0  0  0  0  0  0  0999 V2000
    0.8351   -0.5640    1.4893 C   0  0  0  0  0  0  0  0  0  0  0  0
    2.1676    0.0119    0.3457 S   0  0  0  0  0  0  0  0  0  0  0  0
    2.0070    1.4984    0.2822 O   0  0  0  0  0  0  0  0  0  0  0  0
    3.5706   -0.3046    1.5102 C   0  0  0  0  0  0  0  0  0  0  0  0
    4.3480    0.6627    1.8981 N   0  0  0  0  0  0  0  0  0  0  0  0
    5.3780    0.1141    2.6317 N   0  0  0  0  0  0  0  0  0  0  0  0
    5.1888   -1.1716    2.6764 C   0  0  0  0  0  0  0  0  0  0  0  0
    4.0430   -1.5250    1.9843 N   0  0  0  0  0  0  0  0  0  0  0  0
    3.5791   -2.8230    1.6684 C   0  0  0  0  0  0  0  0  0  0  0  0
    3.0934   -2.9528    0.4452 N   0  0  0  0  0  0  0  0  0  0  0  0
    2.7354   -4.1712   -0.0088 C   0  0  0  0  0  0  0  0  0  0  0  0
    2.1668   -4.2604   -1.3483 C   0  0  0  0  0  0  0  0  0  0  0  0
    1.7225   -5.3957   -2.0017 C   0  0  0  0  0  0  0  0  0  0  0  0
    1.2233   -5.1210   -3.3019 C   0  0  0  0  0  0  0  0  0  0  0  0
    1.2954   -3.7824   -3.6189 C   0  0  0  0  0  0  0  0  0  0  0  0
    1.9715   -2.8411   -2.3428 S   0  0  0  0  0  0  0  0  0  0  0  0
    2.8939   -5.3043    0.6865 N   0  0  0  0  0  0  0  0  0  0  0  0
    3.3281   -5.1593    1.9257 C   0  0  0  0  0  0  0  0  0  0  0  0
    3.5620   -6.5189    3.0026 S   0  0  0  0  0  0  0  0  0  0  0  0
    3.9986   -5.4367    4.2930 C   0  0  0  0  0  0  0  0  0  0  0  0
    3.9928   -4.1039    3.9671 C   0  0  0  0  0  0  0  0  0  0  0  0
    4.2169   -3.0569    4.9963 C   0  0  0  0  0  0  0  0  0  0  0  0
    5.3196   -3.1361    5.8660 C   0  0  0  0  0  0  0  0  0  0  0  0
    5.5108   -2.1770    6.8638 C   0  0  0  0  0  0  0  0  0  0  0  0
    4.6040   -1.1236    7.0091 C   0  0  0  0  0  0  0  0  0  0  0  0
    3.5003   -1.0382    6.1548 C   0  0  0  0  0  0  0  0  0  0  0  0
    3.3061   -1.9972    5.1595 C   0  0  0  0  0  0  0  0  0  0  0  0
    3.6485   -3.9209    2.5647 C   0  0  0  0  0  0  0  0  0  0  0  0
   -0.1016   -0.3842    0.9436 H   0  0  0  0  0  0  0  0  0  0  0  0
    0.8771    0.0723    2.3838 H   0  0  0  0  0  0  0  0  0  0  0  0
    0.9356   -1.6311    1.7287 H   0  0  0  0  0  0  0  0  0  0  0  0
    5.8379   -1.8958    3.1617 H   0  0  0  0  0  0  0  0  0  0  0  0
    1.7654   -6.3822   -1.5402 H   0  0  0  0  0  0  0  0  0  0  0  0
    0.8271   -5.8793   -3.9787 H   0  0  0  0  0  0  0  0  0  0  0  0
    0.9853   -3.2980   -4.5444 H   0  0  0  0  0  0  0  0  0  0  0  0
    4.1880   -5.8443    5.2855 H   0  0  0  0  0  0  0  0  0  0  0  0
    6.0422   -3.9471    5.7447 H   0  0  0  0  0  0  0  0  0  0  0  0
    6.3784   -2.2487    7.5244 H   0  0  0  0  0  0  0  0  0  0  0  0
    4.7585   -0.3680    7.7829 H   0  0  0  0  0  0  0  0  0  0  0  0
    2.7854   -0.2192    6.2639 H   0  0  0  0  0  0  0  0  0  0  0  0
    2.4327   -1.9289    4.5068 H   0  0  0  0  0  0  0  0  0  0  0  0
  1  2  1  0
  1 29  1  0
  1 30  1  0
  1 31  1  0
  2  3  1  1
  2  4  1  0
  4  5  2  0
  4  8  1  0
  5  6  1  0
  6  7  2  0
  7  8  1  0
  7 32  1  0
  8  9  1  0
  9 10  2  0
  9 28  1  0
 10 11  1  0
 11 12  1  0
 11 17  2  0
 12 13  2  0
 12 16  1  0
 13 14  1  0
 13 33  1  0
 14 15  2  0
 14 34  1  0
 15 16  1  0
 15 35  1  0
 17 18  1  0
 18 19  1  0
 18 28  2  0
 19 20  1  0
 20 21  2  0
 20 36  1  0
 21 22  1  0
 21 28  1  0
 22 23  2  0
 22 27  1  0
 23 24  1  0
 23 37  1  0
 24 25  2  0
 24 38  1  0
 25 26  1  0
 25 39  1  0
 26 27  2  0
 26 40  1  0
 27 41  1  0
M  CHG  2   2   1   3  -1
M  END

