
     RDKit          3D

 36 36  0  0  0  0  0  0  0  0999 V2000
    2.1474   -1.2589   -1.1123 C   0  0  0  0  0  0  0  0  0  0  0  0
    2.2797   -0.2680    0.0572 C   0  0  1  0  0  0  0  0  0  0  0  0
    3.1540   -0.9025    1.1525 C   0  0  0  0  0  0  0  0  0  0  0  0
    2.4889   -2.1307    1.7572 C   0  0  0  0  0  0  0  0  0  0  0  0
    1.3481   -2.1204    2.1924 O   0  0  0  0  0  0  0  0  0  0  0  0
    3.2659   -3.2537    1.8042 N   0  0  0  0  0  0  0  0  0  0  0  0
    2.8202   -4.4508    2.3670 N   0  0  0  0  0  0  0  0  0  0  0  0
    2.8178    1.0144   -0.4268 N   0  0  0  0  0  0  0  0  0  0  0  0
    1.9178    1.7886   -1.2775 C   0  0  0  0  0  0  0  0  0  0  0  0
    0.9907    2.7292   -0.4897 C   0  0  0  0  0  0  0  0  0  0  0  0
    1.8210    3.6638    0.3969 C   0  0  0  0  0  0  0  0  0  0  0  0
    2.8125    2.9012    1.2998 C   0  0  2  0  0  0  0  0  0  0  0  0
    2.1097    2.2411    2.4925 C   0  0  0  0  0  0  0  0  0  0  0  0
    3.8135    3.7947    1.7895 O   0  0  0  0  0  0  0  0  0  0  0  0
    3.6054    1.8974    0.4203 C   0  0  0  0  0  0  0  0  0  0  0  0
    1.7208   -2.2145   -0.7704 H   0  0  0  0  0  0  0  0  0  0  0  0
    3.1350   -1.4469   -1.5638 H   0  0  0  0  0  0  0  0  0  0  0  0
    1.4849   -0.8813   -1.9039 H   0  0  0  0  0  0  0  0  0  0  0  0
    1.2729   -0.1490    0.5095 H   0  0  0  0  0  0  0  0  0  0  0  0
    3.2903   -0.2053    1.9911 H   0  0  0  0  0  0  0  0  0  0  0  0
    4.1557   -1.1359    0.7538 H   0  0  0  0  0  0  0  0  0  0  0  0
    4.2095   -3.2584    1.4354 H   0  0  0  0  0  0  0  0  0  0  0  0
    1.9592   -4.7275    1.8879 H   0  0  0  0  0  0  0  0  0  0  0  0
    2.5347   -4.2642    3.3319 H   0  0  0  0  0  0  0  0  0  0  0  0
    1.3263    1.1118   -1.9091 H   0  0  0  0  0  0  0  0  0  0  0  0
    2.5326    2.3982   -1.9680 H   0  0  0  0  0  0  0  0  0  0  0  0
    0.2894    2.1356    0.1224 H   0  0  0  0  0  0  0  0  0  0  0  0
    0.3712    3.3168   -1.1889 H   0  0  0  0  0  0  0  0  0  0  0  0
    1.1708    4.3117    1.0129 H   0  0  0  0  0  0  0  0  0  0  0  0
    2.4234    4.3331   -0.2421 H   0  0  0  0  0  0  0  0  0  0  0  0
    1.5783    3.0038    3.0883 H   0  0  0  0  0  0  0  0  0  0  0  0
    2.8517    1.7632    3.1508 H   0  0  0  0  0  0  0  0  0  0  0  0
    1.3692    1.4840    2.1960 H   0  0  0  0  0  0  0  0  0  0  0  0
    3.3780    4.4603    2.3391 H   0  0  0  0  0  0  0  0  0  0  0  0
    4.3014    1.3327    1.0543 H   0  0  0  0  0  0  0  0  0  0  0  0
    4.2385    2.5225   -0.2358 H   0  0  0  0  0  0  0  0  0  0  0  0
  1  2  1  0
  1 16  1  0
  1 17  1  0
  1 18  1  0
  2  3  1  0
  2  8  1  0
  2 19  1  1
  3  4  1  0
  3 20  1  0
  3 21  1  0
  4  5  2  0
  4  6  1  0
  6  7  1  0
  6 22  1  0
  7 23  1  0
  7 24  1  0
  8  9  1  0
  8 15  1  0
  9 10  1  0
  9 25  1  0
  9 26  1  0
 10 11  1  0
 10 27  1  0
 10 28  1  0
 11 12  1  0
 11 29  1  0
 11 30  1  0
 12 13  1  0
 12 14  1  1
 12 15  1  0
 13 31  1  0
 13 32  1  0
 13 33  1  0
 14 34  1  0
 15 35  1  0
 15 36  1  0
M  END

