
     RDKit          3D

 67 71  0  0  0  0  0  0  0  0999 V2000
    1.9434   -2.2468    0.7977 C   0  0  0  0  0  0  0  0  0  0  0  0
    3.2148   -1.5459    0.4404 C   0  0  0  0  0  0  0  0  0  0  0  0
    4.0074   -0.7116    1.1986 C   0  0  0  0  0  0  0  0  0  0  0  0
    5.1272   -0.3205    0.4017 C   0  0  0  0  0  0  0  0  0  0  0  0
    6.2033    0.6500    0.7775 C   0  0  1  0  0  0  0  0  0  0  0  0
    5.8719    2.1719    0.5709 C   0  0  1  0  0  0  0  0  0  0  0  0
    4.4042    2.5698    0.6877 C   0  0  0  0  0  0  0  0  0  0  0  0
    3.8405    3.0002    1.8982 C   0  0  0  0  0  0  0  0  0  0  0  0
    2.4928    3.3664    1.9151 C   0  0  0  0  0  0  0  0  0  0  0  0
    1.7569    3.2911    0.7319 C   0  0  0  0  0  0  0  0  0  0  0  0
    2.4073    2.8488   -0.4252 C   0  0  0  0  0  0  0  0  0  0  0  0
    3.6972    2.5026   -0.4480 N   0  0  0  0  0  0  0  0  0  0  0  0
    6.7159    2.7474    1.6001 N   0  0  0  0  0  0  0  0  0  0  0  0
    6.9812    1.8795    2.6265 C   0  0  0  0  0  0  0  0  0  0  0  0
    7.6478    2.3403    4.0806 S   0  0  0  0  0  0  0  0  0  0  0  0
    6.5971    0.6239    2.2051 N   0  0  0  0  0  0  0  0  0  0  0  0
    6.8947   -0.5904    2.8851 C   0  0  0  0  0  0  0  0  0  0  0  0
    6.5183   -0.7748    4.2268 C   0  0  0  0  0  0  0  0  0  0  0  0
    6.8020   -1.9671    4.8810 C   0  0  0  0  0  0  0  0  0  0  0  0
    7.4566   -3.0194    4.2155 C   0  0  0  0  0  0  0  0  0  0  0  0
    7.6578   -4.1482    4.9457 O   0  0  0  0  0  0  0  0  0  0  0  0
    8.3853   -5.2628    4.4214 C   0  0  1  0  0  0  0  0  0  0  0  0
    9.8909   -5.0081    4.4847 C   0  0  0  0  0  0  0  0  0  0  0  0
    7.9583   -6.4693    5.2481 C   0  0  0  0  0  0  0  0  0  0  0  0
    7.8260   -2.8433    2.8742 C   0  0  0  0  0  0  0  0  0  0  0  0
    7.5468   -1.6357    2.2240 C   0  0  0  0  0  0  0  0  0  0  0  0
    4.9902   -0.9351   -0.8349 C   0  0  0  0  0  0  0  0  0  0  0  0
    5.8522   -0.8626   -2.0555 C   0  0  0  0  0  0  0  0  0  0  0  0
    3.8206   -1.6811   -0.8018 N   0  0  0  0  0  0  0  0  0  0  0  0
    3.2076   -2.3217   -1.9475 C   0  0  0  0  0  0  0  0  0  0  0  0
    2.2021   -1.4529   -2.6914 C   0  0  0  0  0  0  0  0  0  0  0  0
    1.2586   -2.0277   -3.5529 C   0  0  0  0  0  0  0  0  0  0  0  0
    0.3601   -1.2036   -4.2300 C   0  0  0  0  0  0  0  0  0  0  0  0
    0.4307    0.1771   -4.0145 C   0  0  0  0  0  0  0  0  0  0  0  0
    1.3210    0.7398   -3.1962 N   0  0  0  0  0  0  0  0  0  0  0  0
    2.1854   -0.0557   -2.5567 C   0  0  0  0  0  0  0  0  0  0  0  0
    1.6587   -1.9858    1.8264 H   0  0  0  0  0  0  0  0  0  0  0  0
    2.0414   -3.3464    0.7529 H   0  0  0  0  0  0  0  0  0  0  0  0
    1.1043   -1.9650    0.1384 H   0  0  0  0  0  0  0  0  0  0  0  0
    3.8190   -0.4295    2.2319 H   0  0  0  0  0  0  0  0  0  0  0  0
    7.1011    0.4533    0.1622 H   0  0  0  0  0  0  0  0  0  0  0  0
    6.1922    2.4652   -0.4400 H   0  0  0  0  0  0  0  0  0  0  0  0
    4.4434    3.0521    2.8070 H   0  0  0  0  0  0  0  0  0  0  0  0
    2.0258    3.7066    2.8433 H   0  0  0  0  0  0  0  0  0  0  0  0
    0.7012    3.5696    0.6987 H   0  0  0  0  0  0  0  0  0  0  0  0
    1.8627    2.7592   -1.3730 H   0  0  0  0  0  0  0  0  0  0  0  0
    6.7377    3.7394    1.8037 H   0  0  0  0  0  0  0  0  0  0  0  0
    6.0120    0.0311    4.7567 H   0  0  0  0  0  0  0  0  0  0  0  0
    6.5153   -2.1158    5.9240 H   0  0  0  0  0  0  0  0  0  0  0  0
    8.0808   -5.4307    3.3716 H   0  0  0  0  0  0  0  0  0  0  0  0
   10.2049   -4.8557    5.5295 H   0  0  0  0  0  0  0  0  0  0  0  0
   10.1756   -4.1143    3.9102 H   0  0  0  0  0  0  0  0  0  0  0  0
   10.4457   -5.8680    4.0766 H   0  0  0  0  0  0  0  0  0  0  0  0
    8.2152   -6.3164    6.3082 H   0  0  0  0  0  0  0  0  0  0  0  0
    8.4645   -7.3806    4.8941 H   0  0  0  0  0  0  0  0  0  0  0  0
    6.8708   -6.6210    5.1772 H   0  0  0  0  0  0  0  0  0  0  0  0
    8.3361   -3.6310    2.3199 H   0  0  0  0  0  0  0  0  0  0  0  0
    7.8502   -1.5203    1.1824 H   0  0  0  0  0  0  0  0  0  0  0  0
    6.7608   -0.2817   -1.8458 H   0  0  0  0  0  0  0  0  0  0  0  0
    5.3460   -0.3699   -2.9038 H   0  0  0  0  0  0  0  0  0  0  0  0
    6.1779   -1.8602   -2.3990 H   0  0  0  0  0  0  0  0  0  0  0  0
    2.7141   -3.2501   -1.6196 H   0  0  0  0  0  0  0  0  0  0  0  0
    4.0053   -2.6347   -2.6397 H   0  0  0  0  0  0  0  0  0  0  0  0
    1.2231   -3.1135   -3.6891 H   0  0  0  0  0  0  0  0  0  0  0  0
   -0.3891   -1.6207   -4.9069 H   0  0  0  0  0  0  0  0  0  0  0  0
   -0.2657    0.8531   -4.5247 H   0  0  0  0  0  0  0  0  0  0  0  0
    2.9013    0.4431   -1.8948 H   0  0  0  0  0  0  0  0  0  0  0  0
  1  2  1  0
  1 37  1  0
  1 38  1  0
  1 39  1  0
  2  3  2  0
  2 29  1  0
  3  4  1  0
  3 40  1  0
  4  5  1  0
  4 27  2  0
  5  6  1  0
  5 16  1  0
  5 41  1  6
  6  7  1  0
  6 13  1  0
  6 42  1  6
  7  8  2  0
  7 12  1  0
  8  9  1  0
  8 43  1  0
  9 10  2  0
  9 44  1  0
 10 11  1  0
 10 45  1  0
 11 12  2  0
 11 46  1  0
 13 14  1  0
 13 47  1  0
 14 15  2  0
 14 16  1  0
 16 17  1  0
 17 18  2  0
 17 26  1  0
 18 19  1  0
 18 48  1  0
 19 20  2  0
 19 49  1  0
 20 21  1  0
 20 25  1  0
 21 22  1  0
 22 23  1  0
 22 24  1  0
 22 50  1  6
 23 51  1  0
 23 52  1  0
 23 53  1  0
 24 54  1  0
 24 55  1  0
 24 56  1  0
 25 26  2  0
 25 57  1  0
 26 58  1  0
 27 28  1  0
 27 29  1  0
 28 59  1  0
 28 60  1  0
 28 61  1  0
 29 30  1  0
 30 31  1  0
 30 62  1  0
 30 63  1  0
 31 32  2  0
 31 36  1  0
 32 33  1  0
 32 64  1  0
 33 34  2  0
 33 65  1  0
 34 35  1  0
 34 66  1  0
 35 36  2  0
 36 67  1  0
M  END

