
     RDKit          3D

 62 66  0  0  0  0  0  0  0  0999 V2000
    5.8735   -0.8629   -3.6646 N   0  0  0  0  0  0  0  0  0  0  0  0
    5.0302    0.1424   -3.2330 C   0  0  0  0  0  0  0  0  0  0  0  0
    5.1976    0.6164   -2.0017 N   0  0  0  0  0  0  0  0  0  0  0  0
    4.3966    1.5919   -1.5491 C   0  0  0  0  0  0  0  0  0  0  0  0
    4.6906    2.0172   -0.1188 C   0  0  0  0  0  0  0  0  0  0  0  0
    3.9529    3.1837    0.3460 N   0  0  0  0  0  0  0  0  0  0  0  0
    2.6597    3.1624    0.8546 C   0  0  0  0  0  0  0  0  0  0  0  0
    1.9892    1.9589    1.3794 C   0  0  0  0  0  0  0  0  0  0  0  0
    2.6128    1.0954    2.3010 C   0  0  0  0  0  0  0  0  0  0  0  0
    1.9404   -0.0109    2.8218 C   0  0  0  0  0  0  0  0  0  0  0  0
    0.6225   -0.2628    2.4398 C   0  0  0  0  0  0  0  0  0  0  0  0
    0.0264   -1.4212    2.9133 O   0  0  0  0  0  0  0  0  0  0  0  0
   -1.1011   -1.3983    3.6527 C   0  0  0  0  0  0  0  0  0  0  0  0
   -1.5844   -2.6098    3.9352 N   0  0  0  0  0  0  0  0  0  0  0  0
   -2.6843   -2.6383    4.6826 C   0  0  0  0  0  0  0  0  0  0  0  0
   -3.3100   -1.4773    5.1501 C   0  0  0  0  0  0  0  0  0  0  0  0
   -2.7086   -0.2739    4.7827 C   0  0  0  0  0  0  0  0  0  0  0  0
   -1.6049   -0.2276    4.0349 N   0  0  0  0  0  0  0  0  0  0  0  0
   -0.0257    0.5824    1.5361 C   0  0  0  0  0  0  0  0  0  0  0  0
    0.6577    1.6787    1.0130 C   0  0  0  0  0  0  0  0  0  0  0  0
    2.1690    4.4616    0.8212 C   0  0  0  0  0  0  0  0  0  0  0  0
    3.1822    5.2924    0.2804 C   0  0  0  0  0  0  0  0  0  0  0  0
    4.2755    4.4875   -0.0047 C   0  0  0  0  0  0  0  0  0  0  0  0
    5.5715    4.9005   -0.5825 C   0  0  0  0  0  0  0  0  0  0  0  0
    5.5947    5.5378   -1.8391 C   0  0  0  0  0  0  0  0  0  0  0  0
    6.7795    6.0063   -2.4074 C   0  0  0  0  0  0  0  0  0  0  0  0
    7.9889    5.8404   -1.7277 C   0  0  0  0  0  0  0  0  0  0  0  0
    8.0023    5.2199   -0.4773 C   0  0  0  0  0  0  0  0  0  0  0  0
    6.8070    4.7663    0.0872 C   0  0  0  0  0  0  0  0  0  0  0  0
    6.8811    4.0536    1.6895 Cl  0  0  0  0  0  0  0  0  0  0  0  0
    3.3875    2.1533   -2.3299 C   0  0  0  0  0  0  0  0  0  0  0  0
    3.1952    1.6412   -3.6226 C   0  0  0  0  0  0  0  0  0  0  0  0
    4.0036    0.6163   -4.1050 C   0  0  0  0  0  0  0  0  0  0  0  0
    3.9014    0.0775   -5.4108 N   0  0  0  0  0  0  0  0  0  0  0  0
    3.3230   -1.2660   -5.5384 C   0  0  0  0  0  0  0  0  0  0  0  0
    1.8339   -1.3269   -5.2173 C   0  0  0  0  0  0  0  0  0  0  0  0
    1.1786   -0.3986   -6.0660 O   0  0  0  0  0  0  0  0  0  0  0  0
    6.7048   -0.9750   -3.0936 H   0  0  0  0  0  0  0  0  0  0  0  0
    6.0301   -0.8768   -4.6689 H   0  0  0  0  0  0  0  0  0  0  0  0
    5.7677    2.2052   -0.0212 H   0  0  0  0  0  0  0  0  0  0  0  0
    4.4728    1.1693    0.5442 H   0  0  0  0  0  0  0  0  0  0  0  0
    3.6284    1.3097    2.6410 H   0  0  0  0  0  0  0  0  0  0  0  0
    2.4235   -0.6815    3.5350 H   0  0  0  0  0  0  0  0  0  0  0  0
   -3.0884   -3.6299    4.9207 H   0  0  0  0  0  0  0  0  0  0  0  0
   -4.2121   -1.5118    5.7624 H   0  0  0  0  0  0  0  0  0  0  0  0
   -3.1250    0.6896    5.1005 H   0  0  0  0  0  0  0  0  0  0  0  0
   -1.0547    0.3757    1.2385 H   0  0  0  0  0  0  0  0  0  0  0  0
    0.1583    2.3298    0.2922 H   0  0  0  0  0  0  0  0  0  0  0  0
    1.2022    4.7739    1.2114 H   0  0  0  0  0  0  0  0  0  0  0  0
    3.1529    6.3736    0.1595 H   0  0  0  0  0  0  0  0  0  0  0  0
    4.6491    5.6493   -2.3737 H   0  0  0  0  0  0  0  0  0  0  0  0
    6.7586    6.4928   -3.3854 H   0  0  0  0  0  0  0  0  0  0  0  0
    8.9252    6.1964   -2.1644 H   0  0  0  0  0  0  0  0  0  0  0  0
    8.9336    5.0944    0.0775 H   0  0  0  0  0  0  0  0  0  0  0  0
    2.7575    2.9557   -1.9450 H   0  0  0  0  0  0  0  0  0  0  0  0
    2.3982    2.0327   -4.2619 H   0  0  0  0  0  0  0  0  0  0  0  0
    3.3771    0.7083   -6.0143 H   0  0  0  0  0  0  0  0  0  0  0  0
    3.8698   -1.9627   -4.8843 H   0  0  0  0  0  0  0  0  0  0  0  0
    3.4747   -1.5999   -6.5789 H   0  0  0  0  0  0  0  0  0  0  0  0
    1.6719   -1.0801   -4.1497 H   0  0  0  0  0  0  0  0  0  0  0  0
    1.4698   -2.3620   -5.3791 H   0  0  0  0  0  0  0  0  0  0  0  0
    0.2518   -0.3387   -5.8052 H   0  0  0  0  0  0  0  0  0  0  0  0
  1  2  1  0
  1 38  1  0
  1 39  1  0
  2  3  2  0
  2 33  1  0
  3  4  1  0
  4  5  1  0
  4 31  2  0
  5  6  1  0
  5 40  1  0
  5 41  1  0
  6  7  1  0
  6 23  1  0
  7  8  1  0
  7 21  2  0
  8  9  2  0
  8 20  1  0
  9 10  1  0
  9 42  1  0
 10 11  2  0
 10 43  1  0
 11 12  1  0
 11 19  1  0
 12 13  1  0
 13 14  2  0
 13 18  1  0
 14 15  1  0
 15 16  2  0
 15 44  1  0
 16 17  1  0
 16 45  1  0
 17 18  2  0
 17 46  1  0
 19 20  2  0
 19 47  1  0
 20 48  1  0
 21 22  1  0
 21 49  1  0
 22 23  2  0
 22 50  1  0
 23 24  1  0
 24 25  2  0
 24 29  1  0
 25 26  1  0
 25 51  1  0
 26 27  2  0
 26 52  1  0
 27 28  1  0
 27 53  1  0
 28 29  2  0
 28 54  1  0
 29 30  1  0
 31 32  1  0
 31 55  1  0
 32 33  2  0
 32 56  1  0
 33 34  1  0
 34 35  1  0
 34 57  1  0
 35 36  1  0
 35 58  1  0
 35 59  1  0
 36 37  1  0
 36 60  1  0
 36 61  1  0
 37 62  1  0
M  END

