
     RDKit          3D

 51 54  0  0  0  0  0  0  0  0999 V2000
    6.0073    4.3085   -9.8650 C   0  0  0  0  0  0  0  0  0  0  0  0
    5.8554    3.2640   -8.9304 O   0  0  0  0  0  0  0  0  0  0  0  0
    5.7104    3.5644   -7.6155 C   0  0  0  0  0  0  0  0  0  0  0  0
    5.7006    4.8661   -7.0916 C   0  0  0  0  0  0  0  0  0  0  0  0
    5.5453    5.0618   -5.7146 C   0  0  0  0  0  0  0  0  0  0  0  0
    5.3994    3.9819   -4.8357 C   0  0  0  0  0  0  0  0  0  0  0  0
    5.1642    4.1826   -3.3444 C   0  0  2  0  0  0  0  0  0  0  0  0
    5.5349    3.3088   -2.7955 H   0  0  0  0  0  0  0  0  0  0  0  0
    3.6846    4.4859   -2.9957 C   0  0  0  0  0  0  0  0  0  0  0  0
    3.7310    5.9790   -2.7272 C   0  0  0  0  0  0  0  0  0  0  0  0
    2.5595    6.8445   -2.5424 C   0  0  0  0  0  0  0  0  0  0  0  0
    1.2554    6.3235   -2.6285 C   0  0  0  0  0  0  0  0  0  0  0  0
    0.1442    7.1505   -2.4429 C   0  0  0  0  0  0  0  0  0  0  0  0
    0.3183    8.5092   -2.1707 C   0  0  0  0  0  0  0  0  0  0  0  0
    1.6133    9.0385   -2.0833 C   0  0  0  0  0  0  0  0  0  0  0  0
    2.7231    8.2183   -2.2662 C   0  0  0  0  0  0  0  0  0  0  0  0
    4.9351    6.4298   -2.6212 N   0  0  0  0  0  0  0  0  0  0  0  0
    5.8232    5.4098   -2.8250 N   0  0  0  0  0  0  0  0  0  0  0  0
    7.1763    5.6250   -2.6357 C   0  0  0  0  0  0  0  0  0  0  0  0
    7.6580    6.7112   -2.3966 O   0  0  0  0  0  0  0  0  0  0  0  0
    8.0446    4.3665   -2.7123 C   0  0  0  0  0  0  0  0  0  0  0  0
    7.6610    3.4916   -1.6435 O   0  0  0  0  0  0  0  0  0  0  0  0
    8.4454    2.3914   -1.4360 C   0  0  0  0  0  0  0  0  0  0  0  0
    9.2272    2.2927   -0.2803 C   0  0  0  0  0  0  0  0  0  0  0  0
    9.9861    1.1447   -0.0330 C   0  0  0  0  0  0  0  0  0  0  0  0
    9.9768    0.0860   -0.9460 C   0  0  0  0  0  0  0  0  0  0  0  0
    9.2000    0.1695   -2.1064 C   0  0  0  0  0  0  0  0  0  0  0  0
    8.4442    1.3136   -2.3348 C   0  0  0  0  0  0  0  0  0  0  0  0
    7.6774    1.3967   -3.4386 F   0  0  0  0  0  0  0  0  0  0  0  0
    5.4204    2.6833   -5.3743 C   0  0  0  0  0  0  0  0  0  0  0  0
    5.5714    2.4725   -6.7406 C   0  0  0  0  0  0  0  0  0  0  0  0
    6.1062    3.8347  -10.8509 H   0  0  0  0  0  0  0  0  0  0  0  0
    6.9121    4.9111   -9.6661 H   0  0  0  0  0  0  0  0  0  0  0  0
    5.1302    4.9806   -9.8782 H   0  0  0  0  0  0  0  0  0  0  0  0
    5.8152    5.7347   -7.7402 H   0  0  0  0  0  0  0  0  0  0  0  0
    5.5468    6.0831   -5.3253 H   0  0  0  0  0  0  0  0  0  0  0  0
    3.3509    3.9503   -2.0897 H   0  0  0  0  0  0  0  0  0  0  0  0
    3.0056    4.2102   -3.8147 H   0  0  0  0  0  0  0  0  0  0  0  0
    1.1024    5.2631   -2.8408 H   0  0  0  0  0  0  0  0  0  0  0  0
   -0.8620    6.7292   -2.5124 H   0  0  0  0  0  0  0  0  0  0  0  0
   -0.5507    9.1564   -2.0266 H   0  0  0  0  0  0  0  0  0  0  0  0
    1.7553   10.1011   -1.8697 H   0  0  0  0  0  0  0  0  0  0  0  0
    3.7357    8.6200   -2.1983 H   0  0  0  0  0  0  0  0  0  0  0  0
    9.0849    4.7001   -2.5804 H   0  0  0  0  0  0  0  0  0  0  0  0
    7.9419    3.8609   -3.6875 H   0  0  0  0  0  0  0  0  0  0  0  0
    9.2158    3.1328    0.4173 H   0  0  0  0  0  0  0  0  0  0  0  0
   10.5891    1.0802    0.8756 H   0  0  0  0  0  0  0  0  0  0  0  0
   10.5713   -0.8107   -0.7576 H   0  0  0  0  0  0  0  0  0  0  0  0
    9.1626   -0.6413   -2.8370 H   0  0  0  0  0  0  0  0  0  0  0  0
    5.3337    1.8204   -4.7089 H   0  0  0  0  0  0  0  0  0  0  0  0
    5.5963    1.4649   -7.1604 H   0  0  0  0  0  0  0  0  0  0  0  0
  1  2  1  0
  1 32  1  0
  1 33  1  0
  1 34  1  0
  2  3  1  0
  3  4  2  0
  3 31  1  0
  4  5  1  0
  4 35  1  0
  5  6  2  0
  5 36  1  0
  6  7  1  0
  6 30  1  0
  7  8  1  1
  7  9  1  0
  7 18  1  0
  9 10  1  0
  9 37  1  0
  9 38  1  0
 10 11  1  0
 10 17  2  0
 11 12  2  0
 11 16  1  0
 12 13  1  0
 12 39  1  0
 13 14  2  0
 13 40  1  0
 14 15  1  0
 14 41  1  0
 15 16  2  0
 15 42  1  0
 16 43  1  0
 17 18  1  0
 18 19  1  0
 19 20  2  0
 19 21  1  0
 21 22  1  0
 21 44  1  0
 21 45  1  0
 22 23  1  0
 23 24  2  0
 23 28  1  0
 24 25  1  0
 24 46  1  0
 25 26  2  0
 25 47  1  0
 26 27  1  0
 26 48  1  0
 27 28  2  0
 27 49  1  0
 28 29  1  0
 30 31  2  0
 30 50  1  0
 31 51  1  0
M  END

