
     RDKit          3D

 52 54  0  0  0  0  0  0  0  0999 V2000
    5.5150   -0.9898    1.5316 C   0  0  0  0  0  0  0  0  0  0  0  0
    4.5009   -0.2387    0.6681 C   0  0  0  0  0  0  0  0  0  0  0  0
    5.1515    0.6575   -0.3893 C   0  0  0  0  0  0  0  0  0  0  0  0
    4.1267    1.4127   -1.2510 C   0  0  0  0  0  0  0  0  0  0  0  0
    4.7600    2.2475   -2.3164 C   0  0  0  0  0  0  0  0  0  0  0  0
    4.6438    3.5503   -2.3595 N   0  0  0  0  0  0  0  0  0  0  0  0
    5.3877    3.9108   -3.4867 O   0  0  0  0  0  0  0  0  0  0  0  0
    5.8753    2.7818   -4.0061 C   0  0  0  0  0  0  0  0  0  0  0  0
    6.7438    2.8629   -5.2312 C   0  0  1  0  0  0  0  0  0  0  0  0
    7.9849    3.7385   -4.9551 C   0  0  0  0  0  0  0  0  0  0  0  0
    7.0643    1.5184   -5.6465 N   0  0  0  0  0  0  0  0  0  0  0  0
    7.2864    1.1343   -6.9597 C   0  0  0  0  0  0  0  0  0  0  0  0
    7.4322    2.0672   -8.0098 C   0  0  0  0  0  0  0  0  0  0  0  0
    7.6742    1.6010   -9.3015 C   0  0  0  0  0  0  0  0  0  0  0  0
    7.7733    0.2409   -9.5937 C   0  0  0  0  0  0  0  0  0  0  0  0
    7.6395   -0.7112   -8.5565 C   0  0  0  0  0  0  0  0  0  0  0  0
    7.7646   -2.0924   -8.7930 N   0  0  0  0  0  0  0  0  0  0  0  0
    8.2615   -2.5477  -10.0843 C   0  0  0  0  0  0  0  0  0  0  0  0
    8.8509   -3.9598   -9.9891 C   0  0  0  0  0  0  0  0  0  0  0  0
    7.8563   -4.9509   -9.3802 C   0  0  0  0  0  0  0  0  0  0  0  0
    7.3406   -4.4171   -8.0411 C   0  0  0  0  0  0  0  0  0  0  0  0
    6.7837   -3.0012   -8.1982 C   0  0  0  0  0  0  0  0  0  0  0  0
    7.3997   -0.2382   -7.2523 C   0  0  0  0  0  0  0  0  0  0  0  0
    5.5310    1.7246   -3.3357 N   0  0  0  0  0  0  0  0  0  0  0  0
    5.0153   -1.6274    2.2781 H   0  0  0  0  0  0  0  0  0  0  0  0
    6.1724   -0.2920    2.0767 H   0  0  0  0  0  0  0  0  0  0  0  0
    6.1610   -1.6392    0.9175 H   0  0  0  0  0  0  0  0  0  0  0  0
    3.8473    0.3755    1.3138 H   0  0  0  0  0  0  0  0  0  0  0  0
    3.8326   -0.9627    0.1673 H   0  0  0  0  0  0  0  0  0  0  0  0
    5.7951    0.0504   -1.0493 H   0  0  0  0  0  0  0  0  0  0  0  0
    5.8177    1.3885    0.1026 H   0  0  0  0  0  0  0  0  0  0  0  0
    3.5019    2.0702   -0.6275 H   0  0  0  0  0  0  0  0  0  0  0  0
    3.4536    0.6867   -1.7395 H   0  0  0  0  0  0  0  0  0  0  0  0
    6.1357    3.3677   -6.0080 H   0  0  0  0  0  0  0  0  0  0  0  0
    8.5909    3.2927   -4.1519 H   0  0  0  0  0  0  0  0  0  0  0  0
    7.6911    4.7573   -4.6600 H   0  0  0  0  0  0  0  0  0  0  0  0
    8.6066    3.7975   -5.8596 H   0  0  0  0  0  0  0  0  0  0  0  0
    6.7883    0.7932   -4.9936 H   0  0  0  0  0  0  0  0  0  0  0  0
    7.3654    3.1398   -7.8273 H   0  0  0  0  0  0  0  0  0  0  0  0
    7.7773    2.3257  -10.1143 H   0  0  0  0  0  0  0  0  0  0  0  0
    7.9322   -0.0712  -10.6245 H   0  0  0  0  0  0  0  0  0  0  0  0
    9.0430   -1.8550  -10.4260 H   0  0  0  0  0  0  0  0  0  0  0  0
    7.4578   -2.5346  -10.8562 H   0  0  0  0  0  0  0  0  0  0  0  0
    9.7593   -3.9195   -9.3628 H   0  0  0  0  0  0  0  0  0  0  0  0
    9.1658   -4.2860  -10.9945 H   0  0  0  0  0  0  0  0  0  0  0  0
    8.3207   -5.9433   -9.2556 H   0  0  0  0  0  0  0  0  0  0  0  0
    7.0033   -5.0872  -10.0709 H   0  0  0  0  0  0  0  0  0  0  0  0
    8.1648   -4.3977   -7.3066 H   0  0  0  0  0  0  0  0  0  0  0  0
    6.5543   -5.0736   -7.6319 H   0  0  0  0  0  0  0  0  0  0  0  0
    6.4665   -2.6122   -7.2235 H   0  0  0  0  0  0  0  0  0  0  0  0
    5.8690   -3.0397   -8.8335 H   0  0  0  0  0  0  0  0  0  0  0  0
    7.3321   -0.9470   -6.4244 H   0  0  0  0  0  0  0  0  0  0  0  0
  1  2  1  0
  1 25  1  0
  1 26  1  0
  1 27  1  0
  2  3  1  0
  2 28  1  0
  2 29  1  0
  3  4  1  0
  3 30  1  0
  3 31  1  0
  4  5  1  0
  4 32  1  0
  4 33  1  0
  5  6  2  0
  5 24  1  0
  6  7  1  0
  7  8  1  0
  8  9  1  0
  8 24  2  0
  9 10  1  0
  9 11  1  0
  9 34  1  6
 10 35  1  0
 10 36  1  0
 10 37  1  0
 11 12  1  0
 11 38  1  0
 12 13  2  0
 12 23  1  0
 13 14  1  0
 13 39  1  0
 14 15  2  0
 14 40  1  0
 15 16  1  0
 15 41  1  0
 16 17  1  0
 16 23  2  0
 17 18  1  0
 17 22  1  0
 18 19  1  0
 18 42  1  0
 18 43  1  0
 19 20  1  0
 19 44  1  0
 19 45  1  0
 20 21  1  0
 20 46  1  0
 20 47  1  0
 21 22  1  0
 21 48  1  0
 21 49  1  0
 22 50  1  0
 22 51  1  0
 23 52  1  0
M  END

