
     RDKit          3D

 60 62  0  0  0  0  0  0  0  0999 V2000
    3.8840    0.2699    0.0356 C   0  0  0  0  0  0  0  0  0  0  0  0
    2.8806    0.2621    1.1418 C   0  0  0  0  0  0  0  0  0  0  0  0
    2.1179    1.2780    1.6448 C   0  0  0  0  0  0  0  0  0  0  0  0
    1.9364    2.6035    1.2318 N   0  0  0  0  0  0  0  0  0  0  0  0
    1.6543    3.0074   -0.0489 C   0  0  0  0  0  0  0  0  0  0  0  0
    1.7617    2.2928   -1.0310 O   0  0  0  0  0  0  0  0  0  0  0  0
    1.1681    4.4513   -0.1380 C   0  0  0  0  0  0  0  0  0  0  0  0
   -0.6411    4.6355    0.1564 S   0  0  0  0  0  0  0  0  0  0  0  0
   -0.8332    4.2076    1.9392 C   0  0  0  0  0  0  0  0  0  0  0  0
    0.0190    5.0962    2.8273 C   0  0  0  0  0  0  0  0  0  0  0  0
    1.2219    4.8770    2.9534 O   0  0  0  0  0  0  0  0  0  0  0  0
   -0.6318    6.1412    3.4180 N   0  0  0  0  0  0  0  0  0  0  0  0
   -0.1272    7.1628    4.2526 C   0  0  0  0  0  0  0  0  0  0  0  0
    1.2180    7.2372    4.6532 C   0  0  0  0  0  0  0  0  0  0  0  0
    1.6137    8.2869    5.4832 C   0  0  0  0  0  0  0  0  0  0  0  0
    0.7038    9.2540    5.9173 C   0  0  0  0  0  0  0  0  0  0  0  0
   -0.6421    9.1916    5.5260 C   0  0  0  0  0  0  0  0  0  0  0  0
   -1.6414   10.2424    5.9962 C   0  0  1  0  0  0  0  0  0  0  0  0
   -2.2265   11.0498    4.8247 C   0  0  0  0  0  0  0  0  0  0  0  0
   -2.7540    9.6335    6.8670 C   0  0  0  0  0  0  0  0  0  0  0  0
   -1.0385    8.1374    4.6931 C   0  0  0  0  0  0  0  0  0  0  0  0
    1.3372    0.7647    2.7675 C   0  0  0  0  0  0  0  0  0  0  0  0
    0.4731    1.3220    3.4307 O   0  0  0  0  0  0  0  0  0  0  0  0
    1.7375   -0.5765    2.8952 N   0  0  0  0  0  0  0  0  0  0  0  0
    0.9666   -1.5879    3.5197 C   0  0  0  0  0  0  0  0  0  0  0  0
    0.4289   -1.3503    4.7953 C   0  0  0  0  0  0  0  0  0  0  0  0
   -0.3431   -2.3359    5.4120 C   0  0  0  0  0  0  0  0  0  0  0  0
   -0.5738   -3.5632    4.7818 C   0  0  0  0  0  0  0  0  0  0  0  0
   -0.0370   -3.7944    3.5124 C   0  0  0  0  0  0  0  0  0  0  0  0
    0.7215   -2.8107    2.8736 C   0  0  0  0  0  0  0  0  0  0  0  0
    2.6298   -0.9107    1.8625 N   0  0  0  0  0  0  0  0  0  0  0  0
    3.7714   -1.7213    2.2911 C   0  0  0  0  0  0  0  0  0  0  0  0
    3.5917    1.0297   -0.7004 H   0  0  0  0  0  0  0  0  0  0  0  0
    3.9192   -0.7046   -0.4738 H   0  0  0  0  0  0  0  0  0  0  0  0
    4.8975    0.4998    0.4082 H   0  0  0  0  0  0  0  0  0  0  0  0
    1.7630    3.2825    1.9837 H   0  0  0  0  0  0  0  0  0  0  0  0
    1.2964    4.7854   -1.1763 H   0  0  0  0  0  0  0  0  0  0  0  0
    1.7253    5.1175    0.5361 H   0  0  0  0  0  0  0  0  0  0  0  0
   -0.5626    3.1600    2.1409 H   0  0  0  0  0  0  0  0  0  0  0  0
   -1.9115    4.3261    2.1249 H   0  0  0  0  0  0  0  0  0  0  0  0
   -1.6196    6.2176    3.2058 H   0  0  0  0  0  0  0  0  0  0  0  0
    1.9237    6.4830    4.3151 H   0  0  0  0  0  0  0  0  0  0  0  0
    2.6591    8.3478    5.7971 H   0  0  0  0  0  0  0  0  0  0  0  0
    1.0394   10.0666    6.5674 H   0  0  0  0  0  0  0  0  0  0  0  0
   -1.0778   10.9477    6.6309 H   0  0  0  0  0  0  0  0  0  0  0  0
   -2.8249   10.4118    4.1533 H   0  0  0  0  0  0  0  0  0  0  0  0
   -1.4312   11.5149    4.2217 H   0  0  0  0  0  0  0  0  0  0  0  0
   -2.8873   11.8507    5.1947 H   0  0  0  0  0  0  0  0  0  0  0  0
   -3.3773    8.9290    6.2916 H   0  0  0  0  0  0  0  0  0  0  0  0
   -3.4197   10.4212    7.2561 H   0  0  0  0  0  0  0  0  0  0  0  0
   -2.3362    9.0850    7.7255 H   0  0  0  0  0  0  0  0  0  0  0  0
   -2.0830    8.0650    4.3731 H   0  0  0  0  0  0  0  0  0  0  0  0
    0.6063   -0.3919    5.2811 H   0  0  0  0  0  0  0  0  0  0  0  0
   -0.7630   -2.1423    6.4024 H   0  0  0  0  0  0  0  0  0  0  0  0
   -1.1718   -4.3328    5.2756 H   0  0  0  0  0  0  0  0  0  0  0  0
   -0.2202   -4.7442    3.0033 H   0  0  0  0  0  0  0  0  0  0  0  0
    1.1110   -2.9746    1.8678 H   0  0  0  0  0  0  0  0  0  0  0  0
    4.4104   -1.1802    3.0131 H   0  0  0  0  0  0  0  0  0  0  0  0
    4.3654   -1.9907    1.4091 H   0  0  0  0  0  0  0  0  0  0  0  0
    3.4107   -2.6476    2.7565 H   0  0  0  0  0  0  0  0  0  0  0  0
  1  2  1  0
  1 33  1  0
  1 34  1  0
  1 35  1  0
  2  3  2  0
  2 31  1  0
  3  4  1  0
  3 22  1  0
  4  5  1  0
  4 36  1  0
  5  6  2  0
  5  7  1  0
  7  8  1  0
  7 37  1  0
  7 38  1  0
  8  9  1  0
  9 10  1  0
  9 39  1  0
  9 40  1  0
 10 11  2  0
 10 12  1  0
 12 13  1  0
 12 41  1  0
 13 14  2  0
 13 21  1  0
 14 15  1  0
 14 42  1  0
 15 16  2  0
 15 43  1  0
 16 17  1  0
 16 44  1  0
 17 18  1  0
 17 21  2  0
 18 19  1  0
 18 20  1  0
 18 45  1  1
 19 46  1  0
 19 47  1  0
 19 48  1  0
 20 49  1  0
 20 50  1  0
 20 51  1  0
 21 52  1  0
 22 23  2  0
 22 24  1  0
 24 25  1  0
 24 31  1  0
 25 26  2  0
 25 30  1  0
 26 27  1  0
 26 53  1  0
 27 28  2  0
 27 54  1  0
 28 29  1  0
 28 55  1  0
 29 30  2  0
 29 56  1  0
 30 57  1  0
 31 32  1  0
 32 58  1  0
 32 59  1  0
 32 60  1  0
M  END

