
     RDKit          3D

 58 60  0  0  0  0  0  0  0  0999 V2000
    0.7760   -0.8274   -1.4152 C   0  0  0  0  0  0  0  0  0  0  0  0
    2.0485   -1.2343   -1.4192 C   0  0  0  0  0  0  0  0  0  0  0  0
    2.8284   -1.6582   -0.2023 C   0  0  0  0  0  0  0  0  0  0  0  0
    4.1234   -0.9891   -0.1028 N   0  0  0  0  0  0  0  0  0  0  0  0
    4.0452    0.4556    0.1111 C   0  0  0  0  0  0  0  0  0  0  0  0
    3.7219    0.8956    1.5224 C   0  0  0  0  0  0  0  0  0  0  0  0
    4.3913    1.8250    2.2111 C   0  0  0  0  0  0  0  0  0  0  0  0
    5.1365   -1.7001    0.6645 C   0  0  0  0  0  0  0  0  0  0  0  0
    6.5838   -1.6092    0.1144 C   0  0  1  0  0  0  0  0  0  0  0  0
    6.6008   -1.9192   -1.3938 C   0  0  0  0  0  0  0  0  0  0  0  0
    7.3493   -0.3091    0.4751 C   0  0  0  0  0  0  0  0  0  0  0  0
    8.7706   -0.7352    0.9374 C   0  0  2  0  0  0  0  0  0  0  0  0
    9.8841   -0.4799   -0.1081 C   0  0  0  0  0  0  0  0  0  0  0  0
   11.2480   -0.9526    0.3386 C   0  0  0  0  0  0  0  0  0  0  0  0
   11.7115   -2.2402    0.0251 C   0  0  0  0  0  0  0  0  0  0  0  0
   12.9520   -2.6912    0.4791 C   0  0  0  0  0  0  0  0  0  0  0  0
   13.7809   -1.8714    1.2659 C   0  0  0  0  0  0  0  0  0  0  0  0
   15.1129   -2.3572    1.7140 C   0  0  0  0  0  0  0  0  0  0  0  0
   15.9224   -3.1319    0.8617 C   0  0  0  0  0  0  0  0  0  0  0  0
   17.1658   -3.6081    1.2797 C   0  0  0  0  0  0  0  0  0  0  0  0
   18.1374   -4.5577    0.1776 Cl  0  0  0  0  0  0  0  0  0  0  0  0
   17.6476   -3.3293    2.5616 C   0  0  0  0  0  0  0  0  0  0  0  0
   16.8619   -2.5629    3.4228 C   0  0  0  0  0  0  0  0  0  0  0  0
   15.6236   -2.0915    2.9968 C   0  0  0  0  0  0  0  0  0  0  0  0
   14.8952   -1.3692    3.8653 F   0  0  0  0  0  0  0  0  0  0  0  0
   13.3153   -0.5813    1.5833 C   0  0  0  0  0  0  0  0  0  0  0  0
   12.0765   -0.1351    1.1251 C   0  0  0  0  0  0  0  0  0  0  0  0
    8.5851   -2.1409    1.2491 N   0  0  0  0  0  0  0  0  0  0  0  0
    7.4135   -2.7020    0.8306 C   0  0  0  0  0  0  0  0  0  0  0  0
    7.0873   -3.8637    0.9760 O   0  0  0  0  0  0  0  0  0  0  0  0
    0.2535   -0.5669   -2.3399 H   0  0  0  0  0  0  0  0  0  0  0  0
    0.2038   -0.7474   -0.4844 H   0  0  0  0  0  0  0  0  0  0  0  0
    2.5993   -1.2958   -2.3664 H   0  0  0  0  0  0  0  0  0  0  0  0
    3.0313   -2.7395   -0.2869 H   0  0  0  0  0  0  0  0  0  0  0  0
    2.1913   -1.5374    0.7026 H   0  0  0  0  0  0  0  0  0  0  0  0
    3.2622    0.8413   -0.5649 H   0  0  0  0  0  0  0  0  0  0  0  0
    4.9850    0.9325   -0.2126 H   0  0  0  0  0  0  0  0  0  0  0  0
    2.8552    0.4131    1.9924 H   0  0  0  0  0  0  0  0  0  0  0  0
    5.2598    2.3389    1.7833 H   0  0  0  0  0  0  0  0  0  0  0  0
    4.0927    2.1219    3.2207 H   0  0  0  0  0  0  0  0  0  0  0  0
    4.8830   -2.7704    0.6538 H   0  0  0  0  0  0  0  0  0  0  0  0
    5.1492   -1.3962    1.7330 H   0  0  0  0  0  0  0  0  0  0  0  0
    5.9781   -1.1938   -1.9364 H   0  0  0  0  0  0  0  0  0  0  0  0
    6.1954   -2.9257   -1.5796 H   0  0  0  0  0  0  0  0  0  0  0  0
    7.6225   -1.8871   -1.8036 H   0  0  0  0  0  0  0  0  0  0  0  0
    6.8453    0.2016    1.3082 H   0  0  0  0  0  0  0  0  0  0  0  0
    7.3992    0.4011   -0.3637 H   0  0  0  0  0  0  0  0  0  0  0  0
    9.0512   -0.1873    1.8542 H   0  0  0  0  0  0  0  0  0  0  0  0
    9.9131    0.6049   -0.3038 H   0  0  0  0  0  0  0  0  0  0  0  0
    9.6062   -0.9722   -1.0536 H   0  0  0  0  0  0  0  0  0  0  0  0
   11.0921   -2.9032   -0.5852 H   0  0  0  0  0  0  0  0  0  0  0  0
   13.2737   -3.7052    0.2303 H   0  0  0  0  0  0  0  0  0  0  0  0
   15.5833   -3.3482   -0.1518 H   0  0  0  0  0  0  0  0  0  0  0  0
   18.6218   -3.7048    2.8773 H   0  0  0  0  0  0  0  0  0  0  0  0
   17.1942   -2.3263    4.4354 H   0  0  0  0  0  0  0  0  0  0  0  0
   13.9347    0.0850    2.1846 H   0  0  0  0  0  0  0  0  0  0  0  0
   11.7499    0.8781    1.3777 H   0  0  0  0  0  0  0  0  0  0  0  0
    9.2992   -2.7108    1.6903 H   0  0  0  0  0  0  0  0  0  0  0  0
  1  2  2  0
  1 31  1  0
  1 32  1  0
  2  3  1  0
  2 33  1  0
  3  4  1  0
  3 34  1  0
  3 35  1  0
  4  5  1  0
  4  8  1  0
  5  6  1  0
  5 36  1  0
  5 37  1  0
  6  7  2  0
  6 38  1  0
  7 39  1  0
  7 40  1  0
  9  8  1  1
  8 41  1  0
  8 42  1  0
  9 10  1  0
  9 11  1  0
  9 29  1  0
 10 43  1  0
 10 44  1  0
 10 45  1  0
 11 12  1  0
 11 46  1  0
 11 47  1  0
 12 13  1  0
 12 28  1  0
 12 48  1  1
 13 14  1  0
 13 49  1  0
 13 50  1  0
 14 15  2  0
 14 27  1  0
 15 16  1  0
 15 51  1  0
 16 17  2  0
 16 52  1  0
 17 18  1  0
 17 26  1  0
 18 19  2  0
 18 24  1  0
 19 20  1  0
 19 53  1  0
 20 21  1  0
 20 22  2  0
 22 23  1  0
 22 54  1  0
 23 24  2  0
 23 55  1  0
 24 25  1  0
 26 27  2  0
 26 56  1  0
 27 57  1  0
 28 29  1  0
 28 58  1  0
 29 30  2  0
M  END

