
     RDKit          3D

 55 57  0  0  0  0  0  0  0  0999 V2000
    6.1165    1.6558   -1.3043 C   0  0  0  0  0  0  0  0  0  0  0  0
    4.9671    1.3074   -0.3658 C   0  0  1  0  0  0  0  0  0  0  0  0
    3.6379    1.1029   -1.0759 C   0  0  0  0  0  0  0  0  0  0  0  0
    5.2570    0.0668    0.3278 O   0  0  0  0  0  0  0  0  0  0  0  0
    6.0118    0.1296    1.4498 C   0  0  0  0  0  0  0  0  0  0  0  0
    6.4688    1.1444    1.9022 O   0  0  0  0  0  0  0  0  0  0  0  0
    6.2037   -1.2752    2.0198 C   0  0  2  0  0  0  0  0  0  0  0  0
    5.1945   -1.7422    2.0324 H   0  0  0  0  0  0  0  0  0  0  0  0
    6.7613   -1.1740    3.2871 O   0  0  0  0  0  0  0  0  0  0  0  0
    7.0840   -2.1110    1.0622 C   0  0  0  0  0  0  0  0  0  0  0  0
    7.2158   -3.4811    1.5550 N   0  0  0  0  0  0  0  0  0  0  0  0
    6.3618   -4.5224    0.9790 C   0  0  0  0  0  0  0  0  0  0  0  0
    6.8156   -5.0451   -0.3738 C   0  0  0  0  0  0  0  0  0  0  0  0
    7.7657   -6.0759   -0.4641 C   0  0  0  0  0  0  0  0  0  0  0  0
    8.2296   -6.5247   -1.7014 C   0  0  0  0  0  0  0  0  0  0  0  0
    7.7573   -5.9629   -2.9018 C   0  0  0  0  0  0  0  0  0  0  0  0
    8.2492   -6.4427   -4.2213 C   0  0  0  0  0  0  0  0  0  0  0  0
    8.5287   -7.8043   -4.4432 C   0  0  0  0  0  0  0  0  0  0  0  0
    8.9897   -8.2450   -5.6849 C   0  0  0  0  0  0  0  0  0  0  0  0
    9.1845   -7.3452   -6.7357 C   0  0  0  0  0  0  0  0  0  0  0  0
    8.9072   -5.9930   -6.5177 C   0  0  0  0  0  0  0  0  0  0  0  0
    9.1523   -4.8427   -7.8138 Cl  0  0  0  0  0  0  0  0  0  0  0  0
    8.4458   -5.5385   -5.2811 C   0  0  0  0  0  0  0  0  0  0  0  0
    6.7964   -4.9390   -2.8102 C   0  0  0  0  0  0  0  0  0  0  0  0
    6.3352   -4.4914   -1.5717 C   0  0  0  0  0  0  0  0  0  0  0  0
    8.4762   -3.8952    1.9156 N   0  0  0  0  0  0  0  0  0  0  0  0
    8.8471   -3.9079    3.2341 C   0  0  0  0  0  0  0  0  0  0  0  0
    8.1458   -3.5401    4.1563 O   0  0  0  0  0  0  0  0  0  0  0  0
   10.2366   -4.4258    3.4510 C   0  0  0  0  0  0  0  0  0  0  0  0
   10.8225   -4.5346    4.6716 N   0  0  0  0  0  0  0  0  0  0  0  0
   12.0118   -5.0119    4.4676 N   0  0  0  0  0  0  0  0  0  0  0  0
   12.1187   -5.1780    3.1548 N   0  0  0  0  0  0  0  0  0  0  0  0
   12.9639   -5.5400    2.7193 H   0  0  0  0  0  0  0  0  0  0  0  0
   11.0460   -4.8315    2.4743 N   0  0  0  0  0  0  0  0  0  0  0  0
    5.8984    2.5923   -1.8418 H   0  0  0  0  0  0  0  0  0  0  0  0
    6.2686    0.8583   -2.0499 H   0  0  0  0  0  0  0  0  0  0  0  0
    7.0483    1.7988   -0.7383 H   0  0  0  0  0  0  0  0  0  0  0  0
    4.8770    2.0943    0.3992 H   0  0  0  0  0  0  0  0  0  0  0  0
    3.7104    0.2930   -1.8196 H   0  0  0  0  0  0  0  0  0  0  0  0
    3.3391    2.0248   -1.5986 H   0  0  0  0  0  0  0  0  0  0  0  0
    2.8472    0.8413   -0.3567 H   0  0  0  0  0  0  0  0  0  0  0  0
    6.9980   -2.0667    3.6063 H   0  0  0  0  0  0  0  0  0  0  0  0
    8.0838   -1.6513    1.0277 H   0  0  0  0  0  0  0  0  0  0  0  0
    6.6682   -2.0871    0.0414 H   0  0  0  0  0  0  0  0  0  0  0  0
    5.3484   -4.1002    0.9001 H   0  0  0  0  0  0  0  0  0  0  0  0
    6.3070   -5.3489    1.7053 H   0  0  0  0  0  0  0  0  0  0  0  0
    8.1471   -6.5396    0.4502 H   0  0  0  0  0  0  0  0  0  0  0  0
    8.9834   -7.3146   -1.7352 H   0  0  0  0  0  0  0  0  0  0  0  0
    8.3584   -8.5285   -3.6441 H   0  0  0  0  0  0  0  0  0  0  0  0
    9.1928   -9.3071   -5.8429 H   0  0  0  0  0  0  0  0  0  0  0  0
    9.5439   -7.6795   -7.7100 H   0  0  0  0  0  0  0  0  0  0  0  0
    8.2634   -4.4723   -5.1415 H   0  0  0  0  0  0  0  0  0  0  0  0
    6.3802   -4.5065   -3.7229 H   0  0  0  0  0  0  0  0  0  0  0  0
    5.5688   -3.7118   -1.5384 H   0  0  0  0  0  0  0  0  0  0  0  0
    9.1571   -4.1622    1.2019 H   0  0  0  0  0  0  0  0  0  0  0  0
  1  2  1  0
  1 35  1  0
  1 36  1  0
  1 37  1  0
  2  3  1  0
  2  4  1  0
  2 38  1  1
  3 39  1  0
  3 40  1  0
  3 41  1  0
  4  5  1  0
  5  6  2  0
  5  7  1  0
  7  8  1  1
  7  9  1  0
  7 10  1  0
  9 42  1  0
 10 11  1  0
 10 43  1  0
 10 44  1  0
 11 12  1  0
 11 26  1  0
 12 13  1  0
 12 45  1  0
 12 46  1  0
 13 14  2  0
 13 25  1  0
 14 15  1  0
 14 47  1  0
 15 16  2  0
 15 48  1  0
 16 17  1  0
 16 24  1  0
 17 18  2  0
 17 23  1  0
 18 19  1  0
 18 49  1  0
 19 20  2  0
 19 50  1  0
 20 21  1  0
 20 51  1  0
 21 22  1  0
 21 23  2  0
 23 52  1  0
 24 25  2  0
 24 53  1  0
 25 54  1  0
 26 27  1  0
 26 55  1  0
 27 28  2  0
 27 29  1  0
 29 30  1  0
 29 34  2  0
 30 31  2  0
 31 32  1  0
 32 33  1  0
 32 34  1  0
M  END

