
     RDKit          3D

 63 66  0  0  0  0  0  0  0  0999 V2000
    9.7254    6.4947    1.7775 C   0  0  0  0  0  0  0  0  0  0  0  0
    9.4603    5.1295    1.5334 O   0  0  0  0  0  0  0  0  0  0  0  0
    9.6655    4.2236    2.5155 C   0  0  0  0  0  0  0  0  0  0  0  0
   10.1379    4.5355    3.8020 C   0  0  0  0  0  0  0  0  0  0  0  0
   10.3110    3.5176    4.7396 C   0  0  0  0  0  0  0  0  0  0  0  0
   10.0374    2.1787    4.4276 C   0  0  0  0  0  0  0  0  0  0  0  0
   10.2564    1.1630    5.5104 C   0  0  0  0  0  0  0  0  0  0  0  0
   10.3923    1.4844    6.6786 O   0  0  0  0  0  0  0  0  0  0  0  0
   10.2900   -0.1607    5.1013 N   0  0  0  0  0  0  0  0  0  0  0  0
   10.5797   -1.2446    5.9559 C   0  0  0  0  0  0  0  0  0  0  0  0
   12.2206   -1.8302    6.0806 S   0  0  0  0  0  0  0  0  0  0  0  0
   11.7398   -3.0975    7.1674 C   0  0  0  0  0  0  0  0  0  0  0  0
   12.7653   -4.0567    7.7028 C   0  0  0  0  0  0  0  0  0  0  0  0
   10.3873   -3.0533    7.4359 C   0  0  0  0  0  0  0  0  0  0  0  0
    9.7061   -4.0339    8.3535 C   0  0  0  0  0  0  0  0  0  0  0  0
    9.7136   -1.9805    6.7378 C   0  0  0  0  0  0  0  0  0  0  0  0
    8.2335   -1.6388    6.8395 C   0  0  2  0  0  0  0  0  0  0  0  0
    8.1189   -0.7015    6.2626 H   0  0  0  0  0  0  0  0  0  0  0  0
    7.8559   -1.2857    8.2895 C   0  0  0  0  0  0  0  0  0  0  0  0
    7.0473   -2.1097    9.0891 C   0  0  0  0  0  0  0  0  0  0  0  0
    6.7375   -1.7633   10.4023 C   0  0  0  0  0  0  0  0  0  0  0  0
    7.2369   -0.5754   10.9598 C   0  0  0  0  0  0  0  0  0  0  0  0
    6.8834   -0.3182   12.2481 O   0  0  0  0  0  0  0  0  0  0  0  0
    7.3549    0.8547   12.8677 C   0  0  0  0  0  0  0  0  0  0  0  0
    8.0492    0.2566   10.1744 C   0  0  0  0  0  0  0  0  0  0  0  0
    8.3471   -0.1015    8.8552 C   0  0  0  0  0  0  0  0  0  0  0  0
    7.3538   -2.6936    6.2940 N   0  0  0  0  0  0  0  0  0  0  0  0
    5.9858   -2.2325    6.0263 C   0  0  0  0  0  0  0  0  0  0  0  0
    5.8484   -1.5392    4.6673 C   0  0  0  0  0  0  0  0  0  0  0  0
    6.3072   -2.3706    3.6157 O   0  0  0  0  0  0  0  0  0  0  0  0
    7.6502   -2.7706    3.8107 C   0  0  0  0  0  0  0  0  0  0  0  0
    7.8264   -3.4821    5.1552 C   0  0  0  0  0  0  0  0  0  0  0  0
    9.5525    1.8823    3.1384 C   0  0  0  0  0  0  0  0  0  0  0  0
    9.3687    2.8856    2.1953 C   0  0  0  0  0  0  0  0  0  0  0  0
    9.4894    7.0288    0.8476 H   0  0  0  0  0  0  0  0  0  0  0  0
   10.7867    6.6672    2.0304 H   0  0  0  0  0  0  0  0  0  0  0  0
    9.0948    6.8954    2.5910 H   0  0  0  0  0  0  0  0  0  0  0  0
   10.3694    5.5633    4.0815 H   0  0  0  0  0  0  0  0  0  0  0  0
   10.6665    3.7469    5.7459 H   0  0  0  0  0  0  0  0  0  0  0  0
   10.3409   -0.3364    4.1039 H   0  0  0  0  0  0  0  0  0  0  0  0
   13.7523   -3.8870    7.2480 H   0  0  0  0  0  0  0  0  0  0  0  0
   12.4832   -5.1034    7.4996 H   0  0  0  0  0  0  0  0  0  0  0  0
   12.8829   -3.9552    8.7949 H   0  0  0  0  0  0  0  0  0  0  0  0
   10.3147   -4.9394    8.4939 H   0  0  0  0  0  0  0  0  0  0  0  0
    8.7260   -4.3342    7.9569 H   0  0  0  0  0  0  0  0  0  0  0  0
    9.5253   -3.5956    9.3489 H   0  0  0  0  0  0  0  0  0  0  0  0
    6.6576   -3.0386    8.6695 H   0  0  0  0  0  0  0  0  0  0  0  0
    6.1050   -2.4021   11.0227 H   0  0  0  0  0  0  0  0  0  0  0  0
    6.9540    0.8531   13.8907 H   0  0  0  0  0  0  0  0  0  0  0  0
    7.0050    1.7664   12.3495 H   0  0  0  0  0  0  0  0  0  0  0  0
    8.4590    0.8817   12.9178 H   0  0  0  0  0  0  0  0  0  0  0  0
    8.4571    1.1857   10.5734 H   0  0  0  0  0  0  0  0  0  0  0  0
    8.9935    0.5538    8.2646 H   0  0  0  0  0  0  0  0  0  0  0  0
    5.6538   -1.5597    6.8305 H   0  0  0  0  0  0  0  0  0  0  0  0
    5.3162   -3.1119    6.0354 H   0  0  0  0  0  0  0  0  0  0  0  0
    6.4070   -0.5794    4.6639 H   0  0  0  0  0  0  0  0  0  0  0  0
    4.7924   -1.3083    4.4552 H   0  0  0  0  0  0  0  0  0  0  0  0
    8.3232   -1.8881    3.7583 H   0  0  0  0  0  0  0  0  0  0  0  0
    7.9085   -3.4428    2.9766 H   0  0  0  0  0  0  0  0  0  0  0  0
    8.8765   -3.7718    5.2985 H   0  0  0  0  0  0  0  0  0  0  0  0
    7.2297   -4.4125    5.1259 H   0  0  0  0  0  0  0  0  0  0  0  0
    9.2819    0.8606    2.8605 H   0  0  0  0  0  0  0  0  0  0  0  0
    8.9844    2.6639    1.1980 H   0  0  0  0  0  0  0  0  0  0  0  0
  1  2  1  0
  1 35  1  0
  1 36  1  0
  1 37  1  0
  2  3  1  0
  3  4  2  0
  3 34  1  0
  4  5  1  0
  4 38  1  0
  5  6  2  0
  5 39  1  0
  6  7  1  0
  6 33  1  0
  7  8  2  0
  7  9  1  0
  9 10  1  0
  9 40  1  0
 10 11  1  0
 10 16  2  0
 11 12  1  0
 12 13  1  0
 12 14  2  0
 13 41  1  0
 13 42  1  0
 13 43  1  0
 14 15  1  0
 14 16  1  0
 15 44  1  0
 15 45  1  0
 15 46  1  0
 16 17  1  0
 17 18  1  6
 17 19  1  0
 17 27  1  0
 19 20  2  0
 19 26  1  0
 20 21  1  0
 20 47  1  0
 21 22  2  0
 21 48  1  0
 22 23  1  0
 22 25  1  0
 23 24  1  0
 24 49  1  0
 24 50  1  0
 24 51  1  0
 25 26  2  0
 25 52  1  0
 26 53  1  0
 27 28  1  0
 27 32  1  0
 28 29  1  0
 28 54  1  0
 28 55  1  0
 29 30  1  0
 29 56  1  0
 29 57  1  0
 30 31  1  0
 31 32  1  0
 31 58  1  0
 31 59  1  0
 32 60  1  0
 32 61  1  0
 33 34  2  0
 33 62  1  0
 34 63  1  0
M  END

