
     RDKit          3D

 41 42  0  0  0  0  0  0  0  0999 V2000
    2.5884   -2.2011   -2.7512 C   0  0  0  0  0  0  0  0  0  0  0  0
    3.5741   -1.8371   -3.6913 O   0  0  0  0  0  0  0  0  0  0  0  0
    3.9512   -0.5418   -3.7861 C   0  0  0  0  0  0  0  0  0  0  0  0
    3.4377    0.5065   -3.0102 C   0  0  0  0  0  0  0  0  0  0  0  0
    3.8777    1.8249   -3.1649 C   0  0  0  0  0  0  0  0  0  0  0  0
    4.8601    2.1287   -4.1181 C   0  0  0  0  0  0  0  0  0  0  0  0
    5.3638    3.4268   -4.3430 N   0  0  0  0  0  0  0  0  0  0  0  0
    5.0269    4.6087   -3.7214 C   0  0  0  0  0  0  0  0  0  0  0  0
    4.1857    4.6780   -2.8362 O   0  0  0  0  0  0  0  0  0  0  0  0
    5.7904    5.8282   -4.2419 C   0  0  1  0  0  0  0  0  0  0  0  0
    4.8187    6.8468   -4.8873 C   0  0  0  0  0  0  0  0  0  0  0  0
    3.9789    7.6213   -3.8638 C   0  0  0  0  0  0  0  0  0  0  0  0
    4.8670    8.2927   -2.8093 C   0  0  0  0  0  0  0  0  0  0  0  0
    5.8120    7.2858   -2.1396 C   0  0  0  0  0  0  0  0  0  0  0  0
    6.6964    6.5102   -3.1418 C   0  0  1  0  0  0  0  0  0  0  0  0
    7.5285    5.4540   -2.4026 C   0  0  0  0  0  0  0  0  0  0  0  0
    7.6473    7.4504   -3.7462 N   0  0  0  0  0  0  0  0  0  0  0  0
    5.3835    1.0852   -4.9036 C   0  0  0  0  0  0  0  0  0  0  0  0
    4.9395   -0.2222   -4.7422 C   0  0  0  0  0  0  0  0  0  0  0  0
    5.6131   -1.4882   -5.7359 Cl  0  0  0  0  0  0  0  0  0  0  0  0
    2.4459   -3.2851   -2.8541 H   0  0  0  0  0  0  0  0  0  0  0  0
    1.6265   -1.6933   -2.9460 H   0  0  0  0  0  0  0  0  0  0  0  0
    2.9049   -1.9783   -1.7162 H   0  0  0  0  0  0  0  0  0  0  0  0
    2.6728    0.3033   -2.2604 H   0  0  0  0  0  0  0  0  0  0  0  0
    3.4644    2.6217   -2.5520 H   0  0  0  0  0  0  0  0  0  0  0  0
    6.0727    3.4909   -5.0626 H   0  0  0  0  0  0  0  0  0  0  0  0
    6.4846    5.4836   -5.0295 H   0  0  0  0  0  0  0  0  0  0  0  0
    4.1689    6.3298   -5.6134 H   0  0  0  0  0  0  0  0  0  0  0  0
    5.4241    7.5584   -5.4771 H   0  0  0  0  0  0  0  0  0  0  0  0
    3.2846    6.9267   -3.3667 H   0  0  0  0  0  0  0  0  0  0  0  0
    3.3659    8.3745   -4.3875 H   0  0  0  0  0  0  0  0  0  0  0  0
    4.2423    8.7771   -2.0405 H   0  0  0  0  0  0  0  0  0  0  0  0
    5.4500    9.1096   -3.2747 H   0  0  0  0  0  0  0  0  0  0  0  0
    5.2107    6.5574   -1.5751 H   0  0  0  0  0  0  0  0  0  0  0  0
    6.4787    7.7997   -1.4282 H   0  0  0  0  0  0  0  0  0  0  0  0
    6.8932    4.7484   -1.8477 H   0  0  0  0  0  0  0  0  0  0  0  0
    8.2044    5.9508   -1.6907 H   0  0  0  0  0  0  0  0  0  0  0  0
    8.1509    4.8737   -3.1062 H   0  0  0  0  0  0  0  0  0  0  0  0
    7.1751    8.1979   -4.2509 H   0  0  0  0  0  0  0  0  0  0  0  0
    8.2506    6.9754   -4.4186 H   0  0  0  0  0  0  0  0  0  0  0  0
    6.1503    1.2837   -5.6561 H   0  0  0  0  0  0  0  0  0  0  0  0
  1  2  1  0
  1 21  1  0
  1 22  1  0
  1 23  1  0
  2  3  1  0
  3  4  2  0
  3 19  1  0
  4  5  1  0
  4 24  1  0
  5  6  2  0
  5 25  1  0
  6  7  1  0
  6 18  1  0
  7  8  1  0
  7 26  1  0
  8  9  2  0
  8 10  1  0
 10 11  1  0
 10 15  1  0
 10 27  1  6
 11 12  1  0
 11 28  1  0
 11 29  1  0
 12 13  1  0
 12 30  1  0
 12 31  1  0
 13 14  1  0
 13 32  1  0
 13 33  1  0
 14 15  1  0
 14 34  1  0
 14 35  1  0
 15 16  1  0
 15 17  1  6
 16 36  1  0
 16 37  1  0
 16 38  1  0
 17 39  1  0
 17 40  1  0
 18 19  2  0
 18 41  1  0
 19 20  1  0
M  END

