
     RDKit          3D

 66 69  0  0  0  0  0  0  0  0999 V2000
    1.0212    0.2164   -0.0524 C   0  0  0  0  0  0  0  0  0  0  0  0
    2.5296    0.1540    0.0428 C   0  0  0  0  0  0  0  0  0  0  0  0
    3.2817    1.3052   -0.2122 C   0  0  0  0  0  0  0  0  0  0  0  0
    4.6848    1.3585   -0.1521 C   0  0  0  0  0  0  0  0  0  0  0  0
    5.3773    0.1682    0.1649 C   0  0  0  0  0  0  0  0  0  0  0  0
    4.6171   -0.9831    0.4325 C   0  0  0  0  0  0  0  0  0  0  0  0
    3.2199   -1.0306    0.3853 C   0  0  0  0  0  0  0  0  0  0  0  0
    2.4946   -2.3310    0.6836 C   0  0  1  0  0  0  0  0  0  0  0  0
    2.7998   -3.5073   -0.2751 C   0  0  0  0  0  0  0  0  0  0  0  0
    2.2255   -4.7414    0.4449 C   0  0  0  0  0  0  0  0  0  0  0  0
    2.3117   -4.4030    1.9291 C   0  0  0  0  0  0  0  0  0  0  0  0
    2.0178   -5.2206    2.9496 C   0  0  0  0  0  0  0  0  0  0  0  0
    1.5780   -6.6634    2.8113 C   0  0  0  0  0  0  0  0  0  0  0  0
    2.7307   -7.6328    2.9841 C   0  0  0  0  0  0  0  0  0  0  0  0
    2.9855   -8.2658    4.2147 C   0  0  0  0  0  0  0  0  0  0  0  0
    4.0814   -9.1126    4.3319 C   0  0  0  0  0  0  0  0  0  0  0  0
    4.9154   -9.3076    3.2214 C   0  0  0  0  0  0  0  0  0  0  0  0
    6.0874  -10.2360    3.3557 C   0  0  0  0  0  0  0  0  0  0  0  0
    6.2094  -11.0041    4.2730 O   0  0  0  0  0  0  0  0  0  0  0  0
    7.0274  -10.1735    2.3862 O   0  0  0  0  0  0  0  0  0  0  0  0
    4.5627   -8.6495    2.0334 C   0  0  0  0  0  0  0  0  0  0  0  0
    3.5140   -7.8404    1.9147 N   0  0  0  0  0  0  0  0  0  0  0  0
    2.7728   -2.9628    2.0692 C   0  0  0  0  0  0  0  0  0  0  0  0
    6.9127    0.0864    0.2661 C   0  0  2  0  0  0  0  0  0  0  0  0
    7.4592   -1.1647   -0.4551 C   0  0  0  0  0  0  0  0  0  0  0  0
    7.3205    0.0108    1.7571 C   0  0  0  0  0  0  0  0  0  0  0  0
    7.5548    1.3258   -0.3951 C   0  0  0  0  0  0  0  0  0  0  0  0
    6.8667    2.6283   -0.0092 C   0  0  0  0  0  0  0  0  0  0  0  0
    5.3931    2.6897   -0.4677 C   0  0  2  0  0  0  0  0  0  0  0  0
    4.7231    3.8719    0.2656 C   0  0  0  0  0  0  0  0  0  0  0  0
    5.3226    2.9537   -1.9910 C   0  0  0  0  0  0  0  0  0  0  0  0
    0.6893    1.2261   -0.3355 H   0  0  0  0  0  0  0  0  0  0  0  0
    0.5339   -0.0337    0.9050 H   0  0  0  0  0  0  0  0  0  0  0  0
    0.6236   -0.4842   -0.8056 H   0  0  0  0  0  0  0  0  0  0  0  0
    2.7346    2.2141   -0.4734 H   0  0  0  0  0  0  0  0  0  0  0  0
    5.1501   -1.9000    0.6939 H   0  0  0  0  0  0  0  0  0  0  0  0
    1.4100   -2.1503    0.6295 H   0  0  0  0  0  0  0  0  0  0  0  0
    3.8917   -3.6098   -0.3938 H   0  0  0  0  0  0  0  0  0  0  0  0
    2.3806   -3.3536   -1.2813 H   0  0  0  0  0  0  0  0  0  0  0  0
    2.7563   -5.6748    0.2052 H   0  0  0  0  0  0  0  0  0  0  0  0
    1.1678   -4.8958    0.1611 H   0  0  0  0  0  0  0  0  0  0  0  0
    2.1239   -4.8446    3.9745 H   0  0  0  0  0  0  0  0  0  0  0  0
    1.1405   -6.8352    1.8169 H   0  0  0  0  0  0  0  0  0  0  0  0
    0.8029   -6.8875    3.5621 H   0  0  0  0  0  0  0  0  0  0  0  0
    2.3220   -8.0938    5.0653 H   0  0  0  0  0  0  0  0  0  0  0  0
    4.3131   -9.6342    5.2631 H   0  0  0  0  0  0  0  0  0  0  0  0
    6.8575   -9.4344    1.7858 H   0  0  0  0  0  0  0  0  0  0  0  0
    5.1420   -8.8017    1.1116 H   0  0  0  0  0  0  0  0  0  0  0  0
    3.8589   -2.9398    2.2734 H   0  0  0  0  0  0  0  0  0  0  0  0
    2.2839   -2.4276    2.8981 H   0  0  0  0  0  0  0  0  0  0  0  0
    7.1550   -2.1019    0.0347 H   0  0  0  0  0  0  0  0  0  0  0  0
    8.5616   -1.1439   -0.4582 H   0  0  0  0  0  0  0  0  0  0  0  0
    7.1178   -1.2030   -1.5016 H   0  0  0  0  0  0  0  0  0  0  0  0
    6.8702   -0.8674    2.2453 H   0  0  0  0  0  0  0  0  0  0  0  0
    6.9925    0.8992    2.3177 H   0  0  0  0  0  0  0  0  0  0  0  0
    8.4161   -0.0713    1.8563 H   0  0  0  0  0  0  0  0  0  0  0  0
    7.5237    1.2033   -1.4913 H   0  0  0  0  0  0  0  0  0  0  0  0
    8.6239    1.3625   -0.1250 H   0  0  0  0  0  0  0  0  0  0  0  0
    7.4104    3.4893   -0.4340 H   0  0  0  0  0  0  0  0  0  0  0  0
    6.9066    2.7558    1.0861 H   0  0  0  0  0  0  0  0  0  0  0  0
    4.6668    3.6882    1.3502 H   0  0  0  0  0  0  0  0  0  0  0  0
    3.7036    4.0712   -0.0970 H   0  0  0  0  0  0  0  0  0  0  0  0
    5.3097    4.7919    0.1071 H   0  0  0  0  0  0  0  0  0  0  0  0
    5.8229    2.1615   -2.5684 H   0  0  0  0  0  0  0  0  0  0  0  0
    5.8031    3.9147   -2.2408 H   0  0  0  0  0  0  0  0  0  0  0  0
    4.2778    2.9981   -2.3355 H   0  0  0  0  0  0  0  0  0  0  0  0
  1  2  1  0
  1 32  1  0
  1 33  1  0
  1 34  1  0
  2  3  2  0
  2  7  1  0
  3  4  1  0
  3 35  1  0
  4  5  2  0
  4 29  1  0
  5  6  1  0
  5 24  1  0
  6  7  2  0
  6 36  1  0
  7  8  1  0
  8  9  1  0
  8 23  1  0
  8 37  1  1
  9 10  1  0
  9 38  1  0
  9 39  1  0
 10 11  1  0
 10 40  1  0
 10 41  1  0
 11 12  2  0
 11 23  1  0
 12 13  1  0
 12 42  1  0
 13 14  1  0
 13 43  1  0
 13 44  1  0
 14 15  2  0
 14 22  1  0
 15 16  1  0
 15 45  1  0
 16 17  2  0
 16 46  1  0
 17 18  1  0
 17 21  1  0
 18 19  2  0
 18 20  1  0
 20 47  1  0
 21 22  2  0
 21 48  1  0
 23 49  1  0
 23 50  1  0
 24 25  1  6
 24 26  1  0
 24 27  1  0
 25 51  1  0
 25 52  1  0
 25 53  1  0
 26 54  1  0
 26 55  1  0
 26 56  1  0
 27 28  1  0
 27 57  1  0
 27 58  1  0
 28 29  1  0
 28 59  1  0
 28 60  1  0
 29 30  1  1
 29 31  1  0
 30 61  1  0
 30 62  1  0
 30 63  1  0
 31 64  1  0
 31 65  1  0
 31 66  1  0
M  END

