
     RDKit          3D

 72 75  0  0  0  0  0  0  0  0999 V2000
    5.4281    1.4257    0.9759 C   0  0  0  0  0  0  0  0  0  0  0  0
    4.7346    0.2006    1.0396 O   0  0  0  0  0  0  0  0  0  0  0  0
    4.5212   -0.5024   -0.1012 C   0  0  0  0  0  0  0  0  0  0  0  0
    3.8025   -1.7034    0.0322 C   0  0  0  0  0  0  0  0  0  0  0  0
    3.5267   -2.4919   -1.0811 C   0  0  0  0  0  0  0  0  0  0  0  0
    3.9745   -2.1209   -2.3629 C   0  0  0  0  0  0  0  0  0  0  0  0
    3.6470   -2.9251   -3.6106 C   0  0  0  0  0  0  0  0  0  0  0  0
    3.6541   -4.3954   -3.4678 N   0  0  0  0  0  0  0  0  0  0  0  0
    2.4149   -4.9504   -3.1436 C   0  0  0  0  0  0  0  0  0  0  0  0
    1.4781   -4.2663   -2.7608 O   0  0  0  0  0  0  0  0  0  0  0  0
    2.2963   -6.4116   -3.2890 C   0  0  0  0  0  0  0  0  0  0  0  0
    1.2223   -7.2822   -3.1553 C   0  0  0  0  0  0  0  0  0  0  0  0
    1.7639   -8.5615   -3.4429 C   0  0  0  0  0  0  0  0  0  0  0  0
    1.0657   -9.8989   -3.4822 C   0  0  1  0  0  0  0  0  0  0  0  0
    0.3649  -10.2163   -2.1515 C   0  0  0  0  0  0  0  0  0  0  0  0
    0.0881   -9.9893   -4.6670 C   0  0  0  0  0  0  0  0  0  0  0  0
    3.0724   -8.4707   -3.7263 N   0  0  0  0  0  0  0  0  0  0  0  0
    3.3657   -7.1728   -3.6408 N   0  0  0  0  0  0  0  0  0  0  0  0
    4.6998   -6.6340   -3.7305 C   0  0  0  0  0  0  0  0  0  0  0  0
    4.6502   -5.1758   -4.2550 C   0  0  1  0  0  0  0  0  0  0  0  0
    4.3131   -5.1502   -5.7544 C   0  0  0  0  0  0  0  0  0  0  0  0
    6.1114   -4.6697   -4.0393 C   0  0  0  0  0  0  0  0  0  0  0  0
    6.9369   -4.7959   -4.9316 O   0  0  0  0  0  0  0  0  0  0  0  0
    6.4199   -4.2291   -2.7961 N   0  0  0  0  0  0  0  0  0  0  0  0
    7.7947   -3.8899   -2.4065 C   0  0  1  0  0  0  0  0  0  0  0  0
    8.1350   -2.4518   -2.8387 C   0  0  0  0  0  0  0  0  0  0  0  0
    9.6011   -1.9955   -2.7079 C   0  0  0  0  0  0  0  0  0  0  0  0
   10.6785   -3.0145   -3.1441 C   0  0  0  0  0  0  0  0  0  0  0  0
   11.3514   -3.8105   -2.0120 C   0  0  0  0  0  0  0  0  0  0  0  0
   10.5025   -4.7754   -1.1658 C   0  0  0  0  0  0  0  0  0  0  0  0
    9.3758   -4.1338   -0.3243 C   0  0  0  0  0  0  0  0  0  0  0  0
    7.9575   -4.2200   -0.9160 C   0  0  0  0  0  0  0  0  0  0  0  0
    4.6881   -0.9231   -2.4810 C   0  0  0  0  0  0  0  0  0  0  0  0
    4.9615   -0.1105   -1.3742 C   0  0  0  0  0  0  0  0  0  0  0  0
    5.4722    1.8150    2.0020 H   0  0  0  0  0  0  0  0  0  0  0  0
    4.9069    2.1617    0.3371 H   0  0  0  0  0  0  0  0  0  0  0  0
    6.4592    1.2974    0.5987 H   0  0  0  0  0  0  0  0  0  0  0  0
    3.4535   -1.9895    1.0266 H   0  0  0  0  0  0  0  0  0  0  0  0
    2.9296   -3.3960   -0.9571 H   0  0  0  0  0  0  0  0  0  0  0  0
    4.3567   -2.6540   -4.4049 H   0  0  0  0  0  0  0  0  0  0  0  0
    2.6404   -2.6364   -3.9547 H   0  0  0  0  0  0  0  0  0  0  0  0
    0.2022   -7.0095   -2.8986 H   0  0  0  0  0  0  0  0  0  0  0  0
    1.8633  -10.6435   -3.6404 H   0  0  0  0  0  0  0  0  0  0  0  0
   -0.4398   -9.4923   -1.9397 H   0  0  0  0  0  0  0  0  0  0  0  0
    1.0723  -10.1874   -1.3081 H   0  0  0  0  0  0  0  0  0  0  0  0
   -0.0912  -11.2192   -2.1803 H   0  0  0  0  0  0  0  0  0  0  0  0
   -0.7257   -9.2514   -4.5694 H   0  0  0  0  0  0  0  0  0  0  0  0
   -0.3717  -10.9898   -4.7195 H   0  0  0  0  0  0  0  0  0  0  0  0
    0.6013   -9.7993   -5.6225 H   0  0  0  0  0  0  0  0  0  0  0  0
    5.2927   -7.2536   -4.4152 H   0  0  0  0  0  0  0  0  0  0  0  0
    5.1785   -6.6614   -2.7369 H   0  0  0  0  0  0  0  0  0  0  0  0
    3.3590   -5.6635   -5.9431 H   0  0  0  0  0  0  0  0  0  0  0  0
    5.1118   -5.6393   -6.3258 H   0  0  0  0  0  0  0  0  0  0  0  0
    4.2302   -4.1168   -6.1210 H   0  0  0  0  0  0  0  0  0  0  0  0
    5.6680   -4.0511   -2.1375 H   0  0  0  0  0  0  0  0  0  0  0  0
    8.4284   -4.5708   -2.9933 H   0  0  0  0  0  0  0  0  0  0  0  0
    7.4794   -1.7494   -2.2965 H   0  0  0  0  0  0  0  0  0  0  0  0
    7.8524   -2.3857   -3.9023 H   0  0  0  0  0  0  0  0  0  0  0  0
    9.8138   -1.6608   -1.6793 H   0  0  0  0  0  0  0  0  0  0  0  0
    9.7008   -1.0876   -3.3258 H   0  0  0  0  0  0  0  0  0  0  0  0
   11.4832   -2.4682   -3.6643 H   0  0  0  0  0  0  0  0  0  0  0  0
   10.2632   -3.7025   -3.9021 H   0  0  0  0  0  0  0  0  0  0  0  0
   11.8322   -3.0879   -1.3254 H   0  0  0  0  0  0  0  0  0  0  0  0
   12.1801   -4.3915   -2.4535 H   0  0  0  0  0  0  0  0  0  0  0  0
   11.1974   -5.2907   -0.4817 H   0  0  0  0  0  0  0  0  0  0  0  0
   10.0865   -5.5740   -1.8065 H   0  0  0  0  0  0  0  0  0  0  0  0
    9.6369   -3.0872   -0.1001 H   0  0  0  0  0  0  0  0  0  0  0  0
    9.3347   -4.6320    0.6583 H   0  0  0  0  0  0  0  0  0  0  0  0
    7.2799   -3.5762   -0.3252 H   0  0  0  0  0  0  0  0  0  0  0  0
    7.5914   -5.2534   -0.7815 H   0  0  0  0  0  0  0  0  0  0  0  0
    5.0490   -0.6050   -3.4638 H   0  0  0  0  0  0  0  0  0  0  0  0
    5.5205    0.8143   -1.5179 H   0  0  0  0  0  0  0  0  0  0  0  0
  1  2  1  0
  1 35  1  0
  1 36  1  0
  1 37  1  0
  2  3  1  0
  3  4  2  0
  3 34  1  0
  4  5  1  0
  4 38  1  0
  5  6  2  0
  5 39  1  0
  6  7  1  0
  6 33  1  0
  7  8  1  0
  7 40  1  0
  7 41  1  0
  8  9  1  0
  8 20  1  0
  9 10  2  0
  9 11  1  0
 11 12  2  0
 11 18  1  0
 12 13  1  0
 12 42  1  0
 13 14  1  0
 13 17  2  0
 14 15  1  0
 14 16  1  0
 14 43  1  6
 15 44  1  0
 15 45  1  0
 15 46  1  0
 16 47  1  0
 16 48  1  0
 16 49  1  0
 17 18  1  0
 18 19  1  0
 19 20  1  0
 19 50  1  0
 19 51  1  0
 20 21  1  0
 20 22  1  6
 21 52  1  0
 21 53  1  0
 21 54  1  0
 22 23  2  0
 22 24  1  0
 24 25  1  0
 24 55  1  0
 25 26  1  0
 25 32  1  0
 25 56  1  6
 26 27  1  0
 26 57  1  0
 26 58  1  0
 27 28  1  0
 27 59  1  0
 27 60  1  0
 28 29  1  0
 28 61  1  0
 28 62  1  0
 29 30  1  0
 29 63  1  0
 29 64  1  0
 30 31  1  0
 30 65  1  0
 30 66  1  0
 31 32  1  0
 31 67  1  0
 31 68  1  0
 32 69  1  0
 32 70  1  0
 33 34  2  0
 33 71  1  0
 34 72  1  0
M  END

