
     RDKit          3D

 56 58  0  0  0  0  0  0  0  0999 V2000
    2.6688    0.4860    1.1402 C   0  0  0  0  0  0  0  0  0  0  0  0
    3.5768   -0.2461    0.1400 C   0  0  1  0  0  0  0  0  0  0  0  0
    2.8577   -1.4013   -0.5873 C   0  0  0  0  0  0  0  0  0  0  0  0
    1.8444   -0.9327   -1.6465 C   0  0  2  0  0  0  0  0  0  0  0  0
    1.1820   -2.1150   -2.3595 C   0  0  0  0  0  0  0  0  0  0  0  0
    2.5216    0.0230   -2.6426 C   0  0  0  0  0  0  0  0  0  0  0  0
    3.2156    1.2042   -1.9444 C   0  0  2  0  0  0  0  0  0  0  0  0
    3.8904    2.0957   -2.8857 N   0  0  0  0  0  0  0  0  0  0  0  0
    3.1778    3.0623   -3.5633 C   0  0  0  0  0  0  0  0  0  0  0  0
    1.9853    3.2543   -3.3632 O   0  0  0  0  0  0  0  0  0  0  0  0
    3.8949    3.8247   -4.4852 N   0  0  0  0  0  0  0  0  0  0  0  0
    5.3439    3.9237   -4.5610 C   0  0  0  0  0  0  0  0  0  0  0  0
    5.8416    5.3087   -4.1342 C   0  0  0  0  0  0  0  0  0  0  0  0
    5.0862    6.6257   -5.1402 S   0  0  2  0  0  0  0  0  0  0  0  0
    5.4820    6.3572   -6.5375 O   0  0  0  0  0  0  0  0  0  0  0  0
    5.4317    7.9157   -4.5165 O   0  0  0  0  0  0  0  0  0  0  0  0
    3.2631    6.2374   -5.0001 C   0  0  1  0  0  0  0  0  0  0  0  0
    2.7271    6.5505   -3.5878 C   0  0  0  0  0  0  0  0  0  0  0  0
    2.5378    8.0434   -3.2799 C   0  0  0  0  0  0  0  0  0  0  0  0
    1.7417    8.7577   -4.3776 C   0  0  0  0  0  0  0  0  0  0  0  0
    2.3876    8.5497   -5.7516 C   0  0  0  0  0  0  0  0  0  0  0  0
    2.5326    7.0585   -6.0826 C   0  0  0  0  0  0  0  0  0  0  0  0
    3.1542    4.7290   -5.3531 C   0  0  0  0  0  0  0  0  0  0  0  0
    4.2138    0.7108   -0.8880 C   0  0  0  0  0  0  0  0  0  0  0  0
    2.2683   -0.2147    1.8907 H   0  0  0  0  0  0  0  0  0  0  0  0
    1.8082    0.9741    0.6562 H   0  0  0  0  0  0  0  0  0  0  0  0
    3.2275    1.2680    1.6797 H   0  0  0  0  0  0  0  0  0  0  0  0
    4.4017   -0.6891    0.7256 H   0  0  0  0  0  0  0  0  0  0  0  0
    2.3569   -2.0519    0.1506 H   0  0  0  0  0  0  0  0  0  0  0  0
    3.6154   -2.0323   -1.0889 H   0  0  0  0  0  0  0  0  0  0  0  0
    1.0463   -0.3647   -1.1332 H   0  0  0  0  0  0  0  0  0  0  0  0
    1.9306   -2.7251   -2.8941 H   0  0  0  0  0  0  0  0  0  0  0  0
    0.4413   -1.7725   -3.1001 H   0  0  0  0  0  0  0  0  0  0  0  0
    0.6634   -2.7757   -1.6458 H   0  0  0  0  0  0  0  0  0  0  0  0
    1.7838    0.4164   -3.3601 H   0  0  0  0  0  0  0  0  0  0  0  0
    3.2765   -0.5397   -3.2271 H   0  0  0  0  0  0  0  0  0  0  0  0
    2.4394    1.8184   -1.4647 H   0  0  0  0  0  0  0  0  0  0  0  0
    4.7209    1.7177   -3.3264 H   0  0  0  0  0  0  0  0  0  0  0  0
    5.6831    3.7294   -5.5939 H   0  0  0  0  0  0  0  0  0  0  0  0
    5.8179    3.1796   -3.9090 H   0  0  0  0  0  0  0  0  0  0  0  0
    6.9198    5.4378   -4.3151 H   0  0  0  0  0  0  0  0  0  0  0  0
    5.6215    5.5294   -3.0804 H   0  0  0  0  0  0  0  0  0  0  0  0
    3.3579    6.0766   -2.8189 H   0  0  0  0  0  0  0  0  0  0  0  0
    1.7572    6.0291   -3.5143 H   0  0  0  0  0  0  0  0  0  0  0  0
    3.5218    8.5238   -3.1730 H   0  0  0  0  0  0  0  0  0  0  0  0
    2.0225    8.1385   -2.3095 H   0  0  0  0  0  0  0  0  0  0  0  0
    1.6663    9.8341   -4.1509 H   0  0  0  0  0  0  0  0  0  0  0  0
    0.7057    8.3692   -4.3978 H   0  0  0  0  0  0  0  0  0  0  0  0
    3.3795    9.0297   -5.7695 H   0  0  0  0  0  0  0  0  0  0  0  0
    1.7862    9.0332   -6.5393 H   0  0  0  0  0  0  0  0  0  0  0  0
    3.0398    6.9176   -7.0497 H   0  0  0  0  0  0  0  0  0  0  0  0
    1.5270    6.6094   -6.1830 H   0  0  0  0  0  0  0  0  0  0  0  0
    3.4981    4.5914   -6.3920 H   0  0  0  0  0  0  0  0  0  0  0  0
    2.0948    4.4490   -5.2921 H   0  0  0  0  0  0  0  0  0  0  0  0
    4.6703    1.5769   -0.3801 H   0  0  0  0  0  0  0  0  0  0  0  0
    5.0356    0.1790   -1.4053 H   0  0  0  0  0  0  0  0  0  0  0  0
  1  2  1  0
  1 25  1  0
  1 26  1  0
  1 27  1  0
  2  3  1  0
  2 24  1  0
  2 28  1  1
  3  4  1  0
  3 29  1  0
  3 30  1  0
  4  5  1  0
  4  6  1  0
  4 31  1  1
  5 32  1  0
  5 33  1  0
  5 34  1  0
  6  7  1  0
  6 35  1  0
  6 36  1  0
  7  8  1  0
  7 24  1  0
  7 37  1  1
  8  9  1  0
  8 38  1  0
  9 10  2  0
  9 11  1  0
 11 12  1  0
 11 23  1  0
 12 13  1  0
 12 39  1  0
 12 40  1  0
 14 13  1  1
 13 41  1  0
 13 42  1  0
 14 15  2  0
 14 16  2  0
 14 17  1  0
 17 18  1  1
 17 22  1  0
 17 23  1  0
 18 19  1  0
 18 43  1  0
 18 44  1  0
 19 20  1  0
 19 45  1  0
 19 46  1  0
 20 21  1  0
 20 47  1  0
 20 48  1  0
 21 22  1  0
 21 49  1  0
 21 50  1  0
 22 51  1  0
 22 52  1  0
 23 53  1  0
 23 54  1  0
 24 55  1  0
 24 56  1  0
M  END

