
     RDKit          3D

 32 33  0  0  0  0  0  0  0  0999 V2000
    1.1282    0.0833   -0.4690 C   0  0  0  0  0  0  0  0  0  0  0  0
    2.5790    0.0498   -0.0028 C   0  0  1  0  0  0  0  0  0  0  0  0
    2.9591    1.0558    1.0930 C   0  0  0  0  0  0  0  0  0  0  0  0
    4.2735    0.5105    1.6464 C   0  0  0  0  0  0  0  0  0  0  0  0
    4.1167   -0.9519    1.5145 N   0  0  0  0  0  0  0  0  0  0  0  0
    4.9110   -1.7706    2.2959 C   0  0  0  0  0  0  0  0  0  0  0  0
    5.8469   -1.2996    2.9237 O   0  0  0  0  0  0  0  0  0  0  0  0
    4.6449   -3.2552    2.3294 C   0  0  0  0  0  0  0  0  0  0  0  0
    5.7600   -4.1073    2.2599 C   0  0  0  0  0  0  0  0  0  0  0  0
    5.5961   -5.4897    2.3509 C   0  0  0  0  0  0  0  0  0  0  0  0
    4.3270   -6.0436    2.5441 C   0  0  0  0  0  0  0  0  0  0  0  0
    3.2353   -5.1856    2.6422 C   0  0  0  0  0  0  0  0  0  0  0  0
    2.0162   -5.6980    2.8558 F   0  0  0  0  0  0  0  0  0  0  0  0
    3.3701   -3.8034    2.5305 C   0  0  0  0  0  0  0  0  0  0  0  0
    3.0042   -1.3118    0.6255 C   0  0  2  0  0  0  0  0  0  0  0  0
    3.3490   -2.3052   -0.4896 C   0  0  0  0  0  0  0  0  0  0  0  0
    2.5073   -2.9576   -1.0438 O   0  0  0  0  0  0  0  0  0  0  0  0
    4.6371   -2.3290   -0.8756 O   0  0  0  0  0  0  0  0  0  0  0  0
    0.8938    1.0481   -0.9455 H   0  0  0  0  0  0  0  0  0  0  0  0
    0.4380   -0.0521    0.3804 H   0  0  0  0  0  0  0  0  0  0  0  0
    0.9296   -0.7177   -1.1966 H   0  0  0  0  0  0  0  0  0  0  0  0
    3.2377    0.2324   -0.8721 H   0  0  0  0  0  0  0  0  0  0  0  0
    2.1853    1.0579    1.8799 H   0  0  0  0  0  0  0  0  0  0  0  0
    3.0513    2.0835    0.7112 H   0  0  0  0  0  0  0  0  0  0  0  0
    4.4686    0.7693    2.6961 H   0  0  0  0  0  0  0  0  0  0  0  0
    5.1446    0.8627    1.0653 H   0  0  0  0  0  0  0  0  0  0  0  0
    6.7528   -3.6703    2.1423 H   0  0  0  0  0  0  0  0  0  0  0  0
    6.4657   -6.1472    2.2795 H   0  0  0  0  0  0  0  0  0  0  0  0
    4.1716   -7.1209    2.6268 H   0  0  0  0  0  0  0  0  0  0  0  0
    2.4769   -3.1881    2.6374 H   0  0  0  0  0  0  0  0  0  0  0  0
    2.1461   -1.7361    1.1684 H   0  0  0  0  0  0  0  0  0  0  0  0
    5.1558   -1.7600   -0.2829 H   0  0  0  0  0  0  0  0  0  0  0  0
  1  2  1  0
  1 19  1  0
  1 20  1  0
  1 21  1  0
  2  3  1  0
  2 15  1  0
  2 22  1  6
  3  4  1  0
  3 23  1  0
  3 24  1  0
  4  5  1  0
  4 25  1  0
  4 26  1  0
  5  6  1  0
  5 15  1  0
  6  7  2  0
  6  8  1  0
  8  9  2  0
  8 14  1  0
  9 10  1  0
  9 27  1  0
 10 11  2  0
 10 28  1  0
 11 12  1  0
 11 29  1  0
 12 13  1  0
 12 14  2  0
 14 30  1  0
 15 16  1  0
 15 31  1  1
 16 17  2  0
 16 18  1  0
 18 32  1  0
M  END

