
     RDKit          3D

 53 57  0  0  0  0  0  0  0  0999 V2000
    3.0538    0.7468    0.9443 O   0  0  0  0  0  0  0  0  0  0  0  0
    2.4280   -0.2068    0.5028 C   0  0  0  0  0  0  0  0  0  0  0  0
    1.0886   -0.1440    0.2443 N   0  0  0  0  0  0  0  0  0  0  0  0
    0.3359    1.1052    0.4252 C   0  0  2  0  0  0  0  0  0  0  0  0
   -0.0071    1.3579    1.9020 C   0  0  0  0  0  0  0  0  0  0  0  0
   -1.1508    0.4541    2.3272 C   0  0  0  0  0  0  0  0  0  0  0  0
   -2.3284    0.6971    1.5605 O   0  0  0  0  0  0  0  0  0  0  0  0
   -2.1835    0.8657    0.2210 C   0  0  0  0  0  0  0  0  0  0  0  0
   -3.3611    0.8599   -0.5467 C   0  0  0  0  0  0  0  0  0  0  0  0
   -3.2987    1.0366   -1.9254 C   0  0  0  0  0  0  0  0  0  0  0  0
   -2.0636    1.2254   -2.5614 C   0  0  0  0  0  0  0  0  0  0  0  0
   -0.8997    1.2419   -1.7953 C   0  0  0  0  0  0  0  0  0  0  0  0
   -0.9342    1.0660   -0.4021 C   0  0  0  0  0  0  0  0  0  0  0  0
    3.1108   -1.5219    0.2115 C   0  0  0  0  0  0  0  0  0  0  0  0
    4.5085   -1.5028    0.0569 C   0  0  0  0  0  0  0  0  0  0  0  0
    5.2113   -2.6749   -0.2169 C   0  0  0  0  0  0  0  0  0  0  0  0
    4.5332   -3.8954   -0.3196 C   0  0  0  0  0  0  0  0  0  0  0  0
    3.1507   -3.9124   -0.1320 C   0  0  0  0  0  0  0  0  0  0  0  0
    2.2555   -5.4643   -0.2902 S   0  0  1  0  0  0  0  0  0  0  0  0
    1.0492   -5.2214   -1.0862 O   0  0  0  0  0  0  0  0  0  0  0  0
    3.2277   -6.4888   -0.6884 O   0  0  0  0  0  0  0  0  0  0  0  0
    1.7182   -5.7313    1.2945 N   0  0  0  0  0  0  0  0  0  0  0  0
    2.7264   -6.2355    2.2348 C   0  0  0  0  0  0  0  0  0  0  0  0
    2.3319   -5.8495    3.6659 C   0  0  0  0  0  0  0  0  0  0  0  0
    0.8831   -6.1761    3.8825 C   0  0  0  0  0  0  0  0  0  0  0  0
    0.1225   -6.3114    5.4408 S   0  0  0  0  0  0  0  0  0  0  0  0
   -1.4119   -6.6700    4.7175 C   0  0  0  0  0  0  0  0  0  0  0  0
   -1.3370   -6.6817    3.3499 C   0  0  0  0  0  0  0  0  0  0  0  0
   -0.0182   -6.3940    2.8677 C   0  0  0  0  0  0  0  0  0  0  0  0
    0.3870   -6.3474    1.4171 C   0  0  0  0  0  0  0  0  0  0  0  0
    2.4306   -2.7415    0.1227 C   0  0  0  0  0  0  0  0  0  0  0  0
    0.6453   -0.8851   -0.2849 H   0  0  0  0  0  0  0  0  0  0  0  0
    0.9868    1.9225    0.0749 H   0  0  0  0  0  0  0  0  0  0  0  0
   -0.3050    2.4124    2.0269 H   0  0  0  0  0  0  0  0  0  0  0  0
    0.8817    1.1903    2.5271 H   0  0  0  0  0  0  0  0  0  0  0  0
   -1.4387    0.6162    3.3754 H   0  0  0  0  0  0  0  0  0  0  0  0
   -0.8581   -0.6077    2.2146 H   0  0  0  0  0  0  0  0  0  0  0  0
   -4.3114    0.7103   -0.0302 H   0  0  0  0  0  0  0  0  0  0  0  0
   -4.2212    1.0265   -2.5117 H   0  0  0  0  0  0  0  0  0  0  0  0
   -2.0133    1.3660   -3.6432 H   0  0  0  0  0  0  0  0  0  0  0  0
    0.0689    1.4046   -2.2779 H   0  0  0  0  0  0  0  0  0  0  0  0
    5.0202   -0.5438    0.1569 H   0  0  0  0  0  0  0  0  0  0  0  0
    6.2949   -2.6439   -0.3527 H   0  0  0  0  0  0  0  0  0  0  0  0
    5.0558   -4.8271   -0.5433 H   0  0  0  0  0  0  0  0  0  0  0  0
    3.7014   -5.7964    1.9817 H   0  0  0  0  0  0  0  0  0  0  0  0
    2.8314   -7.3335    2.1453 H   0  0  0  0  0  0  0  0  0  0  0  0
    2.5134   -4.7707    3.8196 H   0  0  0  0  0  0  0  0  0  0  0  0
    2.9779   -6.3871    4.3798 H   0  0  0  0  0  0  0  0  0  0  0  0
   -2.2830   -6.8506    5.3455 H   0  0  0  0  0  0  0  0  0  0  0  0
   -2.1923   -6.8851    2.7026 H   0  0  0  0  0  0  0  0  0  0  0  0
   -0.3257   -5.7538    0.8281 H   0  0  0  0  0  0  0  0  0  0  0  0
    0.3756   -7.3722    0.9910 H   0  0  0  0  0  0  0  0  0  0  0  0
    1.3507   -2.8065    0.2674 H   0  0  0  0  0  0  0  0  0  0  0  0
  1  2  2  0
  2  3  1  0
  2 14  1  0
  3  4  1  0
  3 32  1  0
  4  5  1  0
  4 13  1  0
  4 33  1  6
  5  6  1  0
  5 34  1  0
  5 35  1  0
  6  7  1  0
  6 36  1  0
  6 37  1  0
  7  8  1  0
  8  9  2  0
  8 13  1  0
  9 10  1  0
  9 38  1  0
 10 11  2  0
 10 39  1  0
 11 12  1  0
 11 40  1  0
 12 13  2  0
 12 41  1  0
 14 15  2  0
 14 31  1  0
 15 16  1  0
 15 42  1  0
 16 17  2  0
 16 43  1  0
 17 18  1  0
 17 44  1  0
 19 18  1  1
 18 31  2  0
 19 20  2  0
 19 21  2  0
 19 22  1  0
 22 23  1  0
 22 30  1  0
 23 24  1  0
 23 45  1  0
 23 46  1  0
 24 25  1  0
 24 47  1  0
 24 48  1  0
 25 26  1  0
 25 29  2  0
 26 27  1  0
 27 28  2  0
 27 49  1  0
 28 29  1  0
 28 50  1  0
 29 30  1  0
 30 51  1  0
 30 52  1  0
 31 53  1  0
M  END

