
     RDKit          3D

 75 78  0  0  0  0  0  0  0  0999 V2000
    6.8162    0.8117   -0.9730 C   0  0  0  0  0  0  0  0  0  0  0  0
    6.0344    1.0382    0.1650 O   0  0  0  0  0  0  0  0  0  0  0  0
    4.6691    1.2554   -0.1114 C   0  0  0  0  0  0  0  0  0  0  0  0
    3.9180    1.4952    1.1913 C   0  0  0  0  0  0  0  0  0  0  0  0
    4.4094    2.6999    1.9925 C   0  0  1  0  0  0  0  0  0  0  0  0
    4.1226    4.0760    1.3888 C   0  0  0  0  0  0  0  0  0  0  0  0
    4.3328    4.9775    2.5160 N   0  0  0  0  0  0  0  0  0  0  0  0
    3.8480    4.3526    3.7481 C   0  0  2  0  0  0  0  0  0  0  0  0
    4.6802    4.7458    5.0101 C   0  0  1  0  0  0  0  0  0  0  0  0
    6.1355    4.2858    5.0736 C   0  0  0  0  0  0  0  0  0  0  0  0
    7.0226    4.3505    3.9836 C   0  0  0  0  0  0  0  0  0  0  0  0
    8.3526    3.9355    4.1163 C   0  0  0  0  0  0  0  0  0  0  0  0
    8.8303    3.4561    5.3383 C   0  0  0  0  0  0  0  0  0  0  0  0
    7.9628    3.3923    6.4332 C   0  0  0  0  0  0  0  0  0  0  0  0
    6.6344    3.8025    6.2981 C   0  0  0  0  0  0  0  0  0  0  0  0
    4.5229    6.2455    5.2766 C   0  0  0  0  0  0  0  0  0  0  0  0
    3.4931    6.6927    6.1221 C   0  0  0  0  0  0  0  0  0  0  0  0
    3.2831    8.0549    6.3532 C   0  0  0  0  0  0  0  0  0  0  0  0
    4.1050    9.0040    5.7393 C   0  0  0  0  0  0  0  0  0  0  0  0
    5.1355    8.5749    4.8980 C   0  0  0  0  0  0  0  0  0  0  0  0
    5.3433    7.2110    4.6702 C   0  0  0  0  0  0  0  0  0  0  0  0
    3.7585    2.8120    3.3905 C   0  0  2  0  0  0  0  0  0  0  0  0
    4.2753    1.8311    4.3214 N   0  0  0  0  0  0  0  0  0  0  0  0
    3.4528    1.4354    5.4548 C   0  0  0  0  0  0  0  0  0  0  0  0
    2.1713    0.7110    5.0668 C   0  0  0  0  0  0  0  0  0  0  0  0
    0.9501    1.2396    5.5170 C   0  0  0  0  0  0  0  0  0  0  0  0
   -0.3020    0.6991    5.1918 C   0  0  0  0  0  0  0  0  0  0  0  0
   -1.5984    1.3129    5.7065 C   0  0  1  0  0  0  0  0  0  0  0  0
   -1.7032    1.2435    7.2399 C   0  0  0  0  0  0  0  0  0  0  0  0
   -1.8021    2.7514    5.1998 C   0  0  0  0  0  0  0  0  0  0  0  0
   -0.3139   -0.4281    4.3598 C   0  0  0  0  0  0  0  0  0  0  0  0
    0.8765   -0.9885    3.9015 C   0  0  0  0  0  0  0  0  0  0  0  0
    2.1219   -0.4440    4.2476 C   0  0  0  0  0  0  0  0  0  0  0  0
    3.1990   -1.0775    3.6959 O   0  0  0  0  0  0  0  0  0  0  0  0
    4.3385   -1.3868    4.4763 C   0  0  0  0  0  0  0  0  0  0  0  0
    7.8555    0.6561   -0.6466 H   0  0  0  0  0  0  0  0  0  0  0  0
    6.7937    1.6716   -1.6750 H   0  0  0  0  0  0  0  0  0  0  0  0
    6.4866   -0.0874   -1.5345 H   0  0  0  0  0  0  0  0  0  0  0  0
    4.2391    0.3755   -0.6359 H   0  0  0  0  0  0  0  0  0  0  0  0
    4.5534    2.1200   -0.8016 H   0  0  0  0  0  0  0  0  0  0  0  0
    4.0007    0.5964    1.8226 H   0  0  0  0  0  0  0  0  0  0  0  0
    2.8453    1.6134    0.9522 H   0  0  0  0  0  0  0  0  0  0  0  0
    5.4987    2.5999    2.1285 H   0  0  0  0  0  0  0  0  0  0  0  0
    3.0818    4.0988    0.9916 H   0  0  0  0  0  0  0  0  0  0  0  0
    4.7959    4.3317    0.5534 H   0  0  0  0  0  0  0  0  0  0  0  0
    3.9652    5.9132    2.3694 H   0  0  0  0  0  0  0  0  0  0  0  0
    2.8199    4.6923    3.9880 H   0  0  0  0  0  0  0  0  0  0  0  0
    4.1691    4.2465    5.8479 H   0  0  0  0  0  0  0  0  0  0  0  0
    6.6506    4.7215    3.0286 H   0  0  0  0  0  0  0  0  0  0  0  0
    9.0206    3.9896    3.2523 H   0  0  0  0  0  0  0  0  0  0  0  0
    9.8702    3.1345    5.4383 H   0  0  0  0  0  0  0  0  0  0  0  0
    8.3210    3.0214    7.3974 H   0  0  0  0  0  0  0  0  0  0  0  0
    5.9665    3.7497    7.1634 H   0  0  0  0  0  0  0  0  0  0  0  0
    2.8456    5.9589    6.6119 H   0  0  0  0  0  0  0  0  0  0  0  0
    2.4776    8.3745    7.0199 H   0  0  0  0  0  0  0  0  0  0  0  0
    3.9475   10.0704    5.9202 H   0  0  0  0  0  0  0  0  0  0  0  0
    5.7895    9.3076    4.4173 H   0  0  0  0  0  0  0  0  0  0  0  0
    6.1607    6.8942    4.0211 H   0  0  0  0  0  0  0  0  0  0  0  0
    2.6865    2.5854    3.2683 H   0  0  0  0  0  0  0  0  0  0  0  0
    5.2276    2.0421    4.6064 H   0  0  0  0  0  0  0  0  0  0  0  0
    3.1552    2.2850    6.1059 H   0  0  0  0  0  0  0  0  0  0  0  0
    4.0764    0.7875    6.0920 H   0  0  0  0  0  0  0  0  0  0  0  0
    0.9951    2.1341    6.1462 H   0  0  0  0  0  0  0  0  0  0  0  0
   -2.4208    0.7021    5.2943 H   0  0  0  0  0  0  0  0  0  0  0  0
   -0.9168    1.8462    7.7239 H   0  0  0  0  0  0  0  0  0  0  0  0
   -1.5993    0.2085    7.6015 H   0  0  0  0  0  0  0  0  0  0  0  0
   -2.6765    1.6299    7.5850 H   0  0  0  0  0  0  0  0  0  0  0  0
   -1.0229    3.4286    5.5873 H   0  0  0  0  0  0  0  0  0  0  0  0
   -2.7774    3.1484    5.5265 H   0  0  0  0  0  0  0  0  0  0  0  0
   -1.7665    2.7969    4.1000 H   0  0  0  0  0  0  0  0  0  0  0  0
   -1.2671   -0.8817    4.0722 H   0  0  0  0  0  0  0  0  0  0  0  0
    0.8750   -1.8741    3.2625 H   0  0  0  0  0  0  0  0  0  0  0  0
    4.8322   -2.2402    3.9880 H   0  0  0  0  0  0  0  0  0  0  0  0
    4.0568   -1.6845    5.5016 H   0  0  0  0  0  0  0  0  0  0  0  0
    5.0441   -0.5424    4.5098 H   0  0  0  0  0  0  0  0  0  0  0  0
  1  2  1  0
  1 36  1  0
  1 37  1  0
  1 38  1  0
  2  3  1  0
  3  4  1  0
  3 39  1  0
  3 40  1  0
  4  5  1  0
  4 41  1  0
  4 42  1  0
  5  6  1  0
  5 22  1  0
  5 43  1  1
  6  7  1  0
  6 44  1  0
  6 45  1  0
  7  8  1  0
  7 46  1  0
  8  9  1  0
  8 22  1  0
  8 47  1  1
  9 10  1  0
  9 16  1  0
  9 48  1  1
 10 11  2  0
 10 15  1  0
 11 12  1  0
 11 49  1  0
 12 13  2  0
 12 50  1  0
 13 14  1  0
 13 51  1  0
 14 15  2  0
 14 52  1  0
 15 53  1  0
 16 17  2  0
 16 21  1  0
 17 18  1  0
 17 54  1  0
 18 19  2  0
 18 55  1  0
 19 20  1  0
 19 56  1  0
 20 21  2  0
 20 57  1  0
 21 58  1  0
 22 23  1  0
 22 59  1  6
 23 24  1  0
 23 60  1  0
 24 25  1  0
 24 61  1  0
 24 62  1  0
 25 26  2  0
 25 33  1  0
 26 27  1  0
 26 63  1  0
 27 28  1  0
 27 31  2  0
 28 29  1  0
 28 30  1  0
 28 64  1  6
 29 65  1  0
 29 66  1  0
 29 67  1  0
 30 68  1  0
 30 69  1  0
 30 70  1  0
 31 32  1  0
 31 71  1  0
 32 33  2  0
 32 72  1  0
 33 34  1  0
 34 35  1  0
 35 73  1  0
 35 74  1  0
 35 75  1  0
M  END

