
     RDKit          3D

 39 40  0  0  0  0  0  0  0  0999 V2000
    0.6795    0.0436   -0.7761 C   0  0  0  0  0  0  0  0  0  0  0  0
    2.1509   -0.3514   -0.7084 C   0  0  0  0  0  0  0  0  0  0  0  0
    3.0131    0.7670   -1.0607 N   0  0  0  0  0  0  0  0  0  0  0  0
    4.4534    0.5343   -0.9497 C   0  0  1  0  0  0  0  0  0  0  0  0
    4.9595   -0.3356   -2.1211 C   0  0  0  0  0  0  0  0  0  0  0  0
    4.8531    0.4183   -3.4551 C   0  0  0  0  0  0  0  0  0  0  0  0
    5.5406    1.7042   -3.4480 N   0  0  0  0  0  0  0  0  0  0  0  0
    6.9399    1.7321   -3.8366 C   0  0  0  0  0  0  0  0  0  0  0  0
    7.2522    2.9702   -4.6282 C   0  0  0  0  0  0  0  0  0  0  0  0
    7.5960    4.1464   -4.1926 N   0  0  0  0  0  0  0  0  0  0  0  0
    7.6760    4.8882   -5.3519 C   0  0  0  0  0  0  0  0  0  0  0  0
    8.0416    6.3331   -5.3811 C   0  0  0  0  0  0  0  0  0  0  0  0
    7.4064    4.2057   -6.4368 N   0  0  0  0  0  0  0  0  0  0  0  0
    7.1240    2.9296   -5.9600 O   0  0  0  0  0  0  0  0  0  0  0  0
    5.1295    2.5597   -2.3389 C   0  0  0  0  0  0  0  0  0  0  0  0
    5.1990    1.8942   -0.9405 C   0  0  2  0  0  0  0  0  0  0  0  0
    6.6213    1.7646   -0.3780 C   0  0  0  0  0  0  0  0  0  0  0  0
    0.0286   -0.8114   -0.5355 H   0  0  0  0  0  0  0  0  0  0  0  0
    0.4204    0.4093   -1.7819 H   0  0  0  0  0  0  0  0  0  0  0  0
    0.4488    0.8478   -0.0561 H   0  0  0  0  0  0  0  0  0  0  0  0
    2.3327   -1.1802   -1.4134 H   0  0  0  0  0  0  0  0  0  0  0  0
    2.3813   -0.7610    0.3031 H   0  0  0  0  0  0  0  0  0  0  0  0
    2.7601    1.5722   -0.4884 H   0  0  0  0  0  0  0  0  0  0  0  0
    4.6944    0.0055    0.0013 H   0  0  0  0  0  0  0  0  0  0  0  0
    4.3875   -1.2766   -2.1742 H   0  0  0  0  0  0  0  0  0  0  0  0
    6.0060   -0.6273   -1.9286 H   0  0  0  0  0  0  0  0  0  0  0  0
    3.7849    0.6016   -3.6633 H   0  0  0  0  0  0  0  0  0  0  0  0
    5.2424   -0.1942   -4.2838 H   0  0  0  0  0  0  0  0  0  0  0  0
    7.1411    0.8656   -4.4831 H   0  0  0  0  0  0  0  0  0  0  0  0
    7.6605    1.6927   -2.9969 H   0  0  0  0  0  0  0  0  0  0  0  0
    9.0372    6.4833   -4.9352 H   0  0  0  0  0  0  0  0  0  0  0  0
    7.3238    6.9199   -4.7869 H   0  0  0  0  0  0  0  0  0  0  0  0
    8.0465    6.7050   -6.4139 H   0  0  0  0  0  0  0  0  0  0  0  0
    4.0829    2.8610   -2.5174 H   0  0  0  0  0  0  0  0  0  0  0  0
    5.7343    3.4797   -2.3535 H   0  0  0  0  0  0  0  0  0  0  0  0
    4.6471    2.5619   -0.2507 H   0  0  0  0  0  0  0  0  0  0  0  0
    7.2361    1.0459   -0.9415 H   0  0  0  0  0  0  0  0  0  0  0  0
    6.5985    1.4175    0.6680 H   0  0  0  0  0  0  0  0  0  0  0  0
    7.1440    2.7341   -0.3987 H   0  0  0  0  0  0  0  0  0  0  0  0
  1  2  1  0
  1 18  1  0
  1 19  1  0
  1 20  1  0
  2  3  1  0
  2 21  1  0
  2 22  1  0
  3  4  1  0
  3 23  1  0
  4  5  1  0
  4 16  1  0
  4 24  1  1
  5  6  1  0
  5 25  1  0
  5 26  1  0
  6  7  1  0
  6 27  1  0
  6 28  1  0
  7  8  1  0
  7 15  1  0
  8  9  1  0
  8 29  1  0
  8 30  1  0
  9 10  2  0
  9 14  1  0
 10 11  1  0
 11 12  1  0
 11 13  2  0
 12 31  1  0
 12 32  1  0
 12 33  1  0
 13 14  1  0
 15 16  1  0
 15 34  1  0
 15 35  1  0
 16 17  1  0
 16 36  1  1
 17 37  1  0
 17 38  1  0
 17 39  1  0
M  END

