
     RDKit          3D

 41 42  0  0  0  0  0  0  0  0999 V2000
    2.5950    1.2810   -1.0620 C   0  0  0  0  0  0  0  0  0  0  0  0
    4.0373    0.8858   -0.7951 C   0  0  0  0  0  0  0  0  0  0  0  0
    4.4339    1.2021    0.5554 O   0  0  0  0  0  0  0  0  0  0  0  0
    4.1702    0.2933    1.5148 C   0  0  0  0  0  0  0  0  0  0  0  0
    3.6293   -0.7651    1.2979 O   0  0  0  0  0  0  0  0  0  0  0  0
    4.6505    0.7600    2.8841 C   0  0  1  0  0  0  0  0  0  0  0  0
    6.2159    0.6057    2.9980 C   0  0  1  0  0  0  0  0  0  0  0  0
    6.7004   -0.7589    2.4811 C   0  0  0  0  0  0  0  0  0  0  0  0
    7.0243    1.7323    2.3398 C   0  0  0  0  0  0  0  0  0  0  0  0
    4.1459    2.1861    3.2227 C   0  0  0  0  0  0  0  0  0  0  0  0
    4.1804    2.2404    4.7506 C   0  0  0  0  0  0  0  0  0  0  0  0
    3.9811    0.8419    5.1584 N   0  0  0  0  0  0  0  0  0  0  0  0
    3.4838    0.5931    6.4135 C   0  0  0  0  0  0  0  0  0  0  0  0
    3.2377    1.5083    7.1894 O   0  0  0  0  0  0  0  0  0  0  0  0
    3.2385   -0.8329    6.8194 C   0  0  0  0  0  0  0  0  0  0  0  0
    4.0691   -1.9812    6.5858 C   0  0  0  0  0  0  0  0  0  0  0  0
    3.5858   -3.1178    7.1799 C   0  0  0  0  0  0  0  0  0  0  0  0
    2.1091   -2.8117    8.0296 S   0  0  0  0  0  0  0  0  0  0  0  0
    2.1490   -1.1440    7.6039 C   0  0  0  0  0  0  0  0  0  0  0  0
    3.9635   -0.0621    4.0001 C   0  0  0  0  0  0  0  0  0  0  0  0
    2.3474    1.0994   -2.1202 H   0  0  0  0  0  0  0  0  0  0  0  0
    2.4327    2.3493   -0.8498 H   0  0  0  0  0  0  0  0  0  0  0  0
    1.9058    0.6865   -0.4442 H   0  0  0  0  0  0  0  0  0  0  0  0
    4.7320    1.4553   -1.4291 H   0  0  0  0  0  0  0  0  0  0  0  0
    4.1896   -0.1896   -0.9675 H   0  0  0  0  0  0  0  0  0  0  0  0
    6.4269    0.6403    4.0813 H   0  0  0  0  0  0  0  0  0  0  0  0
    6.6429   -0.8157    1.3816 H   0  0  0  0  0  0  0  0  0  0  0  0
    6.1134   -1.5985    2.8824 H   0  0  0  0  0  0  0  0  0  0  0  0
    7.7531   -0.9205    2.7618 H   0  0  0  0  0  0  0  0  0  0  0  0
    6.7979    1.8170    1.2662 H   0  0  0  0  0  0  0  0  0  0  0  0
    8.1018    1.5268    2.4439 H   0  0  0  0  0  0  0  0  0  0  0  0
    6.8379    2.7119    2.8040 H   0  0  0  0  0  0  0  0  0  0  0  0
    3.1064    2.2866    2.8699 H   0  0  0  0  0  0  0  0  0  0  0  0
    4.7247    2.9849    2.7446 H   0  0  0  0  0  0  0  0  0  0  0  0
    3.3975    2.8780    5.1862 H   0  0  0  0  0  0  0  0  0  0  0  0
    5.1451    2.6174    5.1345 H   0  0  0  0  0  0  0  0  0  0  0  0
    5.0083   -1.9594    6.0332 H   0  0  0  0  0  0  0  0  0  0  0  0
    4.0208   -4.1163    7.1736 H   0  0  0  0  0  0  0  0  0  0  0  0
    1.3848   -0.4526    7.9546 H   0  0  0  0  0  0  0  0  0  0  0  0
    2.9338   -0.3262    3.7060 H   0  0  0  0  0  0  0  0  0  0  0  0
    4.4888   -1.0024    4.1984 H   0  0  0  0  0  0  0  0  0  0  0  0
  1  2  1  0
  1 21  1  0
  1 22  1  0
  1 23  1  0
  2  3  1  0
  2 24  1  0
  2 25  1  0
  3  4  1  0
  4  5  2  0
  6  4  1  6
  6  7  1  0
  6 10  1  0
  6 20  1  0
  7  8  1  0
  7  9  1  0
  7 26  1  1
  8 27  1  0
  8 28  1  0
  8 29  1  0
  9 30  1  0
  9 31  1  0
  9 32  1  0
 10 11  1  0
 10 33  1  0
 10 34  1  0
 11 12  1  0
 11 35  1  0
 11 36  1  0
 12 13  1  0
 12 20  1  0
 13 14  2  0
 13 15  1  0
 15 16  1  0
 15 19  2  0
 16 17  2  0
 16 37  1  0
 17 18  1  0
 17 38  1  0
 18 19  1  0
 19 39  1  0
 20 40  1  0
 20 41  1  0
M  END

