
     RDKit          3D

 42 42  0  0  0  0  0  0  0  0999 V2000
    1.0274    0.2921    0.1948 C   0  0  0  0  0  0  0  0  0  0  0  0
    2.5422    0.1118    0.0331 C   0  0  1  0  0  0  0  0  0  0  0  0
    2.9459   -1.3292   -0.3421 C   0  0  0  0  0  0  0  0  0  0  0  0
    2.6179   -1.6774   -1.8006 C   0  0  2  0  0  0  0  0  0  0  0  0
    3.1112   -3.0773   -2.1673 C   0  0  0  0  0  0  0  0  0  0  0  0
    3.7228   -3.7991   -1.4282 O   0  0  0  0  0  0  0  0  0  0  0  0
    2.8180   -3.4811   -3.4258 O   0  0  0  0  0  0  0  0  0  0  0  0
    3.1989   -0.6064   -2.7531 C   0  0  0  0  0  0  0  0  0  0  0  0
    2.7533    0.7176   -2.3599 N   0  0  0  0  0  0  0  0  0  0  0  0
    2.0328    1.4707   -3.2811 C   0  0  0  0  0  0  0  0  0  0  0  0
    1.8393    1.0674   -4.4230 O   0  0  0  0  0  0  0  0  0  0  0  0
    1.5638    2.6918   -2.8519 N   0  0  0  0  0  0  0  0  0  0  0  0
    0.7075    3.5137   -3.7087 C   0  0  1  0  0  0  0  0  0  0  0  0
   -0.7612    3.0880   -3.5733 C   0  0  0  0  0  0  0  0  0  0  0  0
    0.9664    5.0122   -3.4154 C   0  0  1  0  0  0  0  0  0  0  0  0
    2.4342    5.3869   -3.6614 C   0  0  0  0  0  0  0  0  0  0  0  0
    0.0402    5.9328   -4.2219 C   0  0  0  0  0  0  0  0  0  0  0  0
    3.1320    1.0893   -1.0041 C   0  0  0  0  0  0  0  0  0  0  0  0
    0.6184   -0.4264    0.9227 H   0  0  0  0  0  0  0  0  0  0  0  0
    0.4898    0.1465   -0.7557 H   0  0  0  0  0  0  0  0  0  0  0  0
    0.7852    1.3045    0.5589 H   0  0  0  0  0  0  0  0  0  0  0  0
    3.0159    0.3455    1.0028 H   0  0  0  0  0  0  0  0  0  0  0  0
    2.4690   -2.0551    0.3344 H   0  0  0  0  0  0  0  0  0  0  0  0
    4.0321   -1.4561   -0.2002 H   0  0  0  0  0  0  0  0  0  0  0  0
    1.5215   -1.6805   -1.9475 H   0  0  0  0  0  0  0  0  0  0  0  0
    2.3163   -2.8013   -3.8989 H   0  0  0  0  0  0  0  0  0  0  0  0
    2.8889   -0.7514   -3.7958 H   0  0  0  0  0  0  0  0  0  0  0  0
    4.3050   -0.6570   -2.7197 H   0  0  0  0  0  0  0  0  0  0  0  0
    1.5100    2.8775   -1.8588 H   0  0  0  0  0  0  0  0  0  0  0  0
    1.0298    3.2974   -4.7392 H   0  0  0  0  0  0  0  0  0  0  0  0
   -1.1501    3.3044   -2.5628 H   0  0  0  0  0  0  0  0  0  0  0  0
   -0.8468    2.0067   -3.7564 H   0  0  0  0  0  0  0  0  0  0  0  0
   -1.4071    3.5993   -4.3021 H   0  0  0  0  0  0  0  0  0  0  0  0
    0.7450    5.1772   -2.3408 H   0  0  0  0  0  0  0  0  0  0  0  0
    2.6899    5.2775   -4.7290 H   0  0  0  0  0  0  0  0  0  0  0  0
    3.1204    4.7455   -3.0900 H   0  0  0  0  0  0  0  0  0  0  0  0
    2.6262    6.4340   -3.3779 H   0  0  0  0  0  0  0  0  0  0  0  0
    0.1501    5.7514   -5.3050 H   0  0  0  0  0  0  0  0  0  0  0  0
    0.2920    6.9893   -4.0377 H   0  0  0  0  0  0  0  0  0  0  0  0
   -1.0204    5.7985   -3.9635 H   0  0  0  0  0  0  0  0  0  0  0  0
    2.8328    2.1224   -0.7836 H   0  0  0  0  0  0  0  0  0  0  0  0
    4.2369    1.0715   -0.9282 H   0  0  0  0  0  0  0  0  0  0  0  0
  1  2  1  0
  1 19  1  0
  1 20  1  0
  1 21  1  0
  2  3  1  0
  2 18  1  0
  2 22  1  1
  3  4  1  0
  3 23  1  0
  3 24  1  0
  4  5  1  0
  4  8  1  0
  4 25  1  1
  5  6  2  0
  5  7  1  0
  7 26  1  0
  8  9  1  0
  8 27  1  0
  8 28  1  0
  9 10  1  0
  9 18  1  0
 10 11  2  0
 10 12  1  0
 12 13  1  0
 12 29  1  0
 13 14  1  0
 13 15  1  0
 13 30  1  6
 14 31  1  0
 14 32  1  0
 14 33  1  0
 15 16  1  0
 15 17  1  0
 15 34  1  1
 16 35  1  0
 16 36  1  0
 16 37  1  0
 17 38  1  0
 17 39  1  0
 17 40  1  0
 18 41  1  0
 18 42  1  0
M  END

