
     RDKit          3D

 32 32  0  0  0  0  0  0  0  0999 V2000
    0.8713   -0.7530    2.1906 C   0  0  0  0  0  0  0  0  0  0  0  0
    2.3732   -1.0044    2.2764 C   0  0  0  0  0  0  0  0  0  0  0  0
    3.0802   -0.3475    1.1883 N   0  0  0  0  0  0  0  0  0  0  0  0
    4.5422   -0.4387    1.2185 C   0  0  1  0  0  0  0  0  0  0  0  0
    5.0152   -1.8503    0.8109 C   0  0  0  0  0  0  0  0  0  0  0  0
    4.6976   -2.1758   -0.6535 C   0  0  0  0  0  0  0  0  0  0  0  0
    5.2769   -1.1156   -1.5987 C   0  0  0  0  0  0  0  0  0  0  0  0
    4.8189    0.2942   -1.1993 C   0  0  0  0  0  0  0  0  0  0  0  0
    5.1370    0.6387    0.2728 C   0  0  2  0  0  0  0  0  0  0  0  0
    6.6400    0.9034    0.5025 C   0  0  0  0  0  0  0  0  0  0  0  0
    6.9893    1.5511    1.8455 C   0  0  0  0  0  0  0  0  0  0  0  0
    0.3351   -1.2757    2.9981 H   0  0  0  0  0  0  0  0  0  0  0  0
    0.4735   -1.0998    1.2241 H   0  0  0  0  0  0  0  0  0  0  0  0
    0.6407    0.3226    2.2826 H   0  0  0  0  0  0  0  0  0  0  0  0
    2.5584   -2.0905    2.2197 H   0  0  0  0  0  0  0  0  0  0  0  0
    2.7472   -0.6875    3.2788 H   0  0  0  0  0  0  0  0  0  0  0  0
    2.8088    0.6352    1.1631 H   0  0  0  0  0  0  0  0  0  0  0  0
    4.9162   -0.2447    2.2482 H   0  0  0  0  0  0  0  0  0  0  0  0
    4.5644   -2.6030    1.4783 H   0  0  0  0  0  0  0  0  0  0  0  0
    6.1035   -1.9182    0.9826 H   0  0  0  0  0  0  0  0  0  0  0  0
    3.6027   -2.2146   -0.7796 H   0  0  0  0  0  0  0  0  0  0  0  0
    5.0858   -3.1758   -0.9117 H   0  0  0  0  0  0  0  0  0  0  0  0
    4.9756   -1.3249   -2.6393 H   0  0  0  0  0  0  0  0  0  0  0  0
    6.3806   -1.1724   -1.5846 H   0  0  0  0  0  0  0  0  0  0  0  0
    3.7287    0.3630   -1.3466 H   0  0  0  0  0  0  0  0  0  0  0  0
    5.2767    1.0494   -1.8615 H   0  0  0  0  0  0  0  0  0  0  0  0
    4.6203    1.5898    0.5097 H   0  0  0  0  0  0  0  0  0  0  0  0
    6.9892    1.5663   -0.3087 H   0  0  0  0  0  0  0  0  0  0  0  0
    7.2174   -0.0294    0.3871 H   0  0  0  0  0  0  0  0  0  0  0  0
    6.4422    2.4988    1.9868 H   0  0  0  0  0  0  0  0  0  0  0  0
    8.0657    1.7792    1.9053 H   0  0  0  0  0  0  0  0  0  0  0  0
    6.7472    0.9002    2.7004 H   0  0  0  0  0  0  0  0  0  0  0  0
  1  2  1  0
  1 12  1  0
  1 13  1  0
  1 14  1  0
  2  3  1  0
  2 15  1  0
  2 16  1  0
  3  4  1  0
  3 17  1  0
  4  5  1  0
  4  9  1  0
  4 18  1  1
  5  6  1  0
  5 19  1  0
  5 20  1  0
  6  7  1  0
  6 21  1  0
  6 22  1  0
  7  8  1  0
  7 23  1  0
  7 24  1  0
  8  9  1  0
  8 25  1  0
  8 26  1  0
  9 10  1  0
  9 27  1  1
 10 11  1  0
 10 28  1  0
 10 29  1  0
 11 30  1  0
 11 31  1  0
 11 32  1  0
M  END

