
     RDKit          3D

 32 32  0  0  0  0  0  0  0  0999 V2000
    4.2123   -2.5515   -0.3606 C   0  0  0  0  0  0  0  0  0  0  0  0
    2.8653   -2.2637   -1.0232 C   0  0  1  0  0  0  0  0  0  0  0  0
    2.9925   -1.5835   -2.3084 N   0  0  0  0  0  0  0  0  0  0  0  0
    2.6401   -0.2631   -2.4661 C   0  0  0  0  0  0  0  0  0  0  0  0
    2.0551    0.3911   -1.6254 O   0  0  0  0  0  0  0  0  0  0  0  0
    3.0609    0.3495   -3.8154 C   0  0  0  0  0  0  0  0  0  0  0  0
    2.6004   -0.3553   -5.0014 N   0  0  0  0  0  0  0  0  0  0  0  0
    3.2549   -1.4401   -5.5073 C   0  0  0  0  0  0  0  0  0  0  0  0
    4.1870   -1.9658   -4.8995 O   0  0  0  0  0  0  0  0  0  0  0  0
    2.7762   -1.9737   -6.8242 C   0  0  0  0  0  0  0  0  0  0  0  0
    2.0433   -1.2126   -7.7494 C   0  0  0  0  0  0  0  0  0  0  0  0
    1.6371   -1.7635   -8.9655 C   0  0  0  0  0  0  0  0  0  0  0  0
    1.9702   -3.0894   -9.2603 C   0  0  0  0  0  0  0  0  0  0  0  0
    1.4156   -3.8488  -10.9133 Br  0  0  0  0  0  0  0  0  0  0  0  0
    2.7123   -3.8608   -8.3588 C   0  0  0  0  0  0  0  0  0  0  0  0
    3.1167   -3.2962   -7.1506 C   0  0  0  0  0  0  0  0  0  0  0  0
    2.0118   -3.5443   -1.1386 C   0  0  0  0  0  0  0  0  0  0  0  0
    2.0352   -4.4215   -0.3189 O   0  0  0  0  0  0  0  0  0  0  0  0
    1.2002   -3.5885   -2.2082 O   0  0  0  0  0  0  0  0  0  0  0  0
    4.7434   -1.6129   -0.1446 H   0  0  0  0  0  0  0  0  0  0  0  0
    4.8484   -3.1753   -1.0092 H   0  0  0  0  0  0  0  0  0  0  0  0
    4.0508   -3.0987    0.5778 H   0  0  0  0  0  0  0  0  0  0  0  0
    2.2827   -1.5774   -0.3849 H   0  0  0  0  0  0  0  0  0  0  0  0
    3.6393   -1.9610   -3.0098 H   0  0  0  0  0  0  0  0  0  0  0  0
    4.1624    0.3916   -3.8438 H   0  0  0  0  0  0  0  0  0  0  0  0
    2.6687    1.3740   -3.8281 H   0  0  0  0  0  0  0  0  0  0  0  0
    1.7448   -0.0411   -5.4411 H   0  0  0  0  0  0  0  0  0  0  0  0
    1.8045   -0.1652   -7.5482 H   0  0  0  0  0  0  0  0  0  0  0  0
    1.0746   -1.1655   -9.6839 H   0  0  0  0  0  0  0  0  0  0  0  0
    2.9716   -4.8921   -8.6030 H   0  0  0  0  0  0  0  0  0  0  0  0
    3.7062   -3.8743   -6.4368 H   0  0  0  0  0  0  0  0  0  0  0  0
    1.3872   -2.7986   -2.7462 H   0  0  0  0  0  0  0  0  0  0  0  0
  1  2  1  0
  1 20  1  0
  1 21  1  0
  1 22  1  0
  2  3  1  0
  2 17  1  0
  2 23  1  1
  3  4  1  0
  3 24  1  0
  4  5  2  0
  4  6  1  0
  6  7  1  0
  6 25  1  0
  6 26  1  0
  7  8  1  0
  7 27  1  0
  8  9  2  0
  8 10  1  0
 10 11  2  0
 10 16  1  0
 11 12  1  0
 11 28  1  0
 12 13  2  0
 12 29  1  0
 13 14  1  0
 13 15  1  0
 15 16  2  0
 15 30  1  0
 16 31  1  0
 17 18  2  0
 17 19  1  0
 19 32  1  0
M  END

