
     RDKit          3D

218243  0  0  0  0  0  0  0  0999 V2000
   10.4031    6.7894   -5.6738 F   0  0  0  0  0  0  0  0  0  0  0  0
    9.3181    7.5741   -5.5586 C   0  0  1  0  0  0  0  0  0  0  0  0
    9.2994    8.0345   -4.2932 F   0  0  0  0  0  0  0  0  0  0  0  0
    9.4933    8.6345   -6.3631 F   0  0  0  0  0  0  0  0  0  0  0  0
    8.0505    6.8212   -5.8870 C   0  0  0  0  0  0  0  0  0  0  0  0
    7.9331    5.4725   -5.5256 C   0  0  0  0  0  0  0  0  0  0  0  0
    6.7465    4.7852   -5.7752 C   0  0  0  0  0  0  0  0  0  0  0  0
    5.6742    5.4415   -6.3955 C   0  0  0  0  0  0  0  0  0  0  0  0
    4.4586    4.7370   -6.6492 N   0  0  0  0  0  0  0  0  0  0  0  0
    3.2481    4.8780   -5.9587 C   0  0  0  0  0  0  0  0  0  0  0  0
    2.9953    5.7715   -4.8154 C   0  0  0  0  0  0  0  0  0  0  0  0
    1.6606    6.1722   -4.5918 C   0  0  0  0  0  0  0  0  0  0  0  0
    1.3183    6.9928   -3.5249 C   0  0  0  0  0  0  0  0  0  0  0  0
    2.2991    7.4386   -2.6165 C   0  0  0  0  0  0  0  0  0  0  0  0
    1.9531    8.2694   -1.5244 N   0  0  0  0  0  0  0  0  0  0  0  0
    0.7369    8.0421   -0.8216 C   0  0  0  0  0  0  0  0  0  0  0  0
    0.3537    6.7430   -0.4469 C   0  0  0  0  0  0  0  0  0  0  0  0
   -0.8407    6.5256    0.2365 C   0  0  0  0  0  0  0  0  0  0  0  0
   -1.6940    7.5895    0.5884 C   0  0  0  0  0  0  0  0  0  0  0  0
   -2.9610    7.3538    1.3254 C   0  0  0  0  0  0  0  0  0  0  0  0
   -3.0683    6.3373    2.2945 C   0  0  0  0  0  0  0  0  0  0  0  0
   -4.2565    6.1083    2.9844 C   0  0  0  0  0  0  0  0  0  0  0  0
   -5.3903    6.9031    2.7417 C   0  0  0  0  0  0  0  0  0  0  0  0
   -6.6024    6.6789    3.4495 N   0  0  0  0  0  0  0  0  0  0  0  0
   -6.5689    6.4486    4.8467 C   0  0  0  0  0  0  0  0  0  0  0  0
   -5.6959    7.1785    5.6772 C   0  0  0  0  0  0  0  0  0  0  0  0
   -5.6578    6.9446    7.0460 C   0  0  0  0  0  0  0  0  0  0  0  0
   -6.4871    5.9764    7.6507 C   0  0  0  0  0  0  0  0  0  0  0  0
   -6.4061    5.8362    9.1152 C   0  0  0  0  0  0  0  0  0  0  0  0
   -6.0082    6.8167    9.8956 N   0  0  0  0  0  0  0  0  0  0  0  0
   -6.0507    6.3422   11.1768 C   0  0  0  0  0  0  0  0  0  0  0  0
   -5.7333    7.0542   12.3717 C   0  0  0  0  0  0  0  0  0  0  0  0
   -5.3090    8.4053   12.3788 C   0  0  0  0  0  0  0  0  0  0  0  0
   -5.0472    9.0464   13.5750 C   0  0  0  0  0  0  0  0  0  0  0  0
   -5.2043    8.3622   14.8066 C   0  0  0  0  0  0  0  0  0  0  0  0
   -5.6123    7.0439   14.8254 C   0  0  0  0  0  0  0  0  0  0  0  0
   -5.8806    6.3506   13.6119 C   0  0  0  0  0  0  0  0  0  0  0  0
   -6.2769    4.9848   13.6004 C   0  0  0  0  0  0  0  0  0  0  0  0
   -6.6538    4.0576   14.7067 C   0  0  0  0  0  0  0  0  0  0  0  0
   -5.9303    2.9030   14.6469 C   0  0  0  0  0  0  0  0  0  0  0  0
   -6.5406    2.0264   13.6219 C   0  0  0  0  0  0  0  0  0  0  0  0
   -6.8031    2.7734   12.5008 C   0  0  0  0  0  0  0  0  0  0  0  0
   -6.5476    4.2464   12.4104 C   0  0  0  0  0  0  0  0  0  0  0  0
   -6.4785    4.9980   11.1975 C   0  0  0  0  0  0  0  0  0  0  0  0
   -6.7162    4.6861    9.8541 N   0  0  0  0  0  0  0  0  0  0  0  0
   -7.1220    3.4206    9.3334 C   0  0  0  0  0  0  0  0  0  0  0  0
   -8.4533    3.0027    9.4666 C   0  0  0  0  0  0  0  0  0  0  0  0
   -8.8498    1.7657    8.9593 C   0  0  0  0  0  0  0  0  0  0  0  0
   -7.9193    0.9454    8.3090 C   0  0  0  0  0  0  0  0  0  0  0  0
   -8.3631   -0.3676    7.7079 C   0  0  1  0  0  0  0  0  0  0  0  0
   -9.3770   -0.9130    8.4004 F   0  0  0  0  0  0  0  0  0  0  0  0
   -8.7912   -0.2067    6.4420 F   0  0  0  0  0  0  0  0  0  0  0  0
   -7.3622   -1.2630    7.6751 F   0  0  0  0  0  0  0  0  0  0  0  0
   -6.5899    1.3625    8.1767 C   0  0  0  0  0  0  0  0  0  0  0  0
   -6.1907    2.5966    8.6907 C   0  0  0  0  0  0  0  0  0  0  0  0
   -7.3694    5.2623    6.8175 C   0  0  0  0  0  0  0  0  0  0  0  0
   -7.4049    5.4876    5.4429 C   0  0  0  0  0  0  0  0  0  0  0  0
   -7.8360    6.6888    2.7533 C   0  0  0  0  0  0  0  0  0  0  0  0
   -7.9501    6.0980    1.4796 C   0  0  0  0  0  0  0  0  0  0  0  0
   -9.1587    6.1168    0.7948 C   0  0  0  0  0  0  0  0  0  0  0  0
  -10.3079    6.7217    1.3464 C   0  0  0  0  0  0  0  0  0  0  0  0
  -11.5535    6.6476    0.5628 C   0  0  0  0  0  0  0  0  0  0  0  0
  -11.7754    5.6985   -0.3194 N   0  0  0  0  0  0  0  0  0  0  0  0
  -13.0107    5.9382   -0.8534 C   0  0  0  0  0  0  0  0  0  0  0  0
  -13.6931    5.1580   -1.8338 C   0  0  0  0  0  0  0  0  0  0  0  0
  -13.1466    3.9842   -2.4075 C   0  0  0  0  0  0  0  0  0  0  0  0
  -13.8744    3.2566   -3.3301 C   0  0  0  0  0  0  0  0  0  0  0  0
  -15.1755    3.6730   -3.7091 C   0  0  0  0  0  0  0  0  0  0  0  0
  -15.7278    4.8159   -3.1674 C   0  0  0  0  0  0  0  0  0  0  0  0
  -15.0022    5.5942   -2.2223 C   0  0  0  0  0  0  0  0  0  0  0  0
  -15.5362    6.7900   -1.6679 C   0  0  0  0  0  0  0  0  0  0  0  0
  -16.8950    7.3988   -1.7592 C   0  0  0  0  0  0  0  0  0  0  0  0
  -16.8241    8.6985   -2.1666 C   0  0  0  0  0  0  0  0  0  0  0  0
  -16.4625    9.5312   -0.9972 C   0  0  0  0  0  0  0  0  0  0  0  0
  -15.4290    8.9264   -0.3261 C   0  0  0  0  0  0  0  0  0  0  0  0
  -14.8437    7.6070   -0.7258 C   0  0  0  0  0  0  0  0  0  0  0  0
  -13.5805    7.1001   -0.2918 C   0  0  0  0  0  0  0  0  0  0  0  0
  -12.6290    7.5440    0.6335 N   0  0  0  0  0  0  0  0  0  0  0  0
  -12.7073    8.7217    1.4359 C   0  0  0  0  0  0  0  0  0  0  0  0
  -13.5354    8.7453    2.5665 C   0  0  0  0  0  0  0  0  0  0  0  0
  -13.6131    9.8964    3.3500 C   0  0  0  0  0  0  0  0  0  0  0  0
  -12.8568   11.0255    3.0114 C   0  0  0  0  0  0  0  0  0  0  0  0
  -12.8955   12.2513    3.8933 C   0  0  1  0  0  0  0  0  0  0  0  0
  -14.0842   12.3861    4.5047 F   0  0  0  0  0  0  0  0  0  0  0  0
  -11.9596   12.1898    4.8587 F   0  0  0  0  0  0  0  0  0  0  0  0
  -12.6664   13.3748    3.1932 F   0  0  0  0  0  0  0  0  0  0  0  0
  -12.0307   11.0021    1.8818 C   0  0  0  0  0  0  0  0  0  0  0  0
  -11.9581    9.8535    1.0933 C   0  0  0  0  0  0  0  0  0  0  0  0
  -10.1913    7.2958    2.6268 C   0  0  0  0  0  0  0  0  0  0  0  0
   -8.9790    7.2867    3.3136 C   0  0  0  0  0  0  0  0  0  0  0  0
   -5.2949    7.9255    1.7817 C   0  0  0  0  0  0  0  0  0  0  0  0
   -4.1067    8.1374    1.0862 C   0  0  0  0  0  0  0  0  0  0  0  0
   -1.2943    8.8868    0.2121 C   0  0  0  0  0  0  0  0  0  0  0  0
   -0.1094    9.1124   -0.4846 C   0  0  0  0  0  0  0  0  0  0  0  0
    2.8105    9.3208   -1.1189 C   0  0  0  0  0  0  0  0  0  0  0  0
    3.4737   10.1230   -2.0689 C   0  0  0  0  0  0  0  0  0  0  0  0
    4.3124   11.1538   -1.6653 C   0  0  0  0  0  0  0  0  0  0  0  0
    4.5278   11.4360   -0.2994 C   0  0  0  0  0  0  0  0  0  0  0  0
    5.3986   12.5794    0.0251 C   0  0  0  0  0  0  0  0  0  0  0  0
    5.5785   13.5843   -0.8048 N   0  0  0  0  0  0  0  0  0  0  0  0
    6.4379   14.4510   -0.1913 C   0  0  0  0  0  0  0  0  0  0  0  0
    6.9260   15.6903   -0.7034 C   0  0  0  0  0  0  0  0  0  0  0  0
    6.5512   16.2065   -1.9673 C   0  0  0  0  0  0  0  0  0  0  0  0
    7.0716   17.4084   -2.4096 C   0  0  0  0  0  0  0  0  0  0  0  0
    7.9838   18.1349   -1.6048 C   0  0  0  0  0  0  0  0  0  0  0  0
    8.3575   17.6542   -0.3655 C   0  0  0  0  0  0  0  0  0  0  0  0
    7.8416   16.4211    0.1206 C   0  0  0  0  0  0  0  0  0  0  0  0
    8.2156   15.9072    1.3975 C   0  0  0  0  0  0  0  0  0  0  0  0
    9.3093   16.3537    2.3095 C   0  0  0  0  0  0  0  0  0  0  0  0
    8.8795   16.3151    3.6008 C   0  0  0  0  0  0  0  0  0  0  0  0
    8.9684   14.9138    4.0990 C   0  0  0  0  0  0  0  0  0  0  0  0
    8.2841   14.1342    3.2103 C   0  0  0  0  0  0  0  0  0  0  0  0
    7.7441   14.6625    1.9120 C   0  0  0  0  0  0  0  0  0  0  0  0
    6.8238   13.9619    1.0739 C   0  0  0  0  0  0  0  0  0  0  0  0
    6.1365   12.7487    1.2031 N   0  0  0  0  0  0  0  0  0  0  0  0
    6.2137   11.8369    2.2990 C   0  0  0  0  0  0  0  0  0  0  0  0
    5.5531   12.1280    3.5004 C   0  0  0  0  0  0  0  0  0  0  0  0
    5.6274   11.2366    4.5698 C   0  0  0  0  0  0  0  0  0  0  0  0
    6.3552   10.0468    4.4400 C   0  0  0  0  0  0  0  0  0  0  0  0
    6.3839    9.0547    5.5787 C   0  0  1  0  0  0  0  0  0  0  0  0
    6.3087    9.6666    6.7723 F   0  0  0  0  0  0  0  0  0  0  0  0
    5.3468    8.1989    5.5085 F   0  0  0  0  0  0  0  0  0  0  0  0
    7.5058    8.3161    5.5679 F   0  0  0  0  0  0  0  0  0  0  0  0
    7.0163    9.7573    3.2410 C   0  0  0  0  0  0  0  0  0  0  0  0
    6.9484   10.6523    2.1726 C   0  0  0  0  0  0  0  0  0  0  0  0
    3.8466   10.6440    0.6444 C   0  0  0  0  0  0  0  0  0  0  0  0
    3.0105    9.6036    0.2440 C   0  0  0  0  0  0  0  0  0  0  0  0
    3.6278    7.0237   -2.8186 C   0  0  0  0  0  0  0  0  0  0  0  0
    3.9689    6.2121   -3.8982 C   0  0  0  0  0  0  0  0  0  0  0  0
    2.3115    4.1062   -6.4673 N   0  0  0  0  0  0  0  0  0  0  0  0
    2.8821    3.4285   -7.5069 C   0  0  0  0  0  0  0  0  0  0  0  0
    2.2562    2.4722   -8.3613 C   0  0  0  0  0  0  0  0  0  0  0  0
    0.9031    2.0795   -8.2226 C   0  0  0  0  0  0  0  0  0  0  0  0
    0.3541    1.1569   -9.0935 C   0  0  0  0  0  0  0  0  0  0  0  0
    1.1378    0.5960  -10.1322 C   0  0  0  0  0  0  0  0  0  0  0  0
    2.4616    0.9587  -10.2816 C   0  0  0  0  0  0  0  0  0  0  0  0
    3.0585    1.9052   -9.4035 C   0  0  0  0  0  0  0  0  0  0  0  0
    4.4239    2.2937   -9.5414 C   0  0  0  0  0  0  0  0  0  0  0  0
    5.3700    2.0318  -10.6656 C   0  0  0  0  0  0  0  0  0  0  0  0
    6.6053    1.7399  -10.1731 C   0  0  0  0  0  0  0  0  0  0  0  0
    7.2979    3.0109   -9.8202 C   0  0  0  0  0  0  0  0  0  0  0  0
    6.4609    3.7008   -8.9899 C   0  0  0  0  0  0  0  0  0  0  0  0
    5.0548    3.2588   -8.7007 C   0  0  0  0  0  0  0  0  0  0  0  0
    4.2336    3.7994   -7.6646 C   0  0  0  0  0  0  0  0  0  0  0  0
    5.7953    6.7856   -6.7656 C   0  0  0  0  0  0  0  0  0  0  0  0
    6.9812    7.4754   -6.5082 C   0  0  0  0  0  0  0  0  0  0  0  0
    8.7722    4.9601   -5.0515 H   0  0  0  0  0  0  0  0  0  0  0  0
    6.6434    3.7349   -5.4961 H   0  0  0  0  0  0  0  0  0  0  0  0
    0.8937    5.8289   -5.2874 H   0  0  0  0  0  0  0  0  0  0  0  0
    0.2800    7.3006   -3.3906 H   0  0  0  0  0  0  0  0  0  0  0  0
    0.9952    5.8975   -0.7028 H   0  0  0  0  0  0  0  0  0  0  0  0
   -1.1209    5.5012    0.4917 H   0  0  0  0  0  0  0  0  0  0  0  0
   -2.1994    5.7165    2.5243 H   0  0  0  0  0  0  0  0  0  0  0  0
   -4.3082    5.3098    3.7269 H   0  0  0  0  0  0  0  0  0  0  0  0
   -5.0461    7.9383    5.2395 H   0  0  0  0  0  0  0  0  0  0  0  0
   -4.9909    7.5267    7.6833 H   0  0  0  0  0  0  0  0  0  0  0  0
   -5.2030    8.9210   11.4225 H   0  0  0  0  0  0  0  0  0  0  0  0
   -4.7227   10.0902   13.5751 H   0  0  0  0  0  0  0  0  0  0  0  0
   -5.0027    8.8848   15.7452 H   0  0  0  0  0  0  0  0  0  0  0  0
   -5.7353    6.5057   15.7688 H   0  0  0  0  0  0  0  0  0  0  0  0
   -7.7453    3.8977   14.7263 H   0  0  0  0  0  0  0  0  0  0  0  0
   -4.8298    2.9682   14.5877 H   0  0  0  0  0  0  0  0  0  0  0  0
   -6.5401    0.9309   13.5836 H   0  0  0  0  0  0  0  0  0  0  0  0
   -7.0873    2.2514   11.5856 H   0  0  0  0  0  0  0  0  0  0  0  0
   -9.1711    3.6514    9.9724 H   0  0  0  0  0  0  0  0  0  0  0  0
   -9.8838    1.4347    9.0706 H   0  0  0  0  0  0  0  0  0  0  0  0
   -5.8636    0.7162    7.6809 H   0  0  0  0  0  0  0  0  0  0  0  0
   -5.1547    2.9275    8.5993 H   0  0  0  0  0  0  0  0  0  0  0  0
   -8.0523    4.5233    7.2339 H   0  0  0  0  0  0  0  0  0  0  0  0
   -8.0943    4.9131    4.8220 H   0  0  0  0  0  0  0  0  0  0  0  0
   -7.0799    5.6174    1.0292 H   0  0  0  0  0  0  0  0  0  0  0  0
   -9.2418    5.6416   -0.1835 H   0  0  0  0  0  0  0  0  0  0  0  0
  -12.1478    3.6715   -2.0974 H   0  0  0  0  0  0  0  0  0  0  0  0
  -13.4491    2.3498   -3.7679 H   0  0  0  0  0  0  0  0  0  0  0  0
  -15.7429    3.0825   -4.4329 H   0  0  0  0  0  0  0  0  0  0  0  0
  -16.7294    5.1475   -3.4532 H   0  0  0  0  0  0  0  0  0  0  0  0
  -17.4490    7.2585   -0.8154 H   0  0  0  0  0  0  0  0  0  0  0  0
  -16.2579    8.9379   -3.0835 H   0  0  0  0  0  0  0  0  0  0  0  0
  -16.7213   10.5796   -0.8092 H   0  0  0  0  0  0  0  0  0  0  0  0
  -14.9189    9.4912    0.4560 H   0  0  0  0  0  0  0  0  0  0  0  0
  -14.1183    7.8585    2.8230 H   0  0  0  0  0  0  0  0  0  0  0  0
  -14.2645    9.9195    4.2253 H   0  0  0  0  0  0  0  0  0  0  0  0
  -11.4522   11.8874    1.6122 H   0  0  0  0  0  0  0  0  0  0  0  0
  -11.3229    9.8277    0.2062 H   0  0  0  0  0  0  0  0  0  0  0  0
  -11.0528    7.7513    3.1125 H   0  0  0  0  0  0  0  0  0  0  0  0
   -8.9178    7.7462    4.3015 H   0  0  0  0  0  0  0  0  0  0  0  0
   -6.1641    8.5530    1.5758 H   0  0  0  0  0  0  0  0  0  0  0  0
   -4.0738    8.9253    0.3303 H   0  0  0  0  0  0  0  0  0  0  0  0
   -1.9177    9.7429    0.4796 H   0  0  0  0  0  0  0  0  0  0  0  0
    0.1714   10.1294   -0.7653 H   0  0  0  0  0  0  0  0  0  0  0  0
    3.3210    9.9348   -3.1330 H   0  0  0  0  0  0  0  0  0  0  0  0
    4.8077   11.7807   -2.4080 H   0  0  0  0  0  0  0  0  0  0  0  0
    5.8484   15.6331   -2.5748 H   0  0  0  0  0  0  0  0  0  0  0  0
    6.7797   17.8033   -3.3862 H   0  0  0  0  0  0  0  0  0  0  0  0
    8.3905   19.0821   -1.9682 H   0  0  0  0  0  0  0  0  0  0  0  0
    9.0531   18.2109    0.2677 H   0  0  0  0  0  0  0  0  0  0  0  0
   10.2591   15.8292    2.1040 H   0  0  0  0  0  0  0  0  0  0  0  0
    7.8982   16.7784    3.8036 H   0  0  0  0  0  0  0  0  0  0  0  0
    9.3088   14.5363    5.0690 H   0  0  0  0  0  0  0  0  0  0  0  0
    8.0837   13.0908    3.4602 H   0  0  0  0  0  0  0  0  0  0  0  0
    4.9873   13.0573    3.5902 H   0  0  0  0  0  0  0  0  0  0  0  0
    5.1214   11.4660    5.5092 H   0  0  0  0  0  0  0  0  0  0  0  0
    7.5935    8.8360    3.1464 H   0  0  0  0  0  0  0  0  0  0  0  0
    7.4661   10.4393    1.2357 H   0  0  0  0  0  0  0  0  0  0  0  0
    3.9503   10.8369    1.7109 H   0  0  0  0  0  0  0  0  0  0  0  0
    2.4993    9.0043    0.9991 H   0  0  0  0  0  0  0  0  0  0  0  0
    4.4013    7.3313   -2.1130 H   0  0  0  0  0  0  0  0  0  0  0  0
    5.0059    5.8944   -3.9920 H   0  0  0  0  0  0  0  0  0  0  0  0
    0.3135    2.5228   -7.4179 H   0  0  0  0  0  0  0  0  0  0  0  0
   -0.6912    0.8567   -8.9831 H   0  0  0  0  0  0  0  0  0  0  0  0
    0.6901   -0.1296  -10.8161 H   0  0  0  0  0  0  0  0  0  0  0  0
    3.0779    0.5254  -11.0735 H   0  0  0  0  0  0  0  0  0  0  0  0
    5.3347    2.8288  -11.4292 H   0  0  0  0  0  0  0  0  0  0  0  0
    6.6450    0.9925   -9.3617 H   0  0  0  0  0  0  0  0  0  0  0  0
    8.3405    3.3064   -9.9782 H   0  0  0  0  0  0  0  0  0  0  0  0
    6.8314    4.5917   -8.4798 H   0  0  0  0  0  0  0  0  0  0  0  0
    4.9576    7.2849   -7.2556 H   0  0  0  0  0  0  0  0  0  0  0  0
    7.0792    8.5223   -6.7998 H   0  0  0  0  0  0  0  0  0  0  0  0
  2  1  1  1
  2  3  1  0
  2  4  1  0
  2  5  1  0
  5  6  2  0
  5146  1  0
  6  7  1  0
  6147  1  0
  7  8  2  0
  7148  1  0
  8  9  1  0
  8145  1  0
  9 10  1  0
  9144  1  0
 10 11  1  0
 10130  2  0
 11 12  2  0
 11129  1  0
 12 13  1  0
 12149  1  0
 13 14  2  0
 13150  1  0
 14 15  1  0
 14128  1  0
 15 16  1  0
 15 95  1  0
 16 17  2  0
 16 94  1  0
 17 18  1  0
 17151  1  0
 18 19  2  0
 18152  1  0
 19 20  1  0
 19 93  1  0
 20 21  2  0
 20 92  1  0
 21 22  1  0
 21153  1  0
 22 23  2  0
 22154  1  0
 23 24  1  0
 23 91  1  0
 24 25  1  0
 24 58  1  0
 25 26  2  0
 25 57  1  0
 26 27  1  0
 26155  1  0
 27 28  2  0
 27156  1  0
 28 29  1  0
 28 56  1  0
 29 30  2  0
 29 45  1  0
 30 31  1  0
 31 32  2  0
 31 44  1  0
 32 33  1  0
 32 37  1  0
 33 34  2  0
 33157  1  0
 34 35  1  0
 34158  1  0
 35 36  2  0
 35159  1  0
 36 37  1  0
 36160  1  0
 37 38  2  0
 38 39  1  0
 38 43  1  0
 39 40  2  0
 39161  1  0
 40 41  1  0
 40162  1  0
 41 42  2  0
 41163  1  0
 42 43  1  0
 42164  1  0
 43 44  2  0
 44 45  1  0
 45 46  1  0
 46 47  2  0
 46 55  1  0
 47 48  1  0
 47165  1  0
 48 49  2  0
 48166  1  0
 49 50  1  0
 49 54  1  0
 50 51  1  1
 50 52  1  0
 50 53  1  0
 54 55  2  0
 54167  1  0
 55168  1  0
 56 57  2  0
 56169  1  0
 57170  1  0
 58 59  2  0
 58 90  1  0
 59 60  1  0
 59171  1  0
 60 61  2  0
 60172  1  0
 61 62  1  0
 61 89  1  0
 62 63  2  0
 62 78  1  0
 63 64  1  0
 64 65  2  0
 64 77  1  0
 65 66  1  0
 65 70  1  0
 66 67  2  0
 66173  1  0
 67 68  1  0
 67174  1  0
 68 69  2  0
 68175  1  0
 69 70  1  0
 69176  1  0
 70 71  2  0
 71 72  1  0
 71 76  1  0
 72 73  2  0
 72177  1  0
 73 74  1  0
 73178  1  0
 74 75  2  0
 74179  1  0
 75 76  1  0
 75180  1  0
 76 77  2  0
 77 78  1  0
 78 79  1  0
 79 80  2  0
 79 88  1  0
 80 81  1  0
 80181  1  0
 81 82  2  0
 81182  1  0
 82 83  1  0
 82 87  1  0
 83 84  1  1
 83 85  1  0
 83 86  1  0
 87 88  2  0
 87183  1  0
 88184  1  0
 89 90  2  0
 89185  1  0
 90186  1  0
 91 92  2  0
 91187  1  0
 92188  1  0
 93 94  2  0
 93189  1  0
 94190  1  0
 95 96  2  0
 95127  1  0
 96 97  1  0
 96191  1  0
 97 98  2  0
 97192  1  0
 98 99  1  0
 98126  1  0
 99100  2  0
 99115  1  0
100101  1  0
101102  2  0
101114  1  0
102103  1  0
102107  1  0
103104  2  0
103193  1  0
104105  1  0
104194  1  0
105106  2  0
105195  1  0
106107  1  0
106196  1  0
107108  2  0
108109  1  0
108113  1  0
109110  2  0
109197  1  0
110111  1  0
110198  1  0
111112  2  0
111199  1  0
112113  1  0
112200  1  0
113114  2  0
114115  1  0
115116  1  0
116117  2  0
116125  1  0
117118  1  0
117201  1  0
118119  2  0
118202  1  0
119120  1  0
119124  1  0
120121  1  1
120122  1  0
120123  1  0
124125  2  0
124203  1  0
125204  1  0
126127  2  0
126205  1  0
127206  1  0
128129  2  0
128207  1  0
129208  1  0
130131  1  0
131132  2  0
131144  1  0
132133  1  0
132137  1  0
133134  2  0
133209  1  0
134135  1  0
134210  1  0
135136  2  0
135211  1  0
136137  1  0
136212  1  0
137138  2  0
138139  1  0
138143  1  0
139140  2  0
139213  1  0
140141  1  0
140214  1  0
141142  2  0
141215  1  0
142143  1  0
142216  1  0
143144  2  0
145146  2  0
145217  1  0
146218  1  0
M  END

