
     RDKit          3D

 36 38  0  0  0  0  0  0  0  0999 V2000
    0.7540   -0.9544    0.5276 O   0  0  0  0  0  0  0  0  0  0  0  0
    1.9858   -0.3091    0.0840 S   0  0  1  0  0  0  0  0  0  0  0  0
    2.0233    1.0116   -0.5450 O   0  0  0  0  0  0  0  0  0  0  0  0
    2.9588   -0.2096    1.4255 N   0  0  0  0  0  0  0  0  0  0  0  0
    4.2233    0.5019    1.3952 C   0  0  0  0  0  0  0  0  0  0  0  0
    4.9849    0.1910    2.6563 C   0  0  0  0  0  0  0  0  0  0  0  0
    4.7149   -0.8183    3.4145 N   0  0  0  0  0  0  0  0  0  0  0  0
    5.5859   -0.9018    4.4870 C   0  0  0  0  0  0  0  0  0  0  0  0
    5.5566   -1.8814    5.4932 C   0  0  0  0  0  0  0  0  0  0  0  0
    6.5062   -1.8325    6.5094 C   0  0  0  0  0  0  0  0  0  0  0  0
    7.4845   -0.8202    6.5371 C   0  0  0  0  0  0  0  0  0  0  0  0
    7.5316    0.1627    5.5490 C   0  0  0  0  0  0  0  0  0  0  0  0
    6.5767    0.1132    4.5271 C   0  0  0  0  0  0  0  0  0  0  0  0
    6.3568    1.1866    3.1594 S   0  0  0  0  0  0  0  0  0  0  0  0
    2.8086   -1.4505   -1.0481 C   0  0  0  0  0  0  0  0  0  0  0  0
    2.5574   -2.8207   -0.9424 C   0  0  0  0  0  0  0  0  0  0  0  0
    3.2351   -3.6927   -1.7983 C   0  0  0  0  0  0  0  0  0  0  0  0
    4.1518   -3.2016   -2.7298 C   0  0  0  0  0  0  0  0  0  0  0  0
    4.3757   -1.8255   -2.8208 C   0  0  0  0  0  0  0  0  0  0  0  0
    5.2789   -1.4325   -3.7999 O   0  0  0  0  0  0  0  0  0  0  0  0
    5.9950   -0.2898   -3.6891 C   0  0  1  0  0  0  0  0  0  0  0  0
    5.2405    0.8074   -3.8579 F   0  0  0  0  0  0  0  0  0  0  0  0
    6.5927   -0.1809   -2.4935 F   0  0  0  0  0  0  0  0  0  0  0  0
    6.9237   -0.3045   -4.6324 F   0  0  0  0  0  0  0  0  0  0  0  0
    3.6941   -0.9281   -1.9953 C   0  0  0  0  0  0  0  0  0  0  0  0
    2.9252   -1.0099    2.0584 H   0  0  0  0  0  0  0  0  0  0  0  0
    4.0499    1.5861    1.3055 H   0  0  0  0  0  0  0  0  0  0  0  0
    4.8565    0.2093    0.5313 H   0  0  0  0  0  0  0  0  0  0  0  0
    4.7916   -2.6595    5.4588 H   0  0  0  0  0  0  0  0  0  0  0  0
    6.4937   -2.5888    7.2977 H   0  0  0  0  0  0  0  0  0  0  0  0
    8.2194   -0.8021    7.3454 H   0  0  0  0  0  0  0  0  0  0  0  0
    8.2917    0.9463    5.5758 H   0  0  0  0  0  0  0  0  0  0  0  0
    1.8309   -3.1855   -0.2147 H   0  0  0  0  0  0  0  0  0  0  0  0
    3.0498   -4.7677   -1.7397 H   0  0  0  0  0  0  0  0  0  0  0  0
    4.6980   -3.8684   -3.3992 H   0  0  0  0  0  0  0  0  0  0  0  0
    3.8110    0.1507   -2.0876 H   0  0  0  0  0  0  0  0  0  0  0  0
  1  2  2  0
  2  3  2  0
  2  4  1  1
  2 15  1  0
  4  5  1  0
  4 26  1  0
  5  6  1  0
  5 27  1  0
  5 28  1  0
  6  7  2  0
  6 14  1  0
  7  8  1  0
  8  9  2  0
  8 13  1  0
  9 10  1  0
  9 29  1  0
 10 11  2  0
 10 30  1  0
 11 12  1  0
 11 31  1  0
 12 13  2  0
 12 32  1  0
 13 14  1  0
 15 16  2  0
 15 25  1  0
 16 17  1  0
 16 33  1  0
 17 18  2  0
 17 34  1  0
 18 19  1  0
 18 35  1  0
 19 20  1  0
 19 25  2  0
 20 21  1  0
 21 22  1  6
 21 23  1  0
 21 24  1  0
 25 36  1  0
M  END

