
     RDKit          3D

 57 59  0  0  0  0  0  0  0  0999 V2000
    6.5162    3.2558    0.9372 C   0  0  0  0  0  0  0  0  0  0  0  0
    5.9101    1.9969    1.1414 O   0  0  0  0  0  0  0  0  0  0  0  0
    4.7470    1.6892    0.5039 C   0  0  0  0  0  0  0  0  0  0  0  0
    4.1939    2.5210   -0.4876 C   0  0  0  0  0  0  0  0  0  0  0  0
    3.0274    2.1511   -1.1576 C   0  0  0  0  0  0  0  0  0  0  0  0
    2.3936    0.9471   -0.8459 C   0  0  0  0  0  0  0  0  0  0  0  0
    2.9365    0.1351    0.1491 C   0  0  0  0  0  0  0  0  0  0  0  0
    4.1077    0.4725    0.8481 C   0  0  0  0  0  0  0  0  0  0  0  0
    4.5341   -0.4947    1.9592 C   0  0  2  0  0  0  0  0  0  0  0  0
    5.5683   -0.0575    3.0123 C   0  0  0  0  0  0  0  0  0  0  0  0
    5.5362   -1.0512    4.1879 C   0  0  0  0  0  0  0  0  0  0  0  0
    5.6948   -2.5240    3.7521 C   0  0  2  0  0  0  0  0  0  0  0  0
    7.1462   -2.8737    3.3957 C   0  0  0  0  0  0  0  0  0  0  0  0
    4.7113   -2.8342    2.6027 C   0  0  0  0  0  0  0  0  0  0  0  0
    4.8390   -1.8714    1.5046 N   0  0  0  0  0  0  0  0  0  0  0  0
    5.6414   -2.2702    0.4326 C   0  0  0  0  0  0  0  0  0  0  0  0
    5.9357   -3.4499    0.2644 O   0  0  0  0  0  0  0  0  0  0  0  0
    6.0994   -1.2954   -0.4232 N   0  0  0  0  0  0  0  0  0  0  0  0
    6.7312   -1.6629   -1.6952 C   0  0  1  0  0  0  0  0  0  0  0  0
    6.7661   -0.4376   -2.6228 C   0  0  0  0  0  0  0  0  0  0  0  0
    7.7573    0.6432   -2.1608 C   0  0  0  0  0  0  0  0  0  0  0  0
    9.1733    0.0786   -1.9532 C   0  0  2  0  0  0  0  0  0  0  0  0
    9.8522   -0.2028   -3.3039 C   0  0  0  0  0  0  0  0  0  0  0  0
    9.4684    0.2345   -4.3555 O   0  0  0  0  0  0  0  0  0  0  0  0
   10.9762   -0.9536   -3.2568 O   0  0  0  0  0  0  0  0  0  0  0  0
    9.1255   -1.1365   -1.0012 C   0  0  0  0  0  0  0  0  0  0  0  0
    8.1558   -2.2168   -1.4889 C   0  0  0  0  0  0  0  0  0  0  0  0
    7.3860    3.2918    1.6067 H   0  0  0  0  0  0  0  0  0  0  0  0
    5.8323    4.0846    1.1914 H   0  0  0  0  0  0  0  0  0  0  0  0
    6.8630    3.3831   -0.1035 H   0  0  0  0  0  0  0  0  0  0  0  0
    4.6817    3.4597   -0.7481 H   0  0  0  0  0  0  0  0  0  0  0  0
    2.6185    2.8106   -1.9271 H   0  0  0  0  0  0  0  0  0  0  0  0
    1.4813    0.6462   -1.3653 H   0  0  0  0  0  0  0  0  0  0  0  0
    2.4447   -0.8076    0.4038 H   0  0  0  0  0  0  0  0  0  0  0  0
    3.5946   -0.6280    2.5269 H   0  0  0  0  0  0  0  0  0  0  0  0
    5.3388    0.9563    3.3724 H   0  0  0  0  0  0  0  0  0  0  0  0
    6.5675   -0.0081    2.5559 H   0  0  0  0  0  0  0  0  0  0  0  0
    4.5684   -0.9375    4.7101 H   0  0  0  0  0  0  0  0  0  0  0  0
    6.3142   -0.7887    4.9247 H   0  0  0  0  0  0  0  0  0  0  0  0
    5.3995   -3.1622    4.6049 H   0  0  0  0  0  0  0  0  0  0  0  0
    7.5297   -2.2576    2.5676 H   0  0  0  0  0  0  0  0  0  0  0  0
    7.2384   -3.9250    3.0838 H   0  0  0  0  0  0  0  0  0  0  0  0
    7.8076   -2.7117    4.2628 H   0  0  0  0  0  0  0  0  0  0  0  0
    3.6751   -2.7868    2.9830 H   0  0  0  0  0  0  0  0  0  0  0  0
    4.8808   -3.8368    2.1942 H   0  0  0  0  0  0  0  0  0  0  0  0
    5.6613   -0.3842   -0.3798 H   0  0  0  0  0  0  0  0  0  0  0  0
    6.1296   -2.4598   -2.1650 H   0  0  0  0  0  0  0  0  0  0  0  0
    5.7540   -0.0086   -2.7177 H   0  0  0  0  0  0  0  0  0  0  0  0
    7.0550   -0.7752   -3.6304 H   0  0  0  0  0  0  0  0  0  0  0  0
    7.4214    1.0826   -1.2069 H   0  0  0  0  0  0  0  0  0  0  0  0
    7.7915    1.4541   -2.9025 H   0  0  0  0  0  0  0  0  0  0  0  0
    9.8031    0.8618   -1.4886 H   0  0  0  0  0  0  0  0  0  0  0  0
   11.1412   -1.2512   -2.3506 H   0  0  0  0  0  0  0  0  0  0  0  0
    8.7994   -0.7783   -0.0110 H   0  0  0  0  0  0  0  0  0  0  0  0
   10.1294   -1.5682   -0.8283 H   0  0  0  0  0  0  0  0  0  0  0  0
    8.1080   -3.0540   -0.7792 H   0  0  0  0  0  0  0  0  0  0  0  0
    8.5070   -2.6298   -2.4515 H   0  0  0  0  0  0  0  0  0  0  0  0
  1  2  1  0
  1 28  1  0
  1 29  1  0
  1 30  1  0
  2  3  1  0
  3  4  2  0
  3  8  1  0
  4  5  1  0
  4 31  1  0
  5  6  2  0
  5 32  1  0
  6  7  1  0
  6 33  1  0
  7  8  2  0
  7 34  1  0
  8  9  1  0
  9 10  1  0
  9 15  1  0
  9 35  1  1
 10 11  1  0
 10 36  1  0
 10 37  1  0
 11 12  1  0
 11 38  1  0
 11 39  1  0
 12 13  1  0
 12 14  1  0
 12 40  1  1
 13 41  1  0
 13 42  1  0
 13 43  1  0
 14 15  1  0
 14 44  1  0
 14 45  1  0
 15 16  1  0
 16 17  2  0
 16 18  1  0
 18 19  1  0
 18 46  1  0
 19 20  1  0
 19 27  1  0
 19 47  1  6
 20 21  1  0
 20 48  1  0
 20 49  1  0
 21 22  1  0
 21 50  1  0
 21 51  1  0
 22 23  1  0
 22 26  1  0
 22 52  1  1
 23 24  2  0
 23 25  1  0
 25 53  1  0
 26 27  1  0
 26 54  1  0
 26 55  1  0
 27 56  1  0
 27 57  1  0
M  END

