
     RDKit          3D

 44 45  0  0  0  0  0  0  0  0999 V2000
    1.0275   -0.0084    0.6362 C   0  0  0  0  0  0  0  0  0  0  0  0
    2.5447   -0.1139    0.4740 C   0  0  0  0  0  0  0  0  0  0  0  0
    2.9902   -0.3602   -0.9717 C   0  0  0  0  0  0  0  0  0  0  0  0
    4.5116   -0.4475   -1.1323 C   0  0  0  0  0  0  0  0  0  0  0  0
    5.0148   -0.8772   -2.5268 C   0  0  1  0  0  0  0  0  0  0  0  0
    4.5473    0.0619   -3.6675 C   0  0  0  0  0  0  0  0  0  0  0  0
    4.9877    1.4934   -3.5561 C   0  0  0  0  0  0  0  0  0  0  0  0
    4.1717    2.4243   -3.0857 N   0  0  0  0  0  0  0  0  0  0  0  0
    4.8338    3.6061   -3.1102 N   0  0  0  0  0  0  0  0  0  0  0  0
    4.1930    4.8171   -2.6560 C   0  0  0  0  0  0  0  0  0  0  0  0
    6.1013    3.4609   -3.6044 C   0  0  0  0  0  0  0  0  0  0  0  0
    7.1328    4.3935   -3.8235 C   0  0  0  0  0  0  0  0  0  0  0  0
    8.3185    3.9085   -4.3617 C   0  0  0  0  0  0  0  0  0  0  0  0
    8.4875    2.5371   -4.6750 C   0  0  0  0  0  0  0  0  0  0  0  0
    7.4686    1.6187   -4.4550 C   0  0  0  0  0  0  0  0  0  0  0  0
    6.2530    2.0819   -3.9107 C   0  0  0  0  0  0  0  0  0  0  0  0
    6.4674   -1.0561   -2.5946 N   0  0  0  0  0  0  0  0  0  0  0  0
    7.0130   -2.2442   -1.9541 C   0  0  0  0  0  0  0  0  0  0  0  0
    8.5205   -2.3433   -2.1665 C   0  0  0  0  0  0  0  0  0  0  0  0
    0.7420    0.1710    1.6853 H   0  0  0  0  0  0  0  0  0  0  0  0
    0.5241   -0.9339    0.3087 H   0  0  0  0  0  0  0  0  0  0  0  0
    0.6172    0.8187    0.0328 H   0  0  0  0  0  0  0  0  0  0  0  0
    2.9291   -0.9254    1.1190 H   0  0  0  0  0  0  0  0  0  0  0  0
    3.0200    0.8128    0.8444 H   0  0  0  0  0  0  0  0  0  0  0  0
    2.5989    0.4520   -1.6073 H   0  0  0  0  0  0  0  0  0  0  0  0
    2.5256   -1.2956   -1.3385 H   0  0  0  0  0  0  0  0  0  0  0  0
    4.9074   -1.1644   -0.3914 H   0  0  0  0  0  0  0  0  0  0  0  0
    4.9588    0.5317   -0.8808 H   0  0  0  0  0  0  0  0  0  0  0  0
    4.5742   -1.8659   -2.7532 H   0  0  0  0  0  0  0  0  0  0  0  0
    3.4488    0.0507   -3.7198 H   0  0  0  0  0  0  0  0  0  0  0  0
    4.9260   -0.3622   -4.6107 H   0  0  0  0  0  0  0  0  0  0  0  0
    3.1578    4.5655   -2.3958 H   0  0  0  0  0  0  0  0  0  0  0  0
    4.1888    5.5850   -3.4474 H   0  0  0  0  0  0  0  0  0  0  0  0
    4.6971    5.2315   -1.7662 H   0  0  0  0  0  0  0  0  0  0  0  0
    7.0110    5.4518   -3.5836 H   0  0  0  0  0  0  0  0  0  0  0  0
    9.1432    4.6017   -4.5474 H   0  0  0  0  0  0  0  0  0  0  0  0
    9.4388    2.2017   -5.0953 H   0  0  0  0  0  0  0  0  0  0  0  0
    7.6011    0.5577   -4.6762 H   0  0  0  0  0  0  0  0  0  0  0  0
    6.9376   -0.2216   -2.2420 H   0  0  0  0  0  0  0  0  0  0  0  0
    6.5212   -3.1262   -2.4025 H   0  0  0  0  0  0  0  0  0  0  0  0
    6.7990   -2.3020   -0.8633 H   0  0  0  0  0  0  0  0  0  0  0  0
    8.7633   -2.3552   -3.2406 H   0  0  0  0  0  0  0  0  0  0  0  0
    8.9252   -3.2577   -1.7045 H   0  0  0  0  0  0  0  0  0  0  0  0
    9.0437   -1.4841   -1.7130 H   0  0  0  0  0  0  0  0  0  0  0  0
  1  2  1  0
  1 20  1  0
  1 21  1  0
  1 22  1  0
  2  3  1  0
  2 23  1  0
  2 24  1  0
  3  4  1  0
  3 25  1  0
  3 26  1  0
  4  5  1  0
  4 27  1  0
  4 28  1  0
  5  6  1  0
  5 17  1  0
  5 29  1  6
  6  7  1  0
  6 30  1  0
  6 31  1  0
  7  8  2  0
  7 16  1  0
  8  9  1  0
  9 10  1  0
  9 11  1  0
 10 32  1  0
 10 33  1  0
 10 34  1  0
 11 12  1  0
 11 16  2  0
 12 13  2  0
 12 35  1  0
 13 14  1  0
 13 36  1  0
 14 15  2  0
 14 37  1  0
 15 16  1  0
 15 38  1  0
 17 18  1  0
 17 39  1  0
 18 19  1  0
 18 40  1  0
 18 41  1  0
 19 42  1  0
 19 43  1  0
 19 44  1  0
M  END

