
     RDKit          3D

 48 50  0  0  0  0  0  0  0  0999 V2000
   10.4385    2.6634   -1.6839 C   0  0  0  0  0  0  0  0  0  0  0  0
    9.4945    1.5977   -1.5930 O   0  0  0  0  0  0  0  0  0  0  0  0
    8.2434    1.9392   -1.2341 C   0  0  0  0  0  0  0  0  0  0  0  0
    7.9111    3.0775   -0.9962 O   0  0  0  0  0  0  0  0  0  0  0  0
    7.3244    0.7611   -1.1648 C   0  0  0  0  0  0  0  0  0  0  0  0
    5.9880    0.9917   -0.7980 C   0  0  0  0  0  0  0  0  0  0  0  0
    5.0938   -0.0758   -0.7200 C   0  0  0  0  0  0  0  0  0  0  0  0
    5.5210   -1.3744   -1.0053 C   0  0  0  0  0  0  0  0  0  0  0  0
    6.8571   -1.6139   -1.3733 C   0  0  0  0  0  0  0  0  0  0  0  0
    7.3330   -2.9632   -1.6774 C   0  0  0  0  0  0  0  0  0  0  0  0
    8.5274   -3.3402   -2.0239 N   0  0  0  0  0  0  0  0  0  0  0  0
    8.4429   -4.7099   -2.1995 C   0  0  0  0  0  0  0  0  0  0  0  0
    9.6347   -5.5212   -2.5819 C   0  0  0  0  0  0  0  0  0  0  0  0
   10.4701   -5.6709   -1.4407 O   0  0  0  0  0  0  0  0  0  0  0  0
   11.6659   -6.3006   -1.5635 C   0  0  0  0  0  0  0  0  0  0  0  0
   12.1253   -6.9222   -2.7314 C   0  0  0  0  0  0  0  0  0  0  0  0
   13.3582   -7.5843   -2.7445 C   0  0  0  0  0  0  0  0  0  0  0  0
   14.1595   -7.6355   -1.6003 C   0  0  0  0  0  0  0  0  0  0  0  0
   15.4657   -8.3684   -1.6039 C   0  0  0  0  0  0  0  0  0  0  0  0
   15.3077  -10.0810   -0.9731 Cl  0  0  0  0  0  0  0  0  0  0  0  0
   13.6998   -6.9980   -0.4349 C   0  0  0  0  0  0  0  0  0  0  0  0
   12.4785   -6.3296   -0.3990 C   0  0  0  0  0  0  0  0  0  0  0  0
   12.0666   -5.7728    0.7748 O   0  0  0  0  0  0  0  0  0  0  0  0
   11.8976   -4.3606    0.8126 C   0  0  0  0  0  0  0  0  0  0  0  0
    7.1609   -5.1172   -1.9382 C   0  0  0  0  0  0  0  0  0  0  0  0
    6.4453   -6.4181   -1.9343 C   0  0  0  0  0  0  0  0  0  0  0  0
    6.4493   -3.9978   -1.6096 O   0  0  0  0  0  0  0  0  0  0  0  0
    7.7569   -0.5379   -1.4513 C   0  0  0  0  0  0  0  0  0  0  0  0
   11.3889    2.2053   -1.9841 H   0  0  0  0  0  0  0  0  0  0  0  0
   10.5486    3.1724   -0.7143 H   0  0  0  0  0  0  0  0  0  0  0  0
   10.1192    3.4063   -2.4306 H   0  0  0  0  0  0  0  0  0  0  0  0
    5.6756    2.0144   -0.5793 H   0  0  0  0  0  0  0  0  0  0  0  0
    4.0543    0.1022   -0.4345 H   0  0  0  0  0  0  0  0  0  0  0  0
    4.8222   -2.2106   -0.9443 H   0  0  0  0  0  0  0  0  0  0  0  0
   10.1867   -5.0036   -3.3866 H   0  0  0  0  0  0  0  0  0  0  0  0
    9.3240   -6.5111   -2.9609 H   0  0  0  0  0  0  0  0  0  0  0  0
   11.5214   -6.9076   -3.6389 H   0  0  0  0  0  0  0  0  0  0  0  0
   13.6910   -8.0718   -3.6647 H   0  0  0  0  0  0  0  0  0  0  0  0
   16.2096   -7.8862   -0.9569 H   0  0  0  0  0  0  0  0  0  0  0  0
   15.8779   -8.4604   -2.6166 H   0  0  0  0  0  0  0  0  0  0  0  0
   14.2890   -7.0163    0.4850 H   0  0  0  0  0  0  0  0  0  0  0  0
   11.6141   -4.1087    1.8441 H   0  0  0  0  0  0  0  0  0  0  0  0
   11.1088   -4.0196    0.1250 H   0  0  0  0  0  0  0  0  0  0  0  0
   12.8436   -3.8434    0.5678 H   0  0  0  0  0  0  0  0  0  0  0  0
    7.1284   -7.2320   -2.2121 H   0  0  0  0  0  0  0  0  0  0  0  0
    5.6014   -6.4139   -2.6441 H   0  0  0  0  0  0  0  0  0  0  0  0
    6.0365   -6.6416   -0.9349 H   0  0  0  0  0  0  0  0  0  0  0  0
    8.7915   -0.7261   -1.7368 H   0  0  0  0  0  0  0  0  0  0  0  0
  1  2  1  0
  1 29  1  0
  1 30  1  0
  1 31  1  0
  2  3  1  0
  3  4  2  0
  3  5  1  0
  5  6  2  0
  5 28  1  0
  6  7  1  0
  6 32  1  0
  7  8  2  0
  7 33  1  0
  8  9  1  0
  8 34  1  0
  9 10  1  0
  9 28  2  0
 10 11  2  0
 10 27  1  0
 11 12  1  0
 12 13  1  0
 12 25  2  0
 13 14  1  0
 13 35  1  0
 13 36  1  0
 14 15  1  0
 15 16  2  0
 15 22  1  0
 16 17  1  0
 16 37  1  0
 17 18  2  0
 17 38  1  0
 18 19  1  0
 18 21  1  0
 19 20  1  0
 19 39  1  0
 19 40  1  0
 21 22  2  0
 21 41  1  0
 22 23  1  0
 23 24  1  0
 24 42  1  0
 24 43  1  0
 24 44  1  0
 25 26  1  0
 25 27  1  0
 26 45  1  0
 26 46  1  0
 26 47  1  0
 28 48  1  0
M  END

