
     RDKit          3D

 48 49  0  0  0  0  0  0  0  0999 V2000
    8.7336   -5.6300   -9.3213 C   0  0  0  0  0  0  0  0  0  0  0  0
    7.3822   -5.9598   -9.5464 O   0  0  0  0  0  0  0  0  0  0  0  0
    6.5121   -5.9505   -8.5039 C   0  0  0  0  0  0  0  0  0  0  0  0
    5.1796   -6.2777   -8.8049 C   0  0  0  0  0  0  0  0  0  0  0  0
    4.2182   -6.2932   -7.7974 C   0  0  0  0  0  0  0  0  0  0  0  0
    4.5487   -5.9845   -6.4680 C   0  0  0  0  0  0  0  0  0  0  0  0
    3.5090   -6.0182   -5.3635 C   0  0  0  0  0  0  0  0  0  0  0  0
    3.6457   -7.1468   -4.4539 N   0  0  0  0  0  0  0  0  0  0  0  0
    4.3005   -7.0600   -3.2670 C   0  0  0  0  0  0  0  0  0  0  0  0
    4.7708   -6.0304   -2.8083 O   0  0  0  0  0  0  0  0  0  0  0  0
    4.3591   -8.3781   -2.4801 C   0  0  0  0  0  0  0  0  0  0  0  0
    4.2085   -9.5771   -3.2965 N   0  0  0  0  0  0  0  0  0  0  0  0
    5.4551   -9.9374   -3.9614 C   0  0  0  0  0  0  0  0  0  0  0  0
    3.5839  -10.6994   -2.6042 C   0  0  0  0  0  0  0  0  0  0  0  0
    2.0680  -10.5497   -2.5175 C   0  0  0  0  0  0  0  0  0  0  0  0
    1.5760  -11.6776   -1.8203 O   0  0  0  0  0  0  0  0  0  0  0  0
    0.2421  -11.8113   -1.6030 C   0  0  0  0  0  0  0  0  0  0  0  0
   -0.7287  -10.8940   -2.0320 C   0  0  0  0  0  0  0  0  0  0  0  0
   -2.0815  -11.1262   -1.7560 C   0  0  0  0  0  0  0  0  0  0  0  0
   -2.4667  -12.2684   -1.0559 C   0  0  0  0  0  0  0  0  0  0  0  0
   -4.1598  -12.5555   -0.7133 Cl  0  0  0  0  0  0  0  0  0  0  0  0
   -1.5033  -13.1893   -0.6244 C   0  0  0  0  0  0  0  0  0  0  0  0
   -0.1587  -12.9596   -0.8974 C   0  0  0  0  0  0  0  0  0  0  0  0
    5.8810   -5.6558   -6.1807 C   0  0  0  0  0  0  0  0  0  0  0  0
    6.8597   -5.6376   -7.1792 C   0  0  0  0  0  0  0  0  0  0  0  0
    9.2397   -5.7007  -10.2936 H   0  0  0  0  0  0  0  0  0  0  0  0
    9.2177   -6.3298   -8.6158 H   0  0  0  0  0  0  0  0  0  0  0  0
    8.8485   -4.6016   -8.9333 H   0  0  0  0  0  0  0  0  0  0  0  0
    4.9244   -6.5139   -9.8400 H   0  0  0  0  0  0  0  0  0  0  0  0
    3.1844   -6.5464   -8.0527 H   0  0  0  0  0  0  0  0  0  0  0  0
    2.4985   -6.0381   -5.8024 H   0  0  0  0  0  0  0  0  0  0  0  0
    3.5886   -5.1139   -4.7425 H   0  0  0  0  0  0  0  0  0  0  0  0
    3.3946   -8.0865   -4.7505 H   0  0  0  0  0  0  0  0  0  0  0  0
    3.5463   -8.3251   -1.7380 H   0  0  0  0  0  0  0  0  0  0  0  0
    5.3049   -8.3610   -1.9019 H   0  0  0  0  0  0  0  0  0  0  0  0
    5.8380   -9.0781   -4.5328 H   0  0  0  0  0  0  0  0  0  0  0  0
    5.2839  -10.7618   -4.6704 H   0  0  0  0  0  0  0  0  0  0  0  0
    6.2486  -10.2513   -3.2489 H   0  0  0  0  0  0  0  0  0  0  0  0
    3.9914  -10.8544   -1.5826 H   0  0  0  0  0  0  0  0  0  0  0  0
    3.7960  -11.6221   -3.1656 H   0  0  0  0  0  0  0  0  0  0  0  0
    1.6411  -10.4960   -3.5362 H   0  0  0  0  0  0  0  0  0  0  0  0
    1.7868   -9.6194   -1.9893 H   0  0  0  0  0  0  0  0  0  0  0  0
   -0.4508   -9.9946   -2.5815 H   0  0  0  0  0  0  0  0  0  0  0  0
   -2.8379  -10.4132   -2.0886 H   0  0  0  0  0  0  0  0  0  0  0  0
   -1.8124  -14.0810   -0.0765 H   0  0  0  0  0  0  0  0  0  0  0  0
    0.6091  -13.6635   -0.5702 H   0  0  0  0  0  0  0  0  0  0  0  0
    6.1569   -5.4052   -5.1526 H   0  0  0  0  0  0  0  0  0  0  0  0
    7.8837   -5.3718   -6.9154 H   0  0  0  0  0  0  0  0  0  0  0  0
  1  2  1  0
  1 26  1  0
  1 27  1  0
  1 28  1  0
  2  3  1  0
  3  4  2  0
  3 25  1  0
  4  5  1  0
  4 29  1  0
  5  6  2  0
  5 30  1  0
  6  7  1  0
  6 24  1  0
  7  8  1  0
  7 31  1  0
  7 32  1  0
  8  9  1  0
  8 33  1  0
  9 10  2  0
  9 11  1  0
 11 12  1  0
 11 34  1  0
 11 35  1  0
 12 13  1  0
 12 14  1  0
 13 36  1  0
 13 37  1  0
 13 38  1  0
 14 15  1  0
 14 39  1  0
 14 40  1  0
 15 16  1  0
 15 41  1  0
 15 42  1  0
 16 17  1  0
 17 18  2  0
 17 23  1  0
 18 19  1  0
 18 43  1  0
 19 20  2  0
 19 44  1  0
 20 21  1  0
 20 22  1  0
 22 23  2  0
 22 45  1  0
 23 46  1  0
 24 25  2  0
 24 47  1  0
 25 48  1  0
M  END

