
     RDKit          3D

 19 20  0  0  0  0  0  0  0  0999 V2000
    1.0626    0.1998    0.0571 C   0  0  0  0  0  0  0  0  0  0  0  0
    2.5075    0.0766    0.0617 N   0  0  0  0  0  0  0  0  0  0  0  0
    3.2934    1.1573    0.0640 N   0  0  0  0  0  0  0  0  0  0  0  0
    4.5632    0.7664    0.0682 C   0  0  0  0  0  0  0  0  0  0  0  0
    5.6538    1.7869    0.0713 C   0  0  0  0  0  0  0  0  0  0  0  0
    6.8219    1.5155    0.0760 O   0  0  0  0  0  0  0  0  0  0  0  0
    5.2045    3.0572    0.0695 O   0  0  0  0  0  0  0  0  0  0  0  0
    4.6225   -0.6689    0.0690 C   0  0  0  0  0  0  0  0  0  0  0  0
    5.6263   -1.5558    0.0727 N   0  0  0  0  0  0  0  0  0  0  0  0
    5.2431   -2.8152    0.0720 C   0  0  0  0  0  0  0  0  0  0  0  0
    6.5008   -4.0180    0.0757 Cl  0  0  0  0  0  0  0  0  0  0  0  0
    3.9864   -3.3012    0.0677 N   0  0  0  0  0  0  0  0  0  0  0  0
    2.9802   -2.4438    0.0641 C   0  0  0  0  0  0  0  0  0  0  0  0
    3.2606   -1.0681    0.0646 C   0  0  0  0  0  0  0  0  0  0  0  0
    0.8216    1.2693    0.0553 H   0  0  0  0  0  0  0  0  0  0  0  0
    0.6286   -0.2696    0.9539 H   0  0  0  0  0  0  0  0  0  0  0  0
    0.6342   -0.2713   -0.8414 H   0  0  0  0  0  0  0  0  0  0  0  0
    4.2316    3.0442    0.0662 H   0  0  0  0  0  0  0  0  0  0  0  0
    1.9618   -2.8500    0.0608 H   0  0  0  0  0  0  0  0  0  0  0  0
  1  2  1  0
  1 15  1  0
  1 16  1  0
  1 17  1  0
  2  3  1  0
  2 14  1  0
  3  4  2  0
  4  5  1  0
  4  8  1  0
  5  6  2  0
  5  7  1  0
  7 18  1  0
  8  9  1  0
  8 14  2  0
  9 10  2  0
 10 11  1  0
 10 12  1  0
 12 13  2  0
 13 14  1  0
 13 19  1  0
M  END

