
     RDKit          3D

 47 50  0  0  0  0  0  0  0  0999 V2000
    1.8502    1.0943    2.1135 C   0  0  0  0  0  0  0  0  0  0  0  0
    1.8017   -0.0099    1.2374 O   0  0  0  0  0  0  0  0  0  0  0  0
    2.8091   -0.9257    1.2546 C   0  0  0  0  0  0  0  0  0  0  0  0
    3.9525   -0.8172    2.0532 C   0  0  0  0  0  0  0  0  0  0  0  0
    4.9435   -1.8058    2.0121 C   0  0  0  0  0  0  0  0  0  0  0  0
    4.7866   -2.9231    1.1927 C   0  0  0  0  0  0  0  0  0  0  0  0
    3.6302   -3.0535    0.4208 C   0  0  0  0  0  0  0  0  0  0  0  0
    2.6443   -2.0572    0.4095 C   0  0  0  0  0  0  0  0  0  0  0  0
    1.4747   -2.2863   -0.3259 N   0  0  0  0  0  0  0  0  0  0  0  0
    0.8862   -1.4549   -1.0856 C   0  0  0  0  0  0  0  0  0  0  0  0
    1.4406   -0.1056   -1.5165 C   0  0  0  0  0  0  0  0  0  0  0  0
    2.6248    0.0562   -1.7289 O   0  0  0  0  0  0  0  0  0  0  0  0
    0.4329    0.9796   -1.7075 C   0  0  0  0  0  0  0  0  0  0  0  0
    0.8801    2.2944   -1.9120 C   0  0  0  0  0  0  0  0  0  0  0  0
   -0.0381    3.3331   -2.0483 C   0  0  0  0  0  0  0  0  0  0  0  0
   -1.4146    3.0681   -1.9794 C   0  0  0  0  0  0  0  0  0  0  0  0
   -1.8678    1.7650   -1.7833 C   0  0  0  0  0  0  0  0  0  0  0  0
   -0.9513    0.7100   -1.6527 C   0  0  0  0  0  0  0  0  0  0  0  0
   -1.4789   -0.6835   -1.4912 C   0  0  0  0  0  0  0  0  0  0  0  0
   -2.6444   -0.8960   -1.2432 O   0  0  0  0  0  0  0  0  0  0  0  0
   -0.4633   -1.8286   -1.7256 C   0  0  2  0  0  0  0  0  0  0  0  0
   -1.0061   -3.1228   -1.4503 N   0  0  0  0  0  0  0  0  0  0  0  0
   -1.4087   -3.4555   -0.0850 C   0  0  0  0  0  0  0  0  0  0  0  0
   -2.3497   -4.6564   -0.1308 C   0  0  0  0  0  0  0  0  0  0  0  0
   -1.7496   -5.7595   -0.7851 O   0  0  0  0  0  0  0  0  0  0  0  0
   -1.3764   -5.4375   -2.1079 C   0  0  0  0  0  0  0  0  0  0  0  0
   -0.4074   -4.2559   -2.1434 C   0  0  0  0  0  0  0  0  0  0  0  0
    0.9281    1.6666    1.9457 H   0  0  0  0  0  0  0  0  0  0  0  0
    2.7183    1.7447    1.9053 H   0  0  0  0  0  0  0  0  0  0  0  0
    1.8885    0.7749    3.1702 H   0  0  0  0  0  0  0  0  0  0  0  0
    4.0854    0.0459    2.7057 H   0  0  0  0  0  0  0  0  0  0  0  0
    5.8350   -1.6961    2.6343 H   0  0  0  0  0  0  0  0  0  0  0  0
    5.5509   -3.7029    1.1655 H   0  0  0  0  0  0  0  0  0  0  0  0
    3.4686   -3.9355   -0.2022 H   0  0  0  0  0  0  0  0  0  0  0  0
    1.9567    2.4716   -1.9551 H   0  0  0  0  0  0  0  0  0  0  0  0
    0.3132    4.3557   -2.2074 H   0  0  0  0  0  0  0  0  0  0  0  0
   -2.1331    3.8851   -2.0827 H   0  0  0  0  0  0  0  0  0  0  0  0
   -2.9333    1.5323   -1.7326 H   0  0  0  0  0  0  0  0  0  0  0  0
   -0.2905   -1.7713   -2.8220 H   0  0  0  0  0  0  0  0  0  0  0  0
   -1.9385   -2.6026    0.3612 H   0  0  0  0  0  0  0  0  0  0  0  0
   -0.5357   -3.6975    0.5512 H   0  0  0  0  0  0  0  0  0  0  0  0
   -3.2853   -4.3647   -0.6501 H   0  0  0  0  0  0  0  0  0  0  0  0
   -2.6002   -4.9886    0.8885 H   0  0  0  0  0  0  0  0  0  0  0  0
   -2.2746   -5.1883   -2.7109 H   0  0  0  0  0  0  0  0  0  0  0  0
   -0.9046   -6.3352   -2.5376 H   0  0  0  0  0  0  0  0  0  0  0  0
   -0.2104   -3.9805   -3.1938 H   0  0  0  0  0  0  0  0  0  0  0  0
    0.5572   -4.5617   -1.6886 H   0  0  0  0  0  0  0  0  0  0  0  0
  1  2  1  0
  1 28  1  0
  1 29  1  0
  1 30  1  0
  2  3  1  0
  3  4  2  0
  3  8  1  0
  4  5  1  0
  4 31  1  0
  5  6  2  0
  5 32  1  0
  6  7  1  0
  6 33  1  0
  7  8  2  0
  7 34  1  0
  8  9  1  0
  9 10  2  0
 10 11  1  0
 10 21  1  0
 11 12  2  0
 11 13  1  0
 13 14  2  0
 13 18  1  0
 14 15  1  0
 14 35  1  0
 15 16  2  0
 15 36  1  0
 16 17  1  0
 16 37  1  0
 17 18  2  0
 17 38  1  0
 18 19  1  0
 19 20  2  0
 19 21  1  0
 21 22  1  0
 21 39  1  6
 22 23  1  0
 22 27  1  0
 23 24  1  0
 23 40  1  0
 23 41  1  0
 24 25  1  0
 24 42  1  0
 24 43  1  0
 25 26  1  0
 26 27  1  0
 26 44  1  0
 26 45  1  0
 27 46  1  0
 27 47  1  0
M  END

