
     RDKit          3D

 63 70  0  0  0  0  0  0  0  0999 V2000
   -1.5180    0.0047    0.4395 C   0  0  0  0  0  0  0  0  0  0  0  0
   -0.9344    1.1226   -0.1641 C   0  0  0  0  0  0  0  0  0  0  0  0
    0.4465    1.1751   -0.3583 C   0  0  0  0  0  0  0  0  0  0  0  0
    1.2805    0.1131    0.0463 C   0  0  0  0  0  0  0  0  0  0  0  0
    2.7494    0.1944   -0.1422 C   0  0  0  0  0  0  0  0  0  0  0  0
    3.4361    1.4214   -0.1030 C   0  0  0  0  0  0  0  0  0  0  0  0
    4.8212    1.5342   -0.2878 C   0  0  0  0  0  0  0  0  0  0  0  0
    5.6558    0.4270   -0.5341 C   0  0  0  0  0  0  0  0  0  0  0  0
    7.1218    0.5529   -0.7186 C   0  0  0  0  0  0  0  0  0  0  0  0
    7.8497    1.5304   -0.0123 C   0  0  0  0  0  0  0  0  0  0  0  0
    9.2267    1.6713   -0.1917 C   0  0  0  0  0  0  0  0  0  0  0  0
    9.9103    0.8370   -1.0812 C   0  0  0  0  0  0  0  0  0  0  0  0
    9.2026   -0.1405   -1.7868 C   0  0  0  0  0  0  0  0  0  0  0  0
    7.8255   -0.2839   -1.6072 C   0  0  0  0  0  0  0  0  0  0  0  0
    4.9593   -0.7872   -0.5714 C   0  0  0  0  0  0  0  0  0  0  0  0
    5.4696   -2.0393   -0.7742 O   0  0  0  0  0  0  0  0  0  0  0  0
    4.3901   -2.8811   -0.7004 C   0  0  0  0  0  0  0  0  0  0  0  0
    4.6267   -4.3097   -0.8827 C   0  0  0  0  0  0  0  0  0  0  0  0
    5.9230   -4.8242   -1.0596 C   0  0  0  0  0  0  0  0  0  0  0  0
    6.1234   -6.1912   -1.2331 C   0  0  0  0  0  0  0  0  0  0  0  0
    5.0401   -7.0922   -1.2292 C   0  0  0  0  0  0  0  0  0  0  0  0
    5.2397   -8.5543   -1.3830 C   0  0  0  0  0  0  0  0  0  0  0  0
    4.4209   -9.4879   -0.7167 C   0  0  0  0  0  0  0  0  0  0  0  0
    4.5825  -10.8745   -0.8565 C   0  0  0  0  0  0  0  0  0  0  0  0
    5.5763  -11.4048   -1.6796 C   0  0  0  0  0  0  0  0  0  0  0  0
    6.4138  -10.5126   -2.3611 C   0  0  0  0  0  0  0  0  0  0  0  0
    6.2343   -9.1217   -2.1968 C   0  0  0  0  0  0  0  0  0  0  0  0
    7.1363   -8.4165   -2.9521 O   0  0  0  0  0  0  0  0  0  0  0  0
    7.9080   -9.3363   -3.6116 C   0  0  0  0  0  0  0  0  0  0  0  0
    8.9471   -9.0377   -4.4871 C   0  0  0  0  0  0  0  0  0  0  0  0
    9.6158  -10.1225   -5.0617 C   0  0  0  0  0  0  0  0  0  0  0  0
    9.2502  -11.4487   -4.7640 C   0  0  0  0  0  0  0  0  0  0  0  0
    8.2040  -11.7267   -3.8825 C   0  0  0  0  0  0  0  0  0  0  0  0
    7.5195  -10.6534   -3.2942 C   0  0  0  0  0  0  0  0  0  0  0  0
    3.7439   -6.5626   -1.0559 C   0  0  0  0  0  0  0  0  0  0  0  0
    3.5365   -5.1988   -0.8851 C   0  0  0  0  0  0  0  0  0  0  0  0
    3.2608   -2.2812   -0.4743 N   0  0  0  0  0  0  0  0  0  0  0  0
    3.5714   -0.9327   -0.3792 C   0  0  0  0  0  0  0  0  0  0  0  0
    0.6754   -1.0119    0.6423 C   0  0  0  0  0  0  0  0  0  0  0  0
   -0.7058   -1.0607    0.8389 C   0  0  0  0  0  0  0  0  0  0  0  0
   -2.5995   -0.0379    0.5923 H   0  0  0  0  0  0  0  0  0  0  0  0
   -1.5590    1.9568   -0.4942 H   0  0  0  0  0  0  0  0  0  0  0  0
    0.8817    2.0449   -0.8551 H   0  0  0  0  0  0  0  0  0  0  0  0
    2.8711    2.3335    0.0976 H   0  0  0  0  0  0  0  0  0  0  0  0
    5.2699    2.5292   -0.2548 H   0  0  0  0  0  0  0  0  0  0  0  0
    7.3336    2.1734    0.7040 H   0  0  0  0  0  0  0  0  0  0  0  0
    9.7702    2.4329    0.3735 H   0  0  0  0  0  0  0  0  0  0  0  0
   10.9888    0.9460   -1.2210 H   0  0  0  0  0  0  0  0  0  0  0  0
    9.7258   -0.7961   -2.4879 H   0  0  0  0  0  0  0  0  0  0  0  0
    7.2857   -1.0445   -2.1729 H   0  0  0  0  0  0  0  0  0  0  0  0
    6.7777   -4.1457   -1.0527 H   0  0  0  0  0  0  0  0  0  0  0  0
    7.1374   -6.5681   -1.3646 H   0  0  0  0  0  0  0  0  0  0  0  0
    3.6450   -9.1140   -0.0456 H   0  0  0  0  0  0  0  0  0  0  0  0
    3.9197  -11.5447   -0.3043 H   0  0  0  0  0  0  0  0  0  0  0  0
    5.6987  -12.4848   -1.7883 H   0  0  0  0  0  0  0  0  0  0  0  0
    9.2181   -8.0043   -4.7096 H   0  0  0  0  0  0  0  0  0  0  0  0
   10.4384   -9.9354   -5.7563 H   0  0  0  0  0  0  0  0  0  0  0  0
    9.7952  -12.2718   -5.2320 H   0  0  0  0  0  0  0  0  0  0  0  0
    7.9258  -12.7589   -3.6569 H   0  0  0  0  0  0  0  0  0  0  0  0
    2.8811   -7.2313   -1.0801 H   0  0  0  0  0  0  0  0  0  0  0  0
    2.5288   -4.7983   -0.7624 H   0  0  0  0  0  0  0  0  0  0  0  0
    1.2972   -1.8522    0.9496 H   0  0  0  0  0  0  0  0  0  0  0  0
   -1.1511   -1.9410    1.3101 H   0  0  0  0  0  0  0  0  0  0  0  0
  1  2  2  0
  1 40  1  0
  1 41  1  0
  2  3  1  0
  2 42  1  0
  3  4  2  0
  3 43  1  0
  4  5  1  0
  4 39  1  0
  5  6  2  0
  5 38  1  0
  6  7  1  0
  6 44  1  0
  7  8  2  0
  7 45  1  0
  8  9  1  0
  8 15  1  0
  9 10  2  0
  9 14  1  0
 10 11  1  0
 10 46  1  0
 11 12  2  0
 11 47  1  0
 12 13  1  0
 12 48  1  0
 13 14  2  0
 13 49  1  0
 14 50  1  0
 15 16  1  0
 15 38  2  0
 16 17  1  0
 17 18  1  0
 17 37  2  0
 18 19  2  0
 18 36  1  0
 19 20  1  0
 19 51  1  0
 20 21  2  0
 20 52  1  0
 21 22  1  0
 21 35  1  0
 22 23  2  0
 22 27  1  0
 23 24  1  0
 23 53  1  0
 24 25  2  0
 24 54  1  0
 25 26  1  0
 25 55  1  0
 26 27  2  0
 26 34  1  0
 27 28  1  0
 28 29  1  0
 29 30  1  0
 29 34  2  0
 30 31  2  0
 30 56  1  0
 31 32  1  0
 31 57  1  0
 32 33  2  0
 32 58  1  0
 33 34  1  0
 33 59  1  0
 35 36  2  0
 35 60  1  0
 36 61  1  0
 37 38  1  0
 39 40  2  0
 39 62  1  0
 40 63  1  0
M  END

