
     RDKit          3D

 41 42  0  0  0  0  0  0  0  0999 V2000
    1.2771   -1.6878    1.8803 C   0  0  0  0  0  0  0  0  0  0  0  0
    1.8129   -0.4913    1.0811 C   0  0  1  0  0  0  0  0  0  0  0  0
    1.8428    0.7642    1.9614 C   0  0  0  0  0  0  0  0  0  0  0  0
    3.2153   -0.8073    0.4586 C   0  0  1  0  0  0  0  0  0  0  0  0
    3.2778   -2.1198   -0.1609 N   0  0  0  0  0  0  0  0  0  0  0  0
    3.0693   -2.4061   -1.4730 C   0  0  0  0  0  0  0  0  0  0  0  0
    2.8931   -3.5427   -1.8757 O   0  0  0  0  0  0  0  0  0  0  0  0
    3.1091   -1.2303   -2.4580 C   0  0  2  0  0  0  0  0  0  0  0  0
    3.9964   -1.6414   -3.6436 C   0  0  0  0  0  0  0  0  0  0  0  0
    3.5189    0.0466   -1.8553 N   0  0  0  0  0  0  0  0  0  0  0  0
    3.6803    1.2007   -2.7460 C   0  0  0  0  0  0  0  0  0  0  0  0
    5.1419    1.5591   -3.0658 C   0  0  0  0  0  0  0  0  0  0  0  0
    5.2341    2.5746   -4.1813 C   0  0  0  0  0  0  0  0  0  0  0  0
    5.8316    3.8313   -3.9975 C   0  0  0  0  0  0  0  0  0  0  0  0
    5.8889    4.7204   -5.0725 C   0  0  0  0  0  0  0  0  0  0  0  0
    5.3440    4.3316   -6.2972 C   0  0  0  0  0  0  0  0  0  0  0  0
    4.7620    3.0627   -6.3837 C   0  0  0  0  0  0  0  0  0  0  0  0
    4.7063    2.2092   -5.3608 N   0  0  0  0  0  0  0  0  0  0  0  0
    3.6392    0.2909   -0.5168 C   0  0  0  0  0  0  0  0  0  0  0  0
    4.0100    1.3764   -0.0878 O   0  0  0  0  0  0  0  0  0  0  0  0
    0.3105   -1.4320    2.3414 H   0  0  0  0  0  0  0  0  0  0  0  0
    1.9668   -1.9596    2.6990 H   0  0  0  0  0  0  0  0  0  0  0  0
    1.1138   -2.5784    1.2552 H   0  0  0  0  0  0  0  0  0  0  0  0
    1.1221   -0.3131    0.2351 H   0  0  0  0  0  0  0  0  0  0  0  0
    2.4933    0.6064    2.8389 H   0  0  0  0  0  0  0  0  0  0  0  0
    0.8309    0.9895    2.3343 H   0  0  0  0  0  0  0  0  0  0  0  0
    2.2261    1.6393    1.4221 H   0  0  0  0  0  0  0  0  0  0  0  0
    3.9574   -0.7766    1.2739 H   0  0  0  0  0  0  0  0  0  0  0  0
    3.2309   -2.9344    0.4446 H   0  0  0  0  0  0  0  0  0  0  0  0
    2.0717   -1.1264   -2.8343 H   0  0  0  0  0  0  0  0  0  0  0  0
    5.0378   -1.7845   -3.3154 H   0  0  0  0  0  0  0  0  0  0  0  0
    3.9802   -0.8948   -4.4492 H   0  0  0  0  0  0  0  0  0  0  0  0
    3.6251   -2.5975   -4.0341 H   0  0  0  0  0  0  0  0  0  0  0  0
    3.2004    2.0669   -2.2668 H   0  0  0  0  0  0  0  0  0  0  0  0
    3.1466    0.9910   -3.6827 H   0  0  0  0  0  0  0  0  0  0  0  0
    5.6746    0.6488   -3.3842 H   0  0  0  0  0  0  0  0  0  0  0  0
    5.6284    1.9322   -2.1540 H   0  0  0  0  0  0  0  0  0  0  0  0
    6.2462    4.1014   -3.0236 H   0  0  0  0  0  0  0  0  0  0  0  0
    6.3518    5.7038   -4.9539 H   0  0  0  0  0  0  0  0  0  0  0  0
    5.3653    4.9921   -7.1669 H   0  0  0  0  0  0  0  0  0  0  0  0
    4.3210    2.7220   -7.3284 H   0  0  0  0  0  0  0  0  0  0  0  0
  1  2  1  0
  1 21  1  0
  1 22  1  0
  1 23  1  0
  2  3  1  0
  2  4  1  0
  2 24  1  6
  3 25  1  0
  3 26  1  0
  3 27  1  0
  4  5  1  0
  4 19  1  0
  4 28  1  1
  5  6  1  0
  5 29  1  0
  6  7  2  0
  6  8  1  0
  8  9  1  0
  8 10  1  0
  8 30  1  6
  9 31  1  0
  9 32  1  0
  9 33  1  0
 10 11  1  0
 10 19  1  0
 11 12  1  0
 11 34  1  0
 11 35  1  0
 12 13  1  0
 12 36  1  0
 12 37  1  0
 13 14  2  0
 13 18  1  0
 14 15  1  0
 14 38  1  0
 15 16  2  0
 15 39  1  0
 16 17  1  0
 16 40  1  0
 17 18  2  0
 17 41  1  0
 19 20  2  0
M  END

