
     RDKit          3D

 45 48  0  0  0  0  0  0  0  0999 V2000
    6.8812    2.0009    4.9219 C   0  0  0  0  0  0  0  0  0  0  0  0
    6.7578    1.4772    3.5118 C   0  0  0  0  0  0  0  0  0  0  0  0
    7.8697    1.4641    2.6512 C   0  0  0  0  0  0  0  0  0  0  0  0
    7.7735    0.9789    1.3481 C   0  0  0  0  0  0  0  0  0  0  0  0
    6.5535    0.4773    0.8593 C   0  0  0  0  0  0  0  0  0  0  0  0
    6.4424   -0.0365   -0.5645 C   0  0  0  0  0  0  0  0  0  0  0  0
    7.1202   -1.3325   -0.8108 N   0  0  0  0  0  0  0  0  0  0  0  0
    6.4845   -2.5498   -0.6493 C   0  0  0  0  0  0  0  0  0  0  0  0
    4.7756   -2.4954   -0.1682 S   0  0  0  0  0  0  0  0  0  0  0  0
    4.3918   -4.3018   -0.1607 C   0  0  0  0  0  0  0  0  0  0  0  0
    2.9496   -4.4907    0.2130 C   0  0  0  0  0  0  0  0  0  0  0  0
    1.9651   -4.5497   -0.7859 C   0  0  0  0  0  0  0  0  0  0  0  0
    2.3546   -4.4324   -2.0633 F   0  0  0  0  0  0  0  0  0  0  0  0
    0.6128   -4.7320   -0.5162 C   0  0  0  0  0  0  0  0  0  0  0  0
    0.2084   -4.8542    0.8144 C   0  0  0  0  0  0  0  0  0  0  0  0
    1.1453   -4.7960    1.8479 C   0  0  0  0  0  0  0  0  0  0  0  0
    2.4969   -4.6116    1.5413 C   0  0  0  0  0  0  0  0  0  0  0  0
    3.6455   -4.5400    2.8571 Cl  0  0  0  0  0  0  0  0  0  0  0  0
    7.0360   -3.7064   -0.8391 N   0  0  0  0  0  0  0  0  0  0  0  0
    8.3422   -3.7597   -1.2404 C   0  0  0  0  0  0  0  0  0  0  0  0
    8.8991   -4.9753   -1.4203 N   0  0  0  0  0  0  0  0  0  0  0  0
   10.1589   -4.9973   -1.8185 C   0  0  0  0  0  0  0  0  0  0  0  0
   10.9045   -3.8200   -2.0521 C   0  0  0  0  0  0  0  0  0  0  0  0
   10.3731   -2.6209   -1.8773 N   0  0  0  0  0  0  0  0  0  0  0  0
    9.0981   -2.5823   -1.4713 C   0  0  0  0  0  0  0  0  0  0  0  0
    8.4700   -1.2604   -1.2534 C   0  0  0  0  0  0  0  0  0  0  0  0
    9.0157   -0.1901   -1.4186 O   0  0  0  0  0  0  0  0  0  0  0  0
    5.4412    0.4943    1.7101 C   0  0  0  0  0  0  0  0  0  0  0  0
    5.5428    0.9883    3.0145 C   0  0  0  0  0  0  0  0  0  0  0  0
    7.5578    1.3703    5.5235 H   0  0  0  0  0  0  0  0  0  0  0  0
    5.9070    2.0269    5.4320 H   0  0  0  0  0  0  0  0  0  0  0  0
    7.2986    3.0213    4.9358 H   0  0  0  0  0  0  0  0  0  0  0  0
    8.8295    1.8504    3.0073 H   0  0  0  0  0  0  0  0  0  0  0  0
    8.6468    0.9927    0.6927 H   0  0  0  0  0  0  0  0  0  0  0  0
    6.9170    0.6713   -1.2560 H   0  0  0  0  0  0  0  0  0  0  0  0
    5.3897   -0.1474   -0.8580 H   0  0  0  0  0  0  0  0  0  0  0  0
    5.0683   -4.7807    0.5559 H   0  0  0  0  0  0  0  0  0  0  0  0
    4.6047   -4.6906   -1.1624 H   0  0  0  0  0  0  0  0  0  0  0  0
   -0.0947   -4.7744   -1.3457 H   0  0  0  0  0  0  0  0  0  0  0  0
   -0.8485   -4.9976    1.0502 H   0  0  0  0  0  0  0  0  0  0  0  0
    0.8407   -4.8913    2.8906 H   0  0  0  0  0  0  0  0  0  0  0  0
   10.6233   -5.9801   -1.9675 H   0  0  0  0  0  0  0  0  0  0  0  0
   11.9470   -3.8756   -2.3848 H   0  0  0  0  0  0  0  0  0  0  0  0
    4.4787    0.1185    1.3547 H   0  0  0  0  0  0  0  0  0  0  0  0
    4.6572    0.9916    3.6563 H   0  0  0  0  0  0  0  0  0  0  0  0
  1  2  1  0
  1 30  1  0
  1 31  1  0
  1 32  1  0
  2  3  2  0
  2 29  1  0
  3  4  1  0
  3 33  1  0
  4  5  2  0
  4 34  1  0
  5  6  1  0
  5 28  1  0
  6  7  1  0
  6 35  1  0
  6 36  1  0
  7  8  1  0
  7 26  1  0
  8  9  2  0
  8 19  1  0
  9 10  1  0
 10 11  1  0
 10 37  1  0
 10 38  1  0
 11 12  2  0
 11 17  1  0
 12 13  1  0
 12 14  1  0
 14 15  2  0
 14 39  1  0
 15 16  1  0
 15 40  1  0
 16 17  2  0
 16 41  1  0
 17 18  1  0
 19 20  2  0
 20 21  1  0
 20 25  1  0
 21 22  2  0
 22 23  1  0
 22 42  1  0
 23 24  2  0
 23 43  1  0
 24 25  1  0
 25 26  2  0
 26 27  1  0
 28 29  2  0
 28 44  1  0
 29 45  1  0
M  CHG  2   9   1  27  -1
M  END

