
     RDKit          3D

 81 87  0  0  0  0  0  0  0  0999 V2000
   -1.7550    0.7223    6.9847 C   0  0  0  0  0  0  0  0  0  0  0  0
   -0.7311    0.8880    6.0020 O   0  0  0  0  0  0  0  0  0  0  0  0
    0.3268    0.0582    6.0859 C   0  0  0  0  0  0  0  0  0  0  0  0
    0.4305   -0.7920    6.9387 O   0  0  0  0  0  0  0  0  0  0  0  0
    1.3434    0.3539    4.9948 C   0  0  1  0  0  0  0  0  0  0  0  0
    0.7870    0.7982    4.1570 H   0  0  0  0  0  0  0  0  0  0  0  0
    2.4111    1.3826    5.4690 C   0  0  1  0  0  0  0  0  0  0  0  0
    1.8270    2.7431    5.8576 C   0  0  0  0  0  0  0  0  0  0  0  0
    3.2896    0.7847    6.5775 C   0  0  0  0  0  0  0  0  0  0  0  0
    3.7736   -0.5998    6.2460 C   0  0  0  0  0  0  0  0  0  0  0  0
    3.2013   -1.3715    5.3151 C   0  0  0  0  0  0  0  0  0  0  0  0
    2.0081   -0.9527    4.4852 C   0  0  2  0  0  0  0  0  0  0  0  0
    2.3688   -0.8088    3.0742 N   0  0  0  0  0  0  0  0  0  0  0  0
    2.2287   -1.8102    2.1471 C   0  0  0  0  0  0  0  0  0  0  0  0
    1.6113   -2.9433    2.4603 N   0  0  0  0  0  0  0  0  0  0  0  0
    1.4301   -3.9207    1.5526 C   0  0  0  0  0  0  0  0  0  0  0  0
    0.7393   -5.1497    1.9980 C   0  0  0  0  0  0  0  0  0  0  0  0
   -0.1915   -5.0815    2.9397 N   0  0  0  0  0  0  0  0  0  0  0  0
   -0.6018   -6.3269    3.2363 N   0  0  0  0  0  0  0  0  0  0  0  0
   -1.8346   -6.5698    4.0510 C   0  0  1  0  0  0  0  0  0  0  0  0
   -2.1581   -5.3505    4.9514 C   0  0  0  0  0  0  0  0  0  0  0  0
   -3.4916   -5.0207    5.2364 C   0  0  0  0  0  0  0  0  0  0  0  0
   -3.8041   -4.0261    6.1690 C   0  0  0  0  0  0  0  0  0  0  0  0
   -2.7859   -3.3391    6.8305 C   0  0  0  0  0  0  0  0  0  0  0  0
   -1.4511   -3.6575    6.5567 C   0  0  0  0  0  0  0  0  0  0  0  0
   -1.1436   -4.6606    5.6363 C   0  0  0  0  0  0  0  0  0  0  0  0
   -2.9337   -6.8498    2.9953 C   0  0  0  0  0  0  0  0  0  0  0  0
   -3.3661   -8.1435    2.6726 C   0  0  0  0  0  0  0  0  0  0  0  0
   -4.2889   -8.3518    1.6411 C   0  0  0  0  0  0  0  0  0  0  0  0
   -4.7818   -7.2741    0.9040 C   0  0  0  0  0  0  0  0  0  0  0  0
   -4.3334   -5.9819    1.1967 C   0  0  0  0  0  0  0  0  0  0  0  0
   -3.4161   -5.7739    2.2276 C   0  0  0  0  0  0  0  0  0  0  0  0
   -1.5933   -7.7144    5.0652 C   0  0  0  0  0  0  0  0  0  0  0  0
   -0.3049   -8.0657    5.4915 C   0  0  0  0  0  0  0  0  0  0  0  0
   -0.1140   -9.0189    6.4955 C   0  0  0  0  0  0  0  0  0  0  0  0
   -1.2093   -9.6388    7.0998 C   0  0  0  0  0  0  0  0  0  0  0  0
   -2.4995   -9.2827    6.6979 C   0  0  0  0  0  0  0  0  0  0  0  0
   -2.6877   -8.3259    5.6984 C   0  0  0  0  0  0  0  0  0  0  0  0
    0.0327   -7.2475    2.4263 C   0  0  0  0  0  0  0  0  0  0  0  0
   -0.1568   -8.5668    2.4040 N   0  0  0  0  0  0  0  0  0  0  0  0
    0.6014   -9.2450    1.5570 C   0  0  0  0  0  0  0  0  0  0  0  0
    1.5666   -8.6340    0.7178 C   0  0  0  0  0  0  0  0  0  0  0  0
    2.5157   -9.6467   -0.3437 Cl  0  0  0  0  0  0  0  0  0  0  0  0
    1.7513   -7.2580    0.7303 C   0  0  0  0  0  0  0  0  0  0  0  0
    0.9409   -6.5217    1.6125 C   0  0  0  0  0  0  0  0  0  0  0  0
    1.8959   -3.7548    0.2449 C   0  0  0  0  0  0  0  0  0  0  0  0
    1.6991   -4.7032   -0.6915 F   0  0  0  0  0  0  0  0  0  0  0  0
    2.5734   -2.5885   -0.1251 C   0  0  0  0  0  0  0  0  0  0  0  0
    2.7394   -1.6169    0.8355 C   0  0  0  0  0  0  0  0  0  0  0  0
    3.3910   -0.4715    0.5614 F   0  0  0  0  0  0  0  0  0  0  0  0
   -2.4753    1.5320    6.8145 H   0  0  0  0  0  0  0  0  0  0  0  0
   -1.3390    0.7852    8.0014 H   0  0  0  0  0  0  0  0  0  0  0  0
   -2.2480   -0.2539    6.8656 H   0  0  0  0  0  0  0  0  0  0  0  0
    3.0658    1.5459    4.5922 H   0  0  0  0  0  0  0  0  0  0  0  0
    1.1864    2.6732    6.7506 H   0  0  0  0  0  0  0  0  0  0  0  0
    1.2153    3.1670    5.0458 H   0  0  0  0  0  0  0  0  0  0  0  0
    2.6347    3.4581    6.0829 H   0  0  0  0  0  0  0  0  0  0  0  0
    2.7283    0.7551    7.5315 H   0  0  0  0  0  0  0  0  0  0  0  0
    4.1505    1.4511    6.7623 H   0  0  0  0  0  0  0  0  0  0  0  0
    4.6248   -0.9866    6.8169 H   0  0  0  0  0  0  0  0  0  0  0  0
    3.5928   -2.3727    5.1084 H   0  0  0  0  0  0  0  0  0  0  0  0
    1.2685   -1.7659    4.5099 H   0  0  0  0  0  0  0  0  0  0  0  0
    3.0411   -0.0884    2.8376 H   0  0  0  0  0  0  0  0  0  0  0  0
   -4.3044   -5.5461    4.7344 H   0  0  0  0  0  0  0  0  0  0  0  0
   -4.8522   -3.7937    6.3752 H   0  0  0  0  0  0  0  0  0  0  0  0
   -3.0271   -2.5649    7.5638 H   0  0  0  0  0  0  0  0  0  0  0  0
   -0.6457   -3.1119    7.0532 H   0  0  0  0  0  0  0  0  0  0  0  0
   -0.0975   -4.8983    5.4483 H   0  0  0  0  0  0  0  0  0  0  0  0
   -2.9664   -9.0011    3.2119 H   0  0  0  0  0  0  0  0  0  0  0  0
   -4.6145   -9.3695    1.4101 H   0  0  0  0  0  0  0  0  0  0  0  0
   -5.5026   -7.4389    0.0989 H   0  0  0  0  0  0  0  0  0  0  0  0
   -4.6974   -5.1292    0.6175 H   0  0  0  0  0  0  0  0  0  0  0  0
   -3.0617   -4.7627    2.4368 H   0  0  0  0  0  0  0  0  0  0  0  0
    0.5679   -7.5906    5.0433 H   0  0  0  0  0  0  0  0  0  0  0  0
    0.9024   -9.2764    6.8044 H   0  0  0  0  0  0  0  0  0  0  0  0
   -1.0602  -10.3864    7.8828 H   0  0  0  0  0  0  0  0  0  0  0  0
   -3.3699   -9.7462    7.1694 H   0  0  0  0  0  0  0  0  0  0  0  0
   -3.7045   -8.0458    5.4193 H   0  0  0  0  0  0  0  0  0  0  0  0
    0.4674  -10.3308    1.5125 H   0  0  0  0  0  0  0  0  0  0  0  0
    2.4776   -6.7853    0.0712 H   0  0  0  0  0  0  0  0  0  0  0  0
    2.9457   -2.4515   -1.1413 H   0  0  0  0  0  0  0  0  0  0  0  0
  1  2  1  0
  1 51  1  0
  1 52  1  0
  1 53  1  0
  2  3  1  0
  3  4  2  0
  3  5  1  0
  5  6  1  6
  5  7  1  0
  5 12  1  0
  7  8  1  0
  7  9  1  0
  7 54  1  6
  8 55  1  0
  8 56  1  0
  8 57  1  0
  9 10  1  0
  9 58  1  0
  9 59  1  0
 10 11  2  0
 10 60  1  0
 11 12  1  0
 11 61  1  0
 12 13  1  0
 12 62  1  6
 13 14  1  0
 13 63  1  0
 14 15  2  0
 14 49  1  0
 15 16  1  0
 16 17  1  0
 16 46  2  0
 17 18  2  0
 17 45  1  0
 18 19  1  0
 19 20  1  0
 19 39  1  0
 20 21  1  1
 20 27  1  0
 20 33  1  0
 21 22  2  0
 21 26  1  0
 22 23  1  0
 22 64  1  0
 23 24  2  0
 23 65  1  0
 24 25  1  0
 24 66  1  0
 25 26  2  0
 25 67  1  0
 26 68  1  0
 27 28  2  0
 27 32  1  0
 28 29  1  0
 28 69  1  0
 29 30  2  0
 29 70  1  0
 30 31  1  0
 30 71  1  0
 31 32  2  0
 31 72  1  0
 32 73  1  0
 33 34  2  0
 33 38  1  0
 34 35  1  0
 34 74  1  0
 35 36  2  0
 35 75  1  0
 36 37  1  0
 36 76  1  0
 37 38  2  0
 37 77  1  0
 38 78  1  0
 39 40  1  0
 39 45  2  0
 40 41  2  0
 41 42  1  0
 41 79  1  0
 42 43  1  0
 42 44  2  0
 44 45  1  0
 44 80  1  0
 46 47  1  0
 46 48  1  0
 48 49  2  0
 48 81  1  0
 49 50  1  0
M  END

