
     RDKit          3D

 41 42  0  0  0  0  0  0  0  0999 V2000
    3.1514   -0.8631    1.3300 C   0  0  0  0  0  0  0  0  0  0  0  0
    3.1113    0.0448    0.2498 O   0  0  0  0  0  0  0  0  0  0  0  0
    3.5039   -0.3773   -0.9823 C   0  0  0  0  0  0  0  0  0  0  0  0
    4.0181   -1.6439   -1.2803 C   0  0  0  0  0  0  0  0  0  0  0  0
    4.3941   -1.9946   -2.5819 C   0  0  0  0  0  0  0  0  0  0  0  0
    4.2660   -1.0657   -3.6251 C   0  0  0  0  0  0  0  0  0  0  0  0
    4.6258   -1.3289   -4.9601 N   0  0  0  0  0  0  0  0  0  0  0  0
    5.1201   -2.4934   -5.5057 C   0  0  0  0  0  0  0  0  0  0  0  0
    5.2771   -3.5229   -4.8661 O   0  0  0  0  0  0  0  0  0  0  0  0
    5.4453   -2.4271   -6.9721 C   0  0  0  0  0  0  0  0  0  0  0  0
    5.6716   -1.2415   -7.6891 C   0  0  0  0  0  0  0  0  0  0  0  0
    5.9866   -1.2518   -9.0478 C   0  0  0  0  0  0  0  0  0  0  0  0
    6.0857   -2.4795   -9.7282 C   0  0  0  0  0  0  0  0  0  0  0  0
    6.3932   -2.5832  -11.0934 N   0  0  0  0  0  0  0  0  0  0  0  0
    6.6453   -1.5778  -12.0102 C   0  0  0  0  0  0  0  0  0  0  0  0
    7.0069   -2.0841  -13.3983 C   0  0  0  0  0  0  0  0  0  0  0  0
    6.6148   -0.3935  -11.7400 O   0  0  0  0  0  0  0  0  0  0  0  0
    5.8747   -3.6748   -9.0114 C   0  0  0  0  0  0  0  0  0  0  0  0
    5.5685   -3.6471   -7.6574 C   0  0  0  0  0  0  0  0  0  0  0  0
    3.7555    0.2124   -3.3299 C   0  0  0  0  0  0  0  0  0  0  0  0
    3.3788    0.5521   -2.0380 C   0  0  0  0  0  0  0  0  0  0  0  0
    2.8088    1.7934   -1.8235 O   0  0  0  0  0  0  0  0  0  0  0  0
    3.5144    2.6974   -1.0705 C   0  0  1  0  0  0  0  0  0  0  0  0
    4.5585    3.1871   -1.7880 F   0  0  0  0  0  0  0  0  0  0  0  0
    2.6834    3.7140   -0.8090 F   0  0  0  0  0  0  0  0  0  0  0  0
    2.7656   -0.3238    2.2053 H   0  0  0  0  0  0  0  0  0  0  0  0
    4.1806   -1.2037    1.5428 H   0  0  0  0  0  0  0  0  0  0  0  0
    2.5150   -1.7461    1.1426 H   0  0  0  0  0  0  0  0  0  0  0  0
    4.1272   -2.3892   -0.4921 H   0  0  0  0  0  0  0  0  0  0  0  0
    4.7819   -2.9869   -2.7967 H   0  0  0  0  0  0  0  0  0  0  0  0
    4.4395   -0.5740   -5.6078 H   0  0  0  0  0  0  0  0  0  0  0  0
    5.6382   -0.2699   -7.1883 H   0  0  0  0  0  0  0  0  0  0  0  0
    6.1650   -0.3265   -9.5896 H   0  0  0  0  0  0  0  0  0  0  0  0
    6.4461   -3.5315  -11.4465 H   0  0  0  0  0  0  0  0  0  0  0  0
    6.5185   -3.0367  -13.6545 H   0  0  0  0  0  0  0  0  0  0  0  0
    8.0987   -2.2275  -13.4609 H   0  0  0  0  0  0  0  0  0  0  0  0
    6.7255   -1.3175  -14.1315 H   0  0  0  0  0  0  0  0  0  0  0  0
    5.9564   -4.6362   -9.5277 H   0  0  0  0  0  0  0  0  0  0  0  0
    5.4186   -4.5722   -7.0982 H   0  0  0  0  0  0  0  0  0  0  0  0
    3.6371    0.9721   -4.1059 H   0  0  0  0  0  0  0  0  0  0  0  0
    3.9031    2.2732   -0.1311 H   0  0  0  0  0  0  0  0  0  0  0  0
  1  2  1  0
  1 26  1  0
  1 27  1  0
  1 28  1  0
  2  3  1  0
  3  4  2  0
  3 21  1  0
  4  5  1  0
  4 29  1  0
  5  6  2  0
  5 30  1  0
  6  7  1  0
  6 20  1  0
  7  8  1  0
  7 31  1  0
  8  9  2  0
  8 10  1  0
 10 11  2  0
 10 19  1  0
 11 12  1  0
 11 32  1  0
 12 13  2  0
 12 33  1  0
 13 14  1  0
 13 18  1  0
 14 15  1  0
 14 34  1  0
 15 16  1  0
 15 17  2  0
 16 35  1  0
 16 36  1  0
 16 37  1  0
 18 19  2  0
 18 38  1  0
 19 39  1  0
 20 21  2  0
 20 40  1  0
 21 22  1  0
 22 23  1  0
 23 24  1  0
 23 25  1  0
 23 41  1  1
M  END

