
     RDKit          3D

 82 86  0  0  0  0  0  0  0  0999 V2000
    0.8425   -0.9603    2.3293 C   0  0  0  0  0  0  0  0  0  0  0  0
    2.0823   -0.5899    1.7175 O   0  0  0  0  0  0  0  0  0  0  0  0
    2.0796   -0.4998    0.3765 C   0  0  0  0  0  0  0  0  0  0  0  0
    1.1063   -0.7201   -0.3004 O   0  0  0  0  0  0  0  0  0  0  0  0
    3.4638   -0.1456   -0.1966 C   0  0  1  0  0  0  0  0  0  0  0  0
    3.3306    0.5315   -1.5765 C   0  0  0  0  0  0  0  0  0  0  0  0
    2.8577    1.9847   -1.4602 C   0  0  0  0  0  0  0  0  0  0  0  0
    3.7396    2.7691   -0.4820 C   0  0  0  0  0  0  0  0  0  0  0  0
    3.8314    2.0495    0.8665 C   0  0  0  0  0  0  0  0  0  0  0  0
    4.2737    0.6601    0.7099 N   0  0  0  0  0  0  0  0  0  0  0  0
    5.5242    0.3146    1.1813 C   0  0  0  0  0  0  0  0  0  0  0  0
    6.2930    1.1435    1.6471 O   0  0  0  0  0  0  0  0  0  0  0  0
    5.9465   -1.1344    1.1422 C   0  0  0  0  0  0  0  0  0  0  0  0
    7.2595   -1.4224    0.7336 C   0  0  0  0  0  0  0  0  0  0  0  0
    7.7448   -2.7252    0.7635 C   0  0  0  0  0  0  0  0  0  0  0  0
    6.9350   -3.7816    1.2378 C   0  0  0  0  0  0  0  0  0  0  0  0
    7.4261   -5.1198    1.2794 C   0  0  0  0  0  0  0  0  0  0  0  0
    7.8334   -6.2690    1.3196 C   0  0  0  0  0  0  0  0  0  0  0  0
    8.3158   -7.6053    1.3650 C   0  0  0  0  0  0  0  0  0  0  0  0
    9.6280   -7.9459    0.9717 C   0  0  0  0  0  0  0  0  0  0  0  0
   10.0810   -9.2601    1.0237 C   0  0  0  0  0  0  0  0  0  0  0  0
    9.2417  -10.2987    1.4721 C   0  0  0  0  0  0  0  0  0  0  0  0
    9.6790  -11.7208    1.5454 C   0  0  0  0  0  0  0  0  0  0  0  0
   10.9954  -12.1177    1.1535 C   0  0  0  0  0  0  0  0  0  0  0  0
   11.3851  -13.4401    1.2369 C   0  0  0  0  0  0  0  0  0  0  0  0
   12.7765  -13.8484    0.8370 C   0  0  0  0  0  0  0  0  0  0  0  0
   13.4444  -14.6938    1.4215 O   0  0  0  0  0  0  0  0  0  0  0  0
   13.2760  -13.1787   -0.2375 N   0  0  0  0  0  0  0  0  0  0  0  0
   14.5438  -13.4985   -0.6824 N   0  0  0  0  0  0  0  0  0  0  0  0
   14.8730  -13.1468   -1.9643 C   0  0  0  0  0  0  0  0  0  0  0  0
   14.1523  -12.4387   -2.6450 O   0  0  0  0  0  0  0  0  0  0  0  0
   16.0588  -13.6685   -2.2894 O   0  0  0  0  0  0  0  0  0  0  0  0
   16.7006  -13.3997   -3.5877 C   0  0  1  0  0  0  0  0  0  0  0  0
   16.9664  -11.8987   -3.7317 C   0  0  0  0  0  0  0  0  0  0  0  0
   18.0107  -14.1806   -3.4832 C   0  0  0  0  0  0  0  0  0  0  0  0
   15.8253  -13.9457   -4.7194 C   0  0  0  0  0  0  0  0  0  0  0  0
   10.4450  -14.3985    1.7327 C   0  0  0  0  0  0  0  0  0  0  0  0
   10.6885  -15.7970    1.8860 C   0  0  0  0  0  0  0  0  0  0  0  0
    9.7837  -16.6482    2.3216 N   0  0  0  0  0  0  0  0  0  0  0  0
    8.5560  -16.1762    2.6522 C   0  0  0  0  0  0  0  0  0  0  0  0
    8.1952  -14.8495    2.5598 C   0  0  0  0  0  0  0  0  0  0  0  0
    9.1480  -13.9078    2.0876 C   0  0  0  0  0  0  0  0  0  0  0  0
    8.7995  -12.6012    1.9897 N   0  0  0  0  0  0  0  0  0  0  0  0
    7.9314   -9.9729    1.8675 C   0  0  0  0  0  0  0  0  0  0  0  0
    7.4924   -8.6616    1.8113 C   0  0  0  0  0  0  0  0  0  0  0  0
    6.2424   -8.3800    2.1929 F   0  0  0  0  0  0  0  0  0  0  0  0
    5.6282   -3.4837    1.6805 C   0  0  0  0  0  0  0  0  0  0  0  0
    5.1422   -2.1790    1.6285 C   0  0  0  0  0  0  0  0  0  0  0  0
    1.0276   -0.9709    3.4100 H   0  0  0  0  0  0  0  0  0  0  0  0
    0.5193   -1.9537    1.9838 H   0  0  0  0  0  0  0  0  0  0  0  0
    0.0563   -0.2320    2.0814 H   0  0  0  0  0  0  0  0  0  0  0  0
    3.9634   -1.1149   -0.3400 H   0  0  0  0  0  0  0  0  0  0  0  0
    2.6389   -0.0592   -2.1938 H   0  0  0  0  0  0  0  0  0  0  0  0
    4.3221    0.4988   -2.0585 H   0  0  0  0  0  0  0  0  0  0  0  0
    1.8102    1.9989   -1.1096 H   0  0  0  0  0  0  0  0  0  0  0  0
    2.8575    2.4605   -2.4544 H   0  0  0  0  0  0  0  0  0  0  0  0
    3.3441    3.7867   -0.3269 H   0  0  0  0  0  0  0  0  0  0  0  0
    4.7570    2.8803   -0.8960 H   0  0  0  0  0  0  0  0  0  0  0  0
    2.8423    2.0430    1.3606 H   0  0  0  0  0  0  0  0  0  0  0  0
    4.5449    2.5432    1.5361 H   0  0  0  0  0  0  0  0  0  0  0  0
    7.8995   -0.6033    0.3997 H   0  0  0  0  0  0  0  0  0  0  0  0
    8.7618   -2.9410    0.4300 H   0  0  0  0  0  0  0  0  0  0  0  0
   10.2902   -7.1518    0.6225 H   0  0  0  0  0  0  0  0  0  0  0  0
   11.1047   -9.4634    0.7089 H   0  0  0  0  0  0  0  0  0  0  0  0
   11.7106  -11.3707    0.8120 H   0  0  0  0  0  0  0  0  0  0  0  0
   12.7413  -12.6182   -0.8965 H   0  0  0  0  0  0  0  0  0  0  0  0
   14.9977  -14.2385   -0.1523 H   0  0  0  0  0  0  0  0  0  0  0  0
   17.5583  -11.5296   -2.8797 H   0  0  0  0  0  0  0  0  0  0  0  0
   16.0275  -11.3325   -3.7846 H   0  0  0  0  0  0  0  0  0  0  0  0
   17.5415  -11.7127   -4.6520 H   0  0  0  0  0  0  0  0  0  0  0  0
   18.6139  -13.8158   -2.6383 H   0  0  0  0  0  0  0  0  0  0  0  0
   18.5965  -14.0631   -4.4073 H   0  0  0  0  0  0  0  0  0  0  0  0
   17.8128  -15.2521   -3.3294 H   0  0  0  0  0  0  0  0  0  0  0  0
   14.8740  -13.4021   -4.7831 H   0  0  0  0  0  0  0  0  0  0  0  0
   15.6150  -15.0149   -4.5609 H   0  0  0  0  0  0  0  0  0  0  0  0
   16.3556  -13.8418   -5.6787 H   0  0  0  0  0  0  0  0  0  0  0  0
   11.6784  -16.1932    1.6450 H   0  0  0  0  0  0  0  0  0  0  0  0
    7.8369  -16.9217    3.0094 H   0  0  0  0  0  0  0  0  0  0  0  0
    7.1995  -14.4978    2.8351 H   0  0  0  0  0  0  0  0  0  0  0  0
    7.2623  -10.7578    2.2190 H   0  0  0  0  0  0  0  0  0  0  0  0
    5.0019   -4.2889    2.0698 H   0  0  0  0  0  0  0  0  0  0  0  0
    4.1350   -1.9619    1.9892 H   0  0  0  0  0  0  0  0  0  0  0  0
  1  2  1  0
  1 49  1  0
  1 50  1  0
  1 51  1  0
  2  3  1  0
  3  4  2  0
  3  5  1  0
  5  6  1  0
  5 10  1  0
  5 52  1  6
  6  7  1  0
  6 53  1  0
  6 54  1  0
  7  8  1  0
  7 55  1  0
  7 56  1  0
  8  9  1  0
  8 57  1  0
  8 58  1  0
  9 10  1  0
  9 59  1  0
  9 60  1  0
 10 11  1  0
 11 12  2  0
 11 13  1  0
 13 14  2  0
 13 48  1  0
 14 15  1  0
 14 61  1  0
 15 16  2  0
 15 62  1  0
 16 17  1  0
 16 47  1  0
 17 18  3  0
 18 19  1  0
 19 20  2  0
 19 45  1  0
 20 21  1  0
 20 63  1  0
 21 22  2  0
 21 64  1  0
 22 23  1  0
 22 44  1  0
 23 24  2  0
 23 43  1  0
 24 25  1  0
 24 65  1  0
 25 26  1  0
 25 37  2  0
 26 27  2  0
 26 28  1  0
 28 29  1  0
 28 66  1  0
 29 30  1  0
 29 67  1  0
 30 31  2  0
 30 32  1  0
 33 32  1  1
 33 34  1  0
 33 35  1  0
 33 36  1  0
 34 68  1  0
 34 69  1  0
 34 70  1  0
 35 71  1  0
 35 72  1  0
 35 73  1  0
 36 74  1  0
 36 75  1  0
 36 76  1  0
 37 38  1  0
 37 42  1  0
 38 39  2  0
 38 77  1  0
 39 40  1  0
 40 41  2  0
 40 78  1  0
 41 42  1  0
 41 79  1  0
 42 43  2  0
 44 45  2  0
 44 80  1  0
 45 46  1  0
 47 48  2  0
 47 81  1  0
 48 82  1  0
M  END

