
     RDKit          3D

 41 41  0  0  0  0  0  0  0  0999 V2000
    1.3689   -0.2854   -0.4682 C   0  0  0  0  0  0  0  0  0  0  0  0
    2.8182   -0.2787    0.0242 C   0  0  0  0  0  0  0  0  0  0  0  0
    3.0062    0.2208    1.4715 C   0  0  1  0  0  0  0  0  0  0  0  0
    2.2228   -0.6459    2.4697 C   0  0  0  0  0  0  0  0  0  0  0  0
    4.5131    0.2842    1.8679 C   0  0  1  0  0  0  0  0  0  0  0  0
    5.4688    0.6673    0.8240 N   0  0  0  0  0  0  0  0  0  0  0  0
    4.7490    1.1843    3.1138 C   0  0  0  0  0  0  0  0  0  0  0  0
    3.8839    1.4134    3.9406 O   0  0  0  0  0  0  0  0  0  0  0  0
    6.0381    1.6498    3.1852 N   0  0  0  0  0  0  0  0  0  0  0  0
    6.6469    2.4338    4.1685 C   0  0  0  0  0  0  0  0  0  0  0  0
    5.9743    2.8955    5.3164 C   0  0  0  0  0  0  0  0  0  0  0  0
    6.6568    3.6745    6.2520 C   0  0  0  0  0  0  0  0  0  0  0  0
    8.0024    3.9902    6.0550 C   0  0  0  0  0  0  0  0  0  0  0  0
    8.8661    5.0052    7.2459 S   0  0  1  0  0  0  0  0  0  0  0  0
    9.7926    5.8902    6.5338 O   0  0  0  0  0  0  0  0  0  0  0  0
    7.8661    5.5350    8.1806 O   0  0  0  0  0  0  0  0  0  0  0  0
    9.8711    3.8920    8.0328 N   0  0  0  0  0  0  0  0  0  0  0  0
    9.3351    3.1899    9.1944 C   0  0  0  0  0  0  0  0  0  0  0  0
    8.6813    3.5475    4.9135 C   0  0  0  0  0  0  0  0  0  0  0  0
    8.0053    2.7724    3.9806 C   0  0  0  0  0  0  0  0  0  0  0  0
    1.3192   -0.5633   -1.5329 H   0  0  0  0  0  0  0  0  0  0  0  0
    0.9081    0.7112   -0.3631 H   0  0  0  0  0  0  0  0  0  0  0  0
    0.7420   -1.0002    0.0861 H   0  0  0  0  0  0  0  0  0  0  0  0
    3.4084    0.3519   -0.6608 H   0  0  0  0  0  0  0  0  0  0  0  0
    3.2398   -1.2987   -0.0643 H   0  0  0  0  0  0  0  0  0  0  0  0
    2.6082    1.2515    1.5274 H   0  0  0  0  0  0  0  0  0  0  0  0
    2.5384   -1.7020    2.3955 H   0  0  0  0  0  0  0  0  0  0  0  0
    1.1414   -0.6083    2.2714 H   0  0  0  0  0  0  0  0  0  0  0  0
    2.3867   -0.3014    3.4975 H   0  0  0  0  0  0  0  0  0  0  0  0
    4.8106   -0.7312    2.1936 H   0  0  0  0  0  0  0  0  0  0  0  0
    5.1508    1.4959    0.3188 H   0  0  0  0  0  0  0  0  0  0  0  0
    5.5860   -0.0727    0.1352 H   0  0  0  0  0  0  0  0  0  0  0  0
    6.5825    1.4013    2.3571 H   0  0  0  0  0  0  0  0  0  0  0  0
    4.9256    2.6440    5.4557 H   0  0  0  0  0  0  0  0  0  0  0  0
    6.1430    4.0536    7.1371 H   0  0  0  0  0  0  0  0  0  0  0  0
   10.7616    4.3663    8.1877 H   0  0  0  0  0  0  0  0  0  0  0  0
    8.4799    2.5678    8.8890 H   0  0  0  0  0  0  0  0  0  0  0  0
    9.0030    3.8618   10.0043 H   0  0  0  0  0  0  0  0  0  0  0  0
   10.1140    2.5142    9.5780 H   0  0  0  0  0  0  0  0  0  0  0  0
    9.7271    3.8196    4.7604 H   0  0  0  0  0  0  0  0  0  0  0  0
    8.5276    2.4227    3.0857 H   0  0  0  0  0  0  0  0  0  0  0  0
  1  2  1  0
  1 21  1  0
  1 22  1  0
  1 23  1  0
  2  3  1  0
  2 24  1  0
  2 25  1  0
  3  4  1  0
  3  5  1  0
  3 26  1  6
  4 27  1  0
  4 28  1  0
  4 29  1  0
  5  6  1  0
  5  7  1  0
  5 30  1  1
  6 31  1  0
  6 32  1  0
  7  8  2  0
  7  9  1  0
  9 10  1  0
  9 33  1  0
 10 11  2  0
 10 20  1  0
 11 12  1  0
 11 34  1  0
 12 13  2  0
 12 35  1  0
 13 14  1  0
 13 19  1  0
 14 15  2  0
 14 16  2  0
 14 17  1  1
 17 18  1  0
 17 36  1  0
 18 37  1  0
 18 38  1  0
 18 39  1  0
 19 20  2  0
 19 40  1  0
 20 41  1  0
M  END

