
     RDKit          3D

 39 40  0  0  0  0  0  0  0  0999 V2000
    2.4909   -2.0232   -0.6572 C   0  0  0  0  0  0  0  0  0  0  0  0
    3.0123   -0.6414   -0.2624 C   0  0  0  0  0  0  0  0  0  0  0  0
    3.4169    0.2375   -1.4694 C   0  0  1  0  0  0  0  0  0  0  0  0
    2.3529    0.4476   -2.4543 N   0  0  0  0  0  0  0  0  0  0  0  0
    1.1296    1.1031   -2.0249 C   0  0  0  0  0  0  0  0  0  0  0  0
    4.0279    1.5809   -0.9924 C   0  0  1  0  0  0  0  0  0  0  0  0
    4.9704    1.3512    0.0562 O   0  0  0  0  0  0  0  0  0  0  0  0
    4.6659    2.4700   -2.0624 C   0  0  0  0  0  0  0  0  0  0  0  0
    5.3508    3.6240   -1.5947 C   0  0  0  0  0  0  0  0  0  0  0  0
    6.0075    4.5048   -2.4510 C   0  0  0  0  0  0  0  0  0  0  0  0
    5.9716    4.2043   -3.8174 C   0  0  0  0  0  0  0  0  0  0  0  0
    5.2990    3.0624   -4.3134 C   0  0  0  0  0  0  0  0  0  0  0  0
    4.6392    2.1916   -3.4328 C   0  0  0  0  0  0  0  0  0  0  0  0
    5.4181    3.0085   -5.6909 N   0  0  0  0  0  0  0  0  0  0  0  0
    6.1257    4.0588   -6.0268 C   0  0  0  0  0  0  0  0  0  0  0  0
    6.5046    4.4069   -7.4305 C   0  0  0  0  0  0  0  0  0  0  0  0
    6.4967    4.8329   -4.9331 N   0  0  0  0  0  0  0  0  0  0  0  0
    7.2708    6.0535   -4.9172 C   0  0  0  0  0  0  0  0  0  0  0  0
    2.2503   -2.6269    0.2322 H   0  0  0  0  0  0  0  0  0  0  0  0
    3.2400   -2.5838   -1.2429 H   0  0  0  0  0  0  0  0  0  0  0  0
    1.5737   -1.9639   -1.2665 H   0  0  0  0  0  0  0  0  0  0  0  0
    3.8872   -0.7418    0.3953 H   0  0  0  0  0  0  0  0  0  0  0  0
    2.2518   -0.1114    0.3387 H   0  0  0  0  0  0  0  0  0  0  0  0
    4.2200   -0.2998   -2.0107 H   0  0  0  0  0  0  0  0  0  0  0  0
    2.1388   -0.4290   -2.9225 H   0  0  0  0  0  0  0  0  0  0  0  0
    1.3252    2.1516   -1.7483 H   0  0  0  0  0  0  0  0  0  0  0  0
    0.6066    0.6264   -1.1683 H   0  0  0  0  0  0  0  0  0  0  0  0
    0.4238    1.1284   -2.8699 H   0  0  0  0  0  0  0  0  0  0  0  0
    3.2246    2.1566   -0.4993 H   0  0  0  0  0  0  0  0  0  0  0  0
    5.7939    1.0586   -0.3599 H   0  0  0  0  0  0  0  0  0  0  0  0
    5.3706    3.8119   -0.5190 H   0  0  0  0  0  0  0  0  0  0  0  0
    6.5236    5.3855   -2.0612 H   0  0  0  0  0  0  0  0  0  0  0  0
    4.0830    1.3408   -3.8213 H   0  0  0  0  0  0  0  0  0  0  0  0
    6.0903    3.6377   -8.0939 H   0  0  0  0  0  0  0  0  0  0  0  0
    7.5984    4.4363   -7.5705 H   0  0  0  0  0  0  0  0  0  0  0  0
    6.1016    5.3865   -7.7385 H   0  0  0  0  0  0  0  0  0  0  0  0
    7.5474    6.3347   -5.9409 H   0  0  0  0  0  0  0  0  0  0  0  0
    8.1966    5.9283   -4.3307 H   0  0  0  0  0  0  0  0  0  0  0  0
    6.6925    6.8823   -4.4755 H   0  0  0  0  0  0  0  0  0  0  0  0
  1  2  1  0
  1 19  1  0
  1 20  1  0
  1 21  1  0
  2  3  1  0
  2 22  1  0
  2 23  1  0
  3  4  1  0
  3  6  1  0
  3 24  1  6
  4  5  1  0
  4 25  1  0
  5 26  1  0
  5 27  1  0
  5 28  1  0
  6  7  1  0
  6  8  1  0
  6 29  1  1
  7 30  1  0
  8  9  2  0
  8 13  1  0
  9 10  1  0
  9 31  1  0
 10 11  2  0
 10 32  1  0
 11 12  1  0
 11 17  1  0
 12 13  2  0
 12 14  1  0
 13 33  1  0
 14 15  2  0
 15 16  1  0
 15 17  1  0
 16 34  1  0
 16 35  1  0
 16 36  1  0
 17 18  1  0
 18 37  1  0
 18 38  1  0
 18 39  1  0
M  END

