
     RDKit          3D

 67 69  0  0  0  0  0  0  0  0999 V2000
    1.5555    1.8253   -3.7678 C   0  0  0  0  0  0  0  0  0  0  0  0
    1.7207    1.2950   -2.3352 C   0  0  1  0  0  0  0  0  0  0  0  0
    0.3970    1.3151   -1.5668 C   0  0  0  0  0  0  0  0  0  0  0  0
    2.2655   -0.0600   -2.2958 N   0  0  0  0  0  0  0  0  0  0  0  0
    3.5740   -0.4016   -2.5464 C   0  0  0  0  0  0  0  0  0  0  0  0
    4.5857    0.5651   -2.6567 C   0  0  0  0  0  0  0  0  0  0  0  0
    5.9164    0.1749   -2.9200 C   0  0  0  0  0  0  0  0  0  0  0  0
    6.8738    1.1696   -2.9978 N   0  0  0  0  0  0  0  0  0  0  0  0
    8.2490    1.1460   -3.2618 C   0  0  0  0  0  0  0  0  0  0  0  0
    8.9820   -0.0387   -3.5353 C   0  0  0  0  0  0  0  0  0  0  0  0
   10.3457    0.0165   -3.7891 C   0  0  0  0  0  0  0  0  0  0  0  0
   11.0238    1.2466   -3.7795 C   0  0  0  0  0  0  0  0  0  0  0  0
   12.3732    1.4380   -4.0152 N   0  0  0  0  0  0  0  0  0  0  0  0
   12.6835    2.6853   -3.9340 C   0  0  0  0  0  0  0  0  0  0  0  0
   11.3633    3.8030   -3.5565 S   0  0  0  0  0  0  0  0  0  0  0  0
   10.2836    2.4263   -3.5055 C   0  0  0  0  0  0  0  0  0  0  0  0
    8.9128    2.3869   -3.2484 C   0  0  0  0  0  0  0  0  0  0  0  0
    6.2708   -1.1029   -3.1056 N   0  0  0  0  0  0  0  0  0  0  0  0
    5.3108   -2.0191   -3.0076 C   0  0  0  0  0  0  0  0  0  0  0  0
    3.9689   -1.7718   -2.7036 C   0  0  0  0  0  0  0  0  0  0  0  0
    3.0825   -2.9749   -2.6118 C   0  0  0  0  0  0  0  0  0  0  0  0
    3.3169   -4.0021   -3.2306 O   0  0  0  0  0  0  0  0  0  0  0  0
    1.9817   -2.8744   -1.7759 N   0  0  0  0  0  0  0  0  0  0  0  0
    1.1568   -4.0451   -1.5033 C   0  0  0  0  0  0  0  0  0  0  0  0
    1.7233   -4.9595   -0.4088 C   0  0  0  0  0  0  0  0  0  0  0  0
    0.8096   -6.1404   -0.0152 C   0  0  1  0  0  0  0  0  0  0  0  0
    0.6140   -7.1389   -1.1596 C   0  0  0  0  0  0  0  0  0  0  0  0
    1.2895   -6.8509    1.1712 N   0  0  0  0  0  0  0  0  0  0  0  0
    1.0643   -6.2348    2.4536 C   0  0  0  0  0  0  0  0  0  0  0  0
   -0.2617   -6.3901    2.9009 O   0  0  0  0  0  0  0  0  0  0  0  0
   -0.6467   -7.7191    3.2631 C   0  0  1  0  0  0  0  0  0  0  0  0
   -0.2772   -8.0038    4.7200 C   0  0  0  0  0  0  0  0  0  0  0  0
   -2.1444   -7.8351    3.0094 C   0  0  0  0  0  0  0  0  0  0  0  0
    1.1994    2.8681   -3.7625 H   0  0  0  0  0  0  0  0  0  0  0  0
    0.8205    1.2181   -4.3218 H   0  0  0  0  0  0  0  0  0  0  0  0
    2.5057    1.7912   -4.3216 H   0  0  0  0  0  0  0  0  0  0  0  0
    2.4274    1.9482   -1.7962 H   0  0  0  0  0  0  0  0  0  0  0  0
   -0.3466    0.6557   -2.0470 H   0  0  0  0  0  0  0  0  0  0  0  0
   -0.0274    2.3302   -1.5474 H   0  0  0  0  0  0  0  0  0  0  0  0
    0.5362    0.9776   -0.5283 H   0  0  0  0  0  0  0  0  0  0  0  0
    1.5911   -0.8001   -2.4684 H   0  0  0  0  0  0  0  0  0  0  0  0
    4.3515    1.6251   -2.5588 H   0  0  0  0  0  0  0  0  0  0  0  0
    6.5092    2.0990   -2.8318 H   0  0  0  0  0  0  0  0  0  0  0  0
    8.4468   -0.9844   -3.5393 H   0  0  0  0  0  0  0  0  0  0  0  0
   10.9075   -0.8959   -3.9995 H   0  0  0  0  0  0  0  0  0  0  0  0
   13.6919    3.0811   -4.0817 H   0  0  0  0  0  0  0  0  0  0  0  0
    8.3579    3.3055   -3.0389 H   0  0  0  0  0  0  0  0  0  0  0  0
    5.6060   -3.0605   -3.1710 H   0  0  0  0  0  0  0  0  0  0  0  0
    2.0303   -2.1687   -1.0467 H   0  0  0  0  0  0  0  0  0  0  0  0
    1.0686   -4.5942   -2.4500 H   0  0  0  0  0  0  0  0  0  0  0  0
    0.1482   -3.6972   -1.2205 H   0  0  0  0  0  0  0  0  0  0  0  0
    1.9166   -4.3475    0.4903 H   0  0  0  0  0  0  0  0  0  0  0  0
    2.6991   -5.3504   -0.7469 H   0  0  0  0  0  0  0  0  0  0  0  0
   -0.1806   -5.7367    0.2619 H   0  0  0  0  0  0  0  0  0  0  0  0
    1.5792   -7.5813   -1.4606 H   0  0  0  0  0  0  0  0  0  0  0  0
    0.1759   -6.6660   -2.0519 H   0  0  0  0  0  0  0  0  0  0  0  0
   -0.0485   -7.9566   -0.8397 H   0  0  0  0  0  0  0  0  0  0  0  0
    2.2448   -7.1833    1.0605 H   0  0  0  0  0  0  0  0  0  0  0  0
    1.2187   -5.1368    2.4559 H   0  0  0  0  0  0  0  0  0  0  0  0
    1.7903   -6.6715    3.1669 H   0  0  0  0  0  0  0  0  0  0  0  0
   -0.1165   -8.4282    2.6015 H   0  0  0  0  0  0  0  0  0  0  0  0
   -0.8022   -7.3063    5.3927 H   0  0  0  0  0  0  0  0  0  0  0  0
    0.8053   -7.8920    4.8922 H   0  0  0  0  0  0  0  0  0  0  0  0
   -0.5523   -9.0331    5.0019 H   0  0  0  0  0  0  0  0  0  0  0  0
   -2.6924   -7.0890    3.6076 H   0  0  0  0  0  0  0  0  0  0  0  0
   -2.5143   -8.8366    3.2805 H   0  0  0  0  0  0  0  0  0  0  0  0
   -2.3713   -7.6543    1.9478 H   0  0  0  0  0  0  0  0  0  0  0  0
  1  2  1  0
  1 34  1  0
  1 35  1  0
  1 36  1  0
  2  3  1  0
  2  4  1  0
  2 37  1  1
  3 38  1  0
  3 39  1  0
  3 40  1  0
  4  5  1  0
  4 41  1  0
  5  6  2  0
  5 20  1  0
  6  7  1  0
  6 42  1  0
  7  8  1  0
  7 18  2  0
  8  9  1  0
  8 43  1  0
  9 10  2  0
  9 17  1  0
 10 11  1  0
 10 44  1  0
 11 12  2  0
 11 45  1  0
 12 13  1  0
 12 16  1  0
 13 14  2  0
 14 15  1  0
 14 46  1  0
 15 16  1  0
 16 17  2  0
 17 47  1  0
 18 19  1  0
 19 20  2  0
 19 48  1  0
 20 21  1  0
 21 22  2  0
 21 23  1  0
 23 24  1  0
 23 49  1  0
 24 25  1  0
 24 50  1  0
 24 51  1  0
 25 26  1  0
 25 52  1  0
 25 53  1  0
 26 27  1  0
 26 28  1  0
 26 54  1  1
 27 55  1  0
 27 56  1  0
 27 57  1  0
 28 29  1  0
 28 58  1  0
 29 30  1  0
 29 59  1  0
 29 60  1  0
 30 31  1  0
 31 32  1  0
 31 33  1  0
 31 61  1  6
 32 62  1  0
 32 63  1  0
 32 64  1  0
 33 65  1  0
 33 66  1  0
 33 67  1  0
M  END

