
     RDKit          3D

 58 60  0  0  0  0  0  0  0  0999 V2000
    6.5424   -0.1826    0.8243 C   0  0  0  0  0  0  0  0  0  0  0  0
    5.4320    0.6545    0.5959 O   0  0  0  0  0  0  0  0  0  0  0  0
    5.3365    1.3296   -0.5775 C   0  0  0  0  0  0  0  0  0  0  0  0
    6.2837    1.2636   -1.6131 C   0  0  0  0  0  0  0  0  0  0  0  0
    6.0864    2.0056   -2.7808 C   0  0  0  0  0  0  0  0  0  0  0  0
    4.9579    2.8175   -2.9505 C   0  0  0  0  0  0  0  0  0  0  0  0
    4.7746    3.6175   -4.2148 C   0  0  0  0  0  0  0  0  0  0  0  0
    4.8021    2.7517   -5.3389 O   0  0  0  0  0  0  0  0  0  0  0  0
    4.9244    3.3961   -6.5991 C   0  0  2  0  0  0  0  0  0  0  0  0
    3.7023    4.2139   -6.9954 C   0  0  0  0  0  0  0  0  0  0  0  0
    2.6054    3.8307   -7.6807 C   0  0  0  0  0  0  0  0  0  0  0  0
    1.5388    4.8091   -8.0959 C   0  0  0  0  0  0  0  0  0  0  0  0
    2.3717    2.4163   -8.1404 C   0  0  0  0  0  0  0  0  0  0  0  0
    1.5909    2.2005   -9.0500 O   0  0  0  0  0  0  0  0  0  0  0  0
    3.0629    1.2816   -7.4071 C   0  0  0  0  0  0  0  0  0  0  0  0
    4.5577    1.0401   -7.7578 C   0  0  1  0  0  0  0  0  0  0  0  0
    5.0986   -0.0166   -6.7732 C   0  0  0  0  0  0  0  0  0  0  0  0
    4.6794    0.5008   -9.1963 C   0  0  0  0  0  0  0  0  0  0  0  0
    5.3515    2.3753   -7.6708 C   0  0  2  0  0  0  0  0  0  0  0  0
    6.7446    2.0464   -7.4898 O   0  0  0  0  0  0  0  0  0  0  0  0
    7.6676    2.8605   -8.0433 C   0  0  0  0  0  0  0  0  0  0  0  0
    7.3875    3.8569   -8.6717 O   0  0  0  0  0  0  0  0  0  0  0  0
    9.0652    2.3957   -7.7912 C   0  0  0  0  0  0  0  0  0  0  0  0
   10.1147    3.1418   -8.3515 C   0  0  0  0  0  0  0  0  0  0  0  0
   11.4383    2.7524   -8.1470 C   0  0  0  0  0  0  0  0  0  0  0  0
   11.7226    1.6167   -7.3800 C   0  0  0  0  0  0  0  0  0  0  0  0
   10.6804    0.8715   -6.8180 C   0  0  0  0  0  0  0  0  0  0  0  0
    9.3539    1.2571   -7.0215 C   0  0  0  0  0  0  0  0  0  0  0  0
    4.0170    2.8662   -1.9101 C   0  0  0  0  0  0  0  0  0  0  0  0
    4.2000    2.1398   -0.7366 C   0  0  0  0  0  0  0  0  0  0  0  0
    6.4054   -0.6193    1.8228 H   0  0  0  0  0  0  0  0  0  0  0  0
    7.4935    0.3800    0.8088 H   0  0  0  0  0  0  0  0  0  0  0  0
    6.6025   -1.0000    0.0828 H   0  0  0  0  0  0  0  0  0  0  0  0
    7.1746    0.6422   -1.5199 H   0  0  0  0  0  0  0  0  0  0  0  0
    6.8263    1.9448   -3.5831 H   0  0  0  0  0  0  0  0  0  0  0  0
    5.5880    4.3668   -4.3174 H   0  0  0  0  0  0  0  0  0  0  0  0
    3.8224    4.1791   -4.1699 H   0  0  0  0  0  0  0  0  0  0  0  0
    5.7552    4.1244   -6.5389 H   0  0  0  0  0  0  0  0  0  0  0  0
    3.7669    5.2750   -6.7273 H   0  0  0  0  0  0  0  0  0  0  0  0
    1.7699    5.8289   -7.7574 H   0  0  0  0  0  0  0  0  0  0  0  0
    0.5551    4.5142   -7.6944 H   0  0  0  0  0  0  0  0  0  0  0  0
    1.4316    4.8056   -9.1918 H   0  0  0  0  0  0  0  0  0  0  0  0
    2.5005    0.3687   -7.6510 H   0  0  0  0  0  0  0  0  0  0  0  0
    2.9881    1.4658   -6.3257 H   0  0  0  0  0  0  0  0  0  0  0  0
    4.4518   -0.9081   -6.7998 H   0  0  0  0  0  0  0  0  0  0  0  0
    5.1206    0.3696   -5.7460 H   0  0  0  0  0  0  0  0  0  0  0  0
    6.1145   -0.3304   -7.0517 H   0  0  0  0  0  0  0  0  0  0  0  0
    4.2060   -0.4900   -9.2811 H   0  0  0  0  0  0  0  0  0  0  0  0
    5.7381    0.3934   -9.4808 H   0  0  0  0  0  0  0  0  0  0  0  0
    4.1923    1.1661   -9.9264 H   0  0  0  0  0  0  0  0  0  0  0  0
    5.2688    2.9088   -8.6281 H   0  0  0  0  0  0  0  0  0  0  0  0
    9.8677    4.0240   -8.9450 H   0  0  0  0  0  0  0  0  0  0  0  0
   12.2522    3.3347   -8.5860 H   0  0  0  0  0  0  0  0  0  0  0  0
   12.7600    1.3116   -7.2196 H   0  0  0  0  0  0  0  0  0  0  0  0
   10.9031   -0.0150   -6.2190 H   0  0  0  0  0  0  0  0  0  0  0  0
    8.5359    0.6821   -6.5862 H   0  0  0  0  0  0  0  0  0  0  0  0
    3.1214    3.4846   -2.0202 H   0  0  0  0  0  0  0  0  0  0  0  0
    3.4705    2.1758    0.0750 H   0  0  0  0  0  0  0  0  0  0  0  0
  1  2  1  0
  1 31  1  0
  1 32  1  0
  1 33  1  0
  2  3  1  0
  3  4  2  0
  3 30  1  0
  4  5  1  0
  4 34  1  0
  5  6  2  0
  5 35  1  0
  6  7  1  0
  6 29  1  0
  7  8  1  0
  7 36  1  0
  7 37  1  0
  8  9  1  0
  9 10  1  0
  9 19  1  0
  9 38  1  1
 10 11  2  0
 10 39  1  0
 11 12  1  0
 11 13  1  0
 12 40  1  0
 12 41  1  0
 12 42  1  0
 13 14  2  0
 13 15  1  0
 15 16  1  0
 15 43  1  0
 15 44  1  0
 16 17  1  1
 16 18  1  0
 16 19  1  0
 17 45  1  0
 17 46  1  0
 17 47  1  0
 18 48  1  0
 18 49  1  0
 18 50  1  0
 19 20  1  0
 19 51  1  6
 20 21  1  0
 21 22  2  0
 21 23  1  0
 23 24  2  0
 23 28  1  0
 24 25  1  0
 24 52  1  0
 25 26  2  0
 25 53  1  0
 26 27  1  0
 26 54  1  0
 27 28  2  0
 27 55  1  0
 28 56  1  0
 29 30  2  0
 29 57  1  0
 30 58  1  0
M  END

