
     RDKit          3D

 49 51  0  0  0  0  0  0  0  0999 V2000
    0.3354   -0.7251   -1.1987 C   0  0  0  0  0  0  0  0  0  0  0  0
    1.4697   -0.1497   -2.0371 C   0  0  0  0  0  0  0  0  0  0  0  0
    1.6992    1.0479   -2.0443 O   0  0  0  0  0  0  0  0  0  0  0  0
    2.2249   -1.0357   -2.7799 N   0  0  0  0  0  0  0  0  0  0  0  0
    3.2967   -0.5328   -3.6349 C   0  0  0  0  0  0  0  0  0  0  0  0
    4.5898   -1.3064   -3.3942 C   0  0  0  0  0  0  0  0  0  0  0  0
    4.3601   -2.7442   -3.5371 N   0  0  0  0  0  0  0  0  0  0  0  0
    5.4001   -3.5022   -4.0800 C   0  0  0  0  0  0  0  0  0  0  0  0
    6.4349   -2.9811   -4.4630 O   0  0  0  0  0  0  0  0  0  0  0  0
    5.1531   -4.8603   -4.1720 N   0  0  0  0  0  0  0  0  0  0  0  0
    6.0121   -5.8754   -4.6368 C   0  0  0  0  0  0  0  0  0  0  0  0
    7.3408   -5.6600   -5.0378 C   0  0  0  0  0  0  0  0  0  0  0  0
    8.1049   -6.7502   -5.4652 C   0  0  0  0  0  0  0  0  0  0  0  0
    7.5781   -8.0407   -5.5045 C   0  0  0  0  0  0  0  0  0  0  0  0
    6.2490   -8.2591   -5.1102 C   0  0  0  0  0  0  0  0  0  0  0  0
    5.6643   -9.6527   -5.1699 C   0  0  0  0  0  0  0  0  0  0  0  0
    4.3799   -9.6864   -4.6051 O   0  0  0  0  0  0  0  0  0  0  0  0
    3.7579  -10.9506   -4.6605 C   0  0  0  0  0  0  0  0  0  0  0  0
    2.4234  -10.8888   -3.9673 C   0  0  1  0  0  0  0  0  0  0  0  0
    1.2177  -10.3476   -4.6915 C   0  0  0  0  0  0  0  0  0  0  0  0
    1.3158  -11.8213   -4.3899 C   0  0  0  0  0  0  0  0  0  0  0  0
    5.4800   -7.1789   -4.6798 C   0  0  0  0  0  0  0  0  0  0  0  0
    3.3074   -3.2406   -2.6627 C   0  0  0  0  0  0  0  0  0  0  0  0
    2.0024   -2.4654   -2.8931 C   0  0  0  0  0  0  0  0  0  0  0  0
   -0.1448    0.1145   -0.6826 H   0  0  0  0  0  0  0  0  0  0  0  0
    0.7004   -1.4429   -0.4470 H   0  0  0  0  0  0  0  0  0  0  0  0
   -0.4150   -1.2387   -1.8206 H   0  0  0  0  0  0  0  0  0  0  0  0
    3.4267    0.5331   -3.4118 H   0  0  0  0  0  0  0  0  0  0  0  0
    3.0004   -0.6339   -4.6965 H   0  0  0  0  0  0  0  0  0  0  0  0
    4.9711   -1.0813   -2.3782 H   0  0  0  0  0  0  0  0  0  0  0  0
    5.3647   -1.0128   -4.1114 H   0  0  0  0  0  0  0  0  0  0  0  0
    4.2167   -5.1806   -3.9696 H   0  0  0  0  0  0  0  0  0  0  0  0
    7.7523   -4.6544   -5.0158 H   0  0  0  0  0  0  0  0  0  0  0  0
    9.1395   -6.5786   -5.7744 H   0  0  0  0  0  0  0  0  0  0  0  0
    8.1966   -8.8780   -5.8409 H   0  0  0  0  0  0  0  0  0  0  0  0
    6.3414  -10.3606   -4.6447 H   0  0  0  0  0  0  0  0  0  0  0  0
    5.6304   -9.9912   -6.2289 H   0  0  0  0  0  0  0  0  0  0  0  0
    4.4042  -11.7149   -4.1787 H   0  0  0  0  0  0  0  0  0  0  0  0
    3.6223  -11.2691   -5.7167 H   0  0  0  0  0  0  0  0  0  0  0  0
    2.4939  -10.6615   -2.8979 H   0  0  0  0  0  0  0  0  0  0  0  0
    1.3503  -10.0240   -5.7284 H   0  0  0  0  0  0  0  0  0  0  0  0
    0.5013   -9.7468   -4.1243 H   0  0  0  0  0  0  0  0  0  0  0  0
    1.5086  -12.5043   -5.2233 H   0  0  0  0  0  0  0  0  0  0  0  0
    0.6715  -12.2416   -3.6130 H   0  0  0  0  0  0  0  0  0  0  0  0
    4.4492   -7.3659   -4.3706 H   0  0  0  0  0  0  0  0  0  0  0  0
    3.6074   -3.1306   -1.6000 H   0  0  0  0  0  0  0  0  0  0  0  0
    3.1079   -4.3075   -2.8277 H   0  0  0  0  0  0  0  0  0  0  0  0
    1.2531   -2.7980   -2.1652 H   0  0  0  0  0  0  0  0  0  0  0  0
    1.6219   -2.7103   -3.9048 H   0  0  0  0  0  0  0  0  0  0  0  0
  1  2  1  0
  1 25  1  0
  1 26  1  0
  1 27  1  0
  2  3  2  0
  2  4  1  0
  4  5  1  0
  4 24  1  0
  5  6  1  0
  5 28  1  0
  5 29  1  0
  6  7  1  0
  6 30  1  0
  6 31  1  0
  7  8  1  0
  7 23  1  0
  8  9  2  0
  8 10  1  0
 10 11  1  0
 10 32  1  0
 11 12  2  0
 11 22  1  0
 12 13  1  0
 12 33  1  0
 13 14  2  0
 13 34  1  0
 14 15  1  0
 14 35  1  0
 15 16  1  0
 15 22  2  0
 16 17  1  0
 16 36  1  0
 16 37  1  0
 17 18  1  0
 18 19  1  0
 18 38  1  0
 18 39  1  0
 19 20  1  0
 19 21  1  0
 19 40  1  1
 20 21  1  0
 20 41  1  0
 20 42  1  0
 21 43  1  0
 21 44  1  0
 22 45  1  0
 23 24  1  0
 23 46  1  0
 23 47  1  0
 24 48  1  0
 24 49  1  0
M  END

