
     RDKit          3D

 34 36  0  0  0  0  0  0  0  0999 V2000
    0.9084    0.4879    2.1006 C   0  0  0  0  0  0  0  0  0  0  0  0
    2.2396    0.2821    1.6772 O   0  0  0  0  0  0  0  0  0  0  0  0
    2.9904    1.3348    1.2814 C   0  0  0  0  0  0  0  0  0  0  0  0
    2.5559    2.6684    1.2999 C   0  0  0  0  0  0  0  0  0  0  0  0
    3.4241    3.7026    0.9354 C   0  0  0  0  0  0  0  0  0  0  0  0
    4.7332    3.4210    0.5439 C   0  0  0  0  0  0  0  0  0  0  0  0
    5.1626    2.0928    0.4959 C   0  0  0  0  0  0  0  0  0  0  0  0
    4.3091    1.0394    0.8469 C   0  0  0  0  0  0  0  0  0  0  0  0
    4.7957   -0.2831    0.8257 N   0  0  0  0  0  0  0  0  0  0  0  0
    4.2808   -1.3760    0.2009 C   0  0  0  0  0  0  0  0  0  0  0  0
    3.1519   -1.4433   -0.5698 C   0  0  0  0  0  0  0  0  0  0  0  0
    2.6890   -2.6802   -1.1824 C   0  0  0  0  0  0  0  0  0  0  0  0
    1.6683   -2.7316   -1.8602 O   0  0  0  0  0  0  0  0  0  0  0  0
    3.5149   -3.9201   -0.9609 C   0  0  0  0  0  0  0  0  0  0  0  0
    3.1062   -5.1323   -1.5243 C   0  0  0  0  0  0  0  0  0  0  0  0
    3.8673   -6.2879   -1.3311 C   0  0  0  0  0  0  0  0  0  0  0  0
    5.0451   -6.2399   -0.5739 C   0  0  0  0  0  0  0  0  0  0  0  0
    5.4618   -5.0341   -0.0093 C   0  0  0  0  0  0  0  0  0  0  0  0
    4.6990   -3.8724   -0.1990 C   0  0  0  0  0  0  0  0  0  0  0  0
    5.1483   -2.5951    0.4057 C   0  0  0  0  0  0  0  0  0  0  0  0
    6.1839   -2.4943    1.0470 O   0  0  0  0  0  0  0  0  0  0  0  0
    0.5076   -0.5024    2.3529 H   0  0  0  0  0  0  0  0  0  0  0  0
    0.2888    0.9318    1.3016 H   0  0  0  0  0  0  0  0  0  0  0  0
    0.8600    1.1353    2.9942 H   0  0  0  0  0  0  0  0  0  0  0  0
    1.5423    2.9080    1.6210 H   0  0  0  0  0  0  0  0  0  0  0  0
    3.0676    4.7351    0.9659 H   0  0  0  0  0  0  0  0  0  0  0  0
    5.4154    4.2262    0.2633 H   0  0  0  0  0  0  0  0  0  0  0  0
    6.1777    1.8512    0.1705 H   0  0  0  0  0  0  0  0  0  0  0  0
    5.7202   -0.4590    1.2184 H   0  0  0  0  0  0  0  0  0  0  0  0
    2.5334   -0.5658   -0.7532 H   0  0  0  0  0  0  0  0  0  0  0  0
    2.1862   -5.1393   -2.1121 H   0  0  0  0  0  0  0  0  0  0  0  0
    3.5429   -7.2334   -1.7736 H   0  0  0  0  0  0  0  0  0  0  0  0
    5.6378   -7.1459   -0.4254 H   0  0  0  0  0  0  0  0  0  0  0  0
    6.3758   -4.9678    0.5840 H   0  0  0  0  0  0  0  0  0  0  0  0
  1  2  1  0
  1 22  1  0
  1 23  1  0
  1 24  1  0
  2  3  1  0
  3  4  2  0
  3  8  1  0
  4  5  1  0
  4 25  1  0
  5  6  2  0
  5 26  1  0
  6  7  1  0
  6 27  1  0
  7  8  2  0
  7 28  1  0
  8  9  1  0
  9 10  1  0
  9 29  1  0
 10 11  2  0
 10 20  1  0
 11 12  1  0
 11 30  1  0
 12 13  2  0
 12 14  1  0
 14 15  2  0
 14 19  1  0
 15 16  1  0
 15 31  1  0
 16 17  2  0
 16 32  1  0
 17 18  1  0
 17 33  1  0
 18 19  2  0
 18 34  1  0
 19 20  1  0
 20 21  2  0
M  END

