
     RDKit          3D

 61 63  0  0  0  0  0  0  0  0999 V2000
    8.1039    2.4761    2.3029 C   0  0  0  0  0  0  0  0  0  0  0  0
    7.9295    1.2312    1.4418 C   0  0  0  0  0  0  0  0  0  0  0  0
    6.1826    0.7582    1.3304 S   0  0  1  0  0  0  0  0  0  0  0  0
    5.7539    0.3376    2.6705 O   0  0  0  0  0  0  0  0  0  0  0  0
    5.4824    1.8427    0.6250 O   0  0  0  0  0  0  0  0  0  0  0  0
    6.2151   -0.6056    0.3295 N   0  0  0  0  0  0  0  0  0  0  0  0
    5.8536   -1.9039    0.9195 C   0  0  0  0  0  0  0  0  0  0  0  0
    4.3515   -2.1800    0.8077 C   0  0  0  0  0  0  0  0  0  0  0  0
    3.8582   -2.0166   -0.6353 C   0  0  0  0  0  0  0  0  0  0  0  0
    4.2618   -0.6490   -1.2257 C   0  0  2  0  0  0  0  0  0  0  0  0
    3.9009   -0.5807   -2.7068 C   0  0  0  0  0  0  0  0  0  0  0  0
    4.4237   -1.3191   -3.5279 O   0  0  0  0  0  0  0  0  0  0  0  0
    2.9629    0.3581   -3.0423 N   0  0  0  0  0  0  0  0  0  0  0  0
    2.4826    0.5343   -4.3979 C   0  0  0  0  0  0  0  0  0  0  0  0
    2.6089    1.9519   -4.9233 C   0  0  0  0  0  0  0  0  0  0  0  0
    3.7071    2.7614   -4.5840 C   0  0  0  0  0  0  0  0  0  0  0  0
    3.8351    4.0479   -5.1033 C   0  0  0  0  0  0  0  0  0  0  0  0
    2.8586    4.5309   -5.9811 C   0  0  0  0  0  0  0  0  0  0  0  0
    2.9961    6.2048   -6.6223 S   0  0  1  0  0  0  0  0  0  0  0  0
    1.7709    6.4635   -7.3922 O   0  0  0  0  0  0  0  0  0  0  0  0
    3.3862    7.0868   -5.5180 O   0  0  0  0  0  0  0  0  0  0  0  0
    4.3314    6.1035   -7.6485 N   0  0  0  0  0  0  0  0  0  0  0  0
    4.0948    5.5702   -8.9979 C   0  0  0  0  0  0  0  0  0  0  0  0
    3.7760    6.6727  -10.0148 C   0  0  0  0  0  0  0  0  0  0  0  0
    4.8443    7.7746   -9.9863 C   0  0  0  0  0  0  0  0  0  0  0  0
    5.0508    8.3093   -8.5624 C   0  0  0  0  0  0  0  0  0  0  0  0
    5.3432    7.1683   -7.5817 C   0  0  0  0  0  0  0  0  0  0  0  0
    1.7516    3.7534   -6.3227 C   0  0  0  0  0  0  0  0  0  0  0  0
    1.6344    2.4669   -5.7893 C   0  0  0  0  0  0  0  0  0  0  0  0
    5.7805   -0.4331   -1.0597 C   0  0  0  0  0  0  0  0  0  0  0  0
    9.1699    2.7446    2.3625 H   0  0  0  0  0  0  0  0  0  0  0  0
    7.7319    2.2983    3.3226 H   0  0  0  0  0  0  0  0  0  0  0  0
    7.5532    3.3259    1.8740 H   0  0  0  0  0  0  0  0  0  0  0  0
    8.4453    0.3521    1.8554 H   0  0  0  0  0  0  0  0  0  0  0  0
    8.2650    1.3828    0.4050 H   0  0  0  0  0  0  0  0  0  0  0  0
    6.1796   -1.9204    1.9668 H   0  0  0  0  0  0  0  0  0  0  0  0
    6.4283   -2.6740    0.3742 H   0  0  0  0  0  0  0  0  0  0  0  0
    3.8210   -1.4811    1.4765 H   0  0  0  0  0  0  0  0  0  0  0  0
    4.1357   -3.1990    1.1704 H   0  0  0  0  0  0  0  0  0  0  0  0
    2.7631   -2.1366   -0.6825 H   0  0  0  0  0  0  0  0  0  0  0  0
    4.2900   -2.8040   -1.2770 H   0  0  0  0  0  0  0  0  0  0  0  0
    3.7541    0.1575   -0.6706 H   0  0  0  0  0  0  0  0  0  0  0  0
    2.5685    0.9346   -2.3078 H   0  0  0  0  0  0  0  0  0  0  0  0
    1.4313    0.2070   -4.4847 H   0  0  0  0  0  0  0  0  0  0  0  0
    3.0820   -0.1557   -5.0148 H   0  0  0  0  0  0  0  0  0  0  0  0
    4.4645    2.3794   -3.8959 H   0  0  0  0  0  0  0  0  0  0  0  0
    4.6827    4.6780   -4.8274 H   0  0  0  0  0  0  0  0  0  0  0  0
    3.2870    4.8255   -8.9538 H   0  0  0  0  0  0  0  0  0  0  0  0
    5.0118    5.0286   -9.2947 H   0  0  0  0  0  0  0  0  0  0  0  0
    2.7896    7.0966   -9.7653 H   0  0  0  0  0  0  0  0  0  0  0  0
    3.6983    6.2305  -11.0225 H   0  0  0  0  0  0  0  0  0  0  0  0
    4.5671    8.5943  -10.6692 H   0  0  0  0  0  0  0  0  0  0  0  0
    5.8018    7.3670  -10.3629 H   0  0  0  0  0  0  0  0  0  0  0  0
    4.1444    8.8413   -8.2241 H   0  0  0  0  0  0  0  0  0  0  0  0
    5.8787    9.0380   -8.5346 H   0  0  0  0  0  0  0  0  0  0  0  0
    5.3973    7.5310   -6.5478 H   0  0  0  0  0  0  0  0  0  0  0  0
    6.3147    6.6992   -7.8244 H   0  0  0  0  0  0  0  0  0  0  0  0
    0.9898    4.1663   -6.9858 H   0  0  0  0  0  0  0  0  0  0  0  0
    0.7645    1.8567   -6.0489 H   0  0  0  0  0  0  0  0  0  0  0  0
    6.0648    0.5695   -1.4044 H   0  0  0  0  0  0  0  0  0  0  0  0
    6.3170   -1.1685   -1.6816 H   0  0  0  0  0  0  0  0  0  0  0  0
  1  2  1  0
  1 31  1  0
  1 32  1  0
  1 33  1  0
  3  2  1  1
  2 34  1  0
  2 35  1  0
  3  4  2  0
  3  5  2  0
  3  6  1  0
  6  7  1  0
  6 30  1  0
  7  8  1  0
  7 36  1  0
  7 37  1  0
  8  9  1  0
  8 38  1  0
  8 39  1  0
  9 10  1  0
  9 40  1  0
  9 41  1  0
 10 11  1  0
 10 30  1  0
 10 42  1  1
 11 12  2  0
 11 13  1  0
 13 14  1  0
 13 43  1  0
 14 15  1  0
 14 44  1  0
 14 45  1  0
 15 16  2  0
 15 29  1  0
 16 17  1  0
 16 46  1  0
 17 18  2  0
 17 47  1  0
 19 18  1  1
 18 28  1  0
 19 20  2  0
 19 21  2  0
 19 22  1  0
 22 23  1  0
 22 27  1  0
 23 24  1  0
 23 48  1  0
 23 49  1  0
 24 25  1  0
 24 50  1  0
 24 51  1  0
 25 26  1  0
 25 52  1  0
 25 53  1  0
 26 27  1  0
 26 54  1  0
 26 55  1  0
 27 56  1  0
 27 57  1  0
 28 29  2  0
 28 58  1  0
 29 59  1  0
 30 60  1  0
 30 61  1  0
M  END

