
     RDKit          3D

 53 56  0  0  0  0  0  0  0  0999 V2000
   -2.1994   -1.2636   -4.2808 N   0  0  0  0  0  0  0  0  0  0  0  0
   -1.4998   -2.4128   -4.5446 C   0  0  0  0  0  0  0  0  0  0  0  0
   -0.0314   -2.4486   -4.1870 C   0  0  0  0  0  0  0  0  0  0  0  0
    0.2390   -2.2063   -2.7136 C   0  0  0  0  0  0  0  0  0  0  0  0
    0.2068   -0.8378   -2.3537 N   0  0  0  0  0  0  0  0  0  0  0  0
   -0.0780   -0.2926   -1.0909 C   0  0  0  0  0  0  0  0  0  0  0  0
   -1.1187   -0.8009   -0.2843 C   0  0  0  0  0  0  0  0  0  0  0  0
   -1.4376   -0.2003    0.9273 C   0  0  0  0  0  0  0  0  0  0  0  0
   -0.7419    0.9362    1.3745 C   0  0  0  0  0  0  0  0  0  0  0  0
   -1.1368    1.4492    2.5772 O   0  0  0  0  0  0  0  0  0  0  0  0
   -0.4634    2.5822    3.0959 C   0  0  0  0  0  0  0  0  0  0  0  0
   -1.0482    2.9447    4.4390 C   0  0  0  0  0  0  0  0  0  0  0  0
   -0.2645    2.9012    5.5745 C   0  0  0  0  0  0  0  0  0  0  0  0
   -0.8133    3.2802    6.8273 C   0  0  0  0  0  0  0  0  0  0  0  0
   -2.0512    3.6836    6.9896 N   0  0  0  0  0  0  0  0  0  0  0  0
   -2.8576    3.7389    5.8919 C   0  0  0  0  0  0  0  0  0  0  0  0
   -4.1980    4.1832    6.0683 C   0  0  0  0  0  0  0  0  0  0  0  0
   -5.0587    4.2650    4.9952 C   0  0  0  0  0  0  0  0  0  0  0  0
   -4.6171    3.9024    3.6979 C   0  0  0  0  0  0  0  0  0  0  0  0
   -3.3249    3.4637    3.4925 C   0  0  0  0  0  0  0  0  0  0  0  0
   -2.4077    3.3737    4.5775 C   0  0  0  0  0  0  0  0  0  0  0  0
    0.2838    1.4591    0.5775 C   0  0  0  0  0  0  0  0  0  0  0  0
    0.6120    0.8402   -0.6350 C   0  0  0  0  0  0  0  0  0  0  0  0
    0.4513   -3.2243   -1.8597 C   0  0  0  0  0  0  0  0  0  0  0  0
    0.5058   -4.7286   -2.0719 C   0  0  0  0  0  0  0  0  0  0  0  0
    1.1881   -4.8506   -0.6768 C   0  0  0  0  0  0  0  0  0  0  0  0
    0.8798   -3.3481   -0.4076 C   0  0  0  0  0  0  0  0  0  0  0  0
   -1.9922   -3.4599   -5.1139 N   0  0  0  0  0  0  0  0  0  0  0  0
   -3.3698   -3.2636   -5.3732 O   0  0  0  0  0  0  0  0  0  0  0  0
   -1.8269   -0.6609   -3.5557 H   0  0  0  0  0  0  0  0  0  0  0  0
   -3.2084   -1.3429   -4.3467 H   0  0  0  0  0  0  0  0  0  0  0  0
    0.4948   -1.6782   -4.7837 H   0  0  0  0  0  0  0  0  0  0  0  0
    0.3531   -3.4262   -4.5001 H   0  0  0  0  0  0  0  0  0  0  0  0
    0.7578   -0.2343   -2.9578 H   0  0  0  0  0  0  0  0  0  0  0  0
   -1.6883   -1.6665   -0.6271 H   0  0  0  0  0  0  0  0  0  0  0  0
   -2.2428   -0.5933    1.5516 H   0  0  0  0  0  0  0  0  0  0  0  0
   -0.5620    3.4355    2.3960 H   0  0  0  0  0  0  0  0  0  0  0  0
    0.6153    2.3708    3.2081 H   0  0  0  0  0  0  0  0  0  0  0  0
    0.7782    2.5776    5.5197 H   0  0  0  0  0  0  0  0  0  0  0  0
   -0.1814    3.2404    7.7240 H   0  0  0  0  0  0  0  0  0  0  0  0
   -4.5055    4.4526    7.0806 H   0  0  0  0  0  0  0  0  0  0  0  0
   -6.0863    4.6079    5.1404 H   0  0  0  0  0  0  0  0  0  0  0  0
   -5.3094    3.9657    2.8545 H   0  0  0  0  0  0  0  0  0  0  0  0
   -3.0054    3.1639    2.4939 H   0  0  0  0  0  0  0  0  0  0  0  0
    0.8473    2.3403    0.8853 H   0  0  0  0  0  0  0  0  0  0  0  0
    1.4265    1.2525   -1.2378 H   0  0  0  0  0  0  0  0  0  0  0  0
    1.0857   -5.0869   -2.9391 H   0  0  0  0  0  0  0  0  0  0  0  0
   -0.4892   -5.2042   -2.1202 H   0  0  0  0  0  0  0  0  0  0  0  0
    2.2658   -5.0603   -0.7473 H   0  0  0  0  0  0  0  0  0  0  0  0
    0.7379   -5.5699    0.0231 H   0  0  0  0  0  0  0  0  0  0  0  0
    1.7212   -2.7110   -0.0893 H   0  0  0  0  0  0  0  0  0  0  0  0
    0.0615   -3.1932    0.3171 H   0  0  0  0  0  0  0  0  0  0  0  0
   -3.6276   -4.1038   -5.7692 H   0  0  0  0  0  0  0  0  0  0  0  0
  1  2  1  0
  1 30  1  0
  1 31  1  0
  2  3  1  0
  2 28  2  0
  3  4  1  0
  3 32  1  0
  3 33  1  0
  4  5  1  0
  4 24  2  0
  5  6  1  0
  5 34  1  0
  6  7  2  0
  6 23  1  0
  7  8  1  0
  7 35  1  0
  8  9  2  0
  8 36  1  0
  9 10  1  0
  9 22  1  0
 10 11  1  0
 11 12  1  0
 11 37  1  0
 11 38  1  0
 12 13  2  0
 12 21  1  0
 13 14  1  0
 13 39  1  0
 14 15  2  0
 14 40  1  0
 15 16  1  0
 16 17  1  0
 16 21  2  0
 17 18  2  0
 17 41  1  0
 18 19  1  0
 18 42  1  0
 19 20  2  0
 19 43  1  0
 20 21  1  0
 20 44  1  0
 22 23  2  0
 22 45  1  0
 23 46  1  0
 24 25  1  0
 24 27  1  0
 25 26  1  0
 25 47  1  0
 25 48  1  0
 26 27  1  0
 26 49  1  0
 26 50  1  0
 27 51  1  0
 27 52  1  0
 28 29  1  0
 29 53  1  0
M  END

