
     RDKit          3D

 42 43  0  0  0  0  0  0  0  0999 V2000
    9.0163   -3.9036   -2.8696 C   0  0  0  0  0  0  0  0  0  0  0  0
    8.1228   -2.9308   -2.1553 C   0  0  0  0  0  0  0  0  0  0  0  0
    8.5480   -1.6914   -1.7575 C   0  0  0  0  0  0  0  0  0  0  0  0
    7.6534   -0.7791   -1.0697 C   0  0  0  0  0  0  0  0  0  0  0  0
    7.8893    0.3424   -0.6631 O   0  0  0  0  0  0  0  0  0  0  0  0
    6.3638   -1.3462   -0.8952 N   0  0  0  0  0  0  0  0  0  0  0  0
    5.6919   -0.7472   -0.4204 H   0  0  0  0  0  0  0  0  0  0  0  0
    6.0026   -2.5899   -1.3119 C   0  0  0  0  0  0  0  0  0  0  0  0
    4.5884   -3.0304   -1.0094 C   0  0  0  0  0  0  0  0  0  0  0  0
    4.1339   -4.2825   -1.7713 C   0  0  0  0  0  0  0  0  0  0  0  0
    4.8873   -5.4705   -1.4356 N   0  0  0  0  0  0  0  0  0  0  0  0
    4.4043   -6.4139   -0.5687 C   0  0  0  0  0  0  0  0  0  0  0  0
    3.2863   -6.3344   -0.0718 O   0  0  0  0  0  0  0  0  0  0  0  0
    5.3247   -7.5492   -0.2773 C   0  0  0  0  0  0  0  0  0  0  0  0
    6.7602   -7.8806   -1.2257 S   0  0  0  0  0  0  0  0  0  0  0  0
    7.1131   -9.2413   -0.1871 C   0  0  0  0  0  0  0  0  0  0  0  0
    8.3270  -10.1149   -0.4030 C   0  0  1  0  0  0  0  0  0  0  0  0
    9.2637  -10.0375    0.8151 C   0  0  0  0  0  0  0  0  0  0  0  0
    7.8999  -11.5626   -0.6997 C   0  0  0  0  0  0  0  0  0  0  0  0
    6.2371   -9.4210    0.7571 N   0  0  0  0  0  0  0  0  0  0  0  0
    5.2222   -8.4947    0.7322 C   0  0  0  0  0  0  0  0  0  0  0  0
    4.1430   -8.5963    1.7669 C   0  0  0  0  0  0  0  0  0  0  0  0
    6.8365   -3.3812   -1.9273 N   0  0  0  0  0  0  0  0  0  0  0  0
   10.0288   -3.5041   -3.0152 H   0  0  0  0  0  0  0  0  0  0  0  0
    8.5852   -4.1576   -3.8520 H   0  0  0  0  0  0  0  0  0  0  0  0
    9.0785   -4.8451   -2.2993 H   0  0  0  0  0  0  0  0  0  0  0  0
    9.5651   -1.3428   -1.9395 H   0  0  0  0  0  0  0  0  0  0  0  0
    3.9022   -2.1951   -1.2354 H   0  0  0  0  0  0  0  0  0  0  0  0
    4.5033   -3.2129    0.0772 H   0  0  0  0  0  0  0  0  0  0  0  0
    4.2096   -4.0981   -2.8554 H   0  0  0  0  0  0  0  0  0  0  0  0
    3.0829   -4.4835   -1.5261 H   0  0  0  0  0  0  0  0  0  0  0  0
    5.8729   -5.4335   -1.6800 H   0  0  0  0  0  0  0  0  0  0  0  0
    8.8666   -9.7234   -1.2823 H   0  0  0  0  0  0  0  0  0  0  0  0
    8.7417  -10.3849    1.7198 H   0  0  0  0  0  0  0  0  0  0  0  0
    9.6037   -9.0056    0.9945 H   0  0  0  0  0  0  0  0  0  0  0  0
   10.1522  -10.6699    0.6594 H   0  0  0  0  0  0  0  0  0  0  0  0
    7.3225  -11.9699    0.1443 H   0  0  0  0  0  0  0  0  0  0  0  0
    8.7837  -12.2005   -0.8596 H   0  0  0  0  0  0  0  0  0  0  0  0
    7.2690  -11.6175   -1.6004 H   0  0  0  0  0  0  0  0  0  0  0  0
    4.5952   -8.6431    2.7705 H   0  0  0  0  0  0  0  0  0  0  0  0
    3.5847   -9.5371    1.6260 H   0  0  0  0  0  0  0  0  0  0  0  0
    3.4422   -7.7585    1.6974 H   0  0  0  0  0  0  0  0  0  0  0  0
  1  2  1  0
  1 24  1  0
  1 25  1  0
  1 26  1  0
  2  3  2  0
  2 23  1  0
  3  4  1  0
  3 27  1  0
  4  5  2  0
  4  6  1  0
  6  7  1  0
  6  8  1  0
  8  9  1  0
  8 23  2  0
  9 10  1  0
  9 28  1  0
  9 29  1  0
 10 11  1  0
 10 30  1  0
 10 31  1  0
 11 12  1  0
 11 32  1  0
 12 13  2  0
 12 14  1  0
 14 15  1  0
 14 21  2  0
 15 16  1  0
 16 17  1  0
 16 20  2  0
 17 18  1  0
 17 19  1  0
 17 33  1  6
 18 34  1  0
 18 35  1  0
 18 36  1  0
 19 37  1  0
 19 38  1  0
 19 39  1  0
 20 21  1  0
 21 22  1  0
 22 40  1  0
 22 41  1  0
 22 42  1  0
M  END

