
     RDKit          3D

 30 32  0  0  0  0  0  0  0  0999 V2000
    7.1584    3.3415   -1.4817 N   0  0  0  0  0  0  0  0  0  0  0  0
    6.6399    2.4100   -1.0216 C   0  0  0  0  0  0  0  0  0  0  0  0
    6.0012    1.2553   -0.4515 C   0  0  0  0  0  0  0  0  0  0  0  0
    4.9664    1.4105    0.4897 C   0  0  0  0  0  0  0  0  0  0  0  0
    4.3575    0.2784    1.0273 C   0  0  0  0  0  0  0  0  0  0  0  0
    4.7695   -1.0014    0.6420 C   0  0  0  0  0  0  0  0  0  0  0  0
    5.8003   -1.1683   -0.2927 C   0  0  0  0  0  0  0  0  0  0  0  0
    6.3023   -2.5480   -0.7030 C   0  0  0  0  0  0  0  0  0  0  0  0
    5.3997   -3.6423   -0.4261 N   0  0  0  0  0  0  0  0  0  0  0  0
    5.4982   -4.5237    0.6437 C   0  0  0  0  0  0  0  0  0  0  0  0
    4.4650   -5.4245    0.6118 C   0  0  0  0  0  0  0  0  0  0  0  0
    3.6638   -5.1007   -0.5390 C   0  0  0  0  0  0  0  0  0  0  0  0
    2.4983   -5.6437   -1.1125 C   0  0  0  0  0  0  0  0  0  0  0  0
    1.9741   -5.0724   -2.2668 C   0  0  0  0  0  0  0  0  0  0  0  0
    2.6101   -3.9605   -2.8479 C   0  0  0  0  0  0  0  0  0  0  0  0
    2.0732   -3.4315   -3.9611 F   0  0  0  0  0  0  0  0  0  0  0  0
    3.7589   -3.3842   -2.3255 C   0  0  0  0  0  0  0  0  0  0  0  0
    4.2787   -3.9751   -1.1630 C   0  0  0  0  0  0  0  0  0  0  0  0
    6.4090   -0.0331   -0.8394 C   0  0  0  0  0  0  0  0  0  0  0  0
    4.6485    2.4118    0.7856 H   0  0  0  0  0  0  0  0  0  0  0  0
    3.5497    0.3912    1.7541 H   0  0  0  0  0  0  0  0  0  0  0  0
    4.2804   -1.8802    1.0675 H   0  0  0  0  0  0  0  0  0  0  0  0
    7.2492   -2.7592   -0.1789 H   0  0  0  0  0  0  0  0  0  0  0  0
    6.5462   -2.5437   -1.7786 H   0  0  0  0  0  0  0  0  0  0  0  0
    6.3238   -4.4311    1.3477 H   0  0  0  0  0  0  0  0  0  0  0  0
    4.2979   -6.2325    1.3209 H   0  0  0  0  0  0  0  0  0  0  0  0
    2.0074   -6.5073   -0.6572 H   0  0  0  0  0  0  0  0  0  0  0  0
    1.0723   -5.4633   -2.7413 H   0  0  0  0  0  0  0  0  0  0  0  0
    4.2036   -2.5150   -2.8111 H   0  0  0  0  0  0  0  0  0  0  0  0
    7.2092   -0.1378   -1.5766 H   0  0  0  0  0  0  0  0  0  0  0  0
  1  2  3  0
  2  3  1  0
  3  4  2  0
  3 19  1  0
  4  5  1  0
  4 20  1  0
  5  6  2  0
  5 21  1  0
  6  7  1  0
  6 22  1  0
  7  8  1  0
  7 19  2  0
  8  9  1  0
  8 23  1  0
  8 24  1  0
  9 10  1  0
  9 18  1  0
 10 11  2  0
 10 25  1  0
 11 12  1  0
 11 26  1  0
 12 13  1  0
 12 18  2  0
 13 14  2  0
 13 27  1  0
 14 15  1  0
 14 28  1  0
 15 16  1  0
 15 17  2  0
 17 18  1  0
 17 29  1  0
 19 30  1  0
M  END

