
     RDKit          3D

 92 97  0  0  0  0  0  0  0  0999 V2000
    6.3233    3.4488   -2.9989 C   0  0  0  0  0  0  0  0  0  0  0  0
    6.4614    2.2069   -3.6374 O   0  0  0  0  0  0  0  0  0  0  0  0
    5.6772    1.1849   -3.0831 C   0  0  0  0  0  0  0  0  0  0  0  0
    5.9293   -0.0809   -3.9008 C   0  0  0  0  0  0  0  0  0  0  0  0
    5.2035   -1.2512   -3.4036 N   0  0  0  0  0  0  0  0  0  0  0  0
    3.9585   -1.5560   -3.8694 C   0  0  0  0  0  0  0  0  0  0  0  0
    3.2949   -2.5237   -3.5475 O   0  0  0  0  0  0  0  0  0  0  0  0
    3.5013   -0.6460   -4.7675 O   0  0  0  0  0  0  0  0  0  0  0  0
    5.8478   -2.0721   -2.3542 C   0  0  1  0  0  0  0  0  0  0  0  0
    6.8119   -1.5677   -2.2170 H   0  0  0  0  0  0  0  0  0  0  0  0
    5.1448   -2.0299   -0.9692 C   0  0  0  0  0  0  0  0  0  0  0  0
    4.1784   -3.1773   -0.6439 C   0  0  0  0  0  0  0  0  0  0  0  0
    4.8205   -4.5393   -0.9253 C   0  0  0  0  0  0  0  0  0  0  0  0
    5.2621   -4.6419   -2.3882 C   0  0  0  0  0  0  0  0  0  0  0  0
    6.2127   -3.5159   -2.8540 C   0  0  2  0  0  0  0  0  0  0  0  0
    6.1750   -3.4857   -3.9473 H   0  0  0  0  0  0  0  0  0  0  0  0
    7.6205   -3.8315   -2.5334 N   0  0  0  0  0  0  0  0  0  0  0  0
    8.1955   -3.8226   -1.2894 C   0  0  0  0  0  0  0  0  0  0  0  0
    9.4184   -4.2944   -1.2969 N   0  0  0  0  0  0  0  0  0  0  0  0
    9.6672   -4.6578   -2.5967 C   0  0  0  0  0  0  0  0  0  0  0  0
   10.9304   -5.3607   -2.9860 C   0  0  0  0  0  0  0  0  0  0  0  0
   10.8812   -6.3991   -3.6438 O   0  0  0  0  0  0  0  0  0  0  0  0
   12.1200   -4.8412   -2.5336 N   0  0  0  0  0  0  0  0  0  0  0  0
   12.1901   -3.4566   -2.0272 C   0  0  0  0  0  0  0  0  0  0  0  0
   13.6236   -2.8950   -2.0042 C   0  0  0  0  0  0  0  0  0  0  0  0
   14.4852   -3.4390   -3.0417 N   0  0  0  0  0  0  0  0  0  0  0  0
   14.1488   -3.0632   -4.4098 C   0  0  0  0  0  0  0  0  0  0  0  0
   14.3840   -1.5907   -4.6975 C   0  0  0  0  0  0  0  0  0  0  0  0
   15.5352   -0.9434   -4.2201 C   0  0  0  0  0  0  0  0  0  0  0  0
   15.7752    0.3986   -4.5224 C   0  0  0  0  0  0  0  0  0  0  0  0
   14.8678    1.1176   -5.3090 C   0  0  0  0  0  0  0  0  0  0  0  0
   13.7174    0.4844   -5.7861 C   0  0  0  0  0  0  0  0  0  0  0  0
   13.4777   -0.8591   -5.4778 C   0  0  0  0  0  0  0  0  0  0  0  0
   14.6324   -4.8626   -2.7980 C   0  0  0  0  0  0  0  0  0  0  0  0
   13.3115   -5.6736   -2.8108 C   0  0  1  0  0  0  0  0  0  0  0  0
   13.1511   -6.0729   -3.8234 H   0  0  0  0  0  0  0  0  0  0  0  0
   13.3818   -6.9167   -1.8826 C   0  0  0  0  0  0  0  0  0  0  0  0
   13.5595   -6.6394   -0.4050 C   0  0  0  0  0  0  0  0  0  0  0  0
   12.4979   -6.1492    0.3791 C   0  0  0  0  0  0  0  0  0  0  0  0
   12.6742   -5.8877    1.7409 C   0  0  0  0  0  0  0  0  0  0  0  0
   13.9107   -6.1161    2.3533 C   0  0  0  0  0  0  0  0  0  0  0  0
   14.9717   -6.6107    1.5906 C   0  0  0  0  0  0  0  0  0  0  0  0
   14.7939   -6.8675    0.2274 C   0  0  0  0  0  0  0  0  0  0  0  0
    8.5624   -4.3823   -3.3996 C   0  0  0  0  0  0  0  0  0  0  0  0
    8.3606   -4.5247   -4.8578 C   0  0  0  0  0  0  0  0  0  0  0  0
    8.5297   -5.7720   -5.4875 C   0  0  0  0  0  0  0  0  0  0  0  0
    8.3479   -5.8981   -6.8668 C   0  0  0  0  0  0  0  0  0  0  0  0
    7.9974   -4.7888   -7.6417 C   0  0  0  0  0  0  0  0  0  0  0  0
    7.8401   -3.5412   -7.0304 C   0  0  0  0  0  0  0  0  0  0  0  0
    8.0244   -3.4097   -5.6525 C   0  0  0  0  0  0  0  0  0  0  0  0
    6.9769    4.1670   -3.5150 H   0  0  0  0  0  0  0  0  0  0  0  0
    6.6230    3.4027   -1.9320 H   0  0  0  0  0  0  0  0  0  0  0  0
    5.2809    3.8244   -3.0434 H   0  0  0  0  0  0  0  0  0  0  0  0
    4.5977    1.4393   -3.1171 H   0  0  0  0  0  0  0  0  0  0  0  0
    5.9404    1.0158   -2.0165 H   0  0  0  0  0  0  0  0  0  0  0  0
    7.0079   -0.3004   -3.8893 H   0  0  0  0  0  0  0  0  0  0  0  0
    5.6487    0.1123   -4.9431 H   0  0  0  0  0  0  0  0  0  0  0  0
    2.6329   -0.9757   -5.0466 H   0  0  0  0  0  0  0  0  0  0  0  0
    4.6417   -1.0552   -0.8673 H   0  0  0  0  0  0  0  0  0  0  0  0
    5.9434   -2.0303   -0.2062 H   0  0  0  0  0  0  0  0  0  0  0  0
    3.2629   -3.0768   -1.2431 H   0  0  0  0  0  0  0  0  0  0  0  0
    3.8879   -3.1030    0.4176 H   0  0  0  0  0  0  0  0  0  0  0  0
    4.1045   -5.3487   -0.7080 H   0  0  0  0  0  0  0  0  0  0  0  0
    5.6764   -4.7052   -0.2465 H   0  0  0  0  0  0  0  0  0  0  0  0
    4.3685   -4.5874   -3.0250 H   0  0  0  0  0  0  0  0  0  0  0  0
    5.7529   -5.6077   -2.5878 H   0  0  0  0  0  0  0  0  0  0  0  0
    7.6689   -3.4630   -0.4076 H   0  0  0  0  0  0  0  0  0  0  0  0
   11.7480   -3.3911   -1.0224 H   0  0  0  0  0  0  0  0  0  0  0  0
   11.5649   -2.8295   -2.6824 H   0  0  0  0  0  0  0  0  0  0  0  0
   14.0977   -3.1207   -1.0352 H   0  0  0  0  0  0  0  0  0  0  0  0
   13.5741   -1.7983   -2.0859 H   0  0  0  0  0  0  0  0  0  0  0  0
   13.1089   -3.3225   -4.7026 H   0  0  0  0  0  0  0  0  0  0  0  0
   14.8014   -3.6591   -5.0734 H   0  0  0  0  0  0  0  0  0  0  0  0
   16.2336   -1.5083   -3.5982 H   0  0  0  0  0  0  0  0  0  0  0  0
   16.6764    0.8881   -4.1429 H   0  0  0  0  0  0  0  0  0  0  0  0
   15.0561    2.1682   -5.5454 H   0  0  0  0  0  0  0  0  0  0  0  0
   12.9993    1.0385   -6.3966 H   0  0  0  0  0  0  0  0  0  0  0  0
   12.5723   -1.3482   -5.8502 H   0  0  0  0  0  0  0  0  0  0  0  0
   15.1207   -4.9722   -1.8161 H   0  0  0  0  0  0  0  0  0  0  0  0
   15.3162   -5.2998   -3.5434 H   0  0  0  0  0  0  0  0  0  0  0  0
   12.4638   -7.4983   -2.0541 H   0  0  0  0  0  0  0  0  0  0  0  0
   14.2178   -7.5421   -2.2392 H   0  0  0  0  0  0  0  0  0  0  0  0
   11.5219   -5.9646   -0.0758 H   0  0  0  0  0  0  0  0  0  0  0  0
   11.8340   -5.5078    2.3286 H   0  0  0  0  0  0  0  0  0  0  0  0
   14.0443   -5.9153    3.4195 H   0  0  0  0  0  0  0  0  0  0  0  0
   15.9420   -6.8011    2.0572 H   0  0  0  0  0  0  0  0  0  0  0  0
   15.6298   -7.2623   -0.3581 H   0  0  0  0  0  0  0  0  0  0  0  0
    8.8328   -6.6288   -4.8861 H   0  0  0  0  0  0  0  0  0  0  0  0
    8.4841   -6.8742   -7.3394 H   0  0  0  0  0  0  0  0  0  0  0  0
    7.8555   -4.8932   -8.7205 H   0  0  0  0  0  0  0  0  0  0  0  0
    7.5836   -2.6636   -7.6295 H   0  0  0  0  0  0  0  0  0  0  0  0
    7.9288   -2.4246   -5.1892 H   0  0  0  0  0  0  0  0  0  0  0  0
  1  2  1  0
  1 51  1  0
  1 52  1  0
  1 53  1  0
  2  3  1  0
  3  4  1  0
  3 54  1  0
  3 55  1  0
  4  5  1  0
  4 56  1  0
  4 57  1  0
  5  6  1  0
  5  9  1  0
  6  7  2  0
  6  8  1  0
  8 58  1  0
  9 10  1  1
  9 11  1  0
  9 15  1  0
 11 12  1  0
 11 59  1  0
 11 60  1  0
 12 13  1  0
 12 61  1  0
 12 62  1  0
 13 14  1  0
 13 63  1  0
 13 64  1  0
 14 15  1  0
 14 65  1  0
 14 66  1  0
 15 16  1  6
 15 17  1  0
 17 18  1  0
 17 44  1  0
 18 19  2  0
 18 67  1  0
 19 20  1  0
 20 21  1  0
 20 44  2  0
 21 22  2  0
 21 23  1  0
 23 24  1  0
 23 35  1  0
 24 25  1  0
 24 68  1  0
 24 69  1  0
 25 26  1  0
 25 70  1  0
 25 71  1  0
 26 27  1  0
 26 34  1  0
 27 28  1  0
 27 72  1  0
 27 73  1  0
 28 29  2  0
 28 33  1  0
 29 30  1  0
 29 74  1  0
 30 31  2  0
 30 75  1  0
 31 32  1  0
 31 76  1  0
 32 33  2  0
 32 77  1  0
 33 78  1  0
 34 35  1  0
 34 79  1  0
 34 80  1  0
 35 36  1  6
 35 37  1  0
 37 38  1  0
 37 81  1  0
 37 82  1  0
 38 39  2  0
 38 43  1  0
 39 40  1  0
 39 83  1  0
 40 41  2  0
 40 84  1  0
 41 42  1  0
 41 85  1  0
 42 43  2  0
 42 86  1  0
 43 87  1  0
 44 45  1  0
 45 46  2  0
 45 50  1  0
 46 47  1  0
 46 88  1  0
 47 48  2  0
 47 89  1  0
 48 49  1  0
 48 90  1  0
 49 50  2  0
 49 91  1  0
 50 92  1  0
M  END

