
     RDKit          3D

 77 83  0  0  0  0  0  0  0  0999 V2000
    4.5508    1.2664   -2.4471 C   0  0  0  0  0  0  0  0  0  0  0  0
    3.6983    0.1983   -3.1519 C   0  0  0  0  0  0  0  0  0  0  0  0
    3.7597   -1.1597   -2.5051 C   0  0  0  0  0  0  0  0  0  0  0  0
    2.9340   -1.6578   -1.4882 C   0  0  0  0  0  0  0  0  0  0  0  0
    1.7886   -0.9195   -0.8631 C   0  0  0  0  0  0  0  0  0  0  0  0
    3.4058   -2.9821   -1.1871 C   0  0  0  0  0  0  0  0  0  0  0  0
    2.9652   -3.9486   -0.2608 C   0  0  0  0  0  0  0  0  0  0  0  0
    1.7947   -3.6456    0.6247 C   0  0  0  0  0  0  0  0  0  0  0  0
    0.4887   -3.9793    0.2020 C   0  0  0  0  0  0  0  0  0  0  0  0
    0.2415   -4.6055   -1.0651 C   0  0  0  0  0  0  0  0  0  0  0  0
   -1.0311   -4.9259   -1.4663 C   0  0  0  0  0  0  0  0  0  0  0  0
   -2.1440   -4.6397   -0.6245 C   0  0  0  0  0  0  0  0  0  0  0  0
   -1.9534   -4.0405    0.5950 C   0  0  0  0  0  0  0  0  0  0  0  0
   -0.6417   -3.6867    1.0581 C   0  0  0  0  0  0  0  0  0  0  0  0
   -0.4368   -3.0675    2.3140 C   0  0  0  0  0  0  0  0  0  0  0  0
   -1.6071   -2.7648    3.2001 C   0  0  0  0  0  0  0  0  0  0  0  0
   -2.0589   -3.7072    4.1394 C   0  0  0  0  0  0  0  0  0  0  0  0
   -3.1506   -3.4252    4.9659 C   0  0  0  0  0  0  0  0  0  0  0  0
   -3.8084   -2.1956    4.8662 C   0  0  0  0  0  0  0  0  0  0  0  0
   -3.3681   -1.2499    3.9355 C   0  0  0  0  0  0  0  0  0  0  0  0
   -2.2764   -1.5325    3.1092 C   0  0  0  0  0  0  0  0  0  0  0  0
    0.8730   -2.7346    2.7333 C   0  0  0  0  0  0  0  0  0  0  0  0
    1.1245   -2.1061    3.9991 C   0  0  0  0  0  0  0  0  0  0  0  0
    2.3975   -1.7872    4.3990 C   0  0  0  0  0  0  0  0  0  0  0  0
    3.5091   -2.0770    3.5568 C   0  0  0  0  0  0  0  0  0  0  0  0
    3.3169   -2.6771    2.3378 C   0  0  0  0  0  0  0  0  0  0  0  0
    2.0037   -3.0277    1.8778 C   0  0  0  0  0  0  0  0  0  0  0  0
    3.6125   -5.1962   -0.1561 C   0  0  0  0  0  0  0  0  0  0  0  0
    3.3673   -6.3357    0.6857 C   0  0  0  0  0  0  0  0  0  0  0  0
    2.3022   -6.5040    1.7274 C   0  0  0  0  0  0  0  0  0  0  0  0
    4.3320   -7.2958    0.3517 C   0  0  0  0  0  0  0  0  0  0  0  0
    4.4862   -8.6779    0.9282 C   0  0  0  0  0  0  0  0  0  0  0  0
    3.6939   -9.7614    0.1781 C   0  0  0  0  0  0  0  0  0  0  0  0
    5.1376   -6.7381   -0.6797 C   0  0  0  0  0  0  0  0  0  0  0  0
    6.2983   -7.3578   -1.3867 C   0  0  0  0  0  0  0  0  0  0  0  0
    4.7056   -5.4967   -0.9697 N   0  0  0  0  0  0  0  0  0  0  0  0
    5.3285   -4.5579   -2.0430 B   0  0  2  0  0  0  0  0  0  0  0  0
    5.2500   -5.1552   -3.3017 F   0  0  0  0  0  0  0  0  0  0  0  0
    6.6597   -4.2826   -1.7268 F   0  0  0  0  0  0  0  0  0  0  0  0
    4.4947   -3.2444   -2.0194 N   0  0  0  0  0  0  0  0  0  0  0  0
    4.7149   -2.1712   -2.8015 C   0  0  0  0  0  0  0  0  0  0  0  0
    5.8204   -2.1368   -3.8054 C   0  0  0  0  0  0  0  0  0  0  0  0
    4.4743    2.2391   -2.9601 H   0  0  0  0  0  0  0  0  0  0  0  0
    5.6139    0.9776   -2.4256 H   0  0  0  0  0  0  0  0  0  0  0  0
    4.2284    1.4067   -1.4030 H   0  0  0  0  0  0  0  0  0  0  0  0
    4.0178    0.1178   -4.2043 H   0  0  0  0  0  0  0  0  0  0  0  0
    2.6507    0.5397   -3.1908 H   0  0  0  0  0  0  0  0  0  0  0  0
    1.6525    0.0607   -1.3409 H   0  0  0  0  0  0  0  0  0  0  0  0
    1.9506   -0.7453    0.2120 H   0  0  0  0  0  0  0  0  0  0  0  0
    0.8414   -1.4719   -0.9552 H   0  0  0  0  0  0  0  0  0  0  0  0
    1.0884   -4.8274   -1.7160 H   0  0  0  0  0  0  0  0  0  0  0  0
   -1.1935   -5.4024   -2.4362 H   0  0  0  0  0  0  0  0  0  0  0  0
   -3.1531   -4.8993   -0.9542 H   0  0  0  0  0  0  0  0  0  0  0  0
   -2.8091   -3.8231    1.2352 H   0  0  0  0  0  0  0  0  0  0  0  0
   -1.5472   -4.6696    4.2203 H   0  0  0  0  0  0  0  0  0  0  0  0
   -3.4883   -4.1703    5.6909 H   0  0  0  0  0  0  0  0  0  0  0  0
   -4.6620   -1.9749    5.5123 H   0  0  0  0  0  0  0  0  0  0  0  0
   -3.8766   -0.2860    3.8509 H   0  0  0  0  0  0  0  0  0  0  0  0
   -1.9352   -0.7905    2.3827 H   0  0  0  0  0  0  0  0  0  0  0  0
    0.2770   -1.8826    4.6481 H   0  0  0  0  0  0  0  0  0  0  0  0
    2.5625   -1.3090    5.3678 H   0  0  0  0  0  0  0  0  0  0  0  0
    4.5193   -1.8197    3.8848 H   0  0  0  0  0  0  0  0  0  0  0  0
    4.1736   -2.8962    1.6989 H   0  0  0  0  0  0  0  0  0  0  0  0
    2.3527   -5.7222    2.5002 H   0  0  0  0  0  0  0  0  0  0  0  0
    2.4009   -7.4771    2.2285 H   0  0  0  0  0  0  0  0  0  0  0  0
    1.2919   -6.4550    1.2927 H   0  0  0  0  0  0  0  0  0  0  0  0
    4.1769   -8.6712    1.9863 H   0  0  0  0  0  0  0  0  0  0  0  0
    5.5539   -8.9537    0.9385 H   0  0  0  0  0  0  0  0  0  0  0  0
    2.6144   -9.5410    0.1856 H   0  0  0  0  0  0  0  0  0  0  0  0
    3.8416  -10.7524    0.6377 H   0  0  0  0  0  0  0  0  0  0  0  0
    4.0075   -9.8270   -0.8761 H   0  0  0  0  0  0  0  0  0  0  0  0
    6.5424   -8.3417   -0.9666 H   0  0  0  0  0  0  0  0  0  0  0  0
    7.1819   -6.7049   -1.3196 H   0  0  0  0  0  0  0  0  0  0  0  0
    6.0782   -7.4718   -2.4601 H   0  0  0  0  0  0  0  0  0  0  0  0
    5.7381   -2.9897   -4.4967 H   0  0  0  0  0  0  0  0  0  0  0  0
    6.7967   -2.2368   -3.3054 H   0  0  0  0  0  0  0  0  0  0  0  0
    5.8081   -1.2024   -4.3808 H   0  0  0  0  0  0  0  0  0  0  0  0
  1  2  1  0
  1 43  1  0
  1 44  1  0
  1 45  1  0
  2  3  1  0
  2 46  1  0
  2 47  1  0
  3  4  2  0
  3 41  1  0
  4  5  1  0
  4  6  1  0
  5 48  1  0
  5 49  1  0
  5 50  1  0
  6  7  2  0
  6 40  1  0
  7  8  1  0
  7 28  1  0
  8  9  1  0
  8 27  2  0
  9 10  2  0
  9 14  1  0
 10 11  1  0
 10 51  1  0
 11 12  2  0
 11 52  1  0
 12 13  1  0
 12 53  1  0
 13 14  2  0
 13 54  1  0
 14 15  1  0
 15 16  1  0
 15 22  2  0
 16 17  2  0
 16 21  1  0
 17 18  1  0
 17 55  1  0
 18 19  2  0
 18 56  1  0
 19 20  1  0
 19 57  1  0
 20 21  2  0
 20 58  1  0
 21 59  1  0
 22 23  1  0
 22 27  1  0
 23 24  2  0
 23 60  1  0
 24 25  1  0
 24 61  1  0
 25 26  2  0
 25 62  1  0
 26 27  1  0
 26 63  1  0
 28 29  2  0
 28 36  1  0
 29 30  1  0
 29 31  1  0
 30 64  1  0
 30 65  1  0
 30 66  1  0
 31 32  1  0
 31 34  2  0
 32 33  1  0
 32 67  1  0
 32 68  1  0
 33 69  1  0
 33 70  1  0
 33 71  1  0
 34 35  1  0
 34 36  1  0
 35 72  1  0
 35 73  1  0
 35 74  1  0
 36 37  1  0
 37 38  1  6
 37 39  1  0
 37 40  1  0
 40 41  2  0
 41 42  1  0
 42 75  1  0
 42 76  1  0
 42 77  1  0
M  CHG  2  37  -1  40   1
M  END

