
     RDKit          3D

 32 34  0  0  0  0  0  0  0  0999 V2000
    1.9502    1.3476    1.2395 N   0  0  0  0  0  0  0  0  0  0  0  0
    2.8377    0.3881    0.7879 C   0  0  0  0  0  0  0  0  0  0  0  0
    4.2090    0.5521    0.8873 C   0  0  0  0  0  0  0  0  0  0  0  0
    5.0421   -0.4529    0.4837 N   0  0  0  0  0  0  0  0  0  0  0  0
    6.3859   -0.4356    0.5235 N   0  0  0  0  0  0  0  0  0  0  0  0
    6.7172   -1.6373    0.0217 C   0  0  0  0  0  0  0  0  0  0  0  0
    8.1659   -2.0261   -0.1071 C   0  0  1  0  0  0  0  0  0  0  0  0
    8.5431   -3.2496    0.7651 C   0  0  0  0  0  0  0  0  0  0  0  0
    8.0620   -4.5859    0.1840 C   0  0  0  0  0  0  0  0  0  0  0  0
    8.5439   -4.7751   -1.2606 C   0  0  0  0  0  0  0  0  0  0  0  0
    8.1200   -3.5987   -2.1500 C   0  0  0  0  0  0  0  0  0  0  0  0
    8.6012   -2.2596   -1.5754 C   0  0  0  0  0  0  0  0  0  0  0  0
    5.6670   -2.4136   -0.3338 N   0  0  0  0  0  0  0  0  0  0  0  0
    4.6043   -1.6595   -0.0396 C   0  0  0  0  0  0  0  0  0  0  0  0
    3.2115   -1.8590   -0.1643 C   0  0  0  0  0  0  0  0  0  0  0  0
    2.3598   -0.8568    0.2410 C   0  0  0  0  0  0  0  0  0  0  0  0
    0.6305   -1.0761    0.0826 Cl  0  0  0  0  0  0  0  0  0  0  0  0
    2.3068    2.2912    1.3292 H   0  0  0  0  0  0  0  0  0  0  0  0
    1.0116    1.2926    0.8607 H   0  0  0  0  0  0  0  0  0  0  0  0
    4.6921    1.4446    1.2842 H   0  0  0  0  0  0  0  0  0  0  0  0
    8.7182   -1.1541    0.2755 H   0  0  0  0  0  0  0  0  0  0  0  0
    8.1589   -3.1096    1.7893 H   0  0  0  0  0  0  0  0  0  0  0  0
    9.6455   -3.2693    0.8469 H   0  0  0  0  0  0  0  0  0  0  0  0
    6.9607   -4.6166    0.2064 H   0  0  0  0  0  0  0  0  0  0  0  0
    8.4210   -5.4143    0.8188 H   0  0  0  0  0  0  0  0  0  0  0  0
    8.1557   -5.7228   -1.6710 H   0  0  0  0  0  0  0  0  0  0  0  0
    9.6475   -4.8622   -1.2700 H   0  0  0  0  0  0  0  0  0  0  0  0
    7.0212   -3.5844   -2.2340 H   0  0  0  0  0  0  0  0  0  0  0  0
    8.5201   -3.7268   -3.1706 H   0  0  0  0  0  0  0  0  0  0  0  0
    8.2580   -1.4206   -2.2036 H   0  0  0  0  0  0  0  0  0  0  0  0
    9.7062   -2.2343   -1.6001 H   0  0  0  0  0  0  0  0  0  0  0  0
    2.8365   -2.7937   -0.5792 H   0  0  0  0  0  0  0  0  0  0  0  0
  1  2  1  0
  1 18  1  0
  1 19  1  0
  2  3  2  0
  2 16  1  0
  3  4  1  0
  3 20  1  0
  4  5  1  0
  4 14  1  0
  5  6  2  0
  6  7  1  0
  6 13  1  0
  7  8  1  0
  7 12  1  0
  7 21  1  1
  8  9  1  0
  8 22  1  0
  8 23  1  0
  9 10  1  0
  9 24  1  0
  9 25  1  0
 10 11  1  0
 10 26  1  0
 10 27  1  0
 11 12  1  0
 11 28  1  0
 11 29  1  0
 12 30  1  0
 12 31  1  0
 13 14  2  0
 14 15  1  0
 15 16  2  0
 15 32  1  0
 16 17  1  0
M  END

