
     RDKit          3D

 30 29  0  0  0  0  0  0  0  0999 V2000
    2.6456   -2.3043    1.3092 C   0  0  0  0  0  0  0  0  0  0  0  0
    2.4701   -2.3841   -0.2091 C   0  0  0  0  0  0  0  0  0  0  0  0
    3.0494   -1.1939   -1.0190 C   0  0  1  0  0  0  0  0  0  0  0  0
    2.4656    0.1603   -0.6051 C   0  0  0  0  0  0  0  0  0  0  0  0
    4.5777   -1.1734   -0.9026 C   0  0  0  0  0  0  0  0  0  0  0  0
    5.1650   -0.6275    0.0224 O   0  0  0  0  0  0  0  0  0  0  0  0
    5.2458   -1.8509   -1.8809 N   0  0  0  0  0  0  0  0  0  0  0  0
    6.6925   -1.9115   -1.9230 C   0  0  1  0  0  0  0  0  0  0  0  0
    7.2844   -2.9453   -0.9488 C   0  0  0  0  0  0  0  0  0  0  0  0
    7.1035   -2.1995   -3.3616 C   0  0  0  0  0  0  0  0  0  0  0  0
    6.3343   -2.4807   -4.2513 O   0  0  0  0  0  0  0  0  0  0  0  0
    8.4295   -2.1226   -3.5207 O   0  0  0  0  0  0  0  0  0  0  0  0
    8.9345   -2.4007   -4.8295 C   0  0  0  0  0  0  0  0  0  0  0  0
    2.2618   -3.2188    1.7892 H   0  0  0  0  0  0  0  0  0  0  0  0
    2.0952   -1.4524    1.7384 H   0  0  0  0  0  0  0  0  0  0  0  0
    3.7029   -2.1857    1.5902 H   0  0  0  0  0  0  0  0  0  0  0  0
    1.3955   -2.4622   -0.4526 H   0  0  0  0  0  0  0  0  0  0  0  0
    2.9333   -3.3137   -0.5842 H   0  0  0  0  0  0  0  0  0  0  0  0
    2.7937   -1.3801   -2.0773 H   0  0  0  0  0  0  0  0  0  0  0  0
    2.8236    0.4476    0.3935 H   0  0  0  0  0  0  0  0  0  0  0  0
    1.3645    0.1250   -0.5927 H   0  0  0  0  0  0  0  0  0  0  0  0
    2.7727    0.9539   -1.3044 H   0  0  0  0  0  0  0  0  0  0  0  0
    4.7584   -2.2082   -2.6970 H   0  0  0  0  0  0  0  0  0  0  0  0
    7.0961   -0.9220   -1.6457 H   0  0  0  0  0  0  0  0  0  0  0  0
    6.9192   -3.9574   -1.1844 H   0  0  0  0  0  0  0  0  0  0  0  0
    6.9757   -2.6837    0.0727 H   0  0  0  0  0  0  0  0  0  0  0  0
    8.3827   -2.9409   -1.0002 H   0  0  0  0  0  0  0  0  0  0  0  0
   10.0239   -2.2934   -4.7644 H   0  0  0  0  0  0  0  0  0  0  0  0
    8.5233   -1.6917   -5.5635 H   0  0  0  0  0  0  0  0  0  0  0  0
    8.6679   -3.4216   -5.1413 H   0  0  0  0  0  0  0  0  0  0  0  0
  1  2  1  0
  1 14  1  0
  1 15  1  0
  1 16  1  0
  2  3  1  0
  2 17  1  0
  2 18  1  0
  3  4  1  0
  3  5  1  0
  3 19  1  6
  4 20  1  0
  4 21  1  0
  4 22  1  0
  5  6  2  0
  5  7  1  0
  7  8  1  0
  7 23  1  0
  8  9  1  0
  8 10  1  0
  8 24  1  1
  9 25  1  0
  9 26  1  0
  9 27  1  0
 10 11  2  0
 10 12  1  0
 12 13  1  0
 13 28  1  0
 13 29  1  0
 13 30  1  0
M  END

