
     RDKit          3D

 20 20  0  0  0  0  0  0  0  0999 V2000
    5.2177    1.6844    1.3356 O   0  0  0  0  0  0  0  0  0  0  0  0
    4.5434    0.9800    0.3499 C   0  0  2  0  0  0  0  0  0  0  0  0
    4.8400    1.4005   -0.6217 H   0  0  0  0  0  0  0  0  0  0  0  0
    2.6957    1.1248    0.4860 S   0  0  0  0  0  0  0  0  0  0  0  0
    2.4421    2.7225   -0.2796 C   0  0  0  0  0  0  0  0  0  0  0  0
    1.3515    2.8616   -1.1526 C   0  0  0  0  0  0  0  0  0  0  0  0
    1.0581    4.0979   -1.7308 C   0  0  0  0  0  0  0  0  0  0  0  0
    1.8743    5.1980   -1.4530 C   0  0  0  0  0  0  0  0  0  0  0  0
    1.5226    6.7445   -2.1872 Cl  0  0  0  0  0  0  0  0  0  0  0  0
    2.9699    5.0723   -0.5933 C   0  0  0  0  0  0  0  0  0  0  0  0
    3.2433    3.8409    0.0050 C   0  0  0  0  0  0  0  0  0  0  0  0
    4.9583   -0.5209    0.3339 C   0  0  1  0  0  0  0  0  0  0  0  0
    6.7455   -0.6249    0.2279 Cl  0  0  0  0  0  0  0  0  0  0  0  0
    4.4154   -1.3003    1.8713 Cl  0  0  0  0  0  0  0  0  0  0  0  0
    4.2442   -1.3710   -1.0635 Cl  0  0  0  0  0  0  0  0  0  0  0  0
    4.9057    1.3668    2.1987 H   0  0  0  0  0  0  0  0  0  0  0  0
    0.7318    1.9934   -1.3883 H   0  0  0  0  0  0  0  0  0  0  0  0
    0.2091    4.2070   -2.4076 H   0  0  0  0  0  0  0  0  0  0  0  0
    3.5963    5.9406   -0.3819 H   0  0  0  0  0  0  0  0  0  0  0  0
    4.0838    3.7469    0.6943 H   0  0  0  0  0  0  0  0  0  0  0  0
  1  2  1  0
  1 16  1  0
  2  3  1  6
  2  4  1  0
  2 12  1  0
  4  5  1  0
  5  6  2  0
  5 11  1  0
  6  7  1  0
  6 17  1  0
  7  8  2  0
  7 18  1  0
  8  9  1  0
  8 10  1  0
 10 11  2  0
 10 19  1  0
 11 20  1  0
 12 13  1  6
 12 14  1  0
 12 15  1  0
M  END

