
     RDKit          3D

 27 28  0  0  0  0  0  0  0  0999 V2000
    0.7530    0.2329   -0.3662 C   0  0  0  0  0  0  0  0  0  0  0  0
    2.2272    0.0076    0.0144 C   0  0  1  0  0  0  0  0  0  0  0  0
    3.1372    0.2228   -1.1055 N   0  0  0  0  0  0  0  0  0  0  0  0
    3.3781   -0.6615   -2.1252 C   0  0  0  0  0  0  0  0  0  0  0  0
    2.8271   -1.9647   -2.1571 C   0  0  0  0  0  0  0  0  0  0  0  0
    3.1033   -2.8586   -3.1900 C   0  0  0  0  0  0  0  0  0  0  0  0
    3.9396   -2.4775   -4.2400 C   0  0  0  0  0  0  0  0  0  0  0  0
    4.3175   -3.6928   -5.6616 Br  0  0  0  0  0  0  0  0  0  0  0  0
    4.5014   -1.1985   -4.2536 C   0  0  0  0  0  0  0  0  0  0  0  0
    4.2209   -0.3150   -3.2146 C   0  0  0  0  0  0  0  0  0  0  0  0
    5.0144    1.4286   -3.2715 Br  0  0  0  0  0  0  0  0  0  0  0  0
    2.6669    0.8536    1.1850 C   0  0  0  0  0  0  0  0  0  0  0  0
    2.2903    2.5592    1.2696 S   0  0  0  0  0  0  0  0  0  0  0  0
    3.1553    2.7507    2.7537 C   0  0  0  0  0  0  0  0  0  0  0  0
    3.7054    1.5722    3.1798 C   0  0  0  0  0  0  0  0  0  0  0  0
    3.4256    0.4994    2.2776 C   0  0  0  0  0  0  0  0  0  0  0  0
    4.0703   -1.2577    2.5929 Br  0  0  0  0  0  0  0  0  0  0  0  0
    0.4699   -0.4194   -1.2057 H   0  0  0  0  0  0  0  0  0  0  0  0
    0.5828    1.2746   -0.6818 H   0  0  0  0  0  0  0  0  0  0  0  0
    0.0895    0.0149    0.4849 H   0  0  0  0  0  0  0  0  0  0  0  0
    2.3467   -1.0359    0.3484 H   0  0  0  0  0  0  0  0  0  0  0  0
    3.5428    1.1467   -1.2015 H   0  0  0  0  0  0  0  0  0  0  0  0
    2.1676   -2.2904   -1.3523 H   0  0  0  0  0  0  0  0  0  0  0  0
    2.6600   -3.8556   -3.1746 H   0  0  0  0  0  0  0  0  0  0  0  0
    5.1556   -0.8874   -5.0682 H   0  0  0  0  0  0  0  0  0  0  0  0
    3.2010    3.7260    3.2364 H   0  0  0  0  0  0  0  0  0  0  0  0
    4.2862    1.4562    4.0946 H   0  0  0  0  0  0  0  0  0  0  0  0
  1  2  1  0
  1 18  1  0
  1 19  1  0
  1 20  1  0
  2  3  1  0
  2 12  1  0
  2 21  1  1
  3  4  1  0
  3 22  1  0
  4  5  2  0
  4 10  1  0
  5  6  1  0
  5 23  1  0
  6  7  2  0
  6 24  1  0
  7  8  1  0
  7  9  1  0
  9 10  2  0
  9 25  1  0
 10 11  1  0
 12 13  1  0
 12 16  2  0
 13 14  1  0
 14 15  2  0
 14 26  1  0
 15 16  1  0
 15 27  1  0
 16 17  1  0
M  END

