
     RDKit          3D

 32 33  0  0  0  0  0  0  0  0999 V2000
    0.7857    0.0297    0.6339 C   0  0  0  0  0  0  0  0  0  0  0  0
    2.2774    0.0873    0.3268 C   0  0  0  0  0  0  0  0  0  0  0  0
    3.0549   -0.2774    1.5067 N   0  0  0  0  0  0  0  0  0  0  0  0
    4.4865   -0.4372    1.3283 C   0  0  1  0  0  0  0  0  0  0  0  0
    5.1724    0.8445    0.7637 C   0  0  0  0  0  0  0  0  0  0  0  0
    4.8756    2.1224    1.4846 C   0  0  0  0  0  0  0  0  0  0  0  0
    3.8891    2.9543    1.1755 N   0  0  0  0  0  0  0  0  0  0  0  0
    4.0155    3.9473    2.0896 C   0  0  0  0  0  0  0  0  0  0  0  0
    5.0167    3.7932    2.9394 N   0  0  0  0  0  0  0  0  0  0  0  0
    5.5649    2.6233    2.5474 N   0  0  0  0  0  0  0  0  0  0  0  0
    6.7268    2.1118    3.2465 C   0  0  0  0  0  0  0  0  0  0  0  0
    5.0751   -0.8589    2.6426 C   0  0  0  0  0  0  0  0  0  0  0  0
    4.6272   -0.8183    3.9335 C   0  0  0  0  0  0  0  0  0  0  0  0
    5.6737   -1.3645    4.7536 C   0  0  0  0  0  0  0  0  0  0  0  0
    6.6790   -1.6871    3.8879 C   0  0  0  0  0  0  0  0  0  0  0  0
    8.2268   -2.3772    4.1329 Cl  0  0  0  0  0  0  0  0  0  0  0  0
    6.3376   -1.3914    2.6111 O   0  0  0  0  0  0  0  0  0  0  0  0
    0.1935    0.3363   -0.2419 H   0  0  0  0  0  0  0  0  0  0  0  0
    0.5401    0.7011    1.4713 H   0  0  0  0  0  0  0  0  0  0  0  0
    0.4669   -0.9910    0.9094 H   0  0  0  0  0  0  0  0  0  0  0  0
    2.5423    1.1165    0.0398 H   0  0  0  0  0  0  0  0  0  0  0  0
    2.5041   -0.5686   -0.5457 H   0  0  0  0  0  0  0  0  0  0  0  0
    2.6805   -1.1343    1.9134 H   0  0  0  0  0  0  0  0  0  0  0  0
    4.7444   -1.2335    0.5897 H   0  0  0  0  0  0  0  0  0  0  0  0
    4.8513    0.9836   -0.2780 H   0  0  0  0  0  0  0  0  0  0  0  0
    6.2554    0.6507    0.7327 H   0  0  0  0  0  0  0  0  0  0  0  0
    3.3576    4.8155    2.1302 H   0  0  0  0  0  0  0  0  0  0  0  0
    7.4780    2.9098    3.3297 H   0  0  0  0  0  0  0  0  0  0  0  0
    7.1518    1.2660    2.6931 H   0  0  0  0  0  0  0  0  0  0  0  0
    6.4516    1.7703    4.2551 H   0  0  0  0  0  0  0  0  0  0  0  0
    3.6632   -0.4323    4.2546 H   0  0  0  0  0  0  0  0  0  0  0  0
    5.6822   -1.5015    5.8316 H   0  0  0  0  0  0  0  0  0  0  0  0
  1  2  1  0
  1 18  1  0
  1 19  1  0
  1 20  1  0
  2  3  1  0
  2 21  1  0
  2 22  1  0
  3  4  1  0
  3 23  1  0
  4  5  1  0
  4 12  1  0
  4 24  1  6
  5  6  1  0
  5 25  1  0
  5 26  1  0
  6  7  2  0
  6 10  1  0
  7  8  1  0
  8  9  2  0
  8 27  1  0
  9 10  1  0
 10 11  1  0
 11 28  1  0
 11 29  1  0
 11 30  1  0
 12 13  2  0
 12 17  1  0
 13 14  1  0
 13 31  1  0
 14 15  2  0
 14 32  1  0
 15 16  1  0
 15 17  1  0
M  END

