
     RDKit          3D

 32 32  0  0  0  0  0  0  0  0999 V2000
    2.3608   -2.9331   -0.7327 C   0  0  0  0  0  0  0  0  0  0  0  0
    2.2487   -1.9374   -1.8874 C   0  0  0  0  0  0  0  0  0  0  0  0
    2.9699   -0.5944   -1.6464 C   0  0  0  0  0  0  0  0  0  0  0  0
    4.4758   -0.7039   -1.5317 C   0  0  0  0  0  0  0  0  0  0  0  0
    5.2742   -0.8541   -2.6762 C   0  0  0  0  0  0  0  0  0  0  0  0
    6.6608   -0.9875   -2.5765 C   0  0  0  0  0  0  0  0  0  0  0  0
    7.3024   -0.9748   -1.3302 C   0  0  0  0  0  0  0  0  0  0  0  0
    8.8197   -1.0227   -1.2419 C   0  0  1  0  0  0  0  0  0  0  0  0
    9.4607    0.2912   -1.0683 N   0  0  0  0  0  0  0  0  0  0  0  0
    9.3193   -2.0232   -0.1762 C   0  0  0  0  0  0  0  0  0  0  0  0
    8.7489   -3.0752    0.0616 O   0  0  0  0  0  0  0  0  0  0  0  0
   10.4765   -1.6513    0.4311 N   0  0  0  0  0  0  0  0  0  0  0  0
   11.1365   -2.4697    1.3506 N   0  0  0  0  0  0  0  0  0  0  0  0
    6.5074   -0.8262   -0.1840 C   0  0  0  0  0  0  0  0  0  0  0  0
    5.1217   -0.6920   -0.2848 C   0  0  0  0  0  0  0  0  0  0  0  0
    1.8168   -3.8643   -0.9580 H   0  0  0  0  0  0  0  0  0  0  0  0
    1.9357   -2.5175    0.1969 H   0  0  0  0  0  0  0  0  0  0  0  0
    3.4093   -3.2015   -0.5272 H   0  0  0  0  0  0  0  0  0  0  0  0
    1.1837   -1.7246   -2.0877 H   0  0  0  0  0  0  0  0  0  0  0  0
    2.6454   -2.3957   -2.8108 H   0  0  0  0  0  0  0  0  0  0  0  0
    2.5664   -0.1290   -0.7307 H   0  0  0  0  0  0  0  0  0  0  0  0
    2.7217    0.0884   -2.4769 H   0  0  0  0  0  0  0  0  0  0  0  0
    4.8037   -0.8663   -3.6642 H   0  0  0  0  0  0  0  0  0  0  0  0
    7.2560   -1.1058   -3.4875 H   0  0  0  0  0  0  0  0  0  0  0  0
    9.1972   -1.4354   -2.1938 H   0  0  0  0  0  0  0  0  0  0  0  0
    8.9676    0.8187   -0.3451 H   0  0  0  0  0  0  0  0  0  0  0  0
    9.3664    0.8401   -1.9226 H   0  0  0  0  0  0  0  0  0  0  0  0
   10.9123   -0.7760    0.1552 H   0  0  0  0  0  0  0  0  0  0  0  0
   11.2779   -3.3860    0.9158 H   0  0  0  0  0  0  0  0  0  0  0  0
   10.4969   -2.6525    2.1285 H   0  0  0  0  0  0  0  0  0  0  0  0
    6.9716   -0.8329    0.8061 H   0  0  0  0  0  0  0  0  0  0  0  0
    4.5263   -0.5805    0.6260 H   0  0  0  0  0  0  0  0  0  0  0  0
  1  2  1  0
  1 16  1  0
  1 17  1  0
  1 18  1  0
  2  3  1  0
  2 19  1  0
  2 20  1  0
  3  4  1  0
  3 21  1  0
  3 22  1  0
  4  5  2  0
  4 15  1  0
  5  6  1  0
  5 23  1  0
  6  7  2  0
  6 24  1  0
  7  8  1  0
  7 14  1  0
  8  9  1  0
  8 10  1  0
  8 25  1  6
  9 26  1  0
  9 27  1  0
 10 11  2  0
 10 12  1  0
 12 13  1  0
 12 28  1  0
 13 29  1  0
 13 30  1  0
 14 15  2  0
 14 31  1  0
 15 32  1  0
M  END

