
     RDKit          3D

 42 44  0  0  0  0  0  0  0  0999 V2000
    1.3608   -1.2954   -2.3965 C   0  0  0  0  0  0  0  0  0  0  0  0
    2.5281   -0.8929   -1.5269 C   0  0  0  0  0  0  0  0  0  0  0  0
    3.5380   -0.0658   -2.0329 C   0  0  0  0  0  0  0  0  0  0  0  0
    4.6271    0.3273   -1.2513 C   0  0  0  0  0  0  0  0  0  0  0  0
    4.7109   -0.1147    0.0696 C   0  0  0  0  0  0  0  0  0  0  0  0
    3.7225   -0.9408    0.6078 C   0  0  0  0  0  0  0  0  0  0  0  0
    2.6294   -1.3351   -0.1831 C   0  0  0  0  0  0  0  0  0  0  0  0
    1.6081   -2.1752    0.3080 N   0  0  0  0  0  0  0  0  0  0  0  0
    1.4482   -2.7084    1.5625 C   0  0  0  0  0  0  0  0  0  0  0  0
    2.2193   -2.5569    2.4899 O   0  0  0  0  0  0  0  0  0  0  0  0
    0.2389   -3.6658    1.7053 C   0  0  1  0  0  0  0  0  0  0  0  0
   -0.2055   -3.8012    3.1639 C   0  0  0  0  0  0  0  0  0  0  0  0
   -0.8755   -3.3643    0.7817 N   0  0  0  0  0  0  0  0  0  0  0  0
   -1.5602   -2.1757    0.9824 C   0  0  0  0  0  0  0  0  0  0  0  0
   -1.1775   -1.3257    1.7619 O   0  0  0  0  0  0  0  0  0  0  0  0
   -2.8065   -1.9813    0.1287 C   0  0  0  0  0  0  0  0  0  0  0  0
   -3.4620   -3.2507   -0.1075 N   0  0  0  0  0  0  0  0  0  0  0  0
   -2.6611   -4.2632   -0.6205 C   0  0  0  0  0  0  0  0  0  0  0  0
   -3.1365   -5.2328   -1.5154 C   0  0  0  0  0  0  0  0  0  0  0  0
   -2.2938   -6.2350   -1.9993 C   0  0  0  0  0  0  0  0  0  0  0  0
   -0.9531   -6.2623   -1.6119 C   0  0  0  0  0  0  0  0  0  0  0  0
   -0.4672   -5.3030   -0.7173 C   0  0  0  0  0  0  0  0  0  0  0  0
   -1.3116   -4.3179   -0.1883 C   0  0  0  0  0  0  0  0  0  0  0  0
    1.4584   -0.8692   -3.4048 H   0  0  0  0  0  0  0  0  0  0  0  0
    0.3972   -0.9410   -1.9872 H   0  0  0  0  0  0  0  0  0  0  0  0
    1.2827   -2.3913   -2.5133 H   0  0  0  0  0  0  0  0  0  0  0  0
    3.4630    0.2772   -3.0689 H   0  0  0  0  0  0  0  0  0  0  0  0
    5.4003    0.9740   -1.6730 H   0  0  0  0  0  0  0  0  0  0  0  0
    5.5540    0.1839    0.6980 H   0  0  0  0  0  0  0  0  0  0  0  0
    3.7783   -1.2871    1.6367 H   0  0  0  0  0  0  0  0  0  0  0  0
    0.8547   -2.3718   -0.3383 H   0  0  0  0  0  0  0  0  0  0  0  0
    0.6291   -4.6451    1.3965 H   0  0  0  0  0  0  0  0  0  0  0  0
   -0.5986   -2.8523    3.5480 H   0  0  0  0  0  0  0  0  0  0  0  0
    0.6614   -4.0858    3.7743 H   0  0  0  0  0  0  0  0  0  0  0  0
   -0.9771   -4.5811    3.2489 H   0  0  0  0  0  0  0  0  0  0  0  0
   -2.5052   -1.4580   -0.8075 H   0  0  0  0  0  0  0  0  0  0  0  0
   -3.4626   -1.3023    0.6889 H   0  0  0  0  0  0  0  0  0  0  0  0
   -4.3865   -3.1864   -0.5191 H   0  0  0  0  0  0  0  0  0  0  0  0
   -4.1828   -5.1912   -1.8312 H   0  0  0  0  0  0  0  0  0  0  0  0
   -2.6849   -6.9832   -2.6926 H   0  0  0  0  0  0  0  0  0  0  0  0
   -0.2768   -7.0254   -2.0025 H   0  0  0  0  0  0  0  0  0  0  0  0
    0.5856   -5.3314   -0.4335 H   0  0  0  0  0  0  0  0  0  0  0  0
  1  2  1  0
  1 24  1  0
  1 25  1  0
  1 26  1  0
  2  3  2  0
  2  7  1  0
  3  4  1  0
  3 27  1  0
  4  5  2  0
  4 28  1  0
  5  6  1  0
  5 29  1  0
  6  7  2  0
  6 30  1  0
  7  8  1  0
  8  9  1  0
  8 31  1  0
  9 10  2  0
  9 11  1  0
 11 12  1  0
 11 13  1  0
 11 32  1  6
 12 33  1  0
 12 34  1  0
 12 35  1  0
 13 14  1  0
 13 23  1  0
 14 15  2  0
 14 16  1  0
 16 17  1  0
 16 36  1  0
 16 37  1  0
 17 18  1  0
 17 38  1  0
 18 19  2  0
 18 23  1  0
 19 20  1  0
 19 39  1  0
 20 21  2  0
 20 40  1  0
 21 22  1  0
 21 41  1  0
 22 23  2  0
 22 42  1  0
M  END

