
     RDKit          3D

 30 31  0  0  0  0  0  0  0  0999 V2000
    4.9367   -1.7657   -1.3564 F   0  0  0  0  0  0  0  0  0  0  0  0
    4.3704   -0.7966   -0.6148 C   0  0  0  0  0  0  0  0  0  0  0  0
    5.1091    0.3571   -0.3686 C   0  0  0  0  0  0  0  0  0  0  0  0
    4.5247    1.3617    0.4062 C   0  0  0  0  0  0  0  0  0  0  0  0
    5.5083    2.9556    0.7615 Br  0  0  0  0  0  0  0  0  0  0  0  0
    3.2344    1.2112    0.9194 C   0  0  0  0  0  0  0  0  0  0  0  0
    2.5262    0.0366    0.6495 C   0  0  0  0  0  0  0  0  0  0  0  0
    3.0731   -0.9947   -0.1261 C   0  0  0  0  0  0  0  0  0  0  0  0
    2.3320   -2.2827   -0.4163 C   0  0  0  0  0  0  0  0  0  0  0  0
    0.8930   -2.1432   -0.2815 N   0  0  0  0  0  0  0  0  0  0  0  0
    0.1583   -3.3883   -0.4579 C   0  0  0  0  0  0  0  0  0  0  0  0
   -1.3380   -3.2003   -0.3118 C   0  0  0  0  0  0  0  0  0  0  0  0
   -2.2282   -3.7925   -1.2187 C   0  0  0  0  0  0  0  0  0  0  0  0
   -3.6110   -3.6446   -1.0675 C   0  0  0  0  0  0  0  0  0  0  0  0
   -4.1226   -2.8931   -0.0069 C   0  0  0  0  0  0  0  0  0  0  0  0
   -3.2432   -2.2920    0.9006 C   0  0  0  0  0  0  0  0  0  0  0  0
   -1.8634   -2.4449    0.7496 C   0  0  0  0  0  0  0  0  0  0  0  0
    6.1144    0.4518   -0.7797 H   0  0  0  0  0  0  0  0  0  0  0  0
    2.7875    2.0011    1.5245 H   0  0  0  0  0  0  0  0  0  0  0  0
    1.5174   -0.0973    1.0439 H   0  0  0  0  0  0  0  0  0  0  0  0
    2.6656   -3.0559    0.3023 H   0  0  0  0  0  0  0  0  0  0  0  0
    2.6479   -2.6606   -1.4123 H   0  0  0  0  0  0  0  0  0  0  0  0
    0.5452   -1.4423   -0.9367 H   0  0  0  0  0  0  0  0  0  0  0  0
    0.5155   -4.0961    0.3144 H   0  0  0  0  0  0  0  0  0  0  0  0
    0.3675   -3.8811   -1.4332 H   0  0  0  0  0  0  0  0  0  0  0  0
   -1.8342   -4.3767   -2.0557 H   0  0  0  0  0  0  0  0  0  0  0  0
   -4.2892   -4.1139   -1.7851 H   0  0  0  0  0  0  0  0  0  0  0  0
   -5.2026   -2.7730    0.1118 H   0  0  0  0  0  0  0  0  0  0  0  0
   -3.6362   -1.7014    1.7326 H   0  0  0  0  0  0  0  0  0  0  0  0
   -1.1747   -1.9726    1.4538 H   0  0  0  0  0  0  0  0  0  0  0  0
  1  2  1  0
  2  3  2  0
  2  8  1  0
  3  4  1  0
  3 18  1  0
  4  5  1  0
  4  6  2  0
  6  7  1  0
  6 19  1  0
  7  8  2  0
  7 20  1  0
  8  9  1  0
  9 10  1  0
  9 21  1  0
  9 22  1  0
 10 11  1  0
 10 23  1  0
 11 12  1  0
 11 24  1  0
 11 25  1  0
 12 13  2  0
 12 17  1  0
 13 14  1  0
 13 26  1  0
 14 15  2  0
 14 27  1  0
 15 16  1  0
 15 28  1  0
 16 17  2  0
 16 29  1  0
 17 30  1  0
M  END

