
     RDKit          3D

 48 49  0  0  0  0  0  0  0  0999 V2000
    0.5026    1.6050   -1.2878 C   0  0  0  0  0  0  0  0  0  0  0  0
    1.6292    0.7146   -1.8068 C   0  0  0  0  0  0  0  0  0  0  0  0
    2.8819    0.8379   -1.0666 N   0  0  0  0  0  0  0  0  0  0  0  0
    2.8260    0.5135    0.3558 C   0  0  0  0  0  0  0  0  0  0  0  0
    2.5102   -0.9452    0.7235 C   0  0  0  0  0  0  0  0  0  0  0  0
    4.0104    0.2567   -1.7760 C   0  0  0  0  0  0  0  0  0  0  0  0
    4.5803    1.1524   -2.8676 C   0  0  0  0  0  0  0  0  0  0  0  0
    4.3219    2.5177   -2.9097 C   0  0  0  0  0  0  0  0  0  0  0  0
    4.8535    3.3368   -3.9216 C   0  0  0  0  0  0  0  0  0  0  0  0
    4.5365    4.7974   -3.8638 C   0  0  0  0  0  0  0  0  0  0  0  0
    4.2480    5.3260   -2.7997 O   0  0  0  0  0  0  0  0  0  0  0  0
    4.5398    5.6437   -5.0926 C   0  0  0  0  0  0  0  0  0  0  0  0
    4.5056    7.0256   -5.0643 C   0  0  0  0  0  0  0  0  0  0  0  0
    4.4205    7.6173   -6.3520 C   0  0  0  0  0  0  0  0  0  0  0  0
    4.3698    6.6793   -7.3578 C   0  0  0  0  0  0  0  0  0  0  0  0
    4.4378    5.0711   -6.7430 S   0  0  0  0  0  0  0  0  0  0  0  0
    5.6987    2.7534   -4.8767 C   0  0  0  0  0  0  0  0  0  0  0  0
    6.0133    1.3880   -4.8603 C   0  0  0  0  0  0  0  0  0  0  0  0
    6.9669    0.8266   -5.9152 C   0  0  1  0  0  0  0  0  0  0  0  0
    8.2863    0.2955   -5.3195 C   0  0  0  0  0  0  0  0  0  0  0  0
    6.3000   -0.1958   -6.8577 C   0  0  0  0  0  0  0  0  0  0  0  0
    5.4345    0.5947   -3.8454 C   0  0  0  0  0  0  0  0  0  0  0  0
    5.6726   -0.7420   -3.7300 O   0  0  0  0  0  0  0  0  0  0  0  0
   -0.3647    1.5472   -1.9645 H   0  0  0  0  0  0  0  0  0  0  0  0
    0.8276    2.6561   -1.2325 H   0  0  0  0  0  0  0  0  0  0  0  0
    0.1535    1.3046   -0.2873 H   0  0  0  0  0  0  0  0  0  0  0  0
    1.8436    0.9978   -2.8502 H   0  0  0  0  0  0  0  0  0  0  0  0
    1.2758   -0.3417   -1.8520 H   0  0  0  0  0  0  0  0  0  0  0  0
    2.0849    1.1747    0.8335 H   0  0  0  0  0  0  0  0  0  0  0  0
    3.7978    0.7959    0.7955 H   0  0  0  0  0  0  0  0  0  0  0  0
    1.5160   -1.2561    0.3642 H   0  0  0  0  0  0  0  0  0  0  0  0
    2.5193   -1.0733    1.8183 H   0  0  0  0  0  0  0  0  0  0  0  0
    3.2518   -1.6432    0.3016 H   0  0  0  0  0  0  0  0  0  0  0  0
    3.7739   -0.7324   -2.2203 H   0  0  0  0  0  0  0  0  0  0  0  0
    4.8173    0.0555   -1.0494 H   0  0  0  0  0  0  0  0  0  0  0  0
    3.6853    2.9570   -2.1409 H   0  0  0  0  0  0  0  0  0  0  0  0
    4.5332    7.5702   -4.1203 H   0  0  0  0  0  0  0  0  0  0  0  0
    4.3900    8.6930   -6.5321 H   0  0  0  0  0  0  0  0  0  0  0  0
    4.2936    6.8498   -8.4315 H   0  0  0  0  0  0  0  0  0  0  0  0
    6.1659    3.3739   -5.6437 H   0  0  0  0  0  0  0  0  0  0  0  0
    7.2419    1.6856   -6.5487 H   0  0  0  0  0  0  0  0  0  0  0  0
    8.1434   -0.5823   -4.6667 H   0  0  0  0  0  0  0  0  0  0  0  0
    8.7811    1.0682   -4.7117 H   0  0  0  0  0  0  0  0  0  0  0  0
    8.9802   -0.0056   -6.1210 H   0  0  0  0  0  0  0  0  0  0  0  0
    5.9974   -1.1283   -6.3500 H   0  0  0  0  0  0  0  0  0  0  0  0
    6.9908   -0.4839   -7.6666 H   0  0  0  0  0  0  0  0  0  0  0  0
    5.3927    0.2256   -7.3165 H   0  0  0  0  0  0  0  0  0  0  0  0
    6.2293   -1.0476   -4.4550 H   0  0  0  0  0  0  0  0  0  0  0  0
  1  2  1  0
  1 24  1  0
  1 25  1  0
  1 26  1  0
  2  3  1  0
  2 27  1  0
  2 28  1  0
  3  4  1  0
  3  6  1  0
  4  5  1  0
  4 29  1  0
  4 30  1  0
  5 31  1  0
  5 32  1  0
  5 33  1  0
  6  7  1  0
  6 34  1  0
  6 35  1  0
  7  8  2  0
  7 22  1  0
  8  9  1  0
  8 36  1  0
  9 10  1  0
  9 17  2  0
 10 11  2  0
 10 12  1  0
 12 13  2  0
 12 16  1  0
 13 14  1  0
 13 37  1  0
 14 15  2  0
 14 38  1  0
 15 16  1  0
 15 39  1  0
 17 18  1  0
 17 40  1  0
 18 19  1  0
 18 22  2  0
 19 20  1  0
 19 21  1  0
 19 41  1  6
 20 42  1  0
 20 43  1  0
 20 44  1  0
 21 45  1  0
 21 46  1  0
 21 47  1  0
 22 23  1  0
 23 48  1  0
M  END

