
     RDKit          3D

 42 43  0  0  0  0  0  0  0  0999 V2000
    1.1401    0.1727   -0.2232 C   0  0  0  0  0  0  0  0  0  0  0  0
    2.6507    0.3556   -0.0686 C   0  0  0  0  0  0  0  0  0  0  0  0
    3.1134    0.7086    1.3577 C   0  0  1  0  0  0  0  0  0  0  0  0
    2.8575   -0.4033    2.3873 C   0  0  0  0  0  0  0  0  0  0  0  0
    3.2384   -0.0301    3.8197 C   0  0  0  0  0  0  0  0  0  0  0  0
    4.5318    1.0840    1.3449 N   0  0  0  0  0  0  0  0  0  0  0  0
    5.0708    2.3126    1.5617 C   0  0  0  0  0  0  0  0  0  0  0  0
    6.4419    2.1850    1.4060 C   0  0  0  0  0  0  0  0  0  0  0  0
    6.6374    0.8160    1.0923 C   0  0  0  0  0  0  0  0  0  0  0  0
    7.9331    0.0658    0.8599 C   0  0  0  0  0  0  0  0  0  0  0  0
    7.8484   -1.0905   -0.0156 N   0  0  0  0  0  0  0  0  0  0  0  0
    7.5756   -0.7928   -1.4154 C   0  0  0  0  0  0  0  0  0  0  0  0
    7.6584   -2.0319   -2.2610 C   0  0  0  0  0  0  0  0  0  0  0  0
    8.8087   -3.2728   -1.8285 S   0  0  0  0  0  0  0  0  0  0  0  0
    8.3756   -4.2246   -3.2061 C   0  0  0  0  0  0  0  0  0  0  0  0
    7.3983   -3.6196   -3.9506 C   0  0  0  0  0  0  0  0  0  0  0  0
    6.9753   -2.3550   -3.4170 C   0  0  0  0  0  0  0  0  0  0  0  0
    5.9303   -1.4958   -4.0800 C   0  0  0  0  0  0  0  0  0  0  0  0
    5.4714    0.1684    1.0580 N   0  0  0  0  0  0  0  0  0  0  0  0
    0.8763    0.0122   -1.2802 H   0  0  0  0  0  0  0  0  0  0  0  0
    0.5866    1.0624    0.1228 H   0  0  0  0  0  0  0  0  0  0  0  0
    0.7624   -0.6945    0.3405 H   0  0  0  0  0  0  0  0  0  0  0  0
    2.9898    1.1649   -0.7372 H   0  0  0  0  0  0  0  0  0  0  0  0
    3.1850   -0.5532   -0.3915 H   0  0  0  0  0  0  0  0  0  0  0  0
    2.5811    1.6197    1.6825 H   0  0  0  0  0  0  0  0  0  0  0  0
    3.4168   -1.2981    2.0685 H   0  0  0  0  0  0  0  0  0  0  0  0
    1.7880   -0.6656    2.3468 H   0  0  0  0  0  0  0  0  0  0  0  0
    4.3142    0.1875    3.9061 H   0  0  0  0  0  0  0  0  0  0  0  0
    3.0093   -0.8541    4.5135 H   0  0  0  0  0  0  0  0  0  0  0  0
    2.6860    0.8593    4.1677 H   0  0  0  0  0  0  0  0  0  0  0  0
    4.4481    3.1721    1.8029 H   0  0  0  0  0  0  0  0  0  0  0  0
    7.1936    2.9649    1.5054 H   0  0  0  0  0  0  0  0  0  0  0  0
    8.3257   -0.2744    1.8358 H   0  0  0  0  0  0  0  0  0  0  0  0
    8.6878    0.7646    0.4610 H   0  0  0  0  0  0  0  0  0  0  0  0
    7.1338   -1.7273    0.3375 H   0  0  0  0  0  0  0  0  0  0  0  0
    8.3361   -0.0611   -1.7509 H   0  0  0  0  0  0  0  0  0  0  0  0
    6.5924   -0.3076   -1.5868 H   0  0  0  0  0  0  0  0  0  0  0  0
    8.8502   -5.1896   -3.3800 H   0  0  0  0  0  0  0  0  0  0  0  0
    6.9720   -4.0588   -4.8554 H   0  0  0  0  0  0  0  0  0  0  0  0
    5.1605   -2.1165   -4.5654 H   0  0  0  0  0  0  0  0  0  0  0  0
    6.3684   -0.8533   -4.8643 H   0  0  0  0  0  0  0  0  0  0  0  0
    5.4243   -0.8320   -3.3630 H   0  0  0  0  0  0  0  0  0  0  0  0
  1  2  1  0
  1 20  1  0
  1 21  1  0
  1 22  1  0
  2  3  1  0
  2 23  1  0
  2 24  1  0
  3  4  1  0
  3  6  1  0
  3 25  1  1
  4  5  1  0
  4 26  1  0
  4 27  1  0
  5 28  1  0
  5 29  1  0
  5 30  1  0
  6  7  1  0
  6 19  1  0
  7  8  2  0
  7 31  1  0
  8  9  1  0
  8 32  1  0
  9 10  1  0
  9 19  2  0
 10 11  1  0
 10 33  1  0
 10 34  1  0
 11 12  1  0
 11 35  1  0
 12 13  1  0
 12 36  1  0
 12 37  1  0
 13 14  1  0
 13 17  2  0
 14 15  1  0
 15 16  2  0
 15 38  1  0
 16 17  1  0
 16 39  1  0
 17 18  1  0
 18 40  1  0
 18 41  1  0
 18 42  1  0
M  END

