
     RDKit          3D

 51 52  0  0  0  0  0  0  0  0999 V2000
    5.4745    2.4243   -5.1461 C   0  0  0  0  0  0  0  0  0  0  0  0
    5.8065    1.6447   -3.8991 C   0  0  0  0  0  0  0  0  0  0  0  0
    5.1002    0.4716   -3.5886 C   0  0  0  0  0  0  0  0  0  0  0  0
    5.3787   -0.2706   -2.4413 C   0  0  0  0  0  0  0  0  0  0  0  0
    6.3951    0.1704   -1.5914 C   0  0  0  0  0  0  0  0  0  0  0  0
    6.7936   -0.7856   -0.1200 S   0  0  1  0  0  0  0  0  0  0  0  0
    7.5817    0.0801    0.7603 O   0  0  0  0  0  0  0  0  0  0  0  0
    5.5708   -1.4581    0.3120 O   0  0  0  0  0  0  0  0  0  0  0  0
    7.8253   -2.0030   -0.6053 N   0  0  0  0  0  0  0  0  0  0  0  0
    9.1757   -1.7092   -1.0293 C   0  0  0  0  0  0  0  0  0  0  0  0
    9.7360   -2.9580   -1.7152 C   0  0  0  0  0  0  0  0  0  0  0  0
    9.0029   -3.8023   -2.2068 O   0  0  0  0  0  0  0  0  0  0  0  0
   11.0883   -3.0324   -1.7699 N   0  0  0  0  0  0  0  0  0  0  0  0
   11.7600   -4.1285   -2.4214 C   0  0  0  0  0  0  0  0  0  0  0  0
   13.2517   -4.0235   -2.1726 C   0  0  0  0  0  0  0  0  0  0  0  0
   13.7730   -3.1294   -1.5516 O   0  0  0  0  0  0  0  0  0  0  0  0
   13.9052   -5.0471   -2.7377 O   0  0  0  0  0  0  0  0  0  0  0  0
   15.3541   -5.0732   -2.6283 C   0  0  1  0  0  0  0  0  0  0  0  0
   15.7272   -4.0414   -2.6219 H   0  0  0  0  0  0  0  0  0  0  0  0
   15.7808   -5.8435   -1.3744 C   0  0  0  0  0  0  0  0  0  0  0  0
   15.3644   -7.3191   -1.4381 C   0  0  0  0  0  0  0  0  0  0  0  0
   15.9010   -8.0003   -2.7037 C   0  0  0  0  0  0  0  0  0  0  0  0
   15.4794   -7.2501   -3.9860 C   0  0  0  0  0  0  0  0  0  0  0  0
   15.8514   -5.7832   -3.8997 C   0  0  0  0  0  0  0  0  0  0  0  0
   16.5227   -5.2005   -4.7180 O   0  0  0  0  0  0  0  0  0  0  0  0
    7.1047    1.3417   -1.8697 C   0  0  0  0  0  0  0  0  0  0  0  0
    6.8238    2.0900   -3.0211 C   0  0  0  0  0  0  0  0  0  0  0  0
    7.5911    3.3568   -3.3074 C   0  0  0  0  0  0  0  0  0  0  0  0
    4.6663    1.9448   -5.7164 H   0  0  0  0  0  0  0  0  0  0  0  0
    6.3496    2.5160   -5.8116 H   0  0  0  0  0  0  0  0  0  0  0  0
    5.1549    3.4528   -4.9070 H   0  0  0  0  0  0  0  0  0  0  0  0
    4.3044    0.1376   -4.2600 H   0  0  0  0  0  0  0  0  0  0  0  0
    4.8069   -1.1674   -2.1956 H   0  0  0  0  0  0  0  0  0  0  0  0
    7.3833   -2.7520   -1.1428 H   0  0  0  0  0  0  0  0  0  0  0  0
    9.7974   -1.4132   -0.1696 H   0  0  0  0  0  0  0  0  0  0  0  0
    9.2298   -0.8834   -1.7703 H   0  0  0  0  0  0  0  0  0  0  0  0
   11.6827   -2.3506   -1.3058 H   0  0  0  0  0  0  0  0  0  0  0  0
   11.5840   -4.1382   -3.5125 H   0  0  0  0  0  0  0  0  0  0  0  0
   11.3942   -5.1028   -2.0539 H   0  0  0  0  0  0  0  0  0  0  0  0
   15.3720   -5.3399   -0.4840 H   0  0  0  0  0  0  0  0  0  0  0  0
   16.8803   -5.7654   -1.3007 H   0  0  0  0  0  0  0  0  0  0  0  0
   14.2632   -7.3895   -1.4184 H   0  0  0  0  0  0  0  0  0  0  0  0
   15.7265   -7.8462   -0.5408 H   0  0  0  0  0  0  0  0  0  0  0  0
   15.5536   -9.0445   -2.7576 H   0  0  0  0  0  0  0  0  0  0  0  0
   17.0039   -8.0408   -2.6589 H   0  0  0  0  0  0  0  0  0  0  0  0
   14.3817   -7.3083   -4.0957 H   0  0  0  0  0  0  0  0  0  0  0  0
   15.9395   -7.6761   -4.8890 H   0  0  0  0  0  0  0  0  0  0  0  0
    7.8653    1.6799   -1.1629 H   0  0  0  0  0  0  0  0  0  0  0  0
    8.3370    3.5581   -2.5254 H   0  0  0  0  0  0  0  0  0  0  0  0
    6.9215    4.2315   -3.3666 H   0  0  0  0  0  0  0  0  0  0  0  0
    8.1206    3.3019   -4.2738 H   0  0  0  0  0  0  0  0  0  0  0  0
  1  2  1  0
  1 29  1  0
  1 30  1  0
  1 31  1  0
  2  3  2  0
  2 27  1  0
  3  4  1  0
  3 32  1  0
  4  5  2  0
  4 33  1  0
  5  6  1  0
  5 26  1  0
  6  7  2  0
  6  8  2  0
  6  9  1  6
  9 10  1  0
  9 34  1  0
 10 11  1  0
 10 35  1  0
 10 36  1  0
 11 12  2  0
 11 13  1  0
 13 14  1  0
 13 37  1  0
 14 15  1  0
 14 38  1  0
 14 39  1  0
 15 16  2  0
 15 17  1  0
 17 18  1  0
 18 19  1  1
 18 20  1  0
 18 24  1  0
 20 21  1  0
 20 40  1  0
 20 41  1  0
 21 22  1  0
 21 42  1  0
 21 43  1  0
 22 23  1  0
 22 44  1  0
 22 45  1  0
 23 24  1  0
 23 46  1  0
 23 47  1  0
 24 25  2  0
 26 27  2  0
 26 48  1  0
 27 28  1  0
 28 49  1  0
 28 50  1  0
 28 51  1  0
M  END

