
     RDKit          3D

 57 62  0  0  0  0  0  0  0  0999 V2000
    0.5194   -0.6299    1.3885 C   0  0  0  0  0  0  0  0  0  0  0  0
    1.7094   -0.6089    0.6286 O   0  0  0  0  0  0  0  0  0  0  0  0
    2.5239   -1.6874    0.6352 C   0  0  0  0  0  0  0  0  0  0  0  0
    3.6853   -1.5956   -0.1544 C   0  0  0  0  0  0  0  0  0  0  0  0
    4.5884   -2.6471   -0.2088 C   0  0  0  0  0  0  0  0  0  0  0  0
    4.3678   -3.8361    0.5205 C   0  0  0  0  0  0  0  0  0  0  0  0
    5.2887   -4.9903    0.4694 C   0  0  0  0  0  0  0  0  0  0  0  0
    6.6506   -5.0032    0.3255 C   0  0  0  0  0  0  0  0  0  0  0  0
    7.4560   -3.7462    0.2703 C   0  0  0  0  0  0  0  0  0  0  0  0
    7.5957   -2.9268    1.4073 C   0  0  0  0  0  0  0  0  0  0  0  0
    8.3528   -1.7618    1.3682 C   0  0  0  0  0  0  0  0  0  0  0  0
    9.0052   -1.3760    0.1832 C   0  0  0  0  0  0  0  0  0  0  0  0
    9.7182   -0.2259    0.2396 O   0  0  0  0  0  0  0  0  0  0  0  0
   10.3998    0.2254   -0.9101 C   0  0  0  0  0  0  0  0  0  0  0  0
    8.8849   -2.1848   -0.9579 C   0  0  0  0  0  0  0  0  0  0  0  0
    8.1189   -3.3548   -0.9019 C   0  0  0  0  0  0  0  0  0  0  0  0
    7.3390   -6.2973    0.2836 C   0  0  0  0  0  0  0  0  0  0  0  0
    8.7390   -6.4236    0.1529 C   0  0  0  0  0  0  0  0  0  0  0  0
    9.3435   -7.6787    0.1114 C   0  0  0  0  0  0  0  0  0  0  0  0
    8.5788   -8.8465    0.2006 C   0  0  0  0  0  0  0  0  0  0  0  0
    7.1923   -8.7561    0.3539 C   0  0  0  0  0  0  0  0  0  0  0  0
    6.3446   -9.9691    0.4389 C   0  0  0  0  0  0  0  0  0  0  0  0
    4.8902   -9.8048    0.8045 C   0  0  0  0  0  0  0  0  0  0  0  0
    4.3346   -8.4754    0.7784 C   0  0  0  0  0  0  0  0  0  0  0  0
    5.1445   -7.3919    0.5945 C   0  0  0  0  0  0  0  0  0  0  0  0
    6.5793   -7.4844    0.4021 C   0  0  0  0  0  0  0  0  0  0  0  0
    4.5830   -6.1600    0.6119 O   0  0  0  0  0  0  0  0  0  0  0  0
    4.1615  -10.8194    1.1411 N   0  0  0  0  0  0  0  0  0  0  0  0
    4.8207  -12.1101    1.2275 C   0  0  1  0  0  0  0  0  0  0  0  0
    3.8288  -13.1932    1.0973 C   0  0  0  0  0  0  0  0  0  0  0  0
    3.0596  -14.0493    0.9724 N   0  0  0  0  0  0  0  0  0  0  0  0
    5.9602  -12.2656    0.1817 C   0  0  2  0  0  0  0  0  0  0  0  0
    6.7412  -13.4954    0.3997 C   0  0  0  0  0  0  0  0  0  0  0  0
    7.3464  -14.4624    0.5969 N   0  0  0  0  0  0  0  0  0  0  0  0
    6.8505  -11.1139    0.1602 N   0  0  0  0  0  0  0  0  0  0  0  0
    3.1926   -3.9218    1.2888 C   0  0  0  0  0  0  0  0  0  0  0  0
    2.2824   -2.8665    1.3584 C   0  0  0  0  0  0  0  0  0  0  0  0
    0.0304    0.3401    1.2286 H   0  0  0  0  0  0  0  0  0  0  0  0
    0.7241   -0.7546    2.4667 H   0  0  0  0  0  0  0  0  0  0  0  0
   -0.1627   -1.4338    1.0591 H   0  0  0  0  0  0  0  0  0  0  0  0
    3.8513   -0.6808   -0.7264 H   0  0  0  0  0  0  0  0  0  0  0  0
    5.4689   -2.5509   -0.8422 H   0  0  0  0  0  0  0  0  0  0  0  0
    7.0961   -3.2108    2.3365 H   0  0  0  0  0  0  0  0  0  0  0  0
    8.4599   -1.1254    2.2489 H   0  0  0  0  0  0  0  0  0  0  0  0
   10.8994    1.1622   -0.6297 H   0  0  0  0  0  0  0  0  0  0  0  0
    9.7065    0.4265   -1.7466 H   0  0  0  0  0  0  0  0  0  0  0  0
   11.1627   -0.4995   -1.2469 H   0  0  0  0  0  0  0  0  0  0  0  0
    9.3772   -1.9159   -1.8926 H   0  0  0  0  0  0  0  0  0  0  0  0
    8.0293   -3.9697   -1.8016 H   0  0  0  0  0  0  0  0  0  0  0  0
    9.3524   -5.5249    0.0860 H   0  0  0  0  0  0  0  0  0  0  0  0
   10.4291   -7.7497    0.0090 H   0  0  0  0  0  0  0  0  0  0  0  0
    9.0391   -9.8348    0.1601 H   0  0  0  0  0  0  0  0  0  0  0  0
    3.2674   -8.3524    0.9608 H   0  0  0  0  0  0  0  0  0  0  0  0
    5.2715  -12.2106    2.2372 H   0  0  0  0  0  0  0  0  0  0  0  0
    5.4967  -12.3496   -0.8223 H   0  0  0  0  0  0  0  0  0  0  0  0
    2.9856   -4.8343    1.8492 H   0  0  0  0  0  0  0  0  0  0  0  0
    1.3907   -2.9761    1.9755 H   0  0  0  0  0  0  0  0  0  0  0  0
  1  2  1  0
  1 38  1  0
  1 39  1  0
  1 40  1  0
  2  3  1  0
  3  4  2  0
  3 37  1  0
  4  5  1  0
  4 41  1  0
  5  6  2  0
  5 42  1  0
  6  7  1  0
  6 36  1  0
  7  8  2  0
  7 27  1  0
  8  9  1  0
  8 17  1  0
  9 10  2  0
  9 16  1  0
 10 11  1  0
 10 43  1  0
 11 12  2  0
 11 44  1  0
 12 13  1  0
 12 15  1  0
 13 14  1  0
 14 45  1  0
 14 46  1  0
 14 47  1  0
 15 16  2  0
 15 48  1  0
 16 49  1  0
 17 18  2  0
 17 26  1  0
 18 19  1  0
 18 50  1  0
 19 20  2  0
 19 51  1  0
 20 21  1  0
 20 52  1  0
 21 22  1  0
 21 26  2  0
 22 23  1  0
 22 35  2  0
 23 24  1  0
 23 28  2  0
 24 25  2  0
 24 53  1  0
 25 26  1  0
 25 27  1  0
 28 29  1  0
 29 30  1  0
 29 32  1  0
 29 54  1  1
 30 31  3  0
 32 33  1  0
 32 35  1  0
 32 55  1  6
 33 34  3  0
 36 37  2  0
 36 56  1  0
 37 57  1  0
M  END

