
     RDKit          3D

 59 62  0  0  0  0  0  0  0  0999 V2000
    2.6902    1.2664   -1.3202 C   0  0  0  0  0  0  0  0  0  0  0  0
    2.9605    0.0640   -0.8032 C   0  0  0  0  0  0  0  0  0  0  0  0
    3.9910   -0.0894    0.2731 C   0  0  0  0  0  0  0  0  0  0  0  0
    4.6214    0.8519    0.7214 O   0  0  0  0  0  0  0  0  0  0  0  0
    4.1468   -1.3970    0.6959 N   0  0  0  0  0  0  0  0  0  0  0  0
    5.0069   -1.9165    1.6746 C   0  0  0  0  0  0  0  0  0  0  0  0
    5.8946   -1.1239    2.4287 C   0  0  0  0  0  0  0  0  0  0  0  0
    6.7107   -1.7241    3.3838 C   0  0  0  0  0  0  0  0  0  0  0  0
    6.6927   -3.1094    3.6102 C   0  0  0  0  0  0  0  0  0  0  0  0
    7.6089   -3.6520    4.6751 C   0  0  0  0  0  0  0  0  0  0  0  0
    8.0612   -2.9280    5.5491 O   0  0  0  0  0  0  0  0  0  0  0  0
    7.8951   -4.9937    4.5683 N   0  0  0  0  0  0  0  0  0  0  0  0
    8.6825   -5.8051    5.4116 C   0  0  0  0  0  0  0  0  0  0  0  0
    9.2949   -5.3510    6.5918 C   0  0  0  0  0  0  0  0  0  0  0  0
   10.0535   -6.2145    7.3834 C   0  0  0  0  0  0  0  0  0  0  0  0
   10.2290   -7.5640    7.0222 C   0  0  0  0  0  0  0  0  0  0  0  0
   10.9723   -8.4989    7.7516 N   0  0  0  0  0  0  0  0  0  0  0  0
   11.6892   -8.4029    8.9321 C   0  0  0  0  0  0  0  0  0  0  0  0
   12.3426   -9.5651    9.4036 C   0  0  0  0  0  0  0  0  0  0  0  0
   13.0799   -9.5175   10.5881 C   0  0  0  0  0  0  0  0  0  0  0  0
   13.7553  -10.7333   11.0631 C   0  0  0  0  0  0  0  0  0  0  0  0
   13.4995  -11.9557   10.4575 N   0  0  0  0  0  0  0  0  0  0  0  0
   14.2377  -12.8362   11.0796 C   0  0  0  0  0  0  0  0  0  0  0  0
   14.3367  -14.5701   10.7668 S   0  0  0  0  0  0  0  0  0  0  0  0
   13.1646  -14.6788    9.3798 C   0  0  0  0  0  0  0  0  0  0  0  0
   14.9796  -12.2514   12.0713 N   0  0  0  0  0  0  0  0  0  0  0  0
   15.6342  -12.7185   12.6874 H   0  0  0  0  0  0  0  0  0  0  0  0
   14.6904  -10.8978   12.0785 C   0  0  0  0  0  0  0  0  0  0  0  0
   15.3605   -9.9702   13.0415 C   0  0  0  0  0  0  0  0  0  0  0  0
   13.1216   -8.2796   11.2724 C   0  0  0  0  0  0  0  0  0  0  0  0
   12.4452   -7.1968   10.7230 C   0  0  0  0  0  0  0  0  0  0  0  0
   11.7462   -7.2367    9.5847 N   0  0  0  0  0  0  0  0  0  0  0  0
    9.6127   -8.0127    5.8357 C   0  0  0  0  0  0  0  0  0  0  0  0
    8.8559   -7.1526    5.0491 C   0  0  0  0  0  0  0  0  0  0  0  0
    5.7932   -3.8887    2.8641 C   0  0  0  0  0  0  0  0  0  0  0  0
    4.9641   -3.3039    1.9115 C   0  0  0  0  0  0  0  0  0  0  0  0
    1.9424    1.4006   -2.1054 H   0  0  0  0  0  0  0  0  0  0  0  0
    3.2275    2.1456   -0.9529 H   0  0  0  0  0  0  0  0  0  0  0  0
    2.4330   -0.8289   -1.1575 H   0  0  0  0  0  0  0  0  0  0  0  0
    3.5586   -2.0831    0.2376 H   0  0  0  0  0  0  0  0  0  0  0  0
    5.9268   -0.0510    2.2559 H   0  0  0  0  0  0  0  0  0  0  0  0
    7.3901   -1.1165    3.9846 H   0  0  0  0  0  0  0  0  0  0  0  0
    7.5569   -5.4558    3.7340 H   0  0  0  0  0  0  0  0  0  0  0  0
    9.1755   -4.3098    6.8821 H   0  0  0  0  0  0  0  0  0  0  0  0
   10.5227   -5.8523    8.2944 H   0  0  0  0  0  0  0  0  0  0  0  0
   10.9915   -9.4226    7.3389 H   0  0  0  0  0  0  0  0  0  0  0  0
   12.2813  -10.5079    8.8573 H   0  0  0  0  0  0  0  0  0  0  0  0
   13.1226  -15.7418    9.1057 H   0  0  0  0  0  0  0  0  0  0  0  0
   13.5185  -14.0811    8.5297 H   0  0  0  0  0  0  0  0  0  0  0  0
   12.1726  -14.3254    9.6895 H   0  0  0  0  0  0  0  0  0  0  0  0
   16.2436  -10.4476   13.4943 H   0  0  0  0  0  0  0  0  0  0  0  0
   14.6917   -9.6668   13.8654 H   0  0  0  0  0  0  0  0  0  0  0  0
   15.7036   -9.0526   12.5408 H   0  0  0  0  0  0  0  0  0  0  0  0
   13.6458   -8.1591   12.2185 H   0  0  0  0  0  0  0  0  0  0  0  0
   12.4633   -6.2285   11.2377 H   0  0  0  0  0  0  0  0  0  0  0  0
    9.7287   -9.0557    5.5251 H   0  0  0  0  0  0  0  0  0  0  0  0
    8.3902   -7.5364    4.1358 H   0  0  0  0  0  0  0  0  0  0  0  0
    5.7008   -4.9637    3.0403 H   0  0  0  0  0  0  0  0  0  0  0  0
    4.2632   -3.9287    1.3494 H   0  0  0  0  0  0  0  0  0  0  0  0
  1  2  2  0
  1 37  1  0
  1 38  1  0
  2  3  1  0
  2 39  1  0
  3  4  2  0
  3  5  1  0
  5  6  1  0
  5 40  1  0
  6  7  2  0
  6 36  1  0
  7  8  1  0
  7 41  1  0
  8  9  2  0
  8 42  1  0
  9 10  1  0
  9 35  1  0
 10 11  2  0
 10 12  1  0
 12 13  1  0
 12 43  1  0
 13 14  2  0
 13 34  1  0
 14 15  1  0
 14 44  1  0
 15 16  2  0
 15 45  1  0
 16 17  1  0
 16 33  1  0
 17 18  1  0
 17 46  1  0
 18 19  2  0
 18 32  1  0
 19 20  1  0
 19 47  1  0
 20 21  1  0
 20 30  2  0
 21 22  1  0
 21 28  2  0
 22 23  2  0
 23 24  1  0
 23 26  1  0
 24 25  1  0
 25 48  1  0
 25 49  1  0
 25 50  1  0
 26 27  1  0
 26 28  1  0
 28 29  1  0
 29 51  1  0
 29 52  1  0
 29 53  1  0
 30 31  1  0
 30 54  1  0
 31 32  2  0
 31 55  1  0
 33 34  2  0
 33 56  1  0
 34 57  1  0
 35 36  2  0
 35 58  1  0
 36 59  1  0
M  END

