
     RDKit          3D

 38 39  0  0  0  0  0  0  0  0999 V2000
    0.8143   -0.1723    0.1250 C   0  0  0  0  0  0  0  0  0  0  0  0
    2.3217   -0.1016   -0.1297 C   0  0  1  0  0  0  0  0  0  0  0  0
    2.8781   -1.4296   -0.7390 C   0  0  0  0  0  0  0  0  0  0  0  0
    4.3924   -1.2779   -0.7233 C   0  0  0  0  0  0  0  0  0  0  0  0
    5.0631   -1.6088    0.2304 O   0  0  0  0  0  0  0  0  0  0  0  0
    4.8972   -0.4753   -1.7531 N   0  0  0  0  0  0  0  0  0  0  0  0
    5.3292    0.8513   -1.2970 C   0  0  0  0  0  0  0  0  0  0  0  0
    4.2024    1.5312   -0.4597 C   0  0  0  0  0  0  0  0  0  0  0  0
    2.8440    1.0953   -0.8484 N   0  0  0  0  0  0  0  0  0  0  0  0
    2.3947    1.6480   -2.0262 C   0  0  0  0  0  0  0  0  0  0  0  0
    3.0975    2.4169   -2.6691 O   0  0  0  0  0  0  0  0  0  0  0  0
    0.9917    1.3417   -2.5608 C   0  0  0  0  0  0  0  0  0  0  0  0
    0.0440    1.9632   -1.7227 O   0  0  0  0  0  0  0  0  0  0  0  0
   -1.2780    1.8699   -2.0325 C   0  0  0  0  0  0  0  0  0  0  0  0
   -1.7897    1.3549   -3.2262 C   0  0  0  0  0  0  0  0  0  0  0  0
   -3.1747    1.3147   -3.4489 C   0  0  0  0  0  0  0  0  0  0  0  0
   -4.0511    1.7876   -2.4765 C   0  0  0  0  0  0  0  0  0  0  0  0
   -3.5444    2.2992   -1.2738 C   0  0  0  0  0  0  0  0  0  0  0  0
   -2.1702    2.3429   -1.0379 C   0  0  0  0  0  0  0  0  0  0  0  0
   -1.6208    2.8111    0.1132 O   0  0  0  0  0  0  0  0  0  0  0  0
    0.6404   -0.9233    0.9111 H   0  0  0  0  0  0  0  0  0  0  0  0
    0.2376   -0.4906   -0.7544 H   0  0  0  0  0  0  0  0  0  0  0  0
    0.4184    0.7933    0.4639 H   0  0  0  0  0  0  0  0  0  0  0  0
    2.7855   -0.0206    0.8645 H   0  0  0  0  0  0  0  0  0  0  0  0
    2.4742   -1.5804   -1.7548 H   0  0  0  0  0  0  0  0  0  0  0  0
    2.5766   -2.2760   -0.1059 H   0  0  0  0  0  0  0  0  0  0  0  0
    4.2338   -0.3767   -2.5164 H   0  0  0  0  0  0  0  0  0  0  0  0
    5.5621    1.4541   -2.1835 H   0  0  0  0  0  0  0  0  0  0  0  0
    6.2399    0.7554   -0.6886 H   0  0  0  0  0  0  0  0  0  0  0  0
    4.2671    2.6222   -0.5694 H   0  0  0  0  0  0  0  0  0  0  0  0
    4.3253    1.2816    0.6032 H   0  0  0  0  0  0  0  0  0  0  0  0
    0.7983    0.2550   -2.6413 H   0  0  0  0  0  0  0  0  0  0  0  0
    0.9742    1.7738   -3.5738 H   0  0  0  0  0  0  0  0  0  0  0  0
   -1.1123    0.9889   -3.9983 H   0  0  0  0  0  0  0  0  0  0  0  0
   -3.5559    0.9121   -4.3900 H   0  0  0  0  0  0  0  0  0  0  0  0
   -5.1307    1.7616   -2.6408 H   0  0  0  0  0  0  0  0  0  0  0  0
   -4.2262    2.6674   -0.5001 H   0  0  0  0  0  0  0  0  0  0  0  0
   -2.3270    3.1029    0.7045 H   0  0  0  0  0  0  0  0  0  0  0  0
  1  2  1  0
  1 21  1  0
  1 22  1  0
  1 23  1  0
  2  3  1  0
  2  9  1  0
  2 24  1  1
  3  4  1  0
  3 25  1  0
  3 26  1  0
  4  5  2  0
  4  6  1  0
  6  7  1  0
  6 27  1  0
  7  8  1  0
  7 28  1  0
  7 29  1  0
  8  9  1  0
  8 30  1  0
  8 31  1  0
  9 10  1  0
 10 11  2  0
 10 12  1  0
 12 13  1  0
 12 32  1  0
 12 33  1  0
 13 14  1  0
 14 15  2  0
 14 19  1  0
 15 16  1  0
 15 34  1  0
 16 17  2  0
 16 35  1  0
 17 18  1  0
 17 36  1  0
 18 19  2  0
 18 37  1  0
 19 20  1  0
 20 38  1  0
M  END

