
     RDKit          3D

 61 66  0  0  0  0  0  0  0  0999 V2000
    1.3793    0.6660   -0.9044 F   0  0  0  0  0  0  0  0  0  0  0  0
    2.7519    0.4518   -0.6708 B   0  0  1  0  0  0  0  0  0  0  0  0
    2.9776    0.4421    0.7193 F   0  0  0  0  0  0  0  0  0  0  0  0
    3.1548   -0.9093   -1.3050 N   0  0  0  0  0  0  0  0  0  0  0  0
    2.6175   -2.1460   -1.1102 C   0  0  0  0  0  0  0  0  0  0  0  0
    1.6295   -2.5193   -0.2564 N   0  0  0  0  0  0  0  0  0  0  0  0
    1.0069   -1.8650    0.8898 C   0  0  0  0  0  0  0  0  0  0  0  0
   -0.5065   -1.9538    0.8299 C   0  0  0  0  0  0  0  0  0  0  0  0
   -1.2251   -1.2044   -0.1177 C   0  0  0  0  0  0  0  0  0  0  0  0
   -2.6162   -1.2987   -0.1843 C   0  0  0  0  0  0  0  0  0  0  0  0
   -3.3110   -2.1402    0.6933 C   0  0  0  0  0  0  0  0  0  0  0  0
   -2.6058   -2.8855    1.6404 C   0  0  0  0  0  0  0  0  0  0  0  0
   -1.2107   -2.7912    1.7055 C   0  0  0  0  0  0  0  0  0  0  0  0
    3.2424   -3.0781   -1.9984 C   0  0  0  0  0  0  0  0  0  0  0  0
    4.1734   -2.3772   -2.7406 C   0  0  0  0  0  0  0  0  0  0  0  0
    4.1231   -1.0272   -2.3201 C   0  0  0  0  0  0  0  0  0  0  0  0
    4.8372    0.0794   -2.7825 C   0  0  0  0  0  0  0  0  0  0  0  0
    5.8779   -0.1064   -3.8373 C   0  0  0  0  0  0  0  0  0  0  0  0
    7.2149   -0.4102   -3.5111 C   0  0  0  0  0  0  0  0  0  0  0  0
    7.6818   -0.5731   -1.8355 Cl  0  0  0  0  0  0  0  0  0  0  0  0
    8.1963   -0.5855   -4.4913 C   0  0  0  0  0  0  0  0  0  0  0  0
    7.8503   -0.4582   -5.8366 C   0  0  0  0  0  0  0  0  0  0  0  0
    6.5380   -0.1586   -6.2024 C   0  0  0  0  0  0  0  0  0  0  0  0
    5.5709    0.0137   -5.2075 C   0  0  0  0  0  0  0  0  0  0  0  0
    3.9361    0.3848   -5.6993 Cl  0  0  0  0  0  0  0  0  0  0  0  0
    4.5949    1.3568   -2.2746 C   0  0  0  0  0  0  0  0  0  0  0  0
    5.2440    2.5817   -2.5575 C   0  0  0  0  0  0  0  0  0  0  0  0
    4.6632    3.5523   -1.7638 C   0  0  0  0  0  0  0  0  0  0  0  0
    3.6437    2.9139   -0.9888 C   0  0  0  0  0  0  0  0  0  0  0  0
    2.8979    3.5953   -0.0807 N   0  0  0  0  0  0  0  0  0  0  0  0
    1.6624    3.2762    0.6272 C   0  0  0  0  0  0  0  0  0  0  0  0
    1.7623    3.6092    2.1040 C   0  0  0  0  0  0  0  0  0  0  0  0
    1.0521    4.6892    2.6452 C   0  0  0  0  0  0  0  0  0  0  0  0
    1.1546    5.0052    4.0050 C   0  0  0  0  0  0  0  0  0  0  0  0
    1.9737    4.2405    4.8381 C   0  0  0  0  0  0  0  0  0  0  0  0
    2.6856    3.1578    4.3069 C   0  0  0  0  0  0  0  0  0  0  0  0
    2.5814    2.8426    2.9511 C   0  0  0  0  0  0  0  0  0  0  0  0
    3.6031    1.5888   -1.3028 N   0  0  0  0  0  0  0  0  0  0  0  0
    1.3668   -3.4918   -0.3658 H   0  0  0  0  0  0  0  0  0  0  0  0
    1.3368   -0.8257    0.9328 H   0  0  0  0  0  0  0  0  0  0  0  0
    1.3635   -2.3463    1.8192 H   0  0  0  0  0  0  0  0  0  0  0  0
   -0.6805   -0.5403   -0.7926 H   0  0  0  0  0  0  0  0  0  0  0  0
   -3.1647   -0.7075   -0.9226 H   0  0  0  0  0  0  0  0  0  0  0  0
   -4.4006   -2.2107    0.6395 H   0  0  0  0  0  0  0  0  0  0  0  0
   -3.1402   -3.5422    2.3320 H   0  0  0  0  0  0  0  0  0  0  0  0
   -0.6622   -3.3736    2.4525 H   0  0  0  0  0  0  0  0  0  0  0  0
    3.0107   -4.1407   -2.0453 H   0  0  0  0  0  0  0  0  0  0  0  0
    4.8345   -2.7679   -3.5111 H   0  0  0  0  0  0  0  0  0  0  0  0
    9.2180   -0.8187   -4.1893 H   0  0  0  0  0  0  0  0  0  0  0  0
    8.6117   -0.5941   -6.6084 H   0  0  0  0  0  0  0  0  0  0  0  0
    6.2517   -0.0566   -7.2498 H   0  0  0  0  0  0  0  0  0  0  0  0
    6.0518    2.7102   -3.2747 H   0  0  0  0  0  0  0  0  0  0  0  0
    4.9023    4.6134   -1.7201 H   0  0  0  0  0  0  0  0  0  0  0  0
    3.1847    4.5628    0.0114 H   0  0  0  0  0  0  0  0  0  0  0  0
    1.4260    2.2212    0.4790 H   0  0  0  0  0  0  0  0  0  0  0  0
    0.8296    3.8501    0.1802 H   0  0  0  0  0  0  0  0  0  0  0  0
    0.4057    5.2886    1.9965 H   0  0  0  0  0  0  0  0  0  0  0  0
    0.5925    5.8501    4.4117 H   0  0  0  0  0  0  0  0  0  0  0  0
    2.0564    4.4838    5.9007 H   0  0  0  0  0  0  0  0  0  0  0  0
    3.3224    2.5516    4.9568 H   0  0  0  0  0  0  0  0  0  0  0  0
    3.1255    1.9916    2.5353 H   0  0  0  0  0  0  0  0  0  0  0  0
  2  1  1  1
  2  3  1  0
  2  4  1  0
  2 38  1  0
  4  5  1  0
  4 16  1  0
  5  6  1  0
  5 14  2  0
  6  7  1  0
  6 39  1  0
  7  8  1  0
  7 40  1  0
  7 41  1  0
  8  9  2  0
  8 13  1  0
  9 10  1  0
  9 42  1  0
 10 11  2  0
 10 43  1  0
 11 12  1  0
 11 44  1  0
 12 13  2  0
 12 45  1  0
 13 46  1  0
 14 15  1  0
 14 47  1  0
 15 16  2  0
 15 48  1  0
 16 17  1  0
 17 18  1  0
 17 26  2  0
 18 19  2  0
 18 24  1  0
 19 20  1  0
 19 21  1  0
 21 22  2  0
 21 49  1  0
 22 23  1  0
 22 50  1  0
 23 24  2  0
 23 51  1  0
 24 25  1  0
 26 27  1  0
 26 38  1  0
 27 28  2  0
 27 52  1  0
 28 29  1  0
 28 53  1  0
 29 30  1  0
 29 38  2  0
 30 31  1  0
 30 54  1  0
 31 32  1  0
 31 55  1  0
 31 56  1  0
 32 33  2  0
 32 37  1  0
 33 34  1  0
 33 57  1  0
 34 35  2  0
 34 58  1  0
 35 36  1  0
 35 59  1  0
 36 37  2  0
 36 60  1  0
 37 61  1  0
M  CHG  2   2  -1  38   1
M  END

