
     RDKit          3D

 65 71  0  0  0  0  0  0  0  0999 V2000
    2.1688    2.3436   -1.2609 C   0  0  0  0  0  0  0  0  0  0  0  0
    2.5782    1.0646   -0.6106 C   0  0  0  0  0  0  0  0  0  0  0  0
    2.9501   -0.0146   -1.3231 N   0  0  0  0  0  0  0  0  0  0  0  0
    3.2492   -1.0502   -0.4398 C   0  0  0  0  0  0  0  0  0  0  0  0
    3.6718   -2.2930   -0.9108 C   0  0  0  0  0  0  0  0  0  0  0  0
    3.8206   -2.5503   -2.2717 C   0  0  0  0  0  0  0  0  0  0  0  0
    4.2256   -3.7262   -2.9594 C   0  0  0  0  0  0  0  0  0  0  0  0
    4.1955   -3.4288   -4.3152 C   0  0  0  0  0  0  0  0  0  0  0  0
    3.7740   -2.0776   -4.4446 C   0  0  0  0  0  0  0  0  0  0  0  0
    3.5841   -1.2883   -5.6960 C   0  0  0  0  0  0  0  0  0  0  0  0
    3.5532   -1.5630   -3.2176 N   0  0  0  0  0  0  0  0  0  0  0  0
    3.0753   -0.1058   -2.8896 B   0  0  1  0  0  0  0  0  0  0  0  0
    1.8386    0.1252   -3.4813 F   0  0  0  0  0  0  0  0  0  0  0  0
    4.0132    0.8153   -3.3347 F   0  0  0  0  0  0  0  0  0  0  0  0
    3.0508   -0.5769    0.8787 C   0  0  0  0  0  0  0  0  0  0  0  0
    2.6366    0.7552    0.7906 C   0  0  0  0  0  0  0  0  0  0  0  0
    2.3169    1.6416    1.9067 C   0  0  0  0  0  0  0  0  0  0  0  0
    2.3823    3.0387    1.9933 C   0  0  0  0  0  0  0  0  0  0  0  0
    1.9999    3.4047    3.3109 C   0  0  0  0  0  0  0  0  0  0  0  0
    1.6991    2.2392    4.0122 N   0  0  0  0  0  0  0  0  0  0  0  0
    1.8853    1.2032    3.1929 C   0  0  0  0  0  0  0  0  0  0  0  0
    1.1329    2.1707    5.4782 B   0  0  2  0  0  0  0  0  0  0  0  0
    1.8775    1.2845    6.2300 F   0  0  0  0  0  0  0  0  0  0  0  0
   -0.2016    1.8121    5.4434 F   0  0  0  0  0  0  0  0  0  0  0  0
    1.2817    3.6262    6.0406 N   0  0  0  0  0  0  0  0  0  0  0  0
    1.0384    4.0166    7.2994 C   0  0  0  0  0  0  0  0  0  0  0  0
    1.1848    5.4176    7.4158 C   0  0  0  0  0  0  0  0  0  0  0  0
    1.5342    5.8873    6.1531 C   0  0  0  0  0  0  0  0  0  0  0  0
    1.5971    4.7569    5.2914 C   0  0  0  0  0  0  0  0  0  0  0  0
    1.9432    4.6642    3.9317 C   0  0  0  0  0  0  0  0  0  0  0  0
    2.2695    5.8986    3.1520 C   0  0  0  0  0  0  0  0  0  0  0  0
    3.6014    6.3630    3.0939 C   0  0  0  0  0  0  0  0  0  0  0  0
    4.7171    5.6384    3.8103 C   0  0  0  0  0  0  0  0  0  0  0  0
    3.8773    7.5218    2.3531 C   0  0  0  0  0  0  0  0  0  0  0  0
    2.8772    8.2259    1.6741 C   0  0  0  0  0  0  0  0  0  0  0  0
    3.1919    9.4696    0.8789 C   0  0  0  0  0  0  0  0  0  0  0  0
    1.5640    7.7415    1.7504 C   0  0  0  0  0  0  0  0  0  0  0  0
    1.2369    6.5905    2.4764 C   0  0  0  0  0  0  0  0  0  0  0  0
   -0.1932    6.1063    2.5314 C   0  0  0  0  0  0  0  0  0  0  0  0
    3.0441    2.9918   -1.4398 H   0  0  0  0  0  0  0  0  0  0  0  0
    1.4617    2.8931   -0.6247 H   0  0  0  0  0  0  0  0  0  0  0  0
    1.7010    2.1441   -2.2337 H   0  0  0  0  0  0  0  0  0  0  0  0
    3.8909   -3.0856   -0.1925 H   0  0  0  0  0  0  0  0  0  0  0  0
    4.5013   -4.6678   -2.4872 H   0  0  0  0  0  0  0  0  0  0  0  0
    4.4435   -4.0869   -5.1458 H   0  0  0  0  0  0  0  0  0  0  0  0
    3.8343   -1.8913   -6.5789 H   0  0  0  0  0  0  0  0  0  0  0  0
    4.2151   -0.3855   -5.6816 H   0  0  0  0  0  0  0  0  0  0  0  0
    2.5423   -0.9398   -5.7778 H   0  0  0  0  0  0  0  0  0  0  0  0
    3.2203   -1.1558    1.7851 H   0  0  0  0  0  0  0  0  0  0  0  0
    2.7050    3.7399    1.2283 H   0  0  0  0  0  0  0  0  0  0  0  0
    1.6926    0.1853    3.5304 H   0  0  0  0  0  0  0  0  0  0  0  0
    0.7688    3.2889    8.0641 H   0  0  0  0  0  0  0  0  0  0  0  0
    1.0508    5.9981    8.3262 H   0  0  0  0  0  0  0  0  0  0  0  0
    1.7373    6.9136    5.8539 H   0  0  0  0  0  0  0  0  0  0  0  0
    4.5358    5.5889    4.8961 H   0  0  0  0  0  0  0  0  0  0  0  0
    5.6812    6.1419    3.6508 H   0  0  0  0  0  0  0  0  0  0  0  0
    4.8158    4.5986    3.4597 H   0  0  0  0  0  0  0  0  0  0  0  0
    4.9093    7.8816    2.3080 H   0  0  0  0  0  0  0  0  0  0  0  0
    4.2600    9.7263    0.9325 H   0  0  0  0  0  0  0  0  0  0  0  0
    2.6173   10.3357    1.2475 H   0  0  0  0  0  0  0  0  0  0  0  0
    2.9292    9.3406   -0.1844 H   0  0  0  0  0  0  0  0  0  0  0  0
    0.7650    8.2761    1.2275 H   0  0  0  0  0  0  0  0  0  0  0  0
   -0.8542    6.7576    1.9420 H   0  0  0  0  0  0  0  0  0  0  0  0
   -0.5728    6.0836    3.5656 H   0  0  0  0  0  0  0  0  0  0  0  0
   -0.2893    5.0809    2.1399 H   0  0  0  0  0  0  0  0  0  0  0  0
  1  2  1  0
  1 40  1  0
  1 41  1  0
  1 42  1  0
  2  3  1  0
  2 16  2  0
  3  4  1  0
  3 12  1  0
  4  5  1  0
  4 15  2  0
  5  6  2  0
  5 43  1  0
  6  7  1  0
  6 11  1  0
  7  8  2  0
  7 44  1  0
  8  9  1  0
  8 45  1  0
  9 10  1  0
  9 11  2  0
 10 46  1  0
 10 47  1  0
 10 48  1  0
 11 12  1  0
 12 13  1  6
 12 14  1  0
 15 16  1  0
 15 49  1  0
 16 17  1  0
 17 18  1  0
 17 21  2  0
 18 19  2  0
 18 50  1  0
 19 20  1  0
 19 30  1  0
 20 21  1  0
 20 22  1  0
 21 51  1  0
 22 23  1  1
 22 24  1  0
 22 25  1  0
 25 26  2  0
 25 29  1  0
 26 27  1  0
 26 52  1  0
 27 28  2  0
 27 53  1  0
 28 29  1  0
 28 54  1  0
 29 30  2  0
 30 31  1  0
 31 32  2  0
 31 38  1  0
 32 33  1  0
 32 34  1  0
 33 55  1  0
 33 56  1  0
 33 57  1  0
 34 35  2  0
 34 58  1  0
 35 36  1  0
 35 37  1  0
 36 59  1  0
 36 60  1  0
 36 61  1  0
 37 38  2  0
 37 62  1  0
 38 39  1  0
 39 63  1  0
 39 64  1  0
 39 65  1  0
M  CHG  4  11   1  12  -1  22  -1  25   1
M  END

