
     RDKit          3D

 33 34  0  0  0  0  0  0  0  0999 V2000
    4.9829   -2.8203   -0.7572 C   0  0  0  0  0  0  0  0  0  0  0  0
    4.4033   -1.4303   -0.6797 C   0  0  0  0  0  0  0  0  0  0  0  0
    5.1971   -0.3007   -0.8966 C   0  0  0  0  0  0  0  0  0  0  0  0
    4.6319    0.9739   -0.8186 C   0  0  0  0  0  0  0  0  0  0  0  0
    3.3446    1.1764   -0.5416 N   0  0  0  0  0  0  0  0  0  0  0  0
    2.5624    0.1171   -0.3299 C   0  0  0  0  0  0  0  0  0  0  0  0
    3.0365   -1.2104   -0.3862 C   0  0  0  0  0  0  0  0  0  0  0  0
    2.2121   -2.3305   -0.1635 N   0  0  0  0  0  0  0  0  0  0  0  0
    0.8663   -2.3813    0.1404 C   0  0  0  0  0  0  0  0  0  0  0  0
    0.1587   -1.4000    0.2699 O   0  0  0  0  0  0  0  0  0  0  0  0
    0.2996   -3.8017    0.2810 C   0  0  1  0  0  0  0  0  0  0  0  0
   -0.4590   -3.9278    1.6087 C   0  0  0  0  0  0  0  0  0  0  0  0
   -0.6097   -4.0912   -0.9169 C   0  0  1  0  0  0  0  0  0  0  0  0
    0.0061   -4.2509   -2.3314 C   0  0  0  0  0  0  0  0  0  0  0  0
   -0.9190   -5.3702   -2.5688 N   0  0  0  0  0  0  0  0  0  0  0  0
   -1.1567   -5.5277   -1.1243 C   0  0  0  0  0  0  0  0  0  0  0  0
    6.0542   -2.7873   -0.9984 H   0  0  0  0  0  0  0  0  0  0  0  0
    4.4897   -3.4284   -1.5365 H   0  0  0  0  0  0  0  0  0  0  0  0
    4.8787   -3.3629    0.1994 H   0  0  0  0  0  0  0  0  0  0  0  0
    6.2595   -0.4172   -1.1271 H   0  0  0  0  0  0  0  0  0  0  0  0
    5.2497    1.8638   -0.9878 H   0  0  0  0  0  0  0  0  0  0  0  0
    1.5115    0.2985   -0.1038 H   0  0  0  0  0  0  0  0  0  0  0  0
    2.6716   -3.2292   -0.2308 H   0  0  0  0  0  0  0  0  0  0  0  0
    1.1286   -4.5331    0.2698 H   0  0  0  0  0  0  0  0  0  0  0  0
   -1.2466   -3.1620    1.6646 H   0  0  0  0  0  0  0  0  0  0  0  0
    0.2126   -3.7858    2.4701 H   0  0  0  0  0  0  0  0  0  0  0  0
   -0.9246   -4.9213    1.7007 H   0  0  0  0  0  0  0  0  0  0  0  0
   -1.4250   -3.3519   -0.9314 H   0  0  0  0  0  0  0  0  0  0  0  0
    1.0786   -4.5379   -2.2811 H   0  0  0  0  0  0  0  0  0  0  0  0
   -0.0886   -3.4028   -3.0310 H   0  0  0  0  0  0  0  0  0  0  0  0
   -0.5463   -6.1785   -3.0639 H   0  0  0  0  0  0  0  0  0  0  0  0
   -0.5143   -6.2848   -0.6268 H   0  0  0  0  0  0  0  0  0  0  0  0
   -2.2047   -5.7246   -0.8394 H   0  0  0  0  0  0  0  0  0  0  0  0
  1  2  1  0
  1 17  1  0
  1 18  1  0
  1 19  1  0
  2  3  2  0
  2  7  1  0
  3  4  1  0
  3 20  1  0
  4  5  2  0
  4 21  1  0
  5  6  1  0
  6  7  2  0
  6 22  1  0
  7  8  1  0
  8  9  1  0
  8 23  1  0
  9 10  2  0
  9 11  1  0
 11 12  1  0
 11 13  1  0
 11 24  1  1
 12 25  1  0
 12 26  1  0
 12 27  1  0
 13 14  1  0
 13 16  1  0
 13 28  1  6
 14 15  1  0
 14 29  1  0
 14 30  1  0
 15 16  1  0
 15 31  1  0
 16 32  1  0
 16 33  1  0
M  END

