
     RDKit          3D

 35 36  0  0  0  0  0  0  0  0999 V2000
    0.6171    1.1487    0.3677 C   0  0  0  0  0  0  0  0  0  0  0  0
    1.9514    0.6383    0.1197 N   0  0  0  0  0  0  0  0  0  0  0  0
    2.9106    1.3986   -0.4627 C   0  0  0  0  0  0  0  0  0  0  0  0
    2.7601    2.6662   -0.7416 N   0  0  0  0  0  0  0  0  0  0  0  0
    3.8999    3.1920   -1.2930 C   0  0  0  0  0  0  0  0  0  0  0  0
    3.9328    4.4967   -1.6305 N   0  0  0  0  0  0  0  0  0  0  0  0
    4.9719    2.3058   -1.4681 C   0  0  0  0  0  0  0  0  0  0  0  0
    6.2357    2.6599   -2.0814 C   0  0  0  0  0  0  0  0  0  0  0  0
    6.4664    3.8249   -2.4512 O   0  0  0  0  0  0  0  0  0  0  0  0
    7.1784    1.6692   -2.2354 N   0  0  0  0  0  0  0  0  0  0  0  0
    8.4688    1.9028   -2.8804 C   0  0  1  0  0  0  0  0  0  0  0  0
    9.5910    1.2683   -2.0561 C   0  0  0  0  0  0  0  0  0  0  0  0
    8.4369    1.4887   -4.3541 C   0  0  0  0  0  0  0  0  0  0  0  0
    7.6789    2.2615   -5.2529 C   0  0  0  0  0  0  0  0  0  0  0  0
    7.5865    1.9217   -6.6024 C   0  0  0  0  0  0  0  0  0  0  0  0
    8.2616    0.7897   -7.0709 C   0  0  0  0  0  0  0  0  0  0  0  0
    8.1439    0.3159   -8.9176 Br  0  0  0  0  0  0  0  0  0  0  0  0
    9.0229    0.0065   -6.2040 C   0  0  0  0  0  0  0  0  0  0  0  0
    9.1058    0.3628   -4.8525 C   0  0  0  0  0  0  0  0  0  0  0  0
    4.4891    0.7105   -0.8521 S   0  0  0  0  0  0  0  0  0  0  0  0
    0.1018    0.4807    1.0723 H   0  0  0  0  0  0  0  0  0  0  0  0
    0.0152    1.2272   -0.5561 H   0  0  0  0  0  0  0  0  0  0  0  0
    0.6823    2.1529    0.8093 H   0  0  0  0  0  0  0  0  0  0  0  0
    2.1041   -0.3605    0.1645 H   0  0  0  0  0  0  0  0  0  0  0  0
    3.0962    5.0537   -1.5364 H   0  0  0  0  0  0  0  0  0  0  0  0
    4.7910    4.8350   -2.0618 H   0  0  0  0  0  0  0  0  0  0  0  0
    6.9022    0.7051   -2.0861 H   0  0  0  0  0  0  0  0  0  0  0  0
    8.5885    2.9957   -2.8571 H   0  0  0  0  0  0  0  0  0  0  0  0
    9.4663    0.1766   -1.9599 H   0  0  0  0  0  0  0  0  0  0  0  0
    9.5916    1.6933   -1.0418 H   0  0  0  0  0  0  0  0  0  0  0  0
   10.5749    1.4553   -2.5126 H   0  0  0  0  0  0  0  0  0  0  0  0
    7.1535    3.1439   -4.8777 H   0  0  0  0  0  0  0  0  0  0  0  0
    6.9975    2.5329   -7.2885 H   0  0  0  0  0  0  0  0  0  0  0  0
    9.5504   -0.8732   -6.5768 H   0  0  0  0  0  0  0  0  0  0  0  0
    9.7115   -0.2593   -4.1905 H   0  0  0  0  0  0  0  0  0  0  0  0
  1  2  1  0
  1 21  1  0
  1 22  1  0
  1 23  1  0
  2  3  1  0
  2 24  1  0
  3  4  2  0
  3 20  1  0
  4  5  1  0
  5  6  1  0
  5  7  2  0
  6 25  1  0
  6 26  1  0
  7  8  1  0
  7 20  1  0
  8  9  2  0
  8 10  1  0
 10 11  1  0
 10 27  1  0
 11 12  1  0
 11 13  1  0
 11 28  1  6
 12 29  1  0
 12 30  1  0
 12 31  1  0
 13 14  2  0
 13 19  1  0
 14 15  1  0
 14 32  1  0
 15 16  2  0
 15 33  1  0
 16 17  1  0
 16 18  1  0
 18 19  2  0
 18 34  1  0
 19 35  1  0
M  END

