
     RDKit          3D

 25 26  0  0  0  0  0  0  0  0999 V2000
    1.0012   -0.2141    0.0597 C   0  0  0  0  0  0  0  0  0  0  0  0
    2.4445   -0.0056   -0.0128 N   0  0  0  0  0  0  0  0  0  0  0  0
    2.9920    1.2165   -0.0635 C   0  0  0  0  0  0  0  0  0  0  0  0
    4.3615    1.4020   -0.1319 C   0  0  0  0  0  0  0  0  0  0  0  0
    4.8359    2.7429   -0.2607 C   0  0  0  0  0  0  0  0  0  0  0  0
    5.1672    3.8522   -0.3665 N   0  0  0  0  0  0  0  0  0  0  0  0
    5.1795    0.1994   -0.1212 C   0  0  0  0  0  0  0  0  0  0  0  0
    6.6677    0.2323   -0.1408 C   0  0  0  0  0  0  0  0  0  0  0  0
    7.4181    1.3020    0.3812 C   0  0  0  0  0  0  0  0  0  0  0  0
    8.8142    1.2603    0.3647 C   0  0  0  0  0  0  0  0  0  0  0  0
    9.4796    0.1589   -0.1790 C   0  0  0  0  0  0  0  0  0  0  0  0
    8.7425   -0.9136   -0.6945 C   0  0  0  0  0  0  0  0  0  0  0  0
    7.3503   -0.8830   -0.6666 C   0  0  0  0  0  0  0  0  0  0  0  0
    4.6219   -0.9871   -0.1060 N   0  0  0  0  0  0  0  0  0  0  0  0
    3.2666   -1.1892   -0.0798 C   0  0  0  0  0  0  0  0  0  0  0  0
    2.7165   -2.2686   -0.0990 O   0  0  0  0  0  0  0  0  0  0  0  0
    0.4951    0.7563    0.1415 H   0  0  0  0  0  0  0  0  0  0  0  0
    0.7626   -0.8406    0.9304 H   0  0  0  0  0  0  0  0  0  0  0  0
    0.6547   -0.7486   -0.8365 H   0  0  0  0  0  0  0  0  0  0  0  0
    2.3085    2.0691   -0.0598 H   0  0  0  0  0  0  0  0  0  0  0  0
    6.9255    2.1671    0.8236 H   0  0  0  0  0  0  0  0  0  0  0  0
    9.3825    2.0949    0.7818 H   0  0  0  0  0  0  0  0  0  0  0  0
   10.5722    0.1330   -0.1975 H   0  0  0  0  0  0  0  0  0  0  0  0
    9.2575   -1.7797   -1.1172 H   0  0  0  0  0  0  0  0  0  0  0  0
    6.7628   -1.7189   -1.0480 H   0  0  0  0  0  0  0  0  0  0  0  0
  1  2  1  0
  1 17  1  0
  1 18  1  0
  1 19  1  0
  2  3  1  0
  2 15  1  0
  3  4  2  0
  3 20  1  0
  4  5  1  0
  4  7  1  0
  5  6  3  0
  7  8  1  0
  7 14  2  0
  8  9  2  0
  8 13  1  0
  9 10  1  0
  9 21  1  0
 10 11  2  0
 10 22  1  0
 11 12  1  0
 11 23  1  0
 12 13  2  0
 12 24  1  0
 13 25  1  0
 14 15  1  0
 15 16  2  0
M  END

