
     RDKit          3D

 45 46  0  0  0  0  0  0  0  0999 V2000
    1.9106    0.8045    0.4152 C   0  0  0  0  0  0  0  0  0  0  0  0
    3.2744    0.1057    0.3013 C   0  0  0  0  0  0  0  0  0  0  0  0
    3.3284   -0.9256   -0.8070 C   0  0  0  0  0  0  0  0  0  0  0  0
    3.7583   -0.5770   -2.0935 C   0  0  0  0  0  0  0  0  0  0  0  0
    3.7627   -1.5319   -3.1178 C   0  0  0  0  0  0  0  0  0  0  0  0
    3.3424   -2.8362   -2.8756 C   0  0  0  0  0  0  0  0  0  0  0  0
    2.9101   -3.1999   -1.5880 C   0  0  0  0  0  0  0  0  0  0  0  0
    2.5243   -4.4938   -1.4279 O   0  0  0  0  0  0  0  0  0  0  0  0
    2.0412   -4.9420   -0.1695 C   0  0  0  0  0  0  0  0  0  0  0  0
    1.6568   -6.4264   -0.2692 C   0  0  1  0  0  0  0  0  0  0  0  0
    2.8380   -7.2679   -0.7892 C   0  0  0  0  0  0  0  0  0  0  0  0
    4.0693   -7.0910   -0.0196 N   0  0  0  0  0  0  0  0  0  0  0  0
    1.0865   -6.8090    1.0265 N   0  0  0  0  0  0  0  0  0  0  0  0
   -0.3580   -6.6579    1.1455 C   0  0  0  0  0  0  0  0  0  0  0  0
   -1.1362   -7.9250    0.7486 C   0  0  0  0  0  0  0  0  0  0  0  0
   -0.6439   -9.1298    1.5618 C   0  0  0  0  0  0  0  0  0  0  0  0
    0.8795   -9.2794    1.4478 C   0  0  0  0  0  0  0  0  0  0  0  0
    1.5881   -7.9525    1.7802 C   0  0  0  0  0  0  0  0  0  0  0  0
    2.9050   -2.2443   -0.5615 C   0  0  0  0  0  0  0  0  0  0  0  0
    1.9118    1.5457    1.2309 H   0  0  0  0  0  0  0  0  0  0  0  0
    1.1070    0.0784    0.6181 H   0  0  0  0  0  0  0  0  0  0  0  0
    1.6540    1.3280   -0.5197 H   0  0  0  0  0  0  0  0  0  0  0  0
    3.5157   -0.3773    1.2635 H   0  0  0  0  0  0  0  0  0  0  0  0
    4.0570    0.8636    0.1303 H   0  0  0  0  0  0  0  0  0  0  0  0
    4.0948    0.4435   -2.2957 H   0  0  0  0  0  0  0  0  0  0  0  0
    4.1021   -1.2538   -4.1193 H   0  0  0  0  0  0  0  0  0  0  0  0
    3.3401   -3.5944   -3.6613 H   0  0  0  0  0  0  0  0  0  0  0  0
    1.1607   -4.3497    0.1361 H   0  0  0  0  0  0  0  0  0  0  0  0
    2.8096   -4.8262    0.6155 H   0  0  0  0  0  0  0  0  0  0  0  0
    0.8839   -6.5112   -1.0596 H   0  0  0  0  0  0  0  0  0  0  0  0
    2.9531   -7.0105   -1.8596 H   0  0  0  0  0  0  0  0  0  0  0  0
    2.5559   -8.3311   -0.7562 H   0  0  0  0  0  0  0  0  0  0  0  0
    4.5037   -6.1969   -0.2500 H   0  0  0  0  0  0  0  0  0  0  0  0
    4.7487   -7.8054   -0.2793 H   0  0  0  0  0  0  0  0  0  0  0  0
   -0.6886   -5.7960    0.5437 H   0  0  0  0  0  0  0  0  0  0  0  0
   -0.6030   -6.4103    2.1976 H   0  0  0  0  0  0  0  0  0  0  0  0
   -0.9918   -8.1199   -0.3302 H   0  0  0  0  0  0  0  0  0  0  0  0
   -2.2185   -7.7669    0.8982 H   0  0  0  0  0  0  0  0  0  0  0  0
   -1.1546  -10.0537    1.2416 H   0  0  0  0  0  0  0  0  0  0  0  0
   -0.9130   -8.9787    2.6245 H   0  0  0  0  0  0  0  0  0  0  0  0
    1.1389   -9.5958    0.4211 H   0  0  0  0  0  0  0  0  0  0  0  0
    1.2426  -10.0749    2.1221 H   0  0  0  0  0  0  0  0  0  0  0  0
    2.6751   -8.0202    1.6435 H   0  0  0  0  0  0  0  0  0  0  0  0
    1.4228   -7.7402    2.8560 H   0  0  0  0  0  0  0  0  0  0  0  0
    2.5788   -2.5155    0.4436 H   0  0  0  0  0  0  0  0  0  0  0  0
  1  2  1  0
  1 20  1  0
  1 21  1  0
  1 22  1  0
  2  3  1  0
  2 23  1  0
  2 24  1  0
  3  4  2  0
  3 19  1  0
  4  5  1  0
  4 25  1  0
  5  6  2  0
  5 26  1  0
  6  7  1  0
  6 27  1  0
  7  8  1  0
  7 19  2  0
  8  9  1  0
  9 10  1  0
  9 28  1  0
  9 29  1  0
 10 11  1  0
 10 13  1  0
 10 30  1  6
 11 12  1  0
 11 31  1  0
 11 32  1  0
 12 33  1  0
 12 34  1  0
 13 14  1  0
 13 18  1  0
 14 15  1  0
 14 35  1  0
 14 36  1  0
 15 16  1  0
 15 37  1  0
 15 38  1  0
 16 17  1  0
 16 39  1  0
 16 40  1  0
 17 18  1  0
 17 41  1  0
 17 42  1  0
 18 43  1  0
 18 44  1  0
 19 45  1  0
M  END

