
     RDKit          3D

 35 37  0  0  0  0  0  0  0  0999 V2000
    0.9363    0.5619    0.5765 N   0  0  0  0  0  0  0  0  0  0  0  0
    2.0682    0.8129    0.5046 C   0  0  0  0  0  0  0  0  0  0  0  0
    3.4676    1.1154    0.4138 C   0  0  0  0  0  0  0  0  0  0  0  0
    3.8204    2.4368   -0.0122 C   0  0  0  0  0  0  0  0  0  0  0  0
    4.1477    3.4998   -0.3494 N   0  0  0  0  0  0  0  0  0  0  0  0
    4.4051    0.1604    0.7256 C   0  0  0  0  0  0  0  0  0  0  0  0
    5.8364    0.2617    0.7198 C   0  0  0  0  0  0  0  0  0  0  0  0
    6.6530    1.3884    0.5627 C   0  0  0  0  0  0  0  0  0  0  0  0
    7.9291    0.9824    0.7378 N   0  0  0  0  0  0  0  0  0  0  0  0
    9.1132    1.7735    0.6704 C   0  0  0  0  0  0  0  0  0  0  0  0
    9.0830    3.0468    0.0844 C   0  0  0  0  0  0  0  0  0  0  0  0
   10.2491    3.8133    0.0462 C   0  0  0  0  0  0  0  0  0  0  0  0
   11.4435    3.3160    0.5756 C   0  0  0  0  0  0  0  0  0  0  0  0
   11.4661    2.0394    1.1458 C   0  0  0  0  0  0  0  0  0  0  0  0
   10.3072    1.2639    1.1980 C   0  0  0  0  0  0  0  0  0  0  0  0
    8.0148   -0.3436    1.0016 N   0  0  0  0  0  0  0  0  0  0  0  0
    6.7740   -0.8067    0.9879 C   0  0  0  0  0  0  0  0  0  0  0  0
    6.5100   -2.2374    1.2402 C   0  0  0  0  0  0  0  0  0  0  0  0
    5.5419   -2.9494    0.5079 C   0  0  0  0  0  0  0  0  0  0  0  0
    5.3173   -4.3055    0.7585 C   0  0  0  0  0  0  0  0  0  0  0  0
    6.0591   -4.9715    1.7376 C   0  0  0  0  0  0  0  0  0  0  0  0
    7.0342   -4.2761    2.4612 C   0  0  0  0  0  0  0  0  0  0  0  0
    7.2595   -2.9219    2.2153 C   0  0  0  0  0  0  0  0  0  0  0  0
    4.0023   -0.8084    1.0297 H   0  0  0  0  0  0  0  0  0  0  0  0
    6.3935    2.4257    0.3795 H   0  0  0  0  0  0  0  0  0  0  0  0
    8.1661    3.4405   -0.3563 H   0  0  0  0  0  0  0  0  0  0  0  0
   10.2211    4.8048   -0.4118 H   0  0  0  0  0  0  0  0  0  0  0  0
   12.3536    3.9191    0.5391 H   0  0  0  0  0  0  0  0  0  0  0  0
   12.3955    1.6397    1.5586 H   0  0  0  0  0  0  0  0  0  0  0  0
   10.3090    0.2671    1.6369 H   0  0  0  0  0  0  0  0  0  0  0  0
    4.9845   -2.4522   -0.2889 H   0  0  0  0  0  0  0  0  0  0  0  0
    4.5660   -4.8455    0.1769 H   0  0  0  0  0  0  0  0  0  0  0  0
    5.8821   -6.0321    1.9333 H   0  0  0  0  0  0  0  0  0  0  0  0
    7.6206   -4.7926    3.2253 H   0  0  0  0  0  0  0  0  0  0  0  0
    8.0166   -2.3751    2.7803 H   0  0  0  0  0  0  0  0  0  0  0  0
  1  2  3  0
  2  3  1  0
  3  4  1  0
  3  6  2  0
  4  5  3  0
  6  7  1  0
  6 24  1  0
  7  8  2  0
  7 17  1  0
  8  9  1  0
  8 25  1  0
  9 10  1  0
  9 16  1  0
 10 11  2  0
 10 15  1  0
 11 12  1  0
 11 26  1  0
 12 13  2  0
 12 27  1  0
 13 14  1  0
 13 28  1  0
 14 15  2  0
 14 29  1  0
 15 30  1  0
 16 17  2  0
 17 18  1  0
 18 19  2  0
 18 23  1  0
 19 20  1  0
 19 31  1  0
 20 21  2  0
 20 32  1  0
 21 22  1  0
 21 33  1  0
 22 23  2  0
 22 34  1  0
 23 35  1  0
M  END

