
     RDKit          3D

 42 44  0  0  0  0  0  0  0  0999 V2000
    2.1123    0.9103    0.2987 O   0  0  0  0  0  0  0  0  0  0  0  0
    2.9564    0.0909    0.5551 C   0  0  0  0  0  0  0  0  0  0  0  0
    3.9012   -0.2774   -0.2944 O   0  0  0  0  0  0  0  0  0  0  0  0
    3.0081   -0.5127    1.9790 C   0  0  0  0  0  0  0  0  0  0  0  0
    3.5651   -1.8505    2.0737 N   0  0  0  0  0  0  0  0  0  0  0  0
    3.1038   -2.9313    2.7460 C   0  0  0  0  0  0  0  0  0  0  0  0
    3.9981   -3.9653    2.5177 C   0  0  0  0  0  0  0  0  0  0  0  0
    4.9853   -3.3938    1.6708 C   0  0  0  0  0  0  0  0  0  0  0  0
    6.0986   -4.0489    1.1536 N   0  0  0  0  0  0  0  0  0  0  0  0
    6.8747   -3.6361    0.0719 C   0  0  0  0  0  0  0  0  0  0  0  0
    6.6382   -2.6310   -0.5684 O   0  0  0  0  0  0  0  0  0  0  0  0
    8.0178   -4.5246   -0.2422 C   0  0  0  0  0  0  0  0  0  0  0  0
    8.7846   -4.4589   -1.4341 C   0  0  0  0  0  0  0  0  0  0  0  0
    9.7592   -5.3569   -1.4365 N   0  0  0  0  0  0  0  0  0  0  0  0
    9.6567   -6.0102   -0.2624 N   0  0  0  0  0  0  0  0  0  0  0  0
   10.5912   -7.0811    0.1189 C   0  0  1  0  0  0  0  0  0  0  0  0
   10.5242   -8.2923   -0.8339 C   0  0  0  0  0  0  0  0  0  0  0  0
   11.2906   -8.0957   -2.1496 C   0  0  0  0  0  0  0  0  0  0  0  0
   12.7376   -7.6523   -1.8957 C   0  0  0  0  0  0  0  0  0  0  0  0
   12.7908   -6.3829   -1.0350 C   0  0  0  0  0  0  0  0  0  0  0  0
   12.0372   -6.5714    0.2887 C   0  0  0  0  0  0  0  0  0  0  0  0
    8.6270   -5.5449    0.4869 C   0  0  0  0  0  0  0  0  0  0  0  0
    4.7180   -2.1134    1.4241 N   0  0  0  0  0  0  0  0  0  0  0  0
    4.5011   -0.9642    0.1075 H   0  0  0  0  0  0  0  0  0  0  0  0
    1.9829   -0.5237    2.3673 H   0  0  0  0  0  0  0  0  0  0  0  0
    3.5998    0.1831    2.6009 H   0  0  0  0  0  0  0  0  0  0  0  0
    2.1865   -2.8938    3.3298 H   0  0  0  0  0  0  0  0  0  0  0  0
    3.9407   -4.9847    2.8913 H   0  0  0  0  0  0  0  0  0  0  0  0
    6.2568   -4.9821    1.5111 H   0  0  0  0  0  0  0  0  0  0  0  0
    8.6373   -3.7826   -2.2749 H   0  0  0  0  0  0  0  0  0  0  0  0
   10.2252   -7.4032    1.1060 H   0  0  0  0  0  0  0  0  0  0  0  0
    9.4692   -8.5489   -1.0248 H   0  0  0  0  0  0  0  0  0  0  0  0
   10.9612   -9.1472   -0.2871 H   0  0  0  0  0  0  0  0  0  0  0  0
   10.7774   -7.3360   -2.7590 H   0  0  0  0  0  0  0  0  0  0  0  0
   11.2722   -9.0380   -2.7225 H   0  0  0  0  0  0  0  0  0  0  0  0
   13.2552   -7.4825   -2.8542 H   0  0  0  0  0  0  0  0  0  0  0  0
   13.2881   -8.4660   -1.3857 H   0  0  0  0  0  0  0  0  0  0  0  0
   12.3443   -5.5447   -1.5921 H   0  0  0  0  0  0  0  0  0  0  0  0
   13.8369   -6.1076   -0.8198 H   0  0  0  0  0  0  0  0  0  0  0  0
   12.0288   -5.6390    0.8767 H   0  0  0  0  0  0  0  0  0  0  0  0
   12.5668   -7.3236    0.9010 H   0  0  0  0  0  0  0  0  0  0  0  0
    8.4308   -5.9486    1.4788 H   0  0  0  0  0  0  0  0  0  0  0  0
  1  2  2  0
  2  3  1  0
  2  4  1  0
  3 24  1  0
  4  5  1  0
  4 25  1  0
  4 26  1  0
  5  6  1  0
  5 23  1  0
  6  7  2  0
  6 27  1  0
  7  8  1  0
  7 28  1  0
  8  9  1  0
  8 23  2  0
  9 10  1  0
  9 29  1  0
 10 11  2  0
 10 12  1  0
 12 13  1  0
 12 22  2  0
 13 14  2  0
 13 30  1  0
 14 15  1  0
 15 16  1  0
 15 22  1  0
 16 17  1  0
 16 21  1  0
 16 31  1  1
 17 18  1  0
 17 32  1  0
 17 33  1  0
 18 19  1  0
 18 34  1  0
 18 35  1  0
 19 20  1  0
 19 36  1  0
 19 37  1  0
 20 21  1  0
 20 38  1  0
 20 39  1  0
 21 40  1  0
 21 41  1  0
 22 42  1  0
M  END

