
     RDKit          3D

 37 38  0  0  0  0  0  0  0  0999 V2000
    0.5368    2.0316   -0.6113 C   0  0  0  0  0  0  0  0  0  0  0  0
    1.8841    1.3661   -0.3574 C   0  0  1  0  0  0  0  0  0  0  0  0
    1.7873    0.2752   -0.2671 H   0  0  0  0  0  0  0  0  0  0  0  0
    2.9721    1.6305   -1.8480 S   0  0  0  0  0  0  0  0  0  0  0  0
    3.8296    0.0974   -1.8277 C   0  0  0  0  0  0  0  0  0  0  0  0
    3.8380   -0.7776   -0.8447 N   0  0  0  0  0  0  0  0  0  0  0  0
    4.5994   -1.8458   -1.2393 N   0  0  0  0  0  0  0  0  0  0  0  0
    5.0367   -1.5839   -2.4393 C   0  0  0  0  0  0  0  0  0  0  0  0
    4.5826   -0.3586   -2.8746 N   0  0  0  0  0  0  0  0  0  0  0  0
    4.8269    0.2965   -4.1471 C   0  0  0  0  0  0  0  0  0  0  0  0
    2.5656    1.9432    0.8964 C   0  0  0  0  0  0  0  0  0  0  0  0
    2.2217    3.0230    1.3367 O   0  0  0  0  0  0  0  0  0  0  0  0
    3.5456    1.1355    1.4476 N   0  0  0  0  0  0  0  0  0  0  0  0
    4.3035    1.4007    2.5942 C   0  0  0  0  0  0  0  0  0  0  0  0
    4.0371    2.5208    3.4159 C   0  0  0  0  0  0  0  0  0  0  0  0
    4.7785    2.7649    4.5653 C   0  0  0  0  0  0  0  0  0  0  0  0
    5.8066    1.8940    4.9187 C   0  0  0  0  0  0  0  0  0  0  0  0
    6.5948    2.1455    6.1348 N   0  0  0  0  0  0  0  0  0  0  0  0
    6.3088    3.1306    6.7976 O   0  0  0  0  0  0  0  0  0  0  0  0
    7.4857    1.3548    6.4057 O   0  0  0  0  0  0  0  0  0  0  0  0
    6.1041    0.7852    4.1324 C   0  0  0  0  0  0  0  0  0  0  0  0
    5.3675    0.5322    2.9774 C   0  0  0  0  0  0  0  0  0  0  0  0
    5.7604   -0.6648    2.1402 C   0  0  1  0  0  0  0  0  0  0  0  0
    6.1960   -0.2832    0.9228 F   0  0  0  0  0  0  0  0  0  0  0  0
    6.7441   -1.3772    2.7056 F   0  0  0  0  0  0  0  0  0  0  0  0
    4.7208   -1.4979    1.9530 F   0  0  0  0  0  0  0  0  0  0  0  0
    0.0589    1.6060   -1.5047 H   0  0  0  0  0  0  0  0  0  0  0  0
    0.6471    3.1180   -0.7367 H   0  0  0  0  0  0  0  0  0  0  0  0
   -0.1224    1.8702    0.2551 H   0  0  0  0  0  0  0  0  0  0  0  0
    5.6776   -2.2264   -3.0420 H   0  0  0  0  0  0  0  0  0  0  0  0
    5.3598   -0.3979   -4.8095 H   0  0  0  0  0  0  0  0  0  0  0  0
    5.4404    1.2011   -4.0141 H   0  0  0  0  0  0  0  0  0  0  0  0
    3.8741    0.5789   -4.6202 H   0  0  0  0  0  0  0  0  0  0  0  0
    3.7233    0.2649    0.9263 H   0  0  0  0  0  0  0  0  0  0  0  0
    3.2377    3.1967    3.1294 H   0  0  0  0  0  0  0  0  0  0  0  0
    4.5661    3.6276    5.1966 H   0  0  0  0  0  0  0  0  0  0  0  0
    6.9169    0.1258    4.4297 H   0  0  0  0  0  0  0  0  0  0  0  0
  1  2  1  0
  1 27  1  0
  1 28  1  0
  1 29  1  0
  2  3  1  1
  2  4  1  0
  2 11  1  0
  4  5  2  0
  5  6  1  0
  5  9  1  0
  6  7  2  0
  7  8  1  0
  8  9  2  0
  8 30  1  0
  9 10  1  0
 10 31  1  0
 10 32  1  0
 10 33  1  0
 11 12  2  0
 11 13  1  0
 13 14  1  0
 13 34  1  0
 14 15  2  0
 14 22  1  0
 15 16  1  0
 15 35  1  0
 16 17  2  0
 16 36  1  0
 17 18  1  0
 17 21  1  0
 18 19  1  0
 18 20  1  0
 21 22  2  0
 21 37  1  0
 22 23  1  0
 23 24  1  6
 23 25  1  0
 23 26  1  0
M  CHG  4   4   1   9   1  19  -1  20  -1
M  END

