
     RDKit          3D

 47 49  0  0  0  0  0  0  0  0999 V2000
    2.4633   -3.7179   -2.9057 C   0  0  0  0  0  0  0  0  0  0  0  0
    2.5720   -2.9216   -1.7413 O   0  0  0  0  0  0  0  0  0  0  0  0
    3.7283   -2.2603   -1.4905 C   0  0  0  0  0  0  0  0  0  0  0  0
    4.8560   -2.2979   -2.3034 C   0  0  0  0  0  0  0  0  0  0  0  0
    5.9857   -1.5640   -1.9220 C   0  0  0  0  0  0  0  0  0  0  0  0
    7.1738   -1.6108   -2.7898 N   0  0  0  0  0  0  0  0  0  0  0  0
    7.1090   -2.2932   -3.8029 O   0  0  0  0  0  0  0  0  0  0  0  0
    8.1529   -0.9664   -2.4478 O   0  0  0  0  0  0  0  0  0  0  0  0
    6.0162   -0.8007   -0.7598 C   0  0  0  0  0  0  0  0  0  0  0  0
    4.8839   -0.7629    0.0562 C   0  0  0  0  0  0  0  0  0  0  0  0
    3.7332   -1.4854   -0.2932 C   0  0  0  0  0  0  0  0  0  0  0  0
    2.5595   -1.5103    0.4545 N   0  0  0  0  0  0  0  0  0  0  0  0
    2.2746   -0.8741    1.6251 C   0  0  0  0  0  0  0  0  0  0  0  0
    3.0376   -0.1431    2.2353 O   0  0  0  0  0  0  0  0  0  0  0  0
    0.8151   -1.2319    2.0468 C   0  0  0  0  0  0  0  0  0  0  0  0
    0.1741   -1.9557    1.2868 O   0  0  0  0  0  0  0  0  0  0  0  0
    0.3056   -0.7469    3.2072 N   0  0  0  0  0  0  0  0  0  0  0  0
    0.9488    0.1052    4.2148 C   0  0  0  0  0  0  0  0  0  0  0  0
    0.1165    1.3626    4.4502 C   0  0  0  0  0  0  0  0  0  0  0  0
   -1.2691    1.0371    4.7738 N   0  0  0  0  0  0  0  0  0  0  0  0
   -1.9911    1.8666    5.6234 C   0  0  0  0  0  0  0  0  0  0  0  0
   -3.4078    1.8338    5.7071 C   0  0  0  0  0  0  0  0  0  0  0  0
   -4.0417    2.6646    6.6242 C   0  0  0  0  0  0  0  0  0  0  0  0
   -3.2862    3.5216    7.4320 C   0  0  0  0  0  0  0  0  0  0  0  0
   -1.9025    3.4994    7.2572 C   0  0  0  0  0  0  0  0  0  0  0  0
   -1.2767    2.7077    6.3881 N   0  0  0  0  0  0  0  0  0  0  0  0
   -1.9127    0.1558    3.8164 C   0  0  0  0  0  0  0  0  0  0  0  0
   -1.0678   -1.0972    3.5662 C   0  0  0  0  0  0  0  0  0  0  0  0
    1.4534   -4.1470   -2.8948 H   0  0  0  0  0  0  0  0  0  0  0  0
    3.2055   -4.5348   -2.9060 H   0  0  0  0  0  0  0  0  0  0  0  0
    2.5920   -3.1138   -3.8205 H   0  0  0  0  0  0  0  0  0  0  0  0
    4.8958   -2.8748   -3.2241 H   0  0  0  0  0  0  0  0  0  0  0  0
    6.9183   -0.2465   -0.5048 H   0  0  0  0  0  0  0  0  0  0  0  0
    4.8749   -0.1754    0.9711 H   0  0  0  0  0  0  0  0  0  0  0  0
    1.7864   -2.0719    0.0911 H   0  0  0  0  0  0  0  0  0  0  0  0
    1.9568    0.3686    3.8879 H   0  0  0  0  0  0  0  0  0  0  0  0
    1.0173   -0.4711    5.1553 H   0  0  0  0  0  0  0  0  0  0  0  0
    0.1586    1.9963    3.5397 H   0  0  0  0  0  0  0  0  0  0  0  0
    0.5325    1.9437    5.2808 H   0  0  0  0  0  0  0  0  0  0  0  0
   -4.0064    1.1875    5.0669 H   0  0  0  0  0  0  0  0  0  0  0  0
   -5.1325    2.6484    6.6995 H   0  0  0  0  0  0  0  0  0  0  0  0
   -3.7517    4.1893    8.1590 H   0  0  0  0  0  0  0  0  0  0  0  0
   -1.2602    4.1612    7.8515 H   0  0  0  0  0  0  0  0  0  0  0  0
   -2.0956    0.6747    2.8516 H   0  0  0  0  0  0  0  0  0  0  0  0
   -2.8856   -0.1754    4.2009 H   0  0  0  0  0  0  0  0  0  0  0  0
   -1.4961   -1.6977    2.7557 H   0  0  0  0  0  0  0  0  0  0  0  0
   -1.0447   -1.7079    4.4868 H   0  0  0  0  0  0  0  0  0  0  0  0
  1  2  1  0
  1 29  1  0
  1 30  1  0
  1 31  1  0
  2  3  1  0
  3  4  2  0
  3 11  1  0
  4  5  1  0
  4 32  1  0
  5  6  1  0
  5  9  2  0
  6  7  2  0
  6  8  1  0
  9 10  1  0
  9 33  1  0
 10 11  2  0
 10 34  1  0
 11 12  1  0
 12 13  1  0
 12 35  1  0
 13 14  2  0
 13 15  1  0
 15 16  2  0
 15 17  1  0
 17 18  1  0
 17 28  1  0
 18 19  1  0
 18 36  1  0
 18 37  1  0
 19 20  1  0
 19 38  1  0
 19 39  1  0
 20 21  1  0
 20 27  1  0
 21 22  2  0
 21 26  1  0
 22 23  1  0
 22 40  1  0
 23 24  2  0
 23 41  1  0
 24 25  1  0
 24 42  1  0
 25 26  2  0
 25 43  1  0
 27 28  1  0
 27 44  1  0
 27 45  1  0
 28 46  1  0
 28 47  1  0
M  CHG  2   6   1   8  -1
M  END

