
     RDKit          3D

 31 33  0  0  0  0  0  0  0  0999 V2000
    1.6444   -0.0620    1.1431 C   0  0  0  0  0  0  0  0  0  0  0  0
    2.6153   -0.1791    0.1261 O   0  0  0  0  0  0  0  0  0  0  0  0
    2.8748    0.8823   -0.6730 C   0  0  0  0  0  0  0  0  0  0  0  0
    2.2345    2.1286   -0.5796 C   0  0  0  0  0  0  0  0  0  0  0  0
    2.5778    3.1558   -1.4604 C   0  0  0  0  0  0  0  0  0  0  0  0
    3.5650    2.9867   -2.4480 C   0  0  0  0  0  0  0  0  0  0  0  0
    3.9178    4.0860   -3.3522 C   0  0  0  0  0  0  0  0  0  0  0  0
    3.7362    5.4474   -3.1769 C   0  0  0  0  0  0  0  0  0  0  0  0
    4.1983    6.2303   -4.2627 C   0  0  0  0  0  0  0  0  0  0  0  0
    4.7431    5.4820   -5.2927 C   0  0  0  0  0  0  0  0  0  0  0  0
    5.3190    5.9324   -6.5424 C   0  0  0  0  0  0  0  0  0  0  0  0
    6.0593    5.2093   -7.4689 C   0  0  0  0  0  0  0  0  0  0  0  0
    6.4708    5.9733   -8.5844 C   0  0  0  0  0  0  0  0  0  0  0  0
    6.0487    7.2905   -8.5220 C   0  0  0  0  0  0  0  0  0  0  0  0
    6.2863    8.3281   -9.4568 C   0  0  0  0  0  0  0  0  0  0  0  0
    6.4787    9.1831  -10.2222 N   0  0  0  0  0  0  0  0  0  0  0  0
    5.1196    7.5851   -7.0697 S   0  0  0  0  0  0  0  0  0  0  0  0
    4.6600    3.7772   -4.9053 S   0  0  0  0  0  0  0  0  0  0  0  0
    4.1967    1.7251   -2.5238 C   0  0  0  0  0  0  0  0  0  0  0  0
    3.8597    0.6931   -1.6596 C   0  0  0  0  0  0  0  0  0  0  0  0
    1.6113   -1.0320    1.6566 H   0  0  0  0  0  0  0  0  0  0  0  0
    0.6431    0.1589    0.7316 H   0  0  0  0  0  0  0  0  0  0  0  0
    1.9094    0.7218    1.8754 H   0  0  0  0  0  0  0  0  0  0  0  0
    1.4592    2.3076    0.1655 H   0  0  0  0  0  0  0  0  0  0  0  0
    2.0460    4.1067   -1.3854 H   0  0  0  0  0  0  0  0  0  0  0  0
    3.3079    5.8758   -2.2703 H   0  0  0  0  0  0  0  0  0  0  0  0
    4.1550    7.3209   -4.2807 H   0  0  0  0  0  0  0  0  0  0  0  0
    6.3080    4.1560   -7.3331 H   0  0  0  0  0  0  0  0  0  0  0  0
    7.0644    5.5848   -9.4122 H   0  0  0  0  0  0  0  0  0  0  0  0
    4.9812    1.5565   -3.2660 H   0  0  0  0  0  0  0  0  0  0  0  0
    4.3541   -0.2784   -1.7190 H   0  0  0  0  0  0  0  0  0  0  0  0
  1  2  1  0
  1 21  1  0
  1 22  1  0
  1 23  1  0
  2  3  1  0
  3  4  2  0
  3 20  1  0
  4  5  1  0
  4 24  1  0
  5  6  2  0
  5 25  1  0
  6  7  1  0
  6 19  1  0
  7  8  2  0
  7 18  1  0
  8  9  1  0
  8 26  1  0
  9 10  2  0
  9 27  1  0
 10 11  1  0
 10 18  1  0
 11 12  2  0
 11 17  1  0
 12 13  1  0
 12 28  1  0
 13 14  2  0
 13 29  1  0
 14 15  1  0
 14 17  1  0
 15 16  3  0
 19 20  2  0
 19 30  1  0
 20 31  1  0
M  END

