
     RDKit          3D

 59 62  0  0  0  0  0  0  0  0999 V2000
    1.9181    0.3463    2.5541 C   0  0  0  0  0  0  0  0  0  0  0  0
    2.1291    0.4781    1.0466 C   0  0  0  0  0  0  0  0  0  0  0  0
    3.2645    1.4178    0.6123 C   0  0  0  0  0  0  0  0  0  0  0  0
    4.6038    1.0029    1.0636 N   0  0  0  0  0  0  0  0  0  0  0  0
    5.1696   -0.0994    0.4361 C   0  0  0  0  0  0  0  0  0  0  0  0
    4.6032   -0.6595   -0.4942 O   0  0  0  0  0  0  0  0  0  0  0  0
    6.4722   -0.5675    0.9837 C   0  0  0  0  0  0  0  0  0  0  0  0
    7.1201   -1.6400    0.3538 C   0  0  0  0  0  0  0  0  0  0  0  0
    8.2820   -2.1792    0.8970 C   0  0  0  0  0  0  0  0  0  0  0  0
    8.7918   -1.6493    2.0900 C   0  0  0  0  0  0  0  0  0  0  0  0
    8.1668   -0.5827    2.7355 C   0  0  0  0  0  0  0  0  0  0  0  0
    7.0061   -0.0234    2.1731 C   0  0  0  0  0  0  0  0  0  0  0  0
    6.3255    1.0695    2.7330 N   0  0  0  0  0  0  0  0  0  0  0  0
    6.5310    1.6409    3.9895 C   0  0  0  0  0  0  0  0  0  0  0  0
    7.2789    1.2218    4.8425 O   0  0  0  0  0  0  0  0  0  0  0  0
    5.6527    2.8787    4.0770 C   0  0  0  0  0  0  0  0  0  0  0  0
    4.7030    2.7665    2.8827 C   0  0  0  0  0  0  0  0  0  0  0  0
    5.4647    1.8742    1.8653 C   0  0  2  0  0  0  0  0  0  0  0  0
    6.3980    2.8025    0.9962 C   0  0  0  0  0  0  0  0  0  0  0  0
    7.2492    3.4629    1.5711 O   0  0  0  0  0  0  0  0  0  0  0  0
    6.1432    2.8205   -0.3390 N   0  0  0  0  0  0  0  0  0  0  0  0
    6.7922    3.5491   -1.3684 C   0  0  0  0  0  0  0  0  0  0  0  0
    7.8436    4.4428   -1.0853 C   0  0  0  0  0  0  0  0  0  0  0  0
    8.4711    5.1476   -2.1105 C   0  0  0  0  0  0  0  0  0  0  0  0
    9.4877    6.0216   -1.9237 O   0  0  0  0  0  0  0  0  0  0  0  0
    9.9662    6.2402   -0.6158 C   0  0  0  0  0  0  0  0  0  0  0  0
    8.0471    4.9628   -3.4529 C   0  0  0  0  0  0  0  0  0  0  0  0
    8.7081    5.6834   -4.3924 O   0  0  0  0  0  0  0  0  0  0  0  0
    8.3429    5.5417   -5.7434 C   0  0  0  0  0  0  0  0  0  0  0  0
    7.0051    4.0722   -3.7114 C   0  0  0  0  0  0  0  0  0  0  0  0
    6.3584    3.3514   -2.6911 C   0  0  0  0  0  0  0  0  0  0  0  0
    5.2273    2.4076   -3.0287 C   0  0  0  0  0  0  0  0  0  0  0  0
    1.1066   -0.3652    2.7732 H   0  0  0  0  0  0  0  0  0  0  0  0
    1.6416    1.3085    3.0179 H   0  0  0  0  0  0  0  0  0  0  0  0
    2.8244   -0.0269    3.0577 H   0  0  0  0  0  0  0  0  0  0  0  0
    1.2053    0.8543    0.5726 H   0  0  0  0  0  0  0  0  0  0  0  0
    2.3198   -0.5103    0.6019 H   0  0  0  0  0  0  0  0  0  0  0  0
    3.0815    2.4384    0.9749 H   0  0  0  0  0  0  0  0  0  0  0  0
    3.2640    1.4564   -0.4895 H   0  0  0  0  0  0  0  0  0  0  0  0
    6.6712   -2.0400   -0.5572 H   0  0  0  0  0  0  0  0  0  0  0  0
    8.7857   -3.0137    0.4041 H   0  0  0  0  0  0  0  0  0  0  0  0
    9.6999   -2.0715    2.5284 H   0  0  0  0  0  0  0  0  0  0  0  0
    8.5579   -0.1763    3.6649 H   0  0  0  0  0  0  0  0  0  0  0  0
    6.3123    3.7552    4.0017 H   0  0  0  0  0  0  0  0  0  0  0  0
    5.1454    2.9097    5.0516 H   0  0  0  0  0  0  0  0  0  0  0  0
    4.4261    3.7379    2.4517 H   0  0  0  0  0  0  0  0  0  0  0  0
    3.7849    2.2438    3.1786 H   0  0  0  0  0  0  0  0  0  0  0  0
    5.4224    2.1849   -0.6554 H   0  0  0  0  0  0  0  0  0  0  0  0
    8.1535    4.5618   -0.0521 H   0  0  0  0  0  0  0  0  0  0  0  0
   10.7831    6.9695   -0.7010 H   0  0  0  0  0  0  0  0  0  0  0  0
   10.3574    5.3129   -0.1599 H   0  0  0  0  0  0  0  0  0  0  0  0
    9.1832    6.6527    0.0459 H   0  0  0  0  0  0  0  0  0  0  0  0
    9.0017    6.2072   -6.3177 H   0  0  0  0  0  0  0  0  0  0  0  0
    7.2928    5.8389   -5.9221 H   0  0  0  0  0  0  0  0  0  0  0  0
    8.4815    4.5054   -6.1034 H   0  0  0  0  0  0  0  0  0  0  0  0
    6.6702    3.9184   -4.7376 H   0  0  0  0  0  0  0  0  0  0  0  0
    5.0946    2.3303   -4.1170 H   0  0  0  0  0  0  0  0  0  0  0  0
    4.2623    2.7511   -2.6131 H   0  0  0  0  0  0  0  0  0  0  0  0
    5.3951    1.3833   -2.6523 H   0  0  0  0  0  0  0  0  0  0  0  0
  1  2  1  0
  1 33  1  0
  1 34  1  0
  1 35  1  0
  2  3  1  0
  2 36  1  0
  2 37  1  0
  3  4  1  0
  3 38  1  0
  3 39  1  0
  4  5  1  0
  4 18  1  0
  5  6  2  0
  5  7  1  0
  7  8  1  0
  7 12  2  0
  8  9  2  0
  8 40  1  0
  9 10  1  0
  9 41  1  0
 10 11  2  0
 10 42  1  0
 11 12  1  0
 11 43  1  0
 12 13  1  0
 13 14  1  0
 13 18  1  0
 14 15  2  0
 14 16  1  0
 16 17  1  0
 16 44  1  0
 16 45  1  0
 17 18  1  0
 17 46  1  0
 17 47  1  0
 18 19  1  6
 19 20  2  0
 19 21  1  0
 21 22  1  0
 21 48  1  0
 22 23  2  0
 22 31  1  0
 23 24  1  0
 23 49  1  0
 24 25  1  0
 24 27  2  0
 25 26  1  0
 26 50  1  0
 26 51  1  0
 26 52  1  0
 27 28  1  0
 27 30  1  0
 28 29  1  0
 29 53  1  0
 29 54  1  0
 29 55  1  0
 30 31  2  0
 30 56  1  0
 31 32  1  0
 32 57  1  0
 32 58  1  0
 32 59  1  0
M  END

