
     RDKit          3D

 74 79  0  0  0  0  0  0  0  0999 V2000
    6.8575   -0.4654    3.8825 O   0  0  0  0  0  0  0  0  0  0  0  0
    6.2039   -0.2872    2.8649 C   0  0  0  0  0  0  0  0  0  0  0  0
    4.9014    0.1197    2.8725 N   0  0  0  0  0  0  0  0  0  0  0  0
    4.2438    0.6064    4.0869 C   0  0  2  0  0  0  0  0  0  0  0  0
    4.9268    1.3228    4.5791 H   0  0  0  0  0  0  0  0  0  0  0  0
    3.9621   -0.5003    5.1235 C   0  0  0  0  0  0  0  0  0  0  0  0
    2.8406   -1.3773    4.8185 N   0  0  0  0  0  0  0  0  0  0  0  0
    3.0557   -2.3835    3.7790 C   0  0  0  0  0  0  0  0  0  0  0  0
    1.8258   -3.3000    3.8930 C   0  0  0  0  0  0  0  0  0  0  0  0
    1.3712   -3.1524    5.3711 C   0  0  0  0  0  0  0  0  0  0  0  0
    2.3557   -2.1342    5.9729 C   0  0  0  0  0  0  0  0  0  0  0  0
    2.9636    1.3626    3.6695 C   0  0  2  0  0  0  0  0  0  0  0  0
    2.2386    0.6065    3.3185 H   0  0  0  0  0  0  0  0  0  0  0  0
    3.3374    2.2240    2.5958 O   0  0  0  0  0  0  0  0  0  0  0  0
    2.3334    2.1323    4.8169 C   0  0  0  0  0  0  0  0  0  0  0  0
    2.7693    3.4211    5.1462 C   0  0  0  0  0  0  0  0  0  0  0  0
    2.2027    4.1217    6.2146 C   0  0  0  0  0  0  0  0  0  0  0  0
    1.1828    3.5464    6.9874 C   0  0  0  0  0  0  0  0  0  0  0  0
    0.5763    4.1537    8.0354 O   0  0  0  0  0  0  0  0  0  0  0  0
    0.9485    5.4591    8.3816 C   0  0  1  0  0  0  0  0  0  0  0  0
    0.7076    5.8348    9.8059 C   0  0  0  0  0  0  0  0  0  0  0  0
    2.1242    5.6647    9.2993 C   0  0  0  0  0  0  0  0  0  0  0  0
    0.7444    2.2471    6.6514 C   0  0  0  0  0  0  0  0  0  0  0  0
   -0.5163    1.4955    7.5971 Cl  0  0  0  0  0  0  0  0  0  0  0  0
    1.3075    1.5576    5.5814 C   0  0  0  0  0  0  0  0  0  0  0  0
    6.8095   -0.5173    1.4794 C   0  0  1  0  0  0  0  0  0  0  0  0
    6.0413   -0.3924    0.6980 H   0  0  0  0  0  0  0  0  0  0  0  0
    7.9973    0.4217    1.1885 C   0  0  0  0  0  0  0  0  0  0  0  0
    8.7661   -0.3066    0.0822 C   0  0  0  0  0  0  0  0  0  0  0  0
    8.5005   -1.7133    0.3434 N   0  0  0  0  0  0  0  0  0  0  0  0
    9.1562   -2.7367   -0.3045 C   0  0  0  0  0  0  0  0  0  0  0  0
    8.9308   -4.0997    0.0855 C   0  0  0  0  0  0  0  0  0  0  0  0
    9.5734   -5.1357   -0.5501 C   0  0  0  0  0  0  0  0  0  0  0  0
   10.4898   -4.9089   -1.6139 C   0  0  0  0  0  0  0  0  0  0  0  0
   11.1662   -5.9632   -2.2848 C   0  0  0  0  0  0  0  0  0  0  0  0
   12.0492   -5.6997   -3.3123 C   0  0  0  0  0  0  0  0  0  0  0  0
   12.2895   -4.3590   -3.7088 C   0  0  0  0  0  0  0  0  0  0  0  0
   11.6490   -3.3139   -3.0762 C   0  0  0  0  0  0  0  0  0  0  0  0
   10.7307   -3.5504   -2.0107 C   0  0  0  0  0  0  0  0  0  0  0  0
   10.0565   -2.4938   -1.3470 C   0  0  0  0  0  0  0  0  0  0  0  0
    7.4529   -1.9090    1.3387 C   0  0  0  0  0  0  0  0  0  0  0  0
    4.5285    0.4976    2.0073 H   0  0  0  0  0  0  0  0  0  0  0  0
    3.7371    0.0050    6.0756 H   0  0  0  0  0  0  0  0  0  0  0  0
    4.9056   -1.0612    5.2795 H   0  0  0  0  0  0  0  0  0  0  0  0
    3.9904   -2.9596    3.9710 H   0  0  0  0  0  0  0  0  0  0  0  0
    3.1633   -1.9206    2.7875 H   0  0  0  0  0  0  0  0  0  0  0  0
    2.0696   -4.3384    3.6230 H   0  0  0  0  0  0  0  0  0  0  0  0
    1.0313   -2.9649    3.2090 H   0  0  0  0  0  0  0  0  0  0  0  0
    1.3950   -4.1059    5.9194 H   0  0  0  0  0  0  0  0  0  0  0  0
    0.3394   -2.7738    5.4248 H   0  0  0  0  0  0  0  0  0  0  0  0
    3.1919   -2.6632    6.4853 H   0  0  0  0  0  0  0  0  0  0  0  0
    1.8917   -1.4634    6.7145 H   0  0  0  0  0  0  0  0  0  0  0  0
    2.5440    2.6885    2.2975 H   0  0  0  0  0  0  0  0  0  0  0  0
    3.5585    3.8869    4.5521 H   0  0  0  0  0  0  0  0  0  0  0  0
    2.5639    5.1211    6.4569 H   0  0  0  0  0  0  0  0  0  0  0  0
    0.7519    6.1986    7.5948 H   0  0  0  0  0  0  0  0  0  0  0  0
    0.3069    5.0468   10.4488 H   0  0  0  0  0  0  0  0  0  0  0  0
    0.3356    6.8402   10.0199 H   0  0  0  0  0  0  0  0  0  0  0  0
    2.6650    4.7684    9.6151 H   0  0  0  0  0  0  0  0  0  0  0  0
    2.7487    6.5515    9.1568 H   0  0  0  0  0  0  0  0  0  0  0  0
    0.9537    0.5526    5.3462 H   0  0  0  0  0  0  0  0  0  0  0  0
    8.6115    0.4983    2.0994 H   0  0  0  0  0  0  0  0  0  0  0  0
    7.6845    1.4355    0.8974 H   0  0  0  0  0  0  0  0  0  0  0  0
    9.8480   -0.0891    0.1195 H   0  0  0  0  0  0  0  0  0  0  0  0
    8.4135   -0.0076   -0.9265 H   0  0  0  0  0  0  0  0  0  0  0  0
    8.2499   -4.3206    0.9081 H   0  0  0  0  0  0  0  0  0  0  0  0
    9.3841   -6.1641   -0.2285 H   0  0  0  0  0  0  0  0  0  0  0  0
   10.9740   -6.9936   -1.9710 H   0  0  0  0  0  0  0  0  0  0  0  0
   12.5642   -6.5182   -3.8214 H   0  0  0  0  0  0  0  0  0  0  0  0
   12.9899   -4.1549   -4.5233 H   0  0  0  0  0  0  0  0  0  0  0  0
   11.8398   -2.2826   -3.3870 H   0  0  0  0  0  0  0  0  0  0  0  0
   10.2539   -1.4739   -1.6795 H   0  0  0  0  0  0  0  0  0  0  0  0
    7.8577   -2.2310    2.3164 H   0  0  0  0  0  0  0  0  0  0  0  0
    6.7183   -2.6637    1.0100 H   0  0  0  0  0  0  0  0  0  0  0  0
  1  2  2  0
  2  3  1  0
  2 26  1  0
  3  4  1  0
  3 42  1  0
  4  5  1  1
  4  6  1  0
  4 12  1  0
  6  7  1  0
  6 43  1  0
  6 44  1  0
  7  8  1  0
  7 11  1  0
  8  9  1  0
  8 45  1  0
  8 46  1  0
  9 10  1  0
  9 47  1  0
  9 48  1  0
 10 11  1  0
 10 49  1  0
 10 50  1  0
 11 51  1  0
 11 52  1  0
 12 13  1  6
 12 14  1  0
 12 15  1  0
 14 53  1  0
 15 16  2  0
 15 25  1  0
 16 17  1  0
 16 54  1  0
 17 18  2  0
 17 55  1  0
 18 19  1  0
 18 23  1  0
 19 20  1  0
 20 21  1  0
 20 22  1  0
 20 56  1  6
 21 22  1  0
 21 57  1  0
 21 58  1  0
 22 59  1  0
 22 60  1  0
 23 24  1  0
 23 25  2  0
 25 61  1  0
 26 27  1  6
 26 28  1  0
 26 41  1  0
 28 29  1  0
 28 62  1  0
 28 63  1  0
 29 30  1  0
 29 64  1  0
 29 65  1  0
 30 31  1  0
 30 41  1  0
 31 32  2  0
 31 40  1  0
 32 33  1  0
 32 66  1  0
 33 34  2  0
 33 67  1  0
 34 35  1  0
 34 39  1  0
 35 36  2  0
 35 68  1  0
 36 37  1  0
 36 69  1  0
 37 38  2  0
 37 70  1  0
 38 39  1  0
 38 71  1  0
 39 40  2  0
 40 72  1  0
 41 73  1  0
 41 74  1  0
M  END

