
     RDKit          3D

 24 24  0  0  0  0  0  0  0  0999 V2000
    0.9131   -0.2075   -0.0966 C   0  0  0  0  0  0  0  0  0  0  0  0
    2.4168   -0.1150   -0.0646 C   0  0  0  0  0  0  0  0  0  0  0  0
    3.0512    1.1202   -0.2835 C   0  0  0  0  0  0  0  0  0  0  0  0
    4.4437    1.2781   -0.2743 C   0  0  0  0  0  0  0  0  0  0  0  0
    5.0716    2.6388   -0.4788 C   0  0  0  0  0  0  0  0  0  0  0  0
    5.2870    3.3977    0.8371 C   0  0  0  0  0  0  0  0  0  0  0  0
    5.9186    4.7704    0.6379 C   0  0  0  0  0  0  0  0  0  0  0  0
    6.2182    5.2328   -0.4277 O   0  0  0  0  0  0  0  0  0  0  0  0
    6.1338    5.4747    1.7751 O   0  0  0  0  0  0  0  0  0  0  0  0
    5.2333    0.1443   -0.0380 C   0  0  0  0  0  0  0  0  0  0  0  0
    4.6429   -1.1008    0.1851 C   0  0  0  0  0  0  0  0  0  0  0  0
    3.2508   -1.2232    0.1732 C   0  0  0  0  0  0  0  0  0  0  0  0
    2.4256   -3.1624    0.5214 I   0  0  0  0  0  0  0  0  0  0  0  0
    0.4635    0.7740   -0.3045 H   0  0  0  0  0  0  0  0  0  0  0  0
    0.5130   -0.5739    0.8630 H   0  0  0  0  0  0  0  0  0  0  0  0
    0.5712   -0.9138   -0.8706 H   0  0  0  0  0  0  0  0  0  0  0  0
    2.4209    1.9938   -0.4782 H   0  0  0  0  0  0  0  0  0  0  0  0
    4.4441    3.2555   -1.1402 H   0  0  0  0  0  0  0  0  0  0  0  0
    6.0424    2.5391   -0.9884 H   0  0  0  0  0  0  0  0  0  0  0  0
    5.9293    2.8132    1.5210 H   0  0  0  0  0  0  0  0  0  0  0  0
    4.3273    3.5295    1.3697 H   0  0  0  0  0  0  0  0  0  0  0  0
    5.8421    4.9714    2.5487 H   0  0  0  0  0  0  0  0  0  0  0  0
    6.3241    0.2268   -0.0353 H   0  0  0  0  0  0  0  0  0  0  0  0
    5.2691   -1.9766    0.3632 H   0  0  0  0  0  0  0  0  0  0  0  0
  1  2  1  0
  1 14  1  0
  1 15  1  0
  1 16  1  0
  2  3  2  0
  2 12  1  0
  3  4  1  0
  3 17  1  0
  4  5  1  0
  4 10  2  0
  5  6  1  0
  5 18  1  0
  5 19  1  0
  6  7  1  0
  6 20  1  0
  6 21  1  0
  7  8  2  0
  7  9  1  0
  9 22  1  0
 10 11  1  0
 10 23  1  0
 11 12  2  0
 11 24  1  0
 12 13  1  0
M  END

