
     RDKit          3D

 40 41  0  0  0  0  0  0  0  0999 V2000
    1.4426   -0.9463   -1.0633 C   0  0  0  0  0  0  0  0  0  0  0  0
    2.6695   -0.3233   -0.4972 C   0  0  0  0  0  0  0  0  0  0  0  0
    3.6935    0.4030   -1.0357 C   0  0  0  0  0  0  0  0  0  0  0  0
    4.6005    0.7136    0.0448 C   0  0  0  0  0  0  0  0  0  0  0  0
    5.8720    1.5179   -0.0415 C   0  0  1  0  0  0  0  0  0  0  0  0
    6.7880    1.0824   -1.1952 C   0  0  0  0  0  0  0  0  0  0  0  0
    5.5484    2.9491   -0.1238 N   0  0  0  0  0  0  0  0  0  0  0  0
    6.3899    3.9109    0.3470 C   0  0  0  0  0  0  0  0  0  0  0  0
    7.4762    3.6503    0.8472 O   0  0  0  0  0  0  0  0  0  0  0  0
    5.9138    5.3396    0.2174 C   0  0  0  0  0  0  0  0  0  0  0  0
    4.5609    5.6993    0.1096 C   0  0  0  0  0  0  0  0  0  0  0  0
    4.1878    7.0409    0.0118 C   0  0  0  0  0  0  0  0  0  0  0  0
    5.1811    8.0219    0.0283 C   0  0  0  0  0  0  0  0  0  0  0  0
    4.7069    9.7502   -0.1023 S   0  0  1  0  0  0  0  0  0  0  0  0
    4.5185   10.2285    1.5064 N   0  0  0  0  0  0  0  0  0  0  0  0
    5.8556   10.4823   -0.6394 O   0  0  0  0  0  0  0  0  0  0  0  0
    3.3795    9.7976   -0.7197 O   0  0  0  0  0  0  0  0  0  0  0  0
    6.5344    7.6881    0.1344 C   0  0  0  0  0  0  0  0  0  0  0  0
    6.8926    6.3455    0.2413 C   0  0  0  0  0  0  0  0  0  0  0  0
    4.0509    0.1477    1.1677 C   0  0  0  0  0  0  0  0  0  0  0  0
    4.4569    0.0910    2.5985 C   0  0  0  0  0  0  0  0  0  0  0  0
    2.8852   -0.4813    0.8397 O   0  0  0  0  0  0  0  0  0  0  0  0
    1.3830   -0.7509   -2.1429 H   0  0  0  0  0  0  0  0  0  0  0  0
    0.5309   -0.5461   -0.5882 H   0  0  0  0  0  0  0  0  0  0  0  0
    1.4381   -2.0387   -0.9090 H   0  0  0  0  0  0  0  0  0  0  0  0
    3.7978    0.6720   -2.0854 H   0  0  0  0  0  0  0  0  0  0  0  0
    6.4398    1.4025    0.8936 H   0  0  0  0  0  0  0  0  0  0  0  0
    6.2992    1.2257   -2.1723 H   0  0  0  0  0  0  0  0  0  0  0  0
    7.0503    0.0176   -1.0968 H   0  0  0  0  0  0  0  0  0  0  0  0
    7.7148    1.6742   -1.1786 H   0  0  0  0  0  0  0  0  0  0  0  0
    4.7143    3.2135   -0.6326 H   0  0  0  0  0  0  0  0  0  0  0  0
    3.7796    4.9356    0.1247 H   0  0  0  0  0  0  0  0  0  0  0  0
    3.1400    7.3304   -0.0835 H   0  0  0  0  0  0  0  0  0  0  0  0
    5.1955   10.9547    1.7394 H   0  0  0  0  0  0  0  0  0  0  0  0
    3.5582   10.5295    1.6715 H   0  0  0  0  0  0  0  0  0  0  0  0
    7.2902    8.4754    0.1218 H   0  0  0  0  0  0  0  0  0  0  0  0
    7.9374    6.0468    0.3435 H   0  0  0  0  0  0  0  0  0  0  0  0
    5.4267    0.5855    2.7451 H   0  0  0  0  0  0  0  0  0  0  0  0
    4.5440   -0.9515    2.9478 H   0  0  0  0  0  0  0  0  0  0  0  0
    3.7177    0.5919    3.2466 H   0  0  0  0  0  0  0  0  0  0  0  0
  1  2  1  0
  1 23  1  0
  1 24  1  0
  1 25  1  0
  2  3  2  0
  2 22  1  0
  3  4  1  0
  3 26  1  0
  4  5  1  0
  4 20  2  0
  5  6  1  0
  5  7  1  0
  5 27  1  1
  6 28  1  0
  6 29  1  0
  6 30  1  0
  7  8  1  0
  7 31  1  0
  8  9  2  0
  8 10  1  0
 10 11  2  0
 10 19  1  0
 11 12  1  0
 11 32  1  0
 12 13  2  0
 12 33  1  0
 13 14  1  0
 13 18  1  0
 14 15  1  1
 14 16  2  0
 14 17  2  0
 15 34  1  0
 15 35  1  0
 18 19  2  0
 18 36  1  0
 19 37  1  0
 20 21  1  0
 20 22  1  0
 21 38  1  0
 21 39  1  0
 21 40  1  0
M  END

