
     RDKit          3D

 48 52  0  0  0  0  0  0  0  0999 V2000
    0.3650   -3.3342   -5.9937 C   0  0  0  0  0  0  0  0  0  0  0  0
    0.4577   -2.1220   -5.0553 C   0  0  1  0  0  0  0  0  0  0  0  0
    0.8707   -2.5065   -3.6193 C   0  0  0  0  0  0  0  0  0  0  0  0
    2.3563   -2.8633   -3.5063 C   0  0  0  0  0  0  0  0  0  0  0  0
    3.1999   -1.7951   -4.0446 N   0  0  0  0  0  0  0  0  0  0  0  0
    4.2033   -1.2874   -3.2613 C   0  0  0  0  0  0  0  0  0  0  0  0
    4.3901   -1.6500   -2.1091 O   0  0  0  0  0  0  0  0  0  0  0  0
    5.1317   -0.2223   -3.8573 C   0  0  0  0  0  0  0  0  0  0  0  0
    6.3772   -0.9439   -5.0001 S   0  0  0  0  0  0  0  0  0  0  0  0
    6.2297    0.0828   -6.4334 C   0  0  0  0  0  0  0  0  0  0  0  0
    5.2872    1.0187   -6.5272 N   0  0  0  0  0  0  0  0  0  0  0  0
    5.2290    1.7671   -7.6388 C   0  0  0  0  0  0  0  0  0  0  0  0
    6.0256    1.6805   -8.6949 N   0  0  0  0  0  0  0  0  0  0  0  0
    6.9787    0.7387   -8.6205 C   0  0  0  0  0  0  0  0  0  0  0  0
    7.1327   -0.1047   -7.5001 C   0  0  0  0  0  0  0  0  0  0  0  0
    8.4611   -1.2504   -7.6445 S   0  0  0  0  0  0  0  0  0  0  0  0
    8.8493   -0.6061   -9.2628 C   0  0  0  0  0  0  0  0  0  0  0  0
    9.8305   -1.0741   -9.9819 N   0  0  0  0  0  0  0  0  0  0  0  0
   10.0356   -0.5041  -11.2015 C   0  0  0  0  0  0  0  0  0  0  0  0
   11.0980   -0.9881  -12.0148 C   0  0  0  0  0  0  0  0  0  0  0  0
   11.3376   -0.4367  -13.2551 C   0  0  0  0  0  0  0  0  0  0  0  0
   10.5307    0.6243  -13.7468 C   0  0  0  0  0  0  0  0  0  0  0  0
    9.4936    1.1175  -12.9862 C   0  0  0  0  0  0  0  0  0  0  0  0
    9.2148    0.5736  -11.6994 C   0  0  0  0  0  0  0  0  0  0  0  0
    8.1610    1.0457  -10.8800 C   0  0  0  0  0  0  0  0  0  0  0  0
    7.9659    0.4568   -9.6456 C   0  0  0  0  0  0  0  0  0  0  0  0
    2.8995   -1.4168   -5.4222 C   0  0  0  0  0  0  0  0  0  0  0  0
    1.4200   -1.0359   -5.5774 C   0  0  0  0  0  0  0  0  0  0  0  0
   -0.3591   -4.0720   -5.6115 H   0  0  0  0  0  0  0  0  0  0  0  0
    1.3284   -3.8552   -6.1138 H   0  0  0  0  0  0  0  0  0  0  0  0
    0.0308   -3.0293   -6.9988 H   0  0  0  0  0  0  0  0  0  0  0  0
   -0.5509   -1.6757   -5.0056 H   0  0  0  0  0  0  0  0  0  0  0  0
    0.2648   -3.3548   -3.2583 H   0  0  0  0  0  0  0  0  0  0  0  0
    0.6650   -1.6581   -2.9441 H   0  0  0  0  0  0  0  0  0  0  0  0
    2.5723   -3.7992   -4.0560 H   0  0  0  0  0  0  0  0  0  0  0  0
    2.6518   -3.0179   -2.4619 H   0  0  0  0  0  0  0  0  0  0  0  0
    5.6778    0.2094   -3.0102 H   0  0  0  0  0  0  0  0  0  0  0  0
    4.6221    0.5742   -4.4173 H   0  0  0  0  0  0  0  0  0  0  0  0
    4.4379    2.5252   -7.6685 H   0  0  0  0  0  0  0  0  0  0  0  0
   11.7059   -1.8033  -11.6184 H   0  0  0  0  0  0  0  0  0  0  0  0
   12.1570   -0.8172  -13.8703 H   0  0  0  0  0  0  0  0  0  0  0  0
   10.7375    1.0476  -14.7326 H   0  0  0  0  0  0  0  0  0  0  0  0
    8.8687    1.9339  -13.3582 H   0  0  0  0  0  0  0  0  0  0  0  0
    7.5098    1.8595  -11.2097 H   0  0  0  0  0  0  0  0  0  0  0  0
    3.1499   -2.2623   -6.0911 H   0  0  0  0  0  0  0  0  0  0  0  0
    3.5272   -0.5747   -5.7335 H   0  0  0  0  0  0  0  0  0  0  0  0
    1.2150   -0.8155   -6.6389 H   0  0  0  0  0  0  0  0  0  0  0  0
    1.2454   -0.1006   -5.0174 H   0  0  0  0  0  0  0  0  0  0  0  0
  1  2  1  0
  1 29  1  0
  1 30  1  0
  1 31  1  0
  2  3  1  0
  2 28  1  0
  2 32  1  1
  3  4  1  0
  3 33  1  0
  3 34  1  0
  4  5  1  0
  4 35  1  0
  4 36  1  0
  5  6  1  0
  5 27  1  0
  6  7  2  0
  6  8  1  0
  8  9  1  0
  8 37  1  0
  8 38  1  0
  9 10  1  0
 10 11  2  0
 10 15  1  0
 11 12  1  0
 12 13  2  0
 12 39  1  0
 13 14  1  0
 14 15  2  0
 14 26  1  0
 15 16  1  0
 16 17  1  0
 17 18  1  0
 17 26  2  0
 18 19  2  0
 19 20  1  0
 19 24  1  0
 20 21  2  0
 20 40  1  0
 21 22  1  0
 21 41  1  0
 22 23  2  0
 22 42  1  0
 23 24  1  0
 23 43  1  0
 24 25  2  0
 25 26  1  0
 25 44  1  0
 27 28  1  0
 27 45  1  0
 27 46  1  0
 28 47  1  0
 28 48  1  0
M  END

