
     RDKit          3D

 33 34  0  0  0  0  0  0  0  0999 V2000
    1.1274   -0.1391   -0.5606 C   0  0  0  0  0  0  0  0  0  0  0  0
    2.5479   -0.1687   -0.7240 O   0  0  0  0  0  0  0  0  0  0  0  0
    3.1061    0.9384   -1.2381 C   0  0  0  0  0  0  0  0  0  0  0  0
    2.4891    1.9306   -1.5263 O   0  0  0  0  0  0  0  0  0  0  0  0
    4.6370    0.8349   -1.3122 C   0  0  1  0  0  0  0  0  0  0  0  0
    5.2699   -0.5766   -1.1812 C   0  0  1  0  0  0  0  0  0  0  0  0
    4.9412   -1.5784   -2.2825 C   0  0  0  0  0  0  0  0  0  0  0  0
    6.6747   -0.4148   -1.0343 O   0  0  0  0  0  0  0  0  0  0  0  0
    5.1411    1.6040   -2.4352 N   0  0  0  0  0  0  0  0  0  0  0  0
    6.0072    2.7653   -2.2564 C   0  0  0  0  0  0  0  0  0  0  0  0
    6.0900    3.3432   -3.6471 C   0  0  0  0  0  0  0  0  0  0  0  0
    6.8164    4.4267   -4.1404 C   0  0  0  0  0  0  0  0  0  0  0  0
    6.6814    4.7517   -5.4962 C   0  0  0  0  0  0  0  0  0  0  0  0
    5.8386    4.0112   -6.3412 C   0  0  0  0  0  0  0  0  0  0  0  0
    5.1130    2.9251   -5.8443 C   0  0  0  0  0  0  0  0  0  0  0  0
    5.2557    2.6074   -4.4938 C   0  0  0  0  0  0  0  0  0  0  0  0
    4.6095    1.5150   -3.7141 C   0  0  0  0  0  0  0  0  0  0  0  0
    3.7919    0.6936   -4.0851 O   0  0  0  0  0  0  0  0  0  0  0  0
    0.8496   -1.1086   -0.1294 H   0  0  0  0  0  0  0  0  0  0  0  0
    0.6318    0.0059   -1.5318 H   0  0  0  0  0  0  0  0  0  0  0  0
    0.8298    0.6799    0.1111 H   0  0  0  0  0  0  0  0  0  0  0  0
    4.9797    1.3650   -0.4071 H   0  0  0  0  0  0  0  0  0  0  0  0
    4.9185   -0.9807   -0.2192 H   0  0  0  0  0  0  0  0  0  0  0  0
    5.3093   -1.2342   -3.2611 H   0  0  0  0  0  0  0  0  0  0  0  0
    3.8584   -1.7315   -2.3776 H   0  0  0  0  0  0  0  0  0  0  0  0
    5.4223   -2.5397   -2.0442 H   0  0  0  0  0  0  0  0  0  0  0  0
    7.0308   -0.2253   -1.9136 H   0  0  0  0  0  0  0  0  0  0  0  0
    6.9924    2.4739   -1.8506 H   0  0  0  0  0  0  0  0  0  0  0  0
    5.5573    3.4854   -1.5466 H   0  0  0  0  0  0  0  0  0  0  0  0
    7.4735    5.0137   -3.4931 H   0  0  0  0  0  0  0  0  0  0  0  0
    7.2407    5.5978   -5.9038 H   0  0  0  0  0  0  0  0  0  0  0  0
    5.7526    4.2899   -7.3944 H   0  0  0  0  0  0  0  0  0  0  0  0
    4.4500    2.3334   -6.4797 H   0  0  0  0  0  0  0  0  0  0  0  0
  1  2  1  0
  1 19  1  0
  1 20  1  0
  1 21  1  0
  2  3  1  0
  3  4  2  0
  3  5  1  0
  5  6  1  0
  5  9  1  0
  5 22  1  1
  6  7  1  0
  6  8  1  0
  6 23  1  1
  7 24  1  0
  7 25  1  0
  7 26  1  0
  8 27  1  0
  9 10  1  0
  9 17  1  0
 10 11  1  0
 10 28  1  0
 10 29  1  0
 11 12  2  0
 11 16  1  0
 12 13  1  0
 12 30  1  0
 13 14  2  0
 13 31  1  0
 14 15  1  0
 14 32  1  0
 15 16  2  0
 15 33  1  0
 16 17  1  0
 17 18  2  0
M  END

