
     RDKit          3D

 29 30  0  0  0  0  0  0  0  0999 V2000
    1.1295   -0.3036   -0.8776 C   0  0  0  0  0  0  0  0  0  0  0  0
    2.5900   -0.0684   -0.6746 C   0  0  0  0  0  0  0  0  0  0  0  0
    3.3420    1.1129   -0.6546 C   0  0  0  0  0  0  0  0  0  0  0  0
    2.8193    2.4841   -0.8556 C   0  0  0  0  0  0  0  0  0  0  0  0
    1.6852    2.7216   -1.2555 O   0  0  0  0  0  0  0  0  0  0  0  0
    3.7137    3.4969   -0.5763 N   0  0  0  0  0  0  0  0  0  0  0  0
    3.3293    4.8791   -0.6266 C   0  0  1  0  0  0  0  0  0  0  0  0
    2.4273    5.3419    0.4920 C   0  0  0  0  0  0  0  0  0  0  0  0
    3.2621    5.2357    2.1065 Cl  0  0  0  0  0  0  0  0  0  0  0  0
    4.3534    5.8366   -1.1875 C   0  0  0  0  0  0  0  0  0  0  0  0
    3.1281    5.4949   -1.9914 C   0  0  0  0  0  0  0  0  0  0  0  0
    4.6753    0.6740   -0.4191 C   0  0  0  0  0  0  0  0  0  0  0  0
    4.7455   -0.6412   -0.2993 N   0  0  0  0  0  0  0  0  0  0  0  0
    3.4765   -1.0762   -0.4534 N   0  0  0  0  0  0  0  0  0  0  0  0
    3.1883   -2.4929   -0.3594 C   0  0  0  0  0  0  0  0  0  0  0  0
    0.6366    0.6580   -1.0618 H   0  0  0  0  0  0  0  0  0  0  0  0
    0.6706   -0.7851    0.0028 H   0  0  0  0  0  0  0  0  0  0  0  0
    0.9464   -0.9614   -1.7444 H   0  0  0  0  0  0  0  0  0  0  0  0
    4.5074    3.2749    0.0148 H   0  0  0  0  0  0  0  0  0  0  0  0
    1.5333    4.7083    0.5511 H   0  0  0  0  0  0  0  0  0  0  0  0
    2.1258    6.3891    0.3619 H   0  0  0  0  0  0  0  0  0  0  0  0
    5.3095    5.4117   -1.5042 H   0  0  0  0  0  0  0  0  0  0  0  0
    4.4254    6.8247   -0.7249 H   0  0  0  0  0  0  0  0  0  0  0  0
    3.2349    4.8255   -2.8471 H   0  0  0  0  0  0  0  0  0  0  0  0
    2.3412    6.2461   -2.1000 H   0  0  0  0  0  0  0  0  0  0  0  0
    5.5886    1.2665   -0.3548 H   0  0  0  0  0  0  0  0  0  0  0  0
    4.1470   -3.0137   -0.2533 H   0  0  0  0  0  0  0  0  0  0  0  0
    2.6760   -2.8519   -1.2654 H   0  0  0  0  0  0  0  0  0  0  0  0
    2.5561   -2.7143    0.5156 H   0  0  0  0  0  0  0  0  0  0  0  0
  1  2  1  0
  1 16  1  0
  1 17  1  0
  1 18  1  0
  2  3  2  0
  2 14  1  0
  3  4  1  0
  3 12  1  0
  4  5  2  0
  4  6  1  0
  7  6  1  6
  6 19  1  0
  7  8  1  0
  7 10  1  0
  7 11  1  0
  8  9  1  0
  8 20  1  0
  8 21  1  0
 10 11  1  0
 10 22  1  0
 10 23  1  0
 11 24  1  0
 11 25  1  0
 12 13  2  0
 12 26  1  0
 13 14  1  0
 14 15  1  0
 15 27  1  0
 15 28  1  0
 15 29  1  0
M  END

