
     RDKit          3D

 32 32  0  0  0  0  0  0  0  0999 V2000
    3.3505   -0.5915    1.3313 C   0  0  0  0  0  0  0  0  0  0  0  0
    4.1132   -0.0502    0.2786 O   0  0  0  0  0  0  0  0  0  0  0  0
    4.0763   -0.6483   -0.9426 C   0  0  0  0  0  0  0  0  0  0  0  0
    4.8543   -0.0465   -1.9467 C   0  0  0  0  0  0  0  0  0  0  0  0
    4.8669   -0.5967   -3.2239 C   0  0  0  0  0  0  0  0  0  0  0  0
    4.1175   -1.7426   -3.5195 C   0  0  0  0  0  0  0  0  0  0  0  0
    3.3457   -2.3521   -2.5211 C   0  0  0  0  0  0  0  0  0  0  0  0
    2.5199   -3.5940   -2.8635 C   0  0  1  0  0  0  0  0  0  0  0  0
    3.0129   -4.2455   -4.0233 O   0  0  0  0  0  0  0  0  0  0  0  0
    2.3629   -4.6255   -1.7273 C   0  0  0  0  0  0  0  0  0  0  0  0
    1.4352   -4.2106   -0.6890 N   0  0  0  0  0  0  0  0  0  0  0  0
    1.2228   -5.2018    0.3509 C   0  0  0  0  0  0  0  0  0  0  0  0
    0.1185   -4.7589    1.2942 C   0  0  0  0  0  0  0  0  0  0  0  0
   -1.0696   -4.6289    0.5336 O   0  0  0  0  0  0  0  0  0  0  0  0
    3.3245   -1.7960   -1.2287 C   0  0  0  0  0  0  0  0  0  0  0  0
    3.5287    0.0465    2.2080 H   0  0  0  0  0  0  0  0  0  0  0  0
    3.6553   -1.6260    1.5736 H   0  0  0  0  0  0  0  0  0  0  0  0
    2.2695   -0.5915    1.1016 H   0  0  0  0  0  0  0  0  0  0  0  0
    5.4307    0.8468   -1.6976 H   0  0  0  0  0  0  0  0  0  0  0  0
    5.4674   -0.1255   -4.0069 H   0  0  0  0  0  0  0  0  0  0  0  0
    4.1221   -2.1614   -4.5265 H   0  0  0  0  0  0  0  0  0  0  0  0
    1.5019   -3.2641   -3.1466 H   0  0  0  0  0  0  0  0  0  0  0  0
    3.9460   -4.4514   -3.8686 H   0  0  0  0  0  0  0  0  0  0  0  0
    3.3510   -4.8125   -1.2661 H   0  0  0  0  0  0  0  0  0  0  0  0
    2.0578   -5.5748   -2.2184 H   0  0  0  0  0  0  0  0  0  0  0  0
    0.5264   -3.9894   -1.0990 H   0  0  0  0  0  0  0  0  0  0  0  0
    2.1548   -5.3388    0.9280 H   0  0  0  0  0  0  0  0  0  0  0  0
    0.9539   -6.2014   -0.0601 H   0  0  0  0  0  0  0  0  0  0  0  0
    0.4052   -3.7961    1.7612 H   0  0  0  0  0  0  0  0  0  0  0  0
    0.0065   -5.5088    2.1029 H   0  0  0  0  0  0  0  0  0  0  0  0
   -1.7449   -4.2037    1.0755 H   0  0  0  0  0  0  0  0  0  0  0  0
    2.7017   -2.2751   -0.4737 H   0  0  0  0  0  0  0  0  0  0  0  0
  1  2  1  0
  1 16  1  0
  1 17  1  0
  1 18  1  0
  2  3  1  0
  3  4  2  0
  3 15  1  0
  4  5  1  0
  4 19  1  0
  5  6  2  0
  5 20  1  0
  6  7  1  0
  6 21  1  0
  7  8  1  0
  7 15  2  0
  8  9  1  0
  8 10  1  0
  8 22  1  6
  9 23  1  0
 10 11  1  0
 10 24  1  0
 10 25  1  0
 11 12  1  0
 11 26  1  0
 12 13  1  0
 12 27  1  0
 12 28  1  0
 13 14  1  0
 13 29  1  0
 13 30  1  0
 14 31  1  0
 15 32  1  0
M  END

