
     RDKit          3D

 71 76  0  0  0  0  0  0  0  0999 V2000
    3.8195   -3.8297   -3.1147 C   0  0  0  0  0  0  0  0  0  0  0  0
    2.7095   -2.7892   -2.8275 C   0  0  1  0  0  0  0  0  0  0  0  0
    1.4086   -3.2408   -3.5121 C   0  0  0  0  0  0  0  0  0  0  0  0
    2.4906   -2.6276   -1.3101 C   0  0  0  0  0  0  0  0  0  0  0  0
    3.5922   -1.8032   -0.6481 C   0  0  0  0  0  0  0  0  0  0  0  0
    3.6696   -0.4083   -1.2643 C   0  0  1  0  0  0  0  0  0  0  0  0
    2.4535    0.5142   -0.9349 C   0  0  0  0  0  0  0  0  0  0  0  0
    2.9872    1.9739   -0.8964 C   0  0  0  0  0  0  0  0  0  0  0  0
    4.4445    1.8565   -1.3723 C   0  0  1  0  0  0  0  0  0  0  0  0
    4.4082    1.7563   -2.4706 H   0  0  0  0  0  0  0  0  0  0  0  0
    5.4431    2.9757   -1.0720 C   0  0  2  0  0  0  0  0  0  0  0  0
    5.5851    3.0516    0.0229 H   0  0  0  0  0  0  0  0  0  0  0  0
    4.9978    4.3541   -1.5691 C   0  0  0  0  0  0  0  0  0  0  0  0
    5.9746    5.4320   -1.0995 C   0  0  0  0  0  0  0  0  0  0  0  0
    7.4342    5.0591   -1.2856 C   0  0  0  0  0  0  0  0  0  0  0  0
    8.4019    6.0663   -1.1746 C   0  0  0  0  0  0  0  0  0  0  0  0
    9.7680    5.7905   -1.3051 C   0  0  0  0  0  0  0  0  0  0  0  0
   10.8225    6.8361   -1.1912 C   0  0  0  0  0  0  0  0  0  0  0  0
   12.0070    6.6296   -1.2759 O   0  0  0  0  0  0  0  0  0  0  0  0
   10.2817    8.0730   -0.9799 O   0  0  0  0  0  0  0  0  0  0  0  0
   11.0578    9.2137   -0.8377 C   0  0  0  0  0  0  0  0  0  0  0  0
   10.5735   10.3647   -1.4664 C   0  0  0  0  0  0  0  0  0  0  0  0
   11.2568   11.5733   -1.3167 C   0  0  0  0  0  0  0  0  0  0  0  0
   12.4211   11.6316   -0.5446 C   0  0  0  0  0  0  0  0  0  0  0  0
   12.8941   10.4733    0.0796 C   0  0  0  0  0  0  0  0  0  0  0  0
   12.2190    9.2571   -0.0586 C   0  0  0  0  0  0  0  0  0  0  0  0
   10.1714    4.4706   -1.5556 C   0  0  0  0  0  0  0  0  0  0  0  0
    9.2176    3.4652   -1.6688 C   0  0  0  0  0  0  0  0  0  0  0  0
    7.8402    3.7274   -1.5369 C   0  0  0  0  0  0  0  0  0  0  0  0
    6.8070    2.6139   -1.7156 C   0  0  1  0  0  0  0  0  0  0  0  0
    6.6124    2.5483   -2.8058 H   0  0  0  0  0  0  0  0  0  0  0  0
    7.2959    1.2150   -1.2802 C   0  0  0  0  0  0  0  0  0  0  0  0
    6.2430    0.1117   -1.5013 C   0  0  0  0  0  0  0  0  0  0  0  0
    4.8983    0.4671   -0.8463 C   0  0  2  0  0  0  0  0  0  0  0  0
    5.0387    0.4283    0.6919 C   0  0  0  0  0  0  0  0  0  0  0  0
    3.7480   -0.5185   -2.7156 O   0  0  0  0  0  0  0  0  0  0  0  0
    3.1781   -1.4762   -3.4840 C   0  0  0  0  0  0  0  0  0  0  0  0
    3.1311   -1.3030   -4.6746 O   0  0  0  0  0  0  0  0  0  0  0  0
    3.5179   -4.8151   -2.7245 H   0  0  0  0  0  0  0  0  0  0  0  0
    4.7784   -3.5571   -2.6474 H   0  0  0  0  0  0  0  0  0  0  0  0
    3.9873   -3.9201   -4.1978 H   0  0  0  0  0  0  0  0  0  0  0  0
    1.0814   -4.2089   -3.0999 H   0  0  0  0  0  0  0  0  0  0  0  0
    1.5562   -3.3477   -4.5953 H   0  0  0  0  0  0  0  0  0  0  0  0
    0.5980   -2.5120   -3.3523 H   0  0  0  0  0  0  0  0  0  0  0  0
    2.4230   -3.6261   -0.8470 H   0  0  0  0  0  0  0  0  0  0  0  0
    1.5163   -2.1414   -1.1320 H   0  0  0  0  0  0  0  0  0  0  0  0
    4.5671   -2.3067   -0.7588 H   0  0  0  0  0  0  0  0  0  0  0  0
    3.4032   -1.7176    0.4313 H   0  0  0  0  0  0  0  0  0  0  0  0
    2.0047    0.2245    0.0274 H   0  0  0  0  0  0  0  0  0  0  0  0
    1.6745    0.3855   -1.6994 H   0  0  0  0  0  0  0  0  0  0  0  0
    2.9360    2.3831    0.1262 H   0  0  0  0  0  0  0  0  0  0  0  0
    2.3935    2.6433   -1.5355 H   0  0  0  0  0  0  0  0  0  0  0  0
    3.9849    4.5929   -1.2075 H   0  0  0  0  0  0  0  0  0  0  0  0
    4.9416    4.3400   -2.6729 H   0  0  0  0  0  0  0  0  0  0  0  0
    5.8031    5.6278   -0.0243 H   0  0  0  0  0  0  0  0  0  0  0  0
    5.7728    6.3887   -1.6091 H   0  0  0  0  0  0  0  0  0  0  0  0
    8.0844    7.0927   -0.9814 H   0  0  0  0  0  0  0  0  0  0  0  0
    9.6625   10.2958   -2.0642 H   0  0  0  0  0  0  0  0  0  0  0  0
   10.8764   12.4724   -1.8081 H   0  0  0  0  0  0  0  0  0  0  0  0
   12.9579   12.5762   -0.4293 H   0  0  0  0  0  0  0  0  0  0  0  0
   13.8031   10.5112    0.6853 H   0  0  0  0  0  0  0  0  0  0  0  0
   12.5939    8.3549    0.4214 H   0  0  0  0  0  0  0  0  0  0  0  0
   11.2359    4.2536   -1.6605 H   0  0  0  0  0  0  0  0  0  0  0  0
    9.5575    2.4490   -1.8718 H   0  0  0  0  0  0  0  0  0  0  0  0
    7.6069    1.2518   -0.2221 H   0  0  0  0  0  0  0  0  0  0  0  0
    8.1966    0.9378   -1.8484 H   0  0  0  0  0  0  0  0  0  0  0  0
    6.6330   -0.8454   -1.1130 H   0  0  0  0  0  0  0  0  0  0  0  0
    6.0848   -0.0226   -2.5822 H   0  0  0  0  0  0  0  0  0  0  0  0
    5.7645    1.1697    1.0516 H   0  0  0  0  0  0  0  0  0  0  0  0
    5.4008   -0.5569    1.0233 H   0  0  0  0  0  0  0  0  0  0  0  0
    4.0917    0.6262    1.2155 H   0  0  0  0  0  0  0  0  0  0  0  0
  2  1  1  1
  1 39  1  0
  1 40  1  0
  1 41  1  0
  2  3  1  0
  2  4  1  0
  2 37  1  0
  3 42  1  0
  3 43  1  0
  3 44  1  0
  4  5  1  0
  4 45  1  0
  4 46  1  0
  5  6  1  0
  5 47  1  0
  5 48  1  0
  6  7  1  0
  6 34  1  0
  6 36  1  6
  7  8  1  0
  7 49  1  0
  7 50  1  0
  8  9  1  0
  8 51  1  0
  8 52  1  0
  9 10  1  6
  9 11  1  0
  9 34  1  0
 11 12  1  1
 11 13  1  0
 11 30  1  0
 13 14  1  0
 13 53  1  0
 13 54  1  0
 14 15  1  0
 14 55  1  0
 14 56  1  0
 15 16  2  0
 15 29  1  0
 16 17  1  0
 16 57  1  0
 17 18  1  0
 17 27  2  0
 18 19  2  0
 18 20  1  0
 20 21  1  0
 21 22  2  0
 21 26  1  0
 22 23  1  0
 22 58  1  0
 23 24  2  0
 23 59  1  0
 24 25  1  0
 24 60  1  0
 25 26  2  0
 25 61  1  0
 26 62  1  0
 27 28  1  0
 27 63  1  0
 28 29  2  0
 28 64  1  0
 29 30  1  0
 30 31  1  6
 30 32  1  0
 32 33  1  0
 32 65  1  0
 32 66  1  0
 33 34  1  0
 33 67  1  0
 33 68  1  0
 34 35  1  1
 35 69  1  0
 35 70  1  0
 35 71  1  0
 36 37  1  0
 37 38  2  0
M  END

