
     RDKit          3D

 51 54  0  0  0  0  0  0  0  0999 V2000
   12.9879   -1.2862    2.1107 C   0  0  0  0  0  0  0  0  0  0  0  0
   13.6705   -1.9112    0.8975 C   0  0  1  0  0  0  0  0  0  0  0  0
   15.0743   -2.4302    1.2104 C   0  0  0  0  0  0  0  0  0  0  0  0
   12.7050   -3.3514    0.2156 S   0  0  0  0  0  0  0  0  0  0  0  0
   11.2329   -2.5496   -0.4140 C   0  0  0  0  0  0  0  0  0  0  0  0
   11.2874   -1.7116   -1.5408 C   0  0  0  0  0  0  0  0  0  0  0  0
   10.1261   -1.1061   -2.0276 C   0  0  0  0  0  0  0  0  0  0  0  0
    8.8966   -1.3496   -1.4140 C   0  0  0  0  0  0  0  0  0  0  0  0
    8.8209   -2.2263   -0.3217 C   0  0  0  0  0  0  0  0  0  0  0  0
    7.4982   -2.3803    0.3707 C   0  0  0  0  0  0  0  0  0  0  0  0
    6.7546   -1.4279    0.5094 O   0  0  0  0  0  0  0  0  0  0  0  0
    7.1652   -3.6261    0.9306 N   0  0  0  0  0  0  0  0  0  0  0  0
    6.1284   -3.6084    1.9976 C   0  0  0  0  0  0  0  0  0  0  0  0
    6.6630   -3.1629    3.3436 C   0  0  0  0  0  0  0  0  0  0  0  0
    6.4224   -1.8621    3.8103 C   0  0  0  0  0  0  0  0  0  0  0  0
    6.9102   -1.4524    5.0553 C   0  0  0  0  0  0  0  0  0  0  0  0
    7.6476   -2.3382    5.8455 C   0  0  0  0  0  0  0  0  0  0  0  0
    7.8960   -3.6362    5.3855 C   0  0  0  0  0  0  0  0  0  0  0  0
    7.4074   -4.0467    4.1431 C   0  0  0  0  0  0  0  0  0  0  0  0
    7.5971   -4.8635    0.4694 C   0  0  0  0  0  0  0  0  0  0  0  0
    7.5843   -5.9303    1.2047 N   0  0  0  0  0  0  0  0  0  0  0  0
    7.9353   -7.0542    0.4881 C   0  0  0  0  0  0  0  0  0  0  0  0
    8.0337   -8.3572    1.0025 C   0  0  0  0  0  0  0  0  0  0  0  0
    8.4222   -9.3994    0.1655 C   0  0  0  0  0  0  0  0  0  0  0  0
    8.7173   -9.1466   -1.1862 C   0  0  0  0  0  0  0  0  0  0  0  0
    9.2444  -10.5970   -2.3078 Br  0  0  0  0  0  0  0  0  0  0  0  0
    8.6334   -7.8649   -1.7314 C   0  0  0  0  0  0  0  0  0  0  0  0
    8.2316   -6.8306   -0.8813 C   0  0  0  0  0  0  0  0  0  0  0  0
    8.0239   -5.1311   -1.2483 S   0  0  0  0  0  0  0  0  0  0  0  0
    9.9934   -2.8103    0.1850 C   0  0  0  0  0  0  0  0  0  0  0  0
   13.5720   -0.4223    2.4728 H   0  0  0  0  0  0  0  0  0  0  0  0
   12.9054   -2.0149    2.9329 H   0  0  0  0  0  0  0  0  0  0  0  0
   11.9757   -0.9285    1.8692 H   0  0  0  0  0  0  0  0  0  0  0  0
   13.7339   -1.1697    0.0844 H   0  0  0  0  0  0  0  0  0  0  0  0
   15.0434   -3.2188    1.9803 H   0  0  0  0  0  0  0  0  0  0  0  0
   15.7014   -1.6100    1.5965 H   0  0  0  0  0  0  0  0  0  0  0  0
   15.5617   -2.8445    0.3149 H   0  0  0  0  0  0  0  0  0  0  0  0
   12.2462   -1.5385   -2.0353 H   0  0  0  0  0  0  0  0  0  0  0  0
   10.1814   -0.4441   -2.8954 H   0  0  0  0  0  0  0  0  0  0  0  0
    7.9848   -0.8673   -1.7714 H   0  0  0  0  0  0  0  0  0  0  0  0
    5.7289   -4.6263    2.0604 H   0  0  0  0  0  0  0  0  0  0  0  0
    5.3369   -2.9279    1.6586 H   0  0  0  0  0  0  0  0  0  0  0  0
    5.8565   -1.1658    3.1868 H   0  0  0  0  0  0  0  0  0  0  0  0
    6.7138   -0.4364    5.4076 H   0  0  0  0  0  0  0  0  0  0  0  0
    8.0282   -2.0188    6.8193 H   0  0  0  0  0  0  0  0  0  0  0  0
    8.4710   -4.3338    6.0004 H   0  0  0  0  0  0  0  0  0  0  0  0
    7.6021   -5.0579    3.7772 H   0  0  0  0  0  0  0  0  0  0  0  0
    7.8061   -8.5368    2.0548 H   0  0  0  0  0  0  0  0  0  0  0  0
    8.5019  -10.4160    0.5533 H   0  0  0  0  0  0  0  0  0  0  0  0
    8.8678   -7.6874   -2.7814 H   0  0  0  0  0  0  0  0  0  0  0  0
    9.9556   -3.4562    1.0643 H   0  0  0  0  0  0  0  0  0  0  0  0
  1  2  1  0
  1 31  1  0
  1 32  1  0
  1 33  1  0
  2  3  1  0
  2  4  1  0
  2 34  1  6
  3 35  1  0
  3 36  1  0
  3 37  1  0
  4  5  1  0
  5  6  2  0
  5 30  1  0
  6  7  1  0
  6 38  1  0
  7  8  2  0
  7 39  1  0
  8  9  1  0
  8 40  1  0
  9 10  1  0
  9 30  2  0
 10 11  2  0
 10 12  1  0
 12 13  1  0
 12 20  1  0
 13 14  1  0
 13 41  1  0
 13 42  1  0
 14 15  2  0
 14 19  1  0
 15 16  1  0
 15 43  1  0
 16 17  2  0
 16 44  1  0
 17 18  1  0
 17 45  1  0
 18 19  2  0
 18 46  1  0
 19 47  1  0
 20 21  2  0
 20 29  1  0
 21 22  1  0
 22 23  2  0
 22 28  1  0
 23 24  1  0
 23 48  1  0
 24 25  2  0
 24 49  1  0
 25 26  1  0
 25 27  1  0
 27 28  2  0
 27 50  1  0
 28 29  1  0
 30 51  1  0
M  END

