
     RDKit          3D

 22 21  0  0  0  0  0  0  0  0999 V2000
    1.3509    0.7079    0.3909 C   0  0  0  0  0  0  0  0  0  0  0  0
    2.1633   -0.0704   -0.3660 C   0  0  0  0  0  0  0  0  0  0  0  0
    2.6795    0.2701   -1.5981 N   0  0  0  0  0  0  0  0  0  0  0  0
    2.4720    1.5734   -2.1550 C   0  0  0  0  0  0  0  0  0  0  0  0
    3.3113    1.7305   -3.4095 C   0  0  0  0  0  0  0  0  0  0  0  0
    4.1739    0.9583   -3.7500 O   0  0  0  0  0  0  0  0  0  0  0  0
    2.9902    2.8469   -4.0698 O   0  0  0  0  0  0  0  0  0  0  0  0
    3.7454    3.1298   -5.2524 C   0  0  0  0  0  0  0  0  0  0  0  0
    2.4508   -1.4491    0.1613 C   0  0  0  0  0  0  0  0  0  0  0  0
    2.2267   -1.7962    1.2931 O   0  0  0  0  0  0  0  0  0  0  0  0
    3.0254   -2.5101   -0.8258 C   0  0  1  0  0  0  0  0  0  0  0  0
    4.2164   -2.1026   -1.3223 F   0  0  0  0  0  0  0  0  0  0  0  0
    3.2137   -3.6709   -0.2162 F   0  0  0  0  0  0  0  0  0  0  0  0
    2.1924   -2.6975   -1.8570 F   0  0  0  0  0  0  0  0  0  0  0  0
    1.0527    1.7125    0.0911 H   0  0  0  0  0  0  0  0  0  0  0  0
    0.9650    0.3086    1.3277 H   0  0  0  0  0  0  0  0  0  0  0  0
    3.5116   -0.2011   -1.9410 H   0  0  0  0  0  0  0  0  0  0  0  0
    2.7576    2.3942   -1.4609 H   0  0  0  0  0  0  0  0  0  0  0  0
    1.4106    1.7535   -2.4066 H   0  0  0  0  0  0  0  0  0  0  0  0
    3.3482    4.0720   -5.6483 H   0  0  0  0  0  0  0  0  0  0  0  0
    3.6262    2.3232   -5.9909 H   0  0  0  0  0  0  0  0  0  0  0  0
    4.8147    3.2339   -5.0151 H   0  0  0  0  0  0  0  0  0  0  0  0
  1  2  2  0
  1 15  1  0
  1 16  1  0
  2  3  1  0
  2  9  1  0
  3  4  1  0
  3 17  1  0
  4  5  1  0
  4 18  1  0
  4 19  1  0
  5  6  2  0
  5  7  1  0
  7  8  1  0
  8 20  1  0
  8 21  1  0
  8 22  1  0
  9 10  2  0
  9 11  1  0
 11 12  1  6
 11 13  1  0
 11 14  1  0
M  END

