
     RDKit          3D

 60 63  0  0  0  0  0  0  0  0999 V2000
    2.3160    0.3344   -1.5284 C   0  0  0  0  0  0  0  0  0  0  0  0
    3.6890    0.8393   -1.8006 C   0  0  0  0  0  0  0  0  0  0  0  0
    4.7111    1.2808   -1.0073 C   0  0  0  0  0  0  0  0  0  0  0  0
    5.7415    1.6143   -1.9396 C   0  0  0  0  0  0  0  0  0  0  0  0
    7.1155    2.1553   -1.6820 C   0  0  0  0  0  0  0  0  0  0  0  0
    7.0878    3.5335   -1.2595 O   0  0  0  0  0  0  0  0  0  0  0  0
    6.9137    3.7817    0.0523 C   0  0  0  0  0  0  0  0  0  0  0  0
    6.7854    2.9178    0.8869 O   0  0  0  0  0  0  0  0  0  0  0  0
    6.8922    5.2765    0.3242 C   0  0  2  0  0  0  0  0  0  0  0  0
    6.8690    5.5789    1.8245 C   0  0  0  0  0  0  0  0  0  0  0  0
    6.7821    7.0839    2.1032 C   0  0  0  0  0  0  0  0  0  0  0  0
    5.6391    7.6738    1.4123 N   0  0  0  0  0  0  0  0  0  0  0  0
    4.9275    8.7124    1.9723 C   0  0  0  0  0  0  0  0  0  0  0  0
    5.5082    9.5415    2.9721 C   0  0  0  0  0  0  0  0  0  0  0  0
    4.8440   10.6328    3.5100 C   0  0  0  0  0  0  0  0  0  0  0  0
    3.5621   10.9689    3.0525 C   0  0  0  0  0  0  0  0  0  0  0  0
    2.7064   12.3835    3.7382 S   0  0  1  0  0  0  0  0  0  0  0  0
    1.3182   12.3019    3.2678 O   0  0  0  0  0  0  0  0  0  0  0  0
    3.0279   12.4511    5.1670 O   0  0  0  0  0  0  0  0  0  0  0  0
    3.4779   13.6980    3.0155 N   0  0  0  0  0  0  0  0  0  0  0  0
    2.9861   14.1448    1.7048 C   0  0  0  0  0  0  0  0  0  0  0  0
    2.0093   15.3109    1.8634 C   0  0  0  0  0  0  0  0  0  0  0  0
    2.5891   16.3573    2.6200 O   0  0  0  0  0  0  0  0  0  0  0  0
    2.9587   15.9351    3.9185 C   0  0  0  0  0  0  0  0  0  0  0  0
    3.9732   14.7932    3.8608 C   0  0  0  0  0  0  0  0  0  0  0  0
    2.9361   10.1732    2.1017 C   0  0  0  0  0  0  0  0  0  0  0  0
    3.5947    9.0511    1.5943 C   0  0  0  0  0  0  0  0  0  0  0  0
    2.7663    8.1753    0.7459 N   0  0  0  0  0  0  0  0  0  0  0  0
    2.9113    6.9671    0.8565 O   0  0  0  0  0  0  0  0  0  0  0  0
    1.9483    8.7126    0.0154 O   0  0  0  0  0  0  0  0  0  0  0  0
    5.6579    7.4403   -0.0349 C   0  0  0  0  0  0  0  0  0  0  0  0
    5.6956    5.9530   -0.3759 C   0  0  0  0  0  0  0  0  0  0  0  0
    5.3619    1.3877   -3.1772 N   0  0  0  0  0  0  0  0  0  0  0  0
    4.0768    0.8990   -3.0919 O   0  0  0  0  0  0  0  0  0  0  0  0
    2.1228    0.3210   -0.4476 H   0  0  0  0  0  0  0  0  0  0  0  0
    2.1874   -0.6863   -1.9232 H   0  0  0  0  0  0  0  0  0  0  0  0
    1.5603    0.9735   -2.0129 H   0  0  0  0  0  0  0  0  0  0  0  0
    4.7459    1.3643    0.0749 H   0  0  0  0  0  0  0  0  0  0  0  0
    7.6851    2.1473   -2.6190 H   0  0  0  0  0  0  0  0  0  0  0  0
    7.6298    1.5575   -0.9164 H   0  0  0  0  0  0  0  0  0  0  0  0
    7.8167    5.6869   -0.1235 H   0  0  0  0  0  0  0  0  0  0  0  0
    7.7666    5.1706    2.3148 H   0  0  0  0  0  0  0  0  0  0  0  0
    6.0018    5.0747    2.2787 H   0  0  0  0  0  0  0  0  0  0  0  0
    7.7277    7.5810    1.7974 H   0  0  0  0  0  0  0  0  0  0  0  0
    6.6669    7.2363    3.1842 H   0  0  0  0  0  0  0  0  0  0  0  0
    6.5257    9.3373    3.3031 H   0  0  0  0  0  0  0  0  0  0  0  0
    5.3262   11.2428    4.2763 H   0  0  0  0  0  0  0  0  0  0  0  0
    2.5075   13.3074    1.1782 H   0  0  0  0  0  0  0  0  0  0  0  0
    3.8598   14.4662    1.1110 H   0  0  0  0  0  0  0  0  0  0  0  0
    1.0857   14.9405    2.3502 H   0  0  0  0  0  0  0  0  0  0  0  0
    1.7450   15.7322    0.8811 H   0  0  0  0  0  0  0  0  0  0  0  0
    2.0666   15.6027    4.4883 H   0  0  0  0  0  0  0  0  0  0  0  0
    3.3895   16.8094    4.4312 H   0  0  0  0  0  0  0  0  0  0  0  0
    4.1878   14.4058    4.8650 H   0  0  0  0  0  0  0  0  0  0  0  0
    4.9157   15.1565    3.4140 H   0  0  0  0  0  0  0  0  0  0  0  0
    1.9177   10.3880    1.7783 H   0  0  0  0  0  0  0  0  0  0  0  0
    6.5628    7.9323   -0.4515 H   0  0  0  0  0  0  0  0  0  0  0  0
    4.8004    7.9235   -0.5147 H   0  0  0  0  0  0  0  0  0  0  0  0
    5.7735    5.8258   -1.4659 H   0  0  0  0  0  0  0  0  0  0  0  0
    4.7531    5.4882   -0.0473 H   0  0  0  0  0  0  0  0  0  0  0  0
  1  2  1  0
  1 35  1  0
  1 36  1  0
  1 37  1  0
  2  3  2  0
  2 34  1  0
  3  4  1  0
  3 38  1  0
  4  5  1  0
  4 33  2  0
  5  6  1  0
  5 39  1  0
  5 40  1  0
  6  7  1  0
  7  8  2  0
  7  9  1  0
  9 10  1  0
  9 32  1  0
  9 41  1  6
 10 11  1  0
 10 42  1  0
 10 43  1  0
 11 12  1  0
 11 44  1  0
 11 45  1  0
 12 13  1  0
 12 31  1  0
 13 14  2  0
 13 27  1  0
 14 15  1  0
 14 46  1  0
 15 16  2  0
 15 47  1  0
 17 16  1  6
 16 26  1  0
 17 18  2  0
 17 19  2  0
 17 20  1  0
 20 21  1  0
 20 25  1  0
 21 22  1  0
 21 48  1  0
 21 49  1  0
 22 23  1  0
 22 50  1  0
 22 51  1  0
 23 24  1  0
 24 25  1  0
 24 52  1  0
 24 53  1  0
 25 54  1  0
 25 55  1  0
 26 27  2  0
 26 56  1  0
 27 28  1  0
 28 29  2  0
 28 30  1  0
 31 32  1  0
 31 57  1  0
 31 58  1  0
 32 59  1  0
 32 60  1  0
 33 34  1  0
M  CHG  2  28   1  30  -1
M  END

