
     RDKit          3D

 30 31  0  0  0  0  0  0  0  0999 V2000
    0.9674    0.1629   -0.7338 C   0  0  0  0  0  0  0  0  0  0  0  0
    2.4277    0.0074   -0.4566 C   0  0  0  0  0  0  0  0  0  0  0  0
    3.2464    1.1139   -0.4112 N   0  0  0  0  0  0  0  0  0  0  0  0
    2.9289    2.0649   -0.5469 H   0  0  0  0  0  0  0  0  0  0  0  0
    4.5403    0.7467   -0.0918 C   0  0  0  0  0  0  0  0  0  0  0  0
    5.6984    1.5228    0.0394 C   0  0  0  0  0  0  0  0  0  0  0  0
    6.8835    0.8584    0.3481 C   0  0  0  0  0  0  0  0  0  0  0  0
    6.9136   -0.5433    0.5072 C   0  0  0  0  0  0  0  0  0  0  0  0
    5.7606   -1.3127    0.3718 C   0  0  0  0  0  0  0  0  0  0  0  0
    4.5443   -0.6620    0.0852 C   0  0  0  0  0  0  0  0  0  0  0  0
    3.1857   -1.1229   -0.1535 C   0  0  0  0  0  0  0  0  0  0  0  0
    2.7339   -2.5101   -0.0534 C   0  0  0  0  0  0  0  0  0  0  0  0
    1.8869   -3.0499   -0.9735 C   0  0  0  0  0  0  0  0  0  0  0  0
    1.4014   -4.4434   -0.9529 C   0  0  0  0  0  0  0  0  0  0  0  0
    1.8682   -5.3502   -0.2922 O   0  0  0  0  0  0  0  0  0  0  0  0
    0.3560   -4.7090   -1.7708 O   0  0  0  0  0  0  0  0  0  0  0  0
    3.2636   -3.3236    1.1337 C   0  0  0  0  0  0  0  0  0  0  0  0
    4.1817   -4.3192    0.7637 O   0  0  0  0  0  0  0  0  0  0  0  0
    0.5596    1.0498   -0.2204 H   0  0  0  0  0  0  0  0  0  0  0  0
    0.4106   -0.7177   -0.3862 H   0  0  0  0  0  0  0  0  0  0  0  0
    0.7613    0.2858   -1.8120 H   0  0  0  0  0  0  0  0  0  0  0  0
    5.6769    2.6065   -0.1009 H   0  0  0  0  0  0  0  0  0  0  0  0
    7.8068    1.4325    0.4591 H   0  0  0  0  0  0  0  0  0  0  0  0
    7.8631   -1.0342    0.7342 H   0  0  0  0  0  0  0  0  0  0  0  0
    5.7946   -2.4001    0.4711 H   0  0  0  0  0  0  0  0  0  0  0  0
    1.5767   -2.4359   -1.8254 H   0  0  0  0  0  0  0  0  0  0  0  0
    0.0562   -3.8985   -2.2049 H   0  0  0  0  0  0  0  0  0  0  0  0
    2.3926   -3.7513    1.6662 H   0  0  0  0  0  0  0  0  0  0  0  0
    3.7721   -2.6453    1.8323 H   0  0  0  0  0  0  0  0  0  0  0  0
    3.6421   -5.0026    0.3243 H   0  0  0  0  0  0  0  0  0  0  0  0
  1  2  1  0
  1 19  1  0
  1 20  1  0
  1 21  1  0
  2  3  1  0
  2 11  2  0
  3  4  1  0
  3  5  1  0
  5  6  2  0
  5 10  1  0
  6  7  1  0
  6 22  1  0
  7  8  2  0
  7 23  1  0
  8  9  1  0
  8 24  1  0
  9 10  2  0
  9 25  1  0
 10 11  1  0
 11 12  1  0
 12 13  2  0
 12 17  1  0
 13 14  1  0
 13 26  1  0
 14 15  2  0
 14 16  1  0
 16 27  1  0
 17 18  1  0
 17 28  1  0
 17 29  1  0
 18 30  1  0
M  END

