
     RDKit          3D

 44 46  0  0  0  0  0  0  0  0999 V2000
    4.8807    1.6861    0.6974 C   0  0  0  0  0  0  0  0  0  0  0  0
    4.8848    1.7140   -0.8346 C   0  0  1  0  0  0  0  0  0  0  0  0
    3.5654    2.2424   -1.4070 C   0  0  0  0  0  0  0  0  0  0  0  0
    6.0688    2.5279   -1.3594 C   0  0  0  0  0  0  0  0  0  0  0  0
    5.1555    0.3683   -1.3591 O   0  0  0  0  0  0  0  0  0  0  0  0
    4.3417   -0.6739   -1.1245 C   0  0  0  0  0  0  0  0  0  0  0  0
    3.3158   -0.6389   -0.4775 O   0  0  0  0  0  0  0  0  0  0  0  0
    4.8556   -1.9019   -1.7629 C   0  0  0  0  0  0  0  0  0  0  0  0
    5.9888   -2.0974   -2.5268 C   0  0  0  0  0  0  0  0  0  0  0  0
    6.1332   -3.4382   -2.9628 C   0  0  0  0  0  0  0  0  0  0  0  0
    5.1154   -4.2703   -2.5293 C   0  0  0  0  0  0  0  0  0  0  0  0
    4.9196   -5.7037   -2.8320 C   0  0  0  0  0  0  0  0  0  0  0  0
    5.8437   -6.6584   -2.5296 C   0  0  0  0  0  0  0  0  0  0  0  0
    7.0012   -6.4113   -1.6678 C   0  0  0  0  0  0  0  0  0  0  0  0
    7.3015   -5.5752   -0.6191 C   0  0  0  0  0  0  0  0  0  0  0  0
    8.5563   -5.8732   -0.1291 N   0  0  0  0  0  0  0  0  0  0  0  0
    8.9677   -6.8549   -0.8653 C   0  0  0  0  0  0  0  0  0  0  0  0
    8.0882   -7.2449   -1.8113 O   0  0  0  0  0  0  0  0  0  0  0  0
    5.7015   -8.0929   -3.0146 C   0  0  0  0  0  0  0  0  0  0  0  0
    4.6190   -8.2804   -4.0776 C   0  0  0  0  0  0  0  0  0  0  0  0
    3.3462   -7.5385   -3.6742 C   0  0  0  0  0  0  0  0  0  0  0  0
    3.6264   -6.0399   -3.5575 C   0  0  0  0  0  0  0  0  0  0  0  0
    3.9537   -3.3777   -1.5794 S   0  0  0  0  0  0  0  0  0  0  0  0
    4.7935    2.7133    1.0848 H   0  0  0  0  0  0  0  0  0  0  0  0
    5.8220    1.2577    1.0758 H   0  0  0  0  0  0  0  0  0  0  0  0
    4.0417    1.0927    1.0821 H   0  0  0  0  0  0  0  0  0  0  0  0
    3.4263    3.2922   -1.1046 H   0  0  0  0  0  0  0  0  0  0  0  0
    2.7117    1.6558   -1.0449 H   0  0  0  0  0  0  0  0  0  0  0  0
    3.5820    2.2040   -2.5075 H   0  0  0  0  0  0  0  0  0  0  0  0
    5.9869    3.5751   -1.0308 H   0  0  0  0  0  0  0  0  0  0  0  0
    6.0955    2.5086   -2.4595 H   0  0  0  0  0  0  0  0  0  0  0  0
    7.0183    2.1176   -0.9835 H   0  0  0  0  0  0  0  0  0  0  0  0
    6.6807   -1.2887   -2.7613 H   0  0  0  0  0  0  0  0  0  0  0  0
    6.9574   -3.7958   -3.5812 H   0  0  0  0  0  0  0  0  0  0  0  0
    6.6861   -4.7885   -0.1899 H   0  0  0  0  0  0  0  0  0  0  0  0
    9.9128   -7.3937   -0.8161 H   0  0  0  0  0  0  0  0  0  0  0  0
    5.4914   -8.7380   -2.1403 H   0  0  0  0  0  0  0  0  0  0  0  0
    6.6785   -8.4337   -3.3931 H   0  0  0  0  0  0  0  0  0  0  0  0
    4.4239   -9.3549   -4.2249 H   0  0  0  0  0  0  0  0  0  0  0  0
    4.9774   -7.8897   -5.0470 H   0  0  0  0  0  0  0  0  0  0  0  0
    2.9899   -7.9270   -2.7034 H   0  0  0  0  0  0  0  0  0  0  0  0
    2.5353   -7.7120   -4.3998 H   0  0  0  0  0  0  0  0  0  0  0  0
    2.7914   -5.5295   -3.0462 H   0  0  0  0  0  0  0  0  0  0  0  0
    3.6652   -5.5777   -4.5626 H   0  0  0  0  0  0  0  0  0  0  0  0
  1  2  1  0
  1 24  1  0
  1 25  1  0
  1 26  1  0
  2  3  1  0
  2  4  1  0
  2  5  1  6
  3 27  1  0
  3 28  1  0
  3 29  1  0
  4 30  1  0
  4 31  1  0
  4 32  1  0
  5  6  1  0
  6  7  2  0
  6  8  1  0
  8  9  2  0
  8 23  1  0
  9 10  1  0
  9 33  1  0
 10 11  2  0
 10 34  1  0
 11 12  1  0
 11 23  1  0
 12 13  2  0
 12 22  1  0
 13 14  1  0
 13 19  1  0
 14 15  2  0
 14 18  1  0
 15 16  1  0
 15 35  1  0
 16 17  2  0
 17 18  1  0
 17 36  1  0
 19 20  1  0
 19 37  1  0
 19 38  1  0
 20 21  1  0
 20 39  1  0
 20 40  1  0
 21 22  1  0
 21 41  1  0
 21 42  1  0
 22 43  1  0
 22 44  1  0
M  END

