
     RDKit          3D

 48 51  0  0  0  0  0  0  0  0999 V2000
    5.4240    6.6584   -4.4928 C   0  0  0  0  0  0  0  0  0  0  0  0
    4.7269    6.3199   -3.2937 O   0  0  0  0  0  0  0  0  0  0  0  0
    5.4137    5.6025   -2.3878 C   0  0  0  0  0  0  0  0  0  0  0  0
    6.5562    5.2401   -2.5564 O   0  0  0  0  0  0  0  0  0  0  0  0
    4.6137    5.3090   -1.1600 C   0  0  0  0  0  0  0  0  0  0  0  0
    3.2979    5.7592   -0.9844 C   0  0  0  0  0  0  0  0  0  0  0  0
    2.6131    5.4595    0.1980 C   0  0  0  0  0  0  0  0  0  0  0  0
    3.2364    4.7204    1.2006 C   0  0  0  0  0  0  0  0  0  0  0  0
    4.5582    4.2596    1.0385 C   0  0  0  0  0  0  0  0  0  0  0  0
    5.1702    3.4857    2.1715 C   0  0  0  0  0  0  0  0  0  0  0  0
    4.5347    3.2826    3.1894 O   0  0  0  0  0  0  0  0  0  0  0  0
    6.5994    2.9565    2.0652 C   0  0  0  0  0  0  0  0  0  0  0  0
    7.5934    3.6963    2.9941 C   0  0  2  0  0  0  0  0  0  0  0  0
    7.2514    3.6360    4.4878 C   0  0  0  0  0  0  0  0  0  0  0  0
    7.1278    2.3450    5.1881 C   0  0  0  0  0  0  0  0  0  0  0  0
    6.0423    2.0809    6.0472 C   0  0  0  0  0  0  0  0  0  0  0  0
    5.9360    0.8588    6.7134 C   0  0  0  0  0  0  0  0  0  0  0  0
    6.9016   -0.1354    6.5265 C   0  0  0  0  0  0  0  0  0  0  0  0
    7.9744    0.1023    5.6622 C   0  0  0  0  0  0  0  0  0  0  0  0
    8.0850    1.3267    4.9999 C   0  0  0  0  0  0  0  0  0  0  0  0
    7.1052    4.8971    4.9921 C   0  0  0  0  0  0  0  0  0  0  0  0
    6.8069    5.3235    6.3951 C   0  0  0  0  0  0  0  0  0  0  0  0
    7.3478    5.8480    3.9144 C   0  0  0  0  0  0  0  0  0  0  0  0
    7.4599    7.1828    3.5638 C   0  0  0  0  0  0  0  0  0  0  0  0
    7.8108    7.2822    2.2390 N   0  0  0  0  0  0  0  0  0  0  0  0
    7.9171    6.0483    1.7845 C   0  0  0  0  0  0  0  0  0  0  0  0
    7.6383    5.1396    2.7663 N   0  0  0  0  0  0  0  0  0  0  0  0
    5.2335    4.5589   -0.1510 C   0  0  0  0  0  0  0  0  0  0  0  0
    4.7195    7.2369   -5.1028 H   0  0  0  0  0  0  0  0  0  0  0  0
    5.7405    5.7515   -5.0299 H   0  0  0  0  0  0  0  0  0  0  0  0
    6.3181    7.2591   -4.2677 H   0  0  0  0  0  0  0  0  0  0  0  0
    2.8211    6.3430   -1.7728 H   0  0  0  0  0  0  0  0  0  0  0  0
    1.5880    5.8116    0.3364 H   0  0  0  0  0  0  0  0  0  0  0  0
    2.7227    4.4831    2.1341 H   0  0  0  0  0  0  0  0  0  0  0  0
    6.9840    2.9810    1.0374 H   0  0  0  0  0  0  0  0  0  0  0  0
    6.5757    1.9025    2.3826 H   0  0  0  0  0  0  0  0  0  0  0  0
    8.5929    3.2627    2.8118 H   0  0  0  0  0  0  0  0  0  0  0  0
    5.2579    2.8311    6.1568 H   0  0  0  0  0  0  0  0  0  0  0  0
    5.0826    0.6754    7.3717 H   0  0  0  0  0  0  0  0  0  0  0  0
    6.8143   -1.0933    7.0455 H   0  0  0  0  0  0  0  0  0  0  0  0
    8.7346   -0.6679    5.5070 H   0  0  0  0  0  0  0  0  0  0  0  0
    8.9424    1.5030    4.3449 H   0  0  0  0  0  0  0  0  0  0  0  0
    6.9077    4.4938    7.1075 H   0  0  0  0  0  0  0  0  0  0  0  0
    5.7801    5.7203    6.4765 H   0  0  0  0  0  0  0  0  0  0  0  0
    7.4869    6.1347    6.7034 H   0  0  0  0  0  0  0  0  0  0  0  0
    7.3122    8.0650    4.1850 H   0  0  0  0  0  0  0  0  0  0  0  0
    8.1869    5.7690    0.7657 H   0  0  0  0  0  0  0  0  0  0  0  0
    6.2545    4.2283   -0.3373 H   0  0  0  0  0  0  0  0  0  0  0  0
  1  2  1  0
  1 29  1  0
  1 30  1  0
  1 31  1  0
  2  3  1  0
  3  4  2  0
  3  5  1  0
  5  6  2  0
  5 28  1  0
  6  7  1  0
  6 32  1  0
  7  8  2  0
  7 33  1  0
  8  9  1  0
  8 34  1  0
  9 10  1  0
  9 28  2  0
 10 11  2  0
 10 12  1  0
 12 13  1  0
 12 35  1  0
 12 36  1  0
 13 14  1  0
 13 27  1  0
 13 37  1  1
 14 15  1  0
 14 21  2  0
 15 16  2  0
 15 20  1  0
 16 17  1  0
 16 38  1  0
 17 18  2  0
 17 39  1  0
 18 19  1  0
 18 40  1  0
 19 20  2  0
 19 41  1  0
 20 42  1  0
 21 22  1  0
 21 23  1  0
 22 43  1  0
 22 44  1  0
 22 45  1  0
 23 24  2  0
 23 27  1  0
 24 25  1  0
 24 46  1  0
 25 26  2  0
 26 27  1  0
 26 47  1  0
 28 48  1  0
M  END

