
     RDKit          3D

 39 41  0  0  0  0  0  0  0  0999 V2000
    1.9671    0.3675   -1.6123 C   0  0  0  0  0  0  0  0  0  0  0  0
    2.6637   -0.0630   -0.4632 O   0  0  0  0  0  0  0  0  0  0  0  0
    3.0479    0.8521    0.4616 C   0  0  0  0  0  0  0  0  0  0  0  0
    2.7704    2.2200    0.3802 C   0  0  0  0  0  0  0  0  0  0  0  0
    3.2057    3.0937    1.3964 C   0  0  0  0  0  0  0  0  0  0  0  0
    2.9125    4.5184    1.3191 C   0  0  0  0  0  0  0  0  0  0  0  0
    3.1643    5.6047    2.1265 C   0  0  0  0  0  0  0  0  0  0  0  0
    2.6463    6.7367    1.5513 N   0  0  0  0  0  0  0  0  0  0  0  0
    2.1029    6.3367    0.4356 C   0  0  0  0  0  0  0  0  0  0  0  0
    1.4089    7.1396   -0.5655 C   0  0  0  0  0  0  0  0  0  0  0  0
    1.2619    8.5242   -0.3745 C   0  0  0  0  0  0  0  0  0  0  0  0
    0.5938    9.2655   -1.3486 C   0  0  0  0  0  0  0  0  0  0  0  0
    0.0791    8.7361   -2.4641 N   0  0  0  0  0  0  0  0  0  0  0  0
    0.2211    7.4204   -2.6417 C   0  0  0  0  0  0  0  0  0  0  0  0
    0.8704    6.5792   -1.7353 C   0  0  0  0  0  0  0  0  0  0  0  0
    2.2300    4.9970    0.2342 O   0  0  0  0  0  0  0  0  0  0  0  0
    3.9298    2.5838    2.4840 C   0  0  0  0  0  0  0  0  0  0  0  0
    4.2044    1.2152    2.5741 C   0  0  0  0  0  0  0  0  0  0  0  0
    4.8567    0.7584    3.6807 O   0  0  0  0  0  0  0  0  0  0  0  0
    6.1358    0.1642    3.4908 C   0  0  0  0  0  0  0  0  0  0  0  0
    3.7660    0.3348    1.5672 C   0  0  0  0  0  0  0  0  0  0  0  0
    4.0608   -0.9942    1.6524 O   0  0  0  0  0  0  0  0  0  0  0  0
    2.9865   -1.8585    2.0044 C   0  0  0  0  0  0  0  0  0  0  0  0
    1.7796   -0.5297   -2.2171 H   0  0  0  0  0  0  0  0  0  0  0  0
    2.5628    1.0826   -2.2070 H   0  0  0  0  0  0  0  0  0  0  0  0
    0.9999    0.8360   -1.3560 H   0  0  0  0  0  0  0  0  0  0  0  0
    2.2158    2.6256   -0.4632 H   0  0  0  0  0  0  0  0  0  0  0  0
    3.6845    5.6288    3.0818 H   0  0  0  0  0  0  0  0  0  0  0  0
    1.6671    8.9961    0.5221 H   0  0  0  0  0  0  0  0  0  0  0  0
    0.4682   10.3470   -1.2187 H   0  0  0  0  0  0  0  0  0  0  0  0
   -0.2061    7.0021   -3.5611 H   0  0  0  0  0  0  0  0  0  0  0  0
    0.9566    5.5099   -1.9340 H   0  0  0  0  0  0  0  0  0  0  0  0
    4.2857    3.2262    3.2901 H   0  0  0  0  0  0  0  0  0  0  0  0
    6.5028   -0.1121    4.4892 H   0  0  0  0  0  0  0  0  0  0  0  0
    6.8417    0.8845    3.0387 H   0  0  0  0  0  0  0  0  0  0  0  0
    6.0781   -0.7345    2.8583 H   0  0  0  0  0  0  0  0  0  0  0  0
    3.4045   -2.8731    2.0653 H   0  0  0  0  0  0  0  0  0  0  0  0
    2.1915   -1.8413    1.2416 H   0  0  0  0  0  0  0  0  0  0  0  0
    2.5618   -1.5840    2.9859 H   0  0  0  0  0  0  0  0  0  0  0  0
  1  2  1  0
  1 24  1  0
  1 25  1  0
  1 26  1  0
  2  3  1  0
  3  4  2  0
  3 21  1  0
  4  5  1  0
  4 27  1  0
  5  6  1  0
  5 17  2  0
  6  7  2  0
  6 16  1  0
  7  8  1  0
  7 28  1  0
  8  9  2  0
  9 10  1  0
  9 16  1  0
 10 11  2  0
 10 15  1  0
 11 12  1  0
 11 29  1  0
 12 13  2  0
 12 30  1  0
 13 14  1  0
 14 15  2  0
 14 31  1  0
 15 32  1  0
 17 18  1  0
 17 33  1  0
 18 19  1  0
 18 21  2  0
 19 20  1  0
 20 34  1  0
 20 35  1  0
 20 36  1  0
 21 22  1  0
 22 23  1  0
 23 37  1  0
 23 38  1  0
 23 39  1  0
M  END

