
     RDKit          3D

 45 47  0  0  0  0  0  0  0  0999 V2000
    0.1392   -1.2482   -3.5398 C   0  0  0  0  0  0  0  0  0  0  0  0
    1.1213   -1.1651   -2.3953 C   0  0  0  0  0  0  0  0  0  0  0  0
    1.3721    0.0485   -1.7379 C   0  0  0  0  0  0  0  0  0  0  0  0
    2.2810    0.1293   -0.6740 C   0  0  0  0  0  0  0  0  0  0  0  0
    2.5439    1.4406    0.0278 C   0  0  0  0  0  0  0  0  0  0  0  0
    2.9562   -1.0264   -0.2555 C   0  0  0  0  0  0  0  0  0  0  0  0
    2.7176   -2.2484   -0.9018 C   0  0  0  0  0  0  0  0  0  0  0  0
    3.3603   -3.4522   -0.5379 N   0  0  0  0  0  0  0  0  0  0  0  0
    4.2681   -3.6792    0.4584 C   0  0  0  0  0  0  0  0  0  0  0  0
    4.6968   -2.8450    1.2332 O   0  0  0  0  0  0  0  0  0  0  0  0
    4.8151   -5.1162    0.5225 C   0  0  0  0  0  0  0  0  0  0  0  0
    3.5887   -6.4167    0.1024 S   0  0  0  0  0  0  0  0  0  0  0  0
    4.7258   -7.7641   -0.4520 C   0  0  0  0  0  0  0  0  0  0  0  0
    4.0209   -9.0944   -0.4799 C   0  0  0  0  0  0  0  0  0  0  0  0
    4.0761   -9.9366   -1.5551 C   0  0  0  0  0  0  0  0  0  0  0  0
    3.4419  -11.2517   -1.5489 C   0  0  0  0  0  0  0  0  0  0  0  0
    3.4817  -12.0285   -2.4972 O   0  0  0  0  0  0  0  0  0  0  0  0
    2.7264  -11.5818   -0.2830 C   0  0  0  0  0  0  0  0  0  0  0  0
    2.0673  -12.8165   -0.1578 C   0  0  0  0  0  0  0  0  0  0  0  0
    1.3953  -13.1144    1.0132 C   0  0  0  0  0  0  0  0  0  0  0  0
    0.7632  -14.2899    1.1434 F   0  0  0  0  0  0  0  0  0  0  0  0
    1.3532  -12.2102    2.0851 C   0  0  0  0  0  0  0  0  0  0  0  0
    2.0010  -10.9879    1.9742 C   0  0  0  0  0  0  0  0  0  0  0  0
    2.6947  -10.6632    0.7905 C   0  0  0  0  0  0  0  0  0  0  0  0
    3.3528   -9.4509    0.6611 N   0  0  0  0  0  0  0  0  0  0  0  0
    3.2638   -8.7600    1.3997 H   0  0  0  0  0  0  0  0  0  0  0  0
    1.8024   -2.3087   -1.9662 C   0  0  0  0  0  0  0  0  0  0  0  0
   -0.3001   -0.2658   -3.7663 H   0  0  0  0  0  0  0  0  0  0  0  0
   -0.6877   -1.9408   -3.3094 H   0  0  0  0  0  0  0  0  0  0  0  0
    0.6232   -1.6201   -4.4584 H   0  0  0  0  0  0  0  0  0  0  0  0
    0.8464    0.9507   -2.0636 H   0  0  0  0  0  0  0  0  0  0  0  0
    1.9493    2.2591   -0.4036 H   0  0  0  0  0  0  0  0  0  0  0  0
    3.6079    1.7222   -0.0399 H   0  0  0  0  0  0  0  0  0  0  0  0
    2.2999    1.3735    1.1011 H   0  0  0  0  0  0  0  0  0  0  0  0
    3.6661   -0.9899    0.5682 H   0  0  0  0  0  0  0  0  0  0  0  0
    3.0922   -4.2710   -1.0780 H   0  0  0  0  0  0  0  0  0  0  0  0
    5.2099   -5.2546    1.5380 H   0  0  0  0  0  0  0  0  0  0  0  0
    5.6555   -5.1872   -0.1881 H   0  0  0  0  0  0  0  0  0  0  0  0
    5.5657   -7.8014    0.2622 H   0  0  0  0  0  0  0  0  0  0  0  0
    5.1263   -7.5373   -1.4491 H   0  0  0  0  0  0  0  0  0  0  0  0
    4.6131   -9.6433   -2.4579 H   0  0  0  0  0  0  0  0  0  0  0  0
    2.1006  -13.5149   -0.9957 H   0  0  0  0  0  0  0  0  0  0  0  0
    0.8103  -12.4838    2.9918 H   0  0  0  0  0  0  0  0  0  0  0  0
    1.9752  -10.2770    2.8044 H   0  0  0  0  0  0  0  0  0  0  0  0
    1.6200   -3.2659   -2.4660 H   0  0  0  0  0  0  0  0  0  0  0  0
  1  2  1  0
  1 28  1  0
  1 29  1  0
  1 30  1  0
  2  3  2  0
  2 27  1  0
  3  4  1  0
  3 31  1  0
  4  5  1  0
  4  6  2  0
  5 32  1  0
  5 33  1  0
  5 34  1  0
  6  7  1  0
  6 35  1  0
  7  8  1  0
  7 27  2  0
  8  9  1  0
  8 36  1  0
  9 10  2  0
  9 11  1  0
 11 12  1  0
 11 37  1  0
 11 38  1  0
 12 13  1  0
 13 14  1  0
 13 39  1  0
 13 40  1  0
 14 15  2  0
 14 25  1  0
 15 16  1  0
 15 41  1  0
 16 17  2  0
 16 18  1  0
 18 19  2  0
 18 24  1  0
 19 20  1  0
 19 42  1  0
 20 21  1  0
 20 22  2  0
 22 23  1  0
 22 43  1  0
 23 24  2  0
 23 44  1  0
 24 25  1  0
 25 26  1  0
 27 45  1  0
M  END

