
     RDKit          3D

 65 67  0  0  0  0  0  0  0  0999 V2000
    0.7854   -1.5618    0.7304 C   0  0  0  0  0  0  0  0  0  0  0  0
    2.2569   -1.5112    0.3357 C   0  0  0  0  0  0  0  0  0  0  0  0
    2.4910   -1.4593   -1.1684 C   0  0  0  0  0  0  0  0  0  0  0  0
    1.6162   -1.7566   -1.9597 O   0  0  0  0  0  0  0  0  0  0  0  0
    3.8919   -1.1604   -1.6615 C   0  0  0  0  0  0  0  0  0  0  0  0
    4.5296   -0.0013   -1.3831 C   0  0  0  0  0  0  0  0  0  0  0  0
    4.0226    1.1865   -0.6673 C   0  0  0  0  0  0  0  0  0  0  0  0
    2.6835    1.6196   -0.7577 C   0  0  0  0  0  0  0  0  0  0  0  0
    2.2652    2.7579   -0.0685 C   0  0  0  0  0  0  0  0  0  0  0  0
    3.1638    3.4916    0.7127 C   0  0  0  0  0  0  0  0  0  0  0  0
    4.5042    3.0967    0.7993 C   0  0  0  0  0  0  0  0  0  0  0  0
    5.5131    3.8775    1.6292 C   0  0  0  0  0  0  0  0  0  0  0  0
    4.9438    5.0279    2.2770 N   0  0  0  0  0  0  0  0  0  0  0  0
    5.7108    5.9124    2.7966 C   0  0  0  0  0  0  0  0  0  0  0  0
    7.0919    5.8417    2.9199 N   0  0  0  0  0  0  0  0  0  0  0  0
    5.1741    7.0890    3.3121 N   0  0  0  0  0  0  0  0  0  0  0  0
    4.9172    1.9562    0.0994 C   0  0  0  0  0  0  0  0  0  0  0  0
    4.4227   -2.2409   -2.6045 C   0  0  1  0  0  0  0  0  0  0  0  0
    5.7965   -1.9722   -3.2503 C   0  0  0  0  0  0  0  0  0  0  0  0
    6.9840   -2.2680   -2.3092 C   0  0  0  0  0  0  0  0  0  0  0  0
    6.9446   -3.5991   -1.7076 N   0  0  0  0  0  0  0  0  0  0  0  0
    7.4307   -4.6829   -2.5513 C   0  0  0  0  0  0  0  0  0  0  0  0
    8.9703   -4.7899   -2.5446 C   0  0  0  0  0  0  0  0  0  0  0  0
    9.4818   -5.9371   -3.3860 C   0  0  0  0  0  0  0  0  0  0  0  0
    9.7409   -5.7712   -4.7566 C   0  0  0  0  0  0  0  0  0  0  0  0
   10.1725   -6.8422   -5.5444 C   0  0  0  0  0  0  0  0  0  0  0  0
   10.3538   -8.1053   -4.9734 C   0  0  0  0  0  0  0  0  0  0  0  0
   10.1010   -8.2867   -3.6103 C   0  0  0  0  0  0  0  0  0  0  0  0
    9.6685   -7.2125   -2.8277 C   0  0  0  0  0  0  0  0  0  0  0  0
    5.6679   -3.8307   -1.0384 C   0  0  0  0  0  0  0  0  0  0  0  0
    4.4494   -3.6504   -1.9569 C   0  0  0  0  0  0  0  0  0  0  0  0
    0.6745   -1.7089    1.8156 H   0  0  0  0  0  0  0  0  0  0  0  0
    0.2664   -2.3792    0.2090 H   0  0  0  0  0  0  0  0  0  0  0  0
    0.2740   -0.6245    0.4602 H   0  0  0  0  0  0  0  0  0  0  0  0
    2.7833   -2.4257    0.6742 H   0  0  0  0  0  0  0  0  0  0  0  0
    2.7892   -0.6808    0.8231 H   0  0  0  0  0  0  0  0  0  0  0  0
    5.5525    0.1149   -1.7537 H   0  0  0  0  0  0  0  0  0  0  0  0
    1.9793    1.0814   -1.3956 H   0  0  0  0  0  0  0  0  0  0  0  0
    1.2257    3.0869   -0.1520 H   0  0  0  0  0  0  0  0  0  0  0  0
    2.8529    4.3846    1.2557 H   0  0  0  0  0  0  0  0  0  0  0  0
    6.3608    4.1443    0.9556 H   0  0  0  0  0  0  0  0  0  0  0  0
    5.9477    3.1756    2.3740 H   0  0  0  0  0  0  0  0  0  0  0  0
    7.5532    5.1085    2.3954 H   0  0  0  0  0  0  0  0  0  0  0  0
    7.5867    6.7273    2.8938 H   0  0  0  0  0  0  0  0  0  0  0  0
    4.1595    7.0544    3.3408 H   0  0  0  0  0  0  0  0  0  0  0  0
    5.5763    7.3908    4.1957 H   0  0  0  0  0  0  0  0  0  0  0  0
    5.9654    1.6424    0.1570 H   0  0  0  0  0  0  0  0  0  0  0  0
    3.6611   -2.2708   -3.4044 H   0  0  0  0  0  0  0  0  0  0  0  0
    5.8608   -0.9399   -3.6313 H   0  0  0  0  0  0  0  0  0  0  0  0
    5.8785   -2.6248   -4.1364 H   0  0  0  0  0  0  0  0  0  0  0  0
    7.0094   -1.5280   -1.4906 H   0  0  0  0  0  0  0  0  0  0  0  0
    7.9315   -2.1464   -2.8577 H   0  0  0  0  0  0  0  0  0  0  0  0
    7.0842   -4.6153   -3.6056 H   0  0  0  0  0  0  0  0  0  0  0  0
    7.0202   -5.6302   -2.1655 H   0  0  0  0  0  0  0  0  0  0  0  0
    9.2965   -4.9013   -1.4984 H   0  0  0  0  0  0  0  0  0  0  0  0
    9.4022   -3.8437   -2.9108 H   0  0  0  0  0  0  0  0  0  0  0  0
    9.6088   -4.7849   -5.2120 H   0  0  0  0  0  0  0  0  0  0  0  0
   10.3720   -6.6884   -6.6083 H   0  0  0  0  0  0  0  0  0  0  0  0
   10.6946   -8.9434   -5.5868 H   0  0  0  0  0  0  0  0  0  0  0  0
   10.2447   -9.2692   -3.1526 H   0  0  0  0  0  0  0  0  0  0  0  0
    9.4783   -7.3629   -1.7605 H   0  0  0  0  0  0  0  0  0  0  0  0
    5.5930   -3.1221   -0.1921 H   0  0  0  0  0  0  0  0  0  0  0  0
    5.6731   -4.8417   -0.5996 H   0  0  0  0  0  0  0  0  0  0  0  0
    3.5165   -3.8504   -1.4049 H   0  0  0  0  0  0  0  0  0  0  0  0
    4.4887   -4.4033   -2.7630 H   0  0  0  0  0  0  0  0  0  0  0  0
  1  2  1  0
  1 32  1  0
  1 33  1  0
  1 34  1  0
  2  3  1  0
  2 35  1  0
  2 36  1  0
  3  4  2  0
  3  5  1  0
  5  6  2  0
  5 18  1  0
  6  7  1  0
  6 37  1  0
  7  8  2  0
  7 17  1  0
  8  9  1  0
  8 38  1  0
  9 10  2  0
  9 39  1  0
 10 11  1  0
 10 40  1  0
 11 12  1  0
 11 17  2  0
 12 13  1  0
 12 41  1  0
 12 42  1  0
 13 14  2  0
 14 15  1  0
 14 16  1  0
 15 43  1  0
 15 44  1  0
 16 45  1  0
 16 46  1  0
 17 47  1  0
 18 19  1  0
 18 31  1  0
 18 48  1  6
 19 20  1  0
 19 49  1  0
 19 50  1  0
 20 21  1  0
 20 51  1  0
 20 52  1  0
 21 22  1  0
 21 30  1  0
 22 23  1  0
 22 53  1  0
 22 54  1  0
 23 24  1  0
 23 55  1  0
 23 56  1  0
 24 25  2  0
 24 29  1  0
 25 26  1  0
 25 57  1  0
 26 27  2  0
 26 58  1  0
 27 28  1  0
 27 59  1  0
 28 29  2  0
 28 60  1  0
 29 61  1  0
 30 31  1  0
 30 62  1  0
 30 63  1  0
 31 64  1  0
 31 65  1  0
M  END

