
     RDKit          3D

 49 51  0  0  0  0  0  0  0  0999 V2000
    2.9339    0.4246   -1.4790 C   0  0  0  0  0  0  0  0  0  0  0  0
    3.3974   -0.2812   -0.2009 C   0  0  1  0  0  0  0  0  0  0  0  0
    4.3524   -1.4712   -0.4722 C   0  0  0  0  0  0  0  0  0  0  0  0
    3.7707   -2.5602   -1.3380 C   0  0  0  0  0  0  0  0  0  0  0  0
    4.0495   -2.6702   -2.7059 C   0  0  0  0  0  0  0  0  0  0  0  0
    4.8696   -1.7588   -3.2599 F   0  0  0  0  0  0  0  0  0  0  0  0
    3.5226   -3.6726   -3.5168 C   0  0  0  0  0  0  0  0  0  0  0  0
    2.6649   -4.6153   -2.9446 C   0  0  0  0  0  0  0  0  0  0  0  0
    2.3471   -4.5504   -1.5854 C   0  0  0  0  0  0  0  0  0  0  0  0
    2.9019   -3.5291   -0.8186 C   0  0  0  0  0  0  0  0  0  0  0  0
    2.6006   -3.4634    0.4880 F   0  0  0  0  0  0  0  0  0  0  0  0
    4.0387    0.6565    0.7083 N   0  0  0  0  0  0  0  0  0  0  0  0
    3.5213    1.0175    1.9124 C   0  0  0  0  0  0  0  0  0  0  0  0
    2.4816    0.5905    2.3839 O   0  0  0  0  0  0  0  0  0  0  0  0
    4.3400    2.0848    2.6613 C   0  0  0  0  0  0  0  0  0  0  0  0
    5.7157    2.2207    2.1999 N   0  0  0  0  0  0  0  0  0  0  0  0
    6.6524    1.2375    2.7511 C   0  0  0  0  0  0  0  0  0  0  0  0
    7.0868    1.5675    4.1783 C   0  0  0  0  0  0  0  0  0  0  0  0
    7.5826    2.9446    4.2780 N   0  0  0  0  0  0  0  0  0  0  0  0
    8.5185    3.2055    5.2606 C   0  0  0  0  0  0  0  0  0  0  0  0
    9.1041    2.3329    5.8646 O   0  0  0  0  0  0  0  0  0  0  0  0
    8.7910    4.6926    5.6197 C   0  0  0  0  0  0  0  0  0  0  0  0
    9.4877    4.9755    6.5671 O   0  0  0  0  0  0  0  0  0  0  0  0
    8.1556    5.6208    4.8404 N   0  0  0  0  0  0  0  0  0  0  0  0
    7.5547    5.2893    3.5666 C   0  0  0  0  0  0  0  0  0  0  0  0
    6.7589    3.9934    3.6672 C   0  0  1  0  0  0  0  0  0  0  0  0
    6.2982    3.5504    2.2609 C   0  0  0  0  0  0  0  0  0  0  0  0
    2.4000   -0.2693   -2.1457 H   0  0  0  0  0  0  0  0  0  0  0  0
    3.7894    0.8368   -2.0404 H   0  0  0  0  0  0  0  0  0  0  0  0
    2.2510    1.2514   -1.2319 H   0  0  0  0  0  0  0  0  0  0  0  0
    2.5198   -0.6569    0.3466 H   0  0  0  0  0  0  0  0  0  0  0  0
    4.6330   -1.9002    0.5015 H   0  0  0  0  0  0  0  0  0  0  0  0
    5.2719   -1.0921   -0.9459 H   0  0  0  0  0  0  0  0  0  0  0  0
    3.7881   -3.6972   -4.5748 H   0  0  0  0  0  0  0  0  0  0  0  0
    2.2397   -5.4081   -3.5639 H   0  0  0  0  0  0  0  0  0  0  0  0
    1.6806   -5.2717   -1.1102 H   0  0  0  0  0  0  0  0  0  0  0  0
    4.9011    1.1266    0.4416 H   0  0  0  0  0  0  0  0  0  0  0  0
    4.2287    1.8530    3.7374 H   0  0  0  0  0  0  0  0  0  0  0  0
    3.8113    3.0391    2.5007 H   0  0  0  0  0  0  0  0  0  0  0  0
    7.5424    1.2061    2.0985 H   0  0  0  0  0  0  0  0  0  0  0  0
    6.1920    0.2383    2.7229 H   0  0  0  0  0  0  0  0  0  0  0  0
    7.8912    0.9022    4.5166 H   0  0  0  0  0  0  0  0  0  0  0  0
    6.2407    1.4302    4.8794 H   0  0  0  0  0  0  0  0  0  0  0  0
    8.3990    6.5867    5.0426 H   0  0  0  0  0  0  0  0  0  0  0  0
    8.3193    5.1845    2.7709 H   0  0  0  0  0  0  0  0  0  0  0  0
    6.8789    6.1038    3.2639 H   0  0  0  0  0  0  0  0  0  0  0  0
    5.8643    4.1730    4.2992 H   0  0  0  0  0  0  0  0  0  0  0  0
    7.1805    3.5662    1.5955 H   0  0  0  0  0  0  0  0  0  0  0  0
    5.5788    4.2872    1.8696 H   0  0  0  0  0  0  0  0  0  0  0  0
  1  2  1  0
  1 28  1  0
  1 29  1  0
  1 30  1  0
  2  3  1  0
  2 12  1  0
  2 31  1  1
  3  4  1  0
  3 32  1  0
  3 33  1  0
  4  5  2  0
  4 10  1  0
  5  6  1  0
  5  7  1  0
  7  8  2  0
  7 34  1  0
  8  9  1  0
  8 35  1  0
  9 10  2  0
  9 36  1  0
 10 11  1  0
 12 13  1  0
 12 37  1  0
 13 14  2  0
 13 15  1  0
 15 16  1  0
 15 38  1  0
 15 39  1  0
 16 17  1  0
 16 27  1  0
 17 18  1  0
 17 40  1  0
 17 41  1  0
 18 19  1  0
 18 42  1  0
 18 43  1  0
 19 20  1  0
 19 26  1  0
 20 21  2  0
 20 22  1  0
 22 23  2  0
 22 24  1  0
 24 25  1  0
 24 44  1  0
 25 26  1  0
 25 45  1  0
 25 46  1  0
 26 27  1  0
 26 47  1  1
 27 48  1  0
 27 49  1  0
M  END

