
     RDKit          3D

 35 38  0  0  0  0  0  0  0  0999 V2000
    0.9139    0.1421   -0.2563 O   0  0  0  0  0  0  0  0  0  0  0  0
    2.1195    0.1565   -0.1933 C   0  0  0  0  0  0  0  0  0  0  0  0
    2.8428    0.9861    0.6796 N   0  0  0  0  0  0  0  0  0  0  0  0
    2.3437    1.8936    1.5940 C   0  0  0  0  0  0  0  0  0  0  0  0
    1.0939    2.0834    1.9009 N   0  0  0  0  0  0  0  0  0  0  0  0
    0.9231    3.0446    2.8320 N   0  0  0  0  0  0  0  0  0  0  0  0
    2.0193    3.6033    3.2583 C   0  0  0  0  0  0  0  0  0  0  0  0
    2.0617    4.6640    4.2740 C   0  0  0  0  0  0  0  0  0  0  0  0
    0.8539    5.1243    4.8334 C   0  0  0  0  0  0  0  0  0  0  0  0
    0.8713    6.1294    5.7978 C   0  0  0  0  0  0  0  0  0  0  0  0
    2.0774    6.6952    6.2251 C   0  0  0  0  0  0  0  0  0  0  0  0
    3.2725    6.2347    5.6668 C   0  0  0  0  0  0  0  0  0  0  0  0
    4.7934    6.9262    6.1845 Cl  0  0  0  0  0  0  0  0  0  0  0  0
    3.2759    5.2288    4.6991 C   0  0  0  0  0  0  0  0  0  0  0  0
    3.4612    2.9400    2.4770 S   0  0  0  0  0  0  0  0  0  0  0  0
    3.0032   -0.7057   -1.0446 C   0  0  1  0  0  0  0  0  0  0  0  0
    2.4713   -2.0731   -1.4395 C   0  0  0  0  0  0  0  0  0  0  0  0
    2.5301   -0.9875   -2.4636 C   0  0  2  0  0  0  0  0  0  0  0  0
    3.4711   -1.0352   -3.6349 C   0  0  1  0  0  0  0  0  0  0  0  0
    4.2983    0.1605   -4.0374 C   0  0  0  0  0  0  0  0  0  0  0  0
    4.9729   -1.0780   -3.5016 C   0  0  0  0  0  0  0  0  0  0  0  0
    3.8519    0.9231    0.6263 H   0  0  0  0  0  0  0  0  0  0  0  0
   -0.0824    4.6788    4.4958 H   0  0  0  0  0  0  0  0  0  0  0  0
   -0.0688    6.4828    6.2285 H   0  0  0  0  0  0  0  0  0  0  0  0
    2.0972    7.4826    6.9801 H   0  0  0  0  0  0  0  0  0  0  0  0
    4.2291    4.8946    4.2853 H   0  0  0  0  0  0  0  0  0  0  0  0
    4.0810   -0.6286   -0.8747 H   0  0  0  0  0  0  0  0  0  0  0  0
    1.4930   -2.3437   -1.0344 H   0  0  0  0  0  0  0  0  0  0  0  0
    3.2056   -2.8814   -1.4992 H   0  0  0  0  0  0  0  0  0  0  0  0
    1.5626   -0.5218   -2.6835 H   0  0  0  0  0  0  0  0  0  0  0  0
    3.0643   -1.6241   -4.4659 H   0  0  0  0  0  0  0  0  0  0  0  0
    4.2619    1.0398   -3.3867 H   0  0  0  0  0  0  0  0  0  0  0  0
    4.3984    0.3952   -5.1008 H   0  0  0  0  0  0  0  0  0  0  0  0
    5.4221   -1.0275   -2.5052 H   0  0  0  0  0  0  0  0  0  0  0  0
    5.5286   -1.7123   -4.1978 H   0  0  0  0  0  0  0  0  0  0  0  0
  1  2  2  0
  2  3  1  0
  2 16  1  0
  3  4  1  0
  3 22  1  0
  4  5  2  0
  4 15  1  0
  5  6  1  0
  6  7  2  0
  7  8  1  0
  7 15  1  0
  8  9  2  0
  8 14  1  0
  9 10  1  0
  9 23  1  0
 10 11  2  0
 10 24  1  0
 11 12  1  0
 11 25  1  0
 12 13  1  0
 12 14  2  0
 14 26  1  0
 16 17  1  0
 16 18  1  0
 16 27  1  6
 17 18  1  0
 17 28  1  0
 17 29  1  0
 18 19  1  0
 18 30  1  6
 19 20  1  0
 19 21  1  0
 19 31  1  6
 20 21  1  0
 20 32  1  0
 20 33  1  0
 21 34  1  0
 21 35  1  0
M  END

