
     RDKit          3D

 35 36  0  0  0  0  0  0  0  0999 V2000
    2.7968   -0.2040   -1.4980 C   0  0  0  0  0  0  0  0  0  0  0  0
    2.4644    0.0896   -0.0364 C   0  0  1  0  0  0  0  0  0  0  0  0
    2.6673   -1.1583    0.8499 C   0  0  0  0  0  0  0  0  0  0  0  0
    2.8304   -2.2569    0.3884 O   0  0  0  0  0  0  0  0  0  0  0  0
    2.6057   -0.9692    2.1769 O   0  0  0  0  0  0  0  0  0  0  0  0
    3.1226    1.2728    0.5485 N   0  0  0  0  0  0  0  0  0  0  0  0
    2.2938    2.3088    0.9445 C   0  0  0  0  0  0  0  0  0  0  0  0
    1.1489    2.4197    0.5467 O   0  0  0  0  0  0  0  0  0  0  0  0
    2.8102    3.3031    1.9958 C   0  0  0  0  0  0  0  0  0  0  0  0
    3.3485    2.6422    3.1642 N   0  0  0  0  0  0  0  0  0  0  0  0
    2.7847    1.4984    3.6678 N   0  0  0  0  0  0  0  0  0  0  0  0
    3.4680    1.2295    4.7414 C   0  0  0  0  0  0  0  0  0  0  0  0
    4.4536    2.1505    4.9705 N   0  0  0  0  0  0  0  0  0  0  0  0
    5.4196    2.1995    6.0498 C   0  0  0  0  0  0  0  0  0  0  0  0
    4.4053    3.0969    3.9311 C   0  0  0  0  0  0  0  0  0  0  0  0
    5.1247    4.0603    3.7583 O   0  0  0  0  0  0  0  0  0  0  0  0
    4.5317    1.2156    0.8582 C   0  0  1  0  0  0  0  0  0  0  0  0
    5.5670    1.1026   -0.2404 C   0  0  0  0  0  0  0  0  0  0  0  0
    5.4484    2.3736    0.5468 C   0  0  0  0  0  0  0  0  0  0  0  0
    2.1175   -0.9818   -1.8730 H   0  0  0  0  0  0  0  0  0  0  0  0
    3.8190   -0.5839   -1.6242 H   0  0  0  0  0  0  0  0  0  0  0  0
    2.6609    0.7032   -2.1050 H   0  0  0  0  0  0  0  0  0  0  0  0
    1.3899    0.3266    0.0193 H   0  0  0  0  0  0  0  0  0  0  0  0
    2.4750   -0.0355    2.4503 H   0  0  0  0  0  0  0  0  0  0  0  0
    1.9361    3.9179    2.2586 H   0  0  0  0  0  0  0  0  0  0  0  0
    3.5971    3.9677    1.6145 H   0  0  0  0  0  0  0  0  0  0  0  0
    3.2894    0.3600    5.3733 H   0  0  0  0  0  0  0  0  0  0  0  0
    4.9176    2.2770    7.0264 H   0  0  0  0  0  0  0  0  0  0  0  0
    6.0372    3.0943    5.8926 H   0  0  0  0  0  0  0  0  0  0  0  0
    6.0677    1.3095    6.0437 H   0  0  0  0  0  0  0  0  0  0  0  0
    4.7714    0.6486    1.7664 H   0  0  0  0  0  0  0  0  0  0  0  0
    5.2245    1.1325   -1.2753 H   0  0  0  0  0  0  0  0  0  0  0  0
    6.4115    0.4324   -0.0600 H   0  0  0  0  0  0  0  0  0  0  0  0
    5.0202    3.2296    0.0195 H   0  0  0  0  0  0  0  0  0  0  0  0
    6.2031    2.6417    1.2903 H   0  0  0  0  0  0  0  0  0  0  0  0
  1  2  1  0
  1 20  1  0
  1 21  1  0
  1 22  1  0
  2  3  1  0
  2  6  1  0
  2 23  1  6
  3  4  2  0
  3  5  1  0
  5 24  1  0
  6  7  1  0
  6 17  1  0
  7  8  2  0
  7  9  1  0
  9 10  1  0
  9 25  1  0
  9 26  1  0
 10 11  1  0
 10 15  1  0
 11 12  2  0
 12 13  1  0
 12 27  1  0
 13 14  1  0
 13 15  1  0
 14 28  1  0
 14 29  1  0
 14 30  1  0
 15 16  2  0
 17 18  1  0
 17 19  1  0
 17 31  1  1
 18 19  1  0
 18 32  1  0
 18 33  1  0
 19 34  1  0
 19 35  1  0
M  END

