
     RDKit          3D

 35 36  0  0  0  0  0  0  0  0999 V2000
    2.0155    3.3587   -2.3500 C   0  0  0  0  0  0  0  0  0  0  0  0
    1.5765    2.1686   -1.4802 C   0  0  1  0  0  0  0  0  0  0  0  0
    0.0925    1.8307   -1.7012 C   0  0  0  0  0  0  0  0  0  0  0  0
    2.4511    0.9625   -1.7371 C   0  0  0  0  0  0  0  0  0  0  0  0
    3.2571    0.3376   -0.8232 C   0  0  0  0  0  0  0  0  0  0  0  0
    4.1008   -1.0013   -1.5506 S   0  0  0  0  0  0  0  0  0  0  0  0
    3.2633   -0.6282   -3.0506 C   0  0  0  0  0  0  0  0  0  0  0  0
    3.4969   -1.3074   -4.2422 N   0  0  0  0  0  0  0  0  0  0  0  0
    3.7882   -2.9738   -4.4048 S   0  0  1  0  0  0  0  0  0  0  0  0
    4.0948   -3.1429   -5.8201 O   0  0  0  0  0  0  0  0  0  0  0  0
    4.7150   -3.3178   -3.3304 O   0  0  0  0  0  0  0  0  0  0  0  0
    2.2251   -3.7886   -4.0726 C   0  0  0  0  0  0  0  0  0  0  0  0
    1.3397   -4.0166   -5.1315 C   0  0  0  0  0  0  0  0  0  0  0  0
    0.1152   -4.6278   -4.8679 C   0  0  0  0  0  0  0  0  0  0  0  0
   -0.2309   -5.0131   -3.5612 C   0  0  0  0  0  0  0  0  0  0  0  0
   -1.5491   -5.6676   -3.2867 C   0  0  0  0  0  0  0  0  0  0  0  0
   -1.4475   -7.6460   -3.4569 Br  0  0  0  0  0  0  0  0  0  0  0  0
    0.6834   -4.7863   -2.5194 C   0  0  0  0  0  0  0  0  0  0  0  0
    1.9139   -4.1775   -2.7659 C   0  0  0  0  0  0  0  0  0  0  0  0
    2.4622    0.3936   -2.9943 N   0  0  0  0  0  0  0  0  0  0  0  0
    1.3829    4.2398   -2.1551 H   0  0  0  0  0  0  0  0  0  0  0  0
    1.9334    3.1049   -3.4185 H   0  0  0  0  0  0  0  0  0  0  0  0
    3.0619    3.6372   -2.1489 H   0  0  0  0  0  0  0  0  0  0  0  0
    1.7145    2.4451   -0.4208 H   0  0  0  0  0  0  0  0  0  0  0  0
   -0.0770    1.5064   -2.7400 H   0  0  0  0  0  0  0  0  0  0  0  0
   -0.5422    2.7103   -1.5065 H   0  0  0  0  0  0  0  0  0  0  0  0
   -0.2366    1.0173   -1.0354 H   0  0  0  0  0  0  0  0  0  0  0  0
    3.3932    0.5745    0.2305 H   0  0  0  0  0  0  0  0  0  0  0  0
    3.0355   -0.8909   -5.0497 H   0  0  0  0  0  0  0  0  0  0  0  0
    1.6201   -3.7309   -6.1469 H   0  0  0  0  0  0  0  0  0  0  0  0
   -0.5801   -4.8178   -5.6896 H   0  0  0  0  0  0  0  0  0  0  0  0
   -2.3229   -5.3612   -3.9998 H   0  0  0  0  0  0  0  0  0  0  0  0
   -1.8979   -5.4883   -2.2633 H   0  0  0  0  0  0  0  0  0  0  0  0
    0.4322   -5.0985   -1.5024 H   0  0  0  0  0  0  0  0  0  0  0  0
    2.6320   -4.0131   -1.9615 H   0  0  0  0  0  0  0  0  0  0  0  0
  1  2  1  0
  1 21  1  0
  1 22  1  0
  1 23  1  0
  2  3  1  0
  2  4  1  0
  2 24  1  1
  3 25  1  0
  3 26  1  0
  3 27  1  0
  4  5  2  0
  4 20  1  0
  5  6  1  0
  5 28  1  0
  6  7  1  0
  7  8  1  0
  7 20  2  0
  9  8  1  6
  8 29  1  0
  9 10  2  0
  9 11  2  0
  9 12  1  0
 12 13  2  0
 12 19  1  0
 13 14  1  0
 13 30  1  0
 14 15  2  0
 14 31  1  0
 15 16  1  0
 15 18  1  0
 16 17  1  0
 16 32  1  0
 16 33  1  0
 18 19  2  0
 18 34  1  0
 19 35  1  0
M  END

