
     RDKit          3D

 28 27  0  0  0  0  0  0  0  0999 V2000
    0.9088    0.0023    0.1086 C   0  0  0  0  0  0  0  0  0  0  0  0
    2.3520   -0.1219    0.1624 N   0  0  0  0  0  0  0  0  0  0  0  0
    2.8019   -0.5858    1.4622 C   0  0  0  0  0  0  0  0  0  0  0  0
    2.8787   -0.9018   -0.9508 C   0  0  0  0  0  0  0  0  0  0  0  0
    4.3992   -0.7722   -1.1087 C   0  0  0  0  0  0  0  0  0  0  0  0
    4.9833   -1.2537   -2.4613 C   0  0  1  0  0  0  0  0  0  0  0  0
    4.5827   -2.7050   -2.7824 C   0  0  0  0  0  0  0  0  0  0  0  0
    4.5964   -0.3070   -3.5233 N   0  0  0  0  0  0  0  0  0  0  0  0
    6.5301   -1.2198   -2.2757 C   0  0  0  0  0  0  0  0  0  0  0  0
    7.1411   -0.1637   -2.8632 N   0  0  0  0  0  0  0  0  0  0  0  0
    7.1095   -2.0730   -1.6237 O   0  0  0  0  0  0  0  0  0  0  0  0
    0.5566    0.6678    0.9130 H   0  0  0  0  0  0  0  0  0  0  0  0
    0.3740   -0.9707    0.2210 H   0  0  0  0  0  0  0  0  0  0  0  0
    0.5986    0.4436   -0.8524 H   0  0  0  0  0  0  0  0  0  0  0  0
    2.4159    0.0806    2.2497 H   0  0  0  0  0  0  0  0  0  0  0  0
    3.8993   -0.5715    1.5277 H   0  0  0  0  0  0  0  0  0  0  0  0
    2.4613   -1.6216    1.6994 H   0  0  0  0  0  0  0  0  0  0  0  0
    2.3774   -0.5328   -1.8630 H   0  0  0  0  0  0  0  0  0  0  0  0
    2.5946   -1.9766   -0.8633 H   0  0  0  0  0  0  0  0  0  0  0  0
    4.9148   -1.3380   -0.3191 H   0  0  0  0  0  0  0  0  0  0  0  0
    4.6671    0.2895   -0.9770 H   0  0  0  0  0  0  0  0  0  0  0  0
    3.4930   -2.7974   -2.9072 H   0  0  0  0  0  0  0  0  0  0  0  0
    4.9150   -3.3863   -1.9871 H   0  0  0  0  0  0  0  0  0  0  0  0
    5.0614   -3.0356   -3.7192 H   0  0  0  0  0  0  0  0  0  0  0  0
    3.6299   -0.0056   -3.4097 H   0  0  0  0  0  0  0  0  0  0  0  0
    4.6494   -0.7578   -4.4377 H   0  0  0  0  0  0  0  0  0  0  0  0
    6.5603    0.5081   -3.3548 H   0  0  0  0  0  0  0  0  0  0  0  0
    8.1375   -0.0364   -2.7387 H   0  0  0  0  0  0  0  0  0  0  0  0
  1  2  1  0
  1 12  1  0
  1 13  1  0
  1 14  1  0
  2  3  1  0
  2  4  1  0
  3 15  1  0
  3 16  1  0
  3 17  1  0
  4  5  1  0
  4 18  1  0
  4 19  1  0
  5  6  1  0
  5 20  1  0
  5 21  1  0
  6  7  1  0
  6  8  1  0
  6  9  1  1
  7 22  1  0
  7 23  1  0
  7 24  1  0
  8 25  1  0
  8 26  1  0
  9 10  1  0
  9 11  2  0
 10 27  1  0
 10 28  1  0
M  END

