
     RDKit          3D

 24 25  0  0  0  0  0  0  0  0999 V2000
    1.0994    0.3054    0.6635 N   0  0  0  0  0  0  0  0  0  0  0  0
    2.4268    0.2447    0.4853 C   0  0  0  0  0  0  0  0  0  0  0  0
    3.2055    1.2901    0.5630 N   0  0  0  0  0  0  0  0  0  0  0  0
    4.5423    1.0837    0.3483 C   0  0  0  0  0  0  0  0  0  0  0  0
    5.3085    2.2373    0.4708 N   0  0  0  0  0  0  0  0  0  0  0  0
    6.6825    2.3311    0.2278 C   0  0  0  0  0  0  0  0  0  0  0  0
    7.1758    3.1860   -0.7831 C   0  0  0  0  0  0  0  0  0  0  0  0
    6.0302    4.0969   -1.7489 Cl  0  0  0  0  0  0  0  0  0  0  0  0
    8.5390    3.3369   -1.0359 C   0  0  0  0  0  0  0  0  0  0  0  0
    9.4576    2.6093   -0.2787 C   0  0  0  0  0  0  0  0  0  0  0  0
    9.0124    1.7672    0.7408 C   0  0  0  0  0  0  0  0  0  0  0  0
    7.6460    1.6468    1.0030 C   0  0  0  0  0  0  0  0  0  0  0  0
    7.1486    0.6872    2.3698 Cl  0  0  0  0  0  0  0  0  0  0  0  0
    5.1222   -0.0436    0.0427 N   0  0  0  0  0  0  0  0  0  0  0  0
    4.2877   -1.1185   -0.0024 N   0  0  0  0  0  0  0  0  0  0  0  0
    4.7370   -2.0050   -0.2172 H   0  0  0  0  0  0  0  0  0  0  0  0
    2.9420   -1.1286    0.1927 C   0  0  0  0  0  0  0  0  0  0  0  0
    2.2224   -2.1203    0.1360 O   0  0  0  0  0  0  0  0  0  0  0  0
    0.6467    1.1855    0.8708 H   0  0  0  0  0  0  0  0  0  0  0  0
    0.5791   -0.5618    0.5894 H   0  0  0  0  0  0  0  0  0  0  0  0
    4.7689    3.0785    0.2940 H   0  0  0  0  0  0  0  0  0  0  0  0
    8.8647    4.0108   -1.8292 H   0  0  0  0  0  0  0  0  0  0  0  0
   10.5273    2.7089   -0.4756 H   0  0  0  0  0  0  0  0  0  0  0  0
    9.7182    1.2131    1.3611 H   0  0  0  0  0  0  0  0  0  0  0  0
  1  2  1  0
  1 19  1  0
  1 20  1  0
  2  3  2  0
  2 17  1  0
  3  4  1  0
  4  5  1  0
  4 14  2  0
  5  6  1  0
  5 21  1  0
  6  7  2  0
  6 12  1  0
  7  8  1  0
  7  9  1  0
  9 10  2  0
  9 22  1  0
 10 11  1  0
 10 23  1  0
 11 12  2  0
 11 24  1  0
 12 13  1  0
 14 15  1  0
 15 16  1  0
 15 17  1  0
 17 18  2  0
M  END

