
     RDKit          3D

 48 49  0  0  0  0  0  0  0  0999 V2000
    1.2888    0.6131    0.9656 C   0  0  0  0  0  0  0  0  0  0  0  0
    2.6693    0.4105    0.7651 O   0  0  0  0  0  0  0  0  0  0  0  0
    3.2156   -0.7954    1.0744 C   0  0  0  0  0  0  0  0  0  0  0  0
    2.5070   -1.8727    1.6240 C   0  0  0  0  0  0  0  0  0  0  0  0
    3.1458   -3.0911    1.8804 C   0  0  0  0  0  0  0  0  0  0  0  0
    4.5043   -3.2672    1.5943 C   0  0  0  0  0  0  0  0  0  0  0  0
    5.2139   -4.5762    1.9263 C   0  0  1  0  0  0  0  0  0  0  0  0
    5.5409   -4.6234    3.4436 C   0  0  0  0  0  0  0  0  0  0  0  0
    6.2811   -3.4610    3.8931 N   0  0  0  0  0  0  0  0  0  0  0  0
    7.6473   -3.4621    3.9680 C   0  0  0  0  0  0  0  0  0  0  0  0
    8.3357   -4.4489    3.7840 O   0  0  0  0  0  0  0  0  0  0  0  0
    8.2429   -2.1262    4.3578 C   0  0  0  0  0  0  0  0  0  0  0  0
    7.9141   -1.5439    5.5911 C   0  0  0  0  0  0  0  0  0  0  0  0
    8.4991   -0.3518    6.0201 C   0  0  0  0  0  0  0  0  0  0  0  0
    9.4260    0.2812    5.1885 C   0  0  0  0  0  0  0  0  0  0  0  0
   10.1710    1.7754    5.6993 Cl  0  0  0  0  0  0  0  0  0  0  0  0
    9.7639   -0.2599    3.9456 C   0  0  0  0  0  0  0  0  0  0  0  0
    9.1726   -1.4598    3.5413 C   0  0  0  0  0  0  0  0  0  0  0  0
    9.5831   -2.0835    1.9625 Cl  0  0  0  0  0  0  0  0  0  0  0  0
    4.4090   -5.7322    1.5170 N   0  0  0  0  0  0  0  0  0  0  0  0
    4.2025   -5.7691    0.0763 C   0  0  0  0  0  0  0  0  0  0  0  0
    4.8915   -7.0194    1.9943 C   0  0  0  0  0  0  0  0  0  0  0  0
    5.2123   -2.1812    1.0555 C   0  0  0  0  0  0  0  0  0  0  0  0
    4.5953   -0.9561    0.7931 C   0  0  0  0  0  0  0  0  0  0  0  0
    5.3282    0.0315    0.2012 O   0  0  0  0  0  0  0  0  0  0  0  0
    5.5391    1.2280    0.9351 C   0  0  0  0  0  0  0  0  0  0  0  0
    1.0706    1.6358    0.6296 H   0  0  0  0  0  0  0  0  0  0  0  0
    1.0072    0.5190    2.0302 H   0  0  0  0  0  0  0  0  0  0  0  0
    0.6809   -0.0951    0.3744 H   0  0  0  0  0  0  0  0  0  0  0  0
    1.4432   -1.7749    1.8426 H   0  0  0  0  0  0  0  0  0  0  0  0
    2.5741   -3.9299    2.2835 H   0  0  0  0  0  0  0  0  0  0  0  0
    6.1965   -4.5736    1.4007 H   0  0  0  0  0  0  0  0  0  0  0  0
    6.1725   -5.4905    3.6700 H   0  0  0  0  0  0  0  0  0  0  0  0
    4.6026   -4.7093    4.0162 H   0  0  0  0  0  0  0  0  0  0  0  0
    5.8079   -2.5643    3.8929 H   0  0  0  0  0  0  0  0  0  0  0  0
    7.1931   -2.0500    6.2379 H   0  0  0  0  0  0  0  0  0  0  0  0
    8.2449    0.0833    6.9875 H   0  0  0  0  0  0  0  0  0  0  0  0
   10.4755    0.2468    3.2941 H   0  0  0  0  0  0  0  0  0  0  0  0
    3.7673   -4.8249   -0.2785 H   0  0  0  0  0  0  0  0  0  0  0  0
    3.5040   -6.5816   -0.1785 H   0  0  0  0  0  0  0  0  0  0  0  0
    5.1456   -5.9421   -0.4911 H   0  0  0  0  0  0  0  0  0  0  0  0
    4.8596   -7.0867    3.0906 H   0  0  0  0  0  0  0  0  0  0  0  0
    5.9299   -7.2529    1.6653 H   0  0  0  0  0  0  0  0  0  0  0  0
    4.2356   -7.8131    1.6048 H   0  0  0  0  0  0  0  0  0  0  0  0
    6.2750   -2.2666    0.8151 H   0  0  0  0  0  0  0  0  0  0  0  0
    6.1927    1.8624    0.3201 H   0  0  0  0  0  0  0  0  0  0  0  0
    6.0477    1.0219    1.8951 H   0  0  0  0  0  0  0  0  0  0  0  0
    4.5965    1.7624    1.1318 H   0  0  0  0  0  0  0  0  0  0  0  0
  1  2  1  0
  1 27  1  0
  1 28  1  0
  1 29  1  0
  2  3  1  0
  3  4  2  0
  3 24  1  0
  4  5  1  0
  4 30  1  0
  5  6  2  0
  5 31  1  0
  6  7  1  0
  6 23  1  0
  7  8  1  0
  7 20  1  0
  7 32  1  6
  8  9  1  0
  8 33  1  0
  8 34  1  0
  9 10  1  0
  9 35  1  0
 10 11  2  0
 10 12  1  0
 12 13  2  0
 12 18  1  0
 13 14  1  0
 13 36  1  0
 14 15  2  0
 14 37  1  0
 15 16  1  0
 15 17  1  0
 17 18  2  0
 17 38  1  0
 18 19  1  0
 20 21  1  0
 20 22  1  0
 21 39  1  0
 21 40  1  0
 21 41  1  0
 22 42  1  0
 22 43  1  0
 22 44  1  0
 23 24  2  0
 23 45  1  0
 24 25  1  0
 25 26  1  0
 26 46  1  0
 26 47  1  0
 26 48  1  0
M  END

