
     RDKit          3D

 32 33  0  0  0  0  0  0  0  0999 V2000
    5.4974    2.0667   -0.2850 C   0  0  0  0  0  0  0  0  0  0  0  0
    4.6215    0.8403   -0.1808 C   0  0  0  0  0  0  0  0  0  0  0  0
    3.2508    0.9422    0.0996 C   0  0  0  0  0  0  0  0  0  0  0  0
    2.4630   -0.2093    0.1808 C   0  0  0  0  0  0  0  0  0  0  0  0
    3.0073   -1.4796   -0.0111 C   0  0  0  0  0  0  0  0  0  0  0  0
    4.3819   -1.5967   -0.2919 C   0  0  0  0  0  0  0  0  0  0  0  0
    5.0324   -2.8249   -0.5004 N   0  0  0  0  0  0  0  0  0  0  0  0
    4.5111   -4.0932   -0.4711 C   0  0  0  0  0  0  0  0  0  0  0  0
    3.3331   -4.3605   -0.2521 O   0  0  0  0  0  0  0  0  0  0  0  0
    5.5253   -5.1448   -0.7349 C   0  0  0  0  0  0  0  0  0  0  0  0
    5.3173   -6.5160   -0.7763 C   0  0  0  0  0  0  0  0  0  0  0  0
    4.0688   -7.2994   -0.5353 C   0  0  0  0  0  0  0  0  0  0  0  0
    6.4814   -7.1199   -1.1004 N   0  0  0  0  0  0  0  0  0  0  0  0
    6.9296   -8.4830   -0.9918 C   0  0  0  0  0  0  0  0  0  0  0  0
    7.4969   -6.1888   -1.2138 O   0  0  0  0  0  0  0  0  0  0  0  0
    6.9272   -4.9210   -1.0101 C   0  0  0  0  0  0  0  0  0  0  0  0
    7.6123   -3.9264   -1.0921 O   0  0  0  0  0  0  0  0  0  0  0  0
    5.1693   -0.4340   -0.3725 C   0  0  0  0  0  0  0  0  0  0  0  0
    4.9450    2.9800   -0.0192 H   0  0  0  0  0  0  0  0  0  0  0  0
    5.8847    2.1963   -1.3100 H   0  0  0  0  0  0  0  0  0  0  0  0
    6.3725    1.9946    0.3819 H   0  0  0  0  0  0  0  0  0  0  0  0
    2.8005    1.9264    0.2546 H   0  0  0  0  0  0  0  0  0  0  0  0
    1.3955   -0.1191    0.4003 H   0  0  0  0  0  0  0  0  0  0  0  0
    2.3953   -2.3755    0.0527 H   0  0  0  0  0  0  0  0  0  0  0  0
    6.0336   -2.7730   -0.7001 H   0  0  0  0  0  0  0  0  0  0  0  0
    3.2459   -6.5930   -0.3748 H   0  0  0  0  0  0  0  0  0  0  0  0
    4.1729   -7.9395    0.3565 H   0  0  0  0  0  0  0  0  0  0  0  0
    3.8371   -7.9484   -1.3949 H   0  0  0  0  0  0  0  0  0  0  0  0
    6.0509   -9.1399   -1.0102 H   0  0  0  0  0  0  0  0  0  0  0  0
    7.4921   -8.6503   -0.0567 H   0  0  0  0  0  0  0  0  0  0  0  0
    7.5753   -8.7281   -1.8479 H   0  0  0  0  0  0  0  0  0  0  0  0
    6.2380   -0.5318   -0.5902 H   0  0  0  0  0  0  0  0  0  0  0  0
  1  2  1  0
  1 19  1  0
  1 20  1  0
  1 21  1  0
  2  3  2  0
  2 18  1  0
  3  4  1  0
  3 22  1  0
  4  5  2  0
  4 23  1  0
  5  6  1  0
  5 24  1  0
  6  7  1  0
  6 18  2  0
  7  8  1  0
  7 25  1  0
  8  9  2  0
  8 10  1  0
 10 11  2  0
 10 16  1  0
 11 12  1  0
 11 13  1  0
 12 26  1  0
 12 27  1  0
 12 28  1  0
 13 14  1  0
 13 15  1  0
 14 29  1  0
 14 30  1  0
 14 31  1  0
 15 16  1  0
 16 17  2  0
 18 32  1  0
M  END

