
     RDKit          3D

 31 31  0  0  0  0  0  0  0  0999 V2000
    1.0809   -0.2257    0.3779 C   0  0  0  0  0  0  0  0  0  0  0  0
    2.5850    0.0507    0.3641 C   0  0  0  0  0  0  0  0  0  0  0  0
    2.9924    1.1530   -0.6180 C   0  0  0  0  0  0  0  0  0  0  0  0
    4.5072    1.4327   -0.6308 C   0  0  0  0  0  0  0  0  0  0  0  0
    4.9086    2.5191   -1.6010 C   0  0  0  0  0  0  0  0  0  0  0  0
    4.9653    3.8640   -1.2042 C   0  0  0  0  0  0  0  0  0  0  0  0
    5.2979    4.8686   -2.1119 C   0  0  0  0  0  0  0  0  0  0  0  0
    5.5885    4.5702   -3.4576 C   0  0  0  0  0  0  0  0  0  0  0  0
    5.9339    5.6646   -4.3642 C   0  0  0  0  0  0  0  0  0  0  0  0
    6.2436    5.6002   -5.6752 C   0  0  0  0  0  0  0  0  0  0  0  0
    6.5672    6.8446   -6.4248 C   0  0  0  0  0  0  0  0  0  0  0  0
    6.5771    7.9497   -5.9452 O   0  0  0  0  0  0  0  0  0  0  0  0
    6.8658    6.6715   -7.7374 O   0  0  0  0  0  0  0  0  0  0  0  0
    5.5326    3.2177   -3.8544 C   0  0  0  0  0  0  0  0  0  0  0  0
    5.1999    2.2190   -2.9450 C   0  0  0  0  0  0  0  0  0  0  0  0
    0.8232   -1.0226    1.0935 H   0  0  0  0  0  0  0  0  0  0  0  0
    0.7221   -0.5421   -0.6159 H   0  0  0  0  0  0  0  0  0  0  0  0
    0.5103    0.6742    0.6622 H   0  0  0  0  0  0  0  0  0  0  0  0
    3.1297   -0.8780    0.1137 H   0  0  0  0  0  0  0  0  0  0  0  0
    2.9195    0.3283    1.3803 H   0  0  0  0  0  0  0  0  0  0  0  0
    2.4550    2.0865   -0.3719 H   0  0  0  0  0  0  0  0  0  0  0  0
    2.6664    0.8799   -1.6379 H   0  0  0  0  0  0  0  0  0  0  0  0
    5.0417    0.5002   -0.8814 H   0  0  0  0  0  0  0  0  0  0  0  0
    4.8289    1.7121    0.3871 H   0  0  0  0  0  0  0  0  0  0  0  0
    4.7500    4.1280   -0.1648 H   0  0  0  0  0  0  0  0  0  0  0  0
    5.3390    5.9089   -1.7777 H   0  0  0  0  0  0  0  0  0  0  0  0
    5.9433    6.6698   -3.9272 H   0  0  0  0  0  0  0  0  0  0  0  0
    6.2635    4.6446   -6.2102 H   0  0  0  0  0  0  0  0  0  0  0  0
    6.8166    5.7354   -7.9749 H   0  0  0  0  0  0  0  0  0  0  0  0
    5.7561    2.9421   -4.8875 H   0  0  0  0  0  0  0  0  0  0  0  0
    5.1693    1.1779   -3.2795 H   0  0  0  0  0  0  0  0  0  0  0  0
  1  2  1  0
  1 16  1  0
  1 17  1  0
  1 18  1  0
  2  3  1  0
  2 19  1  0
  2 20  1  0
  3  4  1  0
  3 21  1  0
  3 22  1  0
  4  5  1  0
  4 23  1  0
  4 24  1  0
  5  6  2  0
  5 15  1  0
  6  7  1  0
  6 25  1  0
  7  8  2  0
  7 26  1  0
  8  9  1  0
  8 14  1  0
  9 10  2  0
  9 27  1  0
 10 11  1  0
 10 28  1  0
 11 12  2  0
 11 13  1  0
 13 29  1  0
 14 15  2  0
 14 30  1  0
 15 31  1  0
M  END

