
     RDKit          3D

 49 51  0  0  0  0  0  0  0  0999 V2000
    0.7858    0.4095   -0.9781 C   0  0  0  0  0  0  0  0  0  0  0  0
    2.1916    0.4946   -0.5834 N   0  0  0  0  0  0  0  0  0  0  0  0
    2.8484   -0.7031   -0.1972 C   0  0  0  0  0  0  0  0  0  0  0  0
    2.2505   -1.7651   -0.1896 O   0  0  0  0  0  0  0  0  0  0  0  0
    4.2668   -0.5720    0.1858 C   0  0  0  0  0  0  0  0  0  0  0  0
    4.9626   -1.8270    0.5834 C   0  0  0  0  0  0  0  0  0  0  0  0
    5.1018   -2.2070    1.9316 C   0  0  0  0  0  0  0  0  0  0  0  0
    4.4378   -1.1879    3.1909 Cl  0  0  0  0  0  0  0  0  0  0  0  0
    5.7488   -3.3864    2.3102 C   0  0  0  0  0  0  0  0  0  0  0  0
    6.2748   -4.2223    1.3255 C   0  0  0  0  0  0  0  0  0  0  0  0
    6.1561   -3.8861   -0.0234 C   0  0  0  0  0  0  0  0  0  0  0  0
    5.5059   -2.7017   -0.3772 C   0  0  0  0  0  0  0  0  0  0  0  0
    5.3725   -2.3023   -2.0745 Cl  0  0  0  0  0  0  0  0  0  0  0  0
    4.8856    0.6396    0.1745 C   0  0  0  0  0  0  0  0  0  0  0  0
    4.1815    1.8197   -0.2163 C   0  0  0  0  0  0  0  0  0  0  0  0
    4.7194    3.1161   -0.2649 C   0  0  0  0  0  0  0  0  0  0  0  0
    4.0309    4.1831   -0.6327 N   0  0  0  0  0  0  0  0  0  0  0  0
    2.7389    3.9718   -0.9784 C   0  0  0  0  0  0  0  0  0  0  0  0
    1.9980    5.0405   -1.3669 N   0  0  0  0  0  0  0  0  0  0  0  0
    2.4593    6.4125   -1.4783 C   0  0  0  0  0  0  0  0  0  0  0  0
    1.7870    7.3720   -0.4874 C   0  0  0  0  0  0  0  0  0  0  0  0
    2.0806    7.0692    0.9840 C   0  0  0  0  0  0  0  0  0  0  0  0
    1.3998    8.0453    1.9463 C   0  0  0  0  0  0  0  0  0  0  0  0
    1.6880    7.7423    3.4147 C   0  0  0  0  0  0  0  0  0  0  0  0
    1.0110    8.7093    4.3785 C   0  0  0  0  0  0  0  0  0  0  0  0
    0.3162    9.6290    4.0465 O   0  0  0  0  0  0  0  0  0  0  0  0
    1.2435    8.4686    5.6923 O   0  0  0  0  0  0  0  0  0  0  0  0
    2.1071    2.7844   -0.9746 N   0  0  0  0  0  0  0  0  0  0  0  0
    2.8128    1.7207   -0.5990 C   0  0  0  0  0  0  0  0  0  0  0  0
    0.4874   -0.6405   -0.8988 H   0  0  0  0  0  0  0  0  0  0  0  0
    0.6588    0.7710   -2.0083 H   0  0  0  0  0  0  0  0  0  0  0  0
    0.1676    1.0368   -0.3203 H   0  0  0  0  0  0  0  0  0  0  0  0
    5.8297   -3.6380    3.3683 H   0  0  0  0  0  0  0  0  0  0  0  0
    6.7807   -5.1474    1.6120 H   0  0  0  0  0  0  0  0  0  0  0  0
    6.5605   -4.5304   -0.8049 H   0  0  0  0  0  0  0  0  0  0  0  0
    5.9368    0.7232    0.4660 H   0  0  0  0  0  0  0  0  0  0  0  0
    5.7691    3.2738    0.0157 H   0  0  0  0  0  0  0  0  0  0  0  0
    1.0405    4.8191   -1.6169 H   0  0  0  0  0  0  0  0  0  0  0  0
    2.2812    6.7691   -2.5086 H   0  0  0  0  0  0  0  0  0  0  0  0
    3.5459    6.3958   -1.3198 H   0  0  0  0  0  0  0  0  0  0  0  0
    0.6938    7.3674   -0.6558 H   0  0  0  0  0  0  0  0  0  0  0  0
    2.1221    8.3961   -0.7306 H   0  0  0  0  0  0  0  0  0  0  0  0
    3.1737    7.0829    1.1463 H   0  0  0  0  0  0  0  0  0  0  0  0
    1.7570    6.0383    1.2139 H   0  0  0  0  0  0  0  0  0  0  0  0
    0.3081    8.0346    1.7896 H   0  0  0  0  0  0  0  0  0  0  0  0
    1.7163    9.0792    1.7286 H   0  0  0  0  0  0  0  0  0  0  0  0
    2.7763    7.7674    3.6126 H   0  0  0  0  0  0  0  0  0  0  0  0
    1.3630    6.7168    3.6731 H   0  0  0  0  0  0  0  0  0  0  0  0
    1.8179    7.6971    5.7999 H   0  0  0  0  0  0  0  0  0  0  0  0
  1  2  1  0
  1 30  1  0
  1 31  1  0
  1 32  1  0
  2  3  1  0
  2 29  1  0
  3  4  2  0
  3  5  1  0
  5  6  1  0
  5 14  2  0
  6  7  2  0
  6 12  1  0
  7  8  1  0
  7  9  1  0
  9 10  2  0
  9 33  1  0
 10 11  1  0
 10 34  1  0
 11 12  2  0
 11 35  1  0
 12 13  1  0
 14 15  1  0
 14 36  1  0
 15 16  1  0
 15 29  2  0
 16 17  2  0
 16 37  1  0
 17 18  1  0
 18 19  1  0
 18 28  2  0
 19 20  1  0
 19 38  1  0
 20 21  1  0
 20 39  1  0
 20 40  1  0
 21 22  1  0
 21 41  1  0
 21 42  1  0
 22 23  1  0
 22 43  1  0
 22 44  1  0
 23 24  1  0
 23 45  1  0
 23 46  1  0
 24 25  1  0
 24 47  1  0
 24 48  1  0
 25 26  2  0
 25 27  1  0
 27 49  1  0
 28 29  1  0
M  END

