
     RDKit          3D

 38 40  0  0  0  0  0  0  0  0999 V2000
    1.0604   -0.1596   -0.1498 C   0  0  0  0  0  0  0  0  0  0  0  0
    2.5905   -0.2287   -0.0396 C   0  0  1  0  0  0  0  0  0  0  0  0
    3.1214    1.1278    0.0125 N   0  0  0  0  0  0  0  0  0  0  0  0
    4.5729    1.3160    0.0745 C   0  0  1  0  0  0  0  0  0  0  0  0
    5.2535    0.8998   -1.2456 C   0  0  0  0  0  0  0  0  0  0  0  0
    4.8659    1.8076   -2.4198 C   0  0  0  0  0  0  0  0  0  0  0  0
    5.1608    3.2812   -2.1079 C   0  0  0  0  0  0  0  0  0  0  0  0
    4.4933    3.7238   -0.7989 C   0  0  0  0  0  0  0  0  0  0  0  0
    4.8759    2.7979    0.3646 C   0  0  0  0  0  0  0  0  0  0  0  0
    3.0126   -1.1516    1.1087 C   0  0  0  0  0  0  0  0  0  0  0  0
    3.4252   -2.4796    0.8452 C   0  0  0  0  0  0  0  0  0  0  0  0
    3.7717   -3.3689    1.7663 N   0  0  0  0  0  0  0  0  0  0  0  0
    3.7314   -2.9746    3.0488 C   0  0  0  0  0  0  0  0  0  0  0  0
    4.0706   -3.7854    4.1933 C   0  0  0  0  0  0  0  0  0  0  0  0
    3.9377   -3.1076    5.3657 C   0  0  0  0  0  0  0  0  0  0  0  0
    3.3984   -1.4534    5.1618 S   0  0  0  0  0  0  0  0  0  0  0  0
    3.3389   -1.6594    3.4264 C   0  0  0  0  0  0  0  0  0  0  0  0
    2.9761   -0.7375    2.4417 C   0  0  0  0  0  0  0  0  0  0  0  0
    0.7713    0.4554   -1.0155 H   0  0  0  0  0  0  0  0  0  0  0  0
    0.6224    0.2932    0.7563 H   0  0  0  0  0  0  0  0  0  0  0  0
    0.6238   -1.1635   -0.2608 H   0  0  0  0  0  0  0  0  0  0  0  0
    2.9623   -0.6948   -0.9680 H   0  0  0  0  0  0  0  0  0  0  0  0
    2.6608    1.6640    0.7463 H   0  0  0  0  0  0  0  0  0  0  0  0
    5.0232    0.7109    0.8902 H   0  0  0  0  0  0  0  0  0  0  0  0
    5.0304   -0.1543   -1.4792 H   0  0  0  0  0  0  0  0  0  0  0  0
    6.3457    0.9449   -1.0866 H   0  0  0  0  0  0  0  0  0  0  0  0
    3.7892    1.6883   -2.6281 H   0  0  0  0  0  0  0  0  0  0  0  0
    5.4033    1.4945   -3.3310 H   0  0  0  0  0  0  0  0  0  0  0  0
    4.8305    3.9241   -2.9414 H   0  0  0  0  0  0  0  0  0  0  0  0
    6.2550    3.4222   -2.0231 H   0  0  0  0  0  0  0  0  0  0  0  0
    3.3979    3.7119   -0.9281 H   0  0  0  0  0  0  0  0  0  0  0  0
    4.7728    4.7635   -0.5576 H   0  0  0  0  0  0  0  0  0  0  0  0
    4.3608    3.1074    1.2925 H   0  0  0  0  0  0  0  0  0  0  0  0
    5.9564    2.8919    0.5713 H   0  0  0  0  0  0  0  0  0  0  0  0
    3.4704   -2.8196   -0.1982 H   0  0  0  0  0  0  0  0  0  0  0  0
    4.3946   -4.8226    4.1079 H   0  0  0  0  0  0  0  0  0  0  0  0
    4.1252   -3.4777    6.3734 H   0  0  0  0  0  0  0  0  0  0  0  0
    2.6771    0.2810    2.7058 H   0  0  0  0  0  0  0  0  0  0  0  0
  1  2  1  0
  1 19  1  0
  1 20  1  0
  1 21  1  0
  2  3  1  0
  2 10  1  0
  2 22  1  6
  3  4  1  0
  3 23  1  0
  4  5  1  0
  4  9  1  0
  4 24  1  1
  5  6  1  0
  5 25  1  0
  5 26  1  0
  6  7  1  0
  6 27  1  0
  6 28  1  0
  7  8  1  0
  7 29  1  0
  7 30  1  0
  8  9  1  0
  8 31  1  0
  8 32  1  0
  9 33  1  0
  9 34  1  0
 10 11  2  0
 10 18  1  0
 11 12  1  0
 11 35  1  0
 12 13  2  0
 13 14  1  0
 13 17  1  0
 14 15  2  0
 14 36  1  0
 15 16  1  0
 15 37  1  0
 16 17  1  0
 17 18  2  0
 18 38  1  0
M  END

