
     RDKit          3D

 36 37  0  0  0  0  0  0  0  0999 V2000
    4.9218   -1.0823    2.1778 C   0  0  0  0  0  0  0  0  0  0  0  0
    4.1280   -0.4746    1.0203 C   0  0  1  0  0  0  0  0  0  0  0  0
    2.6197   -0.5393    1.2827 C   0  0  0  0  0  0  0  0  0  0  0  0
    4.5608    0.9083    0.8146 N   0  0  0  0  0  0  0  0  0  0  0  0
    4.1680    1.5226   -0.4527 C   0  0  0  0  0  0  0  0  0  0  0  0
    4.9562    2.7642   -0.7554 C   0  0  0  0  0  0  0  0  0  0  0  0
    4.6617    4.0932   -0.3560 C   0  0  0  0  0  0  0  0  0  0  0  0
    5.5570    4.9650   -0.8077 N   0  0  0  0  0  0  0  0  0  0  0  0
    6.4261    4.2247   -1.5030 N   0  0  0  0  0  0  0  0  0  0  0  0
    7.2464    4.6663   -1.9009 H   0  0  0  0  0  0  0  0  0  0  0  0
    6.1327    2.8884   -1.5048 C   0  0  0  0  0  0  0  0  0  0  0  0
    6.9539    1.9014   -2.2172 C   0  0  0  0  0  0  0  0  0  0  0  0
    7.6488    2.2341   -3.3984 C   0  0  0  0  0  0  0  0  0  0  0  0
    8.4333    1.2880   -4.0575 C   0  0  0  0  0  0  0  0  0  0  0  0
    8.5334   -0.0176   -3.5676 C   0  0  0  0  0  0  0  0  0  0  0  0
    7.8422   -0.3614   -2.4022 C   0  0  0  0  0  0  0  0  0  0  0  0
    7.8901   -1.7652   -1.8492 C   0  0  1  0  0  0  0  0  0  0  0  0
    8.8574   -2.5030   -2.4159 F   0  0  0  0  0  0  0  0  0  0  0  0
    8.1071   -1.7646   -0.5190 F   0  0  0  0  0  0  0  0  0  0  0  0
    6.7249   -2.4117   -2.0480 F   0  0  0  0  0  0  0  0  0  0  0  0
    7.0682    0.5884   -1.7310 C   0  0  0  0  0  0  0  0  0  0  0  0
    4.6049   -2.1187    2.3703 H   0  0  0  0  0  0  0  0  0  0  0  0
    4.7722   -0.4956    3.0988 H   0  0  0  0  0  0  0  0  0  0  0  0
    6.0016   -1.1025    1.9529 H   0  0  0  0  0  0  0  0  0  0  0  0
    4.3354   -1.0872    0.1106 H   0  0  0  0  0  0  0  0  0  0  0  0
    2.3635    0.0462    2.1807 H   0  0  0  0  0  0  0  0  0  0  0  0
    2.2957   -1.5810    1.4359 H   0  0  0  0  0  0  0  0  0  0  0  0
    2.0392   -0.1361    0.4382 H   0  0  0  0  0  0  0  0  0  0  0  0
    5.5649    0.9964    0.9543 H   0  0  0  0  0  0  0  0  0  0  0  0
    3.0984    1.7894   -0.4082 H   0  0  0  0  0  0  0  0  0  0  0  0
    4.2683    0.8143   -1.3055 H   0  0  0  0  0  0  0  0  0  0  0  0
    3.8173    4.4352    0.2428 H   0  0  0  0  0  0  0  0  0  0  0  0
    7.5545    3.2384   -3.8193 H   0  0  0  0  0  0  0  0  0  0  0  0
    8.9642    1.5663   -4.9709 H   0  0  0  0  0  0  0  0  0  0  0  0
    9.1429   -0.7612   -4.0829 H   0  0  0  0  0  0  0  0  0  0  0  0
    6.5697    0.3113   -0.8031 H   0  0  0  0  0  0  0  0  0  0  0  0
  1  2  1  0
  1 22  1  0
  1 23  1  0
  1 24  1  0
  2  3  1  0
  2  4  1  0
  2 25  1  6
  3 26  1  0
  3 27  1  0
  3 28  1  0
  4  5  1  0
  4 29  1  0
  5  6  1  0
  5 30  1  0
  5 31  1  0
  6  7  1  0
  6 11  2  0
  7  8  2  0
  7 32  1  0
  8  9  1  0
  9 10  1  0
  9 11  1  0
 11 12  1  0
 12 13  2  0
 12 21  1  0
 13 14  1  0
 13 33  1  0
 14 15  2  0
 14 34  1  0
 15 16  1  0
 15 35  1  0
 16 17  1  0
 16 21  2  0
 17 18  1  6
 17 19  1  0
 17 20  1  0
 21 36  1  0
M  END

