
     RDKit          3D

 46 46  0  0  0  0  0  0  0  0999 V2000
   20.2013   -2.1430    0.6108 C   0  0  0  0  0  0  0  0  0  0  0  0
   18.8183   -2.7605    0.8230 C   0  0  0  0  0  0  0  0  0  0  0  0
   18.1058   -3.1329   -0.4810 C   0  0  0  0  0  0  0  0  0  0  0  0
   16.7196   -3.7510   -0.2770 C   0  0  0  0  0  0  0  0  0  0  0  0
   16.0079   -4.1243   -1.5806 C   0  0  0  0  0  0  0  0  0  0  0  0
   14.6180   -4.7315   -1.3702 C   0  0  0  0  0  0  0  0  0  0  0  0
   13.9072   -5.1018   -2.6785 C   0  0  0  0  0  0  0  0  0  0  0  0
   12.5629   -5.7502   -2.4433 C   0  0  2  0  0  0  0  0  0  0  0  0
   12.6153   -6.7111   -1.9080 H   0  0  0  0  0  0  0  0  0  0  0  0
   11.6050   -5.7434   -3.5053 O   0  0  0  0  0  0  0  0  0  0  0  0
   11.2838   -5.0293   -2.3237 C   0  0  2  0  0  0  0  0  0  0  0  0
   10.4908   -5.4715   -1.7038 H   0  0  0  0  0  0  0  0  0  0  0  0
   11.1775   -3.5140   -2.4327 C   0  0  2  0  0  0  0  0  0  0  0  0
   11.9218   -3.1689   -3.1760 H   0  0  0  0  0  0  0  0  0  0  0  0
   11.4673   -2.9990   -1.1391 O   0  0  0  0  0  0  0  0  0  0  0  0
    9.8519   -3.1001   -2.9112 C   0  0  0  0  0  0  0  0  0  0  0  0
    8.7589   -2.7158   -3.2954 C   0  0  0  0  0  0  0  0  0  0  0  0
    7.5284   -2.2992   -3.7338 C   0  0  0  0  0  0  0  0  0  0  0  0
    6.4357   -1.9188   -4.1234 C   0  0  0  0  0  0  0  0  0  0  0  0
    5.1059   -1.5119   -4.6033 C   0  0  1  0  0  0  0  0  0  0  0  0
    5.0572   -1.7605   -5.6860 H   0  0  0  0  0  0  0  0  0  0  0  0
    4.0670   -2.1764   -3.8998 O   0  0  0  0  0  0  0  0  0  0  0  0
    4.8749   -0.0003   -4.4558 C   0  0  0  0  0  0  0  0  0  0  0  0
    3.5304    0.4498   -5.0247 C   0  0  0  0  0  0  0  0  0  0  0  0
   20.6833   -1.8884    1.5684 H   0  0  0  0  0  0  0  0  0  0  0  0
   20.1403   -1.2179    0.0132 H   0  0  0  0  0  0  0  0  0  0  0  0
   20.8720   -2.8358    0.0751 H   0  0  0  0  0  0  0  0  0  0  0  0
   18.1843   -2.0582    1.3945 H   0  0  0  0  0  0  0  0  0  0  0  0
   18.9100   -3.6621    1.4560 H   0  0  0  0  0  0  0  0  0  0  0  0
   18.7390   -3.8366   -1.0535 H   0  0  0  0  0  0  0  0  0  0  0  0
   18.0139   -2.2314   -1.1156 H   0  0  0  0  0  0  0  0  0  0  0  0
   16.0859   -3.0475    0.2943 H   0  0  0  0  0  0  0  0  0  0  0  0
   16.8118   -4.6517    0.3582 H   0  0  0  0  0  0  0  0  0  0  0  0
   16.6366   -4.8334   -2.1508 H   0  0  0  0  0  0  0  0  0  0  0  0
   15.9197   -3.2248   -2.2183 H   0  0  0  0  0  0  0  0  0  0  0  0
   13.9811   -4.0250   -0.8104 H   0  0  0  0  0  0  0  0  0  0  0  0
   14.7075   -5.6320   -0.7347 H   0  0  0  0  0  0  0  0  0  0  0  0
   14.5302   -5.8041   -3.2613 H   0  0  0  0  0  0  0  0  0  0  0  0
   13.7844   -4.2101   -3.3137 H   0  0  0  0  0  0  0  0  0  0  0  0
   11.2278   -2.0623   -1.1248 H   0  0  0  0  0  0  0  0  0  0  0  0
    4.2089   -3.1293   -3.9754 H   0  0  0  0  0  0  0  0  0  0  0  0
    5.7061    0.5237   -4.9555 H   0  0  0  0  0  0  0  0  0  0  0  0
    4.9402    0.2438   -3.3824 H   0  0  0  0  0  0  0  0  0  0  0  0
    3.4631    0.2440   -6.1062 H   0  0  0  0  0  0  0  0  0  0  0  0
    3.3870    1.5320   -4.8807 H   0  0  0  0  0  0  0  0  0  0  0  0
    2.7024   -0.0775   -4.5294 H   0  0  0  0  0  0  0  0  0  0  0  0
  1  2  1  0
  1 25  1  0
  1 26  1  0
  1 27  1  0
  2  3  1  0
  2 28  1  0
  2 29  1  0
  3  4  1  0
  3 30  1  0
  3 31  1  0
  4  5  1  0
  4 32  1  0
  4 33  1  0
  5  6  1  0
  5 34  1  0
  5 35  1  0
  6  7  1  0
  6 36  1  0
  6 37  1  0
  7  8  1  0
  7 38  1  0
  7 39  1  0
  8  9  1  1
  8 10  1  0
  8 11  1  0
 10 11  1  0
 11 12  1  1
 11 13  1  0
 13 14  1  6
 13 15  1  0
 13 16  1  0
 15 40  1  0
 16 17  3  0
 17 18  1  0
 18 19  3  0
 19 20  1  0
 20 21  1  6
 20 22  1  0
 20 23  1  0
 22 41  1  0
 23 24  1  0
 23 42  1  0
 23 43  1  0
 24 44  1  0
 24 45  1  0
 24 46  1  0
M  END

