
     RDKit          3D

 60 63  0  0  0  0  0  0  0  0999 V2000
    2.9582   -0.5696    1.3580 C   0  0  0  0  0  0  0  0  0  0  0  0
    2.1061   -0.4793    0.2234 O   0  0  0  0  0  0  0  0  0  0  0  0
    2.7141   -0.4035   -0.9980 C   0  0  0  0  0  0  0  0  0  0  0  0
    2.5977   -1.5171   -1.8558 C   0  0  0  0  0  0  0  0  0  0  0  0
    3.1529   -1.4905   -3.1327 C   0  0  0  0  0  0  0  0  0  0  0  0
    3.0767   -2.5181   -4.0180 N   0  0  0  0  0  0  0  0  0  0  0  0
    2.4193   -3.7772   -3.7708 C   0  0  0  0  0  0  0  0  0  0  0  0
    2.5157   -4.6951   -4.9890 C   0  0  0  0  0  0  0  0  0  0  0  0
    1.8407   -6.0512   -4.7672 C   0  0  0  0  0  0  0  0  0  0  0  0
    1.8124   -6.9820   -6.0062 C   0  0  1  0  0  0  0  0  0  0  0  0
    3.2185   -7.3887   -6.4643 C   0  0  0  0  0  0  0  0  0  0  0  0
    0.9479   -8.1920   -5.7529 C   0  0  0  0  0  0  0  0  0  0  0  0
    1.2633   -9.5229   -5.5247 C   0  0  0  0  0  0  0  0  0  0  0  0
    0.0441  -10.2318   -5.3037 C   0  0  0  0  0  0  0  0  0  0  0  0
   -0.9842   -9.3169   -5.4025 C   0  0  0  0  0  0  0  0  0  0  0  0
   -0.4247   -8.0899   -5.6715 N   0  0  0  0  0  0  0  0  0  0  0  0
   -0.9475   -7.2363   -5.8179 H   0  0  0  0  0  0  0  0  0  0  0  0
    3.8677   -0.3006   -3.5560 C   0  0  0  0  0  0  0  0  0  0  0  0
    4.4004   -0.3470   -4.7995 N   0  0  0  0  0  0  0  0  0  0  0  0
    5.0646    0.6982   -5.2415 C   0  0  0  0  0  0  0  0  0  0  0  0
    5.2487    1.8640   -4.4693 C   0  0  0  0  0  0  0  0  0  0  0  0
    4.7237    1.9647   -3.1901 C   0  0  0  0  0  0  0  0  0  0  0  0
    4.9612    3.2299   -2.4035 C   0  0  0  0  0  0  0  0  0  0  0  0
    3.9839    0.8371   -2.6853 C   0  0  0  0  0  0  0  0  0  0  0  0
    3.3703    0.7571   -1.3967 C   0  0  0  0  0  0  0  0  0  0  0  0
    3.4583    1.8122   -0.4983 O   0  0  0  0  0  0  0  0  0  0  0  0
    2.3783    2.6196   -0.2662 C   0  0  0  0  0  0  0  0  0  0  0  0
    2.5199    3.5691    0.7559 C   0  0  0  0  0  0  0  0  0  0  0  0
    1.4744    4.4430    1.0385 C   0  0  0  0  0  0  0  0  0  0  0  0
    0.2776    4.3886    0.3137 C   0  0  0  0  0  0  0  0  0  0  0  0
   -1.0098    5.4976    0.6993 Cl  0  0  0  0  0  0  0  0  0  0  0  0
    0.1449    3.4371   -0.7096 C   0  0  0  0  0  0  0  0  0  0  0  0
   -1.3210    3.3274   -1.6441 Cl  0  0  0  0  0  0  0  0  0  0  0  0
    1.1907    2.5549   -1.0010 C   0  0  0  0  0  0  0  0  0  0  0  0
    2.3044   -0.6429    2.2381 H   0  0  0  0  0  0  0  0  0  0  0  0
    3.6038    0.3179    1.4579 H   0  0  0  0  0  0  0  0  0  0  0  0
    3.5924   -1.4728    1.3052 H   0  0  0  0  0  0  0  0  0  0  0  0
    2.0564   -2.3843   -1.4796 H   0  0  0  0  0  0  0  0  0  0  0  0
    3.5492   -2.3421   -4.9006 H   0  0  0  0  0  0  0  0  0  0  0  0
    1.3534   -3.6112   -3.5143 H   0  0  0  0  0  0  0  0  0  0  0  0
    2.8660   -4.2829   -2.8905 H   0  0  0  0  0  0  0  0  0  0  0  0
    3.5814   -4.8325   -5.2393 H   0  0  0  0  0  0  0  0  0  0  0  0
    2.0548   -4.1867   -5.8559 H   0  0  0  0  0  0  0  0  0  0  0  0
    0.8025   -5.8794   -4.4322 H   0  0  0  0  0  0  0  0  0  0  0  0
    2.3354   -6.5884   -3.9383 H   0  0  0  0  0  0  0  0  0  0  0  0
    1.3460   -6.4076   -6.8316 H   0  0  0  0  0  0  0  0  0  0  0  0
    3.7586   -7.9155   -5.6604 H   0  0  0  0  0  0  0  0  0  0  0  0
    3.8187   -6.5125   -6.7507 H   0  0  0  0  0  0  0  0  0  0  0  0
    3.1699   -8.0617   -7.3333 H   0  0  0  0  0  0  0  0  0  0  0  0
    2.2658   -9.9451   -5.5186 H   0  0  0  0  0  0  0  0  0  0  0  0
   -0.0649  -11.2952   -5.0986 H   0  0  0  0  0  0  0  0  0  0  0  0
   -2.0613   -9.4396   -5.3119 H   0  0  0  0  0  0  0  0  0  0  0  0
    5.4861    0.6359   -6.2519 H   0  0  0  0  0  0  0  0  0  0  0  0
    5.8185    2.6973   -4.8879 H   0  0  0  0  0  0  0  0  0  0  0  0
    5.6134    3.9098   -2.9703 H   0  0  0  0  0  0  0  0  0  0  0  0
    5.4288    3.0231   -1.4305 H   0  0  0  0  0  0  0  0  0  0  0  0
    4.0205    3.7624   -2.1935 H   0  0  0  0  0  0  0  0  0  0  0  0
    3.4542    3.6095    1.3182 H   0  0  0  0  0  0  0  0  0  0  0  0
    1.5742    5.1846    1.8328 H   0  0  0  0  0  0  0  0  0  0  0  0
    1.0651    1.8204   -1.7952 H   0  0  0  0  0  0  0  0  0  0  0  0
  1  2  1  0
  1 35  1  0
  1 36  1  0
  1 37  1  0
  2  3  1  0
  3  4  2  0
  3 25  1  0
  4  5  1  0
  4 38  1  0
  5  6  1  0
  5 18  2  0
  6  7  1  0
  6 39  1  0
  7  8  1  0
  7 40  1  0
  7 41  1  0
  8  9  1  0
  8 42  1  0
  8 43  1  0
  9 10  1  0
  9 44  1  0
  9 45  1  0
 10 11  1  0
 10 12  1  0
 10 46  1  6
 11 47  1  0
 11 48  1  0
 11 49  1  0
 12 13  2  0
 12 16  1  0
 13 14  1  0
 13 50  1  0
 14 15  2  0
 14 51  1  0
 15 16  1  0
 15 52  1  0
 16 17  1  0
 18 19  1  0
 18 24  1  0
 19 20  2  0
 20 21  1  0
 20 53  1  0
 21 22  2  0
 21 54  1  0
 22 23  1  0
 22 24  1  0
 23 55  1  0
 23 56  1  0
 23 57  1  0
 24 25  2  0
 25 26  1  0
 26 27  1  0
 27 28  2  0
 27 34  1  0
 28 29  1  0
 28 58  1  0
 29 30  2  0
 29 59  1  0
 30 31  1  0
 30 32  1  0
 32 33  1  0
 32 34  2  0
 34 60  1  0
M  END

