
     RDKit          3D

 59 62  0  0  0  0  0  0  0  0999 V2000
    4.6859   -2.0196    5.7244 C   0  0  0  0  0  0  0  0  0  0  0  0
    5.6100   -1.7789    4.5551 C   0  0  0  0  0  0  0  0  0  0  0  0
    7.0055   -1.7255    4.7375 C   0  0  0  0  0  0  0  0  0  0  0  0
    7.8708   -1.5022    3.6724 C   0  0  0  0  0  0  0  0  0  0  0  0
    7.3615   -1.3240    2.3749 C   0  0  0  0  0  0  0  0  0  0  0  0
    8.2860   -1.1164    1.3899 O   0  0  0  0  0  0  0  0  0  0  0  0
    7.8434   -0.9129    0.0625 C   0  0  0  0  0  0  0  0  0  0  0  0
    9.0221   -0.5735   -0.8582 C   0  0  0  0  0  0  0  0  0  0  0  0
    8.9746    0.4488   -1.5247 O   0  0  0  0  0  0  0  0  0  0  0  0
   10.0807   -1.4422   -0.9171 N   0  0  0  0  0  0  0  0  0  0  0  0
   10.1511   -2.7533   -0.2897 C   0  0  0  0  0  0  0  0  0  0  0  0
   10.0505   -3.9085   -1.2865 C   0  0  0  0  0  0  0  0  0  0  0  0
   11.1331   -3.9745   -2.2059 O   0  0  0  0  0  0  0  0  0  0  0  0
   11.0880   -3.1536   -3.3094 C   0  0  0  0  0  0  0  0  0  0  0  0
   11.0772   -3.7487   -4.5757 C   0  0  0  0  0  0  0  0  0  0  0  0
   11.0619   -2.9570   -5.7237 C   0  0  0  0  0  0  0  0  0  0  0  0
   11.0460   -1.5576   -5.6274 C   0  0  0  0  0  0  0  0  0  0  0  0
   11.0712   -0.6907   -6.8763 C   0  0  0  0  0  0  0  0  0  0  0  0
   10.2438   -1.2118   -7.9553 N   0  0  0  0  0  0  0  0  0  0  0  0
    8.8007   -1.1079   -7.7338 C   0  0  0  0  0  0  0  0  0  0  0  0
    8.2296    0.2918   -8.0245 C   0  0  0  0  0  0  0  0  0  0  0  0
    8.6115    0.7523   -9.4387 C   0  0  0  0  0  0  0  0  0  0  0  0
   10.1263    0.6354   -9.6603 C   0  0  0  0  0  0  0  0  0  0  0  0
   10.6130   -0.7799   -9.3003 C   0  0  0  0  0  0  0  0  0  0  0  0
   11.0543   -0.9790   -4.3518 C   0  0  0  0  0  0  0  0  0  0  0  0
   11.0927   -1.7525   -3.1837 C   0  0  0  0  0  0  0  0  0  0  0  0
   11.1863   -1.1051   -1.8171 C   0  0  0  0  0  0  0  0  0  0  0  0
    5.9782   -1.3708    2.1682 C   0  0  0  0  0  0  0  0  0  0  0  0
    5.1239   -1.5972    3.2566 C   0  0  0  0  0  0  0  0  0  0  0  0
    4.9097   -2.9762    6.2261 H   0  0  0  0  0  0  0  0  0  0  0  0
    3.6328   -2.0474    5.4072 H   0  0  0  0  0  0  0  0  0  0  0  0
    4.7843   -1.2278    6.4863 H   0  0  0  0  0  0  0  0  0  0  0  0
    7.4226   -1.8609    5.7399 H   0  0  0  0  0  0  0  0  0  0  0  0
    8.9521   -1.4571    3.8187 H   0  0  0  0  0  0  0  0  0  0  0  0
    7.1631   -0.0498   -0.0040 H   0  0  0  0  0  0  0  0  0  0  0  0
    7.3066   -1.8058   -0.3163 H   0  0  0  0  0  0  0  0  0  0  0  0
    9.3629   -2.8526    0.4653 H   0  0  0  0  0  0  0  0  0  0  0  0
   11.1131   -2.8367    0.2471 H   0  0  0  0  0  0  0  0  0  0  0  0
    9.0918   -3.8563   -1.8352 H   0  0  0  0  0  0  0  0  0  0  0  0
   10.0736   -4.8577   -0.7273 H   0  0  0  0  0  0  0  0  0  0  0  0
   11.0822   -4.8392   -4.6365 H   0  0  0  0  0  0  0  0  0  0  0  0
   11.0395   -3.4162   -6.7145 H   0  0  0  0  0  0  0  0  0  0  0  0
   12.1091   -0.6552   -7.2535 H   0  0  0  0  0  0  0  0  0  0  0  0
   10.8269    0.3532   -6.5823 H   0  0  0  0  0  0  0  0  0  0  0  0
    8.5770   -1.4157   -6.7006 H   0  0  0  0  0  0  0  0  0  0  0  0
    8.3021   -1.8408   -8.3962 H   0  0  0  0  0  0  0  0  0  0  0  0
    8.6160    1.0138   -7.2829 H   0  0  0  0  0  0  0  0  0  0  0  0
    7.1333    0.2788   -7.8998 H   0  0  0  0  0  0  0  0  0  0  0  0
    8.2675    1.7844   -9.6204 H   0  0  0  0  0  0  0  0  0  0  0  0
    8.0900    0.1161  -10.1789 H   0  0  0  0  0  0  0  0  0  0  0  0
   10.6525    1.3794   -9.0350 H   0  0  0  0  0  0  0  0  0  0  0  0
   10.3879    0.8663  -10.7074 H   0  0  0  0  0  0  0  0  0  0  0  0
   11.7070   -0.8582   -9.4113 H   0  0  0  0  0  0  0  0  0  0  0  0
   10.1710   -1.4970  -10.0185 H   0  0  0  0  0  0  0  0  0  0  0  0
   11.0314    0.1107   -4.2541 H   0  0  0  0  0  0  0  0  0  0  0  0
   11.2060   -0.0147   -1.9254 H   0  0  0  0  0  0  0  0  0  0  0  0
   12.1199   -1.4275   -1.3242 H   0  0  0  0  0  0  0  0  0  0  0  0
    5.5496   -1.2320    1.1755 H   0  0  0  0  0  0  0  0  0  0  0  0
    4.0453   -1.6303    3.0772 H   0  0  0  0  0  0  0  0  0  0  0  0
  1  2  1  0
  1 30  1  0
  1 31  1  0
  1 32  1  0
  2  3  2  0
  2 29  1  0
  3  4  1  0
  3 33  1  0
  4  5  2  0
  4 34  1  0
  5  6  1  0
  5 28  1  0
  6  7  1  0
  7  8  1  0
  7 35  1  0
  7 36  1  0
  8  9  2  0
  8 10  1  0
 10 11  1  0
 10 27  1  0
 11 12  1  0
 11 37  1  0
 11 38  1  0
 12 13  1  0
 12 39  1  0
 12 40  1  0
 13 14  1  0
 14 15  1  0
 14 26  2  0
 15 16  2  0
 15 41  1  0
 16 17  1  0
 16 42  1  0
 17 18  1  0
 17 25  2  0
 18 19  1  0
 18 43  1  0
 18 44  1  0
 19 20  1  0
 19 24  1  0
 20 21  1  0
 20 45  1  0
 20 46  1  0
 21 22  1  0
 21 47  1  0
 21 48  1  0
 22 23  1  0
 22 49  1  0
 22 50  1  0
 23 24  1  0
 23 51  1  0
 23 52  1  0
 24 53  1  0
 24 54  1  0
 25 26  1  0
 25 55  1  0
 26 27  1  0
 27 56  1  0
 27 57  1  0
 28 29  2  0
 28 58  1  0
 29 59  1  0
M  END

