
     RDKit          3D

 53 55  0  0  0  0  0  0  0  0999 V2000
    6.6427   -2.9756    1.6783 C   0  0  0  0  0  0  0  0  0  0  0  0
    5.4626   -3.0158    1.0319 C   0  0  0  0  0  0  0  0  0  0  0  0
    5.1988   -4.0396   -0.0435 C   0  0  0  0  0  0  0  0  0  0  0  0
    4.4040   -2.0408    1.3873 C   0  0  0  0  0  0  0  0  0  0  0  0
    4.6000   -1.1789    2.3856 N   0  0  0  0  0  0  0  0  0  0  0  0
    3.4908   -0.4322    2.4739 N   0  0  0  0  0  0  0  0  0  0  0  0
    3.4128    0.5993    3.4888 C   0  0  0  0  0  0  0  0  0  0  0  0
    2.5376   -0.7574    1.5595 C   0  0  0  0  0  0  0  0  0  0  0  0
    1.3225   -0.0647    1.5360 N   0  0  0  0  0  0  0  0  0  0  0  0
    0.1339   -0.8274    1.9122 C   0  0  0  0  0  0  0  0  0  0  0  0
    1.1150    0.8392    0.4052 C   0  0  0  0  0  0  0  0  0  0  0  0
    3.1030   -1.8259    0.8109 C   0  0  0  0  0  0  0  0  0  0  0  0
    2.5996   -2.5456   -0.2508 N   0  0  0  0  0  0  0  0  0  0  0  0
    1.4575   -2.2185   -0.6755 N   0  0  0  0  0  0  0  0  0  0  0  0
    0.9777   -2.9923   -1.7488 C   0  0  0  0  0  0  0  0  0  0  0  0
    1.6210   -4.1345   -2.2532 C   0  0  0  0  0  0  0  0  0  0  0  0
    1.0665   -4.8435   -3.3148 C   0  0  0  0  0  0  0  0  0  0  0  0
    1.8939   -6.3228   -3.9247 S   0  0  1  0  0  0  0  0  0  0  0  0
    2.6414   -6.9058   -2.8007 O   0  0  0  0  0  0  0  0  0  0  0  0
    0.8928   -7.0961   -4.6773 O   0  0  0  0  0  0  0  0  0  0  0  0
    3.1126   -5.7262   -5.1188 C   0  0  0  0  0  0  0  0  0  0  0  0
    4.4174   -5.4686   -4.6893 C   0  0  0  0  0  0  0  0  0  0  0  0
    5.3600   -5.0235   -5.6201 C   0  0  0  0  0  0  0  0  0  0  0  0
    4.9965   -4.8508   -6.9599 C   0  0  0  0  0  0  0  0  0  0  0  0
    3.6909   -5.1306   -7.3787 C   0  0  0  0  0  0  0  0  0  0  0  0
    2.7396   -5.5761   -6.4575 C   0  0  0  0  0  0  0  0  0  0  0  0
   -0.1535   -4.4593   -3.8842 C   0  0  0  0  0  0  0  0  0  0  0  0
   -0.8038   -3.3326   -3.3888 C   0  0  0  0  0  0  0  0  0  0  0  0
   -0.2544   -2.5913   -2.3305 C   0  0  0  0  0  0  0  0  0  0  0  0
   -0.8684   -1.4948   -1.8374 O   0  0  0  0  0  0  0  0  0  0  0  0
    7.4355   -3.6887    1.4381 H   0  0  0  0  0  0  0  0  0  0  0  0
    6.8361   -2.2358    2.4570 H   0  0  0  0  0  0  0  0  0  0  0  0
    6.0738   -4.6939   -0.1681 H   0  0  0  0  0  0  0  0  0  0  0  0
    4.9722   -3.5618   -1.0092 H   0  0  0  0  0  0  0  0  0  0  0  0
    4.3254   -4.6655    0.1983 H   0  0  0  0  0  0  0  0  0  0  0  0
    3.5535    0.1506    4.4831 H   0  0  0  0  0  0  0  0  0  0  0  0
    2.4256    1.0706    3.4185 H   0  0  0  0  0  0  0  0  0  0  0  0
    4.2041    1.3458    3.3240 H   0  0  0  0  0  0  0  0  0  0  0  0
    0.3494   -1.4405    2.7999 H   0  0  0  0  0  0  0  0  0  0  0  0
   -0.2253   -1.4842    1.0993 H   0  0  0  0  0  0  0  0  0  0  0  0
   -0.6728   -0.1233    2.1772 H   0  0  0  0  0  0  0  0  0  0  0  0
    2.0332    1.4149    0.2147 H   0  0  0  0  0  0  0  0  0  0  0  0
    0.3166    1.5558    0.6624 H   0  0  0  0  0  0  0  0  0  0  0  0
    0.8253    0.3050   -0.5175 H   0  0  0  0  0  0  0  0  0  0  0  0
    2.5487   -4.4586   -1.7829 H   0  0  0  0  0  0  0  0  0  0  0  0
    4.6854   -5.6340   -3.6442 H   0  0  0  0  0  0  0  0  0  0  0  0
    6.3843   -4.8192   -5.2989 H   0  0  0  0  0  0  0  0  0  0  0  0
    5.7378   -4.5045   -7.6845 H   0  0  0  0  0  0  0  0  0  0  0  0
    3.4144   -5.0105   -8.4291 H   0  0  0  0  0  0  0  0  0  0  0  0
    1.7232   -5.8249   -6.7678 H   0  0  0  0  0  0  0  0  0  0  0  0
   -0.5891   -5.0535   -4.6889 H   0  0  0  0  0  0  0  0  0  0  0  0
   -1.7609   -3.0201   -3.8183 H   0  0  0  0  0  0  0  0  0  0  0  0
   -1.6950   -1.3470   -2.3169 H   0  0  0  0  0  0  0  0  0  0  0  0
  1  2  2  0
  1 31  1  0
  1 32  1  0
  2  3  1  0
  2  4  1  0
  3 33  1  0
  3 34  1  0
  3 35  1  0
  4  5  2  0
  4 12  1  0
  5  6  1  0
  6  7  1  0
  6  8  1  0
  7 36  1  0
  7 37  1  0
  7 38  1  0
  8  9  1  0
  8 12  2  0
  9 10  1  0
  9 11  1  0
 10 39  1  0
 10 40  1  0
 10 41  1  0
 11 42  1  0
 11 43  1  0
 11 44  1  0
 12 13  1  0
 13 14  2  0
 14 15  1  0
 15 16  2  0
 15 29  1  0
 16 17  1  0
 16 45  1  0
 18 17  1  1
 17 27  2  0
 18 19  2  0
 18 20  2  0
 18 21  1  0
 21 22  2  0
 21 26  1  0
 22 23  1  0
 22 46  1  0
 23 24  2  0
 23 47  1  0
 24 25  1  0
 24 48  1  0
 25 26  2  0
 25 49  1  0
 26 50  1  0
 27 28  1  0
 27 51  1  0
 28 29  2  0
 28 52  1  0
 29 30  1  0
 30 53  1  0
M  END

