
     RDKit          3D

 51 52  0  0  0  0  0  0  0  0999 V2000
    0.9268    8.7488   -5.7307 C   0  0  0  0  0  0  0  0  0  0  0  0
    2.4464    8.7763   -5.7527 C   0  0  0  0  0  0  0  0  0  0  0  0
    3.0432    9.1810   -6.7338 O   0  0  0  0  0  0  0  0  0  0  0  0
    3.1893    8.2957   -4.5453 C   0  0  0  0  0  0  0  0  0  0  0  0
    2.5558    7.8154   -3.3817 C   0  0  0  0  0  0  0  0  0  0  0  0
    3.2980    7.3815   -2.2908 C   0  0  0  0  0  0  0  0  0  0  0  0
    4.7050    7.4154   -2.3306 C   0  0  0  0  0  0  0  0  0  0  0  0
    5.3416    6.9730   -1.2244 O   0  0  0  0  0  0  0  0  0  0  0  0
    6.7616    6.9776   -1.1653 C   0  0  0  0  0  0  0  0  0  0  0  0
    7.1713    6.4323    0.1958 C   0  0  0  0  0  0  0  0  0  0  0  0
    8.6872    6.2915    0.3864 C   0  0  0  0  0  0  0  0  0  0  0  0
    9.4599    7.6189    0.4157 C   0  0  0  0  0  0  0  0  0  0  0  0
   10.9399    7.4927    0.7993 C   0  0  0  0  0  0  0  0  0  0  0  0
   11.7910    6.7413   -0.2169 C   0  0  0  0  0  0  0  0  0  0  0  0
   13.1328    6.7862    0.2169 O   0  0  0  0  0  0  0  0  0  0  0  0
   14.1033    6.1629   -0.5335 C   0  0  0  0  0  0  0  0  0  0  0  0
   13.8911    5.4836   -1.7300 C   0  0  0  0  0  0  0  0  0  0  0  0
   14.9527    4.8683   -2.4096 C   0  0  0  0  0  0  0  0  0  0  0  0
   16.2535    4.9276   -1.8890 C   0  0  0  0  0  0  0  0  0  0  0  0
   17.3336    4.3693   -2.5774 N   0  0  0  0  0  0  0  0  0  0  0  0
   16.4631    5.6154   -0.6773 C   0  0  0  0  0  0  0  0  0  0  0  0
   15.4134    6.2374    0.0090 C   0  0  0  0  0  0  0  0  0  0  0  0
   15.6136    6.9598    1.1746 N   0  0  0  0  0  0  0  0  0  0  0  0
    5.3522    7.8920   -3.4859 C   0  0  0  0  0  0  0  0  0  0  0  0
    4.5927    8.3233   -4.5713 C   0  0  0  0  0  0  0  0  0  0  0  0
    0.5548    9.1350   -6.6881 H   0  0  0  0  0  0  0  0  0  0  0  0
    0.5302    9.3665   -4.9086 H   0  0  0  0  0  0  0  0  0  0  0  0
    0.5510    7.7237   -5.5798 H   0  0  0  0  0  0  0  0  0  0  0  0
    1.4663    7.7774   -3.3210 H   0  0  0  0  0  0  0  0  0  0  0  0
    2.8155    7.0081   -1.3854 H   0  0  0  0  0  0  0  0  0  0  0  0
    7.1371    8.0055   -1.3187 H   0  0  0  0  0  0  0  0  0  0  0  0
    7.1764    6.3471   -1.9751 H   0  0  0  0  0  0  0  0  0  0  0  0
    6.6896    5.4484    0.3207 H   0  0  0  0  0  0  0  0  0  0  0  0
    6.7486    7.0867    0.9779 H   0  0  0  0  0  0  0  0  0  0  0  0
    9.0908    5.6319   -0.4030 H   0  0  0  0  0  0  0  0  0  0  0  0
    8.8659    5.7602    1.3376 H   0  0  0  0  0  0  0  0  0  0  0  0
    8.9706    8.2937    1.1400 H   0  0  0  0  0  0  0  0  0  0  0  0
    9.3846    8.1267   -0.5631 H   0  0  0  0  0  0  0  0  0  0  0  0
   11.0350    6.9917    1.7789 H   0  0  0  0  0  0  0  0  0  0  0  0
   11.3755    8.4985    0.9207 H   0  0  0  0  0  0  0  0  0  0  0  0
   11.6946    7.2107   -1.2168 H   0  0  0  0  0  0  0  0  0  0  0  0
   11.4607    5.6895   -0.3182 H   0  0  0  0  0  0  0  0  0  0  0  0
   12.8885    5.4176   -2.1546 H   0  0  0  0  0  0  0  0  0  0  0  0
   14.7620    4.3450   -3.3500 H   0  0  0  0  0  0  0  0  0  0  0  0
   17.0921    3.6285   -3.2267 H   0  0  0  0  0  0  0  0  0  0  0  0
   18.1306    4.1173   -2.0028 H   0  0  0  0  0  0  0  0  0  0  0  0
   17.4744    5.6822   -0.2641 H   0  0  0  0  0  0  0  0  0  0  0  0
   16.4298    6.7175    1.7226 H   0  0  0  0  0  0  0  0  0  0  0  0
   14.7765    7.1254    1.7212 H   0  0  0  0  0  0  0  0  0  0  0  0
    6.4400    7.9283   -3.5449 H   0  0  0  0  0  0  0  0  0  0  0  0
    5.0784    8.6960   -5.4756 H   0  0  0  0  0  0  0  0  0  0  0  0
  1  2  1  0
  1 26  1  0
  1 27  1  0
  1 28  1  0
  2  3  2  0
  2  4  1  0
  4  5  2  0
  4 25  1  0
  5  6  1  0
  5 29  1  0
  6  7  2  0
  6 30  1  0
  7  8  1  0
  7 24  1  0
  8  9  1  0
  9 10  1  0
  9 31  1  0
  9 32  1  0
 10 11  1  0
 10 33  1  0
 10 34  1  0
 11 12  1  0
 11 35  1  0
 11 36  1  0
 12 13  1  0
 12 37  1  0
 12 38  1  0
 13 14  1  0
 13 39  1  0
 13 40  1  0
 14 15  1  0
 14 41  1  0
 14 42  1  0
 15 16  1  0
 16 17  2  0
 16 22  1  0
 17 18  1  0
 17 43  1  0
 18 19  2  0
 18 44  1  0
 19 20  1  0
 19 21  1  0
 20 45  1  0
 20 46  1  0
 21 22  2  0
 21 47  1  0
 22 23  1  0
 23 48  1  0
 23 49  1  0
 24 25  2  0
 24 50  1  0
 25 51  1  0
M  END

