
     RDKit          3D

 36 36  0  0  0  0  0  0  0  0999 V2000
    0.8640   -0.1929    0.1806 C   0  0  0  0  0  0  0  0  0  0  0  0
    2.3929   -0.1743    0.1964 C   0  0  0  0  0  0  0  0  0  0  0  0
    2.9806    0.9582    1.0448 C   0  0  0  0  0  0  0  0  0  0  0  0
    4.5111    0.9706    1.0617 C   0  0  0  0  0  0  0  0  0  0  0  0
    5.1186    2.1156    1.8968 C   0  0  1  0  0  0  0  0  0  0  0  0
    4.7388    2.0689    3.3167 N   0  0  0  0  0  0  0  0  0  0  0  0
    5.0057    1.0326    4.1659 C   0  0  0  0  0  0  0  0  0  0  0  0
    5.7589    0.0976    3.8549 O   0  0  0  0  0  0  0  0  0  0  0  0
    4.4138    1.1004    5.4000 N   0  0  0  0  0  0  0  0  0  0  0  0
    4.5558    0.0028    6.3537 C   0  0  0  0  0  0  0  0  0  0  0  0
    3.5176   -1.0808    6.2142 C   0  0  0  0  0  0  0  0  0  0  0  0
    3.5045   -2.1327    5.3272 C   0  0  0  0  0  0  0  0  0  0  0  0
    2.3321   -2.9407    5.4324 C   0  0  0  0  0  0  0  0  0  0  0  0
    1.4633   -2.4926    6.3959 C   0  0  0  0  0  0  0  0  0  0  0  0
    2.0707   -1.0804    7.1879 S   0  0  0  0  0  0  0  0  0  0  0  0
    6.6433    2.2249    1.6443 C   0  0  0  0  0  0  0  0  0  0  0  0
    7.0842    3.0745    0.9109 O   0  0  0  0  0  0  0  0  0  0  0  0
    7.4109    1.3072    2.2220 O   0  0  0  0  0  0  0  0  0  0  0  0
    0.4765   -1.0185   -0.4373 H   0  0  0  0  0  0  0  0  0  0  0  0
    0.4551    0.7470   -0.2270 H   0  0  0  0  0  0  0  0  0  0  0  0
    0.4540   -0.3175    1.1970 H   0  0  0  0  0  0  0  0  0  0  0  0
    2.7729   -0.0877   -0.8375 H   0  0  0  0  0  0  0  0  0  0  0  0
    2.7710   -1.1412    0.5745 H   0  0  0  0  0  0  0  0  0  0  0  0
    2.6001    0.8705    2.0782 H   0  0  0  0  0  0  0  0  0  0  0  0
    2.6103    1.9292    0.6651 H   0  0  0  0  0  0  0  0  0  0  0  0
    4.8922    1.0857    0.0327 H   0  0  0  0  0  0  0  0  0  0  0  0
    4.8941    0.0070    1.4330 H   0  0  0  0  0  0  0  0  0  0  0  0
    4.7206    3.0671    1.5193 H   0  0  0  0  0  0  0  0  0  0  0  0
    4.2662    2.8831    3.6883 H   0  0  0  0  0  0  0  0  0  0  0  0
    3.5985    1.6942    5.5040 H   0  0  0  0  0  0  0  0  0  0  0  0
    4.5404    0.4257    7.3701 H   0  0  0  0  0  0  0  0  0  0  0  0
    5.5512   -0.4297    6.1881 H   0  0  0  0  0  0  0  0  0  0  0  0
    4.3171   -2.3072    4.6201 H   0  0  0  0  0  0  0  0  0  0  0  0
    2.1433   -3.8250    4.8214 H   0  0  0  0  0  0  0  0  0  0  0  0
    0.5071   -2.9200    6.6946 H   0  0  0  0  0  0  0  0  0  0  0  0
    6.8729    0.7098    2.8110 H   0  0  0  0  0  0  0  0  0  0  0  0
  1  2  1  0
  1 19  1  0
  1 20  1  0
  1 21  1  0
  2  3  1  0
  2 22  1  0
  2 23  1  0
  3  4  1  0
  3 24  1  0
  3 25  1  0
  4  5  1  0
  4 26  1  0
  4 27  1  0
  5  6  1  0
  5 16  1  0
  5 28  1  6
  6  7  1  0
  6 29  1  0
  7  8  2  0
  7  9  1  0
  9 10  1  0
  9 30  1  0
 10 11  1  0
 10 31  1  0
 10 32  1  0
 11 12  2  0
 11 15  1  0
 12 13  1  0
 12 33  1  0
 13 14  2  0
 13 34  1  0
 14 15  1  0
 14 35  1  0
 16 17  2  0
 16 18  1  0
 18 36  1  0
M  END

