
     RDKit          3D

 42 43  0  0  0  0  0  0  0  0999 V2000
    2.4933   -2.4975    1.5364 C   0  0  0  0  0  0  0  0  0  0  0  0
    3.5335   -1.6195    0.8410 C   0  0  0  0  0  0  0  0  0  0  0  0
    3.0193   -0.8557   -0.2926 N   0  0  0  0  0  0  0  0  0  0  0  0
    2.2628   -1.5918   -1.2958 C   0  0  0  0  0  0  0  0  0  0  0  0
    0.7533   -1.4028   -1.2620 C   0  0  0  0  0  0  0  0  0  0  0  0
    0.1280   -0.4746   -0.4345 C   0  0  0  0  0  0  0  0  0  0  0  0
   -1.2703   -0.3056   -0.4290 C   0  0  0  0  0  0  0  0  0  0  0  0
   -1.9716    0.6897    0.4437 C   0  0  0  0  0  0  0  0  0  0  0  0
   -1.1365    1.5671    1.3611 C   0  0  0  0  0  0  0  0  0  0  0  0
   -3.1843    0.7955    0.4192 O   0  0  0  0  0  0  0  0  0  0  0  0
   -2.0435   -1.1044   -1.2832 C   0  0  0  0  0  0  0  0  0  0  0  0
   -1.4463   -2.0417   -2.1236 C   0  0  0  0  0  0  0  0  0  0  0  0
   -0.0502   -2.1910   -2.1193 C   0  0  0  0  0  0  0  0  0  0  0  0
    0.6242   -3.0694   -2.9031 O   0  0  0  0  0  0  0  0  0  0  0  0
   -0.0854   -3.9037   -3.7949 C   0  0  0  0  0  0  0  0  0  0  0  0
    3.6351    0.3469   -0.6631 C   0  0  0  0  0  0  0  0  0  0  0  0
    4.8215    0.8130   -0.0496 C   0  0  0  0  0  0  0  0  0  0  0  0
    5.3971    2.0284   -0.4273 C   0  0  0  0  0  0  0  0  0  0  0  0
    4.8313    2.8155   -1.4320 C   0  0  0  0  0  0  0  0  0  0  0  0
    3.6665    2.3596   -2.0569 C   0  0  0  0  0  0  0  0  0  0  0  0
    3.0747    1.1535   -1.6841 C   0  0  0  0  0  0  0  0  0  0  0  0
    2.9611   -3.0011    2.3972 H   0  0  0  0  0  0  0  0  0  0  0  0
    2.0890   -3.2828    0.8802 H   0  0  0  0  0  0  0  0  0  0  0  0
    1.6470   -1.8996    1.9076 H   0  0  0  0  0  0  0  0  0  0  0  0
    4.4022   -2.2450    0.5400 H   0  0  0  0  0  0  0  0  0  0  0  0
    3.9125   -0.9030    1.5827 H   0  0  0  0  0  0  0  0  0  0  0  0
    2.4831   -2.6676   -1.1995 H   0  0  0  0  0  0  0  0  0  0  0  0
    2.6295   -1.3283   -2.3028 H   0  0  0  0  0  0  0  0  0  0  0  0
    0.7662    0.1238    0.2170 H   0  0  0  0  0  0  0  0  0  0  0  0
   -0.5662    0.9567    2.0801 H   0  0  0  0  0  0  0  0  0  0  0  0
   -1.8066    2.2416    1.9088 H   0  0  0  0  0  0  0  0  0  0  0  0
   -0.4052    2.1598    0.7884 H   0  0  0  0  0  0  0  0  0  0  0  0
   -3.1270   -0.9710   -1.2735 H   0  0  0  0  0  0  0  0  0  0  0  0
   -2.0695   -2.6502   -2.7792 H   0  0  0  0  0  0  0  0  0  0  0  0
    0.6650   -4.5145   -4.3141 H   0  0  0  0  0  0  0  0  0  0  0  0
   -0.6497   -3.3166   -4.5405 H   0  0  0  0  0  0  0  0  0  0  0  0
   -0.7851   -4.5709   -3.2613 H   0  0  0  0  0  0  0  0  0  0  0  0
    5.3200    0.2201    0.7161 H   0  0  0  0  0  0  0  0  0  0  0  0
    6.3157    2.3530    0.0697 H   0  0  0  0  0  0  0  0  0  0  0  0
    5.2888    3.7631   -1.7248 H   0  0  0  0  0  0  0  0  0  0  0  0
    3.1987    2.9561   -2.8452 H   0  0  0  0  0  0  0  0  0  0  0  0
    2.1496    0.8482   -2.1739 H   0  0  0  0  0  0  0  0  0  0  0  0
  1  2  1  0
  1 22  1  0
  1 23  1  0
  1 24  1  0
  2  3  1  0
  2 25  1  0
  2 26  1  0
  3  4  1  0
  3 16  1  0
  4  5  1  0
  4 27  1  0
  4 28  1  0
  5  6  2  0
  5 13  1  0
  6  7  1  0
  6 29  1  0
  7  8  1  0
  7 11  2  0
  8  9  1  0
  8 10  2  0
  9 30  1  0
  9 31  1  0
  9 32  1  0
 11 12  1  0
 11 33  1  0
 12 13  2  0
 12 34  1  0
 13 14  1  0
 14 15  1  0
 15 35  1  0
 15 36  1  0
 15 37  1  0
 16 17  2  0
 16 21  1  0
 17 18  1  0
 17 38  1  0
 18 19  2  0
 18 39  1  0
 19 20  1  0
 19 40  1  0
 20 21  2  0
 20 41  1  0
 21 42  1  0
M  END

