
     RDKit          3D

 33 33  0  0  0  0  0  0  0  0999 V2000
    1.0276    0.0325   -0.0051 C   0  0  0  0  0  0  0  0  0  0  0  0
    2.5261    0.0350   -0.1859 C   0  0  0  0  0  0  0  0  0  0  0  0
    3.1420    0.8004   -1.1854 C   0  0  0  0  0  0  0  0  0  0  0  0
    4.5292    0.7775   -1.3619 C   0  0  0  0  0  0  0  0  0  0  0  0
    5.3456   -0.0074   -0.5392 C   0  0  0  0  0  0  0  0  0  0  0  0
    6.8584    0.0112   -0.7053 C   0  0  1  0  0  0  0  0  0  0  0  0
    7.5553    0.8678    0.3614 C   0  0  0  0  0  0  0  0  0  0  0  0
    9.0639    1.0207    0.1541 C   0  0  0  0  0  0  0  0  0  0  0  0
    9.7416    1.8624    1.2380 C   0  0  0  0  0  0  0  0  0  0  0  0
   11.2470    2.0279    1.0305 C   0  0  0  0  0  0  0  0  0  0  0  0
   11.8760    2.7412    2.0742 O   0  0  0  0  0  0  0  0  0  0  0  0
    7.4459   -1.3514   -0.6314 N   0  0  0  0  0  0  0  0  0  0  0  0
    7.2070   -2.1276   -1.5507 N   0  0  0  0  0  0  0  0  0  0  0  0
    7.0581   -2.9292   -2.3448 N   0  0  0  0  0  0  0  0  0  0  0  0
    4.7343   -0.7772    0.4637 C   0  0  0  0  0  0  0  0  0  0  0  0
    3.3509   -0.7543    0.6348 C   0  0  0  0  0  0  0  0  0  0  0  0
    0.5495    0.8466   -0.5698 H   0  0  0  0  0  0  0  0  0  0  0  0
    0.7497    0.1449    1.0553 H   0  0  0  0  0  0  0  0  0  0  0  0
    0.5862   -0.9172   -0.3540 H   0  0  0  0  0  0  0  0  0  0  0  0
    2.5279    1.4224   -1.8430 H   0  0  0  0  0  0  0  0  0  0  0  0
    4.9799    1.3817   -2.1552 H   0  0  0  0  0  0  0  0  0  0  0  0
    7.0904    0.4410   -1.6982 H   0  0  0  0  0  0  0  0  0  0  0  0
    7.3539    0.4216    1.3504 H   0  0  0  0  0  0  0  0  0  0  0  0
    7.0704    1.8585    0.3623 H   0  0  0  0  0  0  0  0  0  0  0  0
    9.2506    1.4746   -0.8374 H   0  0  0  0  0  0  0  0  0  0  0  0
    9.5226    0.0181    0.1225 H   0  0  0  0  0  0  0  0  0  0  0  0
    9.5783    1.4095    2.2315 H   0  0  0  0  0  0  0  0  0  0  0  0
    9.2738    2.8656    1.2768 H   0  0  0  0  0  0  0  0  0  0  0  0
   11.4387    2.4954    0.0412 H   0  0  0  0  0  0  0  0  0  0  0  0
   11.7287    1.0361    1.0044 H   0  0  0  0  0  0  0  0  0  0  0  0
   11.4998    3.6308    2.0977 H   0  0  0  0  0  0  0  0  0  0  0  0
    5.3515   -1.4081    1.1084 H   0  0  0  0  0  0  0  0  0  0  0  0
    2.8984   -1.3642    1.4225 H   0  0  0  0  0  0  0  0  0  0  0  0
  1  2  1  0
  1 17  1  0
  1 18  1  0
  1 19  1  0
  2  3  2  0
  2 16  1  0
  3  4  1  0
  3 20  1  0
  4  5  2  0
  4 21  1  0
  5  6  1  0
  5 15  1  0
  6  7  1  0
  6 12  1  0
  6 22  1  6
  7  8  1  0
  7 23  1  0
  7 24  1  0
  8  9  1  0
  8 25  1  0
  8 26  1  0
  9 10  1  0
  9 27  1  0
  9 28  1  0
 10 11  1  0
 10 29  1  0
 10 30  1  0
 11 31  1  0
 12 13  1  0
 13 14  3  0
 15 16  2  0
 15 32  1  0
 16 33  1  0
M  CHG  2  12  -1  13   1
M  END

