
     RDKit          3D

 43 44  0  0  0  0  0  0  0  0999 V2000
    1.3316    0.0422    0.9550 C   0  0  0  0  0  0  0  0  0  0  0  0
    2.3975   -0.0914    0.0383 O   0  0  0  0  0  0  0  0  0  0  0  0
    2.9938    1.0281   -0.4433 C   0  0  0  0  0  0  0  0  0  0  0  0
    2.6052    2.3309   -0.1224 C   0  0  0  0  0  0  0  0  0  0  0  0
    3.2795    3.4283   -0.6803 C   0  0  0  0  0  0  0  0  0  0  0  0
    2.7841    4.7849   -0.2817 C   0  0  0  0  0  0  0  0  0  0  0  0
    1.9982    4.9668    0.6450 O   0  0  0  0  0  0  0  0  0  0  0  0
    3.2483    5.8343   -1.0134 N   0  0  0  0  0  0  0  0  0  0  0  0
    2.8216    7.1023   -0.7029 N   0  0  0  0  0  0  0  0  0  0  0  0
    3.2320    8.1247   -1.4957 C   0  0  0  0  0  0  0  0  0  0  0  0
    3.9696    7.9067   -2.4572 O   0  0  0  0  0  0  0  0  0  0  0  0
    2.7548    9.5056   -1.1516 C   0  0  0  0  0  0  0  0  0  0  0  0
    3.2065   10.5393   -1.9890 C   0  0  0  0  0  0  0  0  0  0  0  0
    2.8389   11.8668   -1.7820 C   0  0  0  0  0  0  0  0  0  0  0  0
    1.9963   12.1855   -0.7123 C   0  0  0  0  0  0  0  0  0  0  0  0
    1.5323   11.1795    0.1348 C   0  0  0  0  0  0  0  0  0  0  0  0
    1.9039    9.8449   -0.0755 C   0  0  0  0  0  0  0  0  0  0  0  0
    1.4523    8.8579    0.7495 O   0  0  0  0  0  0  0  0  0  0  0  0
    4.3633    3.2198   -1.5396 C   0  0  0  0  0  0  0  0  0  0  0  0
    4.7578    1.9171   -1.8723 C   0  0  0  0  0  0  0  0  0  0  0  0
    5.7813    1.7566   -2.7590 O   0  0  0  0  0  0  0  0  0  0  0  0
    6.9645    1.1216   -2.2886 C   0  0  0  0  0  0  0  0  0  0  0  0
    4.0751    0.8114   -1.3330 C   0  0  0  0  0  0  0  0  0  0  0  0
    4.4864   -0.4510   -1.6445 O   0  0  0  0  0  0  0  0  0  0  0  0
    3.6467   -1.1933   -2.5211 C   0  0  0  0  0  0  0  0  0  0  0  0
    1.0187   -0.9770    1.2186 H   0  0  0  0  0  0  0  0  0  0  0  0
    0.4741    0.5796    0.5125 H   0  0  0  0  0  0  0  0  0  0  0  0
    1.6462    0.5710    1.8717 H   0  0  0  0  0  0  0  0  0  0  0  0
    1.7841    2.5398    0.5615 H   0  0  0  0  0  0  0  0  0  0  0  0
    3.8092    5.7977   -1.8600 H   0  0  0  0  0  0  0  0  0  0  0  0
    2.1935    7.1774    0.0953 H   0  0  0  0  0  0  0  0  0  0  0  0
    3.8618   10.2514   -2.8130 H   0  0  0  0  0  0  0  0  0  0  0  0
    3.2057   12.6495   -2.4493 H   0  0  0  0  0  0  0  0  0  0  0  0
    1.6958   13.2207   -0.5323 H   0  0  0  0  0  0  0  0  0  0  0  0
    0.8723   11.4233    0.9735 H   0  0  0  0  0  0  0  0  0  0  0  0
    0.8812    9.2253    1.4366 H   0  0  0  0  0  0  0  0  0  0  0  0
    4.9438    4.0371   -1.9705 H   0  0  0  0  0  0  0  0  0  0  0  0
    7.6691    1.1103   -3.1319 H   0  0  0  0  0  0  0  0  0  0  0  0
    6.7695    0.0900   -1.9583 H   0  0  0  0  0  0  0  0  0  0  0  0
    7.4144    1.6929   -1.4563 H   0  0  0  0  0  0  0  0  0  0  0  0
    4.1430   -2.1592   -2.6902 H   0  0  0  0  0  0  0  0  0  0  0  0
    3.5279   -0.6754   -3.4890 H   0  0  0  0  0  0  0  0  0  0  0  0
    2.6556   -1.3699   -2.0739 H   0  0  0  0  0  0  0  0  0  0  0  0
  1  2  1  0
  1 26  1  0
  1 27  1  0
  1 28  1  0
  2  3  1  0
  3  4  2  0
  3 23  1  0
  4  5  1  0
  4 29  1  0
  5  6  1  0
  5 19  2  0
  6  7  2  0
  6  8  1  0
  8  9  1  0
  8 30  1  0
  9 10  1  0
  9 31  1  0
 10 11  2  0
 10 12  1  0
 12 13  2  0
 12 17  1  0
 13 14  1  0
 13 32  1  0
 14 15  2  0
 14 33  1  0
 15 16  1  0
 15 34  1  0
 16 17  2  0
 16 35  1  0
 17 18  1  0
 18 36  1  0
 19 20  1  0
 19 37  1  0
 20 21  1  0
 20 23  2  0
 21 22  1  0
 22 38  1  0
 22 39  1  0
 22 40  1  0
 23 24  1  0
 24 25  1  0
 25 41  1  0
 25 42  1  0
 25 43  1  0
M  END

