
     RDKit          3D

 54 58  0  0  0  0  0  0  0  0999 V2000
    2.4906    2.2973   -3.3221 C   0  0  0  0  0  0  0  0  0  0  0  0
    3.6850    1.7854   -2.5482 C   0  0  0  0  0  0  0  0  0  0  0  0
    4.8321    1.3872   -3.2490 C   0  0  0  0  0  0  0  0  0  0  0  0
    5.9282    0.9136   -2.5308 C   0  0  0  0  0  0  0  0  0  0  0  0
    7.1823    0.4572   -2.9112 N   0  0  0  0  0  0  0  0  0  0  0  0
    7.5092    0.3155   -3.8581 H   0  0  0  0  0  0  0  0  0  0  0  0
    7.8486    0.1147   -1.7455 C   0  0  0  0  0  0  0  0  0  0  0  0
    9.1056   -0.4309   -1.7797 N   0  0  0  0  0  0  0  0  0  0  0  0
    9.8408   -0.6326   -0.5410 C   0  0  0  0  0  0  0  0  0  0  0  0
   10.9130   -1.6948   -0.6760 C   0  0  0  0  0  0  0  0  0  0  0  0
   10.6466   -2.8971   -1.3643 C   0  0  0  0  0  0  0  0  0  0  0  0
   11.6108   -3.8999   -1.4687 C   0  0  0  0  0  0  0  0  0  0  0  0
   12.8509   -3.6839   -0.8673 C   0  0  0  0  0  0  0  0  0  0  0  0
   13.1324   -2.4994   -0.1838 C   0  0  0  0  0  0  0  0  0  0  0  0
   12.1711   -1.4952   -0.0842 C   0  0  0  0  0  0  0  0  0  0  0  0
   14.5499   -2.5562    0.3285 C   0  0  0  0  0  0  0  0  0  0  0  0
   14.9850   -3.8938   -0.0637 N   0  0  0  0  0  0  0  0  0  0  0  0
   16.3693   -4.3244    0.0718 C   0  0  1  0  0  0  0  0  0  0  0  0
   16.6095   -5.5493    0.9778 C   0  0  0  0  0  0  0  0  0  0  0  0
   16.5606   -6.8848    0.2320 C   0  0  0  0  0  0  0  0  0  0  0  0
   17.4531   -6.9015   -0.9876 C   0  0  0  0  0  0  0  0  0  0  0  0
   17.9971   -7.8853   -1.4318 O   0  0  0  0  0  0  0  0  0  0  0  0
   17.6020   -5.6644   -1.6332 N   0  0  0  0  0  0  0  0  0  0  0  0
   17.0166   -4.4503   -1.3251 C   0  0  0  0  0  0  0  0  0  0  0  0
   17.0524   -3.5088   -2.0863 O   0  0  0  0  0  0  0  0  0  0  0  0
   14.0504   -4.5620   -0.8340 C   0  0  0  0  0  0  0  0  0  0  0  0
   14.2175   -5.6455   -1.3689 O   0  0  0  0  0  0  0  0  0  0  0  0
    7.1418    0.3276   -0.6633 N   0  0  0  0  0  0  0  0  0  0  0  0
    5.9290    0.8202   -1.1182 C   0  0  0  0  0  0  0  0  0  0  0  0
    4.7905    1.2178   -0.4139 C   0  0  0  0  0  0  0  0  0  0  0  0
    3.6841    1.6938   -1.1273 C   0  0  0  0  0  0  0  0  0  0  0  0
    2.4636    2.1176   -0.3451 C   0  0  1  0  0  0  0  0  0  0  0  0
    2.1502    3.4166   -0.5491 F   0  0  0  0  0  0  0  0  0  0  0  0
    1.3657    1.4054   -0.6833 F   0  0  0  0  0  0  0  0  0  0  0  0
    2.6262    1.9658    0.9803 F   0  0  0  0  0  0  0  0  0  0  0  0
    2.6955    2.2934   -4.4021 H   0  0  0  0  0  0  0  0  0  0  0  0
    2.2286    3.3246   -3.0266 H   0  0  0  0  0  0  0  0  0  0  0  0
    1.5977    1.6799   -3.1404 H   0  0  0  0  0  0  0  0  0  0  0  0
    4.8513    1.4513   -4.3397 H   0  0  0  0  0  0  0  0  0  0  0  0
    9.6666   -0.2344   -2.6017 H   0  0  0  0  0  0  0  0  0  0  0  0
    9.0978   -0.9261    0.2179 H   0  0  0  0  0  0  0  0  0  0  0  0
   10.2913    0.3085   -0.1725 H   0  0  0  0  0  0  0  0  0  0  0  0
    9.6645   -3.0315   -1.8232 H   0  0  0  0  0  0  0  0  0  0  0  0
   11.4129   -4.8328   -2.0015 H   0  0  0  0  0  0  0  0  0  0  0  0
   12.3845   -0.5594    0.4410 H   0  0  0  0  0  0  0  0  0  0  0  0
   14.6062   -2.4142    1.4237 H   0  0  0  0  0  0  0  0  0  0  0  0
   15.1859   -1.7854   -0.1446 H   0  0  0  0  0  0  0  0  0  0  0  0
   16.8952   -3.4674    0.5186 H   0  0  0  0  0  0  0  0  0  0  0  0
   15.8773   -5.5354    1.7987 H   0  0  0  0  0  0  0  0  0  0  0  0
   17.6044   -5.4349    1.4409 H   0  0  0  0  0  0  0  0  0  0  0  0
   15.5405   -7.0774   -0.1374 H   0  0  0  0  0  0  0  0  0  0  0  0
   16.8620   -7.7260    0.8715 H   0  0  0  0  0  0  0  0  0  0  0  0
   18.0994   -5.6975   -2.5227 H   0  0  0  0  0  0  0  0  0  0  0  0
    4.7701    1.1549    0.6735 H   0  0  0  0  0  0  0  0  0  0  0  0
  1  2  1  0
  1 36  1  0
  1 37  1  0
  1 38  1  0
  2  3  2  0
  2 31  1  0
  3  4  1  0
  3 39  1  0
  4  5  1  0
  4 29  2  0
  5  6  1  0
  5  7  1  0
  7  8  1  0
  7 28  2  0
  8  9  1  0
  8 40  1  0
  9 10  1  0
  9 41  1  0
  9 42  1  0
 10 11  2  0
 10 15  1  0
 11 12  1  0
 11 43  1  0
 12 13  2  0
 12 44  1  0
 13 14  1  0
 13 26  1  0
 14 15  2  0
 14 16  1  0
 15 45  1  0
 16 17  1  0
 16 46  1  0
 16 47  1  0
 17 18  1  0
 17 26  1  0
 18 19  1  0
 18 24  1  0
 18 48  1  1
 19 20  1  0
 19 49  1  0
 19 50  1  0
 20 21  1  0
 20 51  1  0
 20 52  1  0
 21 22  2  0
 21 23  1  0
 23 24  1  0
 23 53  1  0
 24 25  2  0
 26 27  2  0
 28 29  1  0
 29 30  1  0
 30 31  2  0
 30 54  1  0
 31 32  1  0
 32 33  1  1
 32 34  1  0
 32 35  1  0
M  END

