
     RDKit          3D

 43 44  0  0  0  0  0  0  0  0999 V2000
    5.4478   -2.2456    0.4472 C   0  0  0  0  0  0  0  0  0  0  0  0
    4.5033   -1.0686    0.4700 C   0  0  0  0  0  0  0  0  0  0  0  0
    4.9833    0.1880    0.8378 C   0  0  0  0  0  0  0  0  0  0  0  0
    4.1937    1.3558    0.7987 C   0  0  0  0  0  0  0  0  0  0  0  0
    4.6837    2.6755    1.1815 C   0  0  0  0  0  0  0  0  0  0  0  0
    5.8979    3.0174    1.6635 C   0  0  0  0  0  0  0  0  0  0  0  0
    6.1945    4.4357    1.9926 C   0  0  0  0  0  0  0  0  0  0  0  0
    5.4173    5.3485    1.8672 O   0  0  0  0  0  0  0  0  0  0  0  0
    7.4458    4.6732    2.4662 O   0  0  0  0  0  0  0  0  0  0  0  0
    2.8692    1.2216    0.3455 C   0  0  0  0  0  0  0  0  0  0  0  0
    2.3593   -0.0202   -0.0185 C   0  0  0  0  0  0  0  0  0  0  0  0
    3.1440   -1.1897    0.0494 C   0  0  0  0  0  0  0  0  0  0  0  0
    2.6249   -2.4408   -0.3431 N   0  0  0  0  0  0  0  0  0  0  0  0
    1.5720   -2.4569   -1.3567 C   0  0  0  0  0  0  0  0  0  0  0  0
    1.5071   -3.8105   -2.0818 C   0  0  2  0  0  0  0  0  0  0  0  0
    0.4035   -3.8181   -3.1416 C   0  0  0  0  0  0  0  0  0  0  0  0
    1.3461   -4.9445   -1.0607 C   0  0  0  0  0  0  0  0  0  0  0  0
    2.4289   -4.8698    0.0203 C   0  0  0  0  0  0  0  0  0  0  0  0
    2.5000   -3.4892    0.6951 C   0  0  2  0  0  0  0  0  0  0  0  0
    1.3380   -3.2323    1.6719 C   0  0  0  0  0  0  0  0  0  0  0  0
    6.4871   -1.9067    0.3243 H   0  0  0  0  0  0  0  0  0  0  0  0
    5.1999   -2.9262   -0.3813 H   0  0  0  0  0  0  0  0  0  0  0  0
    5.4115   -2.8380    1.3779 H   0  0  0  0  0  0  0  0  0  0  0  0
    6.0325    0.2648    1.1354 H   0  0  0  0  0  0  0  0  0  0  0  0
    3.9747    3.5038    1.0673 H   0  0  0  0  0  0  0  0  0  0  0  0
    6.6798    2.2672    1.8232 H   0  0  0  0  0  0  0  0  0  0  0  0
    7.9501    3.8494    2.5097 H   0  0  0  0  0  0  0  0  0  0  0  0
    2.2277    2.1055    0.2924 H   0  0  0  0  0  0  0  0  0  0  0  0
    1.3204   -0.0886   -0.3431 H   0  0  0  0  0  0  0  0  0  0  0  0
    1.7911   -1.6627   -2.0862 H   0  0  0  0  0  0  0  0  0  0  0  0
    0.5677   -2.2311   -0.9358 H   0  0  0  0  0  0  0  0  0  0  0  0
    2.4814   -3.9480   -2.5865 H   0  0  0  0  0  0  0  0  0  0  0  0
   -0.5902   -3.6699   -2.6853 H   0  0  0  0  0  0  0  0  0  0  0  0
    0.3799   -4.7784   -3.6810 H   0  0  0  0  0  0  0  0  0  0  0  0
    0.5514   -3.0195   -3.8869 H   0  0  0  0  0  0  0  0  0  0  0  0
    1.3864   -5.9225   -1.5697 H   0  0  0  0  0  0  0  0  0  0  0  0
    0.3420   -4.8794   -0.6028 H   0  0  0  0  0  0  0  0  0  0  0  0
    3.4094   -5.0800   -0.4399 H   0  0  0  0  0  0  0  0  0  0  0  0
    2.2649   -5.6429    0.7892 H   0  0  0  0  0  0  0  0  0  0  0  0
    3.4226   -3.4625    1.2898 H   0  0  0  0  0  0  0  0  0  0  0  0
    0.3517   -3.2895    1.1864 H   0  0  0  0  0  0  0  0  0  0  0  0
    1.4292   -2.2363    2.1326 H   0  0  0  0  0  0  0  0  0  0  0  0
    1.3506   -3.9794    2.4817 H   0  0  0  0  0  0  0  0  0  0  0  0
  1  2  1  0
  1 21  1  0
  1 22  1  0
  1 23  1  0
  2  3  2  0
  2 12  1  0
  3  4  1  0
  3 24  1  0
  4  5  1  0
  4 10  2  0
  5  6  2  0
  5 25  1  0
  6  7  1  0
  6 26  1  0
  7  8  2  0
  7  9  1  0
  9 27  1  0
 10 11  1  0
 10 28  1  0
 11 12  2  0
 11 29  1  0
 12 13  1  0
 13 14  1  0
 13 19  1  0
 14 15  1  0
 14 30  1  0
 14 31  1  0
 15 16  1  0
 15 17  1  0
 15 32  1  6
 16 33  1  0
 16 34  1  0
 16 35  1  0
 17 18  1  0
 17 36  1  0
 17 37  1  0
 18 19  1  0
 18 38  1  0
 18 39  1  0
 19 20  1  0
 19 40  1  1
 20 41  1  0
 20 42  1  0
 20 43  1  0
M  END

