
     RDKit          3D

 42 42  0  0  0  0  0  0  0  0999 V2000
    1.2722    0.3720   -0.2761 C   0  0  0  0  0  0  0  0  0  0  0  0
    2.7807    0.4783   -0.4086 C   0  0  0  0  0  0  0  0  0  0  0  0
    3.2571   -0.6449   -1.1199 O   0  0  0  0  0  0  0  0  0  0  0  0
    4.6767   -0.7413   -1.2720 C   0  0  1  0  0  0  0  0  0  0  0  0
    5.2151   -1.5531   -0.0530 C   0  0  1  0  0  0  0  0  0  0  0  0
    4.9106   -2.9806   -0.0244 N   0  0  0  0  0  0  0  0  0  0  0  0
    6.7062   -1.3467    0.3083 C   0  0  0  0  0  0  0  0  0  0  0  0
    7.0928    0.0697    0.6779 C   0  0  0  0  0  0  0  0  0  0  0  0
    6.5771    0.6736    1.8384 C   0  0  0  0  0  0  0  0  0  0  0  0
    6.9219    1.9765    2.2007 C   0  0  0  0  0  0  0  0  0  0  0  0
    7.8050    2.7010    1.3944 C   0  0  0  0  0  0  0  0  0  0  0  0
    8.2448    4.3358    1.8396 Cl  0  0  0  0  0  0  0  0  0  0  0  0
    8.3427    2.1269    0.2411 C   0  0  0  0  0  0  0  0  0  0  0  0
    7.9832    0.8210   -0.1047 C   0  0  0  0  0  0  0  0  0  0  0  0
    4.9325   -1.2062   -2.7470 C   0  0  1  0  0  0  0  0  0  0  0  0
    4.5104   -0.0350   -3.6615 C   0  0  0  0  0  0  0  0  0  0  0  0
    6.4176   -1.5092   -3.0113 C   0  0  0  0  0  0  0  0  0  0  0  0
    4.0838   -2.4362   -3.1323 C   0  0  0  0  0  0  0  0  0  0  0  0
    0.8697    1.2427    0.2651 H   0  0  0  0  0  0  0  0  0  0  0  0
    0.9940   -0.5397    0.2752 H   0  0  0  0  0  0  0  0  0  0  0  0
    0.7964    0.3290   -1.2682 H   0  0  0  0  0  0  0  0  0  0  0  0
    3.2462    0.5392    0.5961 H   0  0  0  0  0  0  0  0  0  0  0  0
    3.0591    1.4108   -0.9416 H   0  0  0  0  0  0  0  0  0  0  0  0
    5.1127    0.2728   -1.1888 H   0  0  0  0  0  0  0  0  0  0  0  0
    4.6544   -1.1179    0.7934 H   0  0  0  0  0  0  0  0  0  0  0  0
    5.4412   -3.4862   -0.7329 H   0  0  0  0  0  0  0  0  0  0  0  0
    3.9240   -3.1271   -0.2361 H   0  0  0  0  0  0  0  0  0  0  0  0
    7.3599   -1.7069   -0.4986 H   0  0  0  0  0  0  0  0  0  0  0  0
    6.8886   -2.0102    1.1696 H   0  0  0  0  0  0  0  0  0  0  0  0
    5.8970    0.1102    2.4838 H   0  0  0  0  0  0  0  0  0  0  0  0
    6.5171    2.4314    3.1065 H   0  0  0  0  0  0  0  0  0  0  0  0
    9.0375    2.6978   -0.3773 H   0  0  0  0  0  0  0  0  0  0  0  0
    8.4161    0.3765   -1.0048 H   0  0  0  0  0  0  0  0  0  0  0  0
    5.1220    0.8627   -3.4719 H   0  0  0  0  0  0  0  0  0  0  0  0
    3.4554    0.2282   -3.4965 H   0  0  0  0  0  0  0  0  0  0  0  0
    4.6328   -0.3059   -4.7227 H   0  0  0  0  0  0  0  0  0  0  0  0
    7.0648   -0.6610   -2.7371 H   0  0  0  0  0  0  0  0  0  0  0  0
    6.5723   -1.7045   -4.0850 H   0  0  0  0  0  0  0  0  0  0  0  0
    6.7700   -2.3995   -2.4686 H   0  0  0  0  0  0  0  0  0  0  0  0
    3.0225   -2.2620   -2.9075 H   0  0  0  0  0  0  0  0  0  0  0  0
    4.3995   -3.3472   -2.6055 H   0  0  0  0  0  0  0  0  0  0  0  0
    4.1789   -2.6320   -4.2129 H   0  0  0  0  0  0  0  0  0  0  0  0
  1  2  1  0
  1 19  1  0
  1 20  1  0
  1 21  1  0
  2  3  1  0
  2 22  1  0
  2 23  1  0
  3  4  1  0
  4  5  1  0
  4 15  1  0
  4 24  1  6
  5  6  1  0
  5  7  1  0
  5 25  1  1
  6 26  1  0
  6 27  1  0
  7  8  1  0
  7 28  1  0
  7 29  1  0
  8  9  2  0
  8 14  1  0
  9 10  1  0
  9 30  1  0
 10 11  2  0
 10 31  1  0
 11 12  1  0
 11 13  1  0
 13 14  2  0
 13 32  1  0
 14 33  1  0
 15 16  1  6
 15 17  1  0
 15 18  1  0
 16 34  1  0
 16 35  1  0
 16 36  1  0
 17 37  1  0
 17 38  1  0
 17 39  1  0
 18 40  1  0
 18 41  1  0
 18 42  1  0
M  END

