
     RDKit          3D

 47 49  0  0  0  0  0  0  0  0999 V2000
    2.3576   -4.6597    1.8631 C   0  0  0  0  0  0  0  0  0  0  0  0
    3.6375   -4.0980    1.2934 C   0  0  0  0  0  0  0  0  0  0  0  0
    3.8060   -2.7246    1.0701 C   0  0  0  0  0  0  0  0  0  0  0  0
    4.9830   -2.1933    0.5354 C   0  0  0  0  0  0  0  0  0  0  0  0
    6.0429   -3.0525    0.2055 C   0  0  0  0  0  0  0  0  0  0  0  0
    7.2659   -2.6079   -0.3359 N   0  0  0  0  0  0  0  0  0  0  0  0
    7.6597   -1.3372   -0.6388 C   0  0  0  0  0  0  0  0  0  0  0  0
    6.9979   -0.3260   -0.4832 O   0  0  0  0  0  0  0  0  0  0  0  0
    9.0714   -1.2190   -1.2423 C   0  0  1  0  0  0  0  0  0  0  0  0
    8.9520   -0.9024   -2.2906 H   0  0  0  0  0  0  0  0  0  0  0  0
    9.9177   -0.1983   -0.4938 C   0  0  0  0  0  0  0  0  0  0  0  0
    9.7020   -2.5188   -1.2345 O   0  0  0  0  0  0  0  0  0  0  0  0
   10.5651   -2.8163   -2.2302 C   0  0  0  0  0  0  0  0  0  0  0  0
   10.8773   -2.0606   -3.1187 O   0  0  0  0  0  0  0  0  0  0  0  0
   11.0877   -4.1847   -2.1105 C   0  0  0  0  0  0  0  0  0  0  0  0
   11.9792   -4.8596   -2.9110 C   0  0  0  0  0  0  0  0  0  0  0  0
   12.1193   -6.1532   -2.3438 C   0  0  0  0  0  0  0  0  0  0  0  0
   11.3017   -6.1864   -1.2290 C   0  0  0  0  0  0  0  0  0  0  0  0
   11.0156   -7.2127   -0.2338 C   0  0  0  0  0  0  0  0  0  0  0  0
   10.1933   -6.9281    0.8765 C   0  0  0  0  0  0  0  0  0  0  0  0
    9.9197   -7.9068    1.8274 C   0  0  0  0  0  0  0  0  0  0  0  0
   10.4732   -9.1779    1.6678 C   0  0  0  0  0  0  0  0  0  0  0  0
   10.1855  -10.2198    2.6733 N   0  0  0  0  0  0  0  0  0  0  0  0
    9.4616   -9.9160    3.6077 O   0  0  0  0  0  0  0  0  0  0  0  0
   10.6898  -11.3187    2.5053 O   0  0  0  0  0  0  0  0  0  0  0  0
   11.2927   -9.4910    0.5810 C   0  0  0  0  0  0  0  0  0  0  0  0
   11.5597   -8.5077   -0.3651 C   0  0  0  0  0  0  0  0  0  0  0  0
   10.6771   -4.9885   -1.0928 O   0  0  0  0  0  0  0  0  0  0  0  0
    5.8902   -4.4340    0.4236 C   0  0  0  0  0  0  0  0  0  0  0  0
    4.7094   -4.9423    0.9577 C   0  0  0  0  0  0  0  0  0  0  0  0
    1.6604   -3.8599    2.1535 H   0  0  0  0  0  0  0  0  0  0  0  0
    2.5499   -5.2789    2.7551 H   0  0  0  0  0  0  0  0  0  0  0  0
    1.8397   -5.3036    1.1316 H   0  0  0  0  0  0  0  0  0  0  0  0
    2.9919   -2.0386    1.3218 H   0  0  0  0  0  0  0  0  0  0  0  0
    5.0918   -1.1235    0.3718 H   0  0  0  0  0  0  0  0  0  0  0  0
    7.9626   -3.3232   -0.5170 H   0  0  0  0  0  0  0  0  0  0  0  0
    9.3656    0.7502   -0.4442 H   0  0  0  0  0  0  0  0  0  0  0  0
   10.8699   -0.0347   -1.0180 H   0  0  0  0  0  0  0  0  0  0  0  0
   10.1216   -0.5418    0.5322 H   0  0  0  0  0  0  0  0  0  0  0  0
   12.4643   -4.4550   -3.7959 H   0  0  0  0  0  0  0  0  0  0  0  0
   12.7503   -6.9603   -2.7073 H   0  0  0  0  0  0  0  0  0  0  0  0
    9.7743   -5.9278    0.9918 H   0  0  0  0  0  0  0  0  0  0  0  0
    9.2881   -7.7047    2.6921 H   0  0  0  0  0  0  0  0  0  0  0  0
   11.7032  -10.4966    0.4951 H   0  0  0  0  0  0  0  0  0  0  0  0
   12.1946   -8.7505   -1.2189 H   0  0  0  0  0  0  0  0  0  0  0  0
    6.7083   -5.1151    0.1690 H   0  0  0  0  0  0  0  0  0  0  0  0
    4.6191   -6.0210    1.1170 H   0  0  0  0  0  0  0  0  0  0  0  0
  1  2  1  0
  1 31  1  0
  1 32  1  0
  1 33  1  0
  2  3  2  0
  2 30  1  0
  3  4  1  0
  3 34  1  0
  4  5  2  0
  4 35  1  0
  5  6  1  0
  5 29  1  0
  6  7  1  0
  6 36  1  0
  7  8  2  0
  7  9  1  0
  9 10  1  6
  9 11  1  0
  9 12  1  0
 11 37  1  0
 11 38  1  0
 11 39  1  0
 12 13  1  0
 13 14  2  0
 13 15  1  0
 15 16  2  0
 15 28  1  0
 16 17  1  0
 16 40  1  0
 17 18  2  0
 17 41  1  0
 18 19  1  0
 18 28  1  0
 19 20  2  0
 19 27  1  0
 20 21  1  0
 20 42  1  0
 21 22  2  0
 21 43  1  0
 22 23  1  0
 22 26  1  0
 23 24  2  0
 23 25  1  0
 26 27  2  0
 26 44  1  0
 27 45  1  0
 29 30  2  0
 29 46  1  0
 30 47  1  0
M  CHG  2  23   1  25  -1
M  END

