
     RDKit          3D

 51 54  0  0  0  0  0  0  0  0999 V2000
    0.8827   -1.0056    0.5585 C   0  0  0  0  0  0  0  0  0  0  0  0
    2.3351   -0.7194    0.2624 C   0  0  0  0  0  0  0  0  0  0  0  0
    2.7226   -0.0247   -0.8912 C   0  0  0  0  0  0  0  0  0  0  0  0
    4.0719    0.2151   -1.1724 C   0  0  0  0  0  0  0  0  0  0  0  0
    5.0768   -0.2362   -0.3096 C   0  0  0  0  0  0  0  0  0  0  0  0
    6.5447    0.0528   -0.6143 C   0  0  1  0  0  0  0  0  0  0  0  0
    7.1650    0.9006    0.4011 N   0  0  0  0  0  0  0  0  0  0  0  0
    7.2976    2.2434    0.2247 C   0  0  0  0  0  0  0  0  0  0  0  0
    7.0324    2.8407   -0.8046 O   0  0  0  0  0  0  0  0  0  0  0  0
    7.8587    2.9843    1.4457 C   0  0  0  0  0  0  0  0  0  0  0  0
    6.5850    3.4730    2.6775 S   0  0  0  0  0  0  0  0  0  0  0  0
    6.4261    1.9723    3.5789 C   0  0  0  0  0  0  0  0  0  0  0  0
    7.0348    0.8277    3.3433 N   0  0  0  0  0  0  0  0  0  0  0  0
    6.6239   -0.0630    4.2871 N   0  0  0  0  0  0  0  0  0  0  0  0
    5.7791    0.5474    5.0898 C   0  0  0  0  0  0  0  0  0  0  0  0
    5.1361   -0.1068    6.2384 C   0  0  0  0  0  0  0  0  0  0  0  0
    4.7541    0.5635    7.4126 C   0  0  0  0  0  0  0  0  0  0  0  0
    4.1768   -0.1714    8.4534 C   0  0  0  0  0  0  0  0  0  0  0  0
    3.9694   -1.4874    8.4061 N   0  0  0  0  0  0  0  0  0  0  0  0
    4.3510   -2.1290    7.2963 C   0  0  0  0  0  0  0  0  0  0  0  0
    4.9309   -1.4975    6.1964 C   0  0  0  0  0  0  0  0  0  0  0  0
    5.6079    1.8598    4.6727 N   0  0  0  0  0  0  0  0  0  0  0  0
    4.6985    2.8847    5.1613 C   0  0  0  0  0  0  0  0  0  0  0  0
    7.3586   -1.2077   -0.8284 C   0  0  0  0  0  0  0  0  0  0  0  0
    6.9371   -2.4611   -1.2052 C   0  0  0  0  0  0  0  0  0  0  0  0
    8.0127   -3.3807   -1.4057 C   0  0  0  0  0  0  0  0  0  0  0  0
    9.2403   -2.8146   -1.1782 C   0  0  0  0  0  0  0  0  0  0  0  0
    9.1001   -1.1526   -0.7160 S   0  0  0  0  0  0  0  0  0  0  0  0
    4.6952   -0.9296    0.8511 C   0  0  0  0  0  0  0  0  0  0  0  0
    3.3490   -1.1630    1.1302 C   0  0  0  0  0  0  0  0  0  0  0  0
    0.2141   -0.3593   -0.0296 H   0  0  0  0  0  0  0  0  0  0  0  0
    0.6500   -0.8568    1.6251 H   0  0  0  0  0  0  0  0  0  0  0  0
    0.6257   -2.0520    0.3169 H   0  0  0  0  0  0  0  0  0  0  0  0
    1.9578    0.3408   -1.5826 H   0  0  0  0  0  0  0  0  0  0  0  0
    4.3457    0.7701   -2.0738 H   0  0  0  0  0  0  0  0  0  0  0  0
    6.5777    0.6565   -1.5351 H   0  0  0  0  0  0  0  0  0  0  0  0
    7.2951    0.5359    1.3508 H   0  0  0  0  0  0  0  0  0  0  0  0
    8.2657    3.9406    1.0937 H   0  0  0  0  0  0  0  0  0  0  0  0
    8.6351    2.4113    1.9714 H   0  0  0  0  0  0  0  0  0  0  0  0
    4.9250    1.6321    7.5470 H   0  0  0  0  0  0  0  0  0  0  0  0
    3.8748    0.3404    9.3751 H   0  0  0  0  0  0  0  0  0  0  0  0
    4.1833   -3.2122    7.2760 H   0  0  0  0  0  0  0  0  0  0  0  0
    5.2297   -2.0633    5.3131 H   0  0  0  0  0  0  0  0  0  0  0  0
    3.8127    2.4128    5.6036 H   0  0  0  0  0  0  0  0  0  0  0  0
    4.3735    3.5081    4.3163 H   0  0  0  0  0  0  0  0  0  0  0  0
    5.1808    3.5304    5.9121 H   0  0  0  0  0  0  0  0  0  0  0  0
    5.8850   -2.7163   -1.3349 H   0  0  0  0  0  0  0  0  0  0  0  0
    7.8752   -4.4230   -1.6988 H   0  0  0  0  0  0  0  0  0  0  0  0
   10.2215   -3.2837   -1.2390 H   0  0  0  0  0  0  0  0  0  0  0  0
    5.4571   -1.2888    1.5482 H   0  0  0  0  0  0  0  0  0  0  0  0
    3.0768   -1.7038    2.0419 H   0  0  0  0  0  0  0  0  0  0  0  0
  1  2  1  0
  1 31  1  0
  1 32  1  0
  1 33  1  0
  2  3  2  0
  2 30  1  0
  3  4  1  0
  3 34  1  0
  4  5  2  0
  4 35  1  0
  5  6  1  0
  5 29  1  0
  6  7  1  0
  6 24  1  0
  6 36  1  6
  7  8  1  0
  7 37  1  0
  8  9  2  0
  8 10  1  0
 10 11  1  0
 10 38  1  0
 10 39  1  0
 11 12  1  0
 12 13  2  0
 12 22  1  0
 13 14  1  0
 14 15  2  0
 15 16  1  0
 15 22  1  0
 16 17  2  0
 16 21  1  0
 17 18  1  0
 17 40  1  0
 18 19  2  0
 18 41  1  0
 19 20  1  0
 20 21  2  0
 20 42  1  0
 21 43  1  0
 22 23  1  0
 23 44  1  0
 23 45  1  0
 23 46  1  0
 24 25  2  0
 24 28  1  0
 25 26  1  0
 25 47  1  0
 26 27  2  0
 26 48  1  0
 27 28  1  0
 27 49  1  0
 29 30  2  0
 29 50  1  0
 30 51  1  0
M  END

