
     RDKit          3D

 50 53  0  0  0  0  0  0  0  0999 V2000
    0.9654    0.2527    1.4155 C   0  0  0  0  0  0  0  0  0  0  0  0
    2.3927    0.0648    1.1771 N   0  0  0  0  0  0  0  0  0  0  0  0
    2.8010   -1.2493    0.7985 C   0  0  0  0  0  0  0  0  0  0  0  0
    1.9784   -2.1391    0.6955 O   0  0  0  0  0  0  0  0  0  0  0  0
    4.2442   -1.4073    0.5645 C   0  0  0  0  0  0  0  0  0  0  0  0
    4.8975   -2.5760    0.2039 N   0  0  0  0  0  0  0  0  0  0  0  0
    4.2396   -3.6215   -0.0405 N   0  0  0  0  0  0  0  0  0  0  0  0
    4.9921   -4.7585   -0.3621 C   0  0  0  0  0  0  0  0  0  0  0  0
    6.3948   -4.8903   -0.2478 C   0  0  0  0  0  0  0  0  0  0  0  0
    7.0390   -6.0674   -0.5845 C   0  0  0  0  0  0  0  0  0  0  0  0
    6.3263   -7.1967   -1.0667 C   0  0  0  0  0  0  0  0  0  0  0  0
    6.9348   -8.3899   -1.3652 N   0  0  0  0  0  0  0  0  0  0  0  0
    8.2997   -8.6670   -1.5558 C   0  0  0  0  0  0  0  0  0  0  0  0
    9.1774   -7.7726   -2.1958 C   0  0  0  0  0  0  0  0  0  0  0  0
   10.5146   -8.1234   -2.3929 C   0  0  0  0  0  0  0  0  0  0  0  0
   10.9965   -9.3687   -1.9788 C   0  0  0  0  0  0  0  0  0  0  0  0
   10.1209  -10.2689   -1.3634 C   0  0  0  0  0  0  0  0  0  0  0  0
    8.7872   -9.9226   -1.1470 C   0  0  0  0  0  0  0  0  0  0  0  0
    4.9103   -7.0489   -1.1647 C   0  0  0  0  0  0  0  0  0  0  0  0
    3.8891   -8.3642   -1.7781 S   0  0  1  0  0  0  0  0  0  0  0  0
    4.4235   -9.6692   -1.3497 O   0  0  0  0  0  0  0  0  0  0  0  0
    2.4840   -8.0604   -1.5684 O   0  0  0  0  0  0  0  0  0  0  0  0
    4.2388   -8.2396   -3.3817 O   0  0  0  0  0  0  0  0  0  0  0  0
    4.2621   -5.8669   -0.8106 C   0  0  0  0  0  0  0  0  0  0  0  0
    5.1220   -0.3359    0.7194 C   0  0  0  0  0  0  0  0  0  0  0  0
    6.4218   -0.5130    0.5050 O   0  0  0  0  0  0  0  0  0  0  0  0
    4.6558    0.9655    1.1019 C   0  0  0  0  0  0  0  0  0  0  0  0
    5.5410    2.0533    1.2533 C   0  0  0  0  0  0  0  0  0  0  0  0
    5.0696    3.3034    1.6221 C   0  0  0  0  0  0  0  0  0  0  0  0
    3.6927    3.4748    1.8431 C   0  0  0  0  0  0  0  0  0  0  0  0
    2.8003    2.4182    1.6995 C   0  0  0  0  0  0  0  0  0  0  0  0
    3.2597    1.1340    1.3252 C   0  0  0  0  0  0  0  0  0  0  0  0
    0.4778   -0.7129    1.2469 H   0  0  0  0  0  0  0  0  0  0  0  0
    0.5454    0.9997    0.7235 H   0  0  0  0  0  0  0  0  0  0  0  0
    0.7791    0.5801    2.4506 H   0  0  0  0  0  0  0  0  0  0  0  0
    6.9742   -4.0539    0.1449 H   0  0  0  0  0  0  0  0  0  0  0  0
    8.1163   -6.1482   -0.4409 H   0  0  0  0  0  0  0  0  0  0  0  0
    6.3094   -9.1967   -1.3704 H   0  0  0  0  0  0  0  0  0  0  0  0
    8.8081   -6.8147   -2.5646 H   0  0  0  0  0  0  0  0  0  0  0  0
   11.1826   -7.4172   -2.8930 H   0  0  0  0  0  0  0  0  0  0  0  0
   12.0427   -9.6379   -2.1405 H   0  0  0  0  0  0  0  0  0  0  0  0
   10.4797  -11.2490   -1.0388 H   0  0  0  0  0  0  0  0  0  0  0  0
    8.1095  -10.6231   -0.6519 H   0  0  0  0  0  0  0  0  0  0  0  0
    4.0964   -9.1203   -3.7733 H   0  0  0  0  0  0  0  0  0  0  0  0
    3.1769   -5.7879   -0.8869 H   0  0  0  0  0  0  0  0  0  0  0  0
    6.4907   -1.4676    0.2616 H   0  0  0  0  0  0  0  0  0  0  0  0
    6.6029    1.8809    1.0719 H   0  0  0  0  0  0  0  0  0  0  0  0
    5.7572    4.1434    1.7389 H   0  0  0  0  0  0  0  0  0  0  0  0
    3.3071    4.4555    2.1339 H   0  0  0  0  0  0  0  0  0  0  0  0
    1.7412    2.5919    1.8794 H   0  0  0  0  0  0  0  0  0  0  0  0
  1  2  1  0
  1 33  1  0
  1 34  1  0
  1 35  1  0
  2  3  1  0
  2 32  1  0
  3  4  2  0
  3  5  1  0
  5  6  1  0
  5 25  2  0
  6  7  2  0
  7  8  1  0
  8  9  2  0
  8 24  1  0
  9 10  1  0
  9 36  1  0
 10 11  2  0
 10 37  1  0
 11 12  1  0
 11 19  1  0
 12 13  1  0
 12 38  1  0
 13 14  2  0
 13 18  1  0
 14 15  1  0
 14 39  1  0
 15 16  2  0
 15 40  1  0
 16 17  1  0
 16 41  1  0
 17 18  2  0
 17 42  1  0
 18 43  1  0
 19 20  1  0
 19 24  2  0
 20 21  2  0
 20 22  2  0
 20 23  1  6
 23 44  1  0
 24 45  1  0
 25 26  1  0
 25 27  1  0
 26 46  1  0
 27 28  1  0
 27 32  2  0
 28 29  2  0
 28 47  1  0
 29 30  1  0
 29 48  1  0
 30 31  2  0
 30 49  1  0
 31 32  1  0
 31 50  1  0
M  END

