
     RDKit          3D

 36 36  0  0  0  0  0  0  0  0999 V2000
    3.6941   -2.3028   -2.5211 C   0  0  0  0  0  0  0  0  0  0  0  0
    4.4805   -1.0302   -2.2029 C   0  0  0  0  0  0  0  0  0  0  0  0
    3.6962   -0.0451   -1.3308 C   0  0  0  0  0  0  0  0  0  0  0  0
    4.4621    1.2188   -0.9162 C   0  0  0  0  0  0  0  0  0  0  0  0
    4.8984    2.1029   -2.0050 N   0  0  0  0  0  0  0  0  0  0  0  0
    3.8763    2.8885   -2.7073 C   0  0  0  0  0  0  0  0  0  0  0  0
    3.4061    2.2963   -4.0385 C   0  0  0  0  0  0  0  0  0  0  0  0
    6.2131    2.0363   -2.3927 C   0  0  0  0  0  0  0  0  0  0  0  0
    6.9945    1.1968   -1.9683 O   0  0  0  0  0  0  0  0  0  0  0  0
    6.7361    3.0751   -3.3634 C   0  0  0  0  0  0  0  0  0  0  0  0
    6.7197    4.4498   -3.0846 C   0  0  0  0  0  0  0  0  0  0  0  0
    7.3317    5.3609   -3.9452 C   0  0  0  0  0  0  0  0  0  0  0  0
    7.9865    4.9257   -5.1041 C   0  0  0  0  0  0  0  0  0  0  0  0
    8.7194    6.2479   -6.2474 Br  0  0  0  0  0  0  0  0  0  0  0  0
    8.0174    3.5464   -5.3709 C   0  0  0  0  0  0  0  0  0  0  0  0
    8.6987    2.9669   -6.5495 N   0  0  0  0  0  0  0  0  0  0  0  0
    9.7370    3.4825   -6.9173 O   0  0  0  0  0  0  0  0  0  0  0  0
    8.1751    1.9864   -7.0538 O   0  0  0  0  0  0  0  0  0  0  0  0
    7.4019    2.6361   -4.5101 C   0  0  0  0  0  0  0  0  0  0  0  0
    4.2796   -2.9900   -3.1521 H   0  0  0  0  0  0  0  0  0  0  0  0
    2.7574   -2.0759   -3.0585 H   0  0  0  0  0  0  0  0  0  0  0  0
    3.4206   -2.8478   -1.6018 H   0  0  0  0  0  0  0  0  0  0  0  0
    4.7737   -0.5350   -3.1446 H   0  0  0  0  0  0  0  0  0  0  0  0
    5.4285   -1.2842   -1.6999 H   0  0  0  0  0  0  0  0  0  0  0  0
    3.3880   -0.5500   -0.3970 H   0  0  0  0  0  0  0  0  0  0  0  0
    2.7531    0.2334   -1.8362 H   0  0  0  0  0  0  0  0  0  0  0  0
    5.3666    0.9322   -0.3635 H   0  0  0  0  0  0  0  0  0  0  0  0
    3.8287    1.8189   -0.2399 H   0  0  0  0  0  0  0  0  0  0  0  0
    4.2405    3.9116   -2.8770 H   0  0  0  0  0  0  0  0  0  0  0  0
    3.0226    2.9833   -2.0181 H   0  0  0  0  0  0  0  0  0  0  0  0
    4.2368    2.2222   -4.7574 H   0  0  0  0  0  0  0  0  0  0  0  0
    2.6336    2.9427   -4.4857 H   0  0  0  0  0  0  0  0  0  0  0  0
    2.9767    1.2920   -3.9106 H   0  0  0  0  0  0  0  0  0  0  0  0
    6.2378    4.8198   -2.1765 H   0  0  0  0  0  0  0  0  0  0  0  0
    7.3050    6.4288   -3.7237 H   0  0  0  0  0  0  0  0  0  0  0  0
    7.4593    1.5734   -4.7460 H   0  0  0  0  0  0  0  0  0  0  0  0
  1  2  1  0
  1 20  1  0
  1 21  1  0
  1 22  1  0
  2  3  1  0
  2 23  1  0
  2 24  1  0
  3  4  1  0
  3 25  1  0
  3 26  1  0
  4  5  1  0
  4 27  1  0
  4 28  1  0
  5  6  1  0
  5  8  1  0
  6  7  1  0
  6 29  1  0
  6 30  1  0
  7 31  1  0
  7 32  1  0
  7 33  1  0
  8  9  2  0
  8 10  1  0
 10 11  2  0
 10 19  1  0
 11 12  1  0
 11 34  1  0
 12 13  2  0
 12 35  1  0
 13 14  1  0
 13 15  1  0
 15 16  1  0
 15 19  2  0
 16 17  2  0
 16 18  1  0
 19 36  1  0
M  CHG  2  16   1  18  -1
M  END

