
     RDKit          3D

 56 59  0  0  0  0  0  0  0  0999 V2000
    6.8008    3.4508   -1.9591 C   0  0  0  0  0  0  0  0  0  0  0  0
    5.6634    4.1826   -1.2433 C   0  0  0  0  0  0  0  0  0  0  0  0
    4.8231    3.3235   -0.4153 N   0  0  0  0  0  0  0  0  0  0  0  0
    3.9131    2.4751   -1.2397 C   0  0  0  0  0  0  0  0  0  0  0  0
    3.1772    1.2155   -0.6411 C   0  0  0  0  0  0  0  0  0  0  0  0
    2.0069    1.5475    0.3718 C   0  0  1  0  0  0  0  0  0  0  0  0
    2.1671    1.0955    1.8952 C   0  0  0  0  0  0  0  0  0  0  0  0
    2.8159    2.3412    2.6331 C   0  0  0  0  0  0  0  0  0  0  0  0
    3.3252    3.0159    1.3490 C   0  0  2  0  0  0  0  0  0  0  0  0
    4.2865    4.0426    0.7825 C   0  0  0  0  0  0  0  0  0  0  0  0
    2.1172    2.9862    0.5143 N   0  0  0  0  0  0  0  0  0  0  0  0
    1.1107    3.9140    0.7230 C   0  0  0  0  0  0  0  0  0  0  0  0
    1.2870    4.9255    1.3909 O   0  0  0  0  0  0  0  0  0  0  0  0
   -0.0862    3.6289    0.0953 N   0  0  0  0  0  0  0  0  0  0  0  0
   -1.1568    4.6062    0.0507 C   0  0  0  0  0  0  0  0  0  0  0  0
   -2.5532    3.9805    0.2161 C   0  0  0  0  0  0  0  0  0  0  0  0
   -2.9346    3.0009   -0.8612 C   0  0  0  0  0  0  0  0  0  0  0  0
   -3.6111    3.2843   -2.0281 C   0  0  0  0  0  0  0  0  0  0  0  0
   -3.7460    2.1417   -2.7918 N   0  0  0  0  0  0  0  0  0  0  0  0
   -4.2192    2.0906   -3.6830 H   0  0  0  0  0  0  0  0  0  0  0  0
   -3.1627    1.0818   -2.1322 C   0  0  0  0  0  0  0  0  0  0  0  0
   -3.0660   -0.2707   -2.5162 C   0  0  0  0  0  0  0  0  0  0  0  0
   -3.6402   -0.7530   -3.8229 C   0  0  0  0  0  0  0  0  0  0  0  0
   -2.4177   -1.1162   -1.6152 C   0  0  0  0  0  0  0  0  0  0  0  0
   -1.8936   -0.6480   -0.3894 C   0  0  0  0  0  0  0  0  0  0  0  0
   -1.9956    0.6902   -0.0258 C   0  0  0  0  0  0  0  0  0  0  0  0
   -2.6368    1.5856   -0.9079 C   0  0  0  0  0  0  0  0  0  0  0  0
    7.4463    4.1714   -2.4873 H   0  0  0  0  0  0  0  0  0  0  0  0
    6.4366    2.7322   -2.7100 H   0  0  0  0  0  0  0  0  0  0  0  0
    7.4166    2.8964   -1.2334 H   0  0  0  0  0  0  0  0  0  0  0  0
    5.0635    4.7576   -1.9869 H   0  0  0  0  0  0  0  0  0  0  0  0
    6.1115    4.9387   -0.5780 H   0  0  0  0  0  0  0  0  0  0  0  0
    4.5549    2.0655   -2.0344 H   0  0  0  0  0  0  0  0  0  0  0  0
    3.1470    3.0936   -1.7524 H   0  0  0  0  0  0  0  0  0  0  0  0
    3.9122    0.5241   -0.1961 H   0  0  0  0  0  0  0  0  0  0  0  0
    2.7570    0.6841   -1.5125 H   0  0  0  0  0  0  0  0  0  0  0  0
    1.0388    1.2149   -0.0278 H   0  0  0  0  0  0  0  0  0  0  0  0
    2.8032    0.2002    1.9892 H   0  0  0  0  0  0  0  0  0  0  0  0
    1.1799    0.8430    2.3105 H   0  0  0  0  0  0  0  0  0  0  0  0
    3.6196    2.0360    3.3199 H   0  0  0  0  0  0  0  0  0  0  0  0
    2.0781    2.9403    3.1861 H   0  0  0  0  0  0  0  0  0  0  0  0
    3.9237    2.1648    1.0214 H   0  0  0  0  0  0  0  0  0  0  0  0
    5.1340    4.2567    1.4549 H   0  0  0  0  0  0  0  0  0  0  0  0
    3.7826    4.9979    0.5449 H   0  0  0  0  0  0  0  0  0  0  0  0
   -0.0955    2.9036   -0.6122 H   0  0  0  0  0  0  0  0  0  0  0  0
   -1.1308    5.1768   -0.8987 H   0  0  0  0  0  0  0  0  0  0  0  0
   -0.9591    5.3223    0.8603 H   0  0  0  0  0  0  0  0  0  0  0  0
   -3.2849    4.8055    0.2339 H   0  0  0  0  0  0  0  0  0  0  0  0
   -2.6076    3.4914    1.2032 H   0  0  0  0  0  0  0  0  0  0  0  0
   -4.0205    4.2328   -2.3735 H   0  0  0  0  0  0  0  0  0  0  0  0
   -3.1874   -0.2316   -4.6852 H   0  0  0  0  0  0  0  0  0  0  0  0
   -4.7301   -0.5810   -3.8773 H   0  0  0  0  0  0  0  0  0  0  0  0
   -3.4692   -1.8302   -3.9613 H   0  0  0  0  0  0  0  0  0  0  0  0
   -2.3175   -2.1758   -1.8672 H   0  0  0  0  0  0  0  0  0  0  0  0
   -1.4040   -1.3568    0.2833 H   0  0  0  0  0  0  0  0  0  0  0  0
   -1.5917    1.0428    0.9259 H   0  0  0  0  0  0  0  0  0  0  0  0
  1  2  1  0
  1 28  1  0
  1 29  1  0
  1 30  1  0
  2  3  1  0
  2 31  1  0
  2 32  1  0
  3  4  1  0
  3 10  1  0
  4  5  1  0
  4 33  1  0
  4 34  1  0
  5  6  1  0
  5 35  1  0
  5 36  1  0
  6  7  1  0
  6 11  1  0
  6 37  1  6
  7  8  1  0
  7 38  1  0
  7 39  1  0
  8  9  1  0
  8 40  1  0
  8 41  1  0
  9 10  1  0
  9 11  1  0
  9 42  1  6
 10 43  1  0
 10 44  1  0
 11 12  1  0
 12 13  2  0
 12 14  1  0
 14 15  1  0
 14 45  1  0
 15 16  1  0
 15 46  1  0
 15 47  1  0
 16 17  1  0
 16 48  1  0
 16 49  1  0
 17 18  2  0
 17 27  1  0
 18 19  1  0
 18 50  1  0
 19 20  1  0
 19 21  1  0
 21 22  1  0
 21 27  2  0
 22 23  1  0
 22 24  2  0
 23 51  1  0
 23 52  1  0
 23 53  1  0
 24 25  1  0
 24 54  1  0
 25 26  2  0
 25 55  1  0
 26 27  1  0
 26 56  1  0
M  END

