
     RDKit          3D

 80 83  0  0  0  0  0  0  0  0999 V2000
    2.6099   -1.8613    9.3066 C   0  0  0  0  0  0  0  0  0  0  0  0
    3.3054   -1.1991    8.2747 O   0  0  0  0  0  0  0  0  0  0  0  0
    2.9783   -1.4544    6.9823 C   0  0  0  0  0  0  0  0  0  0  0  0
    1.9790   -2.3491    6.5750 C   0  0  0  0  0  0  0  0  0  0  0  0
    1.7347   -2.5230    5.2058 C   0  0  0  0  0  0  0  0  0  0  0  0
    2.4615   -1.8242    4.2437 C   0  0  0  0  0  0  0  0  0  0  0  0
    3.4662   -0.9230    4.6504 C   0  0  0  0  0  0  0  0  0  0  0  0
    4.2251   -0.0988    3.6249 C   0  0  0  0  0  0  0  0  0  0  0  0
    5.1211   -0.8482    2.7215 N   0  0  0  0  0  0  0  0  0  0  0  0
    4.5919   -1.1958    1.4982 C   0  0  0  0  0  0  0  0  0  0  0  0
    3.4278   -0.9716    1.2056 O   0  0  0  0  0  0  0  0  0  0  0  0
    5.5232   -1.8951    0.4844 C   0  0  0  0  0  0  0  0  0  0  0  0
    4.8212   -2.3806   -0.6929 N   0  0  0  0  0  0  0  0  0  0  0  0
    4.6114   -1.5243   -1.8242 C   0  0  0  0  0  0  0  0  0  0  0  0
    3.4706   -0.7152   -1.9297 C   0  0  0  0  0  0  0  0  0  0  0  0
    3.3155    0.1079   -3.0467 C   0  0  0  0  0  0  0  0  0  0  0  0
    4.2834    0.1431   -4.0556 C   0  0  0  0  0  0  0  0  0  0  0  0
    5.4153   -0.6672   -3.9370 C   0  0  0  0  0  0  0  0  0  0  0  0
    6.7470   -0.6364   -5.3057 Br  0  0  0  0  0  0  0  0  0  0  0  0
    5.5851   -1.5078   -2.8352 C   0  0  0  0  0  0  0  0  0  0  0  0
    3.8487   -3.7633   -0.5195 S   0  0  1  0  0  0  0  0  0  0  0  0
    4.0472   -4.1923    0.8720 O   0  0  0  0  0  0  0  0  0  0  0  0
    2.5186   -3.5052   -1.0670 O   0  0  0  0  0  0  0  0  0  0  0  0
    4.6264   -4.9770   -1.5880 C   0  0  0  0  0  0  0  0  0  0  0  0
    5.7398   -5.6898   -1.1329 C   0  0  0  0  0  0  0  0  0  0  0  0
    6.3418   -6.6215   -1.9790 C   0  0  0  0  0  0  0  0  0  0  0  0
    5.8461   -6.8602   -3.2723 C   0  0  0  0  0  0  0  0  0  0  0  0
    6.4836   -7.8885   -4.1728 C   0  0  0  0  0  0  0  0  0  0  0  0
    4.7202   -6.1350   -3.6971 C   0  0  0  0  0  0  0  0  0  0  0  0
    4.1041   -5.1993   -2.8652 C   0  0  0  0  0  0  0  0  0  0  0  0
    6.5449   -1.0554    3.0445 C   0  0  1  0  0  0  0  0  0  0  0  0
    7.1426    0.0073    3.9745 C   0  0  0  0  0  0  0  0  0  0  0  0
    6.9506   -2.4602    3.5679 C   0  0  0  0  0  0  0  0  0  0  0  0
    8.1403   -2.6788    3.7577 O   0  0  0  0  0  0  0  0  0  0  0  0
    5.9846   -3.3892    3.7510 N   0  0  0  0  0  0  0  0  0  0  0  0
    6.3280   -4.7615    4.1523 C   0  0  1  0  0  0  0  0  0  0  0  0
    6.5943   -4.8752    5.6674 C   0  0  0  0  0  0  0  0  0  0  0  0
    5.3129   -4.7697    6.5017 C   0  0  0  0  0  0  0  0  0  0  0  0
    4.2676   -5.8013    6.0556 C   0  0  0  0  0  0  0  0  0  0  0  0
    3.9660   -5.6768    4.5563 C   0  0  0  0  0  0  0  0  0  0  0  0
    5.2426   -5.7545    3.7056 C   0  0  0  0  0  0  0  0  0  0  0  0
    3.7151   -0.7493    6.0128 C   0  0  0  0  0  0  0  0  0  0  0  0
    2.7359   -2.9577    9.2508 H   0  0  0  0  0  0  0  0  0  0  0  0
    1.5299   -1.6275    9.2915 H   0  0  0  0  0  0  0  0  0  0  0  0
    3.0375   -1.5027   10.2526 H   0  0  0  0  0  0  0  0  0  0  0  0
    1.3887   -2.9059    7.3027 H   0  0  0  0  0  0  0  0  0  0  0  0
    0.9492   -3.2152    4.8914 H   0  0  0  0  0  0  0  0  0  0  0  0
    2.2477   -1.9516    3.1808 H   0  0  0  0  0  0  0  0  0  0  0  0
    4.8074    0.6749    4.1370 H   0  0  0  0  0  0  0  0  0  0  0  0
    3.4971    0.4049    2.9750 H   0  0  0  0  0  0  0  0  0  0  0  0
    6.0464   -2.7273    0.9736 H   0  0  0  0  0  0  0  0  0  0  0  0
    6.2928   -1.1868    0.1383 H   0  0  0  0  0  0  0  0  0  0  0  0
    2.7346   -0.7443   -1.1280 H   0  0  0  0  0  0  0  0  0  0  0  0
    2.4279    0.7394   -3.1345 H   0  0  0  0  0  0  0  0  0  0  0  0
    4.1613    0.7920   -4.9245 H   0  0  0  0  0  0  0  0  0  0  0  0
    6.4624   -2.1502   -2.7511 H   0  0  0  0  0  0  0  0  0  0  0  0
    6.1242   -5.5248   -0.1250 H   0  0  0  0  0  0  0  0  0  0  0  0
    7.2128   -7.1798   -1.6251 H   0  0  0  0  0  0  0  0  0  0  0  0
    7.5067   -8.1320   -3.8508 H   0  0  0  0  0  0  0  0  0  0  0  0
    6.5248   -7.5394   -5.2163 H   0  0  0  0  0  0  0  0  0  0  0  0
    5.9031   -8.8275   -4.1685 H   0  0  0  0  0  0  0  0  0  0  0  0
    4.3145   -6.3073   -4.6980 H   0  0  0  0  0  0  0  0  0  0  0  0
    3.2210   -4.6476   -3.1909 H   0  0  0  0  0  0  0  0  0  0  0  0
    7.1125   -0.9722    2.1060 H   0  0  0  0  0  0  0  0  0  0  0  0
    6.7107   -0.0308    4.9851 H   0  0  0  0  0  0  0  0  0  0  0  0
    7.0081    1.0194    3.5643 H   0  0  0  0  0  0  0  0  0  0  0  0
    8.2164   -0.2007    4.0642 H   0  0  0  0  0  0  0  0  0  0  0  0
    5.0163   -3.1393    3.5780 H   0  0  0  0  0  0  0  0  0  0  0  0
    7.2712   -4.9895    3.6316 H   0  0  0  0  0  0  0  0  0  0  0  0
    7.3318   -4.1119    5.9596 H   0  0  0  0  0  0  0  0  0  0  0  0
    7.0706   -5.8560    5.8486 H   0  0  0  0  0  0  0  0  0  0  0  0
    4.8898   -3.7549    6.3987 H   0  0  0  0  0  0  0  0  0  0  0  0
    5.5499   -4.8979    7.5715 H   0  0  0  0  0  0  0  0  0  0  0  0
    3.3397   -5.6864    6.6412 H   0  0  0  0  0  0  0  0  0  0  0  0
    4.6469   -6.8187    6.2686 H   0  0  0  0  0  0  0  0  0  0  0  0
    3.4484   -4.7194    4.3695 H   0  0  0  0  0  0  0  0  0  0  0  0
    3.2625   -6.4631    4.2353 H   0  0  0  0  0  0  0  0  0  0  0  0
    5.0026   -5.5969    2.6427 H   0  0  0  0  0  0  0  0  0  0  0  0
    5.6723   -6.7678    3.7960 H   0  0  0  0  0  0  0  0  0  0  0  0
    4.4782   -0.0514    6.3661 H   0  0  0  0  0  0  0  0  0  0  0  0
  1  2  1  0
  1 43  1  0
  1 44  1  0
  1 45  1  0
  2  3  1  0
  3  4  2  0
  3 42  1  0
  4  5  1  0
  4 46  1  0
  5  6  2  0
  5 47  1  0
  6  7  1  0
  6 48  1  0
  7  8  1  0
  7 42  2  0
  8  9  1  0
  8 49  1  0
  8 50  1  0
  9 10  1  0
  9 31  1  0
 10 11  2  0
 10 12  1  0
 12 13  1  0
 12 51  1  0
 12 52  1  0
 13 14  1  0
 21 13  1  1
 14 15  2  0
 14 20  1  0
 15 16  1  0
 15 53  1  0
 16 17  2  0
 16 54  1  0
 17 18  1  0
 17 55  1  0
 18 19  1  0
 18 20  2  0
 20 56  1  0
 21 22  2  0
 21 23  2  0
 21 24  1  0
 24 25  2  0
 24 30  1  0
 25 26  1  0
 25 57  1  0
 26 27  2  0
 26 58  1  0
 27 28  1  0
 27 29  1  0
 28 59  1  0
 28 60  1  0
 28 61  1  0
 29 30  2  0
 29 62  1  0
 30 63  1  0
 31 32  1  0
 31 33  1  0
 31 64  1  6
 32 65  1  0
 32 66  1  0
 32 67  1  0
 33 34  2  0
 33 35  1  0
 35 36  1  0
 35 68  1  0
 36 37  1  0
 36 41  1  0
 36 69  1  6
 37 38  1  0
 37 70  1  0
 37 71  1  0
 38 39  1  0
 38 72  1  0
 38 73  1  0
 39 40  1  0
 39 74  1  0
 39 75  1  0
 40 41  1  0
 40 76  1  0
 40 77  1  0
 41 78  1  0
 41 79  1  0
 42 80  1  0
M  END

