
     RDKit          3D

 38 39  0  0  0  0  0  0  0  0999 V2000
    1.3172    0.0677    0.6239 C   0  0  0  0  0  0  0  0  0  0  0  0
    2.5021    0.0598   -0.2058 N   0  0  0  0  0  0  0  0  0  0  0  0
    3.0796   -1.1129   -0.6391 C   0  0  0  0  0  0  0  0  0  0  0  0
    2.6219   -2.2134   -0.3755 O   0  0  0  0  0  0  0  0  0  0  0  0
    4.2225   -0.9116   -1.4047 N   0  0  0  0  0  0  0  0  0  0  0  0
    5.0556   -1.8741   -1.9991 C   0  0  0  0  0  0  0  0  0  0  0  0
    6.1647   -1.4135   -2.7351 C   0  0  0  0  0  0  0  0  0  0  0  0
    7.0216   -2.3275   -3.3432 C   0  0  0  0  0  0  0  0  0  0  0  0
    6.8149   -3.7053   -3.2455 C   0  0  0  0  0  0  0  0  0  0  0  0
    5.7081   -4.1631   -2.5108 C   0  0  0  0  0  0  0  0  0  0  0  0
    5.4035   -5.5280   -2.3467 N   0  0  0  0  0  0  0  0  0  0  0  0
    6.0643   -6.6271   -2.8292 C   0  0  0  0  0  0  0  0  0  0  0  0
    7.0803   -6.5928   -3.5162 O   0  0  0  0  0  0  0  0  0  0  0  0
    5.4671   -7.9331   -2.4659 C   0  0  0  0  0  0  0  0  0  0  0  0
    4.3695   -8.3605   -1.7354 C   0  0  0  0  0  0  0  0  0  0  0  0
    4.3610   -9.7860   -1.7750 C   0  0  0  0  0  0  0  0  0  0  0  0
    3.3479  -10.6385   -1.1155 C   0  0  0  0  0  0  0  0  0  0  0  0
    3.4887  -12.1454   -1.2590 C   0  0  0  0  0  0  0  0  0  0  0  0
    2.4341  -10.1451   -0.4799 O   0  0  0  0  0  0  0  0  0  0  0  0
    5.4674  -10.1755   -2.5375 C   0  0  0  0  0  0  0  0  0  0  0  0
    6.1121   -9.0560   -2.9388 N   0  0  0  0  0  0  0  0  0  0  0  0
    6.9516   -8.9790   -3.5055 H   0  0  0  0  0  0  0  0  0  0  0  0
    4.8330   -3.2534   -1.8912 C   0  0  0  0  0  0  0  0  0  0  0  0
    0.5061    0.6592    0.1660 H   0  0  0  0  0  0  0  0  0  0  0  0
    1.5200    0.4729    1.6309 H   0  0  0  0  0  0  0  0  0  0  0  0
    0.9787   -0.9711    0.7291 H   0  0  0  0  0  0  0  0  0  0  0  0
    2.9451    0.9453   -0.4151 H   0  0  0  0  0  0  0  0  0  0  0  0
    4.5027    0.0460   -1.5769 H   0  0  0  0  0  0  0  0  0  0  0  0
    6.3512   -0.3394   -2.8278 H   0  0  0  0  0  0  0  0  0  0  0  0
    7.8790   -1.9582   -3.9120 H   0  0  0  0  0  0  0  0  0  0  0  0
    7.4834   -4.4182   -3.7200 H   0  0  0  0  0  0  0  0  0  0  0  0
    4.5754   -5.7128   -1.7923 H   0  0  0  0  0  0  0  0  0  0  0  0
    3.6273   -7.7598   -1.2130 H   0  0  0  0  0  0  0  0  0  0  0  0
    4.4516  -12.4886   -0.8461 H   0  0  0  0  0  0  0  0  0  0  0  0
    3.4625  -12.4410   -2.3208 H   0  0  0  0  0  0  0  0  0  0  0  0
    2.6663  -12.6364   -0.7231 H   0  0  0  0  0  0  0  0  0  0  0  0
    5.8246  -11.1660   -2.8112 H   0  0  0  0  0  0  0  0  0  0  0  0
    3.9729   -3.6022   -1.3220 H   0  0  0  0  0  0  0  0  0  0  0  0
  1  2  1  0
  1 24  1  0
  1 25  1  0
  1 26  1  0
  2  3  1  0
  2 27  1  0
  3  4  2  0
  3  5  1  0
  5  6  1  0
  5 28  1  0
  6  7  2  0
  6 23  1  0
  7  8  1  0
  7 29  1  0
  8  9  2  0
  8 30  1  0
  9 10  1  0
  9 31  1  0
 10 11  1  0
 10 23  2  0
 11 12  1  0
 11 32  1  0
 12 13  2  0
 12 14  1  0
 14 15  2  0
 14 21  1  0
 15 16  1  0
 15 33  1  0
 16 17  1  0
 16 20  2  0
 17 18  1  0
 17 19  2  0
 18 34  1  0
 18 35  1  0
 18 36  1  0
 20 21  1  0
 20 37  1  0
 21 22  1  0
 23 38  1  0
M  END

