
     RDKit          3D

 64 69  0  0  0  0  0  0  0  0999 V2000
    1.7661   -2.6733    4.9958 C   0  0  0  0  0  0  0  0  0  0  0  0
    0.9629   -3.8063    4.4482 C   0  0  0  0  0  0  0  0  0  0  0  0
   -0.0361   -4.3303    5.1703 N   0  0  0  0  0  0  0  0  0  0  0  0
   -0.5430   -5.3157    4.4104 N   0  0  0  0  0  0  0  0  0  0  0  0
   -1.5749   -6.1325    4.7371 C   0  0  0  0  0  0  0  0  0  0  0  0
   -1.9506   -7.0917    3.8264 C   0  0  0  0  0  0  0  0  0  0  0  0
   -1.2393   -7.1769    2.5964 C   0  0  0  0  0  0  0  0  0  0  0  0
   -0.2381   -6.3803    2.2819 N   0  0  0  0  0  0  0  0  0  0  0  0
    0.1211   -5.4432    3.1791 C   0  0  0  0  0  0  0  0  0  0  0  0
    1.1139   -4.4553    3.1893 C   0  0  0  0  0  0  0  0  0  0  0  0
    2.1170   -4.1457    2.1466 C   0  0  0  0  0  0  0  0  0  0  0  0
    2.9752   -3.2796    2.3082 O   0  0  0  0  0  0  0  0  0  0  0  0
    2.0096   -4.8721    0.9949 N   0  0  0  0  0  0  0  0  0  0  0  0
    3.0097   -4.7600   -0.0457 C   0  0  2  0  0  0  0  0  0  0  0  0
    3.2779   -3.7009   -0.1205 H   0  0  0  0  0  0  0  0  0  0  0  0
    2.4419   -5.2375   -1.3875 C   0  0  0  0  0  0  0  0  0  0  0  0
    4.2633   -5.5721    0.3117 C   0  0  0  0  0  0  0  0  0  0  0  0
    4.0747   -6.7394    0.8302 N   0  0  0  0  0  0  0  0  0  0  0  0
    5.1590   -7.5348    1.1355 C   0  0  0  0  0  0  0  0  0  0  0  0
    4.9109   -8.7992    1.7117 C   0  0  0  0  0  0  0  0  0  0  0  0
    5.9696   -9.6359    2.0328 C   0  0  0  0  0  0  0  0  0  0  0  0
    7.2901   -9.2385    1.7900 C   0  0  0  0  0  0  0  0  0  0  0  0
    7.5788   -7.9873    1.2172 C   0  0  0  0  0  0  0  0  0  0  0  0
    8.9427   -7.6415    0.9951 C   0  0  0  0  0  0  0  0  0  0  0  0
   10.1251   -7.3965    0.8277 C   0  0  0  0  0  0  0  0  0  0  0  0
   11.4627   -6.9703    0.5747 C   0  0  0  0  0  0  0  0  0  0  0  0
   11.6829   -5.6900    0.0175 C   0  0  0  0  0  0  0  0  0  0  0  0
   12.9805   -5.2503   -0.2387 C   0  0  0  0  0  0  0  0  0  0  0  0
   14.0761   -6.0719    0.0528 C   0  0  0  0  0  0  0  0  0  0  0  0
   13.8680   -7.3409    0.6045 C   0  0  0  0  0  0  0  0  0  0  0  0
   12.5736   -7.7905    0.8651 C   0  0  0  0  0  0  0  0  0  0  0  0
    6.4912   -7.1207    0.8842 C   0  0  0  0  0  0  0  0  0  0  0  0
    6.7148   -5.7960    0.2818 C   0  0  0  0  0  0  0  0  0  0  0  0
    7.7911   -5.3056    0.0070 O   0  0  0  0  0  0  0  0  0  0  0  0
    5.5155   -5.0595    0.0209 N   0  0  0  0  0  0  0  0  0  0  0  0
    5.7019   -3.7372   -0.5357 C   0  0  0  0  0  0  0  0  0  0  0  0
    6.0584   -3.6017   -1.8815 C   0  0  0  0  0  0  0  0  0  0  0  0
    6.2652   -2.3292   -2.4182 C   0  0  0  0  0  0  0  0  0  0  0  0
    6.1181   -1.1959   -1.6121 C   0  0  0  0  0  0  0  0  0  0  0  0
    5.7635   -1.3387   -0.2674 C   0  0  0  0  0  0  0  0  0  0  0  0
    5.5607   -2.6091    0.2791 C   0  0  0  0  0  0  0  0  0  0  0  0
    1.3824   -2.3880    5.9847 H   0  0  0  0  0  0  0  0  0  0  0  0
    1.7329   -1.8088    4.3163 H   0  0  0  0  0  0  0  0  0  0  0  0
    2.8271   -2.9545    5.0739 H   0  0  0  0  0  0  0  0  0  0  0  0
   -2.0332   -5.9636    5.7129 H   0  0  0  0  0  0  0  0  0  0  0  0
   -2.7744   -7.7704    4.0468 H   0  0  0  0  0  0  0  0  0  0  0  0
   -1.5203   -7.9361    1.8582 H   0  0  0  0  0  0  0  0  0  0  0  0
    1.3997   -5.6886    1.0006 H   0  0  0  0  0  0  0  0  0  0  0  0
    3.1818   -5.1072   -2.1913 H   0  0  0  0  0  0  0  0  0  0  0  0
    1.5427   -4.6577   -1.6450 H   0  0  0  0  0  0  0  0  0  0  0  0
    2.1777   -6.3054   -1.3353 H   0  0  0  0  0  0  0  0  0  0  0  0
    3.8721   -9.0817    1.8897 H   0  0  0  0  0  0  0  0  0  0  0  0
    5.7767  -10.6147    2.4796 H   0  0  0  0  0  0  0  0  0  0  0  0
    8.1199   -9.8999    2.0445 H   0  0  0  0  0  0  0  0  0  0  0  0
   10.8178   -5.0613   -0.2038 H   0  0  0  0  0  0  0  0  0  0  0  0
   13.1403   -4.2583   -0.6692 H   0  0  0  0  0  0  0  0  0  0  0  0
   15.0921   -5.7230   -0.1496 H   0  0  0  0  0  0  0  0  0  0  0  0
   14.7214   -7.9844    0.8333 H   0  0  0  0  0  0  0  0  0  0  0  0
   12.4076   -8.7803    1.2959 H   0  0  0  0  0  0  0  0  0  0  0  0
    6.1852   -4.4935   -2.4985 H   0  0  0  0  0  0  0  0  0  0  0  0
    6.5465   -2.2241   -3.4689 H   0  0  0  0  0  0  0  0  0  0  0  0
    6.2803   -0.2005   -2.0330 H   0  0  0  0  0  0  0  0  0  0  0  0
    5.6421   -0.4564    0.3657 H   0  0  0  0  0  0  0  0  0  0  0  0
    5.2523   -2.7287    1.3190 H   0  0  0  0  0  0  0  0  0  0  0  0
  1  2  1  0
  1 42  1  0
  1 43  1  0
  1 44  1  0
  2  3  2  0
  2 10  1  0
  3  4  1  0
  4  5  1  0
  4  9  1  0
  5  6  2  0
  5 45  1  0
  6  7  1  0
  6 46  1  0
  7  8  2  0
  7 47  1  0
  8  9  1  0
  9 10  2  0
 10 11  1  0
 11 12  2  0
 11 13  1  0
 13 14  1  0
 13 48  1  0
 14 15  1  6
 14 16  1  0
 14 17  1  0
 16 49  1  0
 16 50  1  0
 16 51  1  0
 17 18  2  0
 17 35  1  0
 18 19  1  0
 19 20  2  0
 19 32  1  0
 20 21  1  0
 20 52  1  0
 21 22  2  0
 21 53  1  0
 22 23  1  0
 22 54  1  0
 23 24  1  0
 23 32  2  0
 24 25  3  0
 25 26  1  0
 26 27  2  0
 26 31  1  0
 27 28  1  0
 27 55  1  0
 28 29  2  0
 28 56  1  0
 29 30  1  0
 29 57  1  0
 30 31  2  0
 30 58  1  0
 31 59  1  0
 32 33  1  0
 33 34  2  0
 33 35  1  0
 35 36  1  0
 36 37  2  0
 36 41  1  0
 37 38  1  0
 37 60  1  0
 38 39  2  0
 38 61  1  0
 39 40  1  0
 39 62  1  0
 40 41  2  0
 40 63  1  0
 41 64  1  0
M  END

