
     RDKit          3D

 35 35  0  0  0  0  0  0  0  0999 V2000
    1.0942   -0.1994    0.0986 C   0  0  0  0  0  0  0  0  0  0  0  0
    2.5261    0.0087   -0.0161 N   0  0  0  0  0  0  0  0  0  0  0  0
    2.9820    0.6018   -1.2725 C   0  0  1  0  0  0  0  0  0  0  0  0
    2.4421    2.0403   -1.4618 C   0  0  0  0  0  0  0  0  0  0  0  0
    2.7796    3.0281   -0.3438 C   0  0  0  0  0  0  0  0  0  0  0  0
    2.2742    4.4483   -0.6145 C   0  0  0  0  0  0  0  0  0  0  0  0
    2.8635    5.0044   -1.8302 N   0  0  0  0  0  0  0  0  0  0  0  0
    4.5024    0.5463   -1.3560 C   0  0  0  0  0  0  0  0  0  0  0  0
    5.3187    0.5780   -0.2195 C   0  0  0  0  0  0  0  0  0  0  0  0
    6.7139    0.5551   -0.3248 C   0  0  0  0  0  0  0  0  0  0  0  0
    7.3403    0.5051   -1.5787 C   0  0  0  0  0  0  0  0  0  0  0  0
    8.6786    0.4799   -1.7684 O   0  0  0  0  0  0  0  0  0  0  0  0
    9.5380    0.5083   -0.6515 C   0  0  0  0  0  0  0  0  0  0  0  0
    6.5169    0.4729   -2.7251 C   0  0  0  0  0  0  0  0  0  0  0  0
    7.3196    0.3899   -4.4505 Br  0  0  0  0  0  0  0  0  0  0  0  0
    5.1301    0.4909   -2.6116 C   0  0  0  0  0  0  0  0  0  0  0  0
    0.8830   -0.7978    0.9985 H   0  0  0  0  0  0  0  0  0  0  0  0
    0.6373   -0.7214   -0.7724 H   0  0  0  0  0  0  0  0  0  0  0  0
    0.5633    0.7585    0.2189 H   0  0  0  0  0  0  0  0  0  0  0  0
    3.0097   -0.8773    0.1206 H   0  0  0  0  0  0  0  0  0  0  0  0
    2.5949    0.0251   -2.1449 H   0  0  0  0  0  0  0  0  0  0  0  0
    1.3452    1.9924   -1.5840 H   0  0  0  0  0  0  0  0  0  0  0  0
    2.8255    2.4325   -2.4161 H   0  0  0  0  0  0  0  0  0  0  0  0
    3.8743    3.0625   -0.1953 H   0  0  0  0  0  0  0  0  0  0  0  0
    2.3615    2.6730    0.6126 H   0  0  0  0  0  0  0  0  0  0  0  0
    2.4528    5.0630    0.2954 H   0  0  0  0  0  0  0  0  0  0  0  0
    1.1780    4.4225   -0.7528 H   0  0  0  0  0  0  0  0  0  0  0  0
    3.8678    5.1413   -1.7042 H   0  0  0  0  0  0  0  0  0  0  0  0
    2.4731    5.9242   -2.0335 H   0  0  0  0  0  0  0  0  0  0  0  0
    4.8538    0.6175    0.7671 H   0  0  0  0  0  0  0  0  0  0  0  0
    7.3146    0.5779    0.5849 H   0  0  0  0  0  0  0  0  0  0  0  0
   10.5620    0.4828   -1.0474 H   0  0  0  0  0  0  0  0  0  0  0  0
    9.3865   -0.3663    0.0066 H   0  0  0  0  0  0  0  0  0  0  0  0
    9.4075    1.4293   -0.0551 H   0  0  0  0  0  0  0  0  0  0  0  0
    4.5274    0.4571   -3.5221 H   0  0  0  0  0  0  0  0  0  0  0  0
  1  2  1  0
  1 17  1  0
  1 18  1  0
  1 19  1  0
  2  3  1  0
  2 20  1  0
  3  4  1  0
  3  8  1  0
  3 21  1  6
  4  5  1  0
  4 22  1  0
  4 23  1  0
  5  6  1  0
  5 24  1  0
  5 25  1  0
  6  7  1  0
  6 26  1  0
  6 27  1  0
  7 28  1  0
  7 29  1  0
  8  9  2  0
  8 16  1  0
  9 10  1  0
  9 30  1  0
 10 11  2  0
 10 31  1  0
 11 12  1  0
 11 14  1  0
 12 13  1  0
 13 32  1  0
 13 33  1  0
 13 34  1  0
 14 15  1  0
 14 16  2  0
 16 35  1  0
M  END

