
     RDKit          3D

 46 49  0  0  0  0  0  0  0  0999 V2000
    1.5476    1.0440    0.0885 C   0  0  0  0  0  0  0  0  0  0  0  0
    2.2189   -0.1859   -0.5199 C   0  0  0  0  0  0  0  0  0  0  0  0
    2.5665   -0.0151   -1.9230 N   0  0  0  0  0  0  0  0  0  0  0  0
    1.6734   -0.3608   -2.8923 N   0  0  0  0  0  0  0  0  0  0  0  0
    2.1534   -0.0807   -4.0482 N   0  0  0  0  0  0  0  0  0  0  0  0
    3.4032    0.4744   -3.8790 C   0  0  0  0  0  0  0  0  0  0  0  0
    4.3354    0.9373   -4.8153 C   0  0  0  0  0  0  0  0  0  0  0  0
    5.5380    1.4529   -4.3288 C   0  0  0  0  0  0  0  0  0  0  0  0
    6.5254    1.9468   -5.3242 C   0  0  0  0  0  0  0  0  0  0  0  0
    6.3535    1.9246   -6.5291 O   0  0  0  0  0  0  0  0  0  0  0  0
    7.6475    2.4253   -4.7586 O   0  0  0  0  0  0  0  0  0  0  0  0
    8.6263    3.0536   -5.6029 C   0  0  0  0  0  0  0  0  0  0  0  0
    9.6363    2.0657   -6.2179 C   0  0  0  0  0  0  0  0  0  0  0  0
   10.8080    2.1036   -5.8876 O   0  0  0  0  0  0  0  0  0  0  0  0
    9.0870    1.2177   -7.1411 N   0  0  0  0  0  0  0  0  0  0  0  0
    9.6975    0.1782   -7.8690 C   0  0  0  0  0  0  0  0  0  0  0  0
   11.0896   -0.1161   -7.7674 C   0  0  0  0  0  0  0  0  0  0  0  0
   11.6256   -1.1467   -8.5076 C   0  0  0  0  0  0  0  0  0  0  0  0
   10.8324   -1.9387   -9.3824 C   0  0  0  0  0  0  0  0  0  0  0  0
   11.3698   -3.0059  -10.1539 C   0  0  0  0  0  0  0  0  0  0  0  0
   10.5641   -3.7500  -10.9906 C   0  0  0  0  0  0  0  0  0  0  0  0
    9.1796   -3.4568  -11.0920 C   0  0  0  0  0  0  0  0  0  0  0  0
    8.6272   -2.4285  -10.3578 C   0  0  0  0  0  0  0  0  0  0  0  0
    9.4319   -1.6411   -9.4845 C   0  0  0  0  0  0  0  0  0  0  0  0
    8.8965   -0.5778   -8.7142 C   0  0  0  0  0  0  0  0  0  0  0  0
    5.8050    1.5020   -2.9294 C   0  0  0  0  0  0  0  0  0  0  0  0
    4.8913    1.0436   -1.9937 C   0  0  0  0  0  0  0  0  0  0  0  0
    3.6806    0.5264   -2.4918 C   0  0  0  0  0  0  0  0  0  0  0  0
    1.2914    0.8501    1.1417 H   0  0  0  0  0  0  0  0  0  0  0  0
    0.6211    1.2858   -0.4536 H   0  0  0  0  0  0  0  0  0  0  0  0
    2.2090    1.9237    0.0537 H   0  0  0  0  0  0  0  0  0  0  0  0
    1.5517   -1.0586   -0.4744 H   0  0  0  0  0  0  0  0  0  0  0  0
    3.1414   -0.4461    0.0227 H   0  0  0  0  0  0  0  0  0  0  0  0
    4.1389    0.9013   -5.8873 H   0  0  0  0  0  0  0  0  0  0  0  0
    9.1978    3.7211   -4.9494 H   0  0  0  0  0  0  0  0  0  0  0  0
    8.1138    3.6287   -6.3901 H   0  0  0  0  0  0  0  0  0  0  0  0
    8.0877    1.3484   -7.3038 H   0  0  0  0  0  0  0  0  0  0  0  0
   11.7068    0.4835   -7.1028 H   0  0  0  0  0  0  0  0  0  0  0  0
   12.6938   -1.3658   -8.4243 H   0  0  0  0  0  0  0  0  0  0  0  0
   12.4376   -3.2277  -10.0720 H   0  0  0  0  0  0  0  0  0  0  0  0
   10.9889   -4.5677  -11.5782 H   0  0  0  0  0  0  0  0  0  0  0  0
    8.5491   -4.0520  -11.7577 H   0  0  0  0  0  0  0  0  0  0  0  0
    7.5598   -2.2041  -10.4374 H   0  0  0  0  0  0  0  0  0  0  0  0
    7.8277   -0.3567   -8.7914 H   0  0  0  0  0  0  0  0  0  0  0  0
    6.7595    1.9117   -2.5982 H   0  0  0  0  0  0  0  0  0  0  0  0
    5.1099    1.0870   -0.9253 H   0  0  0  0  0  0  0  0  0  0  0  0
  1  2  1  0
  1 29  1  0
  1 30  1  0
  1 31  1  0
  2  3  1  0
  2 32  1  0
  2 33  1  0
  3  4  1  0
  3 28  1  0
  4  5  2  0
  5  6  1  0
  6  7  1  0
  6 28  2  0
  7  8  2  0
  7 34  1  0
  8  9  1  0
  8 26  1  0
  9 10  2  0
  9 11  1  0
 11 12  1  0
 12 13  1  0
 12 35  1  0
 12 36  1  0
 13 14  2  0
 13 15  1  0
 15 16  1  0
 15 37  1  0
 16 17  2  0
 16 25  1  0
 17 18  1  0
 17 38  1  0
 18 19  2  0
 18 39  1  0
 19 20  1  0
 19 24  1  0
 20 21  2  0
 20 40  1  0
 21 22  1  0
 21 41  1  0
 22 23  2  0
 22 42  1  0
 23 24  1  0
 23 43  1  0
 24 25  2  0
 25 44  1  0
 26 27  2  0
 26 45  1  0
 27 28  1  0
 27 46  1  0
M  END

