
     RDKit          3D

 31 32  0  0  0  0  0  0  0  0999 V2000
    1.4429  -12.2495   -1.9642 Br  0  0  0  0  0  0  0  0  0  0  0  0
    0.9917  -10.6972   -2.9838 C   0  0  0  0  0  0  0  0  0  0  0  0
    0.0289  -10.7960   -3.9895 C   0  0  0  0  0  0  0  0  0  0  0  0
   -0.2913   -9.6494   -4.7242 C   0  0  0  0  0  0  0  0  0  0  0  0
    0.3397   -8.4344   -4.4544 C   0  0  0  0  0  0  0  0  0  0  0  0
    1.3089   -8.3460   -3.4437 C   0  0  0  0  0  0  0  0  0  0  0  0
    2.0020   -7.0273   -3.1789 C   0  0  0  0  0  0  0  0  0  0  0  0
    2.7851   -7.0956   -2.0199 O   0  0  0  0  0  0  0  0  0  0  0  0
    3.4997   -5.9162   -1.7265 C   0  0  0  0  0  0  0  0  0  0  0  0
    4.2796   -6.1063   -0.4255 C   0  0  2  0  0  0  0  0  0  0  0  0
    4.8890   -7.0229   -0.5450 H   0  0  0  0  0  0  0  0  0  0  0  0
    3.3716   -6.2360    0.8227 C   0  0  0  0  0  0  0  0  0  0  0  0
    3.4941   -4.8721    1.5215 C   0  0  0  0  0  0  0  0  0  0  0  0
    4.9400   -4.4782    1.2135 C   0  0  0  0  0  0  0  0  0  0  0  0
    5.0992   -4.9111   -0.1723 N   0  0  0  0  0  0  0  0  0  0  0  0
    1.6349   -9.4886   -2.7036 C   0  0  0  0  0  0  0  0  0  0  0  0
   -0.4630  -11.7483   -4.1936 H   0  0  0  0  0  0  0  0  0  0  0  0
   -1.0456   -9.7102   -5.5129 H   0  0  0  0  0  0  0  0  0  0  0  0
    0.0753   -7.5450   -5.0340 H   0  0  0  0  0  0  0  0  0  0  0  0
    1.2412   -6.2222   -3.0936 H   0  0  0  0  0  0  0  0  0  0  0  0
    2.6305   -6.7633   -4.0578 H   0  0  0  0  0  0  0  0  0  0  0  0
    2.8128   -5.0511   -1.6218 H   0  0  0  0  0  0  0  0  0  0  0  0
    4.2047   -5.6695   -2.5472 H   0  0  0  0  0  0  0  0  0  0  0  0
    3.7546   -7.0309    1.4826 H   0  0  0  0  0  0  0  0  0  0  0  0
    2.3408   -6.5096    0.5545 H   0  0  0  0  0  0  0  0  0  0  0  0
    3.2792   -4.9147    2.5999 H   0  0  0  0  0  0  0  0  0  0  0  0
    2.8048   -4.1392    1.0706 H   0  0  0  0  0  0  0  0  0  0  0  0
    5.6268   -4.9936    1.9211 H   0  0  0  0  0  0  0  0  0  0  0  0
    5.1214   -3.3946    1.3162 H   0  0  0  0  0  0  0  0  0  0  0  0
    6.0683   -5.0208   -0.4559 H   0  0  0  0  0  0  0  0  0  0  0  0
    2.3835   -9.4201   -1.9156 H   0  0  0  0  0  0  0  0  0  0  0  0
  1  2  1  0
  2  3  2  0
  2 16  1  0
  3  4  1  0
  3 17  1  0
  4  5  2  0
  4 18  1  0
  5  6  1  0
  5 19  1  0
  6  7  1  0
  6 16  2  0
  7  8  1  0
  7 20  1  0
  7 21  1  0
  8  9  1  0
  9 10  1  0
  9 22  1  0
  9 23  1  0
 10 11  1  6
 10 12  1  0
 10 15  1  0
 12 13  1  0
 12 24  1  0
 12 25  1  0
 13 14  1  0
 13 26  1  0
 13 27  1  0
 14 15  1  0
 14 28  1  0
 14 29  1  0
 15 30  1  0
 16 31  1  0
M  END

