
     RDKit          3D

 44 45  0  0  0  0  0  0  0  0999 V2000
    0.8131    0.3701   -0.5143 C   0  0  0  0  0  0  0  0  0  0  0  0
    2.2628   -0.0842   -0.2743 C   0  0  1  0  0  0  0  0  0  0  0  0
    2.5221   -1.5360   -0.7170 C   0  0  0  0  0  0  0  0  0  0  0  0
    2.6002   -1.6974   -2.2390 C   0  0  0  0  0  0  0  0  0  0  0  0
    3.6173   -0.7126   -2.8227 C   0  0  0  0  0  0  0  0  0  0  0  0
    3.3153    0.7207   -2.3857 C   0  0  0  0  0  0  0  0  0  0  0  0
    3.2509    0.8168   -0.9220 N   0  0  0  0  0  0  0  0  0  0  0  0
    3.4366    2.1137   -0.4075 C   0  0  0  0  0  0  0  0  0  0  0  0
    3.4661    3.0943   -1.1427 O   0  0  0  0  0  0  0  0  0  0  0  0
    3.6495    2.2307    1.0366 C   0  0  0  0  0  0  0  0  0  0  0  0
    3.4204    3.8151    1.7915 S   0  0  0  0  0  0  0  0  0  0  0  0
    4.1142    3.1625    3.2722 C   0  0  0  0  0  0  0  0  0  0  0  0
    4.1902    3.9379    4.3816 N   0  0  0  0  0  0  0  0  0  0  0  0
    4.7491    3.5599    5.7004 C   0  0  1  0  0  0  0  0  0  0  0  0
    6.2419    3.2055    5.5666 C   0  0  0  0  0  0  0  0  0  0  0  0
    4.5854    4.7955    6.5985 C   0  0  0  0  0  0  0  0  0  0  0  0
    3.9617    2.3767    6.2933 C   0  0  0  0  0  0  0  0  0  0  0  0
    4.5247    1.9165    3.1936 N   0  0  0  0  0  0  0  0  0  0  0  0
    4.2860    1.3953    1.9516 C   0  0  0  0  0  0  0  0  0  0  0  0
    4.6823    0.0998    1.7176 N   0  0  0  0  0  0  0  0  0  0  0  0
    0.1169   -0.2794    0.0404 H   0  0  0  0  0  0  0  0  0  0  0  0
    0.5243    0.3372   -1.5759 H   0  0  0  0  0  0  0  0  0  0  0  0
    0.6675    1.4013   -0.1574 H   0  0  0  0  0  0  0  0  0  0  0  0
    2.4432   -0.0391    0.8067 H   0  0  0  0  0  0  0  0  0  0  0  0
    1.7377   -2.1849   -0.2933 H   0  0  0  0  0  0  0  0  0  0  0  0
    3.4754   -1.8686   -0.2698 H   0  0  0  0  0  0  0  0  0  0  0  0
    1.6092   -1.5129   -2.6905 H   0  0  0  0  0  0  0  0  0  0  0  0
    2.8672   -2.7356   -2.4977 H   0  0  0  0  0  0  0  0  0  0  0  0
    3.6260   -0.7626   -3.9243 H   0  0  0  0  0  0  0  0  0  0  0  0
    4.6326   -0.9857   -2.4821 H   0  0  0  0  0  0  0  0  0  0  0  0
    2.3713    1.0691   -2.8484 H   0  0  0  0  0  0  0  0  0  0  0  0
    4.0889    1.4184   -2.7312 H   0  0  0  0  0  0  0  0  0  0  0  0
    3.8574    4.8887    4.2864 H   0  0  0  0  0  0  0  0  0  0  0  0
    6.8087    4.0589    5.1615 H   0  0  0  0  0  0  0  0  0  0  0  0
    6.3754    2.3480    4.8937 H   0  0  0  0  0  0  0  0  0  0  0  0
    6.6623    2.9486    6.5518 H   0  0  0  0  0  0  0  0  0  0  0  0
    5.1351    5.6601    6.1907 H   0  0  0  0  0  0  0  0  0  0  0  0
    4.9814    4.5900    7.6037 H   0  0  0  0  0  0  0  0  0  0  0  0
    3.5235    5.0728    6.7040 H   0  0  0  0  0  0  0  0  0  0  0  0
    4.0363    1.4968    5.6406 H   0  0  0  0  0  0  0  0  0  0  0  0
    2.8976    2.6375    6.4071 H   0  0  0  0  0  0  0  0  0  0  0  0
    4.3610    2.1147    7.2859 H   0  0  0  0  0  0  0  0  0  0  0  0
    5.3807   -0.2497    2.3639 H   0  0  0  0  0  0  0  0  0  0  0  0
    4.8188   -0.1485    0.7424 H   0  0  0  0  0  0  0  0  0  0  0  0
  1  2  1  0
  1 21  1  0
  1 22  1  0
  1 23  1  0
  2  3  1  0
  2  7  1  0
  2 24  1  1
  3  4  1  0
  3 25  1  0
  3 26  1  0
  4  5  1  0
  4 27  1  0
  4 28  1  0
  5  6  1  0
  5 29  1  0
  5 30  1  0
  6  7  1  0
  6 31  1  0
  6 32  1  0
  7  8  1  0
  8  9  2  0
  8 10  1  0
 10 11  1  0
 10 19  2  0
 11 12  1  0
 12 13  1  0
 12 18  2  0
 14 13  1  6
 13 33  1  0
 14 15  1  0
 14 16  1  0
 14 17  1  0
 15 34  1  0
 15 35  1  0
 15 36  1  0
 16 37  1  0
 16 38  1  0
 16 39  1  0
 17 40  1  0
 17 41  1  0
 17 42  1  0
 18 19  1  0
 19 20  1  0
 20 43  1  0
 20 44  1  0
M  END

