
     RDKit          3D

 46 48  0  0  0  0  0  0  0  0999 V2000
    9.3219   -3.2918   -3.0221 C   0  0  0  0  0  0  0  0  0  0  0  0
    8.0268   -2.6041   -2.6654 C   0  0  0  0  0  0  0  0  0  0  0  0
    7.4004   -1.7324   -3.5757 C   0  0  0  0  0  0  0  0  0  0  0  0
    6.1969   -1.0780   -3.2870 C   0  0  0  0  0  0  0  0  0  0  0  0
    5.5533   -0.1369   -4.2754 C   0  0  0  0  0  0  0  0  0  0  0  0
    5.5940   -1.3110   -2.0382 C   0  0  0  0  0  0  0  0  0  0  0  0
    6.2051   -2.1794   -1.1384 C   0  0  0  0  0  0  0  0  0  0  0  0
    5.4226   -2.4450    0.4617 S   0  0  1  0  0  0  0  0  0  0  0  0
    6.5088   -2.4107    1.4786 O   0  0  0  0  0  0  0  0  0  0  0  0
    4.3049   -1.5031    0.5843 O   0  0  0  0  0  0  0  0  0  0  0  0
    4.7523   -4.0828    0.4019 C   0  0  0  0  0  0  0  0  0  0  0  0
    5.3280   -5.3076    0.7670 C   0  0  0  0  0  0  0  0  0  0  0  0
    6.5775   -5.8204    1.4384 C   0  0  0  0  0  0  0  0  0  0  0  0
    6.8574   -7.0063    1.2952 O   0  0  0  0  0  0  0  0  0  0  0  0
    7.2793   -4.9433    2.1878 N   0  0  0  0  0  0  0  0  0  0  0  0
    8.5478   -5.2752    2.7983 C   0  0  0  0  0  0  0  0  0  0  0  0
    9.7493   -4.4175    2.3674 C   0  0  0  0  0  0  0  0  0  0  0  0
    9.4765   -3.2838    1.6589 N   0  0  0  0  0  0  0  0  0  0  0  0
   10.8743   -4.7616    2.6731 O   0  0  0  0  0  0  0  0  0  0  0  0
    4.4848   -6.3029    0.3688 N   0  0  0  0  0  0  0  0  0  0  0  0
    4.7490   -7.2754    0.5065 H   0  0  0  0  0  0  0  0  0  0  0  0
    3.3694   -5.7925   -0.2453 C   0  0  0  0  0  0  0  0  0  0  0  0
    2.2561   -6.4438   -0.7969 C   0  0  0  0  0  0  0  0  0  0  0  0
    1.2592   -5.6574   -1.3568 C   0  0  0  0  0  0  0  0  0  0  0  0
    1.3727   -4.2475   -1.3538 C   0  0  0  0  0  0  0  0  0  0  0  0
    0.0746   -3.3090   -2.0611 Cl  0  0  0  0  0  0  0  0  0  0  0  0
    2.4649   -3.5893   -0.8049 C   0  0  0  0  0  0  0  0  0  0  0  0
    3.4929   -4.3750   -0.2452 C   0  0  0  0  0  0  0  0  0  0  0  0
    7.4140   -2.8222   -1.4274 C   0  0  0  0  0  0  0  0  0  0  0  0
   10.0131   -2.6050   -3.5352 H   0  0  0  0  0  0  0  0  0  0  0  0
    9.1424   -4.1405   -3.7042 H   0  0  0  0  0  0  0  0  0  0  0  0
    9.8291   -3.6861   -2.1296 H   0  0  0  0  0  0  0  0  0  0  0  0
    7.8769   -1.5545   -4.5447 H   0  0  0  0  0  0  0  0  0  0  0  0
    6.1376   -0.0626   -5.2038 H   0  0  0  0  0  0  0  0  0  0  0  0
    5.4567    0.8771   -3.8533 H   0  0  0  0  0  0  0  0  0  0  0  0
    4.5371   -0.4727   -4.5398 H   0  0  0  0  0  0  0  0  0  0  0  0
    4.6643   -0.8114   -1.7593 H   0  0  0  0  0  0  0  0  0  0  0  0
    6.9166   -3.9907    2.2596 H   0  0  0  0  0  0  0  0  0  0  0  0
    8.7860   -6.3200    2.5597 H   0  0  0  0  0  0  0  0  0  0  0  0
    8.4882   -5.2024    3.8987 H   0  0  0  0  0  0  0  0  0  0  0  0
    8.5412   -2.8989    1.5503 H   0  0  0  0  0  0  0  0  0  0  0  0
   10.2644   -2.6740    1.4685 H   0  0  0  0  0  0  0  0  0  0  0  0
    2.1729   -7.5326   -0.7878 H   0  0  0  0  0  0  0  0  0  0  0  0
    0.3745   -6.1170   -1.7997 H   0  0  0  0  0  0  0  0  0  0  0  0
    2.5161   -2.5020   -0.7873 H   0  0  0  0  0  0  0  0  0  0  0  0
    7.8888   -3.4741   -0.6917 H   0  0  0  0  0  0  0  0  0  0  0  0
  1  2  1  0
  1 30  1  0
  1 31  1  0
  1 32  1  0
  2  3  2  0
  2 29  1  0
  3  4  1  0
  3 33  1  0
  4  5  1  0
  4  6  2  0
  5 34  1  0
  5 35  1  0
  5 36  1  0
  6  7  1  0
  6 37  1  0
  8  7  1  6
  7 29  2  0
  8  9  2  0
  8 10  2  0
  8 11  1  0
 11 12  2  0
 11 28  1  0
 12 13  1  0
 12 20  1  0
 13 14  2  0
 13 15  1  0
 15 16  1  0
 15 38  1  0
 16 17  1  0
 16 39  1  0
 16 40  1  0
 17 18  1  0
 17 19  2  0
 18 41  1  0
 18 42  1  0
 20 21  1  0
 20 22  1  0
 22 23  1  0
 22 28  2  0
 23 24  2  0
 23 43  1  0
 24 25  1  0
 24 44  1  0
 25 26  1  0
 25 27  2  0
 27 28  1  0
 27 45  1  0
 29 46  1  0
M  END

