
     RDKit          3D

 47 49  0  0  0  0  0  0  0  0999 V2000
    3.8555    2.5984   -1.1683 C   0  0  0  0  0  0  0  0  0  0  0  0
    3.9694    1.3147   -0.4171 C   0  0  0  0  0  0  0  0  0  0  0  0
    5.0078    0.5614   -0.4806 N   0  0  0  0  0  0  0  0  0  0  0  0
    4.8336   -0.5428    0.3031 N   0  0  0  0  0  0  0  0  0  0  0  0
    5.8102   -1.5124    0.4152 C   0  0  0  0  0  0  0  0  0  0  0  0
    7.0340   -1.4021   -0.2869 C   0  0  0  0  0  0  0  0  0  0  0  0
    8.0030   -2.3863   -0.1589 C   0  0  0  0  0  0  0  0  0  0  0  0
    7.7953   -3.5313    0.6339 C   0  0  0  0  0  0  0  0  0  0  0  0
    8.9322   -4.4978    0.7919 C   0  0  0  0  0  0  0  0  0  0  0  0
   10.0821   -4.0799    0.8582 O   0  0  0  0  0  0  0  0  0  0  0  0
    8.6487   -5.8538    0.8952 N   0  0  0  0  0  0  0  0  0  0  0  0
    7.4549   -6.4928    0.3526 C   0  0  0  0  0  0  0  0  0  0  0  0
    7.7880   -7.3675   -0.8700 C   0  0  2  0  0  0  0  0  0  0  0  0
    6.5255   -8.0487   -1.3933 C   0  0  0  0  0  0  0  0  0  0  0  0
    5.4434   -7.9583   -0.8794 O   0  0  0  0  0  0  0  0  0  0  0  0
    6.6862   -8.7959   -2.5109 O   0  0  0  0  0  0  0  0  0  0  0  0
    8.9071   -8.3762   -0.5370 C   0  0  0  0  0  0  0  0  0  0  0  0
   10.1197   -7.6530    0.0597 C   0  0  0  0  0  0  0  0  0  0  0  0
    9.7523   -6.7600    1.2597 C   0  0  2  0  0  0  0  0  0  0  0  0
    9.4358   -7.5463    2.5390 C   0  0  0  0  0  0  0  0  0  0  0  0
    6.5878   -3.6252    1.3425 C   0  0  0  0  0  0  0  0  0  0  0  0
    5.6092   -2.6373    1.2454 C   0  0  0  0  0  0  0  0  0  0  0  0
    3.5366   -0.5497    0.9948 C   0  0  0  0  0  0  0  0  0  0  0  0
    2.8868    0.7554    0.4903 C   0  0  0  0  0  0  0  0  0  0  0  0
    4.7696    2.7813   -1.7492 H   0  0  0  0  0  0  0  0  0  0  0  0
    3.6943    3.4487   -0.4823 H   0  0  0  0  0  0  0  0  0  0  0  0
    2.9937    2.5806   -1.8590 H   0  0  0  0  0  0  0  0  0  0  0  0
    7.2001   -0.5288   -0.9161 H   0  0  0  0  0  0  0  0  0  0  0  0
    8.9582   -2.2783   -0.6774 H   0  0  0  0  0  0  0  0  0  0  0  0
    6.7235   -5.7344    0.0608 H   0  0  0  0  0  0  0  0  0  0  0  0
    6.9658   -7.1220    1.1151 H   0  0  0  0  0  0  0  0  0  0  0  0
    8.1567   -6.7021   -1.6752 H   0  0  0  0  0  0  0  0  0  0  0  0
    7.6059   -8.7655   -2.8106 H   0  0  0  0  0  0  0  0  0  0  0  0
    9.2173   -8.9388   -1.4351 H   0  0  0  0  0  0  0  0  0  0  0  0
    8.5147   -9.1263    0.1715 H   0  0  0  0  0  0  0  0  0  0  0  0
   10.5756   -7.0131   -0.7149 H   0  0  0  0  0  0  0  0  0  0  0  0
   10.8872   -8.3845    0.3619 H   0  0  0  0  0  0  0  0  0  0  0  0
   10.6067   -6.1016    1.4595 H   0  0  0  0  0  0  0  0  0  0  0  0
    8.5824   -8.2337    2.4259 H   0  0  0  0  0  0  0  0  0  0  0  0
    9.2027   -6.8553    3.3635 H   0  0  0  0  0  0  0  0  0  0  0  0
   10.3080   -8.1491    2.8383 H   0  0  0  0  0  0  0  0  0  0  0  0
    6.4093   -4.4727    2.0085 H   0  0  0  0  0  0  0  0  0  0  0  0
    4.6903   -2.7434    1.8231 H   0  0  0  0  0  0  0  0  0  0  0  0
    3.6788   -0.5602    2.0892 H   0  0  0  0  0  0  0  0  0  0  0  0
    2.9566   -1.4492    0.7275 H   0  0  0  0  0  0  0  0  0  0  0  0
    2.6433    1.4571    1.3056 H   0  0  0  0  0  0  0  0  0  0  0  0
    1.9506    0.5812   -0.0665 H   0  0  0  0  0  0  0  0  0  0  0  0
  1  2  1  0
  1 25  1  0
  1 26  1  0
  1 27  1  0
  2  3  2  0
  2 24  1  0
  3  4  1  0
  4  5  1  0
  4 23  1  0
  5  6  2  0
  5 22  1  0
  6  7  1  0
  6 28  1  0
  7  8  2  0
  7 29  1  0
  8  9  1  0
  8 21  1  0
  9 10  2  0
  9 11  1  0
 11 12  1  0
 11 19  1  0
 12 13  1  0
 12 30  1  0
 12 31  1  0
 13 14  1  0
 13 17  1  0
 13 32  1  6
 14 15  2  0
 14 16  1  0
 16 33  1  0
 17 18  1  0
 17 34  1  0
 17 35  1  0
 18 19  1  0
 18 36  1  0
 18 37  1  0
 19 20  1  0
 19 38  1  1
 20 39  1  0
 20 40  1  0
 20 41  1  0
 21 22  2  0
 21 42  1  0
 22 43  1  0
 23 24  1  0
 23 44  1  0
 23 45  1  0
 24 46  1  0
 24 47  1  0
M  END

