
     RDKit          3D

 42 44  0  0  0  0  0  0  0  0999 V2000
    1.0900   -0.1757    0.5622 C   0  0  0  0  0  0  0  0  0  0  0  0
    2.5648   -0.1982    0.3127 C   0  0  0  0  0  0  0  0  0  0  0  0
    3.3710    0.8120   -0.1517 C   0  0  0  0  0  0  0  0  0  0  0  0
    4.6670    0.2906   -0.2071 N   0  0  0  0  0  0  0  0  0  0  0  0
    5.9371    0.9382   -0.5565 C   0  0  1  0  0  0  0  0  0  0  0  0
    6.3450    0.6839   -2.0261 C   0  0  0  0  0  0  0  0  0  0  0  0
    5.5970    1.5756   -3.0230 C   0  0  0  0  0  0  0  0  0  0  0  0
    5.8069    3.0582   -2.6923 C   0  0  0  0  0  0  0  0  0  0  0  0
    5.3453    3.3778   -1.2649 C   0  0  0  0  0  0  0  0  0  0  0  0
    5.9843    2.4443   -0.2221 C   0  0  0  0  0  0  0  0  0  0  0  0
    4.5504   -1.0115    0.2162 C   0  0  0  0  0  0  0  0  0  0  0  0
    5.6578   -1.8422    0.3646 N   0  0  0  0  0  0  0  0  0  0  0  0
    5.4038   -3.1920    0.8459 C   0  0  0  0  0  0  0  0  0  0  0  0
    6.6775   -3.9125    1.2288 C   0  0  0  0  0  0  0  0  0  0  0  0
    7.7569   -3.2497    1.8298 C   0  0  0  0  0  0  0  0  0  0  0  0
    8.8898   -3.9833    2.1929 C   0  0  0  0  0  0  0  0  0  0  0  0
    9.0146   -5.2997    2.0031 N   0  0  0  0  0  0  0  0  0  0  0  0
    7.9873   -5.9326    1.4317 C   0  0  0  0  0  0  0  0  0  0  0  0
    6.8119   -5.2927    1.0272 C   0  0  0  0  0  0  0  0  0  0  0  0
    3.3162   -1.3357    0.5308 N   0  0  0  0  0  0  0  0  0  0  0  0
    0.6574    0.8072    0.3231 H   0  0  0  0  0  0  0  0  0  0  0  0
    0.8646   -0.4042    1.6175 H   0  0  0  0  0  0  0  0  0  0  0  0
    0.5736   -0.9374   -0.0458 H   0  0  0  0  0  0  0  0  0  0  0  0
    3.1395    1.8295   -0.4440 H   0  0  0  0  0  0  0  0  0  0  0  0
    6.6794    0.4425    0.0897 H   0  0  0  0  0  0  0  0  0  0  0  0
    6.1982   -0.3810   -2.2736 H   0  0  0  0  0  0  0  0  0  0  0  0
    7.4294    0.8784   -2.1125 H   0  0  0  0  0  0  0  0  0  0  0  0
    4.5187    1.3369   -2.9968 H   0  0  0  0  0  0  0  0  0  0  0  0
    5.9386    1.3561   -4.0481 H   0  0  0  0  0  0  0  0  0  0  0  0
    5.2721    3.6961   -3.4153 H   0  0  0  0  0  0  0  0  0  0  0  0
    6.8805    3.3032   -2.7967 H   0  0  0  0  0  0  0  0  0  0  0  0
    4.2457    3.3122   -1.2225 H   0  0  0  0  0  0  0  0  0  0  0  0
    5.5909    4.4216   -1.0074 H   0  0  0  0  0  0  0  0  0  0  0  0
    5.5489    2.6126    0.7758 H   0  0  0  0  0  0  0  0  0  0  0  0
    7.0537    2.7065   -0.1401 H   0  0  0  0  0  0  0  0  0  0  0  0
    6.3078   -1.8178   -0.4172 H   0  0  0  0  0  0  0  0  0  0  0  0
    4.8338   -3.7999    0.1168 H   0  0  0  0  0  0  0  0  0  0  0  0
    4.7425   -3.1045    1.7237 H   0  0  0  0  0  0  0  0  0  0  0  0
    7.7100   -2.1737    2.0092 H   0  0  0  0  0  0  0  0  0  0  0  0
    9.7404   -3.4753    2.6639 H   0  0  0  0  0  0  0  0  0  0  0  0
    8.1016   -7.0126    1.2780 H   0  0  0  0  0  0  0  0  0  0  0  0
    6.0098   -5.8677    0.5562 H   0  0  0  0  0  0  0  0  0  0  0  0
  1  2  1  0
  1 21  1  0
  1 22  1  0
  1 23  1  0
  2  3  2  0
  2 20  1  0
  3  4  1  0
  3 24  1  0
  4  5  1  0
  4 11  1  0
  5  6  1  0
  5 10  1  0
  5 25  1  1
  6  7  1  0
  6 26  1  0
  6 27  1  0
  7  8  1  0
  7 28  1  0
  7 29  1  0
  8  9  1  0
  8 30  1  0
  8 31  1  0
  9 10  1  0
  9 32  1  0
  9 33  1  0
 10 34  1  0
 10 35  1  0
 11 12  1  0
 11 20  2  0
 12 13  1  0
 12 36  1  0
 13 14  1  0
 13 37  1  0
 13 38  1  0
 14 15  2  0
 14 19  1  0
 15 16  1  0
 15 39  1  0
 16 17  2  0
 16 40  1  0
 17 18  1  0
 18 19  2  0
 18 41  1  0
 19 42  1  0
M  END

