
     RDKit          3D

 59 61  0  0  0  0  0  0  0  0999 V2000
    4.9263   -1.5429   -1.8338 C   0  0  0  0  0  0  0  0  0  0  0  0
    4.0613   -0.5233   -1.1335 C   0  0  0  0  0  0  0  0  0  0  0  0
    4.5983    0.7362   -0.8238 C   0  0  0  0  0  0  0  0  0  0  0  0
    3.8463    1.7287   -0.1910 C   0  0  0  0  0  0  0  0  0  0  0  0
    2.5184    1.4774    0.1563 C   0  0  0  0  0  0  0  0  0  0  0  0
    1.9664    0.2277   -0.1270 C   0  0  0  0  0  0  0  0  0  0  0  0
    2.7169   -0.7774   -0.7617 C   0  0  0  0  0  0  0  0  0  0  0  0
    2.0731   -2.1022   -1.0775 C   0  0  0  0  0  0  0  0  0  0  0  0
    2.3254   -2.7356   -2.0965 O   0  0  0  0  0  0  0  0  0  0  0  0
    1.1757   -2.5576   -0.1462 N   0  0  0  0  0  0  0  0  0  0  0  0
    0.4187   -3.7941   -0.3040 C   0  0  1  0  0  0  0  0  0  0  0  0
    0.8198   -4.7363    0.8537 C   0  0  0  0  0  0  0  0  0  0  0  0
    0.2023   -4.6944    1.9102 O   0  0  0  0  0  0  0  0  0  0  0  0
    1.8869   -5.5792    0.6713 N   0  0  0  0  0  0  0  0  0  0  0  0
    2.2724   -6.4771    1.7532 C   0  0  0  0  0  0  0  0  0  0  0  0
    2.4135   -7.9131    1.2402 C   0  0  0  0  0  0  0  0  0  0  0  0
    3.3377   -7.9603    0.1128 N   0  0  0  0  0  0  0  0  0  0  0  0
    4.0584   -9.1164   -0.1487 C   0  0  0  0  0  0  0  0  0  0  0  0
    3.6081  -10.3708    0.3352 C   0  0  0  0  0  0  0  0  0  0  0  0
    4.2758  -11.5616    0.0765 C   0  0  0  0  0  0  0  0  0  0  0  0
    5.4322  -11.5583   -0.7119 C   0  0  0  0  0  0  0  0  0  0  0  0
    6.2597  -13.0538   -1.0653 Cl  0  0  0  0  0  0  0  0  0  0  0  0
    5.9218  -10.3552   -1.2032 C   0  0  0  0  0  0  0  0  0  0  0  0
    5.2670   -9.1542   -0.9036 C   0  0  0  0  0  0  0  0  0  0  0  0
    5.9897   -7.9394   -1.3315 N   0  0  0  0  0  0  0  0  0  0  0  0
    5.8258   -6.9109   -0.6912 O   0  0  0  0  0  0  0  0  0  0  0  0
    6.7513   -8.0428   -2.2809 O   0  0  0  0  0  0  0  0  0  0  0  0
    2.9547   -7.0490   -0.9678 C   0  0  0  0  0  0  0  0  0  0  0  0
    2.8162   -5.6172   -0.4547 C   0  0  0  0  0  0  0  0  0  0  0  0
   -1.1114   -3.5661   -0.3284 C   0  0  1  0  0  0  0  0  0  0  0  0
   -1.5048   -2.5326   -1.3900 C   0  0  0  0  0  0  0  0  0  0  0  0
   -1.8526   -4.8903   -0.5568 C   0  0  0  0  0  0  0  0  0  0  0  0
    5.9628   -1.1832   -1.9076 H   0  0  0  0  0  0  0  0  0  0  0  0
    4.5464   -1.7537   -2.8438 H   0  0  0  0  0  0  0  0  0  0  0  0
    4.9329   -2.5094   -1.3067 H   0  0  0  0  0  0  0  0  0  0  0  0
    5.6383    0.9416   -1.0918 H   0  0  0  0  0  0  0  0  0  0  0  0
    4.2995    2.6993    0.0262 H   0  0  0  0  0  0  0  0  0  0  0  0
    1.9129    2.2477    0.6399 H   0  0  0  0  0  0  0  0  0  0  0  0
    0.9200    0.0405    0.1261 H   0  0  0  0  0  0  0  0  0  0  0  0
    1.0816   -2.0629    0.7337 H   0  0  0  0  0  0  0  0  0  0  0  0
    0.7194   -4.2015   -1.2770 H   0  0  0  0  0  0  0  0  0  0  0  0
    1.5068   -6.4163    2.5362 H   0  0  0  0  0  0  0  0  0  0  0  0
    3.2389   -6.1507    2.1791 H   0  0  0  0  0  0  0  0  0  0  0  0
    1.4101   -8.3019    0.9646 H   0  0  0  0  0  0  0  0  0  0  0  0
    2.8050   -8.5367    2.0561 H   0  0  0  0  0  0  0  0  0  0  0  0
    2.6802  -10.4144    0.9046 H   0  0  0  0  0  0  0  0  0  0  0  0
    3.8850  -12.5046    0.4629 H   0  0  0  0  0  0  0  0  0  0  0  0
    6.8312  -10.3166   -1.8003 H   0  0  0  0  0  0  0  0  0  0  0  0
    1.9828   -7.3768   -1.3938 H   0  0  0  0  0  0  0  0  0  0  0  0
    3.6897   -7.0737   -1.7780 H   0  0  0  0  0  0  0  0  0  0  0  0
    2.4995   -4.9487   -1.2636 H   0  0  0  0  0  0  0  0  0  0  0  0
    3.8095   -5.2731   -0.1168 H   0  0  0  0  0  0  0  0  0  0  0  0
   -1.3959   -3.1892    0.6689 H   0  0  0  0  0  0  0  0  0  0  0  0
   -1.2260   -2.8714   -2.4020 H   0  0  0  0  0  0  0  0  0  0  0  0
   -1.0197   -1.5597   -1.2216 H   0  0  0  0  0  0  0  0  0  0  0  0
   -2.5940   -2.3683   -1.3805 H   0  0  0  0  0  0  0  0  0  0  0  0
   -1.5711   -5.3420   -1.5242 H   0  0  0  0  0  0  0  0  0  0  0  0
   -2.9412   -4.7241   -0.5771 H   0  0  0  0  0  0  0  0  0  0  0  0
   -1.6450   -5.6166    0.2423 H   0  0  0  0  0  0  0  0  0  0  0  0
  1  2  1  0
  1 33  1  0
  1 34  1  0
  1 35  1  0
  2  3  2  0
  2  7  1  0
  3  4  1  0
  3 36  1  0
  4  5  2  0
  4 37  1  0
  5  6  1  0
  5 38  1  0
  6  7  2  0
  6 39  1  0
  7  8  1  0
  8  9  2  0
  8 10  1  0
 10 11  1  0
 10 40  1  0
 11 12  1  0
 11 30  1  0
 11 41  1  6
 12 13  2  0
 12 14  1  0
 14 15  1  0
 14 29  1  0
 15 16  1  0
 15 42  1  0
 15 43  1  0
 16 17  1  0
 16 44  1  0
 16 45  1  0
 17 18  1  0
 17 28  1  0
 18 19  2  0
 18 24  1  0
 19 20  1  0
 19 46  1  0
 20 21  2  0
 20 47  1  0
 21 22  1  0
 21 23  1  0
 23 24  2  0
 23 48  1  0
 24 25  1  0
 25 26  2  0
 25 27  1  0
 28 29  1  0
 28 49  1  0
 28 50  1  0
 29 51  1  0
 29 52  1  0
 30 31  1  0
 30 32  1  0
 30 53  1  1
 31 54  1  0
 31 55  1  0
 31 56  1  0
 32 57  1  0
 32 58  1  0
 32 59  1  0
M  CHG  2  25   1  27  -1
M  END

