
     RDKit          3D

 43 44  0  0  0  0  0  0  0  0999 V2000
    2.8576    0.4582   -2.7966 C   0  0  0  0  0  0  0  0  0  0  0  0
    2.6147   -0.8642   -2.2488 N   0  0  0  0  0  0  0  0  0  0  0  0
    2.9992   -1.1542   -0.8784 C   0  0  1  0  0  0  0  0  0  0  0  0
    2.0832   -2.2374   -0.3043 C   0  0  0  0  0  0  0  0  0  0  0  0
    1.6215   -3.3200   -1.0691 C   0  0  0  0  0  0  0  0  0  0  0  0
    0.7608   -4.2791   -0.5283 C   0  0  0  0  0  0  0  0  0  0  0  0
    0.3322   -4.1606    0.7896 C   0  0  0  0  0  0  0  0  0  0  0  0
   -0.4961   -5.0634    1.3248 F   0  0  0  0  0  0  0  0  0  0  0  0
    0.7569   -3.0731    1.5563 C   0  0  0  0  0  0  0  0  0  0  0  0
    0.3174   -2.9465    2.8132 F   0  0  0  0  0  0  0  0  0  0  0  0
    1.6146   -2.1214    1.0144 C   0  0  0  0  0  0  0  0  0  0  0  0
    4.5658   -1.3192   -0.6290 C   0  0  1  0  0  0  0  0  0  0  0  0
    4.9628    0.0701   -0.7199 O   0  0  0  0  0  0  0  0  0  0  0  0
    6.3154    0.4341   -0.8168 C   0  0  0  0  0  0  0  0  0  0  0  0
    4.9262   -1.8300    0.7870 C   0  0  0  0  0  0  0  0  0  0  0  0
    4.9035   -3.3552    0.9857 C   0  0  0  0  0  0  0  0  0  0  0  0
    5.6972   -4.1240   -0.0881 C   0  0  2  0  0  0  0  0  0  0  0  0
    7.2182   -3.9931    0.0782 C   0  0  0  0  0  0  0  0  0  0  0  0
    5.2038   -3.6891   -1.4814 C   0  0  0  0  0  0  0  0  0  0  0  0
    5.2886   -2.1695   -1.6950 C   0  0  0  0  0  0  0  0  0  0  0  0
    2.3137    0.5576   -3.7513 H   0  0  0  0  0  0  0  0  0  0  0  0
    3.9195    0.7158   -2.9721 H   0  0  0  0  0  0  0  0  0  0  0  0
    2.4533    1.2193   -2.1100 H   0  0  0  0  0  0  0  0  0  0  0  0
    2.9049   -1.5909   -2.8966 H   0  0  0  0  0  0  0  0  0  0  0  0
    2.7830   -0.2427   -0.3004 H   0  0  0  0  0  0  0  0  0  0  0  0
    1.9145   -3.4185   -2.1150 H   0  0  0  0  0  0  0  0  0  0  0  0
    0.4017   -5.1235   -1.1205 H   0  0  0  0  0  0  0  0  0  0  0  0
    1.9000   -1.2787    1.6474 H   0  0  0  0  0  0  0  0  0  0  0  0
    6.3624    1.5186   -0.6335 H   0  0  0  0  0  0  0  0  0  0  0  0
    6.7470    0.2421   -1.8173 H   0  0  0  0  0  0  0  0  0  0  0  0
    6.9596   -0.0600   -0.0648 H   0  0  0  0  0  0  0  0  0  0  0  0
    4.2771   -1.3360    1.5272 H   0  0  0  0  0  0  0  0  0  0  0  0
    5.9433   -1.4664    1.0065 H   0  0  0  0  0  0  0  0  0  0  0  0
    3.8649   -3.7174    0.9771 H   0  0  0  0  0  0  0  0  0  0  0  0
    5.2994   -3.5906    1.9887 H   0  0  0  0  0  0  0  0  0  0  0  0
    5.4552   -5.1953    0.0274 H   0  0  0  0  0  0  0  0  0  0  0  0
    7.5689   -2.9516   -0.0011 H   0  0  0  0  0  0  0  0  0  0  0  0
    7.7521   -4.5772   -0.6894 H   0  0  0  0  0  0  0  0  0  0  0  0
    7.5376   -4.3686    1.0640 H   0  0  0  0  0  0  0  0  0  0  0  0
    4.1650   -4.0319   -1.6071 H   0  0  0  0  0  0  0  0  0  0  0  0
    5.7912   -4.1952   -2.2670 H   0  0  0  0  0  0  0  0  0  0  0  0
    4.9229   -1.8978   -2.6984 H   0  0  0  0  0  0  0  0  0  0  0  0
    6.3522   -1.8871   -1.6889 H   0  0  0  0  0  0  0  0  0  0  0  0
  1  2  1  0
  1 21  1  0
  1 22  1  0
  1 23  1  0
  2  3  1  0
  2 24  1  0
  3  4  1  0
  3 12  1  0
  3 25  1  1
  4  5  2  0
  4 11  1  0
  5  6  1  0
  5 26  1  0
  6  7  2  0
  6 27  1  0
  7  8  1  0
  7  9  1  0
  9 10  1  0
  9 11  2  0
 11 28  1  0
 12 13  1  1
 12 15  1  0
 12 20  1  0
 13 14  1  0
 14 29  1  0
 14 30  1  0
 14 31  1  0
 15 16  1  0
 15 32  1  0
 15 33  1  0
 16 17  1  0
 16 34  1  0
 16 35  1  0
 17 18  1  0
 17 19  1  0
 17 36  1  1
 18 37  1  0
 18 38  1  0
 18 39  1  0
 19 20  1  0
 19 40  1  0
 19 41  1  0
 20 42  1  0
 20 43  1  0
M  END

