
     RDKit          3D

 26 26  0  0  0  0  0  0  0  0999 V2000
    0.8635    0.4748   -0.0535 N   0  0  0  0  0  0  0  0  0  0  0  0
    1.4384    0.9316    1.1150 C   0  0  0  0  0  0  0  0  0  0  0  0
    1.9552    2.3580    1.0807 C   0  0  0  0  0  0  0  0  0  0  0  0
    2.6716    2.6025   -0.1576 N   0  0  0  0  0  0  0  0  0  0  0  0
    2.8938    3.8609   -0.6910 C   0  0  0  0  0  0  0  0  0  0  0  0
    2.4345    5.0368   -0.0619 C   0  0  0  0  0  0  0  0  0  0  0  0
    2.6465    6.2900   -0.6362 C   0  0  0  0  0  0  0  0  0  0  0  0
    3.3332    6.4205   -1.8451 C   0  0  0  0  0  0  0  0  0  0  0  0
    3.7958    5.2684   -2.4823 C   0  0  0  0  0  0  0  0  0  0  0  0
    3.5813    4.0023   -1.9303 C   0  0  0  0  0  0  0  0  0  0  0  0
    4.0219    2.7807   -2.6893 C   0  0  1  0  0  0  0  0  0  0  0  0
    4.8195    1.9711   -1.9376 F   0  0  0  0  0  0  0  0  0  0  0  0
    2.9774    2.0099   -3.0692 F   0  0  0  0  0  0  0  0  0  0  0  0
    4.7122    3.0776   -3.7966 F   0  0  0  0  0  0  0  0  0  0  0  0
    1.4396    0.1726    2.1530 N   0  0  0  0  0  0  0  0  0  0  0  0
    1.9434    0.8236    3.2927 O   0  0  0  0  0  0  0  0  0  0  0  0
    1.2351    0.8735   -0.9094 H   0  0  0  0  0  0  0  0  0  0  0  0
    0.6673   -0.5203   -0.0834 H   0  0  0  0  0  0  0  0  0  0  0  0
    2.5579    2.5399    1.9844 H   0  0  0  0  0  0  0  0  0  0  0  0
    1.0813    3.0283    1.1253 H   0  0  0  0  0  0  0  0  0  0  0  0
    3.3830    1.9135   -0.3755 H   0  0  0  0  0  0  0  0  0  0  0  0
    1.9215    4.9715    0.8974 H   0  0  0  0  0  0  0  0  0  0  0  0
    2.2783    7.1791   -0.1173 H   0  0  0  0  0  0  0  0  0  0  0  0
    3.5058    7.4029   -2.2885 H   0  0  0  0  0  0  0  0  0  0  0  0
    4.3265    5.3435   -3.4325 H   0  0  0  0  0  0  0  0  0  0  0  0
    1.9288    0.1179    3.9501 H   0  0  0  0  0  0  0  0  0  0  0  0
  1  2  1  0
  1 17  1  0
  1 18  1  0
  2  3  1  0
  2 15  2  0
  3  4  1  0
  3 19  1  0
  3 20  1  0
  4  5  1  0
  4 21  1  0
  5  6  2  0
  5 10  1  0
  6  7  1  0
  6 22  1  0
  7  8  2  0
  7 23  1  0
  8  9  1  0
  8 24  1  0
  9 10  2  0
  9 25  1  0
 10 11  1  0
 11 12  1  1
 11 13  1  0
 11 14  1  0
 15 16  1  0
 16 26  1  0
M  END

