
     RDKit          3D

 56 60  0  0  0  0  0  0  0  0999 V2000
    1.7751   -0.1264   -2.9346 C   0  0  0  0  0  0  0  0  0  0  0  0
    2.5824   -0.5144   -1.7912 N   0  0  0  0  0  0  0  0  0  0  0  0
    2.1570   -0.6521   -0.4942 C   0  0  0  0  0  0  0  0  0  0  0  0
    3.1275   -1.0103    0.3137 N   0  0  0  0  0  0  0  0  0  0  0  0
    4.2284   -1.1119   -0.4889 C   0  0  0  0  0  0  0  0  0  0  0  0
    5.8450   -1.5351    0.1247 S   0  0  1  0  0  0  0  0  0  0  0  0
    6.6623   -1.7656   -1.0695 O   0  0  0  0  0  0  0  0  0  0  0  0
    6.2290   -0.5559    1.1386 O   0  0  0  0  0  0  0  0  0  0  0  0
    5.6818   -3.0019    0.9120 N   0  0  0  0  0  0  0  0  0  0  0  0
    5.4237   -4.1991    0.1092 C   0  0  0  0  0  0  0  0  0  0  0  0
    5.9475   -5.4369    0.8448 C   0  0  0  0  0  0  0  0  0  0  0  0
    5.4435   -5.5487    2.2898 C   0  0  2  0  0  0  0  0  0  0  0  0
    5.6822   -4.2221    3.0223 C   0  0  0  0  0  0  0  0  0  0  0  0
    5.1189   -3.0196    2.2648 C   0  0  0  0  0  0  0  0  0  0  0  0
    5.9865   -6.7929    3.0477 C   0  0  0  0  0  0  0  0  0  0  0  0
    4.6421   -7.3527    3.0777 N   0  0  0  0  0  0  0  0  0  0  0  0
    4.1296   -8.2351    4.0084 C   0  0  0  0  0  0  0  0  0  0  0  0
    2.7372   -8.3451    4.2277 C   0  0  0  0  0  0  0  0  0  0  0  0
    2.2461   -9.2557    5.1628 C   0  0  0  0  0  0  0  0  0  0  0  0
    3.1018  -10.0761    5.9053 C   0  0  0  0  0  0  0  0  0  0  0  0
    4.4703   -9.9521    5.6766 C   0  0  0  0  0  0  0  0  0  0  0  0
    5.3202  -10.7251    6.3740 F   0  0  0  0  0  0  0  0  0  0  0  0
    5.0014   -9.0572    4.7548 C   0  0  0  0  0  0  0  0  0  0  0  0
    3.9905   -6.1719    2.5127 C   0  0  2  0  0  0  0  0  0  0  0  0
    3.0500   -6.4149    1.3492 C   0  0  0  0  0  0  0  0  0  0  0  0
    2.0223   -5.4988    1.0710 C   0  0  0  0  0  0  0  0  0  0  0  0
    1.1587   -5.6968   -0.0094 C   0  0  0  0  0  0  0  0  0  0  0  0
    1.3038   -6.8227   -0.8263 C   0  0  0  0  0  0  0  0  0  0  0  0
    2.3134   -7.7493   -0.5495 C   0  0  0  0  0  0  0  0  0  0  0  0
    3.1774   -7.5477    0.5307 C   0  0  0  0  0  0  0  0  0  0  0  0
    3.9225   -0.8148   -1.8005 C   0  0  0  0  0  0  0  0  0  0  0  0
    0.7471    0.0656   -2.5995 H   0  0  0  0  0  0  0  0  0  0  0  0
    1.7553   -0.9272   -3.6897 H   0  0  0  0  0  0  0  0  0  0  0  0
    2.1700    0.7907   -3.3974 H   0  0  0  0  0  0  0  0  0  0  0  0
    1.1194   -0.4736   -0.2089 H   0  0  0  0  0  0  0  0  0  0  0  0
    5.9421   -4.0859   -0.8518 H   0  0  0  0  0  0  0  0  0  0  0  0
    4.3417   -4.3075   -0.0957 H   0  0  0  0  0  0  0  0  0  0  0  0
    7.0496   -5.3824    0.8785 H   0  0  0  0  0  0  0  0  0  0  0  0
    5.6856   -6.3379    0.2688 H   0  0  0  0  0  0  0  0  0  0  0  0
    6.7701   -4.0805    3.1444 H   0  0  0  0  0  0  0  0  0  0  0  0
    5.2450   -4.2593    4.0341 H   0  0  0  0  0  0  0  0  0  0  0  0
    5.3951   -2.0827    2.7639 H   0  0  0  0  0  0  0  0  0  0  0  0
    4.0131   -3.0618    2.2257 H   0  0  0  0  0  0  0  0  0  0  0  0
    6.3964   -6.5628    4.0499 H   0  0  0  0  0  0  0  0  0  0  0  0
    6.7282   -7.4025    2.5002 H   0  0  0  0  0  0  0  0  0  0  0  0
    2.0459   -7.7257    3.6554 H   0  0  0  0  0  0  0  0  0  0  0  0
    1.1665   -9.3281    5.3185 H   0  0  0  0  0  0  0  0  0  0  0  0
    2.7344  -10.7930    6.6406 H   0  0  0  0  0  0  0  0  0  0  0  0
    6.0830   -9.0160    4.6215 H   0  0  0  0  0  0  0  0  0  0  0  0
    3.4448   -5.5887    3.2808 H   0  0  0  0  0  0  0  0  0  0  0  0
    1.8950   -4.6196    1.7095 H   0  0  0  0  0  0  0  0  0  0  0  0
    0.3637   -4.9733   -0.2084 H   0  0  0  0  0  0  0  0  0  0  0  0
    0.6253   -6.9832   -1.6681 H   0  0  0  0  0  0  0  0  0  0  0  0
    2.4249   -8.6398   -1.1737 H   0  0  0  0  0  0  0  0  0  0  0  0
    3.9513   -8.2832    0.7618 H   0  0  0  0  0  0  0  0  0  0  0  0
    4.5387   -0.7956   -2.6949 H   0  0  0  0  0  0  0  0  0  0  0  0
  1  2  1  0
  1 32  1  0
  1 33  1  0
  1 34  1  0
  2  3  1  0
  2 31  1  0
  3  4  2  0
  3 35  1  0
  4  5  1  0
  6  5  1  6
  5 31  2  0
  6  7  2  0
  6  8  2  0
  6  9  1  0
  9 10  1  0
  9 14  1  0
 10 11  1  0
 10 36  1  0
 10 37  1  0
 12 11  1  6
 11 38  1  0
 11 39  1  0
 12 13  1  0
 12 15  1  0
 12 24  1  0
 13 14  1  0
 13 40  1  0
 13 41  1  0
 14 42  1  0
 14 43  1  0
 15 16  1  0
 15 44  1  0
 15 45  1  0
 16 17  1  0
 16 24  1  0
 17 18  2  0
 17 23  1  0
 18 19  1  0
 18 46  1  0
 19 20  2  0
 19 47  1  0
 20 21  1  0
 20 48  1  0
 21 22  1  0
 21 23  2  0
 23 49  1  0
 24 25  1  0
 24 50  1  1
 25 26  2  0
 25 30  1  0
 26 27  1  0
 26 51  1  0
 27 28  2  0
 27 52  1  0
 28 29  1  0
 28 53  1  0
 29 30  2  0
 29 54  1  0
 30 55  1  0
 31 56  1  0
M  END

