
     RDKit          3D

 29 30  0  0  0  0  0  0  0  0999 V2000
    0.9136   -0.2473    0.2506 C   0  0  0  0  0  0  0  0  0  0  0  0
    2.4148   -0.1745    0.1463 C   0  0  0  0  0  0  0  0  0  0  0  0
    3.0650    1.0703    0.1194 C   0  0  0  0  0  0  0  0  0  0  0  0
    4.4563    1.1382    0.0185 C   0  0  0  0  0  0  0  0  0  0  0  0
    5.1700    2.3200   -0.0476 O   0  0  0  0  0  0  0  0  0  0  0  0
    4.5364    3.5363    0.2615 C   0  0  1  0  0  0  0  0  0  0  0  0
    3.8292    4.1943   -0.9028 C   0  0  0  0  0  0  0  0  0  0  0  0
    3.0972    5.1404   -0.7793 O   0  0  0  0  0  0  0  0  0  0  0  0
    4.1191    3.6574   -2.0981 O   0  0  0  0  0  0  0  0  0  0  0  0
    4.0330    3.7894    1.6593 C   0  0  0  0  0  0  0  0  0  0  0  0
    5.2950    4.4524    1.1973 C   0  0  0  0  0  0  0  0  0  0  0  0
    5.2174   -0.0320   -0.0553 C   0  0  0  0  0  0  0  0  0  0  0  0
    4.6075   -1.2902   -0.0330 C   0  0  0  0  0  0  0  0  0  0  0  0
    5.4330   -2.5475   -0.1126 C   0  0  0  0  0  0  0  0  0  0  0  0
    3.2035   -1.3339    0.0700 C   0  0  0  0  0  0  0  0  0  0  0  0
    2.4085   -2.9022    0.1029 Cl  0  0  0  0  0  0  0  0  0  0  0  0
    0.4705    0.7573    0.2974 H   0  0  0  0  0  0  0  0  0  0  0  0
    0.6045   -0.8081    1.1475 H   0  0  0  0  0  0  0  0  0  0  0  0
    0.4816   -0.7786   -0.6128 H   0  0  0  0  0  0  0  0  0  0  0  0
    2.4630    1.9775    0.1754 H   0  0  0  0  0  0  0  0  0  0  0  0
    4.7584    2.9363   -1.9638 H   0  0  0  0  0  0  0  0  0  0  0  0
    4.1170    2.9563    2.3614 H   0  0  0  0  0  0  0  0  0  0  0  0
    3.1285    4.3970    1.7411 H   0  0  0  0  0  0  0  0  0  0  0  0
    6.2470    4.0581    1.5617 H   0  0  0  0  0  0  0  0  0  0  0  0
    5.2730    5.5210    0.9699 H   0  0  0  0  0  0  0  0  0  0  0  0
    6.3033    0.0550   -0.1306 H   0  0  0  0  0  0  0  0  0  0  0  0
    6.5042   -2.3125   -0.1845 H   0  0  0  0  0  0  0  0  0  0  0  0
    5.1486   -3.1541   -0.9877 H   0  0  0  0  0  0  0  0  0  0  0  0
    5.2733   -3.1843    0.7725 H   0  0  0  0  0  0  0  0  0  0  0  0
  1  2  1  0
  1 17  1  0
  1 18  1  0
  1 19  1  0
  2  3  2  0
  2 15  1  0
  3  4  1  0
  3 20  1  0
  4  5  1  0
  4 12  2  0
  6  5  1  6
  6  7  1  0
  6 10  1  0
  6 11  1  0
  7  8  2  0
  7  9  1  0
  9 21  1  0
 10 11  1  0
 10 22  1  0
 10 23  1  0
 11 24  1  0
 11 25  1  0
 12 13  1  0
 12 26  1  0
 13 14  1  0
 13 15  2  0
 14 27  1  0
 14 28  1  0
 14 29  1  0
 15 16  1  0
M  END

