
     RDKit          3D

 40 41  0  0  0  0  0  0  0  0999 V2000
    1.0757   -0.4789    0.4862 C   0  0  0  0  0  0  0  0  0  0  0  0
    2.4969   -0.1026    0.0634 C   0  0  1  0  0  0  0  0  0  0  0  0
    2.5682    0.1642   -1.4441 C   0  0  0  0  0  0  0  0  0  0  0  0
    3.0803    1.0699    0.8942 C   0  0  0  0  0  0  0  0  0  0  0  0
    4.5401    0.6619    1.1202 C   0  0  0  0  0  0  0  0  0  0  0  0
    4.4202   -0.8583    1.2454 C   0  0  2  0  0  0  0  0  0  0  0  0
    5.6611   -1.6577    0.8779 C   0  0  0  0  0  0  0  0  0  0  0  0
    5.3983   -3.0800    0.9886 N   0  0  0  0  0  0  0  0  0  0  0  0
    6.4911   -3.9359    0.5732 C   0  0  0  0  0  0  0  0  0  0  0  0
    6.2174   -5.4057    0.8248 C   0  0  0  0  0  0  0  0  0  0  0  0
    6.8254   -6.3921    0.0307 C   0  0  0  0  0  0  0  0  0  0  0  0
    6.6170   -7.7457    0.2837 C   0  0  0  0  0  0  0  0  0  0  0  0
    5.7704   -8.1521    1.3271 C   0  0  0  0  0  0  0  0  0  0  0  0
    5.5869   -9.6265    1.5485 C   0  0  0  0  0  0  0  0  0  0  0  0
    6.3246  -10.4607    1.0929 O   0  0  0  0  0  0  0  0  0  0  0  0
    4.5221   -9.9966    2.2992 O   0  0  0  0  0  0  0  0  0  0  0  0
    5.1656   -7.1686    2.1262 C   0  0  0  0  0  0  0  0  0  0  0  0
    5.3865   -5.8131    1.8789 C   0  0  0  0  0  0  0  0  0  0  0  0
    3.3682   -1.2211    0.3516 O   0  0  0  0  0  0  0  0  0  0  0  0
    0.3786    0.3579    0.3185 H   0  0  0  0  0  0  0  0  0  0  0  0
    1.0489   -0.7446    1.5543 H   0  0  0  0  0  0  0  0  0  0  0  0
    0.7184   -1.3463   -0.0904 H   0  0  0  0  0  0  0  0  0  0  0  0
    1.8580    0.9517   -1.7429 H   0  0  0  0  0  0  0  0  0  0  0  0
    2.3231   -0.7538   -2.0001 H   0  0  0  0  0  0  0  0  0  0  0  0
    3.5806    0.4787   -1.7419 H   0  0  0  0  0  0  0  0  0  0  0  0
    2.5562    1.1436    1.8610 H   0  0  0  0  0  0  0  0  0  0  0  0
    2.9695    2.0382    0.3837 H   0  0  0  0  0  0  0  0  0  0  0  0
    4.9909    1.1294    2.0085 H   0  0  0  0  0  0  0  0  0  0  0  0
    5.1628    0.9227    0.2479 H   0  0  0  0  0  0  0  0  0  0  0  0
    4.1305   -1.1329    2.2807 H   0  0  0  0  0  0  0  0  0  0  0  0
    6.4823   -1.3847    1.5659 H   0  0  0  0  0  0  0  0  0  0  0  0
    5.9828   -1.3524   -0.1443 H   0  0  0  0  0  0  0  0  0  0  0  0
    4.5533   -3.2956    0.4584 H   0  0  0  0  0  0  0  0  0  0  0  0
    7.3885   -3.6453    1.1538 H   0  0  0  0  0  0  0  0  0  0  0  0
    6.7801   -3.8022   -0.4942 H   0  0  0  0  0  0  0  0  0  0  0  0
    7.4724   -6.0923   -0.7988 H   0  0  0  0  0  0  0  0  0  0  0  0
    7.0969   -8.5151   -0.3241 H   0  0  0  0  0  0  0  0  0  0  0  0
    3.9558   -9.2334    2.4783 H   0  0  0  0  0  0  0  0  0  0  0  0
    4.5358   -7.4461    2.9777 H   0  0  0  0  0  0  0  0  0  0  0  0
    4.9178   -5.0480    2.5002 H   0  0  0  0  0  0  0  0  0  0  0  0
  2  1  1  1
  1 20  1  0
  1 21  1  0
  1 22  1  0
  2  3  1  0
  2  4  1  0
  2 19  1  0
  3 23  1  0
  3 24  1  0
  3 25  1  0
  4  5  1  0
  4 26  1  0
  4 27  1  0
  5  6  1  0
  5 28  1  0
  5 29  1  0
  6  7  1  0
  6 19  1  0
  6 30  1  1
  7  8  1  0
  7 31  1  0
  7 32  1  0
  8  9  1  0
  8 33  1  0
  9 10  1  0
  9 34  1  0
  9 35  1  0
 10 11  2  0
 10 18  1  0
 11 12  1  0
 11 36  1  0
 12 13  2  0
 12 37  1  0
 13 14  1  0
 13 17  1  0
 14 15  2  0
 14 16  1  0
 16 38  1  0
 17 18  2  0
 17 39  1  0
 18 40  1  0
M  END

