
     RDKit          3D

 49 52  0  0  0  0  0  0  0  0999 V2000
    2.6387   -0.2589    1.5631 O   0  0  0  0  0  0  0  0  0  0  0  0
    2.5414   -0.1435    0.3484 C   0  0  0  0  0  0  0  0  0  0  0  0
    3.1780   -1.1894   -0.6065 C   0  0  1  0  0  0  0  0  0  0  0  0
    4.0339   -2.1936    0.1798 C   0  0  0  0  0  0  0  0  0  0  0  0
    4.8220   -3.1621   -0.7175 C   0  0  0  0  0  0  0  0  0  0  0  0
    5.6691   -4.1363    0.0733 C   0  0  0  0  0  0  0  0  0  0  0  0
    5.1335   -5.3559    0.5182 C   0  0  0  0  0  0  0  0  0  0  0  0
    5.9001   -6.2434    1.2782 C   0  0  0  0  0  0  0  0  0  0  0  0
    7.2213   -5.9264    1.6080 C   0  0  0  0  0  0  0  0  0  0  0  0
    7.7682   -4.7164    1.1711 C   0  0  0  0  0  0  0  0  0  0  0  0
    6.9971   -3.8316    0.4119 C   0  0  0  0  0  0  0  0  0  0  0  0
    2.1711   -1.8264   -1.4525 N   0  0  0  0  0  0  0  0  0  0  0  0
    2.2730   -1.9815   -2.8263 C   0  0  0  0  0  0  0  0  0  0  0  0
    1.1946   -2.6761   -3.3135 C   0  0  0  0  0  0  0  0  0  0  0  0
    0.3600   -2.9896   -2.1860 C   0  0  0  0  0  0  0  0  0  0  0  0
   -0.8629   -3.6723   -2.0348 C   0  0  0  0  0  0  0  0  0  0  0  0
   -1.4110   -3.8037   -0.7638 C   0  0  0  0  0  0  0  0  0  0  0  0
   -0.7596   -3.2638    0.3668 C   0  0  0  0  0  0  0  0  0  0  0  0
    0.4496   -2.5822    0.2538 C   0  0  0  0  0  0  0  0  0  0  0  0
    1.0026   -2.4488   -1.0318 C   0  0  0  0  0  0  0  0  0  0  0  0
    1.8819    0.9024   -0.2169 N   0  0  0  0  0  0  0  0  0  0  0  0
    1.2315    1.8970    0.6502 C   0  0  0  0  0  0  0  0  0  0  0  0
    0.4111    2.7475   -0.3261 C   0  0  0  0  0  0  0  0  0  0  0  0
    1.2186    2.6652   -1.6290 C   0  0  0  0  0  0  0  0  0  0  0  0
    1.7029    1.2093   -1.6419 C   0  0  0  0  0  0  0  0  0  0  0  0
    3.8386   -0.6392   -1.2982 H   0  0  0  0  0  0  0  0  0  0  0  0
    3.3910   -2.7577    0.8719 H   0  0  0  0  0  0  0  0  0  0  0  0
    4.7240   -1.6225    0.8193 H   0  0  0  0  0  0  0  0  0  0  0  0
    5.4705   -2.5831   -1.3988 H   0  0  0  0  0  0  0  0  0  0  0  0
    4.1205   -3.7235   -1.3556 H   0  0  0  0  0  0  0  0  0  0  0  0
    4.1017   -5.6143    0.2615 H   0  0  0  0  0  0  0  0  0  0  0  0
    5.4641   -7.1890    1.6117 H   0  0  0  0  0  0  0  0  0  0  0  0
    7.8230   -6.6208    2.2000 H   0  0  0  0  0  0  0  0  0  0  0  0
    8.8016   -4.4605    1.4200 H   0  0  0  0  0  0  0  0  0  0  0  0
    7.4356   -2.8884    0.0716 H   0  0  0  0  0  0  0  0  0  0  0  0
    3.1311   -1.5700   -3.3556 H   0  0  0  0  0  0  0  0  0  0  0  0
    1.0164   -2.9348   -4.3552 H   0  0  0  0  0  0  0  0  0  0  0  0
   -1.3700   -4.0934   -2.9070 H   0  0  0  0  0  0  0  0  0  0  0  0
   -2.3584   -4.3331   -0.6336 H   0  0  0  0  0  0  0  0  0  0  0  0
   -1.2119   -3.3834    1.3546 H   0  0  0  0  0  0  0  0  0  0  0  0
    0.9431   -2.1681    1.1341 H   0  0  0  0  0  0  0  0  0  0  0  0
    1.9958    2.4925    1.1812 H   0  0  0  0  0  0  0  0  0  0  0  0
    0.6290    1.3952    1.4216 H   0  0  0  0  0  0  0  0  0  0  0  0
    0.2644    3.7770    0.0322 H   0  0  0  0  0  0  0  0  0  0  0  0
   -0.5862    2.3000   -0.4722 H   0  0  0  0  0  0  0  0  0  0  0  0
    2.0820    3.3503   -1.5848 H   0  0  0  0  0  0  0  0  0  0  0  0
    0.6355    2.9195   -2.5264 H   0  0  0  0  0  0  0  0  0  0  0  0
    2.6407    1.0829   -2.2050 H   0  0  0  0  0  0  0  0  0  0  0  0
    0.9510    0.5437   -2.0998 H   0  0  0  0  0  0  0  0  0  0  0  0
  1  2  2  0
  2  3  1  0
  2 21  1  0
  3  4  1  0
  3 12  1  0
  3 26  1  6
  4  5  1  0
  4 27  1  0
  4 28  1  0
  5  6  1  0
  5 29  1  0
  5 30  1  0
  6  7  2  0
  6 11  1  0
  7  8  1  0
  7 31  1  0
  8  9  2  0
  8 32  1  0
  9 10  1  0
  9 33  1  0
 10 11  2  0
 10 34  1  0
 11 35  1  0
 12 13  1  0
 12 20  1  0
 13 14  2  0
 13 36  1  0
 14 15  1  0
 14 37  1  0
 15 16  1  0
 15 20  2  0
 16 17  2  0
 16 38  1  0
 17 18  1  0
 17 39  1  0
 18 19  2  0
 18 40  1  0
 19 20  1  0
 19 41  1  0
 21 22  1  0
 21 25  1  0
 22 23  1  0
 22 42  1  0
 22 43  1  0
 23 24  1  0
 23 44  1  0
 23 45  1  0
 24 25  1  0
 24 46  1  0
 24 47  1  0
 25 48  1  0
 25 49  1  0
M  END

