
     RDKit          3D

 50 52  0  0  0  0  0  0  0  0999 V2000
    4.4825   -2.5814    1.2644 C   0  0  0  0  0  0  0  0  0  0  0  0
    3.8529   -1.2098    1.1794 C   0  0  0  0  0  0  0  0  0  0  0  0
    4.6671   -0.0967    0.9236 C   0  0  0  0  0  0  0  0  0  0  0  0
    4.1146    1.1788    0.8537 C   0  0  0  0  0  0  0  0  0  0  0  0
    4.9197    2.2242    0.6072 F   0  0  0  0  0  0  0  0  0  0  0  0
    2.7529    1.3918    1.0364 C   0  0  0  0  0  0  0  0  0  0  0  0
    1.9434    0.2839    1.2936 C   0  0  0  0  0  0  0  0  0  0  0  0
    2.4635   -1.0176    1.3712 C   0  0  0  0  0  0  0  0  0  0  0  0
    1.5164   -2.1750    1.6112 C   0  0  0  0  0  0  0  0  0  0  0  0
    0.9236   -2.7398    0.3028 C   0  0  0  0  0  0  0  0  0  0  0  0
   -0.0012   -3.8413    0.5122 N   0  0  0  0  0  0  0  0  0  0  0  0
   -1.3624   -3.6590    0.4655 C   0  0  0  0  0  0  0  0  0  0  0  0
   -1.8487   -2.5800    0.1579 O   0  0  0  0  0  0  0  0  0  0  0  0
   -2.1956   -4.7544    0.7722 N   0  0  0  0  0  0  0  0  0  0  0  0
   -3.5314   -4.6474    0.1764 C   0  0  0  0  0  0  0  0  0  0  0  0
   -3.5192   -5.1212   -1.2834 C   0  0  0  0  0  0  0  0  0  0  0  0
   -2.9519   -6.8454   -1.4048 S   0  0  1  0  0  0  0  0  0  0  0  0
   -3.9743   -7.6676   -0.7261 O   0  0  0  0  0  0  0  0  0  0  0  0
   -2.5490   -7.1388   -2.7869 O   0  0  0  0  0  0  0  0  0  0  0  0
   -1.4444   -6.8788   -0.3294 C   0  0  2  0  0  0  0  0  0  0  0  0
   -1.0506   -8.3507   -0.1405 C   0  0  0  0  0  0  0  0  0  0  0  0
   -0.0032   -8.5223    0.9660 C   0  0  0  0  0  0  0  0  0  0  0  0
   -0.4828   -7.9011    2.2831 C   0  0  0  0  0  0  0  0  0  0  0  0
   -0.7559   -6.4009    2.1174 C   0  0  0  0  0  0  0  0  0  0  0  0
   -1.7852   -6.1520    0.9956 C   0  0  1  0  0  0  0  0  0  0  0  0
    5.5600   -2.5363    1.0515 H   0  0  0  0  0  0  0  0  0  0  0  0
    4.0325   -3.2886    0.5485 H   0  0  0  0  0  0  0  0  0  0  0  0
    4.3600   -3.0214    2.2687 H   0  0  0  0  0  0  0  0  0  0  0  0
    5.7432   -0.2107    0.7759 H   0  0  0  0  0  0  0  0  0  0  0  0
    2.3474    2.4035    0.9791 H   0  0  0  0  0  0  0  0  0  0  0  0
    0.8703    0.4354    1.4422 H   0  0  0  0  0  0  0  0  0  0  0  0
    0.6780   -1.8422    2.2437 H   0  0  0  0  0  0  0  0  0  0  0  0
    2.0201   -2.9859    2.1622 H   0  0  0  0  0  0  0  0  0  0  0  0
    1.7331   -3.0715   -0.3693 H   0  0  0  0  0  0  0  0  0  0  0  0
    0.3668   -1.9507   -0.2194 H   0  0  0  0  0  0  0  0  0  0  0  0
    0.3842   -4.7519    0.7075 H   0  0  0  0  0  0  0  0  0  0  0  0
   -3.8456   -3.5981    0.2134 H   0  0  0  0  0  0  0  0  0  0  0  0
   -4.2384   -5.2530    0.7613 H   0  0  0  0  0  0  0  0  0  0  0  0
   -2.8540   -4.5089   -1.9098 H   0  0  0  0  0  0  0  0  0  0  0  0
   -4.5222   -5.1474   -1.7368 H   0  0  0  0  0  0  0  0  0  0  0  0
   -0.6823   -6.3311   -0.9073 H   0  0  0  0  0  0  0  0  0  0  0  0
   -0.6943   -8.7586   -1.0985 H   0  0  0  0  0  0  0  0  0  0  0  0
   -1.9579   -8.9165    0.1282 H   0  0  0  0  0  0  0  0  0  0  0  0
    0.9505   -8.0519    0.6618 H   0  0  0  0  0  0  0  0  0  0  0  0
    0.2112   -9.5946    1.1014 H   0  0  0  0  0  0  0  0  0  0  0  0
    0.2644   -8.0552    3.0781 H   0  0  0  0  0  0  0  0  0  0  0  0
   -1.4035   -8.4133    2.6151 H   0  0  0  0  0  0  0  0  0  0  0  0
    0.2067   -5.8998    1.9347 H   0  0  0  0  0  0  0  0  0  0  0  0
   -1.1529   -5.9594    3.0453 H   0  0  0  0  0  0  0  0  0  0  0  0
   -2.6986   -6.6514    1.3595 H   0  0  0  0  0  0  0  0  0  0  0  0
  1  2  1  0
  1 26  1  0
  1 27  1  0
  1 28  1  0
  2  3  2  0
  2  8  1  0
  3  4  1  0
  3 29  1  0
  4  5  1  0
  4  6  2  0
  6  7  1  0
  6 30  1  0
  7  8  2  0
  7 31  1  0
  8  9  1  0
  9 10  1  0
  9 32  1  0
  9 33  1  0
 10 11  1  0
 10 34  1  0
 10 35  1  0
 11 12  1  0
 11 36  1  0
 12 13  2  0
 12 14  1  0
 14 15  1  0
 14 25  1  0
 15 16  1  0
 15 37  1  0
 15 38  1  0
 17 16  1  6
 16 39  1  0
 16 40  1  0
 17 18  2  0
 17 19  2  0
 17 20  1  0
 20 21  1  0
 20 25  1  0
 20 41  1  6
 21 22  1  0
 21 42  1  0
 21 43  1  0
 22 23  1  0
 22 44  1  0
 22 45  1  0
 23 24  1  0
 23 46  1  0
 23 47  1  0
 24 25  1  0
 24 48  1  0
 24 49  1  0
 25 50  1  1
M  END

