
     RDKit          3D

 69 71  0  0  0  0  0  0  0  0999 V2000
    6.3831   -3.4153    4.8231 C   0  0  0  0  0  0  0  0  0  0  0  0
    7.0665   -2.1019    4.4407 C   0  0  0  0  0  0  0  0  0  0  0  0
    8.1527   -2.2383    3.3658 C   0  0  0  0  0  0  0  0  0  0  0  0
    7.6582   -2.6950    2.0729 N   0  0  0  0  0  0  0  0  0  0  0  0
    7.5139   -1.8502    1.0172 C   0  0  0  0  0  0  0  0  0  0  0  0
    7.7060   -0.6473    1.0963 O   0  0  0  0  0  0  0  0  0  0  0  0
    6.9115   -2.4687   -0.2736 C   0  0  1  0  0  0  0  0  0  0  0  0
    6.9360   -1.4864   -1.4741 C   0  0  0  0  0  0  0  0  0  0  0  0
    8.2141   -1.2100   -2.2475 C   0  0  0  0  0  0  0  0  0  0  0  0
    9.3287   -0.5875   -1.6572 C   0  0  0  0  0  0  0  0  0  0  0  0
   10.4648   -0.2961   -2.4128 C   0  0  0  0  0  0  0  0  0  0  0  0
   10.5159   -0.6105   -3.7758 C   0  0  0  0  0  0  0  0  0  0  0  0
    9.4106   -1.2100   -4.3806 C   0  0  0  0  0  0  0  0  0  0  0  0
    8.2715   -1.5006   -3.6203 C   0  0  0  0  0  0  0  0  0  0  0  0
    7.3224   -3.8657   -0.5328 N   0  0  0  0  0  0  0  0  0  0  0  0
    6.2788   -4.8759   -0.6966 C   0  0  0  0  0  0  0  0  0  0  0  0
    5.8350   -5.2056   -2.1147 C   0  0  0  0  0  0  0  0  0  0  0  0
    6.4862   -4.7110   -3.2524 C   0  0  0  0  0  0  0  0  0  0  0  0
    6.0685   -5.0547   -4.5417 C   0  0  0  0  0  0  0  0  0  0  0  0
    4.9797   -5.9105   -4.7195 C   0  0  0  0  0  0  0  0  0  0  0  0
    4.3159   -6.4275   -3.6041 C   0  0  0  0  0  0  0  0  0  0  0  0
    4.7507   -6.0775   -2.3243 C   0  0  0  0  0  0  0  0  0  0  0  0
    3.9140   -6.7715   -0.9395 Cl  0  0  0  0  0  0  0  0  0  0  0  0
    8.6677   -4.1743   -0.5468 C   0  0  0  0  0  0  0  0  0  0  0  0
    9.5226   -3.3374   -0.3250 O   0  0  0  0  0  0  0  0  0  0  0  0
    9.1015   -5.6177   -0.8766 C   0  0  0  0  0  0  0  0  0  0  0  0
    8.7221   -6.6111    0.1414 N   0  0  0  0  0  0  0  0  0  0  0  0
    9.0456   -6.3427    1.5120 C   0  0  0  0  0  0  0  0  0  0  0  0
   10.2121   -5.6559    1.8802 C   0  0  0  0  0  0  0  0  0  0  0  0
   10.4689   -5.3803    3.2261 C   0  0  0  0  0  0  0  0  0  0  0  0
    9.5745   -5.7988    4.2038 C   0  0  0  0  0  0  0  0  0  0  0  0
    9.7818   -5.5107    5.4909 F   0  0  0  0  0  0  0  0  0  0  0  0
    8.4174   -6.4957    3.8405 C   0  0  0  0  0  0  0  0  0  0  0  0
    7.5583   -6.8676    4.7925 F   0  0  0  0  0  0  0  0  0  0  0  0
    8.1439   -6.7598    2.5059 C   0  0  0  0  0  0  0  0  0  0  0  0
    8.9665   -8.2579   -0.3819 S   0  0  1  0  0  0  0  0  0  0  0  0
    7.4413   -8.6222   -1.2602 C   0  0  0  0  0  0  0  0  0  0  0  0
   10.0525   -8.2768   -1.3637 O   0  0  0  0  0  0  0  0  0  0  0  0
    9.0104   -9.0857    0.8200 O   0  0  0  0  0  0  0  0  0  0  0  0
    5.6180   -3.2566    5.5994 H   0  0  0  0  0  0  0  0  0  0  0  0
    7.1029   -4.1520    5.2159 H   0  0  0  0  0  0  0  0  0  0  0  0
    5.8762   -3.8738    3.9574 H   0  0  0  0  0  0  0  0  0  0  0  0
    7.5372   -1.6564    5.3348 H   0  0  0  0  0  0  0  0  0  0  0  0
    6.3171   -1.3710    4.0911 H   0  0  0  0  0  0  0  0  0  0  0  0
    8.9362   -2.9353    3.7069 H   0  0  0  0  0  0  0  0  0  0  0  0
    8.6255   -1.2619    3.1918 H   0  0  0  0  0  0  0  0  0  0  0  0
    7.5489   -3.6892    1.9166 H   0  0  0  0  0  0  0  0  0  0  0  0
    5.8418   -2.5477   -0.0176 H   0  0  0  0  0  0  0  0  0  0  0  0
    6.5672   -0.5364   -1.0563 H   0  0  0  0  0  0  0  0  0  0  0  0
    6.1713   -1.8336   -2.1857 H   0  0  0  0  0  0  0  0  0  0  0  0
    9.2926   -0.3299   -0.5987 H   0  0  0  0  0  0  0  0  0  0  0  0
   11.3205    0.1858   -1.9323 H   0  0  0  0  0  0  0  0  0  0  0  0
   11.4088   -0.3794   -4.3627 H   0  0  0  0  0  0  0  0  0  0  0  0
    9.4266   -1.4454   -5.4483 H   0  0  0  0  0  0  0  0  0  0  0  0
    7.3998   -1.9407   -4.1134 H   0  0  0  0  0  0  0  0  0  0  0  0
    5.3980   -4.5481   -0.1238 H   0  0  0  0  0  0  0  0  0  0  0  0
    6.6066   -5.8057   -0.2097 H   0  0  0  0  0  0  0  0  0  0  0  0
    7.3336   -4.0365   -3.1228 H   0  0  0  0  0  0  0  0  0  0  0  0
    6.5984   -4.6495   -5.4068 H   0  0  0  0  0  0  0  0  0  0  0  0
    4.6438   -6.1819   -5.7230 H   0  0  0  0  0  0  0  0  0  0  0  0
    3.4656   -7.1024   -3.7157 H   0  0  0  0  0  0  0  0  0  0  0  0
   10.1891   -5.5679   -1.0320 H   0  0  0  0  0  0  0  0  0  0  0  0
    8.6578   -5.9251   -1.8347 H   0  0  0  0  0  0  0  0  0  0  0  0
   10.9140   -5.3082    1.1233 H   0  0  0  0  0  0  0  0  0  0  0  0
   11.3628   -4.8328    3.5307 H   0  0  0  0  0  0  0  0  0  0  0  0
    7.2330   -7.3011    2.2513 H   0  0  0  0  0  0  0  0  0  0  0  0
    7.3245   -7.9327   -2.1055 H   0  0  0  0  0  0  0  0  0  0  0  0
    6.5942   -8.5506   -0.5676 H   0  0  0  0  0  0  0  0  0  0  0  0
    7.5613   -9.6508   -1.6272 H   0  0  0  0  0  0  0  0  0  0  0  0
  1  2  1  0
  1 40  1  0
  1 41  1  0
  1 42  1  0
  2  3  1  0
  2 43  1  0
  2 44  1  0
  3  4  1  0
  3 45  1  0
  3 46  1  0
  4  5  1  0
  4 47  1  0
  5  6  2  0
  5  7  1  0
  7  8  1  0
  7 15  1  0
  7 48  1  1
  8  9  1  0
  8 49  1  0
  8 50  1  0
  9 10  2  0
  9 14  1  0
 10 11  1  0
 10 51  1  0
 11 12  2  0
 11 52  1  0
 12 13  1  0
 12 53  1  0
 13 14  2  0
 13 54  1  0
 14 55  1  0
 15 16  1  0
 15 24  1  0
 16 17  1  0
 16 56  1  0
 16 57  1  0
 17 18  2  0
 17 22  1  0
 18 19  1  0
 18 58  1  0
 19 20  2  0
 19 59  1  0
 20 21  1  0
 20 60  1  0
 21 22  2  0
 21 61  1  0
 22 23  1  0
 24 25  2  0
 24 26  1  0
 26 27  1  0
 26 62  1  0
 26 63  1  0
 27 28  1  0
 36 27  1  1
 28 29  2  0
 28 35  1  0
 29 30  1  0
 29 64  1  0
 30 31  2  0
 30 65  1  0
 31 32  1  0
 31 33  1  0
 33 34  1  0
 33 35  2  0
 35 66  1  0
 36 37  1  0
 36 38  2  0
 36 39  2  0
 37 67  1  0
 37 68  1  0
 37 69  1  0
M  END

