
     RDKit          3D

 60 62  0  0  0  0  0  0  0  0999 V2000
    3.1636   -0.8495   -4.8970 C   0  0  0  0  0  0  0  0  0  0  0  0
    4.4482   -0.7352   -4.1118 C   0  0  0  0  0  0  0  0  0  0  0  0
    5.1050    0.4876   -3.9542 C   0  0  0  0  0  0  0  0  0  0  0  0
    6.2958    0.5657   -3.2202 C   0  0  0  0  0  0  0  0  0  0  0  0
    6.8672   -0.5586   -2.6275 C   0  0  0  0  0  0  0  0  0  0  0  0
    8.1638   -0.5139   -1.8388 C   0  0  0  0  0  0  0  0  0  0  0  0
    8.6059    0.8210   -1.4930 N   0  0  0  0  0  0  0  0  0  0  0  0
    9.8688    1.2694   -1.8296 C   0  0  0  0  0  0  0  0  0  0  0  0
   10.6522    0.5792   -2.4682 O   0  0  0  0  0  0  0  0  0  0  0  0
   10.1931    2.5582   -1.4222 N   0  0  0  0  0  0  0  0  0  0  0  0
   11.5968    2.9605   -1.4997 C   0  0  0  0  0  0  0  0  0  0  0  0
   11.7197    4.4276   -1.9258 C   0  0  0  0  0  0  0  0  0  0  0  0
   10.9276    5.3363   -1.0989 N   0  0  0  0  0  0  0  0  0  0  0  0
   11.5268    5.7213    0.1754 C   0  0  0  0  0  0  0  0  0  0  0  0
   12.5732    6.8473    0.0493 C   0  0  1  0  0  0  0  0  0  0  0  0
   11.9577    8.1243   -0.5302 C   0  0  0  0  0  0  0  0  0  0  0  0
   13.2444    7.1021    1.4037 C   0  0  0  0  0  0  0  0  0  0  0  0
    9.5417    4.9022   -1.0682 C   0  0  0  0  0  0  0  0  0  0  0  0
    9.3432    3.4369   -0.6309 C   0  0  0  0  0  0  0  0  0  0  0  0
    6.2058   -1.7983   -2.7934 C   0  0  0  0  0  0  0  0  0  0  0  0
    6.8210   -2.8665   -2.2026 O   0  0  0  0  0  0  0  0  0  0  0  0
    6.3514   -4.1858   -2.3944 C   0  0  1  0  0  0  0  0  0  0  0  0
    7.4349   -5.1881   -1.9929 C   0  0  0  0  0  0  0  0  0  0  0  0
    6.6183   -6.4480   -1.6995 C   0  0  0  0  0  0  0  0  0  0  0  0
    5.3185   -6.0035   -1.3046 O   0  0  0  0  0  0  0  0  0  0  0  0
    5.2016   -4.6020   -1.4574 C   0  0  0  0  0  0  0  0  0  0  0  0
    5.0132   -1.8793   -3.5181 C   0  0  0  0  0  0  0  0  0  0  0  0
    2.8245    0.1321   -5.2592 H   0  0  0  0  0  0  0  0  0  0  0  0
    2.3537   -1.2812   -4.2852 H   0  0  0  0  0  0  0  0  0  0  0  0
    3.2869   -1.5062   -5.7750 H   0  0  0  0  0  0  0  0  0  0  0  0
    4.6879    1.3909   -4.4070 H   0  0  0  0  0  0  0  0  0  0  0  0
    6.8034    1.5263   -3.1088 H   0  0  0  0  0  0  0  0  0  0  0  0
    8.9794   -0.9716   -2.4194 H   0  0  0  0  0  0  0  0  0  0  0  0
    8.0532   -1.1351   -0.9327 H   0  0  0  0  0  0  0  0  0  0  0  0
    8.0656    1.3230   -0.8024 H   0  0  0  0  0  0  0  0  0  0  0  0
   12.0929    2.2957   -2.2172 H   0  0  0  0  0  0  0  0  0  0  0  0
   12.0854    2.8093   -0.5151 H   0  0  0  0  0  0  0  0  0  0  0  0
   11.3785    4.5221   -2.9724 H   0  0  0  0  0  0  0  0  0  0  0  0
   12.7770    4.7327   -1.9031 H   0  0  0  0  0  0  0  0  0  0  0  0
   11.9927    4.8642    0.7086 H   0  0  0  0  0  0  0  0  0  0  0  0
   10.7174    6.0798    0.8352 H   0  0  0  0  0  0  0  0  0  0  0  0
   13.3559    6.4996   -0.6508 H   0  0  0  0  0  0  0  0  0  0  0  0
   11.2133    8.5514    0.1651 H   0  0  0  0  0  0  0  0  0  0  0  0
   11.4470    7.9117   -1.4808 H   0  0  0  0  0  0  0  0  0  0  0  0
   12.7251    8.8947   -0.7094 H   0  0  0  0  0  0  0  0  0  0  0  0
   12.5082    7.4414    2.1534 H   0  0  0  0  0  0  0  0  0  0  0  0
   14.0177    7.8828    1.3252 H   0  0  0  0  0  0  0  0  0  0  0  0
   13.7261    6.1924    1.7989 H   0  0  0  0  0  0  0  0  0  0  0  0
    9.1245    5.0051   -2.0870 H   0  0  0  0  0  0  0  0  0  0  0  0
    8.9609    5.5652   -0.4074 H   0  0  0  0  0  0  0  0  0  0  0  0
    8.2843    3.1860   -0.7865 H   0  0  0  0  0  0  0  0  0  0  0  0
    9.5575    3.3299    0.4538 H   0  0  0  0  0  0  0  0  0  0  0  0
    6.0644   -4.3344   -3.4508 H   0  0  0  0  0  0  0  0  0  0  0  0
    7.9306   -4.8087   -1.0851 H   0  0  0  0  0  0  0  0  0  0  0  0
    8.2017   -5.3306   -2.7679 H   0  0  0  0  0  0  0  0  0  0  0  0
    7.0587   -7.0623   -0.8958 H   0  0  0  0  0  0  0  0  0  0  0  0
    6.5248   -7.0901   -2.5958 H   0  0  0  0  0  0  0  0  0  0  0  0
    5.3247   -4.0711   -0.4915 H   0  0  0  0  0  0  0  0  0  0  0  0
    4.1982   -4.3692   -1.8484 H   0  0  0  0  0  0  0  0  0  0  0  0
    4.5000   -2.8358   -3.6282 H   0  0  0  0  0  0  0  0  0  0  0  0
  1  2  1  0
  1 28  1  0
  1 29  1  0
  1 30  1  0
  2  3  2  0
  2 27  1  0
  3  4  1  0
  3 31  1  0
  4  5  2  0
  4 32  1  0
  5  6  1  0
  5 20  1  0
  6  7  1  0
  6 33  1  0
  6 34  1  0
  7  8  1  0
  7 35  1  0
  8  9  2  0
  8 10  1  0
 10 11  1  0
 10 19  1  0
 11 12  1  0
 11 36  1  0
 11 37  1  0
 12 13  1  0
 12 38  1  0
 12 39  1  0
 13 14  1  0
 13 18  1  0
 14 15  1  0
 14 40  1  0
 14 41  1  0
 15 16  1  0
 15 17  1  0
 15 42  1  6
 16 43  1  0
 16 44  1  0
 16 45  1  0
 17 46  1  0
 17 47  1  0
 17 48  1  0
 18 19  1  0
 18 49  1  0
 18 50  1  0
 19 51  1  0
 19 52  1  0
 20 21  1  0
 20 27  2  0
 21 22  1  0
 22 23  1  0
 22 26  1  0
 22 53  1  6
 23 24  1  0
 23 54  1  0
 23 55  1  0
 24 25  1  0
 24 56  1  0
 24 57  1  0
 25 26  1  0
 26 58  1  0
 26 59  1  0
 27 60  1  0
M  END

