
     RDKit          3D

 38 39  0  0  0  0  0  0  0  0999 V2000
    1.1651    0.1910    1.0575 C   0  0  0  0  0  0  0  0  0  0  0  0
    2.5503    0.0786    0.4661 C   0  0  0  0  0  0  0  0  0  0  0  0
    3.3119    1.2160    0.1771 C   0  0  0  0  0  0  0  0  0  0  0  0
    4.5980    1.0854   -0.3649 C   0  0  0  0  0  0  0  0  0  0  0  0
    5.1360   -0.1700   -0.6243 C   0  0  0  0  0  0  0  0  0  0  0  0
    4.3795   -1.3210   -0.3390 C   0  0  0  0  0  0  0  0  0  0  0  0
    4.9743   -2.5106   -0.6233 O   0  0  0  0  0  0  0  0  0  0  0  0
    4.2884   -3.7211   -0.3791 C   0  0  0  0  0  0  0  0  0  0  0  0
    5.2313   -4.8590   -0.7697 C   0  0  0  0  0  0  0  0  0  0  0  0
    4.6147   -6.1630   -0.6378 N   0  0  0  0  0  0  0  0  0  0  0  0
    4.6030   -6.8509    0.5416 C   0  0  0  0  0  0  0  0  0  0  0  0
    5.0710   -6.4147    1.5802 O   0  0  0  0  0  0  0  0  0  0  0  0
    3.9819   -8.2426    0.4357 C   0  0  1  0  0  0  0  0  0  0  0  0
    4.7875   -8.9099    0.0712 H   0  0  0  0  0  0  0  0  0  0  0  0
    3.4192   -8.8223    1.7532 C   0  0  0  0  0  0  0  0  0  0  0  0
    2.2871   -9.7752    1.2818 C   0  0  0  0  0  0  0  0  0  0  0  0
    2.2449   -9.5936   -0.2625 C   0  0  0  0  0  0  0  0  0  0  0  0
    2.8944   -8.3094   -0.5535 N   0  0  0  0  0  0  0  0  0  0  0  0
    3.0943   -1.1929    0.2028 C   0  0  0  0  0  0  0  0  0  0  0  0
    0.8582    1.2411    1.1707 H   0  0  0  0  0  0  0  0  0  0  0  0
    1.1154   -0.2826    2.0527 H   0  0  0  0  0  0  0  0  0  0  0  0
    0.4157   -0.3132    0.4246 H   0  0  0  0  0  0  0  0  0  0  0  0
    2.9013    2.2091    0.3762 H   0  0  0  0  0  0  0  0  0  0  0  0
    5.1869    1.9794   -0.5870 H   0  0  0  0  0  0  0  0  0  0  0  0
    6.1356   -0.2933   -1.0454 H   0  0  0  0  0  0  0  0  0  0  0  0
    3.3578   -3.7722   -0.9771 H   0  0  0  0  0  0  0  0  0  0  0  0
    4.0173   -3.8171    0.6876 H   0  0  0  0  0  0  0  0  0  0  0  0
    6.1198   -4.8178   -0.1221 H   0  0  0  0  0  0  0  0  0  0  0  0
    5.5600   -4.7158   -1.8105 H   0  0  0  0  0  0  0  0  0  0  0  0
    4.1828   -6.6163   -1.4374 H   0  0  0  0  0  0  0  0  0  0  0  0
    3.0334   -8.0064    2.3829 H   0  0  0  0  0  0  0  0  0  0  0  0
    4.1961   -9.3322    2.3402 H   0  0  0  0  0  0  0  0  0  0  0  0
    1.3234   -9.4936    1.7348 H   0  0  0  0  0  0  0  0  0  0  0  0
    2.4749  -10.8234    1.5607 H   0  0  0  0  0  0  0  0  0  0  0  0
    1.2292   -9.6191   -0.6848 H   0  0  0  0  0  0  0  0  0  0  0  0
    2.8233  -10.3936   -0.7557 H   0  0  0  0  0  0  0  0  0  0  0  0
    2.2288   -7.5626   -0.3359 H   0  0  0  0  0  0  0  0  0  0  0  0
    2.4990   -2.0781    0.4316 H   0  0  0  0  0  0  0  0  0  0  0  0
  1  2  1  0
  1 20  1  0
  1 21  1  0
  1 22  1  0
  2  3  2  0
  2 19  1  0
  3  4  1  0
  3 23  1  0
  4  5  2  0
  4 24  1  0
  5  6  1  0
  5 25  1  0
  6  7  1  0
  6 19  2  0
  7  8  1  0
  8  9  1  0
  8 26  1  0
  8 27  1  0
  9 10  1  0
  9 28  1  0
  9 29  1  0
 10 11  1  0
 10 30  1  0
 11 12  2  0
 11 13  1  0
 13 14  1  6
 13 15  1  0
 13 18  1  0
 15 16  1  0
 15 31  1  0
 15 32  1  0
 16 17  1  0
 16 33  1  0
 16 34  1  0
 17 18  1  0
 17 35  1  0
 17 36  1  0
 18 37  1  0
 19 38  1  0
M  END

