
     RDKit          3D

 45 47  0  0  0  0  0  0  0  0999 V2000
    1.0161   -1.2421   -1.3058 C   0  0  0  0  0  0  0  0  0  0  0  0
    2.5320   -1.2922   -1.2530 C   0  0  0  0  0  0  0  0  0  0  0  0
    3.0440   -0.0271   -1.6169 O   0  0  0  0  0  0  0  0  0  0  0  0
    4.4454    0.0753   -1.5924 C   0  0  1  0  0  0  0  0  0  0  0  0
    5.1483   -0.4644   -2.8693 C   0  0  0  0  0  0  0  0  0  0  0  0
    5.2275    0.9839   -3.4010 C   0  0  2  0  0  0  0  0  0  0  0  0
    6.3748    1.3967   -4.0970 O   0  0  0  0  0  0  0  0  0  0  0  0
    4.9105    1.5215   -1.9535 C   0  0  1  0  0  0  0  0  0  0  0  0
    3.8500    2.6237   -1.8430 C   0  0  0  0  0  0  0  0  0  0  0  0
    4.4213    4.0023   -2.2138 C   0  0  0  0  0  0  0  0  0  0  0  0
    5.6024    4.3745   -1.4301 N   0  0  0  0  0  0  0  0  0  0  0  0
    5.3139    4.8339   -0.0809 C   0  0  0  0  0  0  0  0  0  0  0  0
    4.8219    6.2733   -0.0348 C   0  0  0  0  0  0  0  0  0  0  0  0
    5.1330    7.2025   -1.0363 C   0  0  0  0  0  0  0  0  0  0  0  0
    4.6952    8.5264   -0.9513 C   0  0  0  0  0  0  0  0  0  0  0  0
    3.9348    8.9520    0.1402 C   0  0  0  0  0  0  0  0  0  0  0  0
    3.6160    8.0401    1.1495 C   0  0  0  0  0  0  0  0  0  0  0  0
    2.6687    8.5258    2.5290 Cl  0  0  0  0  0  0  0  0  0  0  0  0
    4.0616    6.7171    1.0533 C   0  0  0  0  0  0  0  0  0  0  0  0
    3.7558    5.8514    2.0315 F   0  0  0  0  0  0  0  0  0  0  0  0
    6.6403    3.3562   -1.5458 C   0  0  0  0  0  0  0  0  0  0  0  0
    6.1677    1.9371   -1.1674 C   0  0  0  0  0  0  0  0  0  0  0  0
    0.5866   -2.2144   -1.0181 H   0  0  0  0  0  0  0  0  0  0  0  0
    0.6717   -0.9964   -2.3224 H   0  0  0  0  0  0  0  0  0  0  0  0
    0.6304   -0.4726   -0.6193 H   0  0  0  0  0  0  0  0  0  0  0  0
    2.9152   -2.0800   -1.9336 H   0  0  0  0  0  0  0  0  0  0  0  0
    2.8785   -1.5600   -0.2325 H   0  0  0  0  0  0  0  0  0  0  0  0
    4.8390   -0.3139   -0.6317 H   0  0  0  0  0  0  0  0  0  0  0  0
    4.5894   -1.1942   -3.4737 H   0  0  0  0  0  0  0  0  0  0  0  0
    6.1467   -0.8795   -2.6526 H   0  0  0  0  0  0  0  0  0  0  0  0
    4.3787    1.2053   -4.0665 H   0  0  0  0  0  0  0  0  0  0  0  0
    7.1549    1.0723   -3.6284 H   0  0  0  0  0  0  0  0  0  0  0  0
    3.4577    2.6404   -0.8111 H   0  0  0  0  0  0  0  0  0  0  0  0
    2.9882    2.3834   -2.4843 H   0  0  0  0  0  0  0  0  0  0  0  0
    3.6526    4.7820   -2.0933 H   0  0  0  0  0  0  0  0  0  0  0  0
    4.7081    4.0052   -3.2804 H   0  0  0  0  0  0  0  0  0  0  0  0
    6.2486    4.7768    0.5049 H   0  0  0  0  0  0  0  0  0  0  0  0
    4.5880    4.1989    0.4651 H   0  0  0  0  0  0  0  0  0  0  0  0
    5.7221    6.8526   -1.8859 H   0  0  0  0  0  0  0  0  0  0  0  0
    4.9464    9.2372   -1.7422 H   0  0  0  0  0  0  0  0  0  0  0  0
    3.5827    9.9815    0.2237 H   0  0  0  0  0  0  0  0  0  0  0  0
    7.5025    3.6497   -0.9250 H   0  0  0  0  0  0  0  0  0  0  0  0
    6.9814    3.3422   -2.5936 H   0  0  0  0  0  0  0  0  0  0  0  0
    5.9345    1.8959   -0.0880 H   0  0  0  0  0  0  0  0  0  0  0  0
    6.9939    1.2181   -1.3201 H   0  0  0  0  0  0  0  0  0  0  0  0
  1  2  1  0
  1 23  1  0
  1 24  1  0
  1 25  1  0
  2  3  1  0
  2 26  1  0
  2 27  1  0
  3  4  1  0
  4  5  1  0
  4  8  1  0
  4 28  1  1
  5  6  1  0
  5 29  1  0
  5 30  1  0
  6  7  1  0
  6  8  1  0
  6 31  1  6
  7 32  1  0
  8  9  1  6
  8 22  1  0
  9 10  1  0
  9 33  1  0
  9 34  1  0
 10 11  1  0
 10 35  1  0
 10 36  1  0
 11 12  1  0
 11 21  1  0
 12 13  1  0
 12 37  1  0
 12 38  1  0
 13 14  2  0
 13 19  1  0
 14 15  1  0
 14 39  1  0
 15 16  2  0
 15 40  1  0
 16 17  1  0
 16 41  1  0
 17 18  1  0
 17 19  2  0
 19 20  1  0
 21 22  1  0
 21 42  1  0
 21 43  1  0
 22 44  1  0
 22 45  1  0
M  END

