
     RDKit          3D

 35 37  0  0  0  0  0  0  0  0999 V2000
    1.0585    0.3332    0.6386 C   0  0  0  0  0  0  0  0  0  0  0  0
    2.4890    0.1690    0.1226 C   0  0  1  0  0  0  0  0  0  0  0  0
    3.1915    1.4242    0.2589 O   0  0  0  0  0  0  0  0  0  0  0  0
    3.1405    2.2815   -0.7770 C   0  0  0  0  0  0  0  0  0  0  0  0
    2.5512    2.0691   -1.8173 O   0  0  0  0  0  0  0  0  0  0  0  0
    3.8787    3.5244   -0.5188 C   0  0  0  0  0  0  0  0  0  0  0  0
    4.5977    3.9764    0.5729 C   0  0  0  0  0  0  0  0  0  0  0  0
    5.0920    5.2758    0.2340 C   0  0  0  0  0  0  0  0  0  0  0  0
    5.8759    6.2369    0.9089 C   0  0  0  0  0  0  0  0  0  0  0  0
    6.1797    7.4285    0.2662 C   0  0  0  0  0  0  0  0  0  0  0  0
    5.7169    7.6899   -1.0468 C   0  0  0  0  0  0  0  0  0  0  0  0
    4.9435    6.7679   -1.7408 C   0  0  0  0  0  0  0  0  0  0  0  0
    4.6345    5.5604   -1.0919 C   0  0  0  0  0  0  0  0  0  0  0  0
    3.9047    4.4817   -1.5148 N   0  0  0  0  0  0  0  0  0  0  0  0
    3.4405    4.3548   -2.4063 H   0  0  0  0  0  0  0  0  0  0  0  0
    3.2723   -0.8913    0.8734 C   0  0  0  0  0  0  0  0  0  0  0  0
    4.1099   -0.5563    1.9487 C   0  0  0  0  0  0  0  0  0  0  0  0
    4.8102   -1.5326    2.6597 C   0  0  0  0  0  0  0  0  0  0  0  0
    4.6839   -2.8784    2.3067 C   0  0  0  0  0  0  0  0  0  0  0  0
    3.8564   -3.2413    1.2431 C   0  0  0  0  0  0  0  0  0  0  0  0
    3.1611   -2.2528    0.5409 C   0  0  0  0  0  0  0  0  0  0  0  0
    2.1298   -2.7605   -0.7895 Cl  0  0  0  0  0  0  0  0  0  0  0  0
    0.5261    1.0868    0.0394 H   0  0  0  0  0  0  0  0  0  0  0  0
    1.0615    0.6451    1.6941 H   0  0  0  0  0  0  0  0  0  0  0  0
    0.5171   -0.6202    0.5536 H   0  0  0  0  0  0  0  0  0  0  0  0
    2.4559   -0.0845   -0.9456 H   0  0  0  0  0  0  0  0  0  0  0  0
    4.7455    3.4326    1.5023 H   0  0  0  0  0  0  0  0  0  0  0  0
    6.2364    6.0417    1.9221 H   0  0  0  0  0  0  0  0  0  0  0  0
    6.7856    8.1813    0.7763 H   0  0  0  0  0  0  0  0  0  0  0  0
    5.9746    8.6389   -1.5239 H   0  0  0  0  0  0  0  0  0  0  0  0
    4.5888    6.9738   -2.7534 H   0  0  0  0  0  0  0  0  0  0  0  0
    4.2154    0.4959    2.2157 H   0  0  0  0  0  0  0  0  0  0  0  0
    5.4575   -1.2398    3.4898 H   0  0  0  0  0  0  0  0  0  0  0  0
    5.2292   -3.6502    2.8552 H   0  0  0  0  0  0  0  0  0  0  0  0
    3.7439   -4.2854    0.9468 H   0  0  0  0  0  0  0  0  0  0  0  0
  1  2  1  0
  1 23  1  0
  1 24  1  0
  1 25  1  0
  2  3  1  0
  2 16  1  0
  2 26  1  6
  3  4  1  0
  4  5  2  0
  4  6  1  0
  6  7  2  0
  6 14  1  0
  7  8  1  0
  7 27  1  0
  8  9  2  0
  8 13  1  0
  9 10  1  0
  9 28  1  0
 10 11  2  0
 10 29  1  0
 11 12  1  0
 11 30  1  0
 12 13  2  0
 12 31  1  0
 13 14  1  0
 14 15  1  0
 16 17  2  0
 16 21  1  0
 17 18  1  0
 17 32  1  0
 18 19  2  0
 18 33  1  0
 19 20  1  0
 19 34  1  0
 20 21  2  0
 20 35  1  0
 21 22  1  0
M  END

