
     RDKit          3D

 43 45  0  0  0  0  0  0  0  0999 V2000
    1.2626    0.2228    1.2033 N   0  0  0  0  0  0  0  0  0  0  0  0
    2.6070    0.0835    0.8021 N   0  0  0  0  0  0  0  0  0  0  0  0
    2.9946   -1.2499    0.3246 C   0  0  1  0  0  0  0  0  0  0  0  0
    2.2949   -1.6005   -1.0097 C   0  0  0  0  0  0  0  0  0  0  0  0
    2.6718   -0.8206   -2.2689 C   0  0  1  0  0  0  0  0  0  0  0  0
    3.8865   -1.3169   -3.0651 C   0  0  0  0  0  0  0  0  0  0  0  0
    3.5455   -0.8557   -4.4861 C   0  0  0  0  0  0  0  0  0  0  0  0
    2.0265   -1.0634   -4.5256 C   0  0  0  0  0  0  0  0  0  0  0  0
    1.5693   -0.9273   -3.1853 O   0  0  0  0  0  0  0  0  0  0  0  0
    4.5123   -1.4714    0.3397 C   0  0  0  0  0  0  0  0  0  0  0  0
    4.9205   -2.7752    0.6857 C   0  0  0  0  0  0  0  0  0  0  0  0
    6.2593   -3.1549    0.7324 C   0  0  0  0  0  0  0  0  0  0  0  0
    7.2431   -2.2072    0.4428 C   0  0  0  0  0  0  0  0  0  0  0  0
    6.8602   -0.9113    0.1064 C   0  0  0  0  0  0  0  0  0  0  0  0
    5.5109   -0.5088    0.0332 C   0  0  0  0  0  0  0  0  0  0  0  0
    5.2257    0.9316   -0.3473 C   0  0  1  0  0  0  0  0  0  0  0  0
    5.7601    2.0849    0.5595 C   0  0  0  0  0  0  0  0  0  0  0  0
    6.0254    2.9203   -0.7168 C   0  0  0  0  0  0  0  0  0  0  0  0
    5.9627    1.6108   -1.5428 C   0  0  0  0  0  0  0  0  0  0  0  0
    0.6867    0.4434    0.3921 H   0  0  0  0  0  0  0  0  0  0  0  0
    0.8940   -0.6463    1.6113 H   0  0  0  0  0  0  0  0  0  0  0  0
    3.1956    0.3454    1.5913 H   0  0  0  0  0  0  0  0  0  0  0  0
    2.5927   -2.0055    1.0380 H   0  0  0  0  0  0  0  0  0  0  0  0
    1.2149   -1.4437   -0.8580 H   0  0  0  0  0  0  0  0  0  0  0  0
    2.4183   -2.6794   -1.2011 H   0  0  0  0  0  0  0  0  0  0  0  0
    2.8059    0.2469   -2.0076 H   0  0  0  0  0  0  0  0  0  0  0  0
    3.9382   -2.4182   -3.0183 H   0  0  0  0  0  0  0  0  0  0  0  0
    4.8403   -0.9233   -2.6905 H   0  0  0  0  0  0  0  0  0  0  0  0
    4.0763   -1.4153   -5.2712 H   0  0  0  0  0  0  0  0  0  0  0  0
    3.7934    0.2117   -4.6101 H   0  0  0  0  0  0  0  0  0  0  0  0
    1.7709   -2.0729   -4.9031 H   0  0  0  0  0  0  0  0  0  0  0  0
    1.5104   -0.3291   -5.1687 H   0  0  0  0  0  0  0  0  0  0  0  0
    4.1522   -3.5143    0.9321 H   0  0  0  0  0  0  0  0  0  0  0  0
    6.5309   -4.1780    1.0043 H   0  0  0  0  0  0  0  0  0  0  0  0
    8.3024   -2.4736    0.4826 H   0  0  0  0  0  0  0  0  0  0  0  0
    7.6397   -0.1774   -0.1132 H   0  0  0  0  0  0  0  0  0  0  0  0
    4.1465    1.0707   -0.4658 H   0  0  0  0  0  0  0  0  0  0  0  0
    6.6963    1.8056    1.0686 H   0  0  0  0  0  0  0  0  0  0  0  0
    5.0628    2.4909    1.3100 H   0  0  0  0  0  0  0  0  0  0  0  0
    6.9584    3.5030   -0.7587 H   0  0  0  0  0  0  0  0  0  0  0  0
    5.1853    3.5932   -0.9493 H   0  0  0  0  0  0  0  0  0  0  0  0
    6.9650    1.1896   -1.7166 H   0  0  0  0  0  0  0  0  0  0  0  0
    5.4285    1.6357   -2.5060 H   0  0  0  0  0  0  0  0  0  0  0  0
  1  2  1  0
  1 20  1  0
  1 21  1  0
  2  3  1  0
  2 22  1  0
  3  4  1  0
  3 10  1  0
  3 23  1  1
  4  5  1  0
  4 24  1  0
  4 25  1  0
  5  6  1  0
  5  9  1  0
  5 26  1  1
  6  7  1  0
  6 27  1  0
  6 28  1  0
  7  8  1  0
  7 29  1  0
  7 30  1  0
  8  9  1  0
  8 31  1  0
  8 32  1  0
 10 11  2  0
 10 15  1  0
 11 12  1  0
 11 33  1  0
 12 13  2  0
 12 34  1  0
 13 14  1  0
 13 35  1  0
 14 15  2  0
 14 36  1  0
 15 16  1  0
 16 17  1  0
 16 19  1  0
 16 37  1  6
 17 18  1  0
 17 38  1  0
 17 39  1  0
 18 19  1  0
 18 40  1  0
 18 41  1  0
 19 42  1  0
 19 43  1  0
M  END

