
     RDKit          3D

 25 26  0  0  0  0  0  0  0  0999 V2000
    1.1492   -0.0390    0.0517 C   0  0  0  0  0  0  0  0  0  0  0  0
    2.6552   -0.0889    0.0578 C   0  0  0  0  0  0  0  0  0  0  0  0
    3.3100    1.0892    0.0429 N   0  0  0  0  0  0  0  0  0  0  0  0
    4.6480    1.1224    0.0474 C   0  0  0  0  0  0  0  0  0  0  0  0
    5.3553    2.4628    0.0319 C   0  0  1  0  0  0  0  0  0  0  0  0
    4.9991    3.2445   -1.2436 C   0  0  0  0  0  0  0  0  0  0  0  0
    5.0116    3.2647    1.2986 C   0  0  0  0  0  0  0  0  0  0  0  0
    5.3034   -0.1055    0.0684 C   0  0  0  0  0  0  0  0  0  0  0  0
    6.6390   -0.3794    0.0774 O   0  0  0  0  0  0  0  0  0  0  0  0
    6.7431   -1.7405    0.0968 C   0  0  0  0  0  0  0  0  0  0  0  0
    5.5324   -2.3643    0.1038 C   0  0  0  0  0  0  0  0  0  0  0  0
    4.5567   -1.2997    0.0833 C   0  0  0  0  0  0  0  0  0  0  0  0
    3.2203   -1.3023    0.0785 N   0  0  0  0  0  0  0  0  0  0  0  0
    0.7990    1.0006    0.0460 H   0  0  0  0  0  0  0  0  0  0  0  0
    0.7472   -0.5590    0.9358 H   0  0  0  0  0  0  0  0  0  0  0  0
    0.7546   -0.5646   -0.8327 H   0  0  0  0  0  0  0  0  0  0  0  0
    6.4390    2.2599    0.0286 H   0  0  0  0  0  0  0  0  0  0  0  0
    3.9134    3.4183   -1.2932 H   0  0  0  0  0  0  0  0  0  0  0  0
    5.2965    2.6938   -2.1501 H   0  0  0  0  0  0  0  0  0  0  0  0
    5.5111    4.2199   -1.2543 H   0  0  0  0  0  0  0  0  0  0  0  0
    3.9266    3.4414    1.3551 H   0  0  0  0  0  0  0  0  0  0  0  0
    5.5253    4.2393    1.2899 H   0  0  0  0  0  0  0  0  0  0  0  0
    5.3161    2.7275    2.2108 H   0  0  0  0  0  0  0  0  0  0  0  0
    7.7603   -2.1261    0.1057 H   0  0  0  0  0  0  0  0  0  0  0  0
    5.3450   -3.4349    0.1198 H   0  0  0  0  0  0  0  0  0  0  0  0
  1  2  1  0
  1 14  1  0
  1 15  1  0
  1 16  1  0
  2  3  2  0
  2 13  1  0
  3  4  1  0
  4  5  1  0
  4  8  2  0
  5  6  1  0
  5  7  1  0
  5 17  1  6
  6 18  1  0
  6 19  1  0
  6 20  1  0
  7 21  1  0
  7 22  1  0
  7 23  1  0
  8  9  1  0
  8 12  1  0
  9 10  1  0
 10 11  2  0
 10 24  1  0
 11 12  1  0
 11 25  1  0
 12 13  2  0
M  END

