
     RDKit          3D

 46 48  0  0  0  0  0  0  0  0999 V2000
   -6.2070   -3.0028    5.3516 C   0  0  0  0  0  0  0  0  0  0  0  0
   -4.8253   -2.8166    5.5533 O   0  0  0  0  0  0  0  0  0  0  0  0
   -3.9450   -3.3943    4.6961 C   0  0  0  0  0  0  0  0  0  0  0  0
   -2.5812   -3.1625    4.9561 C   0  0  0  0  0  0  0  0  0  0  0  0
   -1.6056   -3.7037    4.1316 C   0  0  0  0  0  0  0  0  0  0  0  0
   -1.9498   -4.5203    3.0329 C   0  0  0  0  0  0  0  0  0  0  0  0
   -0.9117   -5.0159    2.2371 N   0  0  0  0  0  0  0  0  0  0  0  0
   -0.8610   -6.1662    1.7085 C   0  0  0  0  0  0  0  0  0  0  0  0
    0.1908   -6.5551    0.8943 N   0  0  0  0  0  0  0  0  0  0  0  0
    0.2494   -7.8407    0.3887 C   0  0  0  0  0  0  0  0  0  0  0  0
    1.1671   -8.2241   -0.3139 O   0  0  0  0  0  0  0  0  0  0  0  0
   -0.9457   -8.6081    0.8475 C   0  0  0  0  0  0  0  0  0  0  0  0
   -1.3232   -9.8973    0.6216 C   0  0  0  0  0  0  0  0  0  0  0  0
   -0.7747  -11.0285   -0.1201 C   0  0  0  0  0  0  0  0  0  0  0  0
    0.4235  -11.0400   -0.8662 C   0  0  0  0  0  0  0  0  0  0  0  0
    0.8490  -12.1856   -1.5376 C   0  0  0  0  0  0  0  0  0  0  0  0
    0.0880  -13.3625   -1.4812 C   0  0  0  0  0  0  0  0  0  0  0  0
    0.4282  -14.5366   -2.0894 O   0  0  0  0  0  0  0  0  0  0  0  0
    1.6019  -14.6623   -2.9006 C   0  0  2  0  0  0  0  0  0  0  0  0
    2.4430  -14.1307   -2.4219 H   0  0  0  0  0  0  0  0  0  0  0  0
    1.3880  -14.1537   -4.3213 C   0  0  0  0  0  0  0  0  0  0  0  0
    2.0000  -16.1519   -2.9007 C   0  0  0  0  0  0  0  0  0  0  0  0
    2.9009  -16.5595   -3.5816 O   0  0  0  0  0  0  0  0  0  0  0  0
    1.2859  -16.9332   -2.0864 O   0  0  0  0  0  0  0  0  0  0  0  0
   -1.1105  -13.3747   -0.7490 C   0  0  0  0  0  0  0  0  0  0  0  0
   -1.5257  -12.2305   -0.0847 C   0  0  0  0  0  0  0  0  0  0  0  0
   -1.9918   -7.5594    1.8540 S   0  0  0  0  0  0  0  0  0  0  0  0
   -3.3139   -4.7326    2.7715 C   0  0  0  0  0  0  0  0  0  0  0  0
   -4.3044   -4.1764    3.5892 C   0  0  0  0  0  0  0  0  0  0  0  0
   -6.7184   -2.4584    6.1569 H   0  0  0  0  0  0  0  0  0  0  0  0
   -6.4915   -4.0696    5.4054 H   0  0  0  0  0  0  0  0  0  0  0  0
   -6.5407   -2.5968    4.3791 H   0  0  0  0  0  0  0  0  0  0  0  0
   -2.3162   -2.5410    5.8139 H   0  0  0  0  0  0  0  0  0  0  0  0
   -0.5479   -3.5122    4.3236 H   0  0  0  0  0  0  0  0  0  0  0  0
    0.9386   -5.8956    0.6993 H   0  0  0  0  0  0  0  0  0  0  0  0
   -2.2684  -10.1601    1.1120 H   0  0  0  0  0  0  0  0  0  0  0  0
    1.0238  -10.1330   -0.9170 H   0  0  0  0  0  0  0  0  0  0  0  0
    1.7789  -12.1421   -2.1047 H   0  0  0  0  0  0  0  0  0  0  0  0
    2.2887  -14.3641   -4.9142 H   0  0  0  0  0  0  0  0  0  0  0  0
    1.1932  -13.0719   -4.3338 H   0  0  0  0  0  0  0  0  0  0  0  0
    0.5338  -14.6699   -4.7850 H   0  0  0  0  0  0  0  0  0  0  0  0
    0.6046  -16.3740   -1.6679 H   0  0  0  0  0  0  0  0  0  0  0  0
   -1.7008  -14.2925   -0.7151 H   0  0  0  0  0  0  0  0  0  0  0  0
   -2.4603  -12.2599    0.4817 H   0  0  0  0  0  0  0  0  0  0  0  0
   -3.6179   -5.3151    1.8995 H   0  0  0  0  0  0  0  0  0  0  0  0
   -5.3514   -4.3562    3.3443 H   0  0  0  0  0  0  0  0  0  0  0  0
  1  2  1  0
  1 30  1  0
  1 31  1  0
  1 32  1  0
  2  3  1  0
  3  4  2  0
  3 29  1  0
  4  5  1  0
  4 33  1  0
  5  6  2  0
  5 34  1  0
  6  7  1  0
  6 28  1  0
  7  8  2  0
  8  9  1  0
  8 27  1  0
  9 10  1  0
  9 35  1  0
 10 11  2  0
 10 12  1  0
 12 13  2  0
 12 27  1  0
 13 14  1  0
 13 36  1  0
 14 15  2  0
 14 26  1  0
 15 16  1  0
 15 37  1  0
 16 17  2  0
 16 38  1  0
 17 18  1  0
 17 25  1  0
 18 19  1  0
 19 20  1  1
 19 21  1  0
 19 22  1  0
 21 39  1  0
 21 40  1  0
 21 41  1  0
 22 23  2  0
 22 24  1  0
 24 42  1  0
 25 26  2  0
 25 43  1  0
 26 44  1  0
 28 29  2  0
 28 45  1  0
 29 46  1  0
M  END

