
     RDKit          3D

 34 35  0  0  0  0  0  0  0  0999 V2000
    0.7483   -0.2437    0.2680 C   0  0  0  0  0  0  0  0  0  0  0  0
    2.2748   -0.2349    0.2410 C   0  0  1  0  0  0  0  0  0  0  0  0
    2.8710   -0.5325    1.6327 C   0  0  0  0  0  0  0  0  0  0  0  0
    2.6384    0.5306    2.5940 N   0  0  0  0  0  0  0  0  0  0  0  0
    1.8448    0.5062    3.7011 C   0  0  0  0  0  0  0  0  0  0  0  0
    1.9294    1.7611    4.2816 C   0  0  0  0  0  0  0  0  0  0  0  0
    2.8097    2.4751    3.4342 C   0  0  0  0  0  0  0  0  0  0  0  0
    3.2309    1.7230    2.4201 N   0  0  0  0  0  0  0  0  0  0  0  0
    2.7657   -1.2400   -0.7035 N   0  0  0  0  0  0  0  0  0  0  0  0
    4.0601   -0.9632   -1.3045 C   0  0  0  0  0  0  0  0  0  0  0  0
    4.5797   -2.1162   -2.1404 C   0  0  0  0  0  0  0  0  0  0  0  0
    5.4362   -1.8747   -3.2265 C   0  0  0  0  0  0  0  0  0  0  0  0
    5.9583   -2.9246   -3.9786 C   0  0  0  0  0  0  0  0  0  0  0  0
    5.6222   -4.2533   -3.6581 C   0  0  0  0  0  0  0  0  0  0  0  0
    6.1505   -5.3418   -4.4324 C   0  0  0  0  0  0  0  0  0  0  0  0
    6.5776   -6.2220   -5.0581 N   0  0  0  0  0  0  0  0  0  0  0  0
    4.7588   -4.5039   -2.5753 C   0  0  0  0  0  0  0  0  0  0  0  0
    4.2475   -3.4442   -1.8288 C   0  0  0  0  0  0  0  0  0  0  0  0
    0.3620    0.4595    1.0202 H   0  0  0  0  0  0  0  0  0  0  0  0
    0.3702   -1.2520    0.5074 H   0  0  0  0  0  0  0  0  0  0  0  0
    0.3355    0.0549   -0.7094 H   0  0  0  0  0  0  0  0  0  0  0  0
    2.6146    0.7836   -0.0379 H   0  0  0  0  0  0  0  0  0  0  0  0
    3.9580   -0.6811    1.5474 H   0  0  0  0  0  0  0  0  0  0  0  0
    2.4364   -1.4607    2.0320 H   0  0  0  0  0  0  0  0  0  0  0  0
    1.2970   -0.3887    3.9895 H   0  0  0  0  0  0  0  0  0  0  0  0
    1.4340    2.1061    5.1860 H   0  0  0  0  0  0  0  0  0  0  0  0
    3.1550    3.5049    3.5273 H   0  0  0  0  0  0  0  0  0  0  0  0
    2.0764   -1.3972   -1.4367 H   0  0  0  0  0  0  0  0  0  0  0  0
    4.7864   -0.7732   -0.4928 H   0  0  0  0  0  0  0  0  0  0  0  0
    4.0675   -0.0374   -1.9203 H   0  0  0  0  0  0  0  0  0  0  0  0
    5.6972   -0.8458   -3.4898 H   0  0  0  0  0  0  0  0  0  0  0  0
    6.6229   -2.7240   -4.8211 H   0  0  0  0  0  0  0  0  0  0  0  0
    4.4938   -5.5332   -2.3251 H   0  0  0  0  0  0  0  0  0  0  0  0
    3.5727   -3.6316   -0.9919 H   0  0  0  0  0  0  0  0  0  0  0  0
  1  2  1  0
  1 19  1  0
  1 20  1  0
  1 21  1  0
  2  3  1  0
  2  9  1  0
  2 22  1  6
  3  4  1  0
  3 23  1  0
  3 24  1  0
  4  5  1  0
  4  8  1  0
  5  6  2  0
  5 25  1  0
  6  7  1  0
  6 26  1  0
  7  8  2  0
  7 27  1  0
  9 10  1  0
  9 28  1  0
 10 11  1  0
 10 29  1  0
 10 30  1  0
 11 12  2  0
 11 18  1  0
 12 13  1  0
 12 31  1  0
 13 14  2  0
 13 32  1  0
 14 15  1  0
 14 17  1  0
 15 16  3  0
 17 18  2  0
 17 33  1  0
 18 34  1  0
M  END

