
     RDKit          3D

 41 44  0  0  0  0  0  0  0  0999 V2000
    2.0400   -3.4839   -0.9166 N   0  0  0  0  0  0  0  0  0  0  0  0
    3.0711   -3.0213   -0.1221 C   0  0  0  0  0  0  0  0  0  0  0  0
    3.9246   -3.7983    0.4463 N   0  0  0  0  0  0  0  0  0  0  0  0
    4.9225   -2.9278    1.0461 C   0  0  0  0  0  0  0  0  0  0  0  0
    4.3209   -1.4880    1.0718 C   0  0  2  0  0  0  0  0  0  0  0  0
    5.3516   -0.3598    0.7929 C   0  0  0  0  0  0  0  0  0  0  0  0
    4.8971    0.8809    1.5935 C   0  0  0  0  0  0  0  0  0  0  0  0
    4.0483    0.2849    2.6968 C   0  0  0  0  0  0  0  0  0  0  0  0
    3.5814    0.8852    3.8706 C   0  0  0  0  0  0  0  0  0  0  0  0
    2.7967    0.1356    4.7534 C   0  0  0  0  0  0  0  0  0  0  0  0
    2.4794   -1.1998    4.4667 C   0  0  0  0  0  0  0  0  0  0  0  0
    2.9433   -1.8005    3.2918 C   0  0  0  0  0  0  0  0  0  0  0  0
    3.7301   -1.0506    2.4116 C   0  0  0  0  0  0  0  0  0  0  0  0
    3.2700   -1.6515    0.0328 N   0  0  0  0  0  0  0  0  0  0  0  0
    2.3062   -0.6232   -0.3000 C   0  0  0  0  0  0  0  0  0  0  0  0
    2.6189    0.1481   -1.5884 C   0  0  1  0  0  0  0  0  0  0  0  0
    2.5951   -0.6494   -2.8967 C   0  0  0  0  0  0  0  0  0  0  0  0
    2.2493    0.4438   -3.9148 C   0  0  0  0  0  0  0  0  0  0  0  0
    1.2861    1.3347   -3.1157 C   0  0  0  0  0  0  0  0  0  0  0  0
    1.6159    1.1512   -1.7405 O   0  0  0  0  0  0  0  0  0  0  0  0
    1.9348   -4.4908   -0.8435 H   0  0  0  0  0  0  0  0  0  0  0  0
    1.1582   -2.9868   -0.8540 H   0  0  0  0  0  0  0  0  0  0  0  0
    5.8517   -2.9313    0.4411 H   0  0  0  0  0  0  0  0  0  0  0  0
    5.2032   -3.2613    2.0586 H   0  0  0  0  0  0  0  0  0  0  0  0
    5.4784   -0.1797   -0.2841 H   0  0  0  0  0  0  0  0  0  0  0  0
    6.3271   -0.6981    1.1800 H   0  0  0  0  0  0  0  0  0  0  0  0
    4.2969    1.5719    0.9739 H   0  0  0  0  0  0  0  0  0  0  0  0
    5.7446    1.4692    1.9802 H   0  0  0  0  0  0  0  0  0  0  0  0
    3.8277    1.9259    4.1005 H   0  0  0  0  0  0  0  0  0  0  0  0
    2.4314    0.5928    5.6769 H   0  0  0  0  0  0  0  0  0  0  0  0
    1.8709   -1.7753    5.1693 H   0  0  0  0  0  0  0  0  0  0  0  0
    2.7030   -2.8433    3.0671 H   0  0  0  0  0  0  0  0  0  0  0  0
    2.2352    0.0999    0.5281 H   0  0  0  0  0  0  0  0  0  0  0  0
    1.2902   -1.0437   -0.4004 H   0  0  0  0  0  0  0  0  0  0  0  0
    3.6109    0.6330   -1.4765 H   0  0  0  0  0  0  0  0  0  0  0  0
    1.8071   -1.4190   -2.8601 H   0  0  0  0  0  0  0  0  0  0  0  0
    3.5451   -1.1634   -3.1009 H   0  0  0  0  0  0  0  0  0  0  0  0
    1.8014    0.0548   -4.8417 H   0  0  0  0  0  0  0  0  0  0  0  0
    3.1551    1.0073   -4.1932 H   0  0  0  0  0  0  0  0  0  0  0  0
    0.2318    1.0410   -3.2788 H   0  0  0  0  0  0  0  0  0  0  0  0
    1.3772    2.4031   -3.3787 H   0  0  0  0  0  0  0  0  0  0  0  0
  1  2  1  0
  1 21  1  0
  1 22  1  0
  2  3  2  0
  2 14  1  0
  3  4  1  0
  4  5  1  0
  4 23  1  0
  4 24  1  0
  5  6  1  0
  5 13  1  0
  5 14  1  6
  6  7  1  0
  6 25  1  0
  6 26  1  0
  7  8  1  0
  7 27  1  0
  7 28  1  0
  8  9  1  0
  8 13  2  0
  9 10  2  0
  9 29  1  0
 10 11  1  0
 10 30  1  0
 11 12  2  0
 11 31  1  0
 12 13  1  0
 12 32  1  0
 14 15  1  0
 15 16  1  0
 15 33  1  0
 15 34  1  0
 16 17  1  0
 16 20  1  0
 16 35  1  1
 17 18  1  0
 17 36  1  0
 17 37  1  0
 18 19  1  0
 18 38  1  0
 18 39  1  0
 19 20  1  0
 19 40  1  0
 19 41  1  0
M  END

