
     RDKit          3D

 38 41  0  0  0  0  0  0  0  0999 V2000
    3.3653   -1.4555    0.0678 C   0  0  0  0  0  0  0  0  0  0  0  0
    3.1417   -0.1323    0.5060 O   0  0  0  0  0  0  0  0  0  0  0  0
    3.5180    0.9040   -0.2748 C   0  0  0  0  0  0  0  0  0  0  0  0
    4.1359    0.7709   -1.5309 C   0  0  0  0  0  0  0  0  0  0  0  0
    4.4839    1.9101   -2.2555 C   0  0  0  0  0  0  0  0  0  0  0  0
    4.2324    3.2015   -1.7619 C   0  0  0  0  0  0  0  0  0  0  0  0
    4.5896    4.4248   -2.5064 C   0  0  0  0  0  0  0  0  0  0  0  0
    5.2099    4.4317   -3.7419 C   0  0  0  0  0  0  0  0  0  0  0  0
    5.5281    5.6439   -4.4115 C   0  0  0  0  0  0  0  0  0  0  0  0
    6.1707    5.5892   -5.6932 C   0  0  0  0  0  0  0  0  0  0  0  0
    6.4876    6.7346   -6.3593 C   0  0  0  0  0  0  0  0  0  0  0  0
    6.1828    8.0062   -5.7869 C   0  0  0  0  0  0  0  0  0  0  0  0
    6.4960    9.2194   -6.4467 C   0  0  0  0  0  0  0  0  0  0  0  0
    6.1898   10.4358   -5.8681 C   0  0  0  0  0  0  0  0  0  0  0  0
    5.5585   10.4604   -4.6066 C   0  0  0  0  0  0  0  0  0  0  0  0
    5.2387    9.2929   -3.9350 C   0  0  0  0  0  0  0  0  0  0  0  0
    5.5438    8.0338   -4.5106 C   0  0  0  0  0  0  0  0  0  0  0  0
    5.2334    6.8459   -3.8571 N   0  0  0  0  0  0  0  0  0  0  0  0
    4.5143    6.9144   -2.4188 B   0  0  2  0  0  0  0  0  0  0  0  0
    3.3013    7.5528   -2.5675 F   0  0  0  0  0  0  0  0  0  0  0  0
    5.3509    7.5757   -1.5446 F   0  0  0  0  0  0  0  0  0  0  0  0
    4.2772    5.5470   -1.9145 O   0  0  0  0  0  0  0  0  0  0  0  0
    3.6108    3.3162   -0.4991 C   0  0  0  0  0  0  0  0  0  0  0  0
    3.2599    2.1916    0.2318 C   0  0  0  0  0  0  0  0  0  0  0  0
    2.9813   -2.1144    0.8577 H   0  0  0  0  0  0  0  0  0  0  0  0
    4.4403   -1.6621   -0.0798 H   0  0  0  0  0  0  0  0  0  0  0  0
    2.8273   -1.6722   -0.8723 H   0  0  0  0  0  0  0  0  0  0  0  0
    4.3487   -0.2119   -1.9512 H   0  0  0  0  0  0  0  0  0  0  0  0
    4.9610    1.7734   -3.2273 H   0  0  0  0  0  0  0  0  0  0  0  0
    5.4733    3.5016   -4.2377 H   0  0  0  0  0  0  0  0  0  0  0  0
    6.3943    4.6068   -6.1112 H   0  0  0  0  0  0  0  0  0  0  0  0
    6.9771    6.6953   -7.3362 H   0  0  0  0  0  0  0  0  0  0  0  0
    6.9851    9.1712   -7.4232 H   0  0  0  0  0  0  0  0  0  0  0  0
    6.4325   11.3700   -6.3794 H   0  0  0  0  0  0  0  0  0  0  0  0
    5.3139   11.4198   -4.1438 H   0  0  0  0  0  0  0  0  0  0  0  0
    4.7525    9.3391   -2.9646 H   0  0  0  0  0  0  0  0  0  0  0  0
    3.4091    4.3120   -0.1035 H   0  0  0  0  0  0  0  0  0  0  0  0
    2.7795    2.2768    1.2084 H   0  0  0  0  0  0  0  0  0  0  0  0
  1  2  1  0
  1 25  1  0
  1 26  1  0
  1 27  1  0
  2  3  1  0
  3  4  2  0
  3 24  1  0
  4  5  1  0
  4 28  1  0
  5  6  2  0
  5 29  1  0
  6  7  1  0
  6 23  1  0
  7  8  1  0
  7 22  2  0
  8  9  2  0
  8 30  1  0
  9 10  1  0
  9 18  1  0
 10 11  2  0
 10 31  1  0
 11 12  1  0
 11 32  1  0
 12 13  2  0
 12 17  1  0
 13 14  1  0
 13 33  1  0
 14 15  2  0
 14 34  1  0
 15 16  1  0
 15 35  1  0
 16 17  2  0
 16 36  1  0
 17 18  1  0
 18 19  1  0
 19 20  1  6
 19 21  1  0
 19 22  1  0
 23 24  2  0
 23 37  1  0
 24 38  1  0
M  CHG  2  19  -1  22   1
M  END

