
     RDKit          3D

 27 28  0  0  0  0  0  0  0  0999 V2000
    3.9265    1.2715   -0.1948 C   0  0  0  0  0  0  0  0  0  0  0  0
    3.1003    0.1720    0.1449 O   0  0  0  0  0  0  0  0  0  0  0  0
    3.5547   -1.1038   -0.0032 C   0  0  0  0  0  0  0  0  0  0  0  0
    4.8792   -1.3669   -0.3728 C   0  0  0  0  0  0  0  0  0  0  0  0
    5.3282   -2.6847   -0.5478 C   0  0  0  0  0  0  0  0  0  0  0  0
    6.6021   -2.9713   -0.9014 O   0  0  0  0  0  0  0  0  0  0  0  0
    4.4398   -3.7510   -0.3613 C   0  0  0  0  0  0  0  0  0  0  0  0
    3.1301   -3.4760    0.0033 C   0  0  0  0  0  0  0  0  0  0  0  0
    2.6314   -2.1676    0.2103 C   0  0  0  0  0  0  0  0  0  0  0  0
    1.2310   -2.0632    0.5981 C   0  0  0  0  0  0  0  0  0  0  0  0
    0.4302   -1.0709    1.0638 C   0  0  0  0  0  0  0  0  0  0  0  0
    0.6613    0.2647    1.3657 N   0  0  0  0  0  0  0  0  0  0  0  0
   -0.4507    0.9081    1.8294 C   0  0  0  0  0  0  0  0  0  0  0  0
   -0.5866    2.4969    2.2604 S   0  0  0  0  0  0  0  0  0  0  0  0
   -1.4461   -0.0559    1.8544 N   0  0  0  0  0  0  0  0  0  0  0  0
   -1.0107   -1.3033    1.4035 C   0  0  0  0  0  0  0  0  0  0  0  0
   -1.6688   -2.3153    1.3211 O   0  0  0  0  0  0  0  0  0  0  0  0
    3.3155    2.1730   -0.0513 H   0  0  0  0  0  0  0  0  0  0  0  0
    4.2504    1.2195   -1.2480 H   0  0  0  0  0  0  0  0  0  0  0  0
    4.8137    1.3334    0.4587 H   0  0  0  0  0  0  0  0  0  0  0  0
    5.5803   -0.5468   -0.5325 H   0  0  0  0  0  0  0  0  0  0  0  0
    7.1119   -2.1563   -0.9987 H   0  0  0  0  0  0  0  0  0  0  0  0
    4.7917   -4.7729   -0.5081 H   0  0  0  0  0  0  0  0  0  0  0  0
    2.4382   -4.3097    0.1462 H   0  0  0  0  0  0  0  0  0  0  0  0
    0.6822   -3.0083    0.5307 H   0  0  0  0  0  0  0  0  0  0  0  0
    1.5464    0.7231    1.1875 H   0  0  0  0  0  0  0  0  0  0  0  0
   -2.3890    0.1458    2.1663 H   0  0  0  0  0  0  0  0  0  0  0  0
  1  2  1  0
  1 18  1  0
  1 19  1  0
  1 20  1  0
  2  3  1  0
  3  4  2  0
  3  9  1  0
  4  5  1  0
  4 21  1  0
  5  6  1  0
  5  7  2  0
  6 22  1  0
  7  8  1  0
  7 23  1  0
  8  9  2  0
  8 24  1  0
  9 10  1  0
 10 11  2  0
 10 25  1  0
 11 12  1  0
 11 16  1  0
 12 13  1  0
 12 26  1  0
 13 14  2  0
 13 15  1  0
 15 16  1  0
 15 27  1  0
 16 17  2  0
M  END

