
     RDKit          3D

 31 32  0  0  0  0  0  0  0  0999 V2000
    2.0028    1.8278   -1.1277 C   0  0  0  0  0  0  0  0  0  0  0  0
    3.4038    1.3772   -1.4019 C   0  0  0  0  0  0  0  0  0  0  0  0
    4.3327    2.1163   -1.9324 N   0  0  0  0  0  0  0  0  0  0  0  0
    5.5140    1.4367   -2.0627 C   0  0  0  0  0  0  0  0  0  0  0  0
    5.5234    0.1336   -1.6349 C   0  0  0  0  0  0  0  0  0  0  0  0
    6.6603   -0.8408   -1.6270 C   0  0  0  0  0  0  0  0  0  0  0  0
    7.2124   -0.9901   -0.2678 N   0  0  0  0  0  0  0  0  0  0  0  0
    8.4486   -2.1090   -0.0095 S   0  0  1  0  0  0  0  0  0  0  0  0
    8.2311   -2.6114    1.3425 O   0  0  0  0  0  0  0  0  0  0  0  0
    8.5455   -2.9652   -1.1920 O   0  0  0  0  0  0  0  0  0  0  0  0
    9.9285   -1.0371   -0.0222 C   0  0  0  0  0  0  0  0  0  0  0  0
    9.7713    0.3400    0.1611 C   0  0  0  0  0  0  0  0  0  0  0  0
   10.8753    1.1977    0.1206 C   0  0  0  0  0  0  0  0  0  0  0  0
   12.1513    0.6898   -0.1271 C   0  0  0  0  0  0  0  0  0  0  0  0
   12.3232   -0.6815   -0.3209 C   0  0  0  0  0  0  0  0  0  0  0  0
   11.2230   -1.5348   -0.2492 C   0  0  0  0  0  0  0  0  0  0  0  0
   11.5060   -2.9829   -0.3719 N   0  0  0  0  0  0  0  0  0  0  0  0
   10.8174   -3.7362    0.2886 O   0  0  0  0  0  0  0  0  0  0  0  0
   12.4354   -3.3071   -1.0906 O   0  0  0  0  0  0  0  0  0  0  0  0
    3.9349   -0.2622   -1.0262 S   0  0  0  0  0  0  0  0  0  0  0  0
    1.9114    2.8784   -1.4344 H   0  0  0  0  0  0  0  0  0  0  0  0
    1.7517    1.7459   -0.0579 H   0  0  0  0  0  0  0  0  0  0  0  0
    1.2674    1.2292   -1.6893 H   0  0  0  0  0  0  0  0  0  0  0  0
    6.3810    1.9399   -2.4974 H   0  0  0  0  0  0  0  0  0  0  0  0
    7.4544   -0.4541   -2.2838 H   0  0  0  0  0  0  0  0  0  0  0  0
    6.3521   -1.8153   -2.0419 H   0  0  0  0  0  0  0  0  0  0  0  0
    6.5228   -1.1051    0.4747 H   0  0  0  0  0  0  0  0  0  0  0  0
    8.7664    0.7325    0.3190 H   0  0  0  0  0  0  0  0  0  0  0  0
   10.7284    2.2691    0.2746 H   0  0  0  0  0  0  0  0  0  0  0  0
   13.0154    1.3563   -0.1696 H   0  0  0  0  0  0  0  0  0  0  0  0
   13.3029   -1.1148   -0.5226 H   0  0  0  0  0  0  0  0  0  0  0  0
  1  2  1  0
  1 21  1  0
  1 22  1  0
  1 23  1  0
  2  3  2  0
  2 20  1  0
  3  4  1  0
  4  5  2  0
  4 24  1  0
  5  6  1  0
  5 20  1  0
  6  7  1  0
  6 25  1  0
  6 26  1  0
  8  7  1  6
  7 27  1  0
  8  9  2  0
  8 10  2  0
  8 11  1  0
 11 12  2  0
 11 16  1  0
 12 13  1  0
 12 28  1  0
 13 14  2  0
 13 29  1  0
 14 15  1  0
 14 30  1  0
 15 16  2  0
 15 31  1  0
 16 17  1  0
 17 18  2  0
 17 19  1  0
M  CHG  2  17   1  19  -1
M  END

