
     RDKit          3D

 37 38  0  0  0  0  0  0  0  0999 V2000
    9.4950   -1.2247   -4.1349 C   0  0  0  0  0  0  0  0  0  0  0  0
    8.7079   -1.3362   -2.8347 C   0  0  0  0  0  0  0  0  0  0  0  0
    7.3866   -0.0386   -2.7888 S   0  0  0  0  0  0  0  0  0  0  0  0
    6.5951   -0.4125   -1.2234 C   0  0  0  0  0  0  0  0  0  0  0  0
    7.0251    0.2262   -0.0527 C   0  0  0  0  0  0  0  0  0  0  0  0
    6.4158   -0.0358    1.1755 C   0  0  0  0  0  0  0  0  0  0  0  0
    5.3687   -0.9599    1.2328 C   0  0  0  0  0  0  0  0  0  0  0  0
    4.9245   -1.6118    0.0820 C   0  0  0  0  0  0  0  0  0  0  0  0
    5.5173   -1.3345   -1.1636 C   0  0  0  0  0  0  0  0  0  0  0  0
    5.1155   -1.9767   -2.3479 N   0  0  0  0  0  0  0  0  0  0  0  0
    3.5325   -2.3923   -2.7754 S   0  0  1  0  0  0  0  0  0  0  0  0
    3.6684   -2.9139   -4.1287 O   0  0  0  0  0  0  0  0  0  0  0  0
    2.9603   -3.1628   -1.6686 O   0  0  0  0  0  0  0  0  0  0  0  0
    2.5951   -0.9086   -2.8591 C   0  0  0  0  0  0  0  0  0  0  0  0
    2.4184    0.0192   -3.8682 C   0  0  0  0  0  0  0  0  0  0  0  0
    1.6166    1.0298   -3.4295 N   0  0  0  0  0  0  0  0  0  0  0  0
    1.2999    0.7439   -2.1753 C   0  0  0  0  0  0  0  0  0  0  0  0
    0.3887    1.5471   -1.2945 C   0  0  0  0  0  0  0  0  0  0  0  0
    0.4612    3.0502   -1.5720 C   0  0  0  0  0  0  0  0  0  0  0  0
    1.8820   -0.4237   -1.7810 N   0  0  0  0  0  0  0  0  0  0  0  0
    1.7708   -0.9102   -0.8976 H   0  0  0  0  0  0  0  0  0  0  0  0
   10.2926   -1.9844   -4.1588 H   0  0  0  0  0  0  0  0  0  0  0  0
    9.9674   -0.2348   -4.2359 H   0  0  0  0  0  0  0  0  0  0  0  0
    8.8489   -1.3852   -5.0124 H   0  0  0  0  0  0  0  0  0  0  0  0
    9.3579   -1.1859   -1.9593 H   0  0  0  0  0  0  0  0  0  0  0  0
    8.2305   -2.3235   -2.7400 H   0  0  0  0  0  0  0  0  0  0  0  0
    7.8477    0.9415   -0.1227 H   0  0  0  0  0  0  0  0  0  0  0  0
    6.7607    0.4717    2.0791 H   0  0  0  0  0  0  0  0  0  0  0  0
    4.8947   -1.1910    2.1905 H   0  0  0  0  0  0  0  0  0  0  0  0
    4.1325   -2.3582    0.1344 H   0  0  0  0  0  0  0  0  0  0  0  0
    5.6273   -1.6433   -3.1714 H   0  0  0  0  0  0  0  0  0  0  0  0
    2.8287   -0.0141   -4.8763 H   0  0  0  0  0  0  0  0  0  0  0  0
    0.6270    1.3317   -0.2389 H   0  0  0  0  0  0  0  0  0  0  0  0
   -0.6477    1.1937   -1.4497 H   0  0  0  0  0  0  0  0  0  0  0  0
    1.4639    3.4480   -1.3516 H   0  0  0  0  0  0  0  0  0  0  0  0
   -0.2700    3.5939   -0.9549 H   0  0  0  0  0  0  0  0  0  0  0  0
    0.2501    3.2545   -2.6313 H   0  0  0  0  0  0  0  0  0  0  0  0
  1  2  1  0
  1 22  1  0
  1 23  1  0
  1 24  1  0
  2  3  1  0
  2 25  1  0
  2 26  1  0
  3  4  1  0
  4  5  2  0
  4  9  1  0
  5  6  1  0
  5 27  1  0
  6  7  2  0
  6 28  1  0
  7  8  1  0
  7 29  1  0
  8  9  2  0
  8 30  1  0
  9 10  1  0
 11 10  1  1
 10 31  1  0
 11 12  2  0
 11 13  2  0
 11 14  1  0
 14 15  2  0
 14 20  1  0
 15 16  1  0
 15 32  1  0
 16 17  2  0
 17 18  1  0
 17 20  1  0
 18 19  1  0
 18 33  1  0
 18 34  1  0
 19 35  1  0
 19 36  1  0
 19 37  1  0
 20 21  1  0
M  END

