
     RDKit          3D

 47 50  0  0  0  0  0  0  0  0999 V2000
    1.7331   -0.0576    0.9577 N   0  0  0  0  0  0  0  0  0  0  0  0
    3.0607   -0.1210    0.6821 C   0  0  0  0  0  0  0  0  0  0  0  0
    3.7792   -1.3037    0.4990 C   0  0  0  0  0  0  0  0  0  0  0  0
    3.1506   -2.6240    0.5141 C   0  0  0  0  0  0  0  0  0  0  0  0
    1.9389   -2.7571    0.7148 O   0  0  0  0  0  0  0  0  0  0  0  0
    3.9868   -3.7024    0.2864 N   0  0  0  0  0  0  0  0  0  0  0  0
    3.6658   -5.0610    0.2315 C   0  0  0  0  0  0  0  0  0  0  0  0
    2.3647   -5.5849    0.3526 C   0  0  0  0  0  0  0  0  0  0  0  0
    2.1527   -6.9620    0.2658 C   0  0  0  0  0  0  0  0  0  0  0  0
    3.2116   -7.8467    0.0475 C   0  0  0  0  0  0  0  0  0  0  0  0
    4.5090   -7.3444   -0.0807 C   0  0  0  0  0  0  0  0  0  0  0  0
    4.7235   -5.9742    0.0279 C   0  0  0  0  0  0  0  0  0  0  0  0
    6.0053   -5.4235   -0.1389 O   0  0  0  0  0  0  0  0  0  0  0  0
    6.9620   -5.6728    0.7890 C   0  0  1  0  0  0  0  0  0  0  0  0
    7.3433   -6.9589    0.7986 F   0  0  0  0  0  0  0  0  0  0  0  0
    8.0169   -4.9268    0.4885 F   0  0  0  0  0  0  0  0  0  0  0  0
    6.5559   -5.3687    2.0276 F   0  0  0  0  0  0  0  0  0  0  0  0
    5.5093   -1.0179    0.2034 S   0  0  0  0  0  0  0  0  0  0  0  0
    5.2621    0.7155    0.3065 C   0  0  0  0  0  0  0  0  0  0  0  0
    6.2415    1.5960    0.1612 N   0  0  0  0  0  0  0  0  0  0  0  0
    5.9488    2.8948    0.2721 C   0  0  0  0  0  0  0  0  0  0  0  0
    4.6284    3.3608    0.5466 C   0  0  0  0  0  0  0  0  0  0  0  0
    3.6179    2.4118    0.6957 C   0  0  0  0  0  0  0  0  0  0  0  0
    3.9133    1.0457    0.5723 C   0  0  0  0  0  0  0  0  0  0  0  0
    4.3174    4.8366    0.6713 C   0  0  0  0  0  0  0  0  0  0  0  0
    4.5664    5.6741   -0.5997 C   0  0  0  0  0  0  0  0  0  0  0  0
    6.0356    6.0135   -0.8760 C   0  0  0  0  0  0  0  0  0  0  0  0
    6.9703    4.8207   -1.1056 C   0  0  0  0  0  0  0  0  0  0  0  0
    7.1048    3.8526    0.0867 C   0  0  0  0  0  0  0  0  0  0  0  0
    1.2315   -0.9438    0.9177 H   0  0  0  0  0  0  0  0  0  0  0  0
    1.2348    0.8121    0.8336 H   0  0  0  0  0  0  0  0  0  0  0  0
    4.9667   -3.5049    0.1123 H   0  0  0  0  0  0  0  0  0  0  0  0
    1.5416   -4.8943    0.5159 H   0  0  0  0  0  0  0  0  0  0  0  0
    1.1343   -7.3456    0.3655 H   0  0  0  0  0  0  0  0  0  0  0  0
    3.0342   -8.9214   -0.0299 H   0  0  0  0  0  0  0  0  0  0  0  0
    5.3578   -8.0036   -0.2638 H   0  0  0  0  0  0  0  0  0  0  0  0
    2.5993    2.7446    0.9189 H   0  0  0  0  0  0  0  0  0  0  0  0
    4.9020    5.2721    1.5031 H   0  0  0  0  0  0  0  0  0  0  0  0
    3.2600    4.9393    0.9627 H   0  0  0  0  0  0  0  0  0  0  0  0
    4.0081    6.6206   -0.5001 H   0  0  0  0  0  0  0  0  0  0  0  0
    4.1291    5.1502   -1.4684 H   0  0  0  0  0  0  0  0  0  0  0  0
    6.4248    6.6093   -0.0289 H   0  0  0  0  0  0  0  0  0  0  0  0
    6.0845    6.6772   -1.7565 H   0  0  0  0  0  0  0  0  0  0  0  0
    7.9748    5.2120   -1.3392 H   0  0  0  0  0  0  0  0  0  0  0  0
    6.6505    4.2535   -1.9979 H   0  0  0  0  0  0  0  0  0  0  0  0
    7.2501    4.4410    1.0124 H   0  0  0  0  0  0  0  0  0  0  0  0
    8.0014    3.2303   -0.0394 H   0  0  0  0  0  0  0  0  0  0  0  0
  1  2  1  0
  1 30  1  0
  1 31  1  0
  2  3  2  0
  2 24  1  0
  3  4  1  0
  3 18  1  0
  4  5  2  0
  4  6  1  0
  6  7  1  0
  6 32  1  0
  7  8  2  0
  7 12  1  0
  8  9  1  0
  8 33  1  0
  9 10  2  0
  9 34  1  0
 10 11  1  0
 10 35  1  0
 11 12  2  0
 11 36  1  0
 12 13  1  0
 13 14  1  0
 14 15  1  1
 14 16  1  0
 14 17  1  0
 18 19  1  0
 19 20  1  0
 19 24  2  0
 20 21  2  0
 21 22  1  0
 21 29  1  0
 22 23  2  0
 22 25  1  0
 23 24  1  0
 23 37  1  0
 25 26  1  0
 25 38  1  0
 25 39  1  0
 26 27  1  0
 26 40  1  0
 26 41  1  0
 27 28  1  0
 27 42  1  0
 27 43  1  0
 28 29  1  0
 28 44  1  0
 28 45  1  0
 29 46  1  0
 29 47  1  0
M  END

