
     RDKit          3D

 46 48  0  0  0  0  0  0  0  0999 V2000
    1.4700    0.2212   -0.1273 C   0  0  0  0  0  0  0  0  0  0  0  0
    2.9859    0.2808    0.0329 C   0  0  1  0  0  0  0  0  0  0  0  0
    3.5978   -0.9989   -0.1078 O   0  0  0  0  0  0  0  0  0  0  0  0
    3.6234   -1.8949    0.9272 C   0  0  0  0  0  0  0  0  0  0  0  0
    4.1735   -3.1537    0.6333 C   0  0  0  0  0  0  0  0  0  0  0  0
    4.2745   -4.1291    1.6190 C   0  0  0  0  0  0  0  0  0  0  0  0
    3.8186   -3.8627    2.9152 C   0  0  0  0  0  0  0  0  0  0  0  0
    3.8981   -4.8955    3.8282 O   0  0  0  0  0  0  0  0  0  0  0  0
    3.9934   -4.6591    5.1635 C   0  0  0  0  0  0  0  0  0  0  0  0
    3.1292   -5.2757    5.9476 N   0  0  0  0  0  0  0  0  0  0  0  0
    3.2181   -5.1514    7.2724 C   0  0  0  0  0  0  0  0  0  0  0  0
    4.2032   -4.3666    7.8788 C   0  0  0  0  0  0  0  0  0  0  0  0
    4.2754   -4.2213    9.6115 Cl  0  0  0  0  0  0  0  0  0  0  0  0
    5.1345   -3.7027    7.0714 C   0  0  0  0  0  0  0  0  0  0  0  0
    5.0269   -3.8625    5.6987 C   0  0  0  0  0  0  0  0  0  0  0  0
    5.9032   -3.2698    4.8851 F   0  0  0  0  0  0  0  0  0  0  0  0
    3.2538   -2.6231    3.2129 C   0  0  0  0  0  0  0  0  0  0  0  0
    3.1594   -1.6368    2.2230 C   0  0  0  0  0  0  0  0  0  0  0  0
    3.5995    1.2327   -1.0084 C   0  0  0  0  0  0  0  0  0  0  0  0
    3.1322    2.3396   -1.2028 O   0  0  0  0  0  0  0  0  0  0  0  0
    4.7289    0.7595   -1.6107 N   0  0  0  0  0  0  0  0  0  0  0  0
    5.2042    1.4283   -2.7148 O   0  0  0  0  0  0  0  0  0  0  0  0
    6.1932    2.4207   -2.3817 C   0  0  0  0  0  0  0  0  0  0  0  0
    6.1018    3.5215   -3.4007 C   0  0  0  0  0  0  0  0  0  0  0  0
    4.8915    4.2114   -3.5944 C   0  0  0  0  0  0  0  0  0  0  0  0
    4.8356    5.2336   -4.5345 C   0  0  0  0  0  0  0  0  0  0  0  0
    6.0113    5.5256   -5.2457 C   0  0  0  0  0  0  0  0  0  0  0  0
    5.9713    6.8171   -6.4335 Cl  0  0  0  0  0  0  0  0  0  0  0  0
    7.1519    4.8897   -5.0837 N   0  0  0  0  0  0  0  0  0  0  0  0
    7.1949    3.9017   -4.1827 C   0  0  0  0  0  0  0  0  0  0  0  0
    1.0100   -0.3751    0.6735 H   0  0  0  0  0  0  0  0  0  0  0  0
    1.2110   -0.2340   -1.0952 H   0  0  0  0  0  0  0  0  0  0  0  0
    1.0627    1.2411   -0.0989 H   0  0  0  0  0  0  0  0  0  0  0  0
    3.2485    0.7162    1.0145 H   0  0  0  0  0  0  0  0  0  0  0  0
    4.5220   -3.3499   -0.3827 H   0  0  0  0  0  0  0  0  0  0  0  0
    4.7036   -5.1087    1.4006 H   0  0  0  0  0  0  0  0  0  0  0  0
    2.4849   -5.6862    7.8838 H   0  0  0  0  0  0  0  0  0  0  0  0
    5.9331   -3.0897    7.4916 H   0  0  0  0  0  0  0  0  0  0  0  0
    2.8696   -2.4163    4.2137 H   0  0  0  0  0  0  0  0  0  0  0  0
    2.7093   -0.6790    2.4836 H   0  0  0  0  0  0  0  0  0  0  0  0
    4.9437   -0.2333   -1.5821 H   0  0  0  0  0  0  0  0  0  0  0  0
    7.2007    1.9664   -2.3734 H   0  0  0  0  0  0  0  0  0  0  0  0
    5.9790    2.8091   -1.3732 H   0  0  0  0  0  0  0  0  0  0  0  0
    4.0136    3.9287   -3.0068 H   0  0  0  0  0  0  0  0  0  0  0  0
    3.9208    5.7971   -4.7210 H   0  0  0  0  0  0  0  0  0  0  0  0
    8.1563    3.3840   -4.0771 H   0  0  0  0  0  0  0  0  0  0  0  0
  1  2  1  0
  1 31  1  0
  1 32  1  0
  1 33  1  0
  2  3  1  0
  2 19  1  0
  2 34  1  1
  3  4  1  0
  4  5  2  0
  4 18  1  0
  5  6  1  0
  5 35  1  0
  6  7  2  0
  6 36  1  0
  7  8  1  0
  7 17  1  0
  8  9  1  0
  9 10  2  0
  9 15  1  0
 10 11  1  0
 11 12  2  0
 11 37  1  0
 12 13  1  0
 12 14  1  0
 14 15  2  0
 14 38  1  0
 15 16  1  0
 17 18  2  0
 17 39  1  0
 18 40  1  0
 19 20  2  0
 19 21  1  0
 21 22  1  0
 21 41  1  0
 22 23  1  0
 23 24  1  0
 23 42  1  0
 23 43  1  0
 24 25  2  0
 24 30  1  0
 25 26  1  0
 25 44  1  0
 26 27  2  0
 26 45  1  0
 27 28  1  0
 27 29  1  0
 29 30  2  0
 30 46  1  0
M  END

