
     RDKit          3D

 29 30  0  0  0  0  0  0  0  0999 V2000
    1.5471    0.3266    0.3553 C   0  0  0  0  0  0  0  0  0  0  0  0
    2.9767   -0.1033    0.2130 C   0  0  0  0  0  0  0  0  0  0  0  0
    3.9609    0.8430    0.2340 N   0  0  0  0  0  0  0  0  0  0  0  0
    5.1615    0.3383    0.0978 C   0  0  0  0  0  0  0  0  0  0  0  0
    6.3772    1.1256    0.0826 C   0  0  0  0  0  0  0  0  0  0  0  0
    7.6944    0.7177   -0.0416 C   0  0  0  0  0  0  0  0  0  0  0  0
    8.6133    1.8007   -0.0118 C   0  0  0  0  0  0  0  0  0  0  0  0
    7.9855    3.0165    0.1347 C   0  0  0  0  0  0  0  0  0  0  0  0
    6.2711    2.8605    0.2393 S   0  0  0  0  0  0  0  0  0  0  0  0
    5.1763   -1.4076   -0.0779 S   0  0  0  0  0  0  0  0  0  0  0  0
    3.4301   -1.4087    0.0567 C   0  0  0  0  0  0  0  0  0  0  0  0
    2.5871   -2.6259    0.0072 C   0  0  0  0  0  0  0  0  0  0  0  0
    1.3664   -2.5580    0.0025 O   0  0  0  0  0  0  0  0  0  0  0  0
    3.2547   -3.8332   -0.0532 N   0  0  0  0  0  0  0  0  0  0  0  0
    2.5502   -5.0984   -0.0053 C   0  0  0  0  0  0  0  0  0  0  0  0
    2.7449   -6.0180   -1.2189 C   0  0  0  0  0  0  0  0  0  0  0  0
    3.1923   -5.4088   -2.3502 N   0  0  0  0  0  0  0  0  0  0  0  0
    2.4895   -7.2040   -1.1426 O   0  0  0  0  0  0  0  0  0  0  0  0
    1.5123    1.4156    0.4908 H   0  0  0  0  0  0  0  0  0  0  0  0
    1.0649   -0.1717    1.2094 H   0  0  0  0  0  0  0  0  0  0  0  0
    0.9591    0.0411   -0.5294 H   0  0  0  0  0  0  0  0  0  0  0  0
    7.9889   -0.3278   -0.1499 H   0  0  0  0  0  0  0  0  0  0  0  0
    9.6948    1.6860   -0.0949 H   0  0  0  0  0  0  0  0  0  0  0  0
    8.4452    4.0029    0.1883 H   0  0  0  0  0  0  0  0  0  0  0  0
    4.2535   -3.8470    0.1209 H   0  0  0  0  0  0  0  0  0  0  0  0
    1.4763   -4.8680    0.0713 H   0  0  0  0  0  0  0  0  0  0  0  0
    2.8247   -5.6884    0.8837 H   0  0  0  0  0  0  0  0  0  0  0  0
    3.3567   -4.4115   -2.3812 H   0  0  0  0  0  0  0  0  0  0  0  0
    3.2796   -5.9623   -3.1940 H   0  0  0  0  0  0  0  0  0  0  0  0
  1  2  1  0
  1 19  1  0
  1 20  1  0
  1 21  1  0
  2  3  2  0
  2 11  1  0
  3  4  1  0
  4  5  2  0
  4 10  1  0
  5  6  1  0
  5  9  1  0
  6  7  2  0
  6 22  1  0
  7  8  1  0
  7 23  1  0
  8  9  2  0
  8 24  1  0
 10 11  1  0
 11 12  2  0
 12 13  1  0
 12 14  1  0
 14 15  1  0
 14 25  1  0
 15 16  1  0
 15 26  1  0
 15 27  1  0
 16 17  1  0
 16 18  2  0
 17 28  1  0
 17 29  1  0
M  CHG  2   9   1  13  -1
M  END

