
     RDKit          3D

 66 72  0  0  0  0  0  0  0  0999 V2000
   10.1861   -1.2742    0.0813 C   0  0  0  0  0  0  0  0  0  0  0  0
    8.9989   -0.7509   -0.5203 O   0  0  0  0  0  0  0  0  0  0  0  0
    7.9706   -0.4670    0.3167 C   0  0  0  0  0  0  0  0  0  0  0  0
    8.0111   -0.6869    1.5059 O   0  0  0  0  0  0  0  0  0  0  0  0
    6.8584    0.1544   -0.4226 C   0  0  0  0  0  0  0  0  0  0  0  0
    7.0364    0.4310   -1.7608 N   0  0  0  0  0  0  0  0  0  0  0  0
    7.8948    0.2264   -2.2545 H   0  0  0  0  0  0  0  0  0  0  0  0
    5.9169    1.0317   -2.2590 C   0  0  0  0  0  0  0  0  0  0  0  0
    5.6580    1.4934   -3.5557 C   0  0  0  0  0  0  0  0  0  0  0  0
    4.4290    2.0844   -3.8170 C   0  0  0  0  0  0  0  0  0  0  0  0
    3.4659    2.2158   -2.7848 C   0  0  0  0  0  0  0  0  0  0  0  0
    2.2421    2.7898   -2.9691 O   0  0  0  0  0  0  0  0  0  0  0  0
    1.8951    3.3009   -4.2327 C   0  0  0  0  0  0  0  0  0  0  0  0
    3.7274    1.7540   -1.4960 C   0  0  0  0  0  0  0  0  0  0  0  0
    4.9662    1.1421   -1.1940 C   0  0  0  0  0  0  0  0  0  0  0  0
    5.5834    0.5675   -0.0116 C   0  0  0  0  0  0  0  0  0  0  0  0
    5.0189    0.3725    1.3883 C   0  0  2  0  0  0  0  0  0  0  0  0
    3.6232    1.0257    1.6498 C   0  0  0  0  0  0  0  0  0  0  0  0
    3.9141    2.4747    2.0343 C   0  0  0  0  0  0  0  0  0  0  0  0
    5.2062    2.3733    2.7256 N   0  0  0  0  0  0  0  0  0  0  0  0
    5.8220    3.5014    3.2003 C   0  0  0  0  0  0  0  0  0  0  0  0
    5.2799    4.5951    3.1472 O   0  0  0  0  0  0  0  0  0  0  0  0
    7.2280    3.3442    3.7993 C   0  0  0  0  0  0  0  0  0  0  0  0
    8.3316    3.5951    2.7826 C   0  0  0  0  0  0  0  0  0  0  0  0
    8.3967    4.8209    2.1031 C   0  0  0  0  0  0  0  0  0  0  0  0
    9.4059    5.0973    1.1615 C   0  0  0  0  0  0  0  0  0  0  0  0
   10.3415    4.1039    0.9307 C   0  0  0  0  0  0  0  0  0  0  0  0
   10.2827    2.8806    1.5985 C   0  0  0  0  0  0  0  0  0  0  0  0
    9.2956    2.5925    2.5235 C   0  0  0  0  0  0  0  0  0  0  0  0
   11.3019    2.0740    1.1524 O   0  0  0  0  0  0  0  0  0  0  0  0
   12.1266    2.9075    0.3403 C   0  0  0  0  0  0  0  0  0  0  0  0
   11.3987    4.0953    0.0578 O   0  0  0  0  0  0  0  0  0  0  0  0
    5.8561    1.0894    2.5107 C   0  0  1  0  0  0  0  0  0  0  0  0
    6.8964    1.2472    2.2081 H   0  0  0  0  0  0  0  0  0  0  0  0
    5.8041    0.1564    3.6393 N   0  0  0  0  0  0  0  0  0  0  0  0
    5.3489   -1.0908    3.2395 C   0  0  0  0  0  0  0  0  0  0  0  0
    5.2533   -2.2690    3.9847 C   0  0  0  0  0  0  0  0  0  0  0  0
    4.8008   -3.4302    3.3399 C   0  0  0  0  0  0  0  0  0  0  0  0
    4.4562   -3.4218    1.9854 C   0  0  0  0  0  0  0  0  0  0  0  0
    4.5397   -2.2263    1.2484 C   0  0  0  0  0  0  0  0  0  0  0  0
    4.9789   -1.0721    1.8783 C   0  0  0  0  0  0  0  0  0  0  0  0
   10.8056   -1.6512   -0.7428 H   0  0  0  0  0  0  0  0  0  0  0  0
    9.9433   -2.0861    0.7810 H   0  0  0  0  0  0  0  0  0  0  0  0
   10.7194   -0.4763    0.6205 H   0  0  0  0  0  0  0  0  0  0  0  0
    6.4058    1.3936   -4.3459 H   0  0  0  0  0  0  0  0  0  0  0  0
    4.2183    2.4478   -4.8225 H   0  0  0  0  0  0  0  0  0  0  0  0
    0.8817    3.7143   -4.1362 H   0  0  0  0  0  0  0  0  0  0  0  0
    1.8830    2.5157   -5.0115 H   0  0  0  0  0  0  0  0  0  0  0  0
    2.5764    4.1094   -4.5569 H   0  0  0  0  0  0  0  0  0  0  0  0
    2.9398    1.9006   -0.7624 H   0  0  0  0  0  0  0  0  0  0  0  0
    3.1787    0.5088    2.5123 H   0  0  0  0  0  0  0  0  0  0  0  0
    2.9199    0.9052    0.8206 H   0  0  0  0  0  0  0  0  0  0  0  0
    3.1495    2.9101    2.6952 H   0  0  0  0  0  0  0  0  0  0  0  0
    4.0073    3.1455    1.1629 H   0  0  0  0  0  0  0  0  0  0  0  0
    7.3693    2.3583    4.2629 H   0  0  0  0  0  0  0  0  0  0  0  0
    7.2810    4.0995    4.5981 H   0  0  0  0  0  0  0  0  0  0  0  0
    7.6336    5.5745    2.3092 H   0  0  0  0  0  0  0  0  0  0  0  0
    9.4499    6.0511    0.6335 H   0  0  0  0  0  0  0  0  0  0  0  0
    9.2631    1.6221    3.0221 H   0  0  0  0  0  0  0  0  0  0  0  0
   12.3705    2.3860   -0.5994 H   0  0  0  0  0  0  0  0  0  0  0  0
   13.0554    3.1592    0.8917 H   0  0  0  0  0  0  0  0  0  0  0  0
    5.6828    0.4951    4.5846 H   0  0  0  0  0  0  0  0  0  0  0  0
    5.5419   -2.2908    5.0385 H   0  0  0  0  0  0  0  0  0  0  0  0
    4.7290   -4.3605    3.9102 H   0  0  0  0  0  0  0  0  0  0  0  0
    4.1167   -4.3401    1.5005 H   0  0  0  0  0  0  0  0  0  0  0  0
    4.2540   -2.2053    0.1928 H   0  0  0  0  0  0  0  0  0  0  0  0
  1  2  1  0
  1 42  1  0
  1 43  1  0
  1 44  1  0
  2  3  1  0
  3  4  2  0
  3  5  1  0
  5  6  1  0
  5 16  2  0
  6  7  1  0
  6  8  1  0
  8  9  2  0
  8 15  1  0
  9 10  1  0
  9 45  1  0
 10 11  2  0
 10 46  1  0
 11 12  1  0
 11 14  1  0
 12 13  1  0
 13 47  1  0
 13 48  1  0
 13 49  1  0
 14 15  2  0
 14 50  1  0
 15 16  1  0
 17 16  1  6
 17 18  1  0
 17 33  1  0
 17 41  1  0
 18 19  1  0
 18 51  1  0
 18 52  1  0
 19 20  1  0
 19 53  1  0
 19 54  1  0
 20 21  1  0
 20 33  1  0
 21 22  2  0
 21 23  1  0
 23 24  1  0
 23 55  1  0
 23 56  1  0
 24 25  2  0
 24 29  1  0
 25 26  1  0
 25 57  1  0
 26 27  2  0
 26 58  1  0
 27 28  1  0
 27 32  1  0
 28 29  2  0
 28 30  1  0
 29 59  1  0
 30 31  1  0
 31 32  1  0
 31 60  1  0
 31 61  1  0
 33 34  1  6
 33 35  1  0
 35 36  1  0
 35 62  1  0
 36 37  1  0
 36 41  2  0
 37 38  2  0
 37 63  1  0
 38 39  1  0
 38 64  1  0
 39 40  2  0
 39 65  1  0
 40 41  1  0
 40 66  1  0
M  END

