
     RDKit          3D

 81 85  0  0  0  0  0  0  0  0999 V2000
   -1.1846   -9.3011   -0.2655 C   0  0  0  0  0  0  0  0  0  0  0  0
   -0.6901   -8.6933   -1.5817 C   0  0  1  0  0  0  0  0  0  0  0  0
    0.5293   -7.9033   -1.3789 N   0  0  0  0  0  0  0  0  0  0  0  0
    0.5120   -6.5942   -1.0099 C   0  0  0  0  0  0  0  0  0  0  0  0
   -0.5600   -6.0097   -0.8047 O   0  0  0  0  0  0  0  0  0  0  0  0
    1.8433   -5.9186   -0.8629 C   0  0  0  0  0  0  0  0  0  0  0  0
    2.9684   -6.4142   -1.5480 C   0  0  0  0  0  0  0  0  0  0  0  0
    4.2293   -5.8454   -1.3981 C   0  0  0  0  0  0  0  0  0  0  0  0
    4.3789   -4.7533   -0.5373 C   0  0  0  0  0  0  0  0  0  0  0  0
    3.2853   -4.2183    0.1377 C   0  0  0  0  0  0  0  0  0  0  0  0
    1.9971   -4.7703   -0.0278 C   0  0  0  0  0  0  0  0  0  0  0  0
    0.8694   -4.2331    0.5984 N   0  0  0  0  0  0  0  0  0  0  0  0
    0.8038   -3.2461    1.5540 C   0  0  0  0  0  0  0  0  0  0  0  0
    1.7771   -2.6523    1.9903 O   0  0  0  0  0  0  0  0  0  0  0  0
   -0.5934   -2.9446    2.1358 C   0  0  1  0  0  0  0  0  0  0  0  0
   -0.8018   -1.4215    2.2384 C   0  0  0  0  0  0  0  0  0  0  0  0
   -1.1201   -0.8246    0.8643 C   0  0  0  0  0  0  0  0  0  0  0  0
   -2.2934   -1.5501    0.2026 C   0  0  0  0  0  0  0  0  0  0  0  0
   -2.0450   -2.9881    0.1377 N   0  0  0  0  0  0  0  0  0  0  0  0
   -2.9490   -3.7342   -0.7255 C   0  0  0  0  0  0  0  0  0  0  0  0
   -4.3780   -3.7954   -0.2489 C   0  0  0  0  0  0  0  0  0  0  0  0
   -4.9233   -4.6190    0.5957 N   0  0  0  0  0  0  0  0  0  0  0  0
   -6.2177   -4.1503    0.6967 C   0  0  0  0  0  0  0  0  0  0  0  0
   -7.2372   -4.7748    1.5519 C   0  0  0  0  0  0  0  0  0  0  0  0
   -8.5399   -4.2607    1.6263 C   0  0  0  0  0  0  0  0  0  0  0  0
   -9.4949   -4.8659    2.4441 C   0  0  0  0  0  0  0  0  0  0  0  0
   -9.1919   -6.0012    3.2162 C   0  0  0  0  0  0  0  0  0  0  0  0
  -10.2226   -6.6929    4.1289 C   0  0  1  0  0  0  0  0  0  0  0  0
  -11.5958   -5.9983    4.0900 C   0  0  0  0  0  0  0  0  0  0  0  0
  -10.4096   -8.1586    3.6718 C   0  0  0  0  0  0  0  0  0  0  0  0
   -9.7113   -6.6708    5.5884 C   0  0  0  0  0  0  0  0  0  0  0  0
   -7.8793   -6.5037    3.1288 C   0  0  0  0  0  0  0  0  0  0  0  0
   -6.9174   -5.9083    2.3162 C   0  0  0  0  0  0  0  0  0  0  0  0
   -6.4533   -3.0932   -0.0491 N   0  0  0  0  0  0  0  0  0  0  0  0
   -5.2380   -2.8541   -0.6735 O   0  0  0  0  0  0  0  0  0  0  0  0
   -1.8028   -3.5906    1.4451 C   0  0  0  0  0  0  0  0  0  0  0  0
   -0.4512   -9.6868   -2.7168 C   0  0  0  0  0  0  0  0  0  0  0  0
   -0.2117   -9.1897   -4.0109 C   0  0  0  0  0  0  0  0  0  0  0  0
    0.0232  -10.0531   -5.0811 C   0  0  0  0  0  0  0  0  0  0  0  0
    0.0235  -11.4382   -4.8779 C   0  0  0  0  0  0  0  0  0  0  0  0
   -0.2145  -11.9448   -3.5996 C   0  0  0  0  0  0  0  0  0  0  0  0
   -0.4504  -11.0754   -2.5272 C   0  0  0  0  0  0  0  0  0  0  0  0
   -1.3854   -8.4944    0.4537 H   0  0  0  0  0  0  0  0  0  0  0  0
   -0.4383   -9.9791    0.1783 H   0  0  0  0  0  0  0  0  0  0  0  0
   -2.1184   -9.8639   -0.4170 H   0  0  0  0  0  0  0  0  0  0  0  0
   -1.4490   -7.9692   -1.9164 H   0  0  0  0  0  0  0  0  0  0  0  0
    1.4133   -8.3963   -1.4006 H   0  0  0  0  0  0  0  0  0  0  0  0
    2.8477   -7.2513   -2.2396 H   0  0  0  0  0  0  0  0  0  0  0  0
    5.0829   -6.2453   -1.9496 H   0  0  0  0  0  0  0  0  0  0  0  0
    5.3624   -4.2969   -0.3977 H   0  0  0  0  0  0  0  0  0  0  0  0
    3.3956   -3.3631    0.7992 H   0  0  0  0  0  0  0  0  0  0  0  0
   -0.0045   -4.6002    0.2151 H   0  0  0  0  0  0  0  0  0  0  0  0
   -0.5386   -3.3527    3.1614 H   0  0  0  0  0  0  0  0  0  0  0  0
    0.0965   -0.9607    2.6730 H   0  0  0  0  0  0  0  0  0  0  0  0
   -1.6412   -1.2285    2.9291 H   0  0  0  0  0  0  0  0  0  0  0  0
   -0.2339   -0.9019    0.2114 H   0  0  0  0  0  0  0  0  0  0  0  0
   -1.3584    0.2480    0.9559 H   0  0  0  0  0  0  0  0  0  0  0  0
   -2.4447   -1.1766   -0.8233 H   0  0  0  0  0  0  0  0  0  0  0  0
   -3.2282   -1.3189    0.7635 H   0  0  0  0  0  0  0  0  0  0  0  0
   -2.5749   -4.7632   -0.8205 H   0  0  0  0  0  0  0  0  0  0  0  0
   -2.9415   -3.2740   -1.7259 H   0  0  0  0  0  0  0  0  0  0  0  0
   -8.8016   -3.3797    1.0369 H   0  0  0  0  0  0  0  0  0  0  0  0
  -10.4949   -4.4332    2.4719 H   0  0  0  0  0  0  0  0  0  0  0  0
  -12.0315   -6.0038    3.0786 H   0  0  0  0  0  0  0  0  0  0  0  0
  -11.5383   -4.9533    4.4328 H   0  0  0  0  0  0  0  0  0  0  0  0
  -12.2984   -6.5253    4.7547 H   0  0  0  0  0  0  0  0  0  0  0  0
  -10.7777   -8.2050    2.6346 H   0  0  0  0  0  0  0  0  0  0  0  0
  -11.1420   -8.6717    4.3167 H   0  0  0  0  0  0  0  0  0  0  0  0
   -9.4686   -8.7276    3.7187 H   0  0  0  0  0  0  0  0  0  0  0  0
   -9.5721   -5.6370    5.9426 H   0  0  0  0  0  0  0  0  0  0  0  0
   -8.7487   -7.1936    5.6953 H   0  0  0  0  0  0  0  0  0  0  0  0
  -10.4354   -7.1654    6.2567 H   0  0  0  0  0  0  0  0  0  0  0  0
   -7.5943   -7.3842    3.7093 H   0  0  0  0  0  0  0  0  0  0  0  0
   -5.9056   -6.3139    2.2627 H   0  0  0  0  0  0  0  0  0  0  0  0
   -1.6588   -4.6738    1.3117 H   0  0  0  0  0  0  0  0  0  0  0  0
   -2.6780   -3.4842    2.1233 H   0  0  0  0  0  0  0  0  0  0  0  0
   -0.2122   -8.1087   -4.1770 H   0  0  0  0  0  0  0  0  0  0  0  0
    0.2021   -9.6455   -6.0794 H   0  0  0  0  0  0  0  0  0  0  0  0
    0.2053  -12.1172   -5.7148 H   0  0  0  0  0  0  0  0  0  0  0  0
   -0.2192  -13.0246   -3.4299 H   0  0  0  0  0  0  0  0  0  0  0  0
   -0.6383  -11.4956   -1.5378 H   0  0  0  0  0  0  0  0  0  0  0  0
  1  2  1  0
  1 43  1  0
  1 44  1  0
  1 45  1  0
  2  3  1  0
  2 37  1  0
  2 46  1  6
  3  4  1  0
  3 47  1  0
  4  5  2  0
  4  6  1  0
  6  7  2  0
  6 11  1  0
  7  8  1  0
  7 48  1  0
  8  9  2  0
  8 49  1  0
  9 10  1  0
  9 50  1  0
 10 11  2  0
 10 51  1  0
 11 12  1  0
 12 13  1  0
 12 52  1  0
 13 14  2  0
 13 15  1  0
 15 16  1  0
 15 36  1  0
 15 53  1  1
 16 17  1  0
 16 54  1  0
 16 55  1  0
 17 18  1  0
 17 56  1  0
 17 57  1  0
 18 19  1  0
 18 58  1  0
 18 59  1  0
 19 20  1  0
 19 36  1  0
 20 21  1  0
 20 60  1  0
 20 61  1  0
 21 22  2  0
 21 35  1  0
 22 23  1  0
 23 24  1  0
 23 34  2  0
 24 25  2  0
 24 33  1  0
 25 26  1  0
 25 62  1  0
 26 27  2  0
 26 63  1  0
 27 28  1  0
 27 32  1  0
 28 29  1  1
 28 30  1  0
 28 31  1  0
 29 64  1  0
 29 65  1  0
 29 66  1  0
 30 67  1  0
 30 68  1  0
 30 69  1  0
 31 70  1  0
 31 71  1  0
 31 72  1  0
 32 33  2  0
 32 73  1  0
 33 74  1  0
 34 35  1  0
 36 75  1  0
 36 76  1  0
 37 38  2  0
 37 42  1  0
 38 39  1  0
 38 77  1  0
 39 40  2  0
 39 78  1  0
 40 41  1  0
 40 79  1  0
 41 42  2  0
 41 80  1  0
 42 81  1  0
M  END

