
     RDKit          3D

 50 51  0  0  0  0  0  0  0  0999 V2000
    3.0334   -0.5170    4.0856 C   0  0  0  0  0  0  0  0  0  0  0  0
    2.9700   -0.8740    2.6101 C   0  0  0  0  0  0  0  0  0  0  0  0
    3.7601   -2.0354    2.3054 O   0  0  0  0  0  0  0  0  0  0  0  0
    5.0774   -1.8329    2.0589 C   0  0  0  0  0  0  0  0  0  0  0  0
    5.6175   -0.7494    2.0598 O   0  0  0  0  0  0  0  0  0  0  0  0
    5.6685   -3.0469    1.8117 N   0  0  0  0  0  0  0  0  0  0  0  0
    7.0129   -3.3215    1.5047 C   0  0  0  0  0  0  0  0  0  0  0  0
    7.9986   -2.3254    1.3928 C   0  0  0  0  0  0  0  0  0  0  0  0
    9.3058   -2.6905    1.0595 C   0  0  0  0  0  0  0  0  0  0  0  0
    9.6551   -4.0223    0.8393 C   0  0  0  0  0  0  0  0  0  0  0  0
    8.6824   -5.0234    0.9717 C   0  0  0  0  0  0  0  0  0  0  0  0
    9.1042   -6.4503    0.7168 C   0  0  0  0  0  0  0  0  0  0  0  0
   10.0745   -6.7131    0.0205 O   0  0  0  0  0  0  0  0  0  0  0  0
    8.3479   -7.4153    1.3186 N   0  0  0  0  0  0  0  0  0  0  0  0
    8.5882   -8.8459    1.1147 C   0  0  1  0  0  0  0  0  0  0  0  0
    9.0771   -8.9066    0.1320 H   0  0  0  0  0  0  0  0  0  0  0  0
    9.5611   -9.4026    2.1597 C   0  0  0  0  0  0  0  0  0  0  0  0
    7.2503   -9.5681    1.0217 C   0  0  0  0  0  0  0  0  0  0  0  0
    6.7343  -10.3540    2.0525 C   0  0  0  0  0  0  0  0  0  0  0  0
    5.4857  -10.9999    1.9674 C   0  0  0  0  0  0  0  0  0  0  0  0
    4.9774  -11.8441    3.1115 C   0  0  0  0  0  0  0  0  0  0  0  0
    4.7528  -10.8337    0.7908 C   0  0  0  0  0  0  0  0  0  0  0  0
    5.2383  -10.0562   -0.2690 C   0  0  0  0  0  0  0  0  0  0  0  0
    6.4801   -9.4216   -0.1611 C   0  0  0  0  0  0  0  0  0  0  0  0
    7.0296   -8.6524   -1.1358 O   0  0  0  0  0  0  0  0  0  0  0  0
    6.3599   -8.4941   -2.3654 C   0  0  0  0  0  0  0  0  0  0  0  0
    7.3676   -4.6655    1.2934 C   0  0  0  0  0  0  0  0  0  0  0  0
    2.3578    0.3276    4.2964 H   0  0  0  0  0  0  0  0  0  0  0  0
    4.0530   -0.2176    4.3700 H   0  0  0  0  0  0  0  0  0  0  0  0
    2.7246   -1.3689    4.7117 H   0  0  0  0  0  0  0  0  0  0  0  0
    3.3148   -0.0349    1.9878 H   0  0  0  0  0  0  0  0  0  0  0  0
    1.9481   -1.1465    2.3082 H   0  0  0  0  0  0  0  0  0  0  0  0
    5.0394   -3.8405    1.8551 H   0  0  0  0  0  0  0  0  0  0  0  0
    7.7284   -1.2846    1.5578 H   0  0  0  0  0  0  0  0  0  0  0  0
   10.0639   -1.9083    0.9675 H   0  0  0  0  0  0  0  0  0  0  0  0
   10.6693   -4.3129    0.5617 H   0  0  0  0  0  0  0  0  0  0  0  0
    7.6439   -7.1473    1.9946 H   0  0  0  0  0  0  0  0  0  0  0  0
   10.5193   -8.8696    2.0757 H   0  0  0  0  0  0  0  0  0  0  0  0
    9.7470  -10.4757    1.9969 H   0  0  0  0  0  0  0  0  0  0  0  0
    9.1883   -9.2678    3.1879 H   0  0  0  0  0  0  0  0  0  0  0  0
    7.3239  -10.4813    2.9638 H   0  0  0  0  0  0  0  0  0  0  0  0
    4.9131  -11.2635    4.0473 H   0  0  0  0  0  0  0  0  0  0  0  0
    5.6459  -12.6989    3.3113 H   0  0  0  0  0  0  0  0  0  0  0  0
    3.9760  -12.2480    2.9004 H   0  0  0  0  0  0  0  0  0  0  0  0
    3.7794  -11.3215    0.6854 H   0  0  0  0  0  0  0  0  0  0  0  0
    4.6390   -9.9564   -1.1742 H   0  0  0  0  0  0  0  0  0  0  0  0
    7.0013   -7.8577   -2.9894 H   0  0  0  0  0  0  0  0  0  0  0  0
    5.3793   -8.0001   -2.2391 H   0  0  0  0  0  0  0  0  0  0  0  0
    6.2056   -9.4614   -2.8767 H   0  0  0  0  0  0  0  0  0  0  0  0
    6.5885   -5.4315    1.3489 H   0  0  0  0  0  0  0  0  0  0  0  0
  1  2  1  0
  1 28  1  0
  1 29  1  0
  1 30  1  0
  2  3  1  0
  2 31  1  0
  2 32  1  0
  3  4  1  0
  4  5  2  0
  4  6  1  0
  6  7  1  0
  6 33  1  0
  7  8  2  0
  7 27  1  0
  8  9  1  0
  8 34  1  0
  9 10  2  0
  9 35  1  0
 10 11  1  0
 10 36  1  0
 11 12  1  0
 11 27  2  0
 12 13  2  0
 12 14  1  0
 14 15  1  0
 14 37  1  0
 15 16  1  6
 15 17  1  0
 15 18  1  0
 17 38  1  0
 17 39  1  0
 17 40  1  0
 18 19  2  0
 18 24  1  0
 19 20  1  0
 19 41  1  0
 20 21  1  0
 20 22  2  0
 21 42  1  0
 21 43  1  0
 21 44  1  0
 22 23  1  0
 22 45  1  0
 23 24  2  0
 23 46  1  0
 24 25  1  0
 25 26  1  0
 26 47  1  0
 26 48  1  0
 26 49  1  0
 27 50  1  0
M  END

