
     RDKit          3D

 54 56  0  0  0  0  0  0  0  0999 V2000
    2.7100    1.0432   -1.4387 O   0  0  0  0  0  0  0  0  0  0  0  0
    3.0316    1.0441   -0.2548 C   0  0  0  0  0  0  0  0  0  0  0  0
    2.5127    1.9433    0.6313 N   0  0  0  0  0  0  0  0  0  0  0  0
    1.5370    2.9542    0.2483 C   0  0  1  0  0  0  0  0  0  0  0  0
    0.0818    2.4594    0.3942 C   0  0  0  0  0  0  0  0  0  0  0  0
   -0.3367    2.1644    1.8409 C   0  0  0  0  0  0  0  0  0  0  0  0
   -0.1872    3.3697    2.7719 C   0  0  0  0  0  0  0  0  0  0  0  0
    1.5338    4.0080    2.8506 S   0  0  0  0  0  0  0  0  0  0  0  0
    1.7799    4.2419    1.0462 C   0  0  0  0  0  0  0  0  0  0  0  0
    4.0140    0.0351    0.3453 C   0  0  1  0  0  0  0  0  0  0  0  0
    3.3398   -1.3466    0.5299 C   0  0  0  0  0  0  0  0  0  0  0  0
    3.1331   -2.0892   -0.7949 C   0  0  0  0  0  0  0  0  0  0  0  0
    4.4507   -2.2293   -1.5648 C   0  0  0  0  0  0  0  0  0  0  0  0
    5.1151   -0.8602   -1.8173 C   0  0  2  0  0  0  0  0  0  0  0  0
    6.4745   -1.0641   -2.4855 C   0  0  0  0  0  0  0  0  0  0  0  0
    7.4135   -1.5923   -1.9040 O   0  0  0  0  0  0  0  0  0  0  0  0
    6.5645   -0.6278   -3.7756 N   0  0  0  0  0  0  0  0  0  0  0  0
    7.7758   -0.7731   -4.5697 C   0  0  1  0  0  0  0  0  0  0  0  0
    7.8393   -2.1256   -5.3121 C   0  0  0  0  0  0  0  0  0  0  0  0
    6.7512   -2.3032   -6.3793 C   0  0  0  0  0  0  0  0  0  0  0  0
    6.7759   -1.2142   -7.4544 C   0  0  0  0  0  0  0  0  0  0  0  0
    6.5573    0.4768   -6.7705 S   0  0  0  0  0  0  0  0  0  0  0  0
    7.9144    0.4103   -5.5356 C   0  0  0  0  0  0  0  0  0  0  0  0
    5.3025   -0.0953   -0.4930 C   0  0  0  0  0  0  0  0  0  0  0  0
    2.7846    1.9116    1.6090 H   0  0  0  0  0  0  0  0  0  0  0  0
    1.7147    3.1600   -0.8192 H   0  0  0  0  0  0  0  0  0  0  0  0
   -0.0402    1.5589   -0.2278 H   0  0  0  0  0  0  0  0  0  0  0  0
   -0.5866    3.2287   -0.0336 H   0  0  0  0  0  0  0  0  0  0  0  0
    0.2593    1.3248    2.2373 H   0  0  0  0  0  0  0  0  0  0  0  0
   -1.3899    1.8330    1.8557 H   0  0  0  0  0  0  0  0  0  0  0  0
   -0.4527    3.1127    3.8086 H   0  0  0  0  0  0  0  0  0  0  0  0
   -0.8498    4.1946    2.4572 H   0  0  0  0  0  0  0  0  0  0  0  0
    2.8163    4.5902    0.9227 H   0  0  0  0  0  0  0  0  0  0  0  0
    1.1090    5.0400    0.6892 H   0  0  0  0  0  0  0  0  0  0  0  0
    4.3021    0.4041    1.3445 H   0  0  0  0  0  0  0  0  0  0  0  0
    2.3818   -1.2285    1.0647 H   0  0  0  0  0  0  0  0  0  0  0  0
    3.9916   -1.9511    1.1857 H   0  0  0  0  0  0  0  0  0  0  0  0
    2.4018   -1.5433   -1.4128 H   0  0  0  0  0  0  0  0  0  0  0  0
    2.7061   -3.0868   -0.5955 H   0  0  0  0  0  0  0  0  0  0  0  0
    4.2778   -2.7410   -2.5270 H   0  0  0  0  0  0  0  0  0  0  0  0
    5.1583   -2.8577   -0.9957 H   0  0  0  0  0  0  0  0  0  0  0  0
    4.4578   -0.2660   -2.4698 H   0  0  0  0  0  0  0  0  0  0  0  0
    5.7525   -0.2207   -4.2294 H   0  0  0  0  0  0  0  0  0  0  0  0
    8.6145   -0.7463   -3.8557 H   0  0  0  0  0  0  0  0  0  0  0  0
    7.7742   -2.9308   -4.5639 H   0  0  0  0  0  0  0  0  0  0  0  0
    8.8357   -2.2135   -5.7826 H   0  0  0  0  0  0  0  0  0  0  0  0
    5.7581   -2.3154   -5.8989 H   0  0  0  0  0  0  0  0  0  0  0  0
    6.8744   -3.2862   -6.8670 H   0  0  0  0  0  0  0  0  0  0  0  0
    5.9574   -1.3453   -8.1785 H   0  0  0  0  0  0  0  0  0  0  0  0
    7.7235   -1.2419   -8.0200 H   0  0  0  0  0  0  0  0  0  0  0  0
    7.8770    1.3661   -4.9919 H   0  0  0  0  0  0  0  0  0  0  0  0
    8.8813    0.3566   -6.0619 H   0  0  0  0  0  0  0  0  0  0  0  0
    5.7214    0.9050   -0.6948 H   0  0  0  0  0  0  0  0  0  0  0  0
    6.0562   -0.6362    0.1028 H   0  0  0  0  0  0  0  0  0  0  0  0
  1  2  2  0
  2  3  1  0
  2 10  1  0
  3  4  1  0
  3 25  1  0
  4  5  1  0
  4  9  1  0
  4 26  1  6
  5  6  1  0
  5 27  1  0
  5 28  1  0
  6  7  1  0
  6 29  1  0
  6 30  1  0
  7  8  1  0
  7 31  1  0
  7 32  1  0
  8  9  1  0
  9 33  1  0
  9 34  1  0
 10 11  1  0
 10 24  1  0
 10 35  1  1
 11 12  1  0
 11 36  1  0
 11 37  1  0
 12 13  1  0
 12 38  1  0
 12 39  1  0
 13 14  1  0
 13 40  1  0
 13 41  1  0
 14 15  1  0
 14 24  1  0
 14 42  1  6
 15 16  2  0
 15 17  1  0
 17 18  1  0
 17 43  1  0
 18 19  1  0
 18 23  1  0
 18 44  1  1
 19 20  1  0
 19 45  1  0
 19 46  1  0
 20 21  1  0
 20 47  1  0
 20 48  1  0
 21 22  1  0
 21 49  1  0
 21 50  1  0
 22 23  1  0
 23 51  1  0
 23 52  1  0
 24 53  1  0
 24 54  1  0
M  END

