
     RDKit          3D

 56 58  0  0  0  0  0  0  0  0999 V2000
    6.0433   -2.1535    4.1441 C   0  0  0  0  0  0  0  0  0  0  0  0
    4.8940   -2.5679    4.8438 O   0  0  0  0  0  0  0  0  0  0  0  0
    3.9167   -3.2433    4.1829 C   0  0  0  0  0  0  0  0  0  0  0  0
    2.8038   -3.6273    4.9506 C   0  0  0  0  0  0  0  0  0  0  0  0
    1.7565   -4.3163    4.3463 C   0  0  0  0  0  0  0  0  0  0  0  0
    1.7978   -4.6374    2.9837 C   0  0  0  0  0  0  0  0  0  0  0  0
    2.9035   -4.2621    2.2128 C   0  0  0  0  0  0  0  0  0  0  0  0
    3.0143   -4.6534    0.7448 C   0  0  0  0  0  0  0  0  0  0  0  0
    1.7279   -4.7014    0.0605 N   0  0  0  0  0  0  0  0  0  0  0  0
    1.1283   -3.3806   -0.1606 C   0  0  0  0  0  0  0  0  0  0  0  0
    1.7456   -2.6401   -1.3614 C   0  0  0  0  0  0  0  0  0  0  0  0
    1.7206   -3.4332   -2.5918 N   0  0  0  0  0  0  0  0  0  0  0  0
    0.4753   -3.3710   -3.3468 C   0  0  0  0  0  0  0  0  0  0  0  0
    0.3864   -2.1094   -4.2317 C   0  0  0  0  0  0  0  0  0  0  0  0
   -0.8869   -2.0530   -5.0447 C   0  0  0  0  0  0  0  0  0  0  0  0
   -2.0590   -1.4872   -4.5160 C   0  0  0  0  0  0  0  0  0  0  0  0
   -3.2483   -1.4733   -5.2502 C   0  0  0  0  0  0  0  0  0  0  0  0
   -3.2878   -2.0278   -6.5331 C   0  0  0  0  0  0  0  0  0  0  0  0
   -2.1295   -2.5940   -7.0737 C   0  0  0  0  0  0  0  0  0  0  0  0
   -0.9433   -2.6063   -6.3346 C   0  0  0  0  0  0  0  0  0  0  0  0
    2.2784   -4.7650   -2.3718 C   0  0  0  0  0  0  0  0  0  0  0  0
    1.6402   -5.5057   -1.1745 C   0  0  1  0  0  0  0  0  0  0  0  0
    0.5558   -5.5794   -1.3882 H   0  0  0  0  0  0  0  0  0  0  0  0
    2.1556   -6.9403   -1.0324 C   0  0  0  0  0  0  0  0  0  0  0  0
    1.5056   -7.7478    0.0924 C   0  0  0  0  0  0  0  0  0  0  0  0
    1.9881   -9.0747    0.1542 O   0  0  0  0  0  0  0  0  0  0  0  0
    3.9594   -3.5584    2.8167 C   0  0  0  0  0  0  0  0  0  0  0  0
    6.6863   -1.6404    4.8721 H   0  0  0  0  0  0  0  0  0  0  0  0
    5.7995   -1.4501    3.3268 H   0  0  0  0  0  0  0  0  0  0  0  0
    6.5994   -3.0088    3.7183 H   0  0  0  0  0  0  0  0  0  0  0  0
    2.7876   -3.3678    6.0110 H   0  0  0  0  0  0  0  0  0  0  0  0
    0.8909   -4.6099    4.9465 H   0  0  0  0  0  0  0  0  0  0  0  0
    0.9725   -5.1678    2.5060 H   0  0  0  0  0  0  0  0  0  0  0  0
    3.4649   -5.6577    0.7024 H   0  0  0  0  0  0  0  0  0  0  0  0
    3.7562   -3.9820    0.2617 H   0  0  0  0  0  0  0  0  0  0  0  0
    1.2285   -2.7804    0.7574 H   0  0  0  0  0  0  0  0  0  0  0  0
    0.0456   -3.5210   -0.3307 H   0  0  0  0  0  0  0  0  0  0  0  0
    2.7954   -2.3779   -1.1354 H   0  0  0  0  0  0  0  0  0  0  0  0
    1.2230   -1.6847   -1.5282 H   0  0  0  0  0  0  0  0  0  0  0  0
   -0.4340   -3.4215   -2.7093 H   0  0  0  0  0  0  0  0  0  0  0  0
    0.4251   -4.2539   -4.0043 H   0  0  0  0  0  0  0  0  0  0  0  0
    1.2684   -2.0964   -4.8913 H   0  0  0  0  0  0  0  0  0  0  0  0
    0.4564   -1.2128   -3.5937 H   0  0  0  0  0  0  0  0  0  0  0  0
   -2.0369   -1.0437   -3.5158 H   0  0  0  0  0  0  0  0  0  0  0  0
   -4.1471   -1.0232   -4.8202 H   0  0  0  0  0  0  0  0  0  0  0  0
   -4.2158   -2.0145   -7.1104 H   0  0  0  0  0  0  0  0  0  0  0  0
   -2.1481   -3.0250   -8.0784 H   0  0  0  0  0  0  0  0  0  0  0  0
   -0.0402   -3.0464   -6.7684 H   0  0  0  0  0  0  0  0  0  0  0  0
    3.3666   -4.6671   -2.1936 H   0  0  0  0  0  0  0  0  0  0  0  0
    2.1644   -5.3572   -3.2946 H   0  0  0  0  0  0  0  0  0  0  0  0
    1.9564   -7.4541   -1.9915 H   0  0  0  0  0  0  0  0  0  0  0  0
    3.2512   -6.9695   -0.9045 H   0  0  0  0  0  0  0  0  0  0  0  0
    0.4017   -7.7149   -0.0200 H   0  0  0  0  0  0  0  0  0  0  0  0
    1.7301   -7.2951    1.0694 H   0  0  0  0  0  0  0  0  0  0  0  0
    1.7604   -9.5168   -0.6742 H   0  0  0  0  0  0  0  0  0  0  0  0
    4.8125   -3.2614    2.2044 H   0  0  0  0  0  0  0  0  0  0  0  0
  1  2  1  0
  1 28  1  0
  1 29  1  0
  1 30  1  0
  2  3  1  0
  3  4  2  0
  3 27  1  0
  4  5  1  0
  4 31  1  0
  5  6  2  0
  5 32  1  0
  6  7  1  0
  6 33  1  0
  7  8  1  0
  7 27  2  0
  8  9  1  0
  8 34  1  0
  8 35  1  0
  9 10  1  0
  9 22  1  0
 10 11  1  0
 10 36  1  0
 10 37  1  0
 11 12  1  0
 11 38  1  0
 11 39  1  0
 12 13  1  0
 12 21  1  0
 13 14  1  0
 13 40  1  0
 13 41  1  0
 14 15  1  0
 14 42  1  0
 14 43  1  0
 15 16  2  0
 15 20  1  0
 16 17  1  0
 16 44  1  0
 17 18  2  0
 17 45  1  0
 18 19  1  0
 18 46  1  0
 19 20  2  0
 19 47  1  0
 20 48  1  0
 21 22  1  0
 21 49  1  0
 21 50  1  0
 22 23  1  6
 22 24  1  0
 24 25  1  0
 24 51  1  0
 24 52  1  0
 25 26  1  0
 25 53  1  0
 25 54  1  0
 26 55  1  0
 27 56  1  0
M  END

