
     RDKit          3D

 59 62  0  0  0  0  0  0  0  0999 V2000
    1.2113    1.3710    1.3839 C   0  0  0  0  0  0  0  0  0  0  0  0
    2.6146    1.2637    1.1607 O   0  0  0  0  0  0  0  0  0  0  0  0
    3.0331    1.3181   -0.1214 C   0  0  0  0  0  0  0  0  0  0  0  0
    2.2524    1.4975   -1.0368 O   0  0  0  0  0  0  0  0  0  0  0  0
    4.5044    1.1295   -0.2060 C   0  0  0  0  0  0  0  0  0  0  0  0
    5.1648    1.1886   -1.3995 C   0  0  0  0  0  0  0  0  0  0  0  0
    4.5774    1.4080   -2.7663 C   0  0  0  0  0  0  0  0  0  0  0  0
    6.5525    1.0682   -1.4179 N   0  0  0  0  0  0  0  0  0  0  0  0
    7.3336    1.1133   -0.2833 C   0  0  0  0  0  0  0  0  0  0  0  0
    6.7458    1.0469    0.9448 C   0  0  0  0  0  0  0  0  0  0  0  0
    7.5456    1.1895    2.1717 C   0  0  0  0  0  0  0  0  0  0  0  0
    7.0273    1.2255    3.2782 O   0  0  0  0  0  0  0  0  0  0  0  0
    9.0629    1.2585    2.0162 C   0  0  0  0  0  0  0  0  0  0  0  0
    9.5008    1.9099    0.7041 C   0  0  0  0  0  0  0  0  0  0  0  0
    8.8217    1.2373   -0.4918 C   0  0  0  0  0  0  0  0  0  0  0  0
    5.2501    0.8129    1.0921 C   0  0  2  0  0  0  0  0  0  0  0  0
    4.8901    1.4875    1.8803 H   0  0  0  0  0  0  0  0  0  0  0  0
    4.9560   -0.6095    1.5858 C   0  0  0  0  0  0  0  0  0  0  0  0
    5.0665   -1.7203    0.7440 C   0  0  0  0  0  0  0  0  0  0  0  0
    4.7878   -3.0145    1.1983 C   0  0  0  0  0  0  0  0  0  0  0  0
    4.3792   -3.2178    2.5232 C   0  0  0  0  0  0  0  0  0  0  0  0
    4.0754   -4.4346    3.0485 O   0  0  0  0  0  0  0  0  0  0  0  0
    4.1405   -5.5806    2.2324 C   0  0  0  0  0  0  0  0  0  0  0  0
    4.2739   -2.1119    3.3971 C   0  0  0  0  0  0  0  0  0  0  0  0
    3.7993   -2.2976    4.8114 C   0  0  0  0  0  0  0  0  0  0  0  0
    2.3762   -2.1390    4.8382 O   0  0  0  0  0  0  0  0  0  0  0  0
    1.7126   -2.2573    6.0037 C   0  0  0  0  0  0  0  0  0  0  0  0
    2.3136   -2.5696    7.2361 C   0  0  0  0  0  0  0  0  0  0  0  0
    1.5443   -2.6722    8.3995 C   0  0  0  0  0  0  0  0  0  0  0  0
    0.1656   -2.4663    8.3616 C   0  0  0  0  0  0  0  0  0  0  0  0
   -0.4477   -2.1530    7.1432 C   0  0  0  0  0  0  0  0  0  0  0  0
    0.3141   -2.0493    5.9816 C   0  0  0  0  0  0  0  0  0  0  0  0
   -0.5401   -1.6189    4.3334 Br  0  0  0  0  0  0  0  0  0  0  0  0
    4.5641   -0.8366    2.9126 C   0  0  0  0  0  0  0  0  0  0  0  0
    1.0519    1.1459    2.4456 H   0  0  0  0  0  0  0  0  0  0  0  0
    0.6606    0.6543    0.7571 H   0  0  0  0  0  0  0  0  0  0  0  0
    0.8539    2.3854    1.1466 H   0  0  0  0  0  0  0  0  0  0  0  0
    3.4852    1.4024   -2.7326 H   0  0  0  0  0  0  0  0  0  0  0  0
    4.9309    0.6209   -3.4551 H   0  0  0  0  0  0  0  0  0  0  0  0
    4.9152    2.3776   -3.1731 H   0  0  0  0  0  0  0  0  0  0  0  0
    7.0125    1.1661   -2.3146 H   0  0  0  0  0  0  0  0  0  0  0  0
    9.4372    0.2180    2.0653 H   0  0  0  0  0  0  0  0  0  0  0  0
    9.4664    1.7795    2.8969 H   0  0  0  0  0  0  0  0  0  0  0  0
   10.5957    1.8637    0.5911 H   0  0  0  0  0  0  0  0  0  0  0  0
    9.2267    2.9788    0.7173 H   0  0  0  0  0  0  0  0  0  0  0  0
    9.2436    0.2256   -0.6466 H   0  0  0  0  0  0  0  0  0  0  0  0
    9.0233    1.8002   -1.4200 H   0  0  0  0  0  0  0  0  0  0  0  0
    5.3674   -1.5850   -0.2984 H   0  0  0  0  0  0  0  0  0  0  0  0
    4.8805   -3.8533    0.5083 H   0  0  0  0  0  0  0  0  0  0  0  0
    3.8436   -6.4307    2.8614 H   0  0  0  0  0  0  0  0  0  0  0  0
    5.1626   -5.7581    1.8508 H   0  0  0  0  0  0  0  0  0  0  0  0
    3.4484   -5.5128    1.3738 H   0  0  0  0  0  0  0  0  0  0  0  0
    4.2619   -1.5402    5.4682 H   0  0  0  0  0  0  0  0  0  0  0  0
    4.0665   -3.2995    5.1827 H   0  0  0  0  0  0  0  0  0  0  0  0
    3.3893   -2.7356    7.2898 H   0  0  0  0  0  0  0  0  0  0  0  0
    2.0379   -2.9164    9.3436 H   0  0  0  0  0  0  0  0  0  0  0  0
   -0.4364   -2.5457    9.2694 H   0  0  0  0  0  0  0  0  0  0  0  0
   -1.5250   -1.9857    7.0889 H   0  0  0  0  0  0  0  0  0  0  0  0
    4.4884    0.0154    3.5919 H   0  0  0  0  0  0  0  0  0  0  0  0
  1  2  1  0
  1 35  1  0
  1 36  1  0
  1 37  1  0
  2  3  1  0
  3  4  2  0
  3  5  1  0
  5  6  2  0
  5 16  1  0
  6  7  1  0
  6  8  1  0
  7 38  1  0
  7 39  1  0
  7 40  1  0
  8  9  1  0
  8 41  1  0
  9 10  2  0
  9 15  1  0
 10 11  1  0
 10 16  1  0
 11 12  2  0
 11 13  1  0
 13 14  1  0
 13 42  1  0
 13 43  1  0
 14 15  1  0
 14 44  1  0
 14 45  1  0
 15 46  1  0
 15 47  1  0
 16 17  1  1
 16 18  1  0
 18 19  2  0
 18 34  1  0
 19 20  1  0
 19 48  1  0
 20 21  2  0
 20 49  1  0
 21 22  1  0
 21 24  1  0
 22 23  1  0
 23 50  1  0
 23 51  1  0
 23 52  1  0
 24 25  1  0
 24 34  2  0
 25 26  1  0
 25 53  1  0
 25 54  1  0
 26 27  1  0
 27 28  2  0
 27 32  1  0
 28 29  1  0
 28 55  1  0
 29 30  2  0
 29 56  1  0
 30 31  1  0
 30 57  1  0
 31 32  2  0
 31 58  1  0
 32 33  1  0
 34 59  1  0
M  END

