
     RDKit          3D

 34 33  0  0  0  0  0  0  0  0999 V2000
    2.0349    1.8961   -1.1095 C   0  0  0  0  0  0  0  0  0  0  0  0
    2.1419    0.4607   -0.5904 C   0  0  0  0  0  0  0  0  0  0  0  0
    2.9812   -0.4567   -1.4821 C   0  0  0  0  0  0  0  0  0  0  0  0
    4.4808   -0.1765   -1.4497 C   0  0  0  0  0  0  0  0  0  0  0  0
    4.9854    0.5131   -0.5897 O   0  0  0  0  0  0  0  0  0  0  0  0
    5.3134   -0.8236   -2.5500 C   0  0  0  0  0  0  0  0  0  0  0  0
    6.8222   -0.7561   -2.3131 C   0  0  0  0  0  0  0  0  0  0  0  0
    7.6722   -1.3915   -3.4201 C   0  0  0  0  0  0  0  0  0  0  0  0
    7.6322   -0.6418   -4.7514 C   0  0  0  0  0  0  0  0  0  0  0  0
    8.5332   -1.2445   -5.8109 C   0  0  0  0  0  0  0  0  0  0  0  0
    9.2857   -2.1734   -5.6431 O   0  0  0  0  0  0  0  0  0  0  0  0
    8.3881   -0.6006   -6.9869 O   0  0  0  0  0  0  0  0  0  0  0  0
    9.1939   -1.0443   -8.0939 C   0  0  0  0  0  0  0  0  0  0  0  0
   10.5619   -0.3822   -8.0954 C   0  0  0  0  0  0  0  0  0  0  0  0
    1.4144    2.5146   -0.4415 H   0  0  0  0  0  0  0  0  0  0  0  0
    1.5755    1.9288   -2.1123 H   0  0  0  0  0  0  0  0  0  0  0  0
    3.0265    2.3703   -1.1729 H   0  0  0  0  0  0  0  0  0  0  0  0
    1.1327    0.0268   -0.4888 H   0  0  0  0  0  0  0  0  0  0  0  0
    2.5873    0.4672    0.4176 H   0  0  0  0  0  0  0  0  0  0  0  0
    2.6329   -0.4335   -2.5310 H   0  0  0  0  0  0  0  0  0  0  0  0
    2.8662   -1.5118   -1.1671 H   0  0  0  0  0  0  0  0  0  0  0  0
    5.0291   -0.3137   -3.4905 H   0  0  0  0  0  0  0  0  0  0  0  0
    4.9741   -1.8676   -2.6829 H   0  0  0  0  0  0  0  0  0  0  0  0
    7.0471   -1.2546   -1.3559 H   0  0  0  0  0  0  0  0  0  0  0  0
    7.1124    0.2976   -2.1657 H   0  0  0  0  0  0  0  0  0  0  0  0
    7.3620   -2.4380   -3.5844 H   0  0  0  0  0  0  0  0  0  0  0  0
    8.7202   -1.4484   -3.0855 H   0  0  0  0  0  0  0  0  0  0  0  0
    7.9399    0.4117   -4.6223 H   0  0  0  0  0  0  0  0  0  0  0  0
    6.6161   -0.5926   -5.1780 H   0  0  0  0  0  0  0  0  0  0  0  0
    8.6167   -0.7684   -8.9886 H   0  0  0  0  0  0  0  0  0  0  0  0
    9.2884   -2.1396   -8.0509 H   0  0  0  0  0  0  0  0  0  0  0  0
   10.4686    0.7151   -8.0955 H   0  0  0  0  0  0  0  0  0  0  0  0
   11.1226   -0.6800   -8.9960 H   0  0  0  0  0  0  0  0  0  0  0  0
   11.1447   -0.6888   -7.2141 H   0  0  0  0  0  0  0  0  0  0  0  0
  1  2  1  0
  1 15  1  0
  1 16  1  0
  1 17  1  0
  2  3  1  0
  2 18  1  0
  2 19  1  0
  3  4  1  0
  3 20  1  0
  3 21  1  0
  4  5  2  0
  4  6  1  0
  6  7  1  0
  6 22  1  0
  6 23  1  0
  7  8  1  0
  7 24  1  0
  7 25  1  0
  8  9  1  0
  8 26  1  0
  8 27  1  0
  9 10  1  0
  9 28  1  0
  9 29  1  0
 10 11  2  0
 10 12  1  0
 12 13  1  0
 13 14  1  0
 13 30  1  0
 13 31  1  0
 14 32  1  0
 14 33  1  0
 14 34  1  0
M  END

