
     RDKit          3D

 69 71  0  0  0  0  0  0  0  0999 V2000
    1.1271    0.0292    5.0108 C   0  0  0  0  0  0  0  0  0  0  0  0
    2.4389    0.5251    4.4007 C   0  0  0  0  0  0  0  0  0  0  0  0
    3.4996   -0.5712    4.2542 C   0  0  0  0  0  0  0  0  0  0  0  0
    4.8095   -0.0728    3.6352 C   0  0  0  0  0  0  0  0  0  0  0  0
    5.9473   -1.1110    3.5806 C   0  0  1  0  0  0  0  0  0  0  0  0
    5.6174   -2.3824    2.7701 C   0  0  0  0  0  0  0  0  0  0  0  0
    5.2655   -2.1708    1.2948 C   0  0  0  0  0  0  0  0  0  0  0  0
    7.2340   -0.4291    3.1021 C   0  0  0  0  0  0  0  0  0  0  0  0
    8.3245   -1.3434    3.1448 O   0  0  0  0  0  0  0  0  0  0  0  0
    9.7910   -0.9361    2.3764 P   0  0  0  0  0  0  0  0  0  0  0  0
   10.8069   -0.5029    3.6743 N   0  0  0  0  0  0  0  0  0  0  0  0
   11.2733    0.8453    3.9216 C   0  0  0  0  0  0  0  0  0  0  0  0
   11.4666   -1.6014    4.3708 C   0  0  1  0  0  0  0  0  0  0  0  0
   12.5615   -1.4987    4.2414 H   0  0  0  0  0  0  0  0  0  0  0  0
   11.1742   -1.6301    5.8669 C   0  0  0  0  0  0  0  0  0  0  0  0
   12.1975   -1.7953    6.8086 C   0  0  0  0  0  0  0  0  0  0  0  0
   11.9080   -1.8426    8.1770 C   0  0  0  0  0  0  0  0  0  0  0  0
   10.5916   -1.7186    8.6215 C   0  0  0  0  0  0  0  0  0  0  0  0
    9.5635   -1.5473    7.6843 C   0  0  0  0  0  0  0  0  0  0  0  0
    8.1399   -1.3520    8.1444 C   0  0  1  0  0  0  0  0  0  0  0  0
    7.9175   -1.9097    9.3476 F   0  0  0  0  0  0  0  0  0  0  0  0
    7.8285   -0.0452    8.2546 F   0  0  0  0  0  0  0  0  0  0  0  0
    7.2549   -1.8892    7.2823 F   0  0  0  0  0  0  0  0  0  0  0  0
    9.8524   -1.5052    6.3185 C   0  0  0  0  0  0  0  0  0  0  0  0
   11.0015   -2.9172    3.6532 C   0  0  2  0  0  0  0  0  0  0  0  0
   10.1842   -3.3658    4.2514 H   0  0  0  0  0  0  0  0  0  0  0  0
   12.1232   -3.9414    3.5643 C   0  0  0  0  0  0  0  0  0  0  0  0
   12.1999   -4.9993    4.4802 C   0  0  0  0  0  0  0  0  0  0  0  0
   13.2590   -5.9114    4.4319 C   0  0  0  0  0  0  0  0  0  0  0  0
   14.2514   -5.7845    3.4597 C   0  0  0  0  0  0  0  0  0  0  0  0
   14.1757   -4.7361    2.5336 C   0  0  0  0  0  0  0  0  0  0  0  0
   15.2043   -4.6218    1.4353 C   0  0  1  0  0  0  0  0  0  0  0  0
   16.3850   -5.1560    1.7954 F   0  0  0  0  0  0  0  0  0  0  0  0
   14.8090   -5.2634    0.3179 F   0  0  0  0  0  0  0  0  0  0  0  0
   15.4287   -3.3414    1.0899 F   0  0  0  0  0  0  0  0  0  0  0  0
   13.1220   -3.8195    2.5885 C   0  0  0  0  0  0  0  0  0  0  0  0
   10.4971   -2.5058    2.3399 N   0  0  0  0  0  0  0  0  0  0  0  0
    9.8479   -3.5403    1.5484 C   0  0  0  0  0  0  0  0  0  0  0  0
    0.3893    0.8424    5.1025 H   0  0  0  0  0  0  0  0  0  0  0  0
    1.2871   -0.3898    6.0184 H   0  0  0  0  0  0  0  0  0  0  0  0
    0.6723   -0.7642    4.3940 H   0  0  0  0  0  0  0  0  0  0  0  0
    2.8470    1.3447    5.0200 H   0  0  0  0  0  0  0  0  0  0  0  0
    2.2391    0.9714    3.4092 H   0  0  0  0  0  0  0  0  0  0  0  0
    3.0812   -1.3923    3.6455 H   0  0  0  0  0  0  0  0  0  0  0  0
    3.7099   -1.0099    5.2474 H   0  0  0  0  0  0  0  0  0  0  0  0
    5.1623    0.7971    4.2190 H   0  0  0  0  0  0  0  0  0  0  0  0
    4.6071    0.3172    2.6206 H   0  0  0  0  0  0  0  0  0  0  0  0
    6.1414   -1.4403    4.6181 H   0  0  0  0  0  0  0  0  0  0  0  0
    4.7882   -2.9124    3.2683 H   0  0  0  0  0  0  0  0  0  0  0  0
    6.4874   -3.0544    2.8416 H   0  0  0  0  0  0  0  0  0  0  0  0
    4.3676   -1.5453    1.1637 H   0  0  0  0  0  0  0  0  0  0  0  0
    5.0630   -3.1354    0.8021 H   0  0  0  0  0  0  0  0  0  0  0  0
    6.0870   -1.6904    0.7385 H   0  0  0  0  0  0  0  0  0  0  0  0
    7.4415    0.4391    3.7570 H   0  0  0  0  0  0  0  0  0  0  0  0
    7.1072   -0.0322    2.0758 H   0  0  0  0  0  0  0  0  0  0  0  0
   10.7761    1.5435    3.2316 H   0  0  0  0  0  0  0  0  0  0  0  0
   12.3664    0.9365    3.7638 H   0  0  0  0  0  0  0  0  0  0  0  0
   11.0554    1.1774    4.9528 H   0  0  0  0  0  0  0  0  0  0  0  0
   13.2329   -1.8890    6.4690 H   0  0  0  0  0  0  0  0  0  0  0  0
   12.7158   -1.9752    8.9008 H   0  0  0  0  0  0  0  0  0  0  0  0
   10.3589   -1.7561    9.6870 H   0  0  0  0  0  0  0  0  0  0  0  0
    9.0515   -1.3815    5.5859 H   0  0  0  0  0  0  0  0  0  0  0  0
   11.4217   -5.1099    5.2402 H   0  0  0  0  0  0  0  0  0  0  0  0
   13.3080   -6.7282    5.1559 H   0  0  0  0  0  0  0  0  0  0  0  0
   15.0813   -6.4920    3.4165 H   0  0  0  0  0  0  0  0  0  0  0  0
   13.0621   -3.0028    1.8663 H   0  0  0  0  0  0  0  0  0  0  0  0
    8.9757   -3.9916    2.0608 H   0  0  0  0  0  0  0  0  0  0  0  0
   10.5615   -4.3451    1.3104 H   0  0  0  0  0  0  0  0  0  0  0  0
    9.4995   -3.1112    0.5964 H   0  0  0  0  0  0  0  0  0  0  0  0
  1  2  1  0
  1 39  1  0
  1 40  1  0
  1 41  1  0
  2  3  1  0
  2 42  1  0
  2 43  1  0
  3  4  1  0
  3 44  1  0
  3 45  1  0
  4  5  1  0
  4 46  1  0
  4 47  1  0
  5  6  1  0
  5  8  1  0
  5 48  1  1
  6  7  1  0
  6 49  1  0
  6 50  1  0
  7 51  1  0
  7 52  1  0
  7 53  1  0
  8  9  1  0
  8 54  1  0
  8 55  1  0
  9 10  1  0
 10 11  1  0
 10 37  1  0
 11 12  1  0
 11 13  1  0
 12 56  1  0
 12 57  1  0
 12 58  1  0
 13 14  1  1
 13 15  1  0
 13 25  1  0
 15 16  2  0
 15 24  1  0
 16 17  1  0
 16 59  1  0
 17 18  2  0
 17 60  1  0
 18 19  1  0
 18 61  1  0
 19 20  1  0
 19 24  2  0
 20 21  1  1
 20 22  1  0
 20 23  1  0
 24 62  1  0
 25 26  1  1
 25 27  1  0
 25 37  1  0
 27 28  2  0
 27 36  1  0
 28 29  1  0
 28 63  1  0
 29 30  2  0
 29 64  1  0
 30 31  1  0
 30 65  1  0
 31 32  1  0
 31 36  2  0
 32 33  1  1
 32 34  1  0
 32 35  1  0
 36 66  1  0
 37 38  1  0
 38 67  1  0
 38 68  1  0
 38 69  1  0
M  END

