
     RDKit          3D

 44 46  0  0  0  0  0  0  0  0999 V2000
    2.1388    0.4265    0.8617 C   0  0  0  0  0  0  0  0  0  0  0  0
    3.3817    0.2238    0.3997 C   0  0  0  0  0  0  0  0  0  0  0  0
    3.8430   -0.8404   -0.5103 C   0  0  0  0  0  0  0  0  0  0  0  0
    5.2209   -0.8673   -0.8846 C   0  0  0  0  0  0  0  0  0  0  0  0
    5.7241   -1.8295   -1.7306 C   0  0  0  0  0  0  0  0  0  0  0  0
    4.8797   -2.8410   -2.2656 C   0  0  0  0  0  0  0  0  0  0  0  0
    5.3624   -3.8536   -3.1364 C   0  0  0  0  0  0  0  0  0  0  0  0
    4.5002   -4.8093   -3.6229 C   0  0  0  0  0  0  0  0  0  0  0  0
    5.0205   -5.7319   -4.5269 O   0  0  0  0  0  0  0  0  0  0  0  0
    4.5675   -6.9957   -4.6002 C   0  0  0  0  0  0  0  0  0  0  0  0
    4.3467   -7.5421   -5.8740 C   0  0  0  0  0  0  0  0  0  0  0  0
    4.5331   -6.7878   -6.9477 F   0  0  0  0  0  0  0  0  0  0  0  0
    3.9609   -8.8759   -6.0416 C   0  0  0  0  0  0  0  0  0  0  0  0
    3.8091   -9.3082   -7.2776 F   0  0  0  0  0  0  0  0  0  0  0  0
    3.7328   -9.6882   -4.9168 C   0  0  0  0  0  0  0  0  0  0  0  0
    3.2984  -11.4232   -4.9855 S   0  0  1  0  0  0  0  0  0  0  0  0
    4.3979  -12.2286   -4.4657 O   0  0  0  0  0  0  0  0  0  0  0  0
    2.0758  -11.4923   -3.9076 O   0  0  0  0  0  0  0  0  0  0  0  0
    2.6739  -11.5970   -6.3876 N   0  0  0  0  0  0  0  0  0  0  0  0
    2.0844  -13.0747   -6.9095 S   0  0  1  0  0  0  0  0  0  0  0  0
    1.9812  -14.0363   -5.8154 O   0  0  0  0  0  0  0  0  0  0  0  0
    0.9883  -12.8154   -7.8234 O   0  0  0  0  0  0  0  0  0  0  0  0
    3.5332  -13.6351   -7.9709 C   0  0  1  0  0  0  0  0  0  0  0  0
    3.7061  -12.8027   -8.9879 F   0  0  0  0  0  0  0  0  0  0  0  0
    4.6404  -13.6731   -7.2376 F   0  0  0  0  0  0  0  0  0  0  0  0
    3.2649  -14.8501   -8.4319 F   0  0  0  0  0  0  0  0  0  0  0  0
    3.9718   -9.1452   -3.6422 C   0  0  0  0  0  0  0  0  0  0  0  0
    3.8218   -9.8932   -2.5508 F   0  0  0  0  0  0  0  0  0  0  0  0
    4.3724   -7.8233   -3.4797 C   0  0  0  0  0  0  0  0  0  0  0  0
    4.5961   -7.3548   -2.2566 F   0  0  0  0  0  0  0  0  0  0  0  0
    3.1240   -4.8095   -3.2858 C   0  0  0  0  0  0  0  0  0  0  0  0
    2.6391   -3.8388   -2.4376 C   0  0  0  0  0  0  0  0  0  0  0  0
    3.4905   -2.8307   -1.9003 C   0  0  0  0  0  0  0  0  0  0  0  0
    3.0080   -1.8238   -1.0272 C   0  0  0  0  0  0  0  0  0  0  0  0
    1.9219    1.2577    1.5367 H   0  0  0  0  0  0  0  0  0  0  0  0
    1.2954   -0.2157    0.5927 H   0  0  0  0  0  0  0  0  0  0  0  0
    4.1671    0.9177    0.7210 H   0  0  0  0  0  0  0  0  0  0  0  0
    5.8875   -0.0984   -0.4844 H   0  0  0  0  0  0  0  0  0  0  0  0
    6.7833   -1.8258   -2.0006 H   0  0  0  0  0  0  0  0  0  0  0  0
    6.4146   -3.8812   -3.4259 H   0  0  0  0  0  0  0  0  0  0  0  0
    2.4081  -11.9299   -3.1021 H   0  0  0  0  0  0  0  0  0  0  0  0
    2.4558   -5.5642   -3.7054 H   0  0  0  0  0  0  0  0  0  0  0  0
    1.5783   -3.8307   -2.1741 H   0  0  0  0  0  0  0  0  0  0  0  0
    1.9475   -1.8376   -0.7649 H   0  0  0  0  0  0  0  0  0  0  0  0
  1  2  2  0
  1 35  1  0
  1 36  1  0
  2  3  1  0
  2 37  1  0
  3  4  2  0
  3 34  1  0
  4  5  1  0
  4 38  1  0
  5  6  2  0
  5 39  1  0
  6  7  1  0
  6 33  1  0
  7  8  2  0
  7 40  1  0
  8  9  1  0
  8 31  1  0
  9 10  1  0
 10 11  2  0
 10 29  1  0
 11 12  1  0
 11 13  1  0
 13 14  1  0
 13 15  2  0
 15 16  1  0
 15 27  1  0
 16 17  2  0
 16 18  1  1
 16 19  2  0
 18 41  1  0
 20 19  1  1
 20 21  2  0
 20 22  2  0
 20 23  1  0
 23 24  1  6
 23 25  1  0
 23 26  1  0
 27 28  1  0
 27 29  2  0
 29 30  1  0
 31 32  2  0
 31 42  1  0
 32 33  1  0
 32 43  1  0
 33 34  2  0
 34 44  1  0
M  END

