
     RDKit          3D

 59 63  0  0  0  0  0  0  0  0999 V2000
    1.9468   -1.1521   -0.6286 O   0  0  0  0  0  0  0  0  0  0  0  0
    2.5690   -0.2198   -0.1466 C   0  0  0  0  0  0  0  0  0  0  0  0
    2.7540   -0.1882    1.3757 C   0  0  0  0  0  0  0  0  0  0  0  0
    3.2675    1.0541    1.8792 O   0  0  0  0  0  0  0  0  0  0  0  0
    4.5703    1.1385    2.1748 C   0  0  0  0  0  0  0  0  0  0  0  0
    5.3684    0.2412    2.1212 O   0  0  0  0  0  0  0  0  0  0  0  0
    4.9238    2.5600    2.6176 C   0  0  0  0  0  0  0  0  0  0  0  0
    6.2021    2.9663    2.0473 N   0  0  0  0  0  0  0  0  0  0  0  0
    7.3181    3.1209    2.8361 C   0  0  0  0  0  0  0  0  0  0  0  0
    8.4969    3.4484    2.4106 N   0  0  0  0  0  0  0  0  0  0  0  0
    8.5943    3.6266    1.0621 C   0  0  0  0  0  0  0  0  0  0  0  0
    7.5250    3.4751    0.1894 C   0  0  0  0  0  0  0  0  0  0  0  0
    7.8757    3.6876   -1.1053 O   0  0  0  0  0  0  0  0  0  0  0  0
    9.2108    3.9923   -1.0846 C   0  0  0  0  0  0  0  0  0  0  0  0
    9.9932    4.2870   -2.1991 C   0  0  0  0  0  0  0  0  0  0  0  0
   11.3378    4.5693   -1.9563 C   0  0  0  0  0  0  0  0  0  0  0  0
   11.8756    4.5567   -0.6508 C   0  0  0  0  0  0  0  0  0  0  0  0
   11.0807    4.2603    0.4530 C   0  0  0  0  0  0  0  0  0  0  0  0
    9.7242    3.9741    0.2310 C   0  0  0  0  0  0  0  0  0  0  0  0
    6.2166    3.1043    0.6347 C   0  0  0  0  0  0  0  0  0  0  0  0
    5.2012    2.9028   -0.0263 O   0  0  0  0  0  0  0  0  0  0  0  0
    3.1180    0.7962   -0.8528 N   0  0  0  0  0  0  0  0  0  0  0  0
    3.0280    0.8429   -2.3098 C   0  0  1  0  0  0  0  0  0  0  0  0
    2.8808    2.3062   -2.7935 C   0  0  0  0  0  0  0  0  0  0  0  0
    1.6595    3.0178   -2.2530 C   0  0  0  0  0  0  0  0  0  0  0  0
    1.7652    3.9277   -1.1891 C   0  0  0  0  0  0  0  0  0  0  0  0
    0.6332    4.5718   -0.6797 C   0  0  0  0  0  0  0  0  0  0  0  0
   -0.6274    4.3150   -1.2256 C   0  0  0  0  0  0  0  0  0  0  0  0
   -0.7470    3.4112   -2.2863 C   0  0  0  0  0  0  0  0  0  0  0  0
    0.3866    2.7715   -2.7935 C   0  0  0  0  0  0  0  0  0  0  0  0
    4.2002    0.1393   -2.9887 C   0  0  0  0  0  0  0  0  0  0  0  0
    3.9702   -0.9481   -3.8423 C   0  0  0  0  0  0  0  0  0  0  0  0
    5.0327   -1.5928   -4.4842 C   0  0  0  0  0  0  0  0  0  0  0  0
    6.3438   -1.1578   -4.2762 C   0  0  0  0  0  0  0  0  0  0  0  0
    6.5848   -0.0769   -3.4209 C   0  0  0  0  0  0  0  0  0  0  0  0
    5.5224    0.5666   -2.7818 C   0  0  0  0  0  0  0  0  0  0  0  0
    3.4192   -1.0156    1.6616 H   0  0  0  0  0  0  0  0  0  0  0  0
    1.7669   -0.3354    1.8328 H   0  0  0  0  0  0  0  0  0  0  0  0
    5.0056    2.5774    3.7138 H   0  0  0  0  0  0  0  0  0  0  0  0
    4.1320    3.2524    2.3057 H   0  0  0  0  0  0  0  0  0  0  0  0
    7.1547    2.9511    3.9057 H   0  0  0  0  0  0  0  0  0  0  0  0
    9.5674    4.2932   -3.2035 H   0  0  0  0  0  0  0  0  0  0  0  0
   11.9915    4.8058   -2.7994 H   0  0  0  0  0  0  0  0  0  0  0  0
   12.9348    4.7834   -0.5098 H   0  0  0  0  0  0  0  0  0  0  0  0
   11.4894    4.2475    1.4652 H   0  0  0  0  0  0  0  0  0  0  0  0
    3.6486    1.5248   -0.3800 H   0  0  0  0  0  0  0  0  0  0  0  0
    2.1143    0.2881   -2.5681 H   0  0  0  0  0  0  0  0  0  0  0  0
    2.8453    2.2821   -3.8943 H   0  0  0  0  0  0  0  0  0  0  0  0
    3.7894    2.8649   -2.5186 H   0  0  0  0  0  0  0  0  0  0  0  0
    2.7498    4.1330   -0.7597 H   0  0  0  0  0  0  0  0  0  0  0  0
    0.7372    5.2806    0.1465 H   0  0  0  0  0  0  0  0  0  0  0  0
   -1.5129    4.8191   -0.8297 H   0  0  0  0  0  0  0  0  0  0  0  0
   -1.7279    3.2065   -2.7236 H   0  0  0  0  0  0  0  0  0  0  0  0
    0.2824    2.0704   -3.6273 H   0  0  0  0  0  0  0  0  0  0  0  0
    2.9470   -1.3023   -3.9949 H   0  0  0  0  0  0  0  0  0  0  0  0
    4.8342   -2.4422   -5.1433 H   0  0  0  0  0  0  0  0  0  0  0  0
    7.1764   -1.6617   -4.7742 H   0  0  0  0  0  0  0  0  0  0  0  0
    7.6084    0.2669   -3.2484 H   0  0  0  0  0  0  0  0  0  0  0  0
    5.7251    1.4050   -2.1102 H   0  0  0  0  0  0  0  0  0  0  0  0
  1  2  2  0
  2  3  1  0
  2 22  1  0
  3  4  1  0
  3 37  1  0
  3 38  1  0
  4  5  1  0
  5  6  2  0
  5  7  1  0
  7  8  1  0
  7 39  1  0
  7 40  1  0
  8  9  1  0
  8 20  1  0
  9 10  2  0
  9 41  1  0
 10 11  1  0
 11 12  2  0
 11 19  1  0
 12 13  1  0
 12 20  1  0
 13 14  1  0
 14 15  1  0
 14 19  2  0
 15 16  2  0
 15 42  1  0
 16 17  1  0
 16 43  1  0
 17 18  2  0
 17 44  1  0
 18 19  1  0
 18 45  1  0
 20 21  2  0
 22 23  1  0
 22 46  1  0
 23 24  1  0
 23 31  1  0
 23 47  1  1
 24 25  1  0
 24 48  1  0
 24 49  1  0
 25 26  2  0
 25 30  1  0
 26 27  1  0
 26 50  1  0
 27 28  2  0
 27 51  1  0
 28 29  1  0
 28 52  1  0
 29 30  2  0
 29 53  1  0
 30 54  1  0
 31 32  2  0
 31 36  1  0
 32 33  1  0
 32 55  1  0
 33 34  2  0
 33 56  1  0
 34 35  1  0
 34 57  1  0
 35 36  2  0
 35 58  1  0
 36 59  1  0
M  END

