
     RDKit          3D

 53 56  0  0  0  0  0  0  0  0999 V2000
   13.7531    4.4079    2.2038 C   0  0  0  0  0  0  0  0  0  0  0  0
   13.0496    3.2415    2.8437 C   0  0  0  0  0  0  0  0  0  0  0  0
   12.8110    3.2393    4.2505 C   0  0  0  0  0  0  0  0  0  0  0  0
   12.1798    2.1699    4.8548 C   0  0  0  0  0  0  0  0  0  0  0  0
   11.8660    2.0184    6.3054 C   0  0  0  0  0  0  0  0  0  0  0  0
   11.8154    1.1591    4.0144 N   0  0  0  0  0  0  0  0  0  0  0  0
   11.1852    0.0114    4.3443 N   0  0  0  0  0  0  0  0  0  0  0  0
   11.0803   -0.5966    3.1582 C   0  0  0  0  0  0  0  0  0  0  0  0
   10.3238   -2.1800    3.0671 S   0  0  0  0  0  0  0  0  0  0  0  0
   10.1702   -2.3990    1.2488 C   0  0  0  0  0  0  0  0  0  0  0  0
   11.3956   -3.0194    0.5673 C   0  0  0  0  0  0  0  0  0  0  0  0
   11.4134   -4.2021    0.2595 O   0  0  0  0  0  0  0  0  0  0  0  0
   12.4157   -2.1565    0.3242 N   0  0  0  0  0  0  0  0  0  0  0  0
   13.6671   -2.6174   -0.2639 C   0  0  1  0  0  0  0  0  0  0  0  0
   13.7822   -3.6656    0.0519 H   0  0  0  0  0  0  0  0  0  0  0  0
   13.5946   -2.6780   -1.8245 C   0  0  0  0  0  0  0  0  0  0  0  0
   13.3536   -1.3669   -2.5339 C   0  0  0  0  0  0  0  0  0  0  0  0
   14.4228   -0.5968   -3.0220 C   0  0  0  0  0  0  0  0  0  0  0  0
   14.1987    0.6224   -3.6675 C   0  0  0  0  0  0  0  0  0  0  0  0
   12.8953    1.0991   -3.8357 C   0  0  0  0  0  0  0  0  0  0  0  0
   11.8200    0.3431   -3.3595 C   0  0  0  0  0  0  0  0  0  0  0  0
   12.0487   -0.8779   -2.7189 C   0  0  0  0  0  0  0  0  0  0  0  0
   14.8608   -1.8332    0.2555 C   0  0  0  0  0  0  0  0  0  0  0  0
   14.8476   -0.4338    0.3788 C   0  0  0  0  0  0  0  0  0  0  0  0
   15.9766    0.2528    0.8360 C   0  0  0  0  0  0  0  0  0  0  0  0
   17.1423   -0.4430    1.1682 C   0  0  0  0  0  0  0  0  0  0  0  0
   17.1697   -1.8352    1.0448 C   0  0  0  0  0  0  0  0  0  0  0  0
   16.0374   -2.5200    0.5959 C   0  0  0  0  0  0  0  0  0  0  0  0
   11.5889    0.0790    2.0998 N   0  0  0  0  0  0  0  0  0  0  0  0
   12.0602    1.2039    2.6396 C   0  0  0  0  0  0  0  0  0  0  0  0
   12.6777    2.2376    2.0616 N   0  0  0  0  0  0  0  0  0  0  0  0
   14.7968    4.4733    2.5552 H   0  0  0  0  0  0  0  0  0  0  0  0
   13.2631    5.3597    2.4654 H   0  0  0  0  0  0  0  0  0  0  0  0
   13.7543    4.2888    1.1130 H   0  0  0  0  0  0  0  0  0  0  0  0
   13.1290    4.0842    4.8626 H   0  0  0  0  0  0  0  0  0  0  0  0
   12.2075    2.8944    6.8714 H   0  0  0  0  0  0  0  0  0  0  0  0
   12.3444    1.1105    6.7065 H   0  0  0  0  0  0  0  0  0  0  0  0
   10.7819    1.8849    6.4500 H   0  0  0  0  0  0  0  0  0  0  0  0
    9.8984   -1.4294    0.8086 H   0  0  0  0  0  0  0  0  0  0  0  0
    9.3412   -3.1079    1.1283 H   0  0  0  0  0  0  0  0  0  0  0  0
   12.3215   -1.2015    0.6758 H   0  0  0  0  0  0  0  0  0  0  0  0
   12.7883   -3.3891   -2.0634 H   0  0  0  0  0  0  0  0  0  0  0  0
   14.5362   -3.1270   -2.1788 H   0  0  0  0  0  0  0  0  0  0  0  0
   15.4460   -0.9612   -2.8961 H   0  0  0  0  0  0  0  0  0  0  0  0
   15.0468    1.2014   -4.0429 H   0  0  0  0  0  0  0  0  0  0  0  0
   12.7177    2.0515   -4.3421 H   0  0  0  0  0  0  0  0  0  0  0  0
   10.7960    0.7018   -3.4946 H   0  0  0  0  0  0  0  0  0  0  0  0
   11.2008   -1.4699   -2.3652 H   0  0  0  0  0  0  0  0  0  0  0  0
   13.9552    0.1406    0.1212 H   0  0  0  0  0  0  0  0  0  0  0  0
   15.9396    1.3413    0.9281 H   0  0  0  0  0  0  0  0  0  0  0  0
   18.0245    0.0958    1.5238 H   0  0  0  0  0  0  0  0  0  0  0  0
   18.0729   -2.3926    1.3070 H   0  0  0  0  0  0  0  0  0  0  0  0
   16.0632   -3.6106    0.5135 H   0  0  0  0  0  0  0  0  0  0  0  0
  1  2  1  0
  1 32  1  0
  1 33  1  0
  1 34  1  0
  2  3  1  0
  2 31  2  0
  3  4  2  0
  3 35  1  0
  4  5  1  0
  4  6  1  0
  5 36  1  0
  5 37  1  0
  5 38  1  0
  6  7  1  0
  6 30  1  0
  7  8  2  0
  8  9  1  0
  8 29  1  0
  9 10  1  0
 10 11  1  0
 10 39  1  0
 10 40  1  0
 11 12  2  0
 11 13  1  0
 13 14  1  0
 13 41  1  0
 14 15  1  1
 14 16  1  0
 14 23  1  0
 16 17  1  0
 16 42  1  0
 16 43  1  0
 17 18  2  0
 17 22  1  0
 18 19  1  0
 18 44  1  0
 19 20  2  0
 19 45  1  0
 20 21  1  0
 20 46  1  0
 21 22  2  0
 21 47  1  0
 22 48  1  0
 23 24  2  0
 23 28  1  0
 24 25  1  0
 24 49  1  0
 25 26  2  0
 25 50  1  0
 26 27  1  0
 26 51  1  0
 27 28  2  0
 27 52  1  0
 28 53  1  0
 29 30  2  0
 30 31  1  0
M  END

