
     RDKit          3D

 41 41  0  0  0  0  0  0  0  0999 V2000
    4.2949    5.8041    1.5363 C   0  0  0  0  0  0  0  0  0  0  0  0
    3.3762    4.7062    2.0719 C   0  0  0  0  0  0  0  0  0  0  0  0
    3.9719    3.3803    2.0092 N   0  0  0  0  0  0  0  0  0  0  0  0
    4.3280    2.6680    3.1187 C   0  0  0  0  0  0  0  0  0  0  0  0
    4.1581    3.0851    4.2570 O   0  0  0  0  0  0  0  0  0  0  0  0
    5.0583    1.3271    2.8859 C   0  0  1  0  0  0  0  0  0  0  0  0
    4.7443    0.6183    1.5676 C   0  0  0  0  0  0  0  0  0  0  0  0
    6.5093    1.4803    3.0172 N   0  0  0  0  0  0  0  0  0  0  0  0
    7.0711    1.9610    4.2858 C   0  0  1  0  0  0  0  0  0  0  0  0
    6.6786    1.0454    5.4564 C   0  0  0  0  0  0  0  0  0  0  0  0
    8.5863    2.0480    4.1541 C   0  0  0  0  0  0  0  0  0  0  0  0
    9.2874    3.0942    4.7746 C   0  0  0  0  0  0  0  0  0  0  0  0
   10.6793    3.1707    4.7051 C   0  0  0  0  0  0  0  0  0  0  0  0
   11.3766    2.1842    4.0041 C   0  0  0  0  0  0  0  0  0  0  0  0
   13.1637    2.2752    3.9008 S   0  0  1  0  0  0  0  0  0  0  0  0
   13.6887    1.3467    5.2149 N   0  0  0  0  0  0  0  0  0  0  0  0
   13.5793    1.5594    2.6915 O   0  0  0  0  0  0  0  0  0  0  0  0
   13.5543    3.6623    4.1675 O   0  0  0  0  0  0  0  0  0  0  0  0
   10.7042    1.1406    3.3628 C   0  0  0  0  0  0  0  0  0  0  0  0
    9.3127    1.0772    3.4444 C   0  0  0  0  0  0  0  0  0  0  0  0
    3.7979    6.7857    1.5949 H   0  0  0  0  0  0  0  0  0  0  0  0
    4.5632    5.6299    0.4805 H   0  0  0  0  0  0  0  0  0  0  0  0
    5.2272    5.8572    2.1201 H   0  0  0  0  0  0  0  0  0  0  0  0
    2.4225    4.7034    1.5146 H   0  0  0  0  0  0  0  0  0  0  0  0
    3.1385    4.8830    3.1302 H   0  0  0  0  0  0  0  0  0  0  0  0
    4.1266    2.9682    1.0975 H   0  0  0  0  0  0  0  0  0  0  0  0
    4.7125    0.6863    3.7101 H   0  0  0  0  0  0  0  0  0  0  0  0
    5.1337    1.1746    0.6960 H   0  0  0  0  0  0  0  0  0  0  0  0
    3.6612    0.4761    1.4299 H   0  0  0  0  0  0  0  0  0  0  0  0
    5.2324   -0.3667    1.5561 H   0  0  0  0  0  0  0  0  0  0  0  0
    6.8604    2.0596    2.2540 H   0  0  0  0  0  0  0  0  0  0  0  0
    6.7026    2.9738    4.5436 H   0  0  0  0  0  0  0  0  0  0  0  0
    6.9322   -0.0038    5.2356 H   0  0  0  0  0  0  0  0  0  0  0  0
    5.6025    1.1277    5.6657 H   0  0  0  0  0  0  0  0  0  0  0  0
    7.2172    1.3481    6.3667 H   0  0  0  0  0  0  0  0  0  0  0  0
    8.7331    3.8682    5.3130 H   0  0  0  0  0  0  0  0  0  0  0  0
   11.2245    3.9950    5.1681 H   0  0  0  0  0  0  0  0  0  0  0  0
   14.2723    0.5804    4.8795 H   0  0  0  0  0  0  0  0  0  0  0  0
   14.1843    1.9378    5.8820 H   0  0  0  0  0  0  0  0  0  0  0  0
   11.2701    0.3993    2.7956 H   0  0  0  0  0  0  0  0  0  0  0  0
    8.7680    0.2770    2.9399 H   0  0  0  0  0  0  0  0  0  0  0  0
  1  2  1  0
  1 21  1  0
  1 22  1  0
  1 23  1  0
  2  3  1  0
  2 24  1  0
  2 25  1  0
  3  4  1  0
  3 26  1  0
  4  5  2  0
  4  6  1  0
  6  7  1  0
  6  8  1  0
  6 27  1  1
  7 28  1  0
  7 29  1  0
  7 30  1  0
  8  9  1  0
  8 31  1  0
  9 10  1  0
  9 11  1  0
  9 32  1  1
 10 33  1  0
 10 34  1  0
 10 35  1  0
 11 12  2  0
 11 20  1  0
 12 13  1  0
 12 36  1  0
 13 14  2  0
 13 37  1  0
 14 15  1  0
 14 19  1  0
 15 16  1  1
 15 17  2  0
 15 18  2  0
 16 38  1  0
 16 39  1  0
 19 20  2  0
 19 40  1  0
 20 41  1  0
M  END

