
     RDKit          3D

 41 44  0  0  0  0  0  0  0  0999 V2000
    3.3241   -4.7907   -1.4469 O   0  0  0  0  0  0  0  0  0  0  0  0
    2.8643   -3.4452   -1.4966 C   0  0  1  0  0  0  0  0  0  0  0  0
    3.7106   -2.5336   -0.5914 C   0  0  0  0  0  0  0  0  0  0  0  0
    5.1661   -2.4404   -1.0746 C   0  0  0  0  0  0  0  0  0  0  0  0
    5.2746   -2.0053   -2.5457 C   0  0  2  0  0  0  0  0  0  0  0  0
    4.9201   -0.5900   -2.6751 N   0  0  0  0  0  0  0  0  0  0  0  0
    5.3792    0.2297   -3.6462 C   0  0  0  0  0  0  0  0  0  0  0  0
    6.2130   -0.1993   -4.5805 N   0  0  0  0  0  0  0  0  0  0  0  0
    6.6750    0.6567   -5.5441 C   0  0  0  0  0  0  0  0  0  0  0  0
    7.6139    0.0699   -6.5426 C   0  0  0  0  0  0  0  0  0  0  0  0
    7.9848   -1.2844   -6.4823 C   0  0  0  0  0  0  0  0  0  0  0  0
    8.8648   -1.8204   -7.4247 C   0  0  0  0  0  0  0  0  0  0  0  0
    9.3867   -1.0125   -8.4396 C   0  0  0  0  0  0  0  0  0  0  0  0
    9.0226    0.3374   -8.5069 C   0  0  0  0  0  0  0  0  0  0  0  0
    8.1437    0.8753   -7.5672 C   0  0  0  0  0  0  0  0  0  0  0  0
    6.3720    1.9396   -5.6767 N   0  0  0  0  0  0  0  0  0  0  0  0
    5.5204    2.4028   -4.7405 C   0  0  0  0  0  0  0  0  0  0  0  0
    5.0240    3.6505   -4.6033 N   0  0  0  0  0  0  0  0  0  0  0  0
    4.2539    3.5348   -3.5320 N   0  0  0  0  0  0  0  0  0  0  0  0
    3.7362    4.3344   -3.1793 H   0  0  0  0  0  0  0  0  0  0  0  0
    4.1731    2.3599   -2.9333 N   0  0  0  0  0  0  0  0  0  0  0  0
    4.9814    1.6082   -3.6942 C   0  0  0  0  0  0  0  0  0  0  0  0
    4.4064   -2.9109   -3.4433 C   0  0  0  0  0  0  0  0  0  0  0  0
    2.9542   -2.9946   -2.9575 C   0  0  0  0  0  0  0  0  0  0  0  0
    3.2614   -5.1020   -0.5347 H   0  0  0  0  0  0  0  0  0  0  0  0
    1.8060   -3.3938   -1.1699 H   0  0  0  0  0  0  0  0  0  0  0  0
    3.6809   -2.9075    0.4478 H   0  0  0  0  0  0  0  0  0  0  0  0
    3.2374   -1.5348   -0.5545 H   0  0  0  0  0  0  0  0  0  0  0  0
    5.6255   -3.4371   -0.9879 H   0  0  0  0  0  0  0  0  0  0  0  0
    5.7494   -1.7585   -0.4342 H   0  0  0  0  0  0  0  0  0  0  0  0
    6.3202   -2.0881   -2.8769 H   0  0  0  0  0  0  0  0  0  0  0  0
    4.2777   -0.1761   -2.0101 H   0  0  0  0  0  0  0  0  0  0  0  0
    7.5722   -1.9055   -5.6872 H   0  0  0  0  0  0  0  0  0  0  0  0
    9.1449   -2.8756   -7.3667 H   0  0  0  0  0  0  0  0  0  0  0  0
   10.0757   -1.4331   -9.1771 H   0  0  0  0  0  0  0  0  0  0  0  0
    9.4271    0.9743   -9.2980 H   0  0  0  0  0  0  0  0  0  0  0  0
    7.8493    1.9249   -7.6053 H   0  0  0  0  0  0  0  0  0  0  0  0
    4.8455   -3.9214   -3.4345 H   0  0  0  0  0  0  0  0  0  0  0  0
    4.4534   -2.5460   -4.4806 H   0  0  0  0  0  0  0  0  0  0  0  0
    2.3814   -3.6979   -3.5823 H   0  0  0  0  0  0  0  0  0  0  0  0
    2.4635   -2.0105   -3.0522 H   0  0  0  0  0  0  0  0  0  0  0  0
  1  2  1  0
  1 25  1  0
  2  3  1  0
  2 24  1  0
  2 26  1  1
  3  4  1  0
  3 27  1  0
  3 28  1  0
  4  5  1  0
  4 29  1  0
  4 30  1  0
  5  6  1  0
  5 23  1  0
  5 31  1  6
  6  7  1  0
  6 32  1  0
  7  8  2  0
  7 22  1  0
  8  9  1  0
  9 10  1  0
  9 16  2  0
 10 11  2  0
 10 15  1  0
 11 12  1  0
 11 33  1  0
 12 13  2  0
 12 34  1  0
 13 14  1  0
 13 35  1  0
 14 15  2  0
 14 36  1  0
 15 37  1  0
 16 17  1  0
 17 18  2  0
 17 22  1  0
 18 19  1  0
 19 20  1  0
 19 21  1  0
 21 22  2  0
 23 24  1  0
 23 38  1  0
 23 39  1  0
 24 40  1  0
 24 41  1  0
M  END

