
     RDKit          3D

 40 42  0  0  0  0  0  0  0  0999 V2000
    2.5893   -5.6333   -4.3445 C   0  0  0  0  0  0  0  0  0  0  0  0
    3.4679   -4.6514   -3.7365 N   0  0  0  0  0  0  0  0  0  0  0  0
    4.4776   -3.9502   -4.3293 C   0  0  0  0  0  0  0  0  0  0  0  0
    5.0316   -3.1365   -3.3561 C   0  0  0  0  0  0  0  0  0  0  0  0
    4.2615   -3.4339   -2.2095 C   0  0  0  0  0  0  0  0  0  0  0  0
    4.4330   -2.7040   -0.5900 S   0  0  1  0  0  0  0  0  0  0  0  0
    5.5881   -1.8128   -0.6799 O   0  0  0  0  0  0  0  0  0  0  0  0
    3.1253   -2.2501   -0.1363 O   0  0  0  0  0  0  0  0  0  0  0  0
    4.8378   -3.9605    0.4572 N   0  0  0  0  0  0  0  0  0  0  0  0
    6.0306   -4.6936    0.3493 C   0  0  0  0  0  0  0  0  0  0  0  0
    7.3464   -4.2081    0.1297 C   0  0  0  0  0  0  0  0  0  0  0  0
    8.1473   -5.3429    0.1732 C   0  0  0  0  0  0  0  0  0  0  0  0
    9.6468   -5.5161    0.0834 C   0  0  1  0  0  0  0  0  0  0  0  0
   10.0694   -6.8608   -0.5535 C   0  0  0  0  0  0  0  0  0  0  0  0
    9.7987   -6.9126   -2.0632 C   0  0  0  0  0  0  0  0  0  0  0  0
   10.4737   -5.7417   -2.7902 C   0  0  0  0  0  0  0  0  0  0  0  0
   10.0649   -4.3926   -2.1840 C   0  0  0  0  0  0  0  0  0  0  0  0
   10.3234   -4.3511   -0.6712 C   0  0  0  0  0  0  0  0  0  0  0  0
    7.2950   -6.3791    0.4117 N   0  0  0  0  0  0  0  0  0  0  0  0
    7.5337   -7.3552    0.5251 H   0  0  0  0  0  0  0  0  0  0  0  0
    6.0026   -6.0114    0.5100 N   0  0  0  0  0  0  0  0  0  0  0  0
    3.3238   -4.3457   -2.4466 N   0  0  0  0  0  0  0  0  0  0  0  0
    2.8615   -5.7522   -5.4011 H   0  0  0  0  0  0  0  0  0  0  0  0
    1.5437   -5.3001   -4.2719 H   0  0  0  0  0  0  0  0  0  0  0  0
    2.6913   -6.6000   -3.8299 H   0  0  0  0  0  0  0  0  0  0  0  0
    4.7201   -4.0810   -5.3819 H   0  0  0  0  0  0  0  0  0  0  0  0
    5.8528   -2.4311   -3.4379 H   0  0  0  0  0  0  0  0  0  0  0  0
    4.0210   -4.5195    0.7001 H   0  0  0  0  0  0  0  0  0  0  0  0
    7.6380   -3.1759   -0.0298 H   0  0  0  0  0  0  0  0  0  0  0  0
   10.0294   -5.5062    1.1213 H   0  0  0  0  0  0  0  0  0  0  0  0
    9.5869   -7.7113   -0.0408 H   0  0  0  0  0  0  0  0  0  0  0  0
   11.1511   -6.9914   -0.3746 H   0  0  0  0  0  0  0  0  0  0  0  0
    8.7094   -6.8769   -2.2435 H   0  0  0  0  0  0  0  0  0  0  0  0
   10.1508   -7.8740   -2.4737 H   0  0  0  0  0  0  0  0  0  0  0  0
   10.2304   -5.7686   -3.8656 H   0  0  0  0  0  0  0  0  0  0  0  0
   11.5715   -5.8567   -2.7182 H   0  0  0  0  0  0  0  0  0  0  0  0
    8.9930   -4.2144   -2.3779 H   0  0  0  0  0  0  0  0  0  0  0  0
   10.6110   -3.5707   -2.6767 H   0  0  0  0  0  0  0  0  0  0  0  0
   10.0015   -3.3862   -0.2487 H   0  0  0  0  0  0  0  0  0  0  0  0
   11.4105   -4.4178   -0.4883 H   0  0  0  0  0  0  0  0  0  0  0  0
  1  2  1  0
  1 23  1  0
  1 24  1  0
  1 25  1  0
  2  3  1  0
  2 22  1  0
  3  4  2  0
  3 26  1  0
  4  5  1  0
  4 27  1  0
  5  6  1  0
  5 22  2  0
  6  7  2  0
  6  8  2  0
  6  9  1  1
  9 10  1  0
  9 28  1  0
 10 11  1  0
 10 21  2  0
 11 12  2  0
 11 29  1  0
 12 13  1  0
 12 19  1  0
 13 14  1  0
 13 18  1  0
 13 30  1  1
 14 15  1  0
 14 31  1  0
 14 32  1  0
 15 16  1  0
 15 33  1  0
 15 34  1  0
 16 17  1  0
 16 35  1  0
 16 36  1  0
 17 18  1  0
 17 37  1  0
 17 38  1  0
 18 39  1  0
 18 40  1  0
 19 20  1  0
 19 21  1  0
M  END

