
     RDKit          3D

 48 52  0  0  0  0  0  0  0  0999 V2000
    5.6985    2.7385   -3.1736 C   0  0  0  0  0  0  0  0  0  0  0  0
    6.6570    2.1472   -2.3086 O   0  0  0  0  0  0  0  0  0  0  0  0
    6.7650    2.6802   -1.0503 C   0  0  0  0  0  0  0  0  0  0  0  0
    7.5232    3.8478   -0.8420 C   0  0  0  0  0  0  0  0  0  0  0  0
    8.2311    4.5541   -1.9675 C   0  0  0  0  0  0  0  0  0  0  0  0
    7.6141    4.2996    0.4800 C   0  0  0  0  0  0  0  0  0  0  0  0
    7.0440    3.6944    1.5182 N   0  0  0  0  0  0  0  0  0  0  0  0
    6.3466    2.5728    1.3117 C   0  0  0  0  0  0  0  0  0  0  0  0
    5.7247    1.9762    2.5642 C   0  0  0  0  0  0  0  0  0  0  0  0
    6.1724    0.6260    2.9142 N   0  0  0  0  0  0  0  0  0  0  0  0
    7.4400    0.1521    3.2405 C   0  0  0  0  0  0  0  0  0  0  0  0
    8.9290    1.0987    3.0736 S   0  0  0  0  0  0  0  0  0  0  0  0
    8.7174    2.3317    4.3240 C   0  0  0  0  0  0  0  0  0  0  0  0
    7.7327    2.4212    5.1510 N   0  0  0  0  0  0  0  0  0  0  0  0
    7.8991    3.4905    6.0134 C   0  0  0  0  0  0  0  0  0  0  0  0
    7.0119    3.8639    7.0355 C   0  0  0  0  0  0  0  0  0  0  0  0
    7.3232    4.9675    7.8257 C   0  0  0  0  0  0  0  0  0  0  0  0
    8.5005    5.7077    7.6198 C   0  0  0  0  0  0  0  0  0  0  0  0
    9.3876    5.3432    6.6072 C   0  0  0  0  0  0  0  0  0  0  0  0
   10.8554    6.2472    6.3329 Cl  0  0  0  0  0  0  0  0  0  0  0  0
    9.0878    4.2377    5.8058 C   0  0  0  0  0  0  0  0  0  0  0  0
    9.9982    3.5563    4.4768 S   0  0  0  0  0  0  0  0  0  0  0  0
    7.4745   -1.1181    3.5592 N   0  0  0  0  0  0  0  0  0  0  0  0
    6.1663   -1.5334    3.4711 C   0  0  0  0  0  0  0  0  0  0  0  0
    5.5128   -2.7513    3.6914 C   0  0  0  0  0  0  0  0  0  0  0  0
    4.1916   -2.8304    3.5287 N   0  0  0  0  0  0  0  0  0  0  0  0
    3.5200   -1.7288    3.1529 C   0  0  0  0  0  0  0  0  0  0  0  0
    4.0217   -0.5143    2.9136 N   0  0  0  0  0  0  0  0  0  0  0  0
    5.3378   -0.4545    3.0810 C   0  0  0  0  0  0  0  0  0  0  0  0
    6.1631    2.0077    0.0313 C   0  0  0  0  0  0  0  0  0  0  0  0
    5.3866    0.7353   -0.1949 C   0  0  0  0  0  0  0  0  0  0  0  0
    5.7477    2.1920   -4.1256 H   0  0  0  0  0  0  0  0  0  0  0  0
    5.9109    3.8045   -3.3634 H   0  0  0  0  0  0  0  0  0  0  0  0
    4.6768    2.6525   -2.7621 H   0  0  0  0  0  0  0  0  0  0  0  0
    8.6284    3.8319   -2.6963 H   0  0  0  0  0  0  0  0  0  0  0  0
    9.0641    5.1619   -1.5844 H   0  0  0  0  0  0  0  0  0  0  0  0
    7.5582    5.2358   -2.5161 H   0  0  0  0  0  0  0  0  0  0  0  0
    8.1985    5.2018    0.7013 H   0  0  0  0  0  0  0  0  0  0  0  0
    4.6321    1.8925    2.4640 H   0  0  0  0  0  0  0  0  0  0  0  0
    5.9478    2.6508    3.4001 H   0  0  0  0  0  0  0  0  0  0  0  0
    6.1014    3.2835    7.1922 H   0  0  0  0  0  0  0  0  0  0  0  0
    6.6432    5.2699    8.6255 H   0  0  0  0  0  0  0  0  0  0  0  0
    8.7337    6.5706    8.2456 H   0  0  0  0  0  0  0  0  0  0  0  0
    6.0550   -3.6528    3.9989 H   0  0  0  0  0  0  0  0  0  0  0  0
    2.4369   -1.8410    3.0287 H   0  0  0  0  0  0  0  0  0  0  0  0
    4.4960    0.6717    0.4467 H   0  0  0  0  0  0  0  0  0  0  0  0
    6.0065   -0.1496    0.0301 H   0  0  0  0  0  0  0  0  0  0  0  0
    5.0745    0.6430   -1.2423 H   0  0  0  0  0  0  0  0  0  0  0  0
  1  2  1  0
  1 32  1  0
  1 33  1  0
  1 34  1  0
  2  3  1  0
  3  4  2  0
  3 30  1  0
  4  5  1  0
  4  6  1  0
  5 35  1  0
  5 36  1  0
  5 37  1  0
  6  7  2  0
  6 38  1  0
  7  8  1  0
  8  9  1  0
  8 30  2  0
  9 10  1  0
  9 39  1  0
  9 40  1  0
 10 11  1  0
 10 29  1  0
 11 12  1  0
 11 23  2  0
 12 13  1  0
 13 14  2  0
 13 22  1  0
 14 15  1  0
 15 16  2  0
 15 21  1  0
 16 17  1  0
 16 41  1  0
 17 18  2  0
 17 42  1  0
 18 19  1  0
 18 43  1  0
 19 20  1  0
 19 21  2  0
 21 22  1  0
 23 24  1  0
 24 25  2  0
 24 29  1  0
 25 26  1  0
 25 44  1  0
 26 27  2  0
 27 28  1  0
 27 45  1  0
 28 29  2  0
 30 31  1  0
 31 46  1  0
 31 47  1  0
 31 48  1  0
M  END

