
     RDKit          3D

 47 50  0  0  0  0  0  0  0  0999 V2000
    1.2969    1.0216   -2.2313 C   0  0  0  0  0  0  0  0  0  0  0  0
    2.7343    0.6655   -1.9394 C   0  0  0  0  0  0  0  0  0  0  0  0
    3.7095    1.6511   -1.7291 C   0  0  0  0  0  0  0  0  0  0  0  0
    5.0374    1.3132   -1.4727 C   0  0  0  0  0  0  0  0  0  0  0  0
    5.4391   -0.0325   -1.4181 C   0  0  0  0  0  0  0  0  0  0  0  0
    6.8007   -0.2851   -1.1489 N   0  0  0  0  0  0  0  0  0  0  0  0
    7.4676   -1.4768   -1.0127 C   0  0  0  0  0  0  0  0  0  0  0  0
    6.9353   -2.6250   -1.2001 N   0  0  0  0  0  0  0  0  0  0  0  0
    7.6908   -3.8116   -0.8981 C   0  0  2  0  0  0  0  0  0  0  0  0
    7.4794   -4.5798   -1.6538 H   0  0  0  0  0  0  0  0  0  0  0  0
    7.2513   -4.3828    0.4558 C   0  0  0  0  0  0  0  0  0  0  0  0
    7.9720   -4.1303    1.6250 C   0  0  0  0  0  0  0  0  0  0  0  0
    7.5208   -4.6196    2.8497 C   0  0  0  0  0  0  0  0  0  0  0  0
    8.3062   -4.3294    4.0657 N   0  0  0  0  0  0  0  0  0  0  0  0
    9.3153   -3.6535    3.9394 O   0  0  0  0  0  0  0  0  0  0  0  0
    7.8953   -4.7810    5.1222 O   0  0  0  0  0  0  0  0  0  0  0  0
    6.3542   -5.3746    2.9584 C   0  0  0  0  0  0  0  0  0  0  0  0
    5.6268   -5.6354    1.8005 C   0  0  0  0  0  0  0  0  0  0  0  0
    6.0697   -5.1416    0.5674 C   0  0  0  0  0  0  0  0  0  0  0  0
    5.1096   -5.4987   -0.8444 Cl  0  0  0  0  0  0  0  0  0  0  0  0
    9.1585   -3.6069   -0.9459 N   0  0  0  0  0  0  0  0  0  0  0  0
    9.7066   -2.3702   -0.8000 C   0  0  0  0  0  0  0  0  0  0  0  0
   10.9824   -2.1088   -0.7923 N   0  0  0  0  0  0  0  0  0  0  0  0
   11.8423   -3.1664   -0.9523 C   0  0  0  0  0  0  0  0  0  0  0  0
   13.3013   -2.8158   -0.8985 C   0  0  0  0  0  0  0  0  0  0  0  0
   11.3976   -4.4488   -1.1556 C   0  0  0  0  0  0  0  0  0  0  0  0
    9.9860   -4.7575   -1.1767 C   0  0  0  0  0  0  0  0  0  0  0  0
    9.4609   -5.8440   -1.3415 O   0  0  0  0  0  0  0  0  0  0  0  0
    8.8162   -1.3239   -0.6591 N   0  0  0  0  0  0  0  0  0  0  0  0
    4.4761   -1.0349   -1.6280 C   0  0  0  0  0  0  0  0  0  0  0  0
    3.1520   -0.6731   -1.8803 C   0  0  0  0  0  0  0  0  0  0  0  0
    1.1131    2.0989   -2.1041 H   0  0  0  0  0  0  0  0  0  0  0  0
    0.6041    0.4804   -1.5661 H   0  0  0  0  0  0  0  0  0  0  0  0
    1.0196    0.7573   -3.2664 H   0  0  0  0  0  0  0  0  0  0  0  0
    3.4284    2.7075   -1.7637 H   0  0  0  0  0  0  0  0  0  0  0  0
    5.7731    2.1075   -1.3092 H   0  0  0  0  0  0  0  0  0  0  0  0
    7.3635    0.5506   -1.0535 H   0  0  0  0  0  0  0  0  0  0  0  0
    8.9002   -3.5607    1.6091 H   0  0  0  0  0  0  0  0  0  0  0  0
    6.0372   -5.7448    3.9327 H   0  0  0  0  0  0  0  0  0  0  0  0
    4.7100   -6.2251    1.8404 H   0  0  0  0  0  0  0  0  0  0  0  0
   13.5345   -2.0621   -1.6682 H   0  0  0  0  0  0  0  0  0  0  0  0
   13.9426   -3.6946   -1.0480 H   0  0  0  0  0  0  0  0  0  0  0  0
   13.5394   -2.3570    0.0751 H   0  0  0  0  0  0  0  0  0  0  0  0
   12.0832   -5.2847   -1.2946 H   0  0  0  0  0  0  0  0  0  0  0  0
    9.2617   -0.4146   -0.5958 H   0  0  0  0  0  0  0  0  0  0  0  0
    4.7742   -2.0798   -1.5926 H   0  0  0  0  0  0  0  0  0  0  0  0
    2.4186   -1.4697   -2.0387 H   0  0  0  0  0  0  0  0  0  0  0  0
  1  2  1  0
  1 32  1  0
  1 33  1  0
  1 34  1  0
  2  3  2  0
  2 31  1  0
  3  4  1  0
  3 35  1  0
  4  5  2  0
  4 36  1  0
  5  6  1  0
  5 30  1  0
  6  7  1  0
  6 37  1  0
  7  8  2  0
  7 29  1  0
  8  9  1  0
  9 10  1  6
  9 11  1  0
  9 21  1  0
 11 12  2  0
 11 19  1  0
 12 13  1  0
 12 38  1  0
 13 14  1  0
 13 17  2  0
 14 15  2  0
 14 16  1  0
 17 18  1  0
 17 39  1  0
 18 19  2  0
 18 40  1  0
 19 20  1  0
 21 22  1  0
 21 27  1  0
 22 23  2  0
 22 29  1  0
 23 24  1  0
 24 25  1  0
 24 26  2  0
 25 41  1  0
 25 42  1  0
 25 43  1  0
 26 27  1  0
 26 44  1  0
 27 28  2  0
 29 45  1  0
 30 31  2  0
 30 46  1  0
 31 47  1  0
M  CHG  2  14   1  16  -1
M  END

