
     RDKit          3D

 42 43  0  0  0  0  0  0  0  0999 V2000
    5.4479   -2.2906   -1.1095 C   0  0  0  0  0  0  0  0  0  0  0  0
    4.7389   -1.4088   -0.6781 C   0  0  0  0  0  0  0  0  0  0  0  0
    3.8973   -0.2743   -0.2750 C   0  0  1  0  0  0  0  0  0  0  0  0
    2.5722   -0.6433    0.1048 O   0  0  0  0  0  0  0  0  0  0  0  0
    2.3508   -1.6139    1.0345 C   0  0  0  0  0  0  0  0  0  0  0  0
    0.8895   -1.6803    1.3842 C   0  0  0  0  0  0  0  0  0  0  0  0
    3.2212   -2.2878    1.5185 O   0  0  0  0  0  0  0  0  0  0  0  0
    4.5565    0.6969    0.7573 C   0  0  1  0  0  0  0  0  0  0  0  0
    3.7261    1.3422    1.0887 H   0  0  0  0  0  0  0  0  0  0  0  0
    5.2206    0.1103    2.0211 C   0  0  1  0  0  0  0  0  0  0  0  0
    4.6842   -0.8068    2.2934 H   0  0  0  0  0  0  0  0  0  0  0  0
    6.6999   -0.1602    1.8277 C   0  0  0  0  0  0  0  0  0  0  0  0
    7.6107   -1.1544    3.5483 I   0  0  0  0  0  0  0  0  0  0  0  0
    5.1015    1.0581    3.1021 O   0  0  0  0  0  0  0  0  0  0  0  0
    3.9226    1.1189    3.7536 C   0  0  0  0  0  0  0  0  0  0  0  0
    4.0021    2.0601    4.9280 C   0  0  0  0  0  0  0  0  0  0  0  0
    2.9445    0.4902    3.4233 O   0  0  0  0  0  0  0  0  0  0  0  0
    5.4981    1.4275   -0.0149 O   0  0  0  0  0  0  0  0  0  0  0  0
    5.0382    1.5945   -1.3435 C   0  0  2  0  0  0  0  0  0  0  0  0
    5.8816    1.3730   -2.0135 H   0  0  0  0  0  0  0  0  0  0  0  0
    4.5761    2.8806   -1.6156 O   0  0  0  0  0  0  0  0  0  0  0  0
    3.1441    2.9149   -1.6540 C   0  0  1  0  0  0  0  0  0  0  0  0
    2.6156    3.8826   -0.6059 C   0  0  0  0  0  0  0  0  0  0  0  0
    2.6993    3.2681   -3.0713 C   0  0  0  0  0  0  0  0  0  0  0  0
    2.7230    1.5935   -1.3152 O   0  0  0  0  0  0  0  0  0  0  0  0
    3.7895    0.6955   -1.4867 C   0  0  2  0  0  0  0  0  0  0  0  0
    3.7263    0.1490   -2.4421 H   0  0  0  0  0  0  0  0  0  0  0  0
    6.0704   -3.0936   -1.4583 H   0  0  0  0  0  0  0  0  0  0  0  0
    0.2551   -1.4434    0.5199 H   0  0  0  0  0  0  0  0  0  0  0  0
    0.7102   -0.9241    2.1660 H   0  0  0  0  0  0  0  0  0  0  0  0
    0.6544   -2.6713    1.7919 H   0  0  0  0  0  0  0  0  0  0  0  0
    7.2633    0.7671    1.6848 H   0  0  0  0  0  0  0  0  0  0  0  0
    6.8639   -0.8349    0.9823 H   0  0  0  0  0  0  0  0  0  0  0  0
    4.6857    1.6408    5.6829 H   0  0  0  0  0  0  0  0  0  0  0  0
    3.0048    2.1938    5.3634 H   0  0  0  0  0  0  0  0  0  0  0  0
    4.4203    3.0278    4.6136 H   0  0  0  0  0  0  0  0  0  0  0  0
    2.9408    4.9069   -0.8390 H   0  0  0  0  0  0  0  0  0  0  0  0
    3.0012    3.6088    0.3861 H   0  0  0  0  0  0  0  0  0  0  0  0
    1.5163    3.8544   -0.5819 H   0  0  0  0  0  0  0  0  0  0  0  0
    3.0878    4.2569   -3.3565 H   0  0  0  0  0  0  0  0  0  0  0  0
    1.6012    3.2835   -3.1347 H   0  0  0  0  0  0  0  0  0  0  0  0
    3.0833    2.5262   -3.7874 H   0  0  0  0  0  0  0  0  0  0  0  0
  1  2  3  0
  1 28  1  0
  3  2  1  6
  3  4  1  0
  3  8  1  0
  3 26  1  0
  4  5  1  0
  5  6  1  0
  5  7  2  0
  6 29  1  0
  6 30  1  0
  6 31  1  0
  8  9  1  1
  8 10  1  0
  8 18  1  0
 10 11  1  1
 10 12  1  0
 10 14  1  0
 12 13  1  0
 12 32  1  0
 12 33  1  0
 14 15  1  0
 15 16  1  0
 15 17  2  0
 16 34  1  0
 16 35  1  0
 16 36  1  0
 18 19  1  0
 19 20  1  6
 19 21  1  0
 19 26  1  0
 21 22  1  0
 22 23  1  1
 22 24  1  0
 22 25  1  0
 23 37  1  0
 23 38  1  0
 23 39  1  0
 24 40  1  0
 24 41  1  0
 24 42  1  0
 25 26  1  0
 26 27  1  6
M  END

