
     RDKit          3D

 55 58  0  0  0  0  0  0  0  0999 V2000
    3.7949   -2.8037   -4.4493 F   0  0  0  0  0  0  0  0  0  0  0  0
    3.8303   -1.5313   -4.0131 C   0  0  0  0  0  0  0  0  0  0  0  0
    5.0603   -0.8498   -4.0484 C   0  0  0  0  0  0  0  0  0  0  0  0
    5.1342    0.4663   -3.6041 C   0  0  0  0  0  0  0  0  0  0  0  0
    3.9742    1.1029   -3.1220 C   0  0  0  0  0  0  0  0  0  0  0  0
    3.6929    2.4266   -2.6084 C   0  0  0  0  0  0  0  0  0  0  0  0
    4.6759    3.5438   -2.4100 C   0  0  0  0  0  0  0  0  0  0  0  0
    5.5904    3.3627   -1.1885 C   0  0  0  0  0  0  0  0  0  0  0  0
    6.5758    4.4275   -1.1083 N   0  0  0  0  0  0  0  0  0  0  0  0
    7.5045    4.3166    0.0042 C   0  0  0  0  0  0  0  0  0  0  0  0
    8.5879    5.4005   -0.0293 C   0  0  0  0  0  0  0  0  0  0  0  0
    8.0960    6.8508    0.0831 C   0  0  0  0  0  0  0  0  0  0  0  0
    7.3898    7.1674    1.3922 C   0  0  0  0  0  0  0  0  0  0  0  0
    7.0626    8.5597    1.3811 O   0  0  0  0  0  0  0  0  0  0  0  0
    6.4136    9.0716    2.4395 C   0  0  0  0  0  0  0  0  0  0  0  0
    6.0983   10.4512    2.4177 C   0  0  0  0  0  0  0  0  0  0  0  0
    5.4604   11.0111    3.4282 N   0  0  0  0  0  0  0  0  0  0  0  0
    5.1155   10.2449    4.4805 C   0  0  0  0  0  0  0  0  0  0  0  0
    5.4364    8.8773    4.4972 C   0  0  0  0  0  0  0  0  0  0  0  0
    6.0839    8.3073    3.4647 N   0  0  0  0  0  0  0  0  0  0  0  0
    5.0506    7.9807    5.6525 C   0  0  0  0  0  0  0  0  0  0  0  0
    4.6647    8.7589    6.9150 C   0  0  0  0  0  0  0  0  0  0  0  0
    3.7197    9.9162    6.5748 C   0  0  0  0  0  0  0  0  0  0  0  0
    4.4013   10.9154    5.6340 C   0  0  0  0  0  0  0  0  0  0  0  0
    2.3493    2.4414   -2.3140 C   0  0  0  0  0  0  0  0  0  0  0  0
    1.7806    1.2143   -2.6106 N   0  0  0  0  0  0  0  0  0  0  0  0
    0.8045    0.9796   -2.4945 H   0  0  0  0  0  0  0  0  0  0  0  0
    2.7476    0.3747   -3.1086 C   0  0  0  0  0  0  0  0  0  0  0  0
    2.6565   -0.9532   -3.5527 C   0  0  0  0  0  0  0  0  0  0  0  0
    5.9373   -1.3765   -4.4291 H   0  0  0  0  0  0  0  0  0  0  0  0
    6.0887    0.9975   -3.6340 H   0  0  0  0  0  0  0  0  0  0  0  0
    4.1282    4.4975   -2.3076 H   0  0  0  0  0  0  0  0  0  0  0  0
    5.3198    3.6538   -3.2994 H   0  0  0  0  0  0  0  0  0  0  0  0
    6.1270    2.4013   -1.2730 H   0  0  0  0  0  0  0  0  0  0  0  0
    4.9593    3.2747   -0.2742 H   0  0  0  0  0  0  0  0  0  0  0  0
    6.0990    5.3285   -1.0786 H   0  0  0  0  0  0  0  0  0  0  0  0
    7.9994    3.3320   -0.0676 H   0  0  0  0  0  0  0  0  0  0  0  0
    6.9946    4.3165    0.9964 H   0  0  0  0  0  0  0  0  0  0  0  0
    9.1461    5.2966   -0.9742 H   0  0  0  0  0  0  0  0  0  0  0  0
    9.3052    5.1970    0.7857 H   0  0  0  0  0  0  0  0  0  0  0  0
    7.4239    7.0976   -0.7573 H   0  0  0  0  0  0  0  0  0  0  0  0
    8.9565    7.5332   -0.0159 H   0  0  0  0  0  0  0  0  0  0  0  0
    8.0321    6.9456    2.2623 H   0  0  0  0  0  0  0  0  0  0  0  0
    6.4672    6.5787    1.5277 H   0  0  0  0  0  0  0  0  0  0  0  0
    6.3820   11.0662    1.5568 H   0  0  0  0  0  0  0  0  0  0  0  0
    5.8798    7.2800    5.8416 H   0  0  0  0  0  0  0  0  0  0  0  0
    4.2017    7.3520    5.3234 H   0  0  0  0  0  0  0  0  0  0  0  0
    5.5748    9.1629    7.3943 H   0  0  0  0  0  0  0  0  0  0  0  0
    4.2032    8.0778    7.6481 H   0  0  0  0  0  0  0  0  0  0  0  0
    3.3850   10.4291    7.4908 H   0  0  0  0  0  0  0  0  0  0  0  0
    2.8105    9.5123    6.0930 H   0  0  0  0  0  0  0  0  0  0  0  0
    5.1404   11.5150    6.1983 H   0  0  0  0  0  0  0  0  0  0  0  0
    3.6827   11.6427    5.2235 H   0  0  0  0  0  0  0  0  0  0  0  0
    1.7406    3.2501   -1.9122 H   0  0  0  0  0  0  0  0  0  0  0  0
    1.7261   -1.5236   -3.5489 H   0  0  0  0  0  0  0  0  0  0  0  0
  1  2  1  0
  2  3  2  0
  2 29  1  0
  3  4  1  0
  3 30  1  0
  4  5  2  0
  4 31  1  0
  5  6  1  0
  5 28  1  0
  6  7  1  0
  6 25  2  0
  7  8  1  0
  7 32  1  0
  7 33  1  0
  8  9  1  0
  8 34  1  0
  8 35  1  0
  9 10  1  0
  9 36  1  0
 10 11  1  0
 10 37  1  0
 10 38  1  0
 11 12  1  0
 11 39  1  0
 11 40  1  0
 12 13  1  0
 12 41  1  0
 12 42  1  0
 13 14  1  0
 13 43  1  0
 13 44  1  0
 14 15  1  0
 15 16  2  0
 15 20  1  0
 16 17  1  0
 16 45  1  0
 17 18  2  0
 18 19  1  0
 18 24  1  0
 19 20  2  0
 19 21  1  0
 21 22  1  0
 21 46  1  0
 21 47  1  0
 22 23  1  0
 22 48  1  0
 22 49  1  0
 23 24  1  0
 23 50  1  0
 23 51  1  0
 24 52  1  0
 24 53  1  0
 25 26  1  0
 25 54  1  0
 26 27  1  0
 26 28  1  0
 28 29  2  0
 29 55  1  0
M  END

