
     RDKit          3D

 39 41  0  0  0  0  0  0  0  0999 V2000
    1.4246   -0.1099    1.1559 O   0  0  0  0  0  0  0  0  0  0  0  0
    2.4965   -0.0676    0.5664 C   0  0  0  0  0  0  0  0  0  0  0  0
    3.0803   -1.3385   -0.0045 C   0  0  0  0  0  0  0  0  0  0  0  0
    4.4007   -1.7591    0.2233 C   0  0  0  0  0  0  0  0  0  0  0  0
    4.8846   -2.9297   -0.1965 N   0  0  0  0  0  0  0  0  0  0  0  0
    4.0791   -3.7458   -0.8736 C   0  0  0  0  0  0  0  0  0  0  0  0
    2.7440   -3.4195   -1.1273 C   0  0  0  0  0  0  0  0  0  0  0  0
    1.9715   -4.2824   -1.7956 F   0  0  0  0  0  0  0  0  0  0  0  0
    2.2206   -2.2142   -0.6805 C   0  0  0  0  0  0  0  0  0  0  0  0
    3.1947    1.0966    0.4082 N   0  0  0  0  0  0  0  0  0  0  0  0
    2.6259    2.3441    0.9400 C   0  0  0  0  0  0  0  0  0  0  0  0
    3.2391    3.4334    0.0599 C   0  0  0  0  0  0  0  0  0  0  0  0
    4.6033    2.8515   -0.3481 C   0  0  2  0  0  0  0  0  0  0  0  0
    5.1766    3.4609   -1.5421 N   0  0  0  0  0  0  0  0  0  0  0  0
    5.3290    4.9182   -1.5113 C   0  0  0  0  0  0  0  0  0  0  0  0
    6.5576    5.3869   -0.7197 C   0  0  0  0  0  0  0  0  0  0  0  0
    7.7474    4.7500   -1.2710 N   0  0  0  0  0  0  0  0  0  0  0  0
    7.6630    3.2949   -1.2454 C   0  0  0  0  0  0  0  0  0  0  0  0
    6.4195    2.8534   -2.0297 C   0  0  0  0  0  0  0  0  0  0  0  0
    4.2686    1.3601   -0.5592 C   0  0  0  0  0  0  0  0  0  0  0  0
    5.0873   -1.1296    0.7993 H   0  0  0  0  0  0  0  0  0  0  0  0
    4.4805   -4.7019   -1.2284 H   0  0  0  0  0  0  0  0  0  0  0  0
    1.1702   -1.9637   -0.8402 H   0  0  0  0  0  0  0  0  0  0  0  0
    2.9049    2.4654    2.0020 H   0  0  0  0  0  0  0  0  0  0  0  0
    1.5283    2.3035    0.9001 H   0  0  0  0  0  0  0  0  0  0  0  0
    3.3093    4.3948    0.5880 H   0  0  0  0  0  0  0  0  0  0  0  0
    2.6373    3.5843   -0.8518 H   0  0  0  0  0  0  0  0  0  0  0  0
    5.2729    2.9161    0.5394 H   0  0  0  0  0  0  0  0  0  0  0  0
    4.4151    5.3848   -1.1174 H   0  0  0  0  0  0  0  0  0  0  0  0
    5.4459    5.2620   -2.5540 H   0  0  0  0  0  0  0  0  0  0  0  0
    6.4072    5.1656    0.3631 H   0  0  0  0  0  0  0  0  0  0  0  0
    6.6562    6.4816   -0.8107 H   0  0  0  0  0  0  0  0  0  0  0  0
    8.5876    5.0744   -0.7973 H   0  0  0  0  0  0  0  0  0  0  0  0
    7.6163    2.8797   -0.2114 H   0  0  0  0  0  0  0  0  0  0  0  0
    8.5639    2.8697   -1.7184 H   0  0  0  0  0  0  0  0  0  0  0  0
    6.3328    1.7569   -2.0254 H   0  0  0  0  0  0  0  0  0  0  0  0
    6.5526    3.1630   -3.0810 H   0  0  0  0  0  0  0  0  0  0  0  0
    5.1365    0.7101   -0.3919 H   0  0  0  0  0  0  0  0  0  0  0  0
    3.9231    1.2117   -1.5986 H   0  0  0  0  0  0  0  0  0  0  0  0
  1  2  2  0
  2  3  1  0
  2 10  1  0
  3  4  2  0
  3  9  1  0
  4  5  1  0
  4 21  1  0
  5  6  2  0
  6  7  1  0
  6 22  1  0
  7  8  1  0
  7  9  2  0
  9 23  1  0
 10 11  1  0
 10 20  1  0
 11 12  1  0
 11 24  1  0
 11 25  1  0
 12 13  1  0
 12 26  1  0
 12 27  1  0
 13 14  1  0
 13 20  1  0
 13 28  1  1
 14 15  1  0
 14 19  1  0
 15 16  1  0
 15 29  1  0
 15 30  1  0
 16 17  1  0
 16 31  1  0
 16 32  1  0
 17 18  1  0
 17 33  1  0
 18 19  1  0
 18 34  1  0
 18 35  1  0
 19 36  1  0
 19 37  1  0
 20 38  1  0
 20 39  1  0
M  END

