
     RDKit          3D

 34 33  0  0  0  0  0  0  0  0999 V2000
    3.1248    1.7446    2.3310 C   0  0  0  0  0  0  0  0  0  0  0  0
    2.4151    2.1958    1.0534 C   0  0  0  0  0  0  0  0  0  0  0  0
    2.8592    1.5073   -0.2731 C   0  0  1  0  0  0  0  0  0  0  0  0
    2.3872    0.0365   -0.1848 C   0  0  0  0  0  0  0  0  0  0  0  0
    2.1107    2.1596   -1.4593 C   0  0  0  0  0  0  0  0  0  0  0  0
    4.3487    1.5388   -0.4526 N   0  0  0  0  0  0  0  0  0  0  0  0
    4.8532    0.5028   -1.3573 C   0  0  0  0  0  0  0  0  0  0  0  0
    5.0364    2.8112   -0.7900 C   0  0  1  0  0  0  0  0  0  0  0  0
    4.5769    4.0999   -0.0868 C   0  0  0  0  0  0  0  0  0  0  0  0
    6.5210    2.6460   -0.4699 C   0  0  0  0  0  0  0  0  0  0  0  0
    6.8279    2.1035    0.7490 N   0  0  0  0  0  0  0  0  0  0  0  0
    7.3713    3.1096   -1.3184 N   0  0  0  0  0  0  0  0  0  0  0  0
    8.6882    2.9427   -0.8247 O   0  0  0  0  0  0  0  0  0  0  0  0
    2.6943    2.2549    3.2077 H   0  0  0  0  0  0  0  0  0  0  0  0
    4.1989    1.9794    2.3061 H   0  0  0  0  0  0  0  0  0  0  0  0
    3.0255    0.6614    2.5036 H   0  0  0  0  0  0  0  0  0  0  0  0
    2.4969    3.2858    0.9645 H   0  0  0  0  0  0  0  0  0  0  0  0
    1.3337    2.0010    1.1559 H   0  0  0  0  0  0  0  0  0  0  0  0
    1.3300    0.0168    0.1189 H   0  0  0  0  0  0  0  0  0  0  0  0
    2.9621   -0.5347    0.5590 H   0  0  0  0  0  0  0  0  0  0  0  0
    2.4563   -0.4879   -1.1480 H   0  0  0  0  0  0  0  0  0  0  0  0
    1.0217    2.0410   -1.3415 H   0  0  0  0  0  0  0  0  0  0  0  0
    2.3911    1.6881   -2.4144 H   0  0  0  0  0  0  0  0  0  0  0  0
    2.3157    3.2364   -1.5431 H   0  0  0  0  0  0  0  0  0  0  0  0
    4.6662   -0.5056   -0.9678 H   0  0  0  0  0  0  0  0  0  0  0  0
    5.9409    0.6084   -1.4670 H   0  0  0  0  0  0  0  0  0  0  0  0
    4.4276    0.5627   -2.3821 H   0  0  0  0  0  0  0  0  0  0  0  0
    4.9884    3.0057   -1.8803 H   0  0  0  0  0  0  0  0  0  0  0  0
    4.6438    4.0227    1.0068 H   0  0  0  0  0  0  0  0  0  0  0  0
    3.5599    4.4018   -0.3656 H   0  0  0  0  0  0  0  0  0  0  0  0
    5.2572    4.9022   -0.4074 H   0  0  0  0  0  0  0  0  0  0  0  0
    6.1271    1.4623    1.1075 H   0  0  0  0  0  0  0  0  0  0  0  0
    7.8026    1.8639    0.8914 H   0  0  0  0  0  0  0  0  0  0  0  0
    9.2258    3.2798   -1.5505 H   0  0  0  0  0  0  0  0  0  0  0  0
  1  2  1  0
  1 14  1  0
  1 15  1  0
  1 16  1  0
  2  3  1  0
  2 17  1  0
  2 18  1  0
  3  4  1  0
  3  5  1  0
  3  6  1  6
  4 19  1  0
  4 20  1  0
  4 21  1  0
  5 22  1  0
  5 23  1  0
  5 24  1  0
  6  7  1  0
  6  8  1  0
  7 25  1  0
  7 26  1  0
  7 27  1  0
  8  9  1  0
  8 10  1  0
  8 28  1  6
  9 29  1  0
  9 30  1  0
  9 31  1  0
 10 11  1  0
 10 12  2  0
 11 32  1  0
 11 33  1  0
 12 13  1  0
 13 34  1  0
M  END

