
     RDKit          3D

 32 34  0  0  0  0  0  0  0  0999 V2000
    4.5275   -2.1154    1.9186 N   0  0  0  0  0  0  0  0  0  0  0  0
    4.1526   -1.1791    1.3418 C   0  0  0  0  0  0  0  0  0  0  0  0
    3.7212    0.0042    0.6547 C   0  0  0  0  0  0  0  0  0  0  0  0
    2.7517    0.0153   -0.3063 C   0  0  0  0  0  0  0  0  0  0  0  0
    1.9393   -1.0572   -0.8726 C   0  0  0  0  0  0  0  0  0  0  0  0
    1.9943   -2.4209   -0.5142 C   0  0  0  0  0  0  0  0  0  0  0  0
    1.1445   -3.3234   -1.1556 C   0  0  0  0  0  0  0  0  0  0  0  0
    0.2655   -2.9823   -2.1033 N   0  0  0  0  0  0  0  0  0  0  0  0
    0.2067   -1.6939   -2.4487 C   0  0  0  0  0  0  0  0  0  0  0  0
    1.0082   -0.7075   -1.8736 C   0  0  0  0  0  0  0  0  0  0  0  0
    4.3909    1.2599    1.0397 C   0  0  0  0  0  0  0  0  0  0  0  0
    4.1267    2.4260    0.5199 N   0  0  0  0  0  0  0  0  0  0  0  0
    4.8924    3.4304    1.0555 C   0  0  0  0  0  0  0  0  0  0  0  0
    4.7238    4.8212    0.5809 C   0  0  0  0  0  0  0  0  0  0  0  0
    5.4960    5.8784    1.0977 C   0  0  0  0  0  0  0  0  0  0  0  0
    5.3205    7.1830    0.6364 C   0  0  0  0  0  0  0  0  0  0  0  0
    4.3695    7.4597   -0.3516 C   0  0  0  0  0  0  0  0  0  0  0  0
    3.5968    6.4181   -0.8728 C   0  0  0  0  0  0  0  0  0  0  0  0
    3.7711    5.1120   -0.4124 C   0  0  0  0  0  0  0  0  0  0  0  0
    5.7775    2.9975    2.0280 C   0  0  0  0  0  0  0  0  0  0  0  0
    5.6434    1.3007    2.2711 S   0  0  0  0  0  0  0  0  0  0  0  0
    2.5572    1.0093   -0.7184 H   0  0  0  0  0  0  0  0  0  0  0  0
    2.6803   -2.7871    0.2480 H   0  0  0  0  0  0  0  0  0  0  0  0
    1.1807   -4.3846   -0.8832 H   0  0  0  0  0  0  0  0  0  0  0  0
   -0.5178   -1.4259   -3.2268 H   0  0  0  0  0  0  0  0  0  0  0  0
    0.9141    0.3317   -2.1982 H   0  0  0  0  0  0  0  0  0  0  0  0
    6.2452    5.6867    1.8688 H   0  0  0  0  0  0  0  0  0  0  0  0
    5.9307    7.9893    1.0511 H   0  0  0  0  0  0  0  0  0  0  0  0
    4.2328    8.4822   -0.7123 H   0  0  0  0  0  0  0  0  0  0  0  0
    2.8510    6.6236   -1.6451 H   0  0  0  0  0  0  0  0  0  0  0  0
    3.1704    4.2965   -0.8162 H   0  0  0  0  0  0  0  0  0  0  0  0
    6.4900    3.5818    2.6051 H   0  0  0  0  0  0  0  0  0  0  0  0
  1  2  3  0
  2  3  1  0
  3  4  2  0
  3 11  1  0
  4  5  1  0
  4 22  1  0
  5  6  2  0
  5 10  1  0
  6  7  1  0
  6 23  1  0
  7  8  2  0
  7 24  1  0
  8  9  1  0
  9 10  2  0
  9 25  1  0
 10 26  1  0
 11 12  2  0
 11 21  1  0
 12 13  1  0
 13 14  1  0
 13 20  2  0
 14 15  2  0
 14 19  1  0
 15 16  1  0
 15 27  1  0
 16 17  2  0
 16 28  1  0
 17 18  1  0
 17 29  1  0
 18 19  2  0
 18 30  1  0
 19 31  1  0
 20 21  1  0
 20 32  1  0
M  END

