
     RDKit          3D

 42 45  0  0  0  0  0  0  0  0999 V2000
    1.3717    0.6242   -1.5303 C   0  0  0  0  0  0  0  0  0  0  0  0
    1.4637   -0.3971   -0.4060 C   0  0  1  0  0  0  0  0  0  0  0  0
    2.3430    0.0843    0.7670 C   0  0  1  0  0  0  0  0  0  0  0  0
    2.7584   -0.9881    1.8113 C   0  0  0  0  0  0  0  0  0  0  0  0
    4.0212   -1.6770    1.3252 C   0  0  2  0  0  0  0  0  0  0  0  0
    4.7547   -2.7672    2.0891 C   0  0  0  0  0  0  0  0  0  0  0  0
    6.0704   -2.7731    1.4997 O   0  0  0  0  0  0  0  0  0  0  0  0
    6.2033   -1.6767    0.5617 N   0  0  0  0  0  0  0  0  0  0  0  0
    5.1859   -0.7128    0.9875 C   0  0  2  0  0  0  0  0  0  0  0  0
    5.7919    0.0863    2.2141 C   0  0  2  0  0  0  0  0  0  0  0  0
    5.1253    1.4206    2.6429 C   0  0  0  0  0  0  0  0  0  0  0  0
    5.5418    2.6130    1.8133 C   0  0  0  0  0  0  0  0  0  0  0  0
    6.7906    2.6372    1.3297 C   0  0  0  0  0  0  0  0  0  0  0  0
    7.2678    3.6841    0.6326 F   0  0  0  0  0  0  0  0  0  0  0  0
    7.7325    1.5429    1.5394 C   0  0  0  0  0  0  0  0  0  0  0  0
    7.2652    0.3659    1.9900 C   0  0  0  0  0  0  0  0  0  0  0  0
    8.1045   -0.6213    2.2984 F   0  0  0  0  0  0  0  0  0  0  0  0
    4.6420    0.1763   -0.1362 C   0  0  0  0  0  0  0  0  0  0  0  0
    3.4698    0.8426    0.3053 O   0  0  0  0  0  0  0  0  0  0  0  0
    0.1878   -1.1370   -0.0722 C   0  0  0  0  0  0  0  0  0  0  0  0
    1.3028   -1.8560   -0.7862 C   0  0  0  0  0  0  0  0  0  0  0  0
    1.0454    1.6047   -1.1460 H   0  0  0  0  0  0  0  0  0  0  0  0
    0.6451    0.3009   -2.2918 H   0  0  0  0  0  0  0  0  0  0  0  0
    2.3423    0.7743   -2.0259 H   0  0  0  0  0  0  0  0  0  0  0  0
    1.7415    0.8495    1.2860 H   0  0  0  0  0  0  0  0  0  0  0  0
    1.9397   -1.7095    1.9606 H   0  0  0  0  0  0  0  0  0  0  0  0
    2.9227   -0.5073    2.7879 H   0  0  0  0  0  0  0  0  0  0  0  0
    3.7716   -2.1240    0.3476 H   0  0  0  0  0  0  0  0  0  0  0  0
    4.2960   -3.7629    1.9646 H   0  0  0  0  0  0  0  0  0  0  0  0
    4.8380   -2.5579    3.1720 H   0  0  0  0  0  0  0  0  0  0  0  0
    5.9207   -2.0726   -0.3412 H   0  0  0  0  0  0  0  0  0  0  0  0
    5.7497   -0.5935    3.0777 H   0  0  0  0  0  0  0  0  0  0  0  0
    5.4330    1.6055    3.6920 H   0  0  0  0  0  0  0  0  0  0  0  0
    4.0346    1.3361    2.6547 H   0  0  0  0  0  0  0  0  0  0  0  0
    4.8604    3.4489    1.6493 H   0  0  0  0  0  0  0  0  0  0  0  0
    8.7983    1.6991    1.3649 H   0  0  0  0  0  0  0  0  0  0  0  0
    4.4357   -0.4565   -1.0245 H   0  0  0  0  0  0  0  0  0  0  0  0
    5.3427    0.9660   -0.4359 H   0  0  0  0  0  0  0  0  0  0  0  0
   -0.7136   -0.8727   -0.6330 H   0  0  0  0  0  0  0  0  0  0  0  0
   -0.0074   -1.4057    0.9709 H   0  0  0  0  0  0  0  0  0  0  0  0
    1.1779   -2.0885   -1.8482 H   0  0  0  0  0  0  0  0  0  0  0  0
    1.8398   -2.6294   -0.2326 H   0  0  0  0  0  0  0  0  0  0  0  0
  2  1  1  6
  1 22  1  0
  1 23  1  0
  1 24  1  0
  2  3  1  0
  2 20  1  0
  2 21  1  0
  3  4  1  0
  3 19  1  0
  3 25  1  1
  4  5  1  0
  4 26  1  0
  4 27  1  0
  5  6  1  0
  5  9  1  0
  5 28  1  6
  6  7  1  0
  6 29  1  0
  6 30  1  0
  7  8  1  0
  9  8  1  6
  8 31  1  0
  9 10  1  0
  9 18  1  0
 10 11  1  0
 10 16  1  0
 10 32  1  1
 11 12  1  0
 11 33  1  0
 11 34  1  0
 12 13  2  0
 12 35  1  0
 13 14  1  0
 13 15  1  0
 15 16  2  0
 15 36  1  0
 16 17  1  0
 18 19  1  0
 18 37  1  0
 18 38  1  0
 20 21  1  0
 20 39  1  0
 20 40  1  0
 21 41  1  0
 21 42  1  0
M  END

