
     RDKit          3D

 33 34  0  0  0  0  0  0  0  0999 V2000
    3.3437   -1.5543   -3.1234 N   0  0  0  0  0  0  0  0  0  0  0  0
    2.5612   -0.6163   -2.5402 C   0  0  0  0  0  0  0  0  0  0  0  0
    1.5147   -0.1990   -2.9994 O   0  0  0  0  0  0  0  0  0  0  0  0
    3.0415   -0.1185   -1.1611 C   0  0  0  0  0  0  0  0  0  0  0  0
    4.4799   -0.0365   -0.9693 N   0  0  0  0  0  0  0  0  0  0  0  0
    5.2124    1.0916   -0.7498 C   0  0  0  0  0  0  0  0  0  0  0  0
    6.5330    0.6731   -0.6215 C   0  0  0  0  0  0  0  0  0  0  0  0
    7.6798    1.4379   -0.3846 N   0  0  0  0  0  0  0  0  0  0  0  0
    7.6864    2.7836   -0.1815 C   0  0  0  0  0  0  0  0  0  0  0  0
    6.6928    3.4878   -0.1990 O   0  0  0  0  0  0  0  0  0  0  0  0
    9.0534    3.4579    0.0420 C   0  0  1  0  0  0  0  0  0  0  0  0
   10.3843    2.2642    0.4947 Cl  0  0  0  0  0  0  0  0  0  0  0  0
    9.4815    4.2951   -1.1393 C   0  0  0  0  0  0  0  0  0  0  0  0
    9.8334    5.6385   -0.9534 C   0  0  0  0  0  0  0  0  0  0  0  0
   10.2361    6.4231   -2.0379 C   0  0  0  0  0  0  0  0  0  0  0  0
   10.2930    5.8693   -3.3189 C   0  0  0  0  0  0  0  0  0  0  0  0
    9.9443    4.5276   -3.5122 C   0  0  0  0  0  0  0  0  0  0  0  0
    9.5412    3.7454   -2.4300 C   0  0  0  0  0  0  0  0  0  0  0  0
    6.4843   -0.7324   -0.7860 C   0  0  0  0  0  0  0  0  0  0  0  0
    5.2348   -1.1441   -0.9924 N   0  0  0  0  0  0  0  0  0  0  0  0
    3.0484   -1.9400   -4.0124 H   0  0  0  0  0  0  0  0  0  0  0  0
    4.1828   -1.8901   -2.6551 H   0  0  0  0  0  0  0  0  0  0  0  0
    2.6141   -0.7857   -0.3937 H   0  0  0  0  0  0  0  0  0  0  0  0
    2.6128    0.8804   -1.0194 H   0  0  0  0  0  0  0  0  0  0  0  0
    4.7777    2.0833   -0.6885 H   0  0  0  0  0  0  0  0  0  0  0  0
    8.5640    0.9505   -0.2760 H   0  0  0  0  0  0  0  0  0  0  0  0
    8.9340    4.0942    0.9269 H   0  0  0  0  0  0  0  0  0  0  0  0
    9.7880    6.0754    0.0478 H   0  0  0  0  0  0  0  0  0  0  0  0
   10.5047    7.4706   -1.8798 H   0  0  0  0  0  0  0  0  0  0  0  0
   10.6071    6.4815   -4.1680 H   0  0  0  0  0  0  0  0  0  0  0  0
    9.9846    4.0899   -4.5128 H   0  0  0  0  0  0  0  0  0  0  0  0
    9.2723    2.6979   -2.5873 H   0  0  0  0  0  0  0  0  0  0  0  0
    7.3057   -1.4487   -0.7611 H   0  0  0  0  0  0  0  0  0  0  0  0
  1  2  1  0
  1 21  1  0
  1 22  1  0
  2  3  2  0
  2  4  1  0
  4  5  1  0
  4 23  1  0
  4 24  1  0
  5  6  1  0
  5 20  1  0
  6  7  2  0
  6 25  1  0
  7  8  1  0
  7 19  1  0
  8  9  1  0
  8 26  1  0
  9 10  2  0
  9 11  1  0
 11 12  1  0
 11 13  1  0
 11 27  1  1
 13 14  2  0
 13 18  1  0
 14 15  1  0
 14 28  1  0
 15 16  2  0
 15 29  1  0
 16 17  1  0
 16 30  1  0
 17 18  2  0
 17 31  1  0
 18 32  1  0
 19 20  2  0
 19 33  1  0
M  END

