
     RDKit          3D

 49 51  0  0  0  0  0  0  0  0999 V2000
    0.9874    1.6073    0.9756 C   0  0  0  0  0  0  0  0  0  0  0  0
    1.8257    0.4061    0.5020 C   0  0  1  0  0  0  0  0  0  0  0  0
    0.8837   -0.5825   -0.2235 C   0  0  0  0  0  0  0  0  0  0  0  0
    2.8900    0.9237   -0.4932 C   0  0  0  0  0  0  0  0  0  0  0  0
    2.5234   -0.3129    1.6736 C   0  0  0  0  0  0  0  0  0  0  0  0
    2.4012    0.1003    3.0131 C   0  0  0  0  0  0  0  0  0  0  0  0
    3.0444   -0.5698    4.0523 C   0  0  0  0  0  0  0  0  0  0  0  0
    3.8423   -1.6900    3.7865 C   0  0  0  0  0  0  0  0  0  0  0  0
    4.4346   -2.2806    4.8648 O   0  0  0  0  0  0  0  0  0  0  0  0
    5.2089   -3.4304    4.6707 C   0  0  0  0  0  0  0  0  0  0  0  0
    5.7139   -3.9873    5.9883 C   0  0  0  0  0  0  0  0  0  0  0  0
    6.6885   -4.6881    6.0745 O   0  0  0  0  0  0  0  0  0  0  0  0
    4.9304   -3.6582    7.0324 O   0  0  0  0  0  0  0  0  0  0  0  0
    5.3014   -4.2128    8.2833 C   0  0  0  0  0  0  0  0  0  0  0  0
    4.9409   -5.6666    8.3764 C   0  0  0  0  0  0  0  0  0  0  0  0
    4.1148   -6.3508    7.6534 N   0  0  0  0  0  0  0  0  0  0  0  0
    4.1853   -7.6060    8.2277 C   0  0  0  0  0  0  0  0  0  0  0  0
    3.4112   -8.7564    7.7419 C   0  0  0  0  0  0  0  0  0  0  0  0
    2.5325   -8.5980    6.6575 C   0  0  0  0  0  0  0  0  0  0  0  0
    1.7890   -9.6793    6.1848 C   0  0  0  0  0  0  0  0  0  0  0  0
    1.9332  -10.9181    6.8062 C   0  0  0  0  0  0  0  0  0  0  0  0
    1.2224  -11.9599    6.3570 F   0  0  0  0  0  0  0  0  0  0  0  0
    2.7990  -11.1035    7.8849 C   0  0  0  0  0  0  0  0  0  0  0  0
    3.5374  -10.0184    8.3506 C   0  0  0  0  0  0  0  0  0  0  0  0
    5.0059   -7.6715    9.2519 N   0  0  0  0  0  0  0  0  0  0  0  0
    5.5137   -6.3806    9.3500 O   0  0  0  0  0  0  0  0  0  0  0  0
    3.9848   -2.1242    2.4617 C   0  0  0  0  0  0  0  0  0  0  0  0
    3.3294   -1.4371    1.4348 C   0  0  0  0  0  0  0  0  0  0  0  0
    0.5063    2.0908    0.1108 H   0  0  0  0  0  0  0  0  0  0  0  0
    1.6057    2.3685    1.4770 H   0  0  0  0  0  0  0  0  0  0  0  0
    0.1885    1.3033    1.6701 H   0  0  0  0  0  0  0  0  0  0  0  0
    0.3777   -0.0857   -1.0679 H   0  0  0  0  0  0  0  0  0  0  0  0
    0.1095   -0.9644    0.4608 H   0  0  0  0  0  0  0  0  0  0  0  0
    1.4299   -1.4489   -0.6270 H   0  0  0  0  0  0  0  0  0  0  0  0
    2.4089    1.4388   -1.3412 H   0  0  0  0  0  0  0  0  0  0  0  0
    3.5000    0.1049   -0.9046 H   0  0  0  0  0  0  0  0  0  0  0  0
    3.5733    1.6367   -0.0048 H   0  0  0  0  0  0  0  0  0  0  0  0
    1.7901    0.9664    3.2682 H   0  0  0  0  0  0  0  0  0  0  0  0
    2.9393   -0.2391    5.0876 H   0  0  0  0  0  0  0  0  0  0  0  0
    6.0951   -3.2446    4.0382 H   0  0  0  0  0  0  0  0  0  0  0  0
    4.6252   -4.2422    4.1911 H   0  0  0  0  0  0  0  0  0  0  0  0
    4.7431   -3.6437    9.0418 H   0  0  0  0  0  0  0  0  0  0  0  0
    6.3798   -4.0993    8.4711 H   0  0  0  0  0  0  0  0  0  0  0  0
    2.4391   -7.6163    6.1908 H   0  0  0  0  0  0  0  0  0  0  0  0
    1.1002   -9.5779    5.3440 H   0  0  0  0  0  0  0  0  0  0  0  0
    2.8817  -12.0915    8.3416 H   0  0  0  0  0  0  0  0  0  0  0  0
    4.2212  -10.1406    9.1926 H   0  0  0  0  0  0  0  0  0  0  0  0
    4.6008   -2.9885    2.2109 H   0  0  0  0  0  0  0  0  0  0  0  0
    3.4632   -1.8036    0.4141 H   0  0  0  0  0  0  0  0  0  0  0  0
  2  1  1  1
  1 29  1  0
  1 30  1  0
  1 31  1  0
  2  3  1  0
  2  4  1  0
  2  5  1  0
  3 32  1  0
  3 33  1  0
  3 34  1  0
  4 35  1  0
  4 36  1  0
  4 37  1  0
  5  6  2  0
  5 28  1  0
  6  7  1  0
  6 38  1  0
  7  8  2  0
  7 39  1  0
  8  9  1  0
  8 27  1  0
  9 10  1  0
 10 11  1  0
 10 40  1  0
 10 41  1  0
 11 12  2  0
 11 13  1  0
 13 14  1  0
 14 15  1  0
 14 42  1  0
 14 43  1  0
 15 16  2  0
 15 26  1  0
 16 17  1  0
 17 18  1  0
 17 25  2  0
 18 19  2  0
 18 24  1  0
 19 20  1  0
 19 44  1  0
 20 21  2  0
 20 45  1  0
 21 22  1  0
 21 23  1  0
 23 24  2  0
 23 46  1  0
 24 47  1  0
 25 26  1  0
 27 28  2  0
 27 48  1  0
 28 49  1  0
M  END

