
     RDKit          3D

 38 41  0  0  0  0  0  0  0  0999 V2000
    1.5691    0.5168   -1.3059 N   0  0  0  0  0  0  0  0  0  0  0  0
    2.7931    0.3740   -0.7133 C   0  0  0  0  0  0  0  0  0  0  0  0
    3.2953    1.4731   -0.1183 N   0  0  0  0  0  0  0  0  0  0  0  0
    4.5004    1.4437    0.4692 C   0  0  0  0  0  0  0  0  0  0  0  0
    4.9536    2.5716    1.0910 N   0  0  0  0  0  0  0  0  0  0  0  0
    4.1957    3.8203    0.9895 C   0  0  0  0  0  0  0  0  0  0  0  0
    4.6132    4.7106   -0.1875 C   0  0  0  0  0  0  0  0  0  0  0  0
    6.1206    4.9911   -0.2856 C   0  0  0  0  0  0  0  0  0  0  0  0
    6.8850    3.7803   -0.5591 N   0  0  0  0  0  0  0  0  0  0  0  0
    7.3941    3.0216    0.5687 C   0  0  0  0  0  0  0  0  0  0  0  0
    6.3063    2.6953    1.6186 C   0  0  0  0  0  0  0  0  0  0  0  0
    5.1913    0.2065    0.4092 C   0  0  0  0  0  0  0  0  0  0  0  0
    6.4412   -0.1319    0.9016 O   0  0  0  0  0  0  0  0  0  0  0  0
    6.6324   -1.4359    0.5706 C   0  0  0  0  0  0  0  0  0  0  0  0
    7.7599   -2.2061    0.8601 C   0  0  0  0  0  0  0  0  0  0  0  0
    9.2272   -1.4521    1.8024 Br  0  0  0  0  0  0  0  0  0  0  0  0
    7.7681   -3.5354    0.4342 C   0  0  0  0  0  0  0  0  0  0  0  0
    6.6714   -4.0764   -0.2654 C   0  0  0  0  0  0  0  0  0  0  0  0
    5.5466   -3.3056   -0.5553 C   0  0  0  0  0  0  0  0  0  0  0  0
    5.5317   -1.9711   -0.1306 C   0  0  0  0  0  0  0  0  0  0  0  0
    4.5828   -0.8740   -0.2353 C   0  0  0  0  0  0  0  0  0  0  0  0
    3.3746   -0.8301   -0.8067 N   0  0  0  0  0  0  0  0  0  0  0  0
    1.0268    1.3402   -1.0859 H   0  0  0  0  0  0  0  0  0  0  0  0
    1.0913   -0.3251   -1.5964 H   0  0  0  0  0  0  0  0  0  0  0  0
    4.3399    4.3624    1.9404 H   0  0  0  0  0  0  0  0  0  0  0  0
    3.1327    3.5665    0.9026 H   0  0  0  0  0  0  0  0  0  0  0  0
    4.0662    5.6672   -0.1040 H   0  0  0  0  0  0  0  0  0  0  0  0
    4.2948    4.2302   -1.1267 H   0  0  0  0  0  0  0  0  0  0  0  0
    6.4715    5.5236    0.6279 H   0  0  0  0  0  0  0  0  0  0  0  0
    6.2816    5.6927   -1.1202 H   0  0  0  0  0  0  0  0  0  0  0  0
    7.6273    3.9512   -1.2303 H   0  0  0  0  0  0  0  0  0  0  0  0
    8.2186    3.5325    1.1191 H   0  0  0  0  0  0  0  0  0  0  0  0
    7.8135    2.0799    0.1799 H   0  0  0  0  0  0  0  0  0  0  0  0
    6.2672    3.4988    2.3694 H   0  0  0  0  0  0  0  0  0  0  0  0
    6.5933    1.7814    2.1539 H   0  0  0  0  0  0  0  0  0  0  0  0
    8.6398   -4.1559    0.6500 H   0  0  0  0  0  0  0  0  0  0  0  0
    6.7149   -5.1210   -0.5824 H   0  0  0  0  0  0  0  0  0  0  0  0
    4.6938   -3.7175   -1.0980 H   0  0  0  0  0  0  0  0  0  0  0  0
  1  2  1  0
  1 23  1  0
  1 24  1  0
  2  3  2  0
  2 22  1  0
  3  4  1  0
  4  5  1  0
  4 12  2  0
  5  6  1  0
  5 11  1  0
  6  7  1  0
  6 25  1  0
  6 26  1  0
  7  8  1  0
  7 27  1  0
  7 28  1  0
  8  9  1  0
  8 29  1  0
  8 30  1  0
  9 10  1  0
  9 31  1  0
 10 11  1  0
 10 32  1  0
 10 33  1  0
 11 34  1  0
 11 35  1  0
 12 13  1  0
 12 21  1  0
 13 14  1  0
 14 15  1  0
 14 20  2  0
 15 16  1  0
 15 17  2  0
 17 18  1  0
 17 36  1  0
 18 19  2  0
 18 37  1  0
 19 20  1  0
 19 38  1  0
 20 21  1  0
 21 22  2  0
M  END

