
     RDKit          3D

 59 62  0  0  0  0  0  0  0  0999 V2000
    5.3252   -2.4964   -0.5055 C   0  0  0  0  0  0  0  0  0  0  0  0
    4.5789   -2.9109    0.7401 C   0  0  0  0  0  0  0  0  0  0  0  0
    5.2577   -3.5353    1.7960 C   0  0  0  0  0  0  0  0  0  0  0  0
    4.5928   -3.9289    2.9609 C   0  0  0  0  0  0  0  0  0  0  0  0
    3.2221   -3.6997    3.0823 C   0  0  0  0  0  0  0  0  0  0  0  0
    2.5292   -3.0791    2.0382 C   0  0  0  0  0  0  0  0  0  0  0  0
    3.1879   -2.6806    0.8690 C   0  0  0  0  0  0  0  0  0  0  0  0
    2.4371   -2.0049   -0.2715 C   0  0  0  0  0  0  0  0  0  0  0  0
    1.0126   -1.7629   -0.0659 N   0  0  0  0  0  0  0  0  0  0  0  0
    0.6094   -0.5096    0.3672 C   0  0  0  0  0  0  0  0  0  0  0  0
    1.5016    0.3482    1.0656 C   0  0  0  0  0  0  0  0  0  0  0  0
    1.1024    1.6069    1.4846 C   0  0  0  0  0  0  0  0  0  0  0  0
   -0.1997    2.0936    1.2465 C   0  0  0  0  0  0  0  0  0  0  0  0
   -0.5807    3.3963    1.6975 C   0  0  0  0  0  0  0  0  0  0  0  0
   -0.8474    4.4607    2.0798 N   0  0  0  0  0  0  0  0  0  0  0  0
   -1.0879    1.2406    0.5605 C   0  0  0  0  0  0  0  0  0  0  0  0
   -2.7128    1.7718    0.2210 Cl  0  0  0  0  0  0  0  0  0  0  0  0
   -0.7009   -0.0252    0.1315 C   0  0  0  0  0  0  0  0  0  0  0  0
    0.0116   -2.6905   -0.6204 C   0  0  1  0  0  0  0  0  0  0  0  0
   -0.4613   -2.2094   -1.4966 H   0  0  0  0  0  0  0  0  0  0  0  0
    0.5756   -4.0602   -1.0742 C   0  0  0  0  0  0  0  0  0  0  0  0
   -0.5482   -5.0360   -0.7304 C   0  0  0  0  0  0  0  0  0  0  0  0
   -1.0071   -4.5252    0.5524 N   0  0  0  0  0  0  0  0  0  0  0  0
   -2.1750   -5.1675    1.1253 C   0  0  0  0  0  0  0  0  0  0  0  0
   -1.8766   -6.5143    1.7703 C   0  0  0  0  0  0  0  0  0  0  0  0
   -0.5625   -6.8215    2.1531 C   0  0  0  0  0  0  0  0  0  0  0  0
   -0.2436   -8.0271    2.7816 C   0  0  0  0  0  0  0  0  0  0  0  0
   -1.2430   -8.9660    3.0444 C   0  0  0  0  0  0  0  0  0  0  0  0
   -2.5545   -8.6832    2.6659 C   0  0  0  0  0  0  0  0  0  0  0  0
   -2.8871   -7.4724    2.0306 C   0  0  0  0  0  0  0  0  0  0  0  0
   -4.3257   -7.1905    1.6975 C   0  0  0  0  0  0  0  0  0  0  0  0
   -4.8196   -6.0922    1.7065 O   0  0  0  0  0  0  0  0  0  0  0  0
   -5.0838   -8.2686    1.3854 O   0  0  0  0  0  0  0  0  0  0  0  0
   -1.1164   -3.0806    0.3880 C   0  0  0  0  0  0  0  0  0  0  0  0
    6.3910   -2.7569   -0.4354 H   0  0  0  0  0  0  0  0  0  0  0  0
    5.2599   -1.4090   -0.6827 H   0  0  0  0  0  0  0  0  0  0  0  0
    4.9224   -2.9850   -1.4095 H   0  0  0  0  0  0  0  0  0  0  0  0
    6.3325   -3.7148    1.7010 H   0  0  0  0  0  0  0  0  0  0  0  0
    5.1476   -4.4114    3.7695 H   0  0  0  0  0  0  0  0  0  0  0  0
    2.6880   -3.9991    3.9876 H   0  0  0  0  0  0  0  0  0  0  0  0
    1.4563   -2.9003    2.1271 H   0  0  0  0  0  0  0  0  0  0  0  0
    2.5646   -2.5997   -1.1893 H   0  0  0  0  0  0  0  0  0  0  0  0
    2.9213   -1.0426   -0.5051 H   0  0  0  0  0  0  0  0  0  0  0  0
    2.5063    0.0103    1.3146 H   0  0  0  0  0  0  0  0  0  0  0  0
    1.8062    2.2412    2.0271 H   0  0  0  0  0  0  0  0  0  0  0  0
   -1.4379   -0.6173   -0.4044 H   0  0  0  0  0  0  0  0  0  0  0  0
    1.4564   -4.3347   -0.4794 H   0  0  0  0  0  0  0  0  0  0  0  0
    0.8536   -4.0758   -2.1383 H   0  0  0  0  0  0  0  0  0  0  0  0
   -0.1990   -6.0774   -0.6520 H   0  0  0  0  0  0  0  0  0  0  0  0
   -1.3541   -5.0134   -1.5016 H   0  0  0  0  0  0  0  0  0  0  0  0
   -2.9906   -5.2710    0.3816 H   0  0  0  0  0  0  0  0  0  0  0  0
   -2.5945   -4.5080    1.9034 H   0  0  0  0  0  0  0  0  0  0  0  0
    0.2124   -6.0797    1.9525 H   0  0  0  0  0  0  0  0  0  0  0  0
    0.7904   -8.2290    3.0731 H   0  0  0  0  0  0  0  0  0  0  0  0
   -1.0077   -9.9061    3.5486 H   0  0  0  0  0  0  0  0  0  0  0  0
   -3.3420   -9.4032    2.9067 H   0  0  0  0  0  0  0  0  0  0  0  0
   -4.5244   -9.0521    1.2876 H   0  0  0  0  0  0  0  0  0  0  0  0
   -1.0151   -2.5629    1.3543 H   0  0  0  0  0  0  0  0  0  0  0  0
   -2.1045   -2.7938   -0.0350 H   0  0  0  0  0  0  0  0  0  0  0  0
  1  2  1  0
  1 35  1  0
  1 36  1  0
  1 37  1  0
  2  3  2  0
  2  7  1  0
  3  4  1  0
  3 38  1  0
  4  5  2  0
  4 39  1  0
  5  6  1  0
  5 40  1  0
  6  7  2  0
  6 41  1  0
  7  8  1  0
  8  9  1  0
  8 42  1  0
  8 43  1  0
  9 10  1  0
  9 19  1  0
 10 11  2  0
 10 18  1  0
 11 12  1  0
 11 44  1  0
 12 13  2  0
 12 45  1  0
 13 14  1  0
 13 16  1  0
 14 15  3  0
 16 17  1  0
 16 18  2  0
 18 46  1  0
 19 20  1  6
 19 21  1  0
 19 34  1  0
 21 22  1  0
 21 47  1  0
 21 48  1  0
 22 23  1  0
 22 49  1  0
 22 50  1  0
 23 24  1  0
 23 34  1  0
 24 25  1  0
 24 51  1  0
 24 52  1  0
 25 26  2  0
 25 30  1  0
 26 27  1  0
 26 53  1  0
 27 28  2  0
 27 54  1  0
 28 29  1  0
 28 55  1  0
 29 30  2  0
 29 56  1  0
 30 31  1  0
 31 32  2  0
 31 33  1  0
 33 57  1  0
 34 58  1  0
 34 59  1  0
M  END

