
     RDKit          3D

 40 39  0  0  0  0  0  0  0  0999 V2000
    2.6048    5.3453   -0.0316 C   0  0  0  0  0  0  0  0  0  0  0  0
    3.8191    4.8311    0.5140 O   0  0  0  0  0  0  0  0  0  0  0  0
    3.8029    3.5378    0.8924 C   0  0  0  0  0  0  0  0  0  0  0  0
    2.8304    2.8310    0.7904 O   0  0  0  0  0  0  0  0  0  0  0  0
    5.1520    3.1122    1.4343 C   0  0  0  0  0  0  0  0  0  0  0  0
    5.1364    1.7117    2.0425 C   0  0  0  0  0  0  0  0  0  0  0  0
    6.5147    1.2276    2.4991 C   0  0  0  0  0  0  0  0  0  0  0  0
    7.0714    2.0403    3.6585 C   0  0  0  0  0  0  0  0  0  0  0  0
    6.3789    2.5399    4.5374 O   0  0  0  0  0  0  0  0  0  0  0  0
    8.4242    2.1733    3.6772 N   0  0  0  0  0  0  0  0  0  0  0  0
    9.0211    2.8288    4.7343 N   0  0  0  0  0  0  0  0  0  0  0  0
   10.3785    2.8622    4.8050 C   0  0  0  0  0  0  0  0  0  0  0  0
   11.0629    2.3633    3.9173 O   0  0  0  0  0  0  0  0  0  0  0  0
   10.9459    3.5330    6.0437 C   0  0  0  0  0  0  0  0  0  0  0  0
   12.2603    4.2710    5.7651 C   0  0  0  0  0  0  0  0  0  0  0  0
   12.1401    5.4617    4.8124 C   0  0  0  0  0  0  0  0  0  0  0  0
   11.3271    6.6200    5.3531 C   0  0  0  0  0  0  0  0  0  0  0  0
   10.7634    6.6529    6.4220 O   0  0  0  0  0  0  0  0  0  0  0  0
   11.3031    7.6442    4.4803 O   0  0  0  0  0  0  0  0  0  0  0  0
   10.5631    8.7997    4.8750 C   0  0  0  0  0  0  0  0  0  0  0  0
    2.8011    6.3954   -0.2819 H   0  0  0  0  0  0  0  0  0  0  0  0
    1.7852    5.2751    0.6997 H   0  0  0  0  0  0  0  0  0  0  0  0
    2.3113    4.7871   -0.9339 H   0  0  0  0  0  0  0  0  0  0  0  0
    5.4732    3.8668    2.1708 H   0  0  0  0  0  0  0  0  0  0  0  0
    5.8732    3.1825    0.5992 H   0  0  0  0  0  0  0  0  0  0  0  0
    4.7227    1.0004    1.3117 H   0  0  0  0  0  0  0  0  0  0  0  0
    4.4563    1.7022    2.9076 H   0  0  0  0  0  0  0  0  0  0  0  0
    7.2347    1.2170    1.6625 H   0  0  0  0  0  0  0  0  0  0  0  0
    6.4317    0.1844    2.8523 H   0  0  0  0  0  0  0  0  0  0  0  0
    9.0924    1.7759    3.0221 H   0  0  0  0  0  0  0  0  0  0  0  0
    8.3605    3.1900    5.4175 H   0  0  0  0  0  0  0  0  0  0  0  0
   11.1357    2.7315    6.7798 H   0  0  0  0  0  0  0  0  0  0  0  0
   10.2073    4.2120    6.4955 H   0  0  0  0  0  0  0  0  0  0  0  0
   12.9726    3.5546    5.3287 H   0  0  0  0  0  0  0  0  0  0  0  0
   12.6793    4.6115    6.7249 H   0  0  0  0  0  0  0  0  0  0  0  0
   11.7037    5.1577    3.8455 H   0  0  0  0  0  0  0  0  0  0  0  0
   13.1378    5.8576    4.5580 H   0  0  0  0  0  0  0  0  0  0  0  0
   10.6505    9.5164    4.0490 H   0  0  0  0  0  0  0  0  0  0  0  0
   10.9744    9.2324    5.7998 H   0  0  0  0  0  0  0  0  0  0  0  0
    9.5061    8.5481    5.0510 H   0  0  0  0  0  0  0  0  0  0  0  0
  1  2  1  0
  1 21  1  0
  1 22  1  0
  1 23  1  0
  2  3  1  0
  3  4  2  0
  3  5  1  0
  5  6  1  0
  5 24  1  0
  5 25  1  0
  6  7  1  0
  6 26  1  0
  6 27  1  0
  7  8  1  0
  7 28  1  0
  7 29  1  0
  8  9  2  0
  8 10  1  0
 10 11  1  0
 10 30  1  0
 11 12  1  0
 11 31  1  0
 12 13  2  0
 12 14  1  0
 14 15  1  0
 14 32  1  0
 14 33  1  0
 15 16  1  0
 15 34  1  0
 15 35  1  0
 16 17  1  0
 16 36  1  0
 16 37  1  0
 17 18  2  0
 17 19  1  0
 19 20  1  0
 20 38  1  0
 20 39  1  0
 20 40  1  0
M  END

