
     RDKit          3D

 55 61  0  0  0  0  0  0  0  0999 V2000
    5.5327    3.3125   -1.3992 O   0  0  0  0  0  0  0  0  0  0  0  0
    5.4786    2.1319   -1.6078 C   0  0  0  0  0  0  0  0  0  0  0  0
    4.7134    1.6867   -2.6642 O   0  0  0  0  0  0  0  0  0  0  0  0
    4.5293    0.3664   -3.0434 C   0  0  0  0  0  0  0  0  0  0  0  0
    3.8093    0.1423   -3.9770 O   0  0  0  0  0  0  0  0  0  0  0  0
    5.2487   -0.6528   -2.2549 C   0  0  0  0  0  0  0  0  0  0  0  0
    5.1076   -1.9962   -2.5703 C   0  0  0  0  0  0  0  0  0  0  0  0
    5.8022   -2.9789   -1.8502 C   0  0  0  0  0  0  0  0  0  0  0  0
    6.6567   -2.6506   -0.7958 C   0  0  0  0  0  0  0  0  0  0  0  0
    7.3361   -3.6782   -0.1073 N   0  0  0  0  0  0  0  0  0  0  0  0
    8.7278   -3.6089    0.1818 C   0  0  0  0  0  0  0  0  0  0  0  0
    9.2497   -4.2983    1.2908 C   0  0  0  0  0  0  0  0  0  0  0  0
   10.6168   -4.2513    1.5703 C   0  0  0  0  0  0  0  0  0  0  0  0
   11.4857   -3.5121    0.7620 C   0  0  0  0  0  0  0  0  0  0  0  0
   10.9696   -2.8272   -0.3426 C   0  0  0  0  0  0  0  0  0  0  0  0
    9.6072   -2.8803   -0.6406 C   0  0  0  0  0  0  0  0  0  0  0  0
    6.6495   -4.9232    0.1175 C   0  0  0  0  0  0  0  0  0  0  0  0
    6.9632   -6.0592   -0.6690 C   0  0  0  0  0  0  0  0  0  0  0  0
    7.9243   -6.0314   -1.7316 C   0  0  0  0  0  0  0  0  0  0  0  0
    8.1951   -7.1552   -2.4733 C   0  0  0  0  0  0  0  0  0  0  0  0
    7.5273   -8.3857   -2.2058 C   0  0  0  0  0  0  0  0  0  0  0  0
    6.5917   -8.4534   -1.2054 C   0  0  0  0  0  0  0  0  0  0  0  0
    6.2717   -7.3043   -0.4126 C   0  0  0  0  0  0  0  0  0  0  0  0
    5.2926   -7.3569    0.5882 C   0  0  0  0  0  0  0  0  0  0  0  0
    4.9665   -6.2347    1.3603 C   0  0  0  0  0  0  0  0  0  0  0  0
    3.9643   -6.2942    2.3819 C   0  0  0  0  0  0  0  0  0  0  0  0
    3.6681   -5.1963    3.1484 C   0  0  0  0  0  0  0  0  0  0  0  0
    4.3677   -3.9719    2.9389 C   0  0  0  0  0  0  0  0  0  0  0  0
    5.3326   -3.8707    1.9670 C   0  0  0  0  0  0  0  0  0  0  0  0
    5.6648   -4.9877    1.1336 C   0  0  0  0  0  0  0  0  0  0  0  0
    6.7764   -1.2643   -0.4003 C   0  0  0  0  0  0  0  0  0  0  0  0
    7.5087   -0.8249    0.7369 C   0  0  0  0  0  0  0  0  0  0  0  0
    7.5816    0.5152    1.0752 C   0  0  0  0  0  0  0  0  0  0  0  0
    6.9312    1.4881    0.2918 C   0  0  0  0  0  0  0  0  0  0  0  0
    6.1832    1.0987   -0.8081 C   0  0  0  0  0  0  0  0  0  0  0  0
    6.0768   -0.2742   -1.1645 C   0  0  0  0  0  0  0  0  0  0  0  0
    4.4618   -2.2739   -3.4057 H   0  0  0  0  0  0  0  0  0  0  0  0
    5.6926   -4.0252   -2.1350 H   0  0  0  0  0  0  0  0  0  0  0  0
    8.5790   -4.8704    1.9338 H   0  0  0  0  0  0  0  0  0  0  0  0
   11.0031   -4.7945    2.4367 H   0  0  0  0  0  0  0  0  0  0  0  0
   12.5538   -3.4739    0.9872 H   0  0  0  0  0  0  0  0  0  0  0  0
   11.6359   -2.2537   -0.9922 H   0  0  0  0  0  0  0  0  0  0  0  0
    9.2222   -2.3557   -1.5170 H   0  0  0  0  0  0  0  0  0  0  0  0
    8.4464   -5.1010   -1.9518 H   0  0  0  0  0  0  0  0  0  0  0  0
    8.9314   -7.1073   -3.2795 H   0  0  0  0  0  0  0  0  0  0  0  0
    7.7607   -9.2696   -2.8044 H   0  0  0  0  0  0  0  0  0  0  0  0
    6.0664   -9.3893   -0.9971 H   0  0  0  0  0  0  0  0  0  0  0  0
    4.7673   -8.2987    0.7695 H   0  0  0  0  0  0  0  0  0  0  0  0
    3.4396   -7.2403    2.5389 H   0  0  0  0  0  0  0  0  0  0  0  0
    2.9009   -5.2553    3.9243 H   0  0  0  0  0  0  0  0  0  0  0  0
    4.1328   -3.1051    3.5617 H   0  0  0  0  0  0  0  0  0  0  0  0
    5.8605   -2.9288    1.8239 H   0  0  0  0  0  0  0  0  0  0  0  0
    8.0211   -1.5555    1.3610 H   0  0  0  0  0  0  0  0  0  0  0  0
    8.1480    0.8198    1.9580 H   0  0  0  0  0  0  0  0  0  0  0  0
    6.9889    2.5500    0.5379 H   0  0  0  0  0  0  0  0  0  0  0  0
  1  2  2  0
  2  3  1  0
  2 35  1  0
  3  4  1  0
  4  5  2  0
  4  6  1  0
  6  7  1  0
  6 36  2  0
  7  8  2  0
  7 37  1  0
  8  9  1  0
  8 38  1  0
  9 10  1  0
  9 31  2  0
 10 11  1  0
 10 17  1  0
 11 12  2  0
 11 16  1  0
 12 13  1  0
 12 39  1  0
 13 14  2  0
 13 40  1  0
 14 15  1  0
 14 41  1  0
 15 16  2  0
 15 42  1  0
 16 43  1  0
 17 18  1  0
 17 30  2  0
 18 19  2  0
 18 23  1  0
 19 20  1  0
 19 44  1  0
 20 21  2  0
 20 45  1  0
 21 22  1  0
 21 46  1  0
 22 23  2  0
 22 47  1  0
 23 24  1  0
 24 25  2  0
 24 48  1  0
 25 26  1  0
 25 30  1  0
 26 27  2  0
 26 49  1  0
 27 28  1  0
 27 50  1  0
 28 29  2  0
 28 51  1  0
 29 30  1  0
 29 52  1  0
 31 32  1  0
 31 36  1  0
 32 33  2  0
 32 53  1  0
 33 34  1  0
 33 54  1  0
 34 35  2  0
 34 55  1  0
 35 36  1  0
M  END

