
     RDKit          3D

 38 39  0  0  0  0  0  0  0  0999 V2000
    1.6903    0.2119   -0.7751 C   0  0  0  0  0  0  0  0  0  0  0  0
    2.1194   -0.0516    0.6709 C   0  0  1  0  0  0  0  0  0  0  0  0
    0.9676    0.1096    1.6668 C   0  0  0  0  0  0  0  0  0  0  0  0
    2.7250   -1.3829    0.7946 N   0  0  0  0  0  0  0  0  0  0  0  0
    4.0110   -1.6778    1.1603 C   0  0  0  0  0  0  0  0  0  0  0  0
    4.1050   -3.0653    1.1282 C   0  0  0  0  0  0  0  0  0  0  0  0
    5.1507   -3.8811    1.4042 O   0  0  0  0  0  0  0  0  0  0  0  0
    6.3659   -3.2585    1.7779 C   0  0  0  0  0  0  0  0  0  0  0  0
    7.4022   -4.3577    2.0212 C   0  0  1  0  0  0  0  0  0  0  0  0
    7.6402   -5.2295    0.7805 C   0  0  0  0  0  0  0  0  0  0  0  0
    8.4069   -4.2791   -0.7739 Br  0  0  0  0  0  0  0  0  0  0  0  0
    8.6738   -3.8468    2.6814 C   0  0  0  0  0  0  0  0  0  0  0  0
    9.3137   -2.6650    2.2713 C   0  0  0  0  0  0  0  0  0  0  0  0
   10.4877   -2.2332    2.8957 C   0  0  0  0  0  0  0  0  0  0  0  0
   11.0477   -2.9753    3.9389 C   0  0  0  0  0  0  0  0  0  0  0  0
   10.4228   -4.1536    4.3566 C   0  0  0  0  0  0  0  0  0  0  0  0
    9.2470   -4.5798    3.7339 C   0  0  0  0  0  0  0  0  0  0  0  0
    2.8201   -3.5087    0.7321 C   0  0  0  0  0  0  0  0  0  0  0  0
    2.0041   -2.4747    0.5364 N   0  0  0  0  0  0  0  0  0  0  0  0
    1.2726    1.2261   -0.8725 H   0  0  0  0  0  0  0  0  0  0  0  0
    0.9242   -0.5154   -1.0822 H   0  0  0  0  0  0  0  0  0  0  0  0
    2.5454    0.1214   -1.4624 H   0  0  0  0  0  0  0  0  0  0  0  0
    2.9244    0.6522    0.9385 H   0  0  0  0  0  0  0  0  0  0  0  0
    0.1751   -0.6225    1.4521 H   0  0  0  0  0  0  0  0  0  0  0  0
    0.5400    1.1221    1.5983 H   0  0  0  0  0  0  0  0  0  0  0  0
    1.3141   -0.0514    2.6993 H   0  0  0  0  0  0  0  0  0  0  0  0
    4.7318   -0.9024    1.4043 H   0  0  0  0  0  0  0  0  0  0  0  0
    6.2256   -2.6670    2.7021 H   0  0  0  0  0  0  0  0  0  0  0  0
    6.6954   -2.5706    0.9777 H   0  0  0  0  0  0  0  0  0  0  0  0
    6.9265   -5.0561    2.7342 H   0  0  0  0  0  0  0  0  0  0  0  0
    6.6916   -5.6431    0.4196 H   0  0  0  0  0  0  0  0  0  0  0  0
    8.3460   -6.0401    0.9976 H   0  0  0  0  0  0  0  0  0  0  0  0
    8.9030   -2.0772    1.4487 H   0  0  0  0  0  0  0  0  0  0  0  0
   10.9692   -1.3109    2.5604 H   0  0  0  0  0  0  0  0  0  0  0  0
   11.9659   -2.6361    4.4252 H   0  0  0  0  0  0  0  0  0  0  0  0
   10.8480   -4.7415    5.1741 H   0  0  0  0  0  0  0  0  0  0  0  0
    8.7606   -5.4990    4.0743 H   0  0  0  0  0  0  0  0  0  0  0  0
    2.4797   -4.5332    0.5883 H   0  0  0  0  0  0  0  0  0  0  0  0
  1  2  1  0
  1 20  1  0
  1 21  1  0
  1 22  1  0
  2  3  1  0
  2  4  1  0
  2 23  1  1
  3 24  1  0
  3 25  1  0
  3 26  1  0
  4  5  1  0
  4 19  1  0
  5  6  2  0
  5 27  1  0
  6  7  1  0
  6 18  1  0
  7  8  1  0
  8  9  1  0
  8 28  1  0
  8 29  1  0
  9 10  1  0
  9 12  1  0
  9 30  1  1
 10 11  1  0
 10 31  1  0
 10 32  1  0
 12 13  2  0
 12 17  1  0
 13 14  1  0
 13 33  1  0
 14 15  2  0
 14 34  1  0
 15 16  1  0
 15 35  1  0
 16 17  2  0
 16 36  1  0
 17 37  1  0
 18 19  2  0
 18 38  1  0
M  END

