
     RDKit          3D

 64 67  0  0  0  0  0  0  0  0999 V2000
    6.7875   -0.4047    6.3070 C   0  0  0  0  0  0  0  0  0  0  0  0
    7.7003   -0.1143    5.1206 C   0  0  0  0  0  0  0  0  0  0  0  0
    6.9887   -0.2162    3.7751 C   0  0  0  0  0  0  0  0  0  0  0  0
    5.8076   -0.5058    3.7169 O   0  0  0  0  0  0  0  0  0  0  0  0
    7.7723    0.0477    2.5240 C   0  0  0  0  0  0  0  0  0  0  0  0
    9.1416    0.3800    2.5147 C   0  0  0  0  0  0  0  0  0  0  0  0
    9.8128    0.6119    1.3203 C   0  0  0  0  0  0  0  0  0  0  0  0
    9.1284    0.5173    0.0954 C   0  0  0  0  0  0  0  0  0  0  0  0
    9.8661    0.7548   -1.0187 O   0  0  0  0  0  0  0  0  0  0  0  0
    9.2490    0.6997   -2.2946 C   0  0  0  0  0  0  0  0  0  0  0  0
   10.2517    1.1183   -3.3767 C   0  0  0  0  0  0  0  0  0  0  0  0
    9.9642    2.0413   -4.1226 O   0  0  0  0  0  0  0  0  0  0  0  0
   11.4250    0.4183   -3.4745 N   0  0  0  0  0  0  0  0  0  0  0  0
   11.8203   -0.7333   -2.6680 C   0  0  0  0  0  0  0  0  0  0  0  0
   12.3176   -1.8694   -3.5798 C   0  0  0  0  0  0  0  0  0  0  0  0
   13.3677   -1.4676   -4.5075 N   0  0  0  0  0  0  0  0  0  0  0  0
   14.7338   -1.3450   -3.9894 C   0  0  1  0  0  0  0  0  0  0  0  0
   15.1527   -2.5310   -3.1054 C   0  0  0  0  0  0  0  0  0  0  0  0
   15.6996   -1.2406   -5.1425 C   0  0  0  0  0  0  0  0  0  0  0  0
   16.5992   -0.3284   -5.3484 N   0  0  0  0  0  0  0  0  0  0  0  0
   17.2215   -0.7657   -6.5021 C   0  0  0  0  0  0  0  0  0  0  0  0
   18.3312   -0.0466   -7.1428 C   0  0  0  0  0  0  0  0  0  0  0  0
   18.8128    1.1442   -6.5804 C   0  0  0  0  0  0  0  0  0  0  0  0
   19.8669    1.8322   -7.1844 C   0  0  0  0  0  0  0  0  0  0  0  0
   20.4680    1.3565   -8.3589 C   0  0  0  0  0  0  0  0  0  0  0  0
   21.6089    2.0939   -9.0150 C   0  0  0  0  0  0  0  0  0  0  0  0
   19.9758    0.1604   -8.9142 C   0  0  0  0  0  0  0  0  0  0  0  0
   18.9259   -0.5337   -8.3212 C   0  0  0  0  0  0  0  0  0  0  0  0
   16.7202   -1.8863   -6.9728 N   0  0  0  0  0  0  0  0  0  0  0  0
   15.7122   -2.2038   -6.0727 O   0  0  0  0  0  0  0  0  0  0  0  0
   12.9073   -0.3250   -5.3000 C   0  0  0  0  0  0  0  0  0  0  0  0
   12.4309    0.8566   -4.4440 C   0  0  0  0  0  0  0  0  0  0  0  0
    7.7615    0.1909    0.0859 C   0  0  0  0  0  0  0  0  0  0  0  0
    7.1039   -0.0399    1.2929 C   0  0  0  0  0  0  0  0  0  0  0  0
    7.3402   -0.3204    7.2552 H   0  0  0  0  0  0  0  0  0  0  0  0
    6.3630   -1.4173    6.2400 H   0  0  0  0  0  0  0  0  0  0  0  0
    5.9405    0.2967    6.3342 H   0  0  0  0  0  0  0  0  0  0  0  0
    8.5622   -0.8059    5.1078 H   0  0  0  0  0  0  0  0  0  0  0  0
    8.1422    0.8953    5.2008 H   0  0  0  0  0  0  0  0  0  0  0  0
    9.6986    0.4618    3.4498 H   0  0  0  0  0  0  0  0  0  0  0  0
   10.8726    0.8734    1.3050 H   0  0  0  0  0  0  0  0  0  0  0  0
    8.4190    1.4185   -2.3655 H   0  0  0  0  0  0  0  0  0  0  0  0
    8.8524   -0.3143   -2.4957 H   0  0  0  0  0  0  0  0  0  0  0  0
   10.9782   -1.0851   -2.0619 H   0  0  0  0  0  0  0  0  0  0  0  0
   12.6149   -0.4332   -1.9578 H   0  0  0  0  0  0  0  0  0  0  0  0
   11.4627   -2.2240   -4.1833 H   0  0  0  0  0  0  0  0  0  0  0  0
   12.6441   -2.7207   -2.9680 H   0  0  0  0  0  0  0  0  0  0  0  0
   14.9042   -0.4138   -3.4100 H   0  0  0  0  0  0  0  0  0  0  0  0
   14.9672   -3.4828   -3.6254 H   0  0  0  0  0  0  0  0  0  0  0  0
   14.6146   -2.5340   -2.1470 H   0  0  0  0  0  0  0  0  0  0  0  0
   16.2263   -2.4602   -2.8772 H   0  0  0  0  0  0  0  0  0  0  0  0
   18.3515    1.5230   -5.6667 H   0  0  0  0  0  0  0  0  0  0  0  0
   20.2299    2.7597   -6.7329 H   0  0  0  0  0  0  0  0  0  0  0  0
   21.8561    3.0208   -8.4772 H   0  0  0  0  0  0  0  0  0  0  0  0
   21.3651    2.3616  -10.0567 H   0  0  0  0  0  0  0  0  0  0  0  0
   22.5188    1.4711   -9.0497 H   0  0  0  0  0  0  0  0  0  0  0  0
   20.4270   -0.2316   -9.8306 H   0  0  0  0  0  0  0  0  0  0  0  0
   18.5543   -1.4600   -8.7637 H   0  0  0  0  0  0  0  0  0  0  0  0
   12.0710   -0.6663   -5.9347 H   0  0  0  0  0  0  0  0  0  0  0  0
   13.7069    0.0115   -5.9770 H   0  0  0  0  0  0  0  0  0  0  0  0
   11.9764    1.6393   -5.0638 H   0  0  0  0  0  0  0  0  0  0  0  0
   13.2840    1.3080   -3.9027 H   0  0  0  0  0  0  0  0  0  0  0  0
    7.2066    0.1178   -0.8495 H   0  0  0  0  0  0  0  0  0  0  0  0
    6.0423   -0.2953    1.3057 H   0  0  0  0  0  0  0  0  0  0  0  0
  1  2  1  0
  1 35  1  0
  1 36  1  0
  1 37  1  0
  2  3  1  0
  2 38  1  0
  2 39  1  0
  3  4  2  0
  3  5  1  0
  5  6  2  0
  5 34  1  0
  6  7  1  0
  6 40  1  0
  7  8  2  0
  7 41  1  0
  8  9  1  0
  8 33  1  0
  9 10  1  0
 10 11  1  0
 10 42  1  0
 10 43  1  0
 11 12  2  0
 11 13  1  0
 13 14  1  0
 13 32  1  0
 14 15  1  0
 14 44  1  0
 14 45  1  0
 15 16  1  0
 15 46  1  0
 15 47  1  0
 16 17  1  0
 16 31  1  0
 17 18  1  0
 17 19  1  0
 17 48  1  1
 18 49  1  0
 18 50  1  0
 18 51  1  0
 19 20  2  0
 19 30  1  0
 20 21  1  0
 21 22  1  0
 21 29  2  0
 22 23  2  0
 22 28  1  0
 23 24  1  0
 23 52  1  0
 24 25  2  0
 24 53  1  0
 25 26  1  0
 25 27  1  0
 26 54  1  0
 26 55  1  0
 26 56  1  0
 27 28  2  0
 27 57  1  0
 28 58  1  0
 29 30  1  0
 31 32  1  0
 31 59  1  0
 31 60  1  0
 32 61  1  0
 32 62  1  0
 33 34  2  0
 33 63  1  0
 34 64  1  0
M  END

