
     RDKit          3D

 57 61  0  0  0  0  0  0  0  0999 V2000
    2.6979    0.5832    3.6906 C   0  0  0  0  0  0  0  0  0  0  0  0
    2.5646   -0.3832    2.5379 C   0  0  0  0  0  0  0  0  0  0  0  0
    1.7711   -0.0874    1.4222 C   0  0  0  0  0  0  0  0  0  0  0  0
    1.6664   -0.9904    0.3570 C   0  0  0  0  0  0  0  0  0  0  0  0
    2.3477   -2.2055    0.3926 C   0  0  0  0  0  0  0  0  0  0  0  0
    3.1495   -2.5233    1.5013 C   0  0  0  0  0  0  0  0  0  0  0  0
    3.8582   -3.8514    1.5589 C   0  0  0  0  0  0  0  0  0  0  0  0
    4.6246   -4.0291    0.3528 O   0  0  0  0  0  0  0  0  0  0  0  0
    5.0161   -5.2687   -0.0109 C   0  0  0  0  0  0  0  0  0  0  0  0
    6.3572   -5.5416   -0.1563 C   0  0  0  0  0  0  0  0  0  0  0  0
    6.7822   -6.8133   -0.6239 C   0  0  0  0  0  0  0  0  0  0  0  0
    5.8559   -7.7691   -0.9205 C   0  0  0  0  0  0  0  0  0  0  0  0
    4.5088   -7.5072   -0.7832 N   0  0  0  0  0  0  0  0  0  0  0  0
    3.5918   -8.5835   -1.1389 C   0  0  0  0  0  0  0  0  0  0  0  0
    4.0838   -9.6354   -1.5193 O   0  0  0  0  0  0  0  0  0  0  0  0
    2.1907   -8.2559   -0.9964 C   0  0  0  0  0  0  0  0  0  0  0  0
    1.2217   -9.3165   -1.3245 C   0  0  0  0  0  0  0  0  0  0  0  0
    1.4605  -10.5608   -1.9908 C   0  0  0  0  0  0  0  0  0  0  0  0
    0.2363  -11.1899   -2.0662 C   0  0  0  0  0  0  0  0  0  0  0  0
   -0.1392  -12.4977   -2.6865 C   0  0  0  0  0  0  0  0  0  0  0  0
   -0.6597  -10.3349   -1.4571 N   0  0  0  0  0  0  0  0  0  0  0  0
   -2.0561  -10.4933   -1.2941 C   0  0  0  0  0  0  0  0  0  0  0  0
   -2.5849  -11.6250   -0.6601 C   0  0  0  0  0  0  0  0  0  0  0  0
   -3.9640  -11.7529   -0.5179 C   0  0  0  0  0  0  0  0  0  0  0  0
   -4.4530  -12.8435    0.0888 F   0  0  0  0  0  0  0  0  0  0  0  0
   -4.8421  -10.7720   -0.9718 C   0  0  0  0  0  0  0  0  0  0  0  0
   -4.3169   -9.6378   -1.5952 C   0  0  0  0  0  0  0  0  0  0  0  0
   -2.9410   -9.5055   -1.7618 C   0  0  0  0  0  0  0  0  0  0  0  0
   -2.4659   -8.4300   -2.3933 F   0  0  0  0  0  0  0  0  0  0  0  0
   -0.0724   -9.2059   -1.0122 N   0  0  0  0  0  0  0  0  0  0  0  0
    1.8285   -6.9634   -0.5728 C   0  0  0  0  0  0  0  0  0  0  0  0
    0.4030   -6.5071   -0.4239 C   0  0  0  0  0  0  0  0  0  0  0  0
    2.7432   -6.0199   -0.2592 N   0  0  0  0  0  0  0  0  0  0  0  0
    4.0319   -6.2782   -0.3488 C   0  0  0  0  0  0  0  0  0  0  0  0
    3.2523   -1.6095    2.5542 C   0  0  0  0  0  0  0  0  0  0  0  0
    2.0750    1.4776    3.5426 H   0  0  0  0  0  0  0  0  0  0  0  0
    3.7417    0.9184    3.8142 H   0  0  0  0  0  0  0  0  0  0  0  0
    2.3964    0.1167    4.6434 H   0  0  0  0  0  0  0  0  0  0  0  0
    1.2296    0.8623    1.3832 H   0  0  0  0  0  0  0  0  0  0  0  0
    1.0432   -0.7404   -0.5058 H   0  0  0  0  0  0  0  0  0  0  0  0
    2.2723   -2.9175   -0.4318 H   0  0  0  0  0  0  0  0  0  0  0  0
    3.1267   -4.6686    1.6448 H   0  0  0  0  0  0  0  0  0  0  0  0
    4.5447   -3.8907    2.4233 H   0  0  0  0  0  0  0  0  0  0  0  0
    7.0754   -4.7564    0.0867 H   0  0  0  0  0  0  0  0  0  0  0  0
    7.8430   -7.0381   -0.7428 H   0  0  0  0  0  0  0  0  0  0  0  0
    6.0736   -8.7736   -1.2786 H   0  0  0  0  0  0  0  0  0  0  0  0
    2.4110  -10.9263   -2.3605 H   0  0  0  0  0  0  0  0  0  0  0  0
    0.6798  -12.8428   -3.3324 H   0  0  0  0  0  0  0  0  0  0  0  0
   -1.0492  -12.4143   -3.3018 H   0  0  0  0  0  0  0  0  0  0  0  0
   -0.3219  -13.2852   -1.9362 H   0  0  0  0  0  0  0  0  0  0  0  0
   -1.9272  -12.3955   -0.2582 H   0  0  0  0  0  0  0  0  0  0  0  0
   -5.9167  -10.9025   -0.8350 H   0  0  0  0  0  0  0  0  0  0  0  0
   -4.9667   -8.8464   -1.9732 H   0  0  0  0  0  0  0  0  0  0  0  0
   -0.2005   -6.7532   -1.3083 H   0  0  0  0  0  0  0  0  0  0  0  0
    0.3961   -5.4260   -0.2352 H   0  0  0  0  0  0  0  0  0  0  0  0
   -0.0877   -7.0314    0.4103 H   0  0  0  0  0  0  0  0  0  0  0  0
    3.8859   -1.8534    3.4137 H   0  0  0  0  0  0  0  0  0  0  0  0
  1  2  1  0
  1 36  1  0
  1 37  1  0
  1 38  1  0
  2  3  2  0
  2 35  1  0
  3  4  1  0
  3 39  1  0
  4  5  2  0
  4 40  1  0
  5  6  1  0
  5 41  1  0
  6  7  1  0
  6 35  2  0
  7  8  1  0
  7 42  1  0
  7 43  1  0
  8  9  1  0
  9 10  2  0
  9 34  1  0
 10 11  1  0
 10 44  1  0
 11 12  2  0
 11 45  1  0
 12 13  1  0
 12 46  1  0
 13 14  1  0
 13 34  1  0
 14 15  2  0
 14 16  1  0
 16 17  1  0
 16 31  2  0
 17 18  1  0
 17 30  2  0
 18 19  2  0
 18 47  1  0
 19 20  1  0
 19 21  1  0
 20 48  1  0
 20 49  1  0
 20 50  1  0
 21 22  1  0
 21 30  1  0
 22 23  2  0
 22 28  1  0
 23 24  1  0
 23 51  1  0
 24 25  1  0
 24 26  2  0
 26 27  1  0
 26 52  1  0
 27 28  2  0
 27 53  1  0
 28 29  1  0
 31 32  1  0
 31 33  1  0
 32 54  1  0
 32 55  1  0
 32 56  1  0
 33 34  2  0
 35 57  1  0
M  END

