
     RDKit          3D

 45 46  0  0  0  0  0  0  0  0999 V2000
    0.9342    1.5441   -0.4716 C   0  0  0  0  0  0  0  0  0  0  0  0
    2.4608    1.6035   -0.5543 C   0  0  0  0  0  0  0  0  0  0  0  0
    3.0563    0.3855   -1.2756 C   0  0  0  0  0  0  0  0  0  0  0  0
    4.6080    0.3724   -1.4369 C   0  0  1  0  0  0  0  0  0  0  0  0
    5.2945    0.8028   -0.1076 C   0  0  0  0  0  0  0  0  0  0  0  0
    5.8684    1.8904   -0.0561 O   0  0  0  0  0  0  0  0  0  0  0  0
    5.3153   -0.0221    0.9995 N   0  0  0  0  0  0  0  0  0  0  0  0
    4.3777   -1.1003    1.3151 C   0  0  0  0  0  0  0  0  0  0  0  0
    5.0717   -2.2017    2.1142 C   0  0  0  0  0  0  0  0  0  0  0  0
    5.7057   -1.6901    3.2648 O   0  0  0  0  0  0  0  0  0  0  0  0
    6.6799   -0.7277    2.9158 C   0  0  0  0  0  0  0  0  0  0  0  0
    6.0777    0.4653    2.1682 C   0  0  2  0  0  0  0  0  0  0  0  0
    5.2324    1.3662    3.0898 C   0  0  0  0  0  0  0  0  0  0  0  0
    4.4905    2.3363    2.3943 O   0  0  0  0  0  0  0  0  0  0  0  0
    5.1371   -1.0135   -1.9122 C   0  0  0  0  0  0  0  0  0  0  0  0
    4.7616   -1.3426   -3.3616 C   0  0  0  0  0  0  0  0  0  0  0  0
    5.2432   -0.3017   -4.2528 N   0  0  0  0  0  0  0  0  0  0  0  0
    4.6689    0.9996   -3.9412 C   0  0  0  0  0  0  0  0  0  0  0  0
    5.0418    1.4091   -2.5152 C   0  0  0  0  0  0  0  0  0  0  0  0
    0.5271    2.4255    0.0485 H   0  0  0  0  0  0  0  0  0  0  0  0
    0.5947    0.6501    0.0789 H   0  0  0  0  0  0  0  0  0  0  0  0
    0.4744    1.5062   -1.4738 H   0  0  0  0  0  0  0  0  0  0  0  0
    2.8793    1.6916    0.4626 H   0  0  0  0  0  0  0  0  0  0  0  0
    2.7600    2.5274   -1.0777 H   0  0  0  0  0  0  0  0  0  0  0  0
    2.6065    0.3193   -2.2793 H   0  0  0  0  0  0  0  0  0  0  0  0
    2.7205   -0.5283   -0.7589 H   0  0  0  0  0  0  0  0  0  0  0  0
    3.9616   -1.5317    0.4021 H   0  0  0  0  0  0  0  0  0  0  0  0
    3.5322   -0.7002    1.9049 H   0  0  0  0  0  0  0  0  0  0  0  0
    5.8107   -2.7186    1.4664 H   0  0  0  0  0  0  0  0  0  0  0  0
    4.3308   -2.9425    2.4518 H   0  0  0  0  0  0  0  0  0  0  0  0
    7.4656   -1.1922    2.2864 H   0  0  0  0  0  0  0  0  0  0  0  0
    7.1486   -0.3891    3.8525 H   0  0  0  0  0  0  0  0  0  0  0  0
    6.9027    1.0679    1.7642 H   0  0  0  0  0  0  0  0  0  0  0  0
    5.9264    1.8236    3.8265 H   0  0  0  0  0  0  0  0  0  0  0  0
    4.5209    0.7555    3.6702 H   0  0  0  0  0  0  0  0  0  0  0  0
    5.0253    2.6320    1.6373 H   0  0  0  0  0  0  0  0  0  0  0  0
    4.7790   -1.8307   -1.2691 H   0  0  0  0  0  0  0  0  0  0  0  0
    6.2374   -1.0071   -1.8410 H   0  0  0  0  0  0  0  0  0  0  0  0
    3.6602   -1.5023   -3.4309 H   0  0  0  0  0  0  0  0  0  0  0  0
    5.2319   -2.3002   -3.6411 H   0  0  0  0  0  0  0  0  0  0  0  0
    5.0742   -0.5511   -5.2250 H   0  0  0  0  0  0  0  0  0  0  0  0
    3.5625    1.0241   -4.0737 H   0  0  0  0  0  0  0  0  0  0  0  0
    5.0789    1.7464   -4.6409 H   0  0  0  0  0  0  0  0  0  0  0  0
    4.6225    2.3977   -2.2814 H   0  0  0  0  0  0  0  0  0  0  0  0
    6.1336    1.5232   -2.4650 H   0  0  0  0  0  0  0  0  0  0  0  0
  1  2  1  0
  1 20  1  0
  1 21  1  0
  1 22  1  0
  2  3  1  0
  2 23  1  0
  2 24  1  0
  3  4  1  0
  3 25  1  0
  3 26  1  0
  4  5  1  1
  4 15  1  0
  4 19  1  0
  5  6  2  0
  5  7  1  0
  7  8  1  0
  7 12  1  0
  8  9  1  0
  8 27  1  0
  8 28  1  0
  9 10  1  0
  9 29  1  0
  9 30  1  0
 10 11  1  0
 11 12  1  0
 11 31  1  0
 11 32  1  0
 12 13  1  0
 12 33  1  6
 13 14  1  0
 13 34  1  0
 13 35  1  0
 14 36  1  0
 15 16  1  0
 15 37  1  0
 15 38  1  0
 16 17  1  0
 16 39  1  0
 16 40  1  0
 17 18  1  0
 17 41  1  0
 18 19  1  0
 18 42  1  0
 18 43  1  0
 19 44  1  0
 19 45  1  0
M  END

