
     RDKit          3D

 61 62  0  0  0  0  0  0  0  0999 V2000
    5.1713    3.3414   -3.0753 C   0  0  0  0  0  0  0  0  0  0  0  0
    4.9934    1.9387   -2.4925 C   0  0  0  0  0  0  0  0  0  0  0  0
    4.5688    1.9062   -1.0138 C   0  0  1  0  0  0  0  0  0  0  0  0
    3.2102    2.5607   -0.7410 C   0  0  0  0  0  0  0  0  0  0  0  0
    4.6054    0.5064   -0.5558 N   0  0  0  0  0  0  0  0  0  0  0  0
    4.8985    0.1126    1.0473 S   0  0  1  0  0  0  0  0  0  0  0  0
    4.6798    1.2845    1.9035 O   0  0  0  0  0  0  0  0  0  0  0  0
    4.1910   -1.1513    1.2664 O   0  0  0  0  0  0  0  0  0  0  0  0
    6.6658   -0.2306    1.0816 C   0  0  0  0  0  0  0  0  0  0  0  0
    7.5343    0.6958    1.6637 C   0  0  0  0  0  0  0  0  0  0  0  0
    8.9014    0.4170    1.6871 C   0  0  0  0  0  0  0  0  0  0  0  0
    9.3884   -0.7805    1.1446 C   0  0  0  0  0  0  0  0  0  0  0  0
   10.8624   -1.0211    1.1952 C   0  0  0  0  0  0  0  0  0  0  0  0
   11.6703   -0.2230    1.6057 O   0  0  0  0  0  0  0  0  0  0  0  0
   11.1937   -2.2594    0.7664 O   0  0  0  0  0  0  0  0  0  0  0  0
   12.5755   -2.5301    0.6349 C   0  0  0  0  0  0  0  0  0  0  0  0
   13.0954   -1.9456   -0.6972 C   0  0  0  0  0  0  0  0  0  0  0  0
   12.3348   -1.3155   -1.4122 O   0  0  0  0  0  0  0  0  0  0  0  0
   14.4098   -2.1670   -1.0177 N   0  0  0  0  0  0  0  0  0  0  0  0
   15.3023   -2.9379   -0.1680 C   0  0  0  0  0  0  0  0  0  0  0  0
   14.8540   -1.6033   -2.3211 C   0  0  1  0  0  0  0  0  0  0  0  0
   16.3586   -1.2781   -2.4001 C   0  0  0  0  0  0  0  0  0  0  0  0
   17.2822   -2.4625   -2.7428 C   0  0  0  0  0  0  0  0  0  0  0  0
   16.8086   -3.2802   -3.9637 C   0  0  2  0  0  0  0  0  0  0  0  0
   17.0648   -2.5601   -5.2960 C   0  0  0  0  0  0  0  0  0  0  0  0
   15.3296   -3.6790   -3.7752 C   0  0  0  0  0  0  0  0  0  0  0  0
   14.4182   -2.4722   -3.5212 C   0  0  0  0  0  0  0  0  0  0  0  0
    8.4986   -1.7068    0.5746 C   0  0  0  0  0  0  0  0  0  0  0  0
    7.1325   -1.4353    0.5447 C   0  0  0  0  0  0  0  0  0  0  0  0
    5.5498    3.2883   -4.1081 H   0  0  0  0  0  0  0  0  0  0  0  0
    5.8959    3.9300   -2.4878 H   0  0  0  0  0  0  0  0  0  0  0  0
    4.2264    3.9064   -3.1019 H   0  0  0  0  0  0  0  0  0  0  0  0
    5.9372    1.3761   -2.5793 H   0  0  0  0  0  0  0  0  0  0  0  0
    4.2474    1.3793   -3.0876 H   0  0  0  0  0  0  0  0  0  0  0  0
    5.3352    2.4387   -0.4259 H   0  0  0  0  0  0  0  0  0  0  0  0
    2.4122    2.0552   -1.3126 H   0  0  0  0  0  0  0  0  0  0  0  0
    3.2092    3.6229   -1.0295 H   0  0  0  0  0  0  0  0  0  0  0  0
    2.9708    2.4972    0.3297 H   0  0  0  0  0  0  0  0  0  0  0  0
    3.8693   -0.1029   -0.9123 H   0  0  0  0  0  0  0  0  0  0  0  0
    7.1325    1.6125    2.0978 H   0  0  0  0  0  0  0  0  0  0  0  0
    9.6113    1.1190    2.1282 H   0  0  0  0  0  0  0  0  0  0  0  0
   12.6743   -3.6251    0.6507 H   0  0  0  0  0  0  0  0  0  0  0  0
   13.1263   -2.1002    1.4855 H   0  0  0  0  0  0  0  0  0  0  0  0
   14.8845   -3.0434    0.8394 H   0  0  0  0  0  0  0  0  0  0  0  0
   16.2692   -2.4290   -0.0503 H   0  0  0  0  0  0  0  0  0  0  0  0
   15.4965   -3.9518   -0.5606 H   0  0  0  0  0  0  0  0  0  0  0  0
   14.3002   -0.6579   -2.3973 H   0  0  0  0  0  0  0  0  0  0  0  0
   16.6928   -0.7776   -1.4761 H   0  0  0  0  0  0  0  0  0  0  0  0
   16.4586   -0.5160   -3.1908 H   0  0  0  0  0  0  0  0  0  0  0  0
   17.3632   -3.1444   -1.8813 H   0  0  0  0  0  0  0  0  0  0  0  0
   18.3032   -2.0823   -2.9188 H   0  0  0  0  0  0  0  0  0  0  0  0
   17.4044   -4.2100   -3.9860 H   0  0  0  0  0  0  0  0  0  0  0  0
   16.5321   -1.5988   -5.3713 H   0  0  0  0  0  0  0  0  0  0  0  0
   16.7410   -3.1803   -6.1478 H   0  0  0  0  0  0  0  0  0  0  0  0
   18.1387   -2.3493   -5.4273 H   0  0  0  0  0  0  0  0  0  0  0  0
   15.2536   -4.3834   -2.9274 H   0  0  0  0  0  0  0  0  0  0  0  0
   14.9743   -4.2345   -4.6600 H   0  0  0  0  0  0  0  0  0  0  0  0
   13.3730   -2.7834   -3.3770 H   0  0  0  0  0  0  0  0  0  0  0  0
   14.4123   -1.8223   -4.4133 H   0  0  0  0  0  0  0  0  0  0  0  0
    8.8876   -2.6350    0.1559 H   0  0  0  0  0  0  0  0  0  0  0  0
    6.4276   -2.1503    0.1169 H   0  0  0  0  0  0  0  0  0  0  0  0
  1  2  1  0
  1 30  1  0
  1 31  1  0
  1 32  1  0
  2  3  1  0
  2 33  1  0
  2 34  1  0
  3  4  1  0
  3  5  1  0
  3 35  1  1
  4 36  1  0
  4 37  1  0
  4 38  1  0
  6  5  1  6
  5 39  1  0
  6  7  2  0
  6  8  2  0
  6  9  1  0
  9 10  2  0
  9 29  1  0
 10 11  1  0
 10 40  1  0
 11 12  2  0
 11 41  1  0
 12 13  1  0
 12 28  1  0
 13 14  2  0
 13 15  1  0
 15 16  1  0
 16 17  1  0
 16 42  1  0
 16 43  1  0
 17 18  2  0
 17 19  1  0
 19 20  1  0
 19 21  1  0
 20 44  1  0
 20 45  1  0
 20 46  1  0
 21 22  1  0
 21 27  1  0
 21 47  1  6
 22 23  1  0
 22 48  1  0
 22 49  1  0
 23 24  1  0
 23 50  1  0
 23 51  1  0
 24 25  1  0
 24 26  1  0
 24 52  1  6
 25 53  1  0
 25 54  1  0
 25 55  1  0
 26 27  1  0
 26 56  1  0
 26 57  1  0
 27 58  1  0
 27 59  1  0
 28 29  2  0
 28 60  1  0
 29 61  1  0
M  END

