
     RDKit          3D

 25 27  0  0  0  0  0  0  0  0999 V2000
    1.1292    0.2703    0.3877 O   0  0  0  0  0  0  0  0  0  0  0  0
    2.4702    0.1694    0.2102 C   0  0  0  0  0  0  0  0  0  0  0  0
    3.2977    1.3007    0.2406 C   0  0  0  0  0  0  0  0  0  0  0  0
    4.6738    1.1771    0.0563 C   0  0  0  0  0  0  0  0  0  0  0  0
    5.2381   -0.0852   -0.1604 C   0  0  0  0  0  0  0  0  0  0  0  0
    4.4175   -1.2086   -0.1907 C   0  0  0  0  0  0  0  0  0  0  0  0
    3.0222   -1.1143   -0.0080 C   0  0  0  0  0  0  0  0  0  0  0  0
    2.2287   -2.3536   -0.0560 C   0  0  0  0  0  0  0  0  0  0  0  0
    2.7728   -3.5182   -0.2604 N   0  0  0  0  0  0  0  0  0  0  0  0
    1.8504   -4.5360   -0.2687 C   0  0  0  0  0  0  0  0  0  0  0  0
    2.1378   -5.9003   -0.4655 C   0  0  0  0  0  0  0  0  0  0  0  0
    1.0953   -6.8203   -0.4487 C   0  0  0  0  0  0  0  0  0  0  0  0
   -0.2344   -6.4031   -0.2385 C   0  0  0  0  0  0  0  0  0  0  0  0
   -0.5420   -5.0576   -0.0420 C   0  0  0  0  0  0  0  0  0  0  0  0
    0.5066   -4.1288   -0.0585 C   0  0  0  0  0  0  0  0  0  0  0  0
    0.4533   -2.3975    0.1536 S   0  0  0  0  0  0  0  0  0  0  0  0
    0.8777    1.1947    0.5128 H   0  0  0  0  0  0  0  0  0  0  0  0
    2.8481    2.2837    0.4123 H   0  0  0  0  0  0  0  0  0  0  0  0
    5.3043    2.0692    0.0837 H   0  0  0  0  0  0  0  0  0  0  0  0
    6.3153   -0.1907   -0.3061 H   0  0  0  0  0  0  0  0  0  0  0  0
    4.8309   -2.2040   -0.3575 H   0  0  0  0  0  0  0  0  0  0  0  0
    3.1731   -6.2066   -0.6277 H   0  0  0  0  0  0  0  0  0  0  0  0
    1.3071   -7.8816   -0.6001 H   0  0  0  0  0  0  0  0  0  0  0  0
   -1.0375   -7.1442   -0.2289 H   0  0  0  0  0  0  0  0  0  0  0  0
   -1.5743   -4.7399    0.1205 H   0  0  0  0  0  0  0  0  0  0  0  0
  1  2  1  0
  1 17  1  0
  2  3  2  0
  2  7  1  0
  3  4  1  0
  3 18  1  0
  4  5  2  0
  4 19  1  0
  5  6  1  0
  5 20  1  0
  6  7  2  0
  6 21  1  0
  7  8  1  0
  8  9  2  0
  8 16  1  0
  9 10  1  0
 10 11  2  0
 10 15  1  0
 11 12  1  0
 11 22  1  0
 12 13  2  0
 12 23  1  0
 13 14  1  0
 13 24  1  0
 14 15  2  0
 14 25  1  0
 15 16  1  0
M  END

