
     RDKit          3D

 81 84  0  0  0  0  0  0  0  0999 V2000
    4.7657    1.9578    9.2993 N   0  0  0  0  0  0  0  0  0  0  0  0
    5.4326    1.4713    8.3165 C   0  0  0  0  0  0  0  0  0  0  0  0
    6.8047    1.2838    8.2668 N   0  0  0  0  0  0  0  0  0  0  0  0
    4.7108    1.0659    7.0681 C   0  0  0  0  0  0  0  0  0  0  0  0
    3.3573    0.7005    7.1289 C   0  0  0  0  0  0  0  0  0  0  0  0
    2.7155    0.2309    5.9838 C   0  0  0  0  0  0  0  0  0  0  0  0
    3.4149    0.1105    4.7767 C   0  0  0  0  0  0  0  0  0  0  0  0
    4.7593    0.4991    4.6881 C   0  0  0  0  0  0  0  0  0  0  0  0
    5.5301    0.3344    3.3844 C   0  0  1  0  0  0  0  0  0  0  0  0
    6.1390    1.6649    2.8938 C   0  0  0  0  0  0  0  0  0  0  0  0
    6.5229    1.7126    1.4096 C   0  0  0  0  0  0  0  0  0  0  0  0
    7.1249    2.9845    1.0866 N   0  0  0  0  0  0  0  0  0  0  0  0
    7.4263    3.2402   -0.1332 C   0  0  0  0  0  0  0  0  0  0  0  0
    7.1217    2.4696   -1.2416 N   0  0  0  0  0  0  0  0  0  0  0  0
    8.1365    4.4011   -0.4440 N   0  0  0  0  0  0  0  0  0  0  0  0
    6.5254   -0.8833    3.5138 C   0  0  1  0  0  0  0  0  0  0  0  0
    6.9254   -1.4527    2.2212 N   0  0  0  0  0  0  0  0  0  0  0  0
    6.0624   -2.1147    1.3965 C   0  0  0  0  0  0  0  0  0  0  0  0
    4.8629   -2.1902    1.6133 O   0  0  0  0  0  0  0  0  0  0  0  0
    6.7211   -2.7122    0.1352 C   0  0  1  0  0  0  0  0  0  0  0  0
    6.3278   -4.1737   -0.0739 C   0  0  0  0  0  0  0  0  0  0  0  0
    4.9956   -4.5597   -0.2925 C   0  0  0  0  0  0  0  0  0  0  0  0
    4.6712   -5.9040   -0.4868 C   0  0  0  0  0  0  0  0  0  0  0  0
    5.6688   -6.8846   -0.4702 C   0  0  0  0  0  0  0  0  0  0  0  0
    6.9967   -6.5111   -0.2532 C   0  0  0  0  0  0  0  0  0  0  0  0
    7.3201   -5.1651   -0.0553 C   0  0  0  0  0  0  0  0  0  0  0  0
    6.4479   -1.8409   -1.0960 C   0  0  0  0  0  0  0  0  0  0  0  0
    5.2138   -1.2061   -1.3166 C   0  0  0  0  0  0  0  0  0  0  0  0
    5.0008   -0.4472   -2.4724 C   0  0  0  0  0  0  0  0  0  0  0  0
    6.0124   -0.3104   -3.4280 C   0  0  0  0  0  0  0  0  0  0  0  0
    7.2453   -0.9358   -3.2164 C   0  0  0  0  0  0  0  0  0  0  0  0
    7.4585   -1.6911   -2.0600 C   0  0  0  0  0  0  0  0  0  0  0  0
    7.7833   -0.5758    4.3478 C   0  0  0  0  0  0  0  0  0  0  0  0
    7.8420   -0.8358    5.5400 O   0  0  0  0  0  0  0  0  0  0  0  0
    8.8267   -0.0117    3.6647 N   0  0  0  0  0  0  0  0  0  0  0  0
   10.0838    0.3623    4.3079 C   0  0  0  0  0  0  0  0  0  0  0  0
   11.2830    0.0348    3.4460 C   0  0  0  0  0  0  0  0  0  0  0  0
   12.0179    1.0426    2.8101 C   0  0  0  0  0  0  0  0  0  0  0  0
   13.1161    0.7388    1.9997 C   0  0  0  0  0  0  0  0  0  0  0  0
   13.4986   -0.5950    1.8085 C   0  0  0  0  0  0  0  0  0  0  0  0
   14.5534   -0.9559    1.0350 O   0  0  0  0  0  0  0  0  0  0  0  0
   12.7709   -1.6178    2.4395 C   0  0  0  0  0  0  0  0  0  0  0  0
   11.6813   -1.2995    3.2446 C   0  0  0  0  0  0  0  0  0  0  0  0
    5.3806    0.9991    5.8402 C   0  0  0  0  0  0  0  0  0  0  0  0
    5.3753    2.1492   10.1021 H   0  0  0  0  0  0  0  0  0  0  0  0
    7.3130    1.3927    9.1370 H   0  0  0  0  0  0  0  0  0  0  0  0
    7.1674    0.5619    7.6493 H   0  0  0  0  0  0  0  0  0  0  0  0
    2.8400    0.7799    8.0866 H   0  0  0  0  0  0  0  0  0  0  0  0
    1.6638   -0.0640    6.0313 H   0  0  0  0  0  0  0  0  0  0  0  0
    2.9136   -0.2967    3.8940 H   0  0  0  0  0  0  0  0  0  0  0  0
    4.8018   -0.0040    2.6339 H   0  0  0  0  0  0  0  0  0  0  0  0
    7.0148    1.9581    3.4953 H   0  0  0  0  0  0  0  0  0  0  0  0
    5.3985    2.4632    3.0618 H   0  0  0  0  0  0  0  0  0  0  0  0
    5.6042    1.5149    0.8152 H   0  0  0  0  0  0  0  0  0  0  0  0
    7.2049    0.8717    1.1585 H   0  0  0  0  0  0  0  0  0  0  0  0
    6.7552    1.5375   -1.0913 H   0  0  0  0  0  0  0  0  0  0  0  0
    7.7395    2.5433   -2.0413 H   0  0  0  0  0  0  0  0  0  0  0  0
    8.2008    5.0109    0.3662 H   0  0  0  0  0  0  0  0  0  0  0  0
    7.7930    4.8963   -1.2638 H   0  0  0  0  0  0  0  0  0  0  0  0
    5.9872   -1.6574    4.0797 H   0  0  0  0  0  0  0  0  0  0  0  0
    7.9170   -1.5664    2.0489 H   0  0  0  0  0  0  0  0  0  0  0  0
    7.8112   -2.7016    0.2855 H   0  0  0  0  0  0  0  0  0  0  0  0
    4.2085   -3.8058   -0.2928 H   0  0  0  0  0  0  0  0  0  0  0  0
    3.6286   -6.1882   -0.6514 H   0  0  0  0  0  0  0  0  0  0  0  0
    5.4105   -7.9354   -0.6248 H   0  0  0  0  0  0  0  0  0  0  0  0
    7.7859   -7.2673   -0.2360 H   0  0  0  0  0  0  0  0  0  0  0  0
    8.3633   -4.8825    0.1160 H   0  0  0  0  0  0  0  0  0  0  0  0
    4.4206   -1.3027   -0.5733 H   0  0  0  0  0  0  0  0  0  0  0  0
    4.0344    0.0401   -2.6255 H   0  0  0  0  0  0  0  0  0  0  0  0
    5.8400    0.2789   -4.3322 H   0  0  0  0  0  0  0  0  0  0  0  0
    8.0450   -0.8394   -3.9556 H   0  0  0  0  0  0  0  0  0  0  0  0
    8.4252   -2.1798   -1.9073 H   0  0  0  0  0  0  0  0  0  0  0  0
    8.6631    0.3569    2.7334 H   0  0  0  0  0  0  0  0  0  0  0  0
   10.1097   -0.1841    5.2613 H   0  0  0  0  0  0  0  0  0  0  0  0
   10.0806    1.4392    4.5523 H   0  0  0  0  0  0  0  0  0  0  0  0
   11.7330    2.0896    2.9488 H   0  0  0  0  0  0  0  0  0  0  0  0
   13.6781    1.5429    1.5139 H   0  0  0  0  0  0  0  0  0  0  0  0
   14.9758   -0.1659    0.6727 H   0  0  0  0  0  0  0  0  0  0  0  0
   13.0852   -2.6529    2.2901 H   0  0  0  0  0  0  0  0  0  0  0  0
   11.1286   -2.1054    3.7366 H   0  0  0  0  0  0  0  0  0  0  0  0
    6.4153    1.3352    5.7910 H   0  0  0  0  0  0  0  0  0  0  0  0
  1  2  2  0
  1 45  1  0
  2  3  1  0
  2  4  1  0
  3 46  1  0
  3 47  1  0
  4  5  2  0
  4 44  1  0
  5  6  1  0
  5 48  1  0
  6  7  2  0
  6 49  1  0
  7  8  1  0
  7 50  1  0
  8  9  1  0
  8 44  2  0
  9 10  1  0
  9 16  1  0
  9 51  1  6
 10 11  1  0
 10 52  1  0
 10 53  1  0
 11 12  1  0
 11 54  1  0
 11 55  1  0
 12 13  2  0
 13 14  1  0
 13 15  1  0
 14 56  1  0
 14 57  1  0
 15 58  1  0
 15 59  1  0
 16 17  1  0
 16 33  1  0
 16 60  1  1
 17 18  1  0
 17 61  1  0
 18 19  2  0
 18 20  1  0
 20 21  1  0
 20 27  1  0
 20 62  1  1
 21 22  2  0
 21 26  1  0
 22 23  1  0
 22 63  1  0
 23 24  2  0
 23 64  1  0
 24 25  1  0
 24 65  1  0
 25 26  2  0
 25 66  1  0
 26 67  1  0
 27 28  2  0
 27 32  1  0
 28 29  1  0
 28 68  1  0
 29 30  2  0
 29 69  1  0
 30 31  1  0
 30 70  1  0
 31 32  2  0
 31 71  1  0
 32 72  1  0
 33 34  2  0
 33 35  1  0
 35 36  1  0
 35 73  1  0
 36 37  1  0
 36 74  1  0
 36 75  1  0
 37 38  2  0
 37 43  1  0
 38 39  1  0
 38 76  1  0
 39 40  2  0
 39 77  1  0
 40 41  1  0
 40 42  1  0
 41 78  1  0
 42 43  2  0
 42 79  1  0
 43 80  1  0
 44 81  1  0
M  END

