
     RDKit          3D

 39 41  0  0  0  0  0  0  0  0999 V2000
    1.0763   -0.2221    1.2796 C   0  0  0  0  0  0  0  0  0  0  0  0
    2.4550   -0.5409    0.7166 C   0  0  1  0  0  0  0  0  0  0  0  0
    2.4096   -0.9953   -0.7408 C   0  0  0  0  0  0  0  0  0  0  0  0
    3.2228    0.6654    0.8457 O   0  0  0  0  0  0  0  0  0  0  0  0
    4.5737    0.6557    0.8858 C   0  0  0  0  0  0  0  0  0  0  0  0
    5.1920    1.9191    0.9770 C   0  0  0  0  0  0  0  0  0  0  0  0
    6.5724    2.0291    1.0418 C   0  0  0  0  0  0  0  0  0  0  0  0
    7.3961    0.8781    1.0168 C   0  0  0  0  0  0  0  0  0  0  0  0
    8.8153    0.9893    1.0819 C   0  0  0  0  0  0  0  0  0  0  0  0
   10.0309    1.0913    1.1386 C   0  0  0  0  0  0  0  0  0  0  0  0
   11.4491    1.2058    1.2043 C   0  0  0  0  0  0  0  0  0  0  0  0
   12.2665    0.0441    1.1734 C   0  0  0  0  0  0  0  0  0  0  0  0
   13.6452    0.1562    1.2378 C   0  0  0  0  0  0  0  0  0  0  0  0
   14.2690    1.4180    1.3351 C   0  0  0  0  0  0  0  0  0  0  0  0
   15.6938    1.6184    1.4066 C   0  0  0  0  0  0  0  0  0  0  0  0
   16.2133    2.8677    1.4992 C   0  0  0  0  0  0  0  0  0  0  0  0
   15.3596    4.0556    1.5311 C   0  0  0  0  0  0  0  0  0  0  0  0
   15.7275    5.1962    1.6120 O   0  0  0  0  0  0  0  0  0  0  0  0
   13.9884    3.8112    1.4582 O   0  0  0  0  0  0  0  0  0  0  0  0
   13.4492    2.5686    1.3653 C   0  0  0  0  0  0  0  0  0  0  0  0
   12.0593    2.4705    1.3011 C   0  0  0  0  0  0  0  0  0  0  0  0
    6.7674   -0.3797    0.9240 C   0  0  0  0  0  0  0  0  0  0  0  0
    5.3794   -0.4970    0.8572 C   0  0  0  0  0  0  0  0  0  0  0  0
    0.4263   -1.1091    1.2310 H   0  0  0  0  0  0  0  0  0  0  0  0
    0.6048    0.5885    0.7021 H   0  0  0  0  0  0  0  0  0  0  0  0
    1.1509    0.1009    2.3286 H   0  0  0  0  0  0  0  0  0  0  0  0
    2.9187   -1.3266    1.3401 H   0  0  0  0  0  0  0  0  0  0  0  0
    1.9399   -0.2188   -1.3652 H   0  0  0  0  0  0  0  0  0  0  0  0
    1.8202   -1.9209   -0.8360 H   0  0  0  0  0  0  0  0  0  0  0  0
    3.4165   -1.1904   -1.1389 H   0  0  0  0  0  0  0  0  0  0  0  0
    4.5527    2.8038    0.9988 H   0  0  0  0  0  0  0  0  0  0  0  0
    7.0359    3.0151    1.1139 H   0  0  0  0  0  0  0  0  0  0  0  0
   11.7931   -0.9360    1.0985 H   0  0  0  0  0  0  0  0  0  0  0  0
   14.2701   -0.7406    1.2138 H   0  0  0  0  0  0  0  0  0  0  0  0
   16.3507    0.7438    1.3848 H   0  0  0  0  0  0  0  0  0  0  0  0
   17.2858    3.0575    1.5552 H   0  0  0  0  0  0  0  0  0  0  0  0
   11.4621    3.3823    1.3275 H   0  0  0  0  0  0  0  0  0  0  0  0
    7.3825   -1.2817    0.9016 H   0  0  0  0  0  0  0  0  0  0  0  0
    4.9380   -1.4906    0.7827 H   0  0  0  0  0  0  0  0  0  0  0  0
  1  2  1  0
  1 24  1  0
  1 25  1  0
  1 26  1  0
  2  3  1  0
  2  4  1  0
  2 27  1  1
  3 28  1  0
  3 29  1  0
  3 30  1  0
  4  5  1  0
  5  6  2  0
  5 23  1  0
  6  7  1  0
  6 31  1  0
  7  8  2  0
  7 32  1  0
  8  9  1  0
  8 22  1  0
  9 10  3  0
 10 11  1  0
 11 12  2  0
 11 21  1  0
 12 13  1  0
 12 33  1  0
 13 14  2  0
 13 34  1  0
 14 15  1  0
 14 20  1  0
 15 16  2  0
 15 35  1  0
 16 17  1  0
 16 36  1  0
 17 18  2  0
 17 19  1  0
 19 20  1  0
 20 21  2  0
 21 37  1  0
 22 23  2  0
 22 38  1  0
 23 39  1  0
M  END

