
     RDKit          3D

 75 80  0  0  0  0  0  0  0  0999 V2000
    1.5807    0.0677   -0.6447 C   0  0  0  0  0  0  0  0  0  0  0  0
    1.7656   -0.1162    0.7405 O   0  0  0  0  0  0  0  0  0  0  0  0
    2.5574    0.7479    1.4145 C   0  0  0  0  0  0  0  0  0  0  0  0
    3.2382    1.8427    0.8660 C   0  0  0  0  0  0  0  0  0  0  0  0
    4.0333    2.6718    1.6651 C   0  0  0  0  0  0  0  0  0  0  0  0
    4.1923    2.4601    3.0501 C   0  0  0  0  0  0  0  0  0  0  0  0
    5.0281    3.3520    3.8647 C   0  0  0  0  0  0  0  0  0  0  0  0
    5.1415    3.1936    5.1510 N   0  0  0  0  0  0  0  0  0  0  0  0
    5.9874    4.1567    5.6615 N   0  0  0  0  0  0  0  0  0  0  0  0
    6.3089    4.2700    7.0830 C   0  0  1  0  0  0  0  0  0  0  0  0
    5.0962    4.6674    7.9503 C   0  0  0  0  0  0  0  0  0  0  0  0
    4.1744    3.4882    8.2793 C   0  0  0  0  0  0  0  0  0  0  0  0
    4.9151    2.3473    8.8399 N   0  0  0  0  0  0  0  0  0  0  0  0
    5.1348    2.2893   10.5131 S   0  0  1  0  0  0  0  0  0  0  0  0
    6.5495    2.4956   10.8572 O   0  0  0  0  0  0  0  0  0  0  0  0
    4.0920    3.1367   11.1007 O   0  0  0  0  0  0  0  0  0  0  0  0
    4.7433    0.5791   10.8963 C   0  0  0  0  0  0  0  0  0  0  0  0
    3.4050    0.1309   10.7410 C   0  0  0  0  0  0  0  0  0  0  0  0
    3.0928   -1.1703   11.0599 C   0  0  0  0  0  0  0  0  0  0  0  0
    4.0856   -2.0699   11.5496 C   0  0  0  0  0  0  0  0  0  0  0  0
    3.7878   -3.4186   11.8867 C   0  0  0  0  0  0  0  0  0  0  0  0
    4.7716   -4.2606   12.3643 C   0  0  0  0  0  0  0  0  0  0  0  0
    6.0997   -3.7926   12.5280 C   0  0  0  0  0  0  0  0  0  0  0  0
    6.4217   -2.4893   12.2102 C   0  0  0  0  0  0  0  0  0  0  0  0
    5.4310   -1.5973   11.7140 C   0  0  0  0  0  0  0  0  0  0  0  0
    5.7335   -0.2476   11.3772 C   0  0  0  0  0  0  0  0  0  0  0  0
    6.0385    1.8870    8.0093 C   0  0  0  0  0  0  0  0  0  0  0  0
    7.0089    3.0220    7.6576 C   0  0  0  0  0  0  0  0  0  0  0  0
    6.4788    5.0081    4.6977 C   0  0  0  0  0  0  0  0  0  0  0  0
    7.2400    5.9386    4.8704 O   0  0  0  0  0  0  0  0  0  0  0  0
    5.8598    4.5378    3.3695 C   0  0  2  0  0  0  0  0  0  0  0  0
    5.0305    5.7121    2.8086 C   0  0  0  0  0  0  0  0  0  0  0  0
    7.0129    4.1504    2.4219 C   0  0  0  0  0  0  0  0  0  0  0  0
    3.5046    1.3500    3.5972 C   0  0  0  0  0  0  0  0  0  0  0  0
    2.7159    0.5282    2.7979 C   0  0  0  0  0  0  0  0  0  0  0  0
    2.1206   -0.4920    3.4513 O   0  0  0  0  0  0  0  0  0  0  0  0
    2.5237   -0.4562    4.8605 C   0  0  2  0  0  0  0  0  0  0  0  0
    3.2800   -1.7543    5.1369 C   0  0  0  0  0  0  0  0  0  0  0  0
    1.2433   -0.3536    5.6854 C   0  0  0  0  0  0  0  0  0  0  0  0
    3.4327    0.8043    5.0005 C   0  0  0  0  0  0  0  0  0  0  0  0
    0.9113   -0.7355   -0.9804 H   0  0  0  0  0  0  0  0  0  0  0  0
    2.5337   -0.0047   -1.1998 H   0  0  0  0  0  0  0  0  0  0  0  0
    1.1119    1.0427   -0.8709 H   0  0  0  0  0  0  0  0  0  0  0  0
    3.1555    2.0620   -0.1986 H   0  0  0  0  0  0  0  0  0  0  0  0
    4.5358    3.5061    1.1806 H   0  0  0  0  0  0  0  0  0  0  0  0
    7.0265    5.1035    7.0924 H   0  0  0  0  0  0  0  0  0  0  0  0
    4.5266    5.4678    7.4507 H   0  0  0  0  0  0  0  0  0  0  0  0
    5.4778    5.0867    8.8965 H   0  0  0  0  0  0  0  0  0  0  0  0
    3.6733    3.1274    7.3680 H   0  0  0  0  0  0  0  0  0  0  0  0
    3.4030    3.7881    8.9993 H   0  0  0  0  0  0  0  0  0  0  0  0
    2.6414    0.8222   10.3810 H   0  0  0  0  0  0  0  0  0  0  0  0
    2.0664   -1.5300   10.9480 H   0  0  0  0  0  0  0  0  0  0  0  0
    2.7632   -3.7794   11.7629 H   0  0  0  0  0  0  0  0  0  0  0  0
    4.5286   -5.2949   12.6203 H   0  0  0  0  0  0  0  0  0  0  0  0
    6.8683   -4.4696   12.9087 H   0  0  0  0  0  0  0  0  0  0  0  0
    7.4441   -2.1236   12.3364 H   0  0  0  0  0  0  0  0  0  0  0  0
    6.7464    0.1397   11.5045 H   0  0  0  0  0  0  0  0  0  0  0  0
    5.6067    1.4526    7.0958 H   0  0  0  0  0  0  0  0  0  0  0  0
    6.5680    1.0813    8.5379 H   0  0  0  0  0  0  0  0  0  0  0  0
    7.7712    2.6615    6.9481 H   0  0  0  0  0  0  0  0  0  0  0  0
    7.5309    3.3221    8.5796 H   0  0  0  0  0  0  0  0  0  0  0  0
    4.1800    5.9511    3.4657 H   0  0  0  0  0  0  0  0  0  0  0  0
    4.6360    5.4969    1.8059 H   0  0  0  0  0  0  0  0  0  0  0  0
    5.6763    6.6017    2.7491 H   0  0  0  0  0  0  0  0  0  0  0  0
    7.5837    3.2952    2.8158 H   0  0  0  0  0  0  0  0  0  0  0  0
    7.6997    5.0060    2.3316 H   0  0  0  0  0  0  0  0  0  0  0  0
    6.6478    3.8830    1.4204 H   0  0  0  0  0  0  0  0  0  0  0  0
    2.6426   -2.6257    4.9226 H   0  0  0  0  0  0  0  0  0  0  0  0
    3.5960   -1.8011    6.1912 H   0  0  0  0  0  0  0  0  0  0  0  0
    4.1776   -1.8201    4.5028 H   0  0  0  0  0  0  0  0  0  0  0  0
    0.5833   -1.2111    5.4836 H   0  0  0  0  0  0  0  0  0  0  0  0
    0.6963    0.5685    5.4357 H   0  0  0  0  0  0  0  0  0  0  0  0
    1.4786   -0.3377    6.7615 H   0  0  0  0  0  0  0  0  0  0  0  0
    4.4303    0.5487    5.3897 H   0  0  0  0  0  0  0  0  0  0  0  0
    3.0123    1.5399    5.7038 H   0  0  0  0  0  0  0  0  0  0  0  0
  1  2  1  0
  1 41  1  0
  1 42  1  0
  1 43  1  0
  2  3  1  0
  3  4  2  0
  3 35  1  0
  4  5  1  0
  4 44  1  0
  5  6  2  0
  5 45  1  0
  6  7  1  0
  6 34  1  0
  7  8  2  0
  7 31  1  0
  8  9  1  0
  9 10  1  0
  9 29  1  0
 10 11  1  0
 10 28  1  0
 10 46  1  6
 11 12  1  0
 11 47  1  0
 11 48  1  0
 12 13  1  0
 12 49  1  0
 12 50  1  0
 13 14  1  0
 13 27  1  0
 14 15  2  0
 14 16  2  0
 14 17  1  1
 17 18  2  0
 17 26  1  0
 18 19  1  0
 18 51  1  0
 19 20  2  0
 19 52  1  0
 20 21  1  0
 20 25  1  0
 21 22  2  0
 21 53  1  0
 22 23  1  0
 22 54  1  0
 23 24  2  0
 23 55  1  0
 24 25  1  0
 24 56  1  0
 25 26  2  0
 26 57  1  0
 27 28  1  0
 27 58  1  0
 27 59  1  0
 28 60  1  0
 28 61  1  0
 29 30  2  0
 29 31  1  0
 31 32  1  6
 31 33  1  0
 32 62  1  0
 32 63  1  0
 32 64  1  0
 33 65  1  0
 33 66  1  0
 33 67  1  0
 34 35  2  0
 34 40  1  0
 35 36  1  0
 36 37  1  0
 37 38  1  1
 37 39  1  0
 37 40  1  0
 38 68  1  0
 38 69  1  0
 38 70  1  0
 39 71  1  0
 39 72  1  0
 39 73  1  0
 40 74  1  0
 40 75  1  0
M  END

