
     RDKit          3D

 65 68  0  0  0  0  0  0  0  0999 V2000
    7.1784    0.7569    7.9485 C   0  0  0  0  0  0  0  0  0  0  0  0
    7.5113    1.2465    6.7490 C   0  0  0  0  0  0  0  0  0  0  0  0
    8.6594    2.2099    6.6303 C   0  0  0  0  0  0  0  0  0  0  0  0
    9.2743    2.5627    7.6305 O   0  0  0  0  0  0  0  0  0  0  0  0
    9.0055    2.6852    5.3838 N   0  0  0  0  0  0  0  0  0  0  0  0
   10.1222    3.6356    5.3271 C   0  0  0  0  0  0  0  0  0  0  0  0
    9.6985    5.0801    5.5975 C   0  0  0  0  0  0  0  0  0  0  0  0
    8.3423    2.3798    4.1197 C   0  0  0  0  0  0  0  0  0  0  0  0
    9.1002    1.3908    3.2356 C   0  0  1  0  0  0  0  0  0  0  0  0
    9.2227   -0.0923    3.6811 C   0  0  0  0  0  0  0  0  0  0  0  0
    8.8346   -0.5392    2.2395 C   0  0  2  0  0  0  0  0  0  0  0  0
    9.9391   -1.0120    1.4242 N   0  0  0  0  0  0  0  0  0  0  0  0
   10.9553   -0.1724    1.1234 N   0  0  0  0  0  0  0  0  0  0  0  0
   11.8201   -0.8687    0.3987 C   0  0  0  0  0  0  0  0  0  0  0  0
   13.0275   -0.1709   -0.1149 C   0  0  0  0  0  0  0  0  0  0  0  0
   14.2366   -0.8412   -0.3741 C   0  0  0  0  0  0  0  0  0  0  0  0
   15.3336   -0.1082   -0.8233 C   0  0  0  0  0  0  0  0  0  0  0  0
   15.1980    1.2690   -0.9992 C   0  0  0  0  0  0  0  0  0  0  0  0
   16.2572    1.9723   -1.5107 O   0  0  0  0  0  0  0  0  0  0  0  0
   16.5976    3.2194   -1.0411 C   0  0  0  0  0  0  0  0  0  0  0  0
   16.4885    3.5765    0.3094 C   0  0  0  0  0  0  0  0  0  0  0  0
   16.9167    4.8422    0.7191 C   0  0  0  0  0  0  0  0  0  0  0  0
   17.4579    5.7459   -0.2006 C   0  0  0  0  0  0  0  0  0  0  0  0
   17.5708    5.3743   -1.5444 C   0  0  0  0  0  0  0  0  0  0  0  0
   17.1403    4.1159   -1.9692 C   0  0  0  0  0  0  0  0  0  0  0  0
   13.9506    1.8547   -0.7245 C   0  0  0  0  0  0  0  0  0  0  0  0
   12.9071    1.1562   -0.2969 N   0  0  0  0  0  0  0  0  0  0  0  0
   11.3530   -2.2219    0.2168 C   0  0  0  0  0  0  0  0  0  0  0  0
   11.9461   -3.3774   -0.4942 C   0  0  0  0  0  0  0  0  0  0  0  0
   13.1421   -3.6302   -0.5549 O   0  0  0  0  0  0  0  0  0  0  0  0
   11.0159   -4.2344   -1.0669 N   0  0  0  0  0  0  0  0  0  0  0  0
   11.4676   -5.3706   -1.8516 C   0  0  0  0  0  0  0  0  0  0  0  0
   10.1340   -2.2558    0.9150 C   0  0  0  0  0  0  0  0  0  0  0  0
    9.2146   -3.2814    1.0782 N   0  0  0  0  0  0  0  0  0  0  0  0
    8.4031    0.9210    1.9306 C   0  0  0  0  0  0  0  0  0  0  0  0
    6.3487    0.0560    8.0703 H   0  0  0  0  0  0  0  0  0  0  0  0
    7.7448    1.0600    8.8333 H   0  0  0  0  0  0  0  0  0  0  0  0
    6.9449    0.9431    5.8676 H   0  0  0  0  0  0  0  0  0  0  0  0
   10.5882    3.5503    4.3332 H   0  0  0  0  0  0  0  0  0  0  0  0
   10.8665    3.3251    6.0730 H   0  0  0  0  0  0  0  0  0  0  0  0
    8.9338    5.4218    4.8804 H   0  0  0  0  0  0  0  0  0  0  0  0
   10.5651    5.7554    5.5114 H   0  0  0  0  0  0  0  0  0  0  0  0
    9.2915    5.1727    6.6150 H   0  0  0  0  0  0  0  0  0  0  0  0
    8.2120    3.3246    3.5614 H   0  0  0  0  0  0  0  0  0  0  0  0
    7.3257    2.0101    4.3091 H   0  0  0  0  0  0  0  0  0  0  0  0
   10.0978    1.7848    2.9918 H   0  0  0  0  0  0  0  0  0  0  0  0
    8.4655   -0.3906    4.4226 H   0  0  0  0  0  0  0  0  0  0  0  0
   10.2107   -0.4246    4.0296 H   0  0  0  0  0  0  0  0  0  0  0  0
    8.0358   -1.2901    2.1645 H   0  0  0  0  0  0  0  0  0  0  0  0
   14.3008   -1.9194   -0.2291 H   0  0  0  0  0  0  0  0  0  0  0  0
   16.2920   -0.5863   -1.0375 H   0  0  0  0  0  0  0  0  0  0  0  0
   16.0773    2.8691    1.0318 H   0  0  0  0  0  0  0  0  0  0  0  0
   16.8315    5.1188    1.7732 H   0  0  0  0  0  0  0  0  0  0  0  0
   17.7919    6.7326    0.1286 H   0  0  0  0  0  0  0  0  0  0  0  0
   17.9942    6.0712   -2.2724 H   0  0  0  0  0  0  0  0  0  0  0  0
   17.2185    3.8063   -3.0133 H   0  0  0  0  0  0  0  0  0  0  0  0
   13.8090    2.9324   -0.8687 H   0  0  0  0  0  0  0  0  0  0  0  0
   10.1314   -3.8161   -1.3386 H   0  0  0  0  0  0  0  0  0  0  0  0
   12.2737   -5.8841   -1.3114 H   0  0  0  0  0  0  0  0  0  0  0  0
   11.8688   -5.0736   -2.8372 H   0  0  0  0  0  0  0  0  0  0  0  0
   10.6315   -6.0689   -2.0032 H   0  0  0  0  0  0  0  0  0  0  0  0
    9.5824   -4.1752    0.7607 H   0  0  0  0  0  0  0  0  0  0  0  0
    8.8183   -3.3559    2.0114 H   0  0  0  0  0  0  0  0  0  0  0  0
    7.3071    1.0320    1.9642 H   0  0  0  0  0  0  0  0  0  0  0  0
    8.7864    1.3353    0.9890 H   0  0  0  0  0  0  0  0  0  0  0  0
  1  2  2  0
  1 36  1  0
  1 37  1  0
  2  3  1  0
  2 38  1  0
  3  4  2  0
  3  5  1  0
  5  6  1  0
  5  8  1  0
  6  7  1  0
  6 39  1  0
  6 40  1  0
  7 41  1  0
  7 42  1  0
  7 43  1  0
  8  9  1  0
  8 44  1  0
  8 45  1  0
  9 10  1  0
  9 35  1  0
  9 46  1  6
 10 11  1  0
 10 47  1  0
 10 48  1  0
 11 12  1  0
 11 35  1  0
 11 49  1  1
 12 13  1  0
 12 33  1  0
 13 14  2  0
 14 15  1  0
 14 28  1  0
 15 16  2  0
 15 27  1  0
 16 17  1  0
 16 50  1  0
 17 18  2  0
 17 51  1  0
 18 19  1  0
 18 26  1  0
 19 20  1  0
 20 21  2  0
 20 25  1  0
 21 22  1  0
 21 52  1  0
 22 23  2  0
 22 53  1  0
 23 24  1  0
 23 54  1  0
 24 25  2  0
 24 55  1  0
 25 56  1  0
 26 27  2  0
 26 57  1  0
 28 29  1  0
 28 33  2  0
 29 30  2  0
 29 31  1  0
 31 32  1  0
 31 58  1  0
 32 59  1  0
 32 60  1  0
 32 61  1  0
 33 34  1  0
 34 62  1  0
 34 63  1  0
 35 64  1  0
 35 65  1  0
M  END

