
     RDKit          3D

 33 33  0  0  0  0  0  0  0  0999 V2000
    0.7829   -0.0944    0.3666 C   0  0  0  0  0  0  0  0  0  0  0  0
    2.2994   -0.0609    0.1538 C   0  0  0  0  0  0  0  0  0  0  0  0
    2.7552    0.0226   -1.3200 C   0  0  1  0  0  0  0  0  0  0  0  0
    2.0884    1.2005   -2.0720 C   0  0  0  0  0  0  0  0  0  0  0  0
    2.3373    2.5999   -1.4996 C   0  0  0  0  0  0  0  0  0  0  0  0
    4.3085    0.0085   -1.4623 C   0  0  1  0  0  0  0  0  0  0  0  0
    5.0010   -1.1353   -0.6783 C   0  0  0  0  0  0  0  0  0  0  0  0
    4.6046   -2.5613   -1.0727 C   0  0  0  0  0  0  0  0  0  0  0  0
    4.7443   -0.0154   -2.9273 C   0  0  1  0  0  0  0  0  0  0  0  0
    5.0682    1.2407   -3.6998 C   0  0  0  0  0  0  0  0  0  0  0  0
    6.1715    0.2912   -3.3119 C   0  0  0  0  0  0  0  0  0  0  0  0
    0.5413   -0.2717    1.4271 H   0  0  0  0  0  0  0  0  0  0  0  0
    0.3146   -0.9048   -0.2178 H   0  0  0  0  0  0  0  0  0  0  0  0
    0.2922    0.8473    0.0750 H   0  0  0  0  0  0  0  0  0  0  0  0
    2.7231   -0.9696    0.6082 H   0  0  0  0  0  0  0  0  0  0  0  0
    2.7328    0.7815    0.7234 H   0  0  0  0  0  0  0  0  0  0  0  0
    2.3856   -0.8941   -1.8186 H   0  0  0  0  0  0  0  0  0  0  0  0
    1.0005    1.0213   -2.1010 H   0  0  0  0  0  0  0  0  0  0  0  0
    2.4121    1.1787   -3.1238 H   0  0  0  0  0  0  0  0  0  0  0  0
    1.9409    2.7078   -0.4771 H   0  0  0  0  0  0  0  0  0  0  0  0
    1.8451    3.3659   -2.1206 H   0  0  0  0  0  0  0  0  0  0  0  0
    3.4089    2.8524   -1.4624 H   0  0  0  0  0  0  0  0  0  0  0  0
    4.6931    0.9487   -1.0244 H   0  0  0  0  0  0  0  0  0  0  0  0
    4.8328   -0.9969    0.4021 H   0  0  0  0  0  0  0  0  0  0  0  0
    6.0890   -1.0207   -0.8193 H   0  0  0  0  0  0  0  0  0  0  0  0
    3.5385   -2.7673   -0.8841 H   0  0  0  0  0  0  0  0  0  0  0  0
    5.1848   -3.2994   -0.4956 H   0  0  0  0  0  0  0  0  0  0  0  0
    4.7960   -2.7595   -2.1397 H   0  0  0  0  0  0  0  0  0  0  0  0
    4.2669   -0.8066   -3.5184 H   0  0  0  0  0  0  0  0  0  0  0  0
    5.0137    2.1971   -3.1715 H   0  0  0  0  0  0  0  0  0  0  0  0
    4.7715    1.2987   -4.7514 H   0  0  0  0  0  0  0  0  0  0  0  0
    6.8564    0.6085   -2.5188 H   0  0  0  0  0  0  0  0  0  0  0  0
    6.6470   -0.3101   -4.0922 H   0  0  0  0  0  0  0  0  0  0  0  0
  1  2  1  0
  1 12  1  0
  1 13  1  0
  1 14  1  0
  2  3  1  0
  2 15  1  0
  2 16  1  0
  3  4  1  0
  3  6  1  0
  3 17  1  6
  4  5  1  0
  4 18  1  0
  4 19  1  0
  5 20  1  0
  5 21  1  0
  5 22  1  0
  6  7  1  0
  6  9  1  0
  6 23  1  1
  7  8  1  0
  7 24  1  0
  7 25  1  0
  8 26  1  0
  8 27  1  0
  8 28  1  0
  9 10  1  0
  9 11  1  0
  9 29  1  6
 10 11  1  0
 10 30  1  0
 10 31  1  0
 11 32  1  0
 11 33  1  0
M  END

