
     RDKit          3D

 82 86  0  0  0  0  0  0  0  0999 V2000
    0.2155   -0.8569    0.4606 C   0  0  0  0  0  0  0  0  0  0  0  0
    1.5968   -0.6440    1.0803 C   0  0  0  0  0  0  0  0  0  0  0  0
    2.4209   -1.9198    1.1036 C   0  0  0  0  0  0  0  0  0  0  0  0
    3.6892   -1.6089    1.7002 O   0  0  0  0  0  0  0  0  0  0  0  0
    4.6167   -2.5490    1.8458 C   0  0  0  0  0  0  0  0  0  0  0  0
    5.7572   -2.1400    2.4041 N   0  0  0  0  0  0  0  0  0  0  0  0
    6.7436   -3.0047    2.5982 C   0  0  0  0  0  0  0  0  0  0  0  0
    7.8954   -2.5495    3.1567 O   0  0  0  0  0  0  0  0  0  0  0  0
    7.9462   -1.3033    3.7308 C   0  0  0  0  0  0  0  0  0  0  0  0
    8.8619   -0.3706    3.2454 C   0  0  0  0  0  0  0  0  0  0  0  0
    8.9752    0.8621    3.8863 C   0  0  0  0  0  0  0  0  0  0  0  0
    9.8590    1.7551    3.4169 F   0  0  0  0  0  0  0  0  0  0  0  0
    8.1971    1.1900    4.9929 C   0  0  0  0  0  0  0  0  0  0  0  0
    7.2814    0.2486    5.4743 C   0  0  0  0  0  0  0  0  0  0  0  0
    7.1643   -0.9877    4.8509 C   0  0  0  0  0  0  0  0  0  0  0  0
    6.3051   -1.8994    5.3219 F   0  0  0  0  0  0  0  0  0  0  0  0
    6.7769   -4.3009    2.2870 N   0  0  0  0  0  0  0  0  0  0  0  0
    5.6492   -4.6823    1.7320 C   0  0  0  0  0  0  0  0  0  0  0  0
    5.3839   -5.9411    1.3084 O   0  0  0  0  0  0  0  0  0  0  0  0
    4.0975   -5.8872    0.8050 C   0  0  0  0  0  0  0  0  0  0  0  0
    3.5322   -7.1192    0.2676 C   0  0  0  0  0  0  0  0  0  0  0  0
    4.2711   -8.3137    0.2532 C   0  0  0  0  0  0  0  0  0  0  0  0
    3.7269   -9.4971   -0.2545 C   0  0  0  0  0  0  0  0  0  0  0  0
    4.5276  -10.7717   -0.3096 C   0  0  0  0  0  0  0  0  0  0  0  0
    2.4029   -9.4632   -0.7414 C   0  0  0  0  0  0  0  0  0  0  0  0
    1.8911  -10.6301   -1.2539 O   0  0  0  0  0  0  0  0  0  0  0  0
    0.7388  -11.1867   -0.6672 C   0  0  0  0  0  0  0  0  0  0  0  0
    0.9930  -12.6439   -0.2436 C   0  0  0  0  0  0  0  0  0  0  0  0
    2.1144  -13.1040   -0.1239 O   0  0  0  0  0  0  0  0  0  0  0  0
   -0.1276  -13.3891    0.0097 N   0  0  0  0  0  0  0  0  0  0  0  0
   -0.0133  -14.8047    0.3746 C   0  0  0  0  0  0  0  0  0  0  0  0
   -1.3548  -15.3789   -0.0818 C   0  0  0  0  0  0  0  0  0  0  0  0
   -2.3357  -14.2352    0.2103 C   0  0  0  0  0  0  0  0  0  0  0  0
   -1.5211  -12.9479   -0.0921 C   0  0  1  0  0  0  0  0  0  0  0  0
   -1.7511  -12.5700   -1.1017 H   0  0  0  0  0  0  0  0  0  0  0  0
   -1.8967  -11.8108    0.8693 C   0  0  0  0  0  0  0  0  0  0  0  0
   -2.5266  -10.8404    0.5177 O   0  0  0  0  0  0  0  0  0  0  0  0
   -1.4607  -12.0624    2.1055 O   0  0  0  0  0  0  0  0  0  0  0  0
   -1.7234  -11.1698    3.2542 C   0  0  1  0  0  0  0  0  0  0  0  0
   -3.2328  -11.0699    3.4902 C   0  0  0  0  0  0  0  0  0  0  0  0
   -1.0326  -11.8927    4.4102 C   0  0  0  0  0  0  0  0  0  0  0  0
   -1.0849   -9.8007    3.0061 C   0  0  0  0  0  0  0  0  0  0  0  0
    1.6512   -8.2665   -0.7816 C   0  0  0  0  0  0  0  0  0  0  0  0
    0.2855   -8.2201   -1.4254 C   0  0  0  0  0  0  0  0  0  0  0  0
    2.2317   -7.1073   -0.2621 C   0  0  0  0  0  0  0  0  0  0  0  0
    3.5453   -4.7125    0.8786 N   0  0  0  0  0  0  0  0  0  0  0  0
    4.5079   -3.9066    1.4671 C   0  0  0  0  0  0  0  0  0  0  0  0
   -0.3625    0.0797    0.4545 H   0  0  0  0  0  0  0  0  0  0  0  0
   -0.3698   -1.6043    1.0217 H   0  0  0  0  0  0  0  0  0  0  0  0
    0.2888   -1.2082   -0.5822 H   0  0  0  0  0  0  0  0  0  0  0  0
    1.5020   -0.2682    2.1130 H   0  0  0  0  0  0  0  0  0  0  0  0
    2.1557    0.1248    0.5205 H   0  0  0  0  0  0  0  0  0  0  0  0
    2.5790   -2.3177    0.0877 H   0  0  0  0  0  0  0  0  0  0  0  0
    1.9235   -2.7121    1.6870 H   0  0  0  0  0  0  0  0  0  0  0  0
    9.4786   -0.6100    2.3788 H   0  0  0  0  0  0  0  0  0  0  0  0
    8.3138    2.1662    5.4659 H   0  0  0  0  0  0  0  0  0  0  0  0
    6.6537    0.4598    6.3421 H   0  0  0  0  0  0  0  0  0  0  0  0
    5.2883   -8.3204    0.6490 H   0  0  0  0  0  0  0  0  0  0  0  0
    5.4363  -10.6910    0.3044 H   0  0  0  0  0  0  0  0  0  0  0  0
    4.8382  -10.9866   -1.3468 H   0  0  0  0  0  0  0  0  0  0  0  0
    3.9316  -11.6374    0.0121 H   0  0  0  0  0  0  0  0  0  0  0  0
   -0.1041  -11.1380   -1.3768 H   0  0  0  0  0  0  0  0  0  0  0  0
    0.4380  -10.6198    0.2306 H   0  0  0  0  0  0  0  0  0  0  0  0
    0.1278  -14.9155    1.4653 H   0  0  0  0  0  0  0  0  0  0  0  0
    0.8641  -15.2428   -0.1193 H   0  0  0  0  0  0  0  0  0  0  0  0
   -1.6219  -16.3100    0.4393 H   0  0  0  0  0  0  0  0  0  0  0  0
   -1.3234  -15.5935   -1.1627 H   0  0  0  0  0  0  0  0  0  0  0  0
   -2.6163  -14.2479    1.2746 H   0  0  0  0  0  0  0  0  0  0  0  0
   -3.2598  -14.2770   -0.3832 H   0  0  0  0  0  0  0  0  0  0  0  0
   -3.6705  -12.0716    3.6239 H   0  0  0  0  0  0  0  0  0  0  0  0
   -3.7363  -10.5699    2.6527 H   0  0  0  0  0  0  0  0  0  0  0  0
   -3.4233  -10.4927    4.4082 H   0  0  0  0  0  0  0  0  0  0  0  0
   -1.4655  -12.8937    4.5576 H   0  0  0  0  0  0  0  0  0  0  0  0
   -1.1543  -11.3203    5.3421 H   0  0  0  0  0  0  0  0  0  0  0  0
    0.0431  -12.0074    4.2091 H   0  0  0  0  0  0  0  0  0  0  0  0
   -1.5693   -9.2773    2.1719 H   0  0  0  0  0  0  0  0  0  0  0  0
   -0.0103   -9.9065    2.7900 H   0  0  0  0  0  0  0  0  0  0  0  0
   -1.1849   -9.1813    3.9108 H   0  0  0  0  0  0  0  0  0  0  0  0
    0.2836   -8.7776   -2.3754 H   0  0  0  0  0  0  0  0  0  0  0  0
   -0.0069   -7.1816   -1.6363 H   0  0  0  0  0  0  0  0  0  0  0  0
   -0.5033   -8.6608   -0.7936 H   0  0  0  0  0  0  0  0  0  0  0  0
    1.6795   -6.1656   -0.2805 H   0  0  0  0  0  0  0  0  0  0  0  0
  1  2  1  0
  1 48  1  0
  1 49  1  0
  1 50  1  0
  2  3  1  0
  2 51  1  0
  2 52  1  0
  3  4  1  0
  3 53  1  0
  3 54  1  0
  4  5  1  0
  5  6  2  0
  5 47  1  0
  6  7  1  0
  7  8  1  0
  7 17  2  0
  8  9  1  0
  9 10  2  0
  9 15  1  0
 10 11  1  0
 10 55  1  0
 11 12  1  0
 11 13  2  0
 13 14  1  0
 13 56  1  0
 14 15  2  0
 14 57  1  0
 15 16  1  0
 17 18  1  0
 18 19  1  0
 18 47  2  0
 19 20  1  0
 20 21  1  0
 20 46  2  0
 21 22  2  0
 21 45  1  0
 22 23  1  0
 22 58  1  0
 23 24  1  0
 23 25  2  0
 24 59  1  0
 24 60  1  0
 24 61  1  0
 25 26  1  0
 25 43  1  0
 26 27  1  0
 27 28  1  0
 27 62  1  0
 27 63  1  0
 28 29  2  0
 28 30  1  0
 30 31  1  0
 30 34  1  0
 31 32  1  0
 31 64  1  0
 31 65  1  0
 32 33  1  0
 32 66  1  0
 32 67  1  0
 33 34  1  0
 33 68  1  0
 33 69  1  0
 34 35  1  6
 34 36  1  0
 36 37  2  0
 36 38  1  0
 39 38  1  6
 39 40  1  0
 39 41  1  0
 39 42  1  0
 40 70  1  0
 40 71  1  0
 40 72  1  0
 41 73  1  0
 41 74  1  0
 41 75  1  0
 42 76  1  0
 42 77  1  0
 42 78  1  0
 43 44  1  0
 43 45  2  0
 44 79  1  0
 44 80  1  0
 44 81  1  0
 45 82  1  0
 46 47  1  0
M  END

