
     RDKit          3D

 33 35  0  0  0  0  0  0  0  0999 V2000
    1.7259    0.2188   -1.1165 C   0  0  0  0  0  0  0  0  0  0  0  0
    2.6856   -0.1201   -0.1158 O   0  0  0  0  0  0  0  0  0  0  0  0
    3.1345    0.8473    0.6734 C   0  0  0  0  0  0  0  0  0  0  0  0
    2.7003    2.0959    0.5345 N   0  0  0  0  0  0  0  0  0  0  0  0
    3.1720    3.0539    1.3488 C   0  0  0  0  0  0  0  0  0  0  0  0
    4.0640    2.9145    2.3261 N   0  0  0  0  0  0  0  0  0  0  0  0
    4.4926    1.6541    2.4536 C   0  0  0  0  0  0  0  0  0  0  0  0
    4.0890    0.5527    1.6755 C   0  0  0  0  0  0  0  0  0  0  0  0
    4.7372   -0.5884    2.0784 N   0  0  0  0  0  0  0  0  0  0  0  0
    5.5034   -0.2097    3.0728 C   0  0  0  0  0  0  0  0  0  0  0  0
    6.3950   -1.1434    3.8129 C   0  0  0  0  0  0  0  0  0  0  0  0
    8.1608   -0.7896    3.5242 Cl  0  0  0  0  0  0  0  0  0  0  0  0
    5.4038    1.1510    3.3598 N   0  0  0  0  0  0  0  0  0  0  0  0
    6.1353    1.9076    4.3687 C   0  0  1  0  0  0  0  0  0  0  0  0
    7.1149    2.9395    3.7546 C   0  0  0  0  0  0  0  0  0  0  0  0
    7.6518    3.8300    4.8840 C   0  0  0  0  0  0  0  0  0  0  0  0
    6.4251    3.7139    6.2627 S   0  0  2  0  0  0  0  0  0  0  0  0
    5.8546    5.0246    6.5830 O   0  0  0  0  0  0  0  0  0  0  0  0
    7.0091    2.8568    7.3066 O   0  0  0  0  0  0  0  0  0  0  0  0
    5.2310    2.6864    5.3319 C   0  0  0  0  0  0  0  0  0  0  0  0
    1.5030   -0.7178   -1.6423 H   0  0  0  0  0  0  0  0  0  0  0  0
    2.1328    0.9640   -1.8161 H   0  0  0  0  0  0  0  0  0  0  0  0
    0.8123    0.6308   -0.6626 H   0  0  0  0  0  0  0  0  0  0  0  0
    2.7774    4.0628    1.1842 H   0  0  0  0  0  0  0  0  0  0  0  0
    6.2010   -2.1575    3.4484 H   0  0  0  0  0  0  0  0  0  0  0  0
    6.2493   -1.1054    4.9010 H   0  0  0  0  0  0  0  0  0  0  0  0
    6.7182    1.1829    4.9533 H   0  0  0  0  0  0  0  0  0  0  0  0
    6.5583    3.5477    3.0270 H   0  0  0  0  0  0  0  0  0  0  0  0
    7.9250    2.4180    3.2250 H   0  0  0  0  0  0  0  0  0  0  0  0
    7.7397    4.8900    4.6135 H   0  0  0  0  0  0  0  0  0  0  0  0
    8.5934    3.4724    5.3222 H   0  0  0  0  0  0  0  0  0  0  0  0
    4.5451    3.3551    4.7941 H   0  0  0  0  0  0  0  0  0  0  0  0
    4.6968    2.0678    6.0647 H   0  0  0  0  0  0  0  0  0  0  0  0
  1  2  1  0
  1 21  1  0
  1 22  1  0
  1 23  1  0
  2  3  1  0
  3  4  2  0
  3  8  1  0
  4  5  1  0
  5  6  2  0
  5 24  1  0
  6  7  1  0
  7  8  2  0
  7 13  1  0
  8  9  1  0
  9 10  2  0
 10 11  1  0
 10 13  1  0
 11 12  1  0
 11 25  1  0
 11 26  1  0
 13 14  1  0
 14 15  1  0
 14 20  1  0
 14 27  1  1
 15 16  1  0
 15 28  1  0
 15 29  1  0
 17 16  1  6
 16 30  1  0
 16 31  1  0
 17 18  2  0
 17 19  2  0
 17 20  1  0
 20 32  1  0
 20 33  1  0
M  END

