
     RDKit          3D

 33 36  0  0  0  0  0  0  0  0999 V2000
    1.0780   -0.0327    0.3232 C   0  0  0  0  0  0  0  0  0  0  0  0
    2.5636   -0.0598    0.1676 C   0  0  0  0  0  0  0  0  0  0  0  0
    3.3210    1.0453    0.2468 N   0  0  0  0  0  0  0  0  0  0  0  0
    4.5886    0.6485    0.0567 C   0  0  0  0  0  0  0  0  0  0  0  0
    5.7758    1.4064    0.0422 C   0  0  0  0  0  0  0  0  0  0  0  0
    6.9829    0.7699   -0.1753 C   0  0  0  0  0  0  0  0  0  0  0  0
    7.0223   -0.6336   -0.3818 C   0  0  0  0  0  0  0  0  0  0  0  0
    5.8643   -1.3745   -0.3679 C   0  0  0  0  0  0  0  0  0  0  0  0
    4.6698   -0.7355   -0.1510 N   0  0  0  0  0  0  0  0  0  0  0  0
    3.3519   -1.2096   -0.0804 C   0  0  0  0  0  0  0  0  0  0  0  0
    2.8836   -2.4725   -0.2108 N   0  0  0  0  0  0  0  0  0  0  0  0
    3.7125   -3.4087   -0.4351 N   0  0  0  0  0  0  0  0  0  0  0  0
    3.1557   -4.6951   -0.5582 C   0  0  0  0  0  0  0  0  0  0  0  0
    1.7790   -4.9770   -0.4500 C   0  0  0  0  0  0  0  0  0  0  0  0
    1.2896   -6.2836   -0.5834 C   0  0  0  0  0  0  0  0  0  0  0  0
    2.2152   -7.2887   -0.8266 C   0  0  0  0  0  0  0  0  0  0  0  0
    3.5818   -7.0169   -0.9352 C   0  0  0  0  0  0  0  0  0  0  0  0
    4.0843   -5.7385   -0.8072 C   0  0  0  0  0  0  0  0  0  0  0  0
    4.2570   -8.1832   -1.1725 O   0  0  0  0  0  0  0  0  0  0  0  0
    3.2797   -9.2177   -1.2234 C   0  0  0  0  0  0  0  0  0  0  0  0
    2.0019   -8.6260   -0.9926 O   0  0  0  0  0  0  0  0  0  0  0  0
    0.7552    0.9875    0.5697 H   0  0  0  0  0  0  0  0  0  0  0  0
    0.7476   -0.7200    1.1176 H   0  0  0  0  0  0  0  0  0  0  0  0
    0.5755   -0.3512   -0.6045 H   0  0  0  0  0  0  0  0  0  0  0  0
    5.6974    2.4817    0.2056 H   0  0  0  0  0  0  0  0  0  0  0  0
    7.9112    1.3453   -0.1891 H   0  0  0  0  0  0  0  0  0  0  0  0
    7.9705   -1.1450   -0.5546 H   0  0  0  0  0  0  0  0  0  0  0  0
    5.7949   -2.4495   -0.5162 H   0  0  0  0  0  0  0  0  0  0  0  0
    1.0986   -4.1475   -0.2585 H   0  0  0  0  0  0  0  0  0  0  0  0
    0.2250   -6.5089   -0.5005 H   0  0  0  0  0  0  0  0  0  0  0  0
    5.1487   -5.5195   -0.8907 H   0  0  0  0  0  0  0  0  0  0  0  0
    3.4876   -9.9684   -0.4392 H   0  0  0  0  0  0  0  0  0  0  0  0
    3.2920   -9.6962   -2.2201 H   0  0  0  0  0  0  0  0  0  0  0  0
  1  2  1  0
  1 22  1  0
  1 23  1  0
  1 24  1  0
  2  3  1  0
  2 10  2  0
  3  4  2  0
  4  5  1  0
  4  9  1  0
  5  6  2  0
  5 25  1  0
  6  7  1  0
  6 26  1  0
  7  8  2  0
  7 27  1  0
  8  9  1  0
  8 28  1  0
  9 10  1  0
 10 11  1  0
 11 12  2  0
 12 13  1  0
 13 14  2  0
 13 18  1  0
 14 15  1  0
 14 29  1  0
 15 16  2  0
 15 30  1  0
 16 17  1  0
 16 21  1  0
 17 18  2  0
 17 19  1  0
 18 31  1  0
 19 20  1  0
 20 21  1  0
 20 32  1  0
 20 33  1  0
M  END

