
     RDKit          3D

 50 53  0  0  0  0  0  0  0  0999 V2000
    1.5498   -0.3675    0.5936 C   0  0  0  0  0  0  0  0  0  0  0  0
    2.9865   -0.0095    0.3864 C   0  0  0  0  0  0  0  0  0  0  0  0
    3.9328   -0.9321    0.3501 N   0  0  0  0  0  0  0  0  0  0  0  0
    5.1211   -0.3109    0.1482 N   0  0  0  0  0  0  0  0  0  0  0  0
    6.3506   -1.0638    0.0533 C   0  0  0  0  0  0  0  0  0  0  0  0
    4.9608    1.0387    0.0501 C   0  0  0  0  0  0  0  0  0  0  0  0
    5.9128    1.9506   -0.1593 N   0  0  0  0  0  0  0  0  0  0  0  0
    5.4823    3.2050   -0.2099 C   0  0  0  0  0  0  0  0  0  0  0  0
    4.1267    3.6076   -0.0551 C   0  0  0  0  0  0  0  0  0  0  0  0
    3.6548    5.0360   -0.1191 C   0  0  0  0  0  0  0  0  0  0  0  0
    2.4755    5.3016   -0.2918 O   0  0  0  0  0  0  0  0  0  0  0  0
    4.6327    5.9870    0.0602 N   0  0  0  0  0  0  0  0  0  0  0  0
    4.5277    7.3894   -0.0172 C   0  0  0  0  0  0  0  0  0  0  0  0
    3.4376    8.0502   -0.6061 C   0  0  0  0  0  0  0  0  0  0  0  0
    3.4459    9.4411   -0.7145 C   0  0  0  0  0  0  0  0  0  0  0  0
    4.5295   10.1852   -0.2405 C   0  0  0  0  0  0  0  0  0  0  0  0
    5.6023    9.5398    0.3759 C   0  0  0  0  0  0  0  0  0  0  0  0
    5.6057    8.1463    0.5081 C   0  0  0  0  0  0  0  0  0  0  0  0
    6.6456    7.4419    1.1760 N   0  0  0  0  0  0  0  0  0  0  0  0
    7.9951    7.8129    1.1590 C   0  0  0  0  0  0  0  0  0  0  0  0
    8.4360    8.6900    0.4357 O   0  0  0  0  0  0  0  0  0  0  0  0
    8.7920    7.0897    2.0141 N   0  0  0  0  0  0  0  0  0  0  0  0
    8.3955    5.9397    2.8262 C   0  0  0  0  0  0  0  0  0  0  0  0
    9.6794    5.5799    3.5903 C   0  0  0  0  0  0  0  0  0  0  0  0
   10.7949    6.0216    2.6319 C   0  0  0  0  0  0  0  0  0  0  0  0
   10.2418    7.3163    2.0264 C   0  0  0  0  0  0  0  0  0  0  0  0
    3.1496    2.6242    0.1381 C   0  0  0  0  0  0  0  0  0  0  0  0
    3.5685    1.2927    0.2013 C   0  0  0  0  0  0  0  0  0  0  0  0
    1.4500   -1.4561    0.7024 H   0  0  0  0  0  0  0  0  0  0  0  0
    0.9283   -0.0420   -0.2571 H   0  0  0  0  0  0  0  0  0  0  0  0
    1.1418    0.1139    1.4979 H   0  0  0  0  0  0  0  0  0  0  0  0
    6.2984   -1.7821   -0.7793 H   0  0  0  0  0  0  0  0  0  0  0  0
    6.5392   -1.6162    0.9869 H   0  0  0  0  0  0  0  0  0  0  0  0
    7.1666   -0.3517   -0.1254 H   0  0  0  0  0  0  0  0  0  0  0  0
    6.2570    3.9527   -0.4200 H   0  0  0  0  0  0  0  0  0  0  0  0
    5.5725    5.6608    0.2531 H   0  0  0  0  0  0  0  0  0  0  0  0
    2.6002    7.4603   -0.9714 H   0  0  0  0  0  0  0  0  0  0  0  0
    2.5959    9.9444   -1.1821 H   0  0  0  0  0  0  0  0  0  0  0  0
    4.5382   11.2733   -0.3382 H   0  0  0  0  0  0  0  0  0  0  0  0
    6.4543   10.1054    0.7503 H   0  0  0  0  0  0  0  0  0  0  0  0
    6.3418    6.8424    1.9361 H   0  0  0  0  0  0  0  0  0  0  0  0
    8.0587    5.0948    2.1928 H   0  0  0  0  0  0  0  0  0  0  0  0
    7.5698    6.1851    3.5188 H   0  0  0  0  0  0  0  0  0  0  0  0
    9.7217    4.5141    3.8589 H   0  0  0  0  0  0  0  0  0  0  0  0
    9.7312    6.1617    4.5255 H   0  0  0  0  0  0  0  0  0  0  0  0
   10.9365    5.2650    1.8419 H   0  0  0  0  0  0  0  0  0  0  0  0
   11.7638    6.1661    3.1322 H   0  0  0  0  0  0  0  0  0  0  0  0
   10.6029    7.5255    1.0096 H   0  0  0  0  0  0  0  0  0  0  0  0
   10.4946    8.1962    2.6469 H   0  0  0  0  0  0  0  0  0  0  0  0
    2.1053    2.9309    0.2292 H   0  0  0  0  0  0  0  0  0  0  0  0
  1  2  1  0
  1 29  1  0
  1 30  1  0
  1 31  1  0
  2  3  2  0
  2 28  1  0
  3  4  1  0
  4  5  1  0
  4  6  1  0
  5 32  1  0
  5 33  1  0
  5 34  1  0
  6  7  1  0
  6 28  2  0
  7  8  2  0
  8  9  1  0
  8 35  1  0
  9 10  1  0
  9 27  2  0
 10 11  2  0
 10 12  1  0
 12 13  1  0
 12 36  1  0
 13 14  2  0
 13 18  1  0
 14 15  1  0
 14 37  1  0
 15 16  2  0
 15 38  1  0
 16 17  1  0
 16 39  1  0
 17 18  2  0
 17 40  1  0
 18 19  1  0
 19 20  1  0
 19 41  1  0
 20 21  2  0
 20 22  1  0
 22 23  1  0
 22 26  1  0
 23 24  1  0
 23 42  1  0
 23 43  1  0
 24 25  1  0
 24 44  1  0
 24 45  1  0
 25 26  1  0
 25 46  1  0
 25 47  1  0
 26 48  1  0
 26 49  1  0
 27 28  1  0
 27 50  1  0
M  END

