
     RDKit          3D

 79 81  0  0  0  0  0  0  0  0999 V2000
   10.2613    4.7004    2.9377 C   0  0  0  0  0  0  0  0  0  0  0  0
    9.0147    4.0681    2.3935 C   0  0  0  0  0  0  0  0  0  0  0  0
    8.8032    2.7358    2.3864 C   0  0  0  0  0  0  0  0  0  0  0  0
    7.5497    2.1712    1.8807 C   0  0  0  0  0  0  0  0  0  0  0  0
    7.4075    0.8150    2.1617 O   0  0  0  0  0  0  0  0  0  0  0  0
    5.9860    0.0510    2.4087 P   0  0  1  0  0  0  0  0  0  0  0  0
    4.9401    0.2377    1.3750 O   0  0  0  0  0  0  0  0  0  0  0  0
    6.4645   -1.4593    2.5684 O   0  0  0  0  0  0  0  0  0  0  0  0
    7.6564   -2.0755    3.1216 C   0  0  2  0  0  0  0  0  0  0  0  0
    7.3202   -3.1055    3.3228 H   0  0  0  0  0  0  0  0  0  0  0  0
    8.0861   -1.4468    4.4479 C   0  0  0  0  0  0  0  0  0  0  0  0
    9.2819   -2.1911    5.0656 C   0  0  2  0  0  0  0  0  0  0  0  0
    8.9589   -3.2293    5.2766 H   0  0  0  0  0  0  0  0  0  0  0  0
    9.7155   -1.5564    6.3893 C   0  0  0  0  0  0  0  0  0  0  0  0
   10.4316   -2.2659    4.0495 C   0  0  0  0  0  0  0  0  0  0  0  0
    9.9847   -2.8796    2.7176 C   0  0  0  0  0  0  0  0  0  0  0  0
    8.7969   -2.1237    2.0885 C   0  0  1  0  0  0  0  0  0  0  0  0
    9.1163   -1.0792    1.9282 H   0  0  0  0  0  0  0  0  0  0  0  0
    8.3503   -2.6623    0.7016 C   0  0  2  0  0  0  0  0  0  0  0  0
    7.8793   -4.1239    0.7109 C   0  0  0  0  0  0  0  0  0  0  0  0
    9.4324   -2.4436   -0.3654 C   0  0  0  0  0  0  0  0  0  0  0  0
    5.5652    0.5343    3.8888 O   0  0  0  0  0  0  0  0  0  0  0  0
    4.2692    1.1181    4.1973 C   0  0  2  0  0  0  0  0  0  0  0  0
    3.6999    1.1845    3.2568 H   0  0  0  0  0  0  0  0  0  0  0  0
    4.5157    2.5233    4.7442 C   0  0  0  0  0  0  0  0  0  0  0  0
    3.2172    3.2259    5.1694 C   0  0  2  0  0  0  0  0  0  0  0  0
    2.5858    3.3367    4.2664 H   0  0  0  0  0  0  0  0  0  0  0  0
    3.4876    4.6248    5.7286 C   0  0  0  0  0  0  0  0  0  0  0  0
    2.4488    2.3389    6.1601 C   0  0  0  0  0  0  0  0  0  0  0  0
    2.2097    0.9313    5.6031 C   0  0  0  0  0  0  0  0  0  0  0  0
    3.5187    0.2232    5.1972 C   0  0  1  0  0  0  0  0  0  0  0  0
    4.1586    0.1713    6.0991 H   0  0  0  0  0  0  0  0  0  0  0  0
    3.3296   -1.2394    4.7088 C   0  0  2  0  0  0  0  0  0  0  0  0
    2.4453   -1.3844    3.4602 C   0  0  0  0  0  0  0  0  0  0  0  0
    2.8365   -2.1535    5.8402 C   0  0  0  0  0  0  0  0  0  0  0  0
    6.6699    2.8992    1.1680 C   0  0  0  0  0  0  0  0  0  0  0  0
    7.0096    4.3355    0.8506 C   0  0  0  0  0  0  0  0  0  0  0  0
    7.9015    4.9825    1.9193 C   0  0  0  0  0  0  0  0  0  0  0  0
   10.9678    3.9532    3.3285 H   0  0  0  0  0  0  0  0  0  0  0  0
   10.0186    5.4058    3.7536 H   0  0  0  0  0  0  0  0  0  0  0  0
   10.7786    5.2932    2.1623 H   0  0  0  0  0  0  0  0  0  0  0  0
    9.5489    2.0375    2.7752 H   0  0  0  0  0  0  0  0  0  0  0  0
    7.2323   -1.4449    5.1439 H   0  0  0  0  0  0  0  0  0  0  0  0
    8.3612   -0.3920    4.2809 H   0  0  0  0  0  0  0  0  0  0  0  0
    8.8889   -1.5393    7.1179 H   0  0  0  0  0  0  0  0  0  0  0  0
   10.0472   -0.5150    6.2381 H   0  0  0  0  0  0  0  0  0  0  0  0
   10.5530   -2.1107    6.8431 H   0  0  0  0  0  0  0  0  0  0  0  0
   11.2692   -2.8473    4.4717 H   0  0  0  0  0  0  0  0  0  0  0  0
   10.8197   -1.2451    3.8732 H   0  0  0  0  0  0  0  0  0  0  0  0
    9.7068   -3.9355    2.8853 H   0  0  0  0  0  0  0  0  0  0  0  0
   10.8303   -2.8934    2.0122 H   0  0  0  0  0  0  0  0  0  0  0  0
    7.4835   -2.0477    0.4087 H   0  0  0  0  0  0  0  0  0  0  0  0
    8.6948   -4.8208    0.9667 H   0  0  0  0  0  0  0  0  0  0  0  0
    7.5085   -4.4112   -0.2861 H   0  0  0  0  0  0  0  0  0  0  0  0
    7.0539   -4.2909    1.4205 H   0  0  0  0  0  0  0  0  0  0  0  0
   10.3189   -3.0771   -0.1948 H   0  0  0  0  0  0  0  0  0  0  0  0
    9.7690   -1.3941   -0.3894 H   0  0  0  0  0  0  0  0  0  0  0  0
    9.0457   -2.6913   -1.3670 H   0  0  0  0  0  0  0  0  0  0  0  0
    5.0437    3.1151    3.9782 H   0  0  0  0  0  0  0  0  0  0  0  0
    5.1961    2.4448    5.6116 H   0  0  0  0  0  0  0  0  0  0  0  0
    4.0121    5.2577    4.9942 H   0  0  0  0  0  0  0  0  0  0  0  0
    4.1166    4.5739    6.6339 H   0  0  0  0  0  0  0  0  0  0  0  0
    2.5499    5.1349    6.0027 H   0  0  0  0  0  0  0  0  0  0  0  0
    1.4856    2.8108    6.4198 H   0  0  0  0  0  0  0  0  0  0  0  0
    3.0255    2.2710    7.1018 H   0  0  0  0  0  0  0  0  0  0  0  0
    1.5421    1.0021    4.7263 H   0  0  0  0  0  0  0  0  0  0  0  0
    1.6742    0.3224    6.3483 H   0  0  0  0  0  0  0  0  0  0  0  0
    4.3366   -1.5941    4.4322 H   0  0  0  0  0  0  0  0  0  0  0  0
    1.4122   -1.0460    3.6450 H   0  0  0  0  0  0  0  0  0  0  0  0
    2.3885   -2.4434    3.1600 H   0  0  0  0  0  0  0  0  0  0  0  0
    2.8470   -0.8291    2.5991 H   0  0  0  0  0  0  0  0  0  0  0  0
    1.7982   -1.9264    6.1338 H   0  0  0  0  0  0  0  0  0  0  0  0
    3.4662   -2.0623    6.7410 H   0  0  0  0  0  0  0  0  0  0  0  0
    2.8584   -3.2088    5.5236 H   0  0  0  0  0  0  0  0  0  0  0  0
    5.7766    2.4341    0.7477 H   0  0  0  0  0  0  0  0  0  0  0  0
    6.0907    4.9291    0.7208 H   0  0  0  0  0  0  0  0  0  0  0  0
    7.5264    4.3665   -0.1310 H   0  0  0  0  0  0  0  0  0  0  0  0
    7.2908    5.2515    2.8061 H   0  0  0  0  0  0  0  0  0  0  0  0
    8.3172    5.9321    1.5441 H   0  0  0  0  0  0  0  0  0  0  0  0
  1  2  1  0
  1 39  1  0
  1 40  1  0
  1 41  1  0
  2  3  2  0
  2 38  1  0
  3  4  1  0
  3 42  1  0
  4  5  1  0
  4 36  2  0
  6  5  1  6
  6  7  2  0
  6  8  1  0
  6 22  1  0
  8  9  1  0
  9 10  1  1
  9 11  1  0
  9 17  1  0
 11 12  1  0
 11 43  1  0
 11 44  1  0
 12 13  1  1
 12 14  1  0
 12 15  1  0
 14 45  1  0
 14 46  1  0
 14 47  1  0
 15 16  1  0
 15 48  1  0
 15 49  1  0
 16 17  1  0
 16 50  1  0
 16 51  1  0
 17 18  1  6
 17 19  1  0
 19 20  1  0
 19 21  1  0
 19 52  1  6
 20 53  1  0
 20 54  1  0
 20 55  1  0
 21 56  1  0
 21 57  1  0
 21 58  1  0
 22 23  1  0
 23 24  1  6
 23 25  1  0
 23 31  1  0
 25 26  1  0
 25 59  1  0
 25 60  1  0
 26 27  1  6
 26 28  1  0
 26 29  1  0
 28 61  1  0
 28 62  1  0
 28 63  1  0
 29 30  1  0
 29 64  1  0
 29 65  1  0
 30 31  1  0
 30 66  1  0
 30 67  1  0
 31 32  1  1
 31 33  1  0
 33 34  1  0
 33 35  1  0
 33 68  1  6
 34 69  1  0
 34 70  1  0
 34 71  1  0
 35 72  1  0
 35 73  1  0
 35 74  1  0
 36 37  1  0
 36 75  1  0
 37 38  1  0
 37 76  1  0
 37 77  1  0
 38 78  1  0
 38 79  1  0
M  END

