
     RDKit          3D

186204  0  0  0  0  0  0  0  0999 V2000
    8.6596   -1.8918    4.2124 C   0  0  0  0  0  0  0  0  0  0  0  0
    7.2100   -1.4163    4.4509 C   0  0  2  0  0  0  0  0  0  0  0  0
    6.8173   -1.6286    5.9290 C   0  0  0  0  0  0  0  0  0  0  0  0
    6.2303   -2.1180    3.5073 C   0  0  0  0  0  0  0  0  0  0  0  0
    5.9356   -3.4708    3.4059 C   0  0  0  0  0  0  0  0  0  0  0  0
    4.9887   -3.9307    2.4605 C   0  0  0  0  0  0  0  0  0  0  0  0
    4.7093   -5.3632    2.3912 C   0  0  0  0  0  0  0  0  0  0  0  0
    3.8419   -5.9969    1.5703 C   0  0  0  0  0  0  0  0  0  0  0  0
    3.6318   -7.4470    1.5838 C   0  0  0  0  0  0  0  0  0  0  0  0
    4.3305   -8.2057    2.4448 N   0  0  0  0  0  0  0  0  0  0  0  0
    4.0832   -9.5238    2.4019 C   0  0  0  0  0  0  0  0  0  0  0  0
    4.8416  -10.3621    3.3360 C   0  0  0  0  0  0  0  0  0  0  0  0
    4.7080  -11.7044    3.4194 C   0  0  0  0  0  0  0  0  0  0  0  0
    5.4194  -12.6148    4.3145 C   0  0  0  0  0  0  0  0  0  0  0  0
    5.1270  -13.9954    4.2489 C   0  0  0  0  0  0  0  0  0  0  0  0
    5.7659  -14.9226    5.0721 C   0  0  0  0  0  0  0  0  0  0  0  0
    6.7223  -14.4707    5.9879 C   0  0  0  0  0  0  0  0  0  0  0  0
    7.0301  -13.0909    6.0689 C   0  0  0  0  0  0  0  0  0  0  0  0
    6.3915  -12.1765    5.2470 C   0  0  0  0  0  0  0  0  0  0  0  0
    8.0995  -12.8341    7.1344 C   0  0  1  0  0  0  0  0  0  0  0  0
    9.3735  -12.2196    6.5153 C   0  0  0  0  0  0  0  0  0  0  0  0
    7.5637  -11.9240    8.2608 C   0  0  0  0  0  0  0  0  0  0  0  0
    8.3554  -14.2544    7.6447 C   0  0  0  0  0  0  0  0  0  0  0  0
    9.2478  -14.6702    8.6240 C   0  0  0  0  0  0  0  0  0  0  0  0
    9.3346  -16.0402    8.9551 C   0  0  0  0  0  0  0  0  0  0  0  0
   10.2388  -16.4780    9.9540 N   0  0  0  0  0  0  0  0  0  0  0  0
   10.4029  -15.7192   11.1459 C   0  0  0  0  0  0  0  0  0  0  0  0
    9.2873  -15.1848   11.8151 C   0  0  0  0  0  0  0  0  0  0  0  0
    9.4562  -14.4302   12.9777 C   0  0  0  0  0  0  0  0  0  0  0  0
   10.7333  -14.2092   13.5025 C   0  0  0  0  0  0  0  0  0  0  0  0
   11.8450  -14.7471   12.8450 C   0  0  0  0  0  0  0  0  0  0  0  0
   11.6864  -15.4888   11.6737 C   0  0  0  0  0  0  0  0  0  0  0  0
   10.9351  -17.7044    9.7961 C   0  0  0  0  0  0  0  0  0  0  0  0
   11.5122  -18.0309    8.5311 C   0  0  0  0  0  0  0  0  0  0  0  0
   12.2031  -19.2073    8.3574 C   0  0  0  0  0  0  0  0  0  0  0  0
   12.3794  -20.1290    9.4284 C   0  0  0  0  0  0  0  0  0  0  0  0
   13.0933  -21.3492    9.2808 C   0  0  0  0  0  0  0  0  0  0  0  0
   13.2412  -22.2157   10.3449 C   0  0  0  0  0  0  0  0  0  0  0  0
   12.6782  -21.8956   11.6065 C   0  0  0  0  0  0  0  0  0  0  0  0
   11.9818  -20.7178   11.7826 C   0  0  0  0  0  0  0  0  0  0  0  0
   11.8118  -19.8013   10.7055 C   0  0  0  0  0  0  0  0  0  0  0  0
   11.0868  -18.5887   10.8539 C   0  0  0  0  0  0  0  0  0  0  0  0
    8.5131  -16.9664    8.2778 C   0  0  0  0  0  0  0  0  0  0  0  0
    7.6300  -16.5487    7.2823 C   0  0  0  0  0  0  0  0  0  0  0  0
    7.5442  -15.1887    6.9628 C   0  0  0  0  0  0  0  0  0  0  0  0
    3.1999  -10.0957    1.5680 N   0  0  0  0  0  0  0  0  0  0  0  0
    2.5475   -9.2655    0.7424 C   0  0  0  0  0  0  0  0  0  0  0  0
    1.5644   -9.8038   -0.2021 C   0  0  0  0  0  0  0  0  0  0  0  0
    1.2540  -11.1159   -0.2982 C   0  0  0  0  0  0  0  0  0  0  0  0
    0.2904  -11.7372   -1.2041 C   0  0  0  0  0  0  0  0  0  0  0  0
    0.0999  -13.1354   -1.1357 C   0  0  0  0  0  0  0  0  0  0  0  0
   -0.8044  -13.7961   -1.9672 C   0  0  0  0  0  0  0  0  0  0  0  0
   -1.5422  -13.0515   -2.8939 C   0  0  0  0  0  0  0  0  0  0  0  0
   -1.3648  -11.6491   -2.9793 C   0  0  0  0  0  0  0  0  0  0  0  0
   -0.4642  -11.0005   -2.1501 C   0  0  0  0  0  0  0  0  0  0  0  0
   -2.2712  -11.0516   -4.0590 C   0  0  1  0  0  0  0  0  0  0  0  0
   -3.2758  -10.0455   -3.4564 C   0  0  0  0  0  0  0  0  0  0  0  0
   -1.4461  -10.3748   -5.1748 C   0  0  0  0  0  0  0  0  0  0  0  0
   -2.9842  -12.3048   -4.5726 C   0  0  0  0  0  0  0  0  0  0  0  0
   -3.9341  -12.4028   -5.5823 C   0  0  0  0  0  0  0  0  0  0  0  0
   -4.4802  -13.6629   -5.9084 C   0  0  0  0  0  0  0  0  0  0  0  0
   -5.4609  -13.7795   -6.9240 N   0  0  0  0  0  0  0  0  0  0  0  0
   -5.4141  -14.8680   -7.8384 C   0  0  0  0  0  0  0  0  0  0  0  0
   -6.5920  -15.5495   -8.1956 C   0  0  0  0  0  0  0  0  0  0  0  0
   -6.5455  -16.6143   -9.0962 C   0  0  0  0  0  0  0  0  0  0  0  0
   -5.3271  -17.0297   -9.6444 C   0  0  0  0  0  0  0  0  0  0  0  0
   -4.1531  -16.3598   -9.2865 C   0  0  0  0  0  0  0  0  0  0  0  0
   -4.1928  -15.2829   -8.3985 C   0  0  0  0  0  0  0  0  0  0  0  0
   -6.4485  -12.7717   -7.0761 C   0  0  0  0  0  0  0  0  0  0  0  0
   -7.1031  -12.2455   -5.9209 C   0  0  0  0  0  0  0  0  0  0  0  0
   -8.0724  -11.2774   -6.0430 C   0  0  0  0  0  0  0  0  0  0  0  0
   -8.4661  -10.7787   -7.3176 C   0  0  0  0  0  0  0  0  0  0  0  0
   -9.4684   -9.7836   -7.4757 C   0  0  0  0  0  0  0  0  0  0  0  0
   -9.8210   -9.3273   -8.7298 C   0  0  0  0  0  0  0  0  0  0  0  0
   -9.1822   -9.8507   -9.8826 C   0  0  0  0  0  0  0  0  0  0  0  0
   -8.2073  -10.8194   -9.7626 C   0  0  0  0  0  0  0  0  0  0  0  0
   -7.8207  -11.3125   -8.4833 C   0  0  0  0  0  0  0  0  0  0  0  0
   -6.8093  -12.2982   -8.3288 C   0  0  0  0  0  0  0  0  0  0  0  0
   -4.0418  -14.8069   -5.2067 C   0  0  0  0  0  0  0  0  0  0  0  0
   -3.0760  -14.7086   -4.2068 C   0  0  0  0  0  0  0  0  0  0  0  0
   -2.5442  -13.4543   -3.8814 C   0  0  0  0  0  0  0  0  0  0  0  0
    2.7319   -7.9329    0.7142 N   0  0  0  0  0  0  0  0  0  0  0  0
    4.3547   -2.9797    1.6267 C   0  0  0  0  0  0  0  0  0  0  0  0
    4.6443   -1.6217    1.7228 C   0  0  0  0  0  0  0  0  0  0  0  0
    5.5859   -1.1846    2.6661 C   0  0  0  0  0  0  0  0  0  0  0  0
    6.0803    0.1542    2.9902 C   0  0  0  0  0  0  0  0  0  0  0  0
    5.7675    1.4138    2.4634 C   0  0  0  0  0  0  0  0  0  0  0  0
    6.4048    2.5465    2.9672 C   0  0  0  0  0  0  0  0  0  0  0  0
    7.3490    2.4447    4.0116 C   0  0  0  0  0  0  0  0  0  0  0  0
    7.9861    3.6060    4.5151 N   0  0  0  0  0  0  0  0  0  0  0  0
    7.2372    4.7982    4.7172 C   0  0  0  0  0  0  0  0  0  0  0  0
    5.9535    4.7511    5.2897 C   0  0  0  0  0  0  0  0  0  0  0  0
    5.2197    5.9246    5.4747 C   0  0  0  0  0  0  0  0  0  0  0  0
    5.7557    7.1633    5.1095 C   0  0  0  0  0  0  0  0  0  0  0  0
    7.0359    7.2152    4.5475 C   0  0  0  0  0  0  0  0  0  0  0  0
    7.7696    6.0459    4.3443 C   0  0  0  0  0  0  0  0  0  0  0  0
    9.3538    3.5586    4.8899 C   0  0  0  0  0  0  0  0  0  0  0  0
   10.2946    2.8973    4.0426 C   0  0  0  0  0  0  0  0  0  0  0  0
   11.6277    2.8483    4.3771 C   0  0  0  0  0  0  0  0  0  0  0  0
   12.1174    3.4633    5.5646 C   0  0  0  0  0  0  0  0  0  0  0  0
   13.4897    3.4349    5.9334 C   0  0  0  0  0  0  0  0  0  0  0  0
   13.9235    4.0441    7.0935 C   0  0  0  0  0  0  0  0  0  0  0  0
   12.9976    4.7099    7.9363 C   0  0  0  0  0  0  0  0  0  0  0  0
   11.6593    4.7574    7.6047 C   0  0  0  0  0  0  0  0  0  0  0  0
   11.1790    4.1399    6.4143 C   0  0  0  0  0  0  0  0  0  0  0  0
    9.8045    4.1600    6.0557 C   0  0  0  0  0  0  0  0  0  0  0  0
    7.6540    1.1737    4.5443 C   0  0  0  0  0  0  0  0  0  0  0  0
    7.0301    0.0440    4.0290 C   0  0  0  0  0  0  0  0  0  0  0  0
    8.7653   -2.9604    4.4596 H   0  0  0  0  0  0  0  0  0  0  0  0
    9.3645   -1.3282    4.8446 H   0  0  0  0  0  0  0  0  0  0  0  0
    8.9554   -1.7532    3.1614 H   0  0  0  0  0  0  0  0  0  0  0  0
    6.8864   -2.6940    6.2017 H   0  0  0  0  0  0  0  0  0  0  0  0
    5.7864   -1.2932    6.1184 H   0  0  0  0  0  0  0  0  0  0  0  0
    7.4899   -1.0667    6.5968 H   0  0  0  0  0  0  0  0  0  0  0  0
    6.4294   -4.2006    4.0542 H   0  0  0  0  0  0  0  0  0  0  0  0
    5.2675   -5.9974    3.0878 H   0  0  0  0  0  0  0  0  0  0  0  0
    3.2319   -5.4652    0.8370 H   0  0  0  0  0  0  0  0  0  0  0  0
    5.5346   -9.8042    3.9692 H   0  0  0  0  0  0  0  0  0  0  0  0
    3.9845  -12.1657    2.7399 H   0  0  0  0  0  0  0  0  0  0  0  0
    4.3780  -14.3388    3.5303 H   0  0  0  0  0  0  0  0  0  0  0  0
    5.5185  -15.9845    4.9971 H   0  0  0  0  0  0  0  0  0  0  0  0
    6.6346  -11.1136    5.3142 H   0  0  0  0  0  0  0  0  0  0  0  0
    9.1608  -11.2248    6.0921 H   0  0  0  0  0  0  0  0  0  0  0  0
    9.7711  -12.8558    5.7102 H   0  0  0  0  0  0  0  0  0  0  0  0
   10.1595  -12.0991    7.2781 H   0  0  0  0  0  0  0  0  0  0  0  0
    7.3233  -10.9217    7.8715 H   0  0  0  0  0  0  0  0  0  0  0  0
    8.3156  -11.8048    9.0574 H   0  0  0  0  0  0  0  0  0  0  0  0
    6.6512  -12.3439    8.7106 H   0  0  0  0  0  0  0  0  0  0  0  0
    9.8881  -13.9538    9.1428 H   0  0  0  0  0  0  0  0  0  0  0  0
    8.2866  -15.3651   11.4178 H   0  0  0  0  0  0  0  0  0  0  0  0
    8.5774  -14.0230   13.4849 H   0  0  0  0  0  0  0  0  0  0  0  0
   10.8616  -13.6237   14.4159 H   0  0  0  0  0  0  0  0  0  0  0  0
   12.8501  -14.5775   13.2402 H   0  0  0  0  0  0  0  0  0  0  0  0
   12.5585  -15.8966   11.1589 H   0  0  0  0  0  0  0  0  0  0  0  0
   11.4038  -17.3290    7.7024 H   0  0  0  0  0  0  0  0  0  0  0  0
   12.6429  -19.4400    7.3835 H   0  0  0  0  0  0  0  0  0  0  0  0
   13.5251  -21.5916    8.3057 H   0  0  0  0  0  0  0  0  0  0  0  0
   13.7922  -23.1511   10.2192 H   0  0  0  0  0  0  0  0  0  0  0  0
   12.7997  -22.5883   12.4433 H   0  0  0  0  0  0  0  0  0  0  0  0
   11.5489  -20.4720   12.7563 H   0  0  0  0  0  0  0  0  0  0  0  0
   10.6471  -18.3525   11.8250 H   0  0  0  0  0  0  0  0  0  0  0  0
    8.5708  -18.0230    8.5448 H   0  0  0  0  0  0  0  0  0  0  0  0
    7.0034  -17.2851    6.7725 H   0  0  0  0  0  0  0  0  0  0  0  0
    1.0940   -9.0442   -0.8300 H   0  0  0  0  0  0  0  0  0  0  0  0
    1.7822  -11.7932    0.3802 H   0  0  0  0  0  0  0  0  0  0  0  0
    0.6808  -13.7083   -0.4080 H   0  0  0  0  0  0  0  0  0  0  0  0
   -0.9292  -14.8792   -1.8906 H   0  0  0  0  0  0  0  0  0  0  0  0
   -0.3315   -9.9186   -2.2221 H   0  0  0  0  0  0  0  0  0  0  0  0
   -2.7498   -9.1746   -3.0336 H   0  0  0  0  0  0  0  0  0  0  0  0
   -3.8693  -10.5090   -2.6538 H   0  0  0  0  0  0  0  0  0  0  0  0
   -3.9704   -9.6776   -4.2285 H   0  0  0  0  0  0  0  0  0  0  0  0
   -0.8856   -9.5134   -4.7776 H   0  0  0  0  0  0  0  0  0  0  0  0
   -2.1038  -10.0061   -5.9782 H   0  0  0  0  0  0  0  0  0  0  0  0
   -0.7242  -11.0778   -5.6176 H   0  0  0  0  0  0  0  0  0  0  0  0
   -4.2630  -11.5187   -6.1322 H   0  0  0  0  0  0  0  0  0  0  0  0
   -7.5440  -15.2372   -7.7621 H   0  0  0  0  0  0  0  0  0  0  0  0
   -7.4706  -17.1327   -9.3615 H   0  0  0  0  0  0  0  0  0  0  0  0
   -5.2935  -17.8680  -10.3442 H   0  0  0  0  0  0  0  0  0  0  0  0
   -3.1946  -16.6684   -9.7122 H   0  0  0  0  0  0  0  0  0  0  0  0
   -3.2742  -14.7562   -8.1331 H   0  0  0  0  0  0  0  0  0  0  0  0
   -6.8290  -12.6287   -4.9364 H   0  0  0  0  0  0  0  0  0  0  0  0
   -8.5677  -10.8889   -5.1487 H   0  0  0  0  0  0  0  0  0  0  0  0
   -9.9578   -9.3830   -6.5834 H   0  0  0  0  0  0  0  0  0  0  0  0
  -10.5932   -8.5617   -8.8388 H   0  0  0  0  0  0  0  0  0  0  0  0
   -9.4675   -9.4829  -10.8717 H   0  0  0  0  0  0  0  0  0  0  0  0
   -7.7163  -11.2226  -10.6526 H   0  0  0  0  0  0  0  0  0  0  0  0
   -6.3142  -12.6902   -9.2195 H   0  0  0  0  0  0  0  0  0  0  0  0
   -4.4722  -15.7788   -5.4539 H   0  0  0  0  0  0  0  0  0  0  0  0
   -2.7537  -15.6084   -3.6765 H   0  0  0  0  0  0  0  0  0  0  0  0
    3.6212   -3.3153    0.8909 H   0  0  0  0  0  0  0  0  0  0  0  0
    4.1388   -0.9084    1.0668 H   0  0  0  0  0  0  0  0  0  0  0  0
    5.0410    1.5178    1.6534 H   0  0  0  0  0  0  0  0  0  0  0  0
    6.1776    3.5292    2.5507 H   0  0  0  0  0  0  0  0  0  0  0  0
    5.5342    3.7886    5.5885 H   0  0  0  0  0  0  0  0  0  0  0  0
    4.2234    5.8689    5.9213 H   0  0  0  0  0  0  0  0  0  0  0  0
    5.1814    8.0802    5.2611 H   0  0  0  0  0  0  0  0  0  0  0  0
    7.4652    8.1758    4.2507 H   0  0  0  0  0  0  0  0  0  0  0  0
    8.7633    6.0915    3.8946 H   0  0  0  0  0  0  0  0  0  0  0  0
    9.9418    2.4366    3.1182 H   0  0  0  0  0  0  0  0  0  0  0  0
   12.3357    2.3426    3.7145 H   0  0  0  0  0  0  0  0  0  0  0  0
   14.1997    2.9199    5.2800 H   0  0  0  0  0  0  0  0  0  0  0  0
   14.9814    4.0156    7.3665 H   0  0  0  0  0  0  0  0  0  0  0  0
   13.3501    5.1890    8.8534 H   0  0  0  0  0  0  0  0  0  0  0  0
   10.9467    5.2721    8.2552 H   0  0  0  0  0  0  0  0  0  0  0  0
    9.0951    4.6661    6.7136 H   0  0  0  0  0  0  0  0  0  0  0  0
    8.3752    1.0948    5.3603 H   0  0  0  0  0  0  0  0  0  0  0  0
  2  1  1  1
  1109  1  0
  1110  1  0
  1111  1  0
  2  3  1  0
  2  4  1  0
  2108  1  0
  3112  1  0
  3113  1  0
  3114  1  0
  4  5  2  0
  4 85  1  0
  5  6  1  0
  5115  1  0
  6  7  1  0
  6 83  2  0
  7  8  2  0
  7116  1  0
  8  9  1  0
  8117  1  0
  9 10  2  0
  9 82  1  0
 10 11  1  0
 11 12  1  0
 11 46  2  0
 12 13  2  0
 12118  1  0
 13 14  1  0
 13119  1  0
 14 15  2  0
 14 19  1  0
 15 16  1  0
 15120  1  0
 16 17  2  0
 16121  1  0
 17 18  1  0
 17 45  1  0
 18 19  2  0
 18 20  1  0
 19122  1  0
 20 21  1  6
 20 22  1  0
 20 23  1  0
 21123  1  0
 21124  1  0
 21125  1  0
 22126  1  0
 22127  1  0
 22128  1  0
 23 24  1  0
 23 45  2  0
 24 25  2  0
 24129  1  0
 25 26  1  0
 25 43  1  0
 26 27  1  0
 26 33  1  0
 27 28  2  0
 27 32  1  0
 28 29  1  0
 28130  1  0
 29 30  2  0
 29131  1  0
 30 31  1  0
 30132  1  0
 31 32  2  0
 31133  1  0
 32134  1  0
 33 34  2  0
 33 42  1  0
 34 35  1  0
 34135  1  0
 35 36  2  0
 35136  1  0
 36 37  1  0
 36 41  1  0
 37 38  2  0
 37137  1  0
 38 39  1  0
 38138  1  0
 39 40  2  0
 39139  1  0
 40 41  1  0
 40140  1  0
 41 42  2  0
 42141  1  0
 43 44  2  0
 43142  1  0
 44 45  1  0
 44143  1  0
 46 47  1  0
 47 48  1  0
 47 82  2  0
 48 49  2  0
 48144  1  0
 49 50  1  0
 49145  1  0
 50 51  2  0
 50 55  1  0
 51 52  1  0
 51146  1  0
 52 53  2  0
 52147  1  0
 53 54  1  0
 53 81  1  0
 54 55  2  0
 54 56  1  0
 55148  1  0
 56 57  1  1
 56 58  1  0
 56 59  1  0
 57149  1  0
 57150  1  0
 57151  1  0
 58152  1  0
 58153  1  0
 58154  1  0
 59 60  1  0
 59 81  2  0
 60 61  2  0
 60155  1  0
 61 62  1  0
 61 79  1  0
 62 63  1  0
 62 69  1  0
 63 64  2  0
 63 68  1  0
 64 65  1  0
 64156  1  0
 65 66  2  0
 65157  1  0
 66 67  1  0
 66158  1  0
 67 68  2  0
 67159  1  0
 68160  1  0
 69 70  2  0
 69 78  1  0
 70 71  1  0
 70161  1  0
 71 72  2  0
 71162  1  0
 72 73  1  0
 72 77  1  0
 73 74  2  0
 73163  1  0
 74 75  1  0
 74164  1  0
 75 76  2  0
 75165  1  0
 76 77  1  0
 76166  1  0
 77 78  2  0
 78167  1  0
 79 80  2  0
 79168  1  0
 80 81  1  0
 80169  1  0
 83 84  1  0
 83170  1  0
 84 85  2  0
 84171  1  0
 85 86  1  0
 86 87  2  0
 86108  1  0
 87 88  1  0
 87172  1  0
 88 89  2  0
 88173  1  0
 89 90  1  0
 89107  1  0
 90 91  1  0
 90 97  1  0
 91 92  2  0
 91 96  1  0
 92 93  1  0
 92174  1  0
 93 94  2  0
 93175  1  0
 94 95  1  0
 94176  1  0
 95 96  2  0
 95177  1  0
 96178  1  0
 97 98  2  0
 97106  1  0
 98 99  1  0
 98179  1  0
 99100  2  0
 99180  1  0
100101  1  0
100105  1  0
101102  2  0
101181  1  0
102103  1  0
102182  1  0
103104  2  0
103183  1  0
104105  1  0
104184  1  0
105106  2  0
106185  1  0
107108  2  0
107186  1  0
M  END

