
     RDKit          3D

 29 29  0  0  0  0  0  0  0  0999 V2000
    1.5446   -1.0084    1.7588 C   0  0  0  0  0  0  0  0  0  0  0  0
    2.1355    0.0147    1.1346 C   0  0  0  0  0  0  0  0  0  0  0  0
    3.1137    0.9714    1.7559 C   0  0  0  0  0  0  0  0  0  0  0  0
    4.4839    0.9532    1.0702 C   0  0  0  0  0  0  0  0  0  0  0  0
    5.4547    2.0053    1.5898 C   0  0  0  0  0  0  0  0  0  0  0  0
    5.0934    2.8869    2.3405 O   0  0  0  0  0  0  0  0  0  0  0  0
    6.9094    1.8663    1.1386 C   0  0  1  0  0  0  0  0  0  0  0  0
    7.6730    3.2239    1.1066 C   0  0  0  0  0  0  0  0  0  0  0  0
    8.9197    3.0383    1.9857 C   0  0  0  0  0  0  0  0  0  0  0  0
    8.4931    1.9960    3.0273 C   0  0  2  0  0  0  0  0  0  0  0  0
    9.6011    1.4754    3.8090 N   0  0  0  0  0  0  0  0  0  0  0  0
    7.6892    0.9902    2.1702 C   0  0  0  0  0  0  0  0  0  0  0  0
    0.8382   -1.6643    1.2423 H   0  0  0  0  0  0  0  0  0  0  0  0
    1.7400   -1.2247    2.8148 H   0  0  0  0  0  0  0  0  0  0  0  0
    1.9048    0.1884    0.0741 H   0  0  0  0  0  0  0  0  0  0  0  0
    3.2354    0.7499    2.8288 H   0  0  0  0  0  0  0  0  0  0  0  0
    2.7205    2.0015    1.7034 H   0  0  0  0  0  0  0  0  0  0  0  0
    4.3811    1.1328   -0.0180 H   0  0  0  0  0  0  0  0  0  0  0  0
    4.9569   -0.0420    1.1458 H   0  0  0  0  0  0  0  0  0  0  0  0
    6.9150    1.3692    0.1561 H   0  0  0  0  0  0  0  0  0  0  0  0
    7.0227    3.9986    1.5392 H   0  0  0  0  0  0  0  0  0  0  0  0
    7.9187    3.5301    0.0788 H   0  0  0  0  0  0  0  0  0  0  0  0
    9.2745    3.9718    2.4475 H   0  0  0  0  0  0  0  0  0  0  0  0
    9.7608    2.6268    1.3969 H   0  0  0  0  0  0  0  0  0  0  0  0
    7.7919    2.4829    3.7288 H   0  0  0  0  0  0  0  0  0  0  0  0
   10.2449    0.9523    3.2122 H   0  0  0  0  0  0  0  0  0  0  0  0
    9.2706    0.8232    4.5202 H   0  0  0  0  0  0  0  0  0  0  0  0
    7.0388    0.3378    2.7763 H   0  0  0  0  0  0  0  0  0  0  0  0
    8.3993    0.3323    1.6390 H   0  0  0  0  0  0  0  0  0  0  0  0
  1  2  2  0
  1 13  1  0
  1 14  1  0
  2  3  1  0
  2 15  1  0
  3  4  1  0
  3 16  1  0
  3 17  1  0
  4  5  1  0
  4 18  1  0
  4 19  1  0
  5  6  2  0
  5  7  1  0
  7  8  1  0
  7 12  1  0
  7 20  1  6
  8  9  1  0
  8 21  1  0
  8 22  1  0
  9 10  1  0
  9 23  1  0
  9 24  1  0
 10 11  1  0
 10 12  1  0
 10 25  1  1
 11 26  1  0
 11 27  1  0
 12 28  1  0
 12 29  1  0
M  END

