
     RDKit          3D

 27 28  0  0  0  0  0  0  0  0999 V2000
    4.5398   -0.0665   -1.2157 N   0  0  0  0  0  0  0  0  0  0  0  0
    3.8832    1.2040   -0.9149 C   0  0  0  0  0  0  0  0  0  0  0  0
    4.5337    1.8532    0.3072 C   0  0  0  0  0  0  0  0  0  0  0  0
    4.4763    0.9043    1.4094 N   0  0  0  0  0  0  0  0  0  0  0  0
    5.0401    1.2867    2.9256 S   0  0  1  0  0  0  0  0  0  0  0  0
    4.5544    2.6356    3.2198 O   0  0  0  0  0  0  0  0  0  0  0  0
    4.7364    0.1300    3.7666 O   0  0  0  0  0  0  0  0  0  0  0  0
    6.8397    1.3888    2.8071 C   0  0  0  0  0  0  0  0  0  0  0  0
    7.4394    2.6294    2.5057 C   0  0  0  0  0  0  0  0  0  0  0  0
    8.8237    2.7407    2.3757 C   0  0  0  0  0  0  0  0  0  0  0  0
    9.5868    1.5811    2.5618 C   0  0  0  0  0  0  0  0  0  0  0  0
   10.9608    1.3618    2.5139 N   0  0  0  0  0  0  0  0  0  0  0  0
   11.0882    0.1082    2.7845 C   0  0  0  0  0  0  0  0  0  0  0  0
    9.9331   -0.5777    3.0182 O   0  0  0  0  0  0  0  0  0  0  0  0
    8.9531    0.3638    2.8755 C   0  0  0  0  0  0  0  0  0  0  0  0
    7.5798    0.2192    3.0144 C   0  0  0  0  0  0  0  0  0  0  0  0
    5.4308    0.0852   -1.6901 H   0  0  0  0  0  0  0  0  0  0  0  0
    3.9707   -0.6394   -1.8366 H   0  0  0  0  0  0  0  0  0  0  0  0
    2.8276    0.9960   -0.6774 H   0  0  0  0  0  0  0  0  0  0  0  0
    3.8913    1.9362   -1.7479 H   0  0  0  0  0  0  0  0  0  0  0  0
    3.9941    2.7690    0.5895 H   0  0  0  0  0  0  0  0  0  0  0  0
    5.5756    2.1452    0.0563 H   0  0  0  0  0  0  0  0  0  0  0  0
    4.6814   -0.0545    1.1191 H   0  0  0  0  0  0  0  0  0  0  0  0
    6.7984    3.5064    2.4032 H   0  0  0  0  0  0  0  0  0  0  0  0
    9.3029    3.6952    2.1512 H   0  0  0  0  0  0  0  0  0  0  0  0
   12.0080   -0.4729    2.8489 H   0  0  0  0  0  0  0  0  0  0  0  0
    7.0989   -0.7211    3.2857 H   0  0  0  0  0  0  0  0  0  0  0  0
  1  2  1  0
  1 17  1  0
  1 18  1  0
  2  3  1  0
  2 19  1  0
  2 20  1  0
  3  4  1  0
  3 21  1  0
  3 22  1  0
  5  4  1  6
  4 23  1  0
  5  6  2  0
  5  7  2  0
  5  8  1  0
  8  9  2  0
  8 16  1  0
  9 10  1  0
  9 24  1  0
 10 11  2  0
 10 25  1  0
 11 12  1  0
 11 15  1  0
 12 13  2  0
 13 14  1  0
 13 26  1  0
 14 15  1  0
 15 16  2  0
 16 27  1  0
M  END

