
     RDKit          3D

 48 50  0  0  0  0  0  0  0  0999 V2000
    1.3065    0.0423    1.1093 O   0  0  0  0  0  0  0  0  0  0  0  0
    2.4724    0.1692    0.8530 C   0  0  0  0  0  0  0  0  0  0  0  0
    3.1841    1.1646    1.4398 O   0  0  0  0  0  0  0  0  0  0  0  0
    3.2622   -0.7103   -0.1257 C   0  0  1  0  0  0  0  0  0  0  0  0
    4.4870   -1.3795    0.5447 C   0  0  0  0  0  0  0  0  0  0  0  0
    4.0796   -2.5160    1.4942 C   0  0  0  0  0  0  0  0  0  0  0  0
    3.2069   -3.5793    0.8094 C   0  0  2  0  0  0  0  0  0  0  0  0
    4.0197   -4.3277   -0.1612 N   0  0  0  0  0  0  0  0  0  0  0  0
    3.5766   -5.5658   -0.6010 C   0  0  0  0  0  0  0  0  0  0  0  0
    2.4771   -6.0073   -0.2968 O   0  0  0  0  0  0  0  0  0  0  0  0
    4.4510   -6.2812   -1.4054 N   0  0  0  0  0  0  0  0  0  0  0  0
    4.0167   -7.5914   -1.8617 C   0  0  0  0  0  0  0  0  0  0  0  0
    5.1760   -8.4825   -2.2016 C   0  0  0  0  0  0  0  0  0  0  0  0
    6.4662   -8.0924   -2.2332 C   0  0  0  0  0  0  0  0  0  0  0  0
    7.5656   -9.0618   -2.4931 C   0  0  0  0  0  0  0  0  0  0  0  0
    7.4863  -10.3886   -2.0234 C   0  0  0  0  0  0  0  0  0  0  0  0
    8.5047  -11.3056   -2.2839 C   0  0  0  0  0  0  0  0  0  0  0  0
    9.6382  -10.9300   -3.0099 C   0  0  0  0  0  0  0  0  0  0  0  0
    9.7277   -9.6132   -3.4663 C   0  0  0  0  0  0  0  0  0  0  0  0
   11.1358   -9.1101   -4.3787 Cl  0  0  0  0  0  0  0  0  0  0  0  0
    8.7152   -8.6858   -3.2130 C   0  0  0  0  0  0  0  0  0  0  0  0
    6.8125   -6.6375   -1.9793 C   0  0  0  0  0  0  0  0  0  0  0  0
    5.5855   -5.7365   -2.1336 C   0  0  0  0  0  0  0  0  0  0  0  0
    1.9876   -2.9159    0.1440 C   0  0  0  0  0  0  0  0  0  0  0  0
    2.3711   -1.7687   -0.7988 C   0  0  0  0  0  0  0  0  0  0  0  0
    4.0963    1.1653    1.1172 H   0  0  0  0  0  0  0  0  0  0  0  0
    3.6380   -0.0151   -0.9008 H   0  0  0  0  0  0  0  0  0  0  0  0
    5.1029   -0.6434    1.0904 H   0  0  0  0  0  0  0  0  0  0  0  0
    5.1358   -1.7724   -0.2560 H   0  0  0  0  0  0  0  0  0  0  0  0
    3.5074   -2.1022    2.3413 H   0  0  0  0  0  0  0  0  0  0  0  0
    4.9782   -2.9842    1.9340 H   0  0  0  0  0  0  0  0  0  0  0  0
    2.8347   -4.2862    1.5703 H   0  0  0  0  0  0  0  0  0  0  0  0
    5.0226   -4.2153   -0.0720 H   0  0  0  0  0  0  0  0  0  0  0  0
    3.3378   -7.5090   -2.7390 H   0  0  0  0  0  0  0  0  0  0  0  0
    3.4019   -8.0448   -1.0690 H   0  0  0  0  0  0  0  0  0  0  0  0
    4.9142   -9.5166   -2.4455 H   0  0  0  0  0  0  0  0  0  0  0  0
    6.6255  -10.6946   -1.4261 H   0  0  0  0  0  0  0  0  0  0  0  0
    8.4240  -12.3277   -1.9052 H   0  0  0  0  0  0  0  0  0  0  0  0
   10.4436  -11.6370   -3.2138 H   0  0  0  0  0  0  0  0  0  0  0  0
    8.8280   -7.6744   -3.6037 H   0  0  0  0  0  0  0  0  0  0  0  0
    7.5959   -6.2947   -2.6743 H   0  0  0  0  0  0  0  0  0  0  0  0
    7.2395   -6.5328   -0.9646 H   0  0  0  0  0  0  0  0  0  0  0  0
    5.3297   -5.6564   -3.2099 H   0  0  0  0  0  0  0  0  0  0  0  0
    5.8029   -4.7159   -1.7965 H   0  0  0  0  0  0  0  0  0  0  0  0
    1.3309   -2.5284    0.9383 H   0  0  0  0  0  0  0  0  0  0  0  0
    1.4171   -3.6853   -0.3953 H   0  0  0  0  0  0  0  0  0  0  0  0
    1.4615   -1.2884   -1.1889 H   0  0  0  0  0  0  0  0  0  0  0  0
    2.9210   -2.1740   -1.6646 H   0  0  0  0  0  0  0  0  0  0  0  0
  1  2  2  0
  2  3  1  0
  2  4  1  0
  3 26  1  0
  4  5  1  0
  4 25  1  0
  4 27  1  6
  5  6  1  0
  5 28  1  0
  5 29  1  0
  6  7  1  0
  6 30  1  0
  6 31  1  0
  7  8  1  0
  7 24  1  0
  7 32  1  1
  8  9  1  0
  8 33  1  0
  9 10  2  0
  9 11  1  0
 11 12  1  0
 11 23  1  0
 12 13  1  0
 12 34  1  0
 12 35  1  0
 13 14  2  0
 13 36  1  0
 14 15  1  0
 14 22  1  0
 15 16  2  0
 15 21  1  0
 16 17  1  0
 16 37  1  0
 17 18  2  0
 17 38  1  0
 18 19  1  0
 18 39  1  0
 19 20  1  0
 19 21  2  0
 21 40  1  0
 22 23  1  0
 22 41  1  0
 22 42  1  0
 23 43  1  0
 23 44  1  0
 24 25  1  0
 24 45  1  0
 24 46  1  0
 25 47  1  0
 25 48  1  0
M  END

