
     RDKit          3D

 51 54  0  0  0  0  0  0  0  0999 V2000
    0.8711   -0.3180    0.2209 C   0  0  0  0  0  0  0  0  0  0  0  0
    2.3710   -0.2007    0.1000 C   0  0  0  0  0  0  0  0  0  0  0  0
    3.0492   -1.3294    0.1807 N   0  0  0  0  0  0  0  0  0  0  0  0
    4.4014   -1.2927    0.1348 C   0  0  0  0  0  0  0  0  0  0  0  0
    5.1645   -2.4921    0.2020 C   0  0  0  0  0  0  0  0  0  0  0  0
    6.5378   -2.4452    0.1830 C   0  0  0  0  0  0  0  0  0  0  0  0
    7.2504   -1.2018    0.0999 C   0  0  0  0  0  0  0  0  0  0  0  0
    8.7112   -1.1261    0.0820 C   0  0  0  0  0  0  0  0  0  0  0  0
    9.5825   -2.1612    0.1436 C   0  0  0  0  0  0  0  0  0  0  0  0
   11.0415   -2.0990    0.1265 C   0  0  0  0  0  0  0  0  0  0  0  0
   11.7810   -0.9002    0.0365 C   0  0  0  0  0  0  0  0  0  0  0  0
   13.1686   -0.8887    0.0232 C   0  0  0  0  0  0  0  0  0  0  0  0
   13.9178   -2.0937    0.1000 C   0  0  0  0  0  0  0  0  0  0  0  0
   15.2985   -2.0866    0.0863 N   0  0  0  0  0  0  0  0  0  0  0  0
   16.0299   -3.3341    0.1674 C   0  0  0  0  0  0  0  0  0  0  0  0
   16.0195   -0.8334   -0.0034 C   0  0  0  0  0  0  0  0  0  0  0  0
   13.1809   -3.3013    0.1911 C   0  0  0  0  0  0  0  0  0  0  0  0
   11.7908   -3.2906    0.2028 C   0  0  0  0  0  0  0  0  0  0  0  0
    6.5067   -0.0261    0.0327 C   0  0  0  0  0  0  0  0  0  0  0  0
    5.0896   -0.0449    0.0430 C   0  0  0  0  0  0  0  0  0  0  0  0
    4.3867    1.1118   -0.0399 N   0  0  0  0  0  0  0  0  0  0  0  0
    3.0665    1.0643   -0.0437 C   0  0  0  0  0  0  0  0  0  0  0  0
    2.3708    2.3814   -0.1530 C   0  0  0  0  0  0  0  0  0  0  0  0
    1.2200    2.5747   -0.9373 C   0  0  0  0  0  0  0  0  0  0  0  0
    0.6306    3.8376   -1.0427 C   0  0  0  0  0  0  0  0  0  0  0  0
    1.1751    4.9282   -0.3601 C   0  0  0  0  0  0  0  0  0  0  0  0
    2.3259    4.7512    0.4159 C   0  0  0  0  0  0  0  0  0  0  0  0
    2.9221    3.4941    0.5103 C   0  0  0  0  0  0  0  0  0  0  0  0
    0.6378   -1.2718    0.7129 H   0  0  0  0  0  0  0  0  0  0  0  0
    0.3840   -0.3312   -0.7688 H   0  0  0  0  0  0  0  0  0  0  0  0
    0.4313    0.5125    0.7914 H   0  0  0  0  0  0  0  0  0  0  0  0
    4.6233   -3.4382    0.2712 H   0  0  0  0  0  0  0  0  0  0  0  0
    7.0989   -3.3801    0.2347 H   0  0  0  0  0  0  0  0  0  0  0  0
    9.1073   -0.1080    0.0110 H   0  0  0  0  0  0  0  0  0  0  0  0
    9.1806   -3.1776    0.2155 H   0  0  0  0  0  0  0  0  0  0  0  0
   11.2584    0.0571   -0.0256 H   0  0  0  0  0  0  0  0  0  0  0  0
   13.6782    0.0714   -0.0481 H   0  0  0  0  0  0  0  0  0  0  0  0
   15.8146   -3.8850    1.1020 H   0  0  0  0  0  0  0  0  0  0  0  0
   17.1075   -3.1278    0.1423 H   0  0  0  0  0  0  0  0  0  0  0  0
   15.7974   -4.0101   -0.6764 H   0  0  0  0  0  0  0  0  0  0  0  0
   15.7842   -0.2809   -0.9321 H   0  0  0  0  0  0  0  0  0  0  0  0
   17.0987   -1.0327    0.0012 H   0  0  0  0  0  0  0  0  0  0  0  0
   15.7988   -0.1616    0.8470 H   0  0  0  0  0  0  0  0  0  0  0  0
   13.6954   -4.2593    0.2537 H   0  0  0  0  0  0  0  0  0  0  0  0
   11.2606   -4.2451    0.2743 H   0  0  0  0  0  0  0  0  0  0  0  0
    6.9977    0.9473   -0.0365 H   0  0  0  0  0  0  0  0  0  0  0  0
    0.7939    1.7431   -1.4996 H   0  0  0  0  0  0  0  0  0  0  0  0
   -0.2565    3.9691   -1.6677 H   0  0  0  0  0  0  0  0  0  0  0  0
    0.7090    5.9139   -0.4375 H   0  0  0  0  0  0  0  0  0  0  0  0
    2.7633    5.6000    0.9480 H   0  0  0  0  0  0  0  0  0  0  0  0
    3.8314    3.3527    1.0969 H   0  0  0  0  0  0  0  0  0  0  0  0
  1  2  1  0
  1 29  1  0
  1 30  1  0
  1 31  1  0
  2  3  2  0
  2 22  1  0
  3  4  1  0
  4  5  2  0
  4 20  1  0
  5  6  1  0
  5 32  1  0
  6  7  2  0
  6 33  1  0
  7  8  1  0
  7 19  1  0
  8  9  2  0
  8 34  1  0
  9 10  1  0
  9 35  1  0
 10 11  2  0
 10 18  1  0
 11 12  1  0
 11 36  1  0
 12 13  2  0
 12 37  1  0
 13 14  1  0
 13 17  1  0
 14 15  1  0
 14 16  1  0
 15 38  1  0
 15 39  1  0
 15 40  1  0
 16 41  1  0
 16 42  1  0
 16 43  1  0
 17 18  2  0
 17 44  1  0
 18 45  1  0
 19 20  2  0
 19 46  1  0
 20 21  1  0
 21 22  2  0
 22 23  1  0
 23 24  2  0
 23 28  1  0
 24 25  1  0
 24 47  1  0
 25 26  2  0
 25 48  1  0
 26 27  1  0
 26 49  1  0
 27 28  2  0
 27 50  1  0
 28 51  1  0
M  END

