
     RDKit          3D

 42 43  0  0  0  0  0  0  0  0999 V2000
    3.7136   -2.8290   -0.1057 N   0  0  0  0  0  0  0  0  0  0  0  0
    3.3345   -1.4216   -0.0694 C   0  0  0  0  0  0  0  0  0  0  0  0
    3.5880   -0.7773   -1.4196 C   0  0  1  0  0  0  0  0  0  0  0  0
    3.2921    0.7170   -1.5599 C   0  0  0  0  0  0  0  0  0  0  0  0
    4.2065    1.1409   -2.7289 C   0  0  0  0  0  0  0  0  0  0  0  0
    5.2674    0.0109   -2.7937 C   0  0  2  0  0  0  0  0  0  0  0  0
    5.2662   -0.7226   -4.1558 C   0  0  0  0  0  0  0  0  0  0  0  0
    5.2287   -0.0907   -5.2019 O   0  0  0  0  0  0  0  0  0  0  0  0
    5.3551   -2.0736   -4.0466 N   0  0  0  0  0  0  0  0  0  0  0  0
    5.3346   -3.0579   -5.1500 C   0  0  1  0  0  0  0  0  0  0  0  0
    6.5873   -2.8398   -6.0290 C   0  0  0  0  0  0  0  0  0  0  0  0
    7.7932   -2.9771   -5.3089 O   0  0  0  0  0  0  0  0  0  0  0  0
    5.3726   -4.4629   -4.5103 C   0  0  0  0  0  0  0  0  0  0  0  0
    4.0967   -4.8276   -3.7378 C   0  0  0  0  0  0  0  0  0  0  0  0
    2.8491   -4.6666   -4.6161 C   0  0  0  0  0  0  0  0  0  0  0  0
    2.7769   -3.2646   -5.2344 C   0  0  0  0  0  0  0  0  0  0  0  0
    4.0548   -2.9098   -6.0050 C   0  0  0  0  0  0  0  0  0  0  0  0
    4.9906   -0.8711   -1.7104 O   0  0  0  0  0  0  0  0  0  0  0  0
    3.4509   -3.2998    0.7592 H   0  0  0  0  0  0  0  0  0  0  0  0
    4.7277   -2.9051   -0.1843 H   0  0  0  0  0  0  0  0  0  0  0  0
    3.8616   -0.8233    0.7049 H   0  0  0  0  0  0  0  0  0  0  0  0
    2.2551   -1.3470    0.1462 H   0  0  0  0  0  0  0  0  0  0  0  0
    3.0233   -1.3478   -2.1846 H   0  0  0  0  0  0  0  0  0  0  0  0
    3.5732    1.2387   -0.6304 H   0  0  0  0  0  0  0  0  0  0  0  0
    2.2280    0.9180   -1.7541 H   0  0  0  0  0  0  0  0  0  0  0  0
    4.6706    2.1212   -2.5542 H   0  0  0  0  0  0  0  0  0  0  0  0
    3.6695    1.2052   -3.6855 H   0  0  0  0  0  0  0  0  0  0  0  0
    6.2900    0.3983   -2.6499 H   0  0  0  0  0  0  0  0  0  0  0  0
    5.3212   -2.4163   -3.0908 H   0  0  0  0  0  0  0  0  0  0  0  0
    6.5115   -1.8512   -6.5160 H   0  0  0  0  0  0  0  0  0  0  0  0
    6.6029   -3.6079   -6.8186 H   0  0  0  0  0  0  0  0  0  0  0  0
    7.7876   -2.3015   -4.6172 H   0  0  0  0  0  0  0  0  0  0  0  0
    6.2705   -4.5425   -3.8767 H   0  0  0  0  0  0  0  0  0  0  0  0
    5.5159   -5.1880   -5.3298 H   0  0  0  0  0  0  0  0  0  0  0  0
    3.9910   -4.2051   -2.8304 H   0  0  0  0  0  0  0  0  0  0  0  0
    4.1773   -5.8662   -3.3748 H   0  0  0  0  0  0  0  0  0  0  0  0
    1.9384   -4.8769   -4.0305 H   0  0  0  0  0  0  0  0  0  0  0  0
    2.8782   -5.4178   -5.4277 H   0  0  0  0  0  0  0  0  0  0  0  0
    2.6135   -2.5213   -4.4338 H   0  0  0  0  0  0  0  0  0  0  0  0
    1.9062   -3.1850   -5.9066 H   0  0  0  0  0  0  0  0  0  0  0  0
    4.0010   -1.8848   -6.4003 H   0  0  0  0  0  0  0  0  0  0  0  0
    4.1551   -3.5859   -6.8731 H   0  0  0  0  0  0  0  0  0  0  0  0
  1  2  1  0
  1 19  1  0
  1 20  1  0
  2  3  1  0
  2 21  1  0
  2 22  1  0
  3  4  1  0
  3 18  1  0
  3 23  1  6
  4  5  1  0
  4 24  1  0
  4 25  1  0
  5  6  1  0
  5 26  1  0
  5 27  1  0
  6  7  1  0
  6 18  1  0
  6 28  1  1
  7  8  2  0
  7  9  1  0
 10  9  1  1
  9 29  1  0
 10 11  1  0
 10 13  1  0
 10 17  1  0
 11 12  1  0
 11 30  1  0
 11 31  1  0
 12 32  1  0
 13 14  1  0
 13 33  1  0
 13 34  1  0
 14 15  1  0
 14 35  1  0
 14 36  1  0
 15 16  1  0
 15 37  1  0
 15 38  1  0
 16 17  1  0
 16 39  1  0
 16 40  1  0
 17 41  1  0
 17 42  1  0
M  END

