
     RDKit          3D

 43 42  0  0  0  0  0  0  0  0999 V2000
    8.2377    2.3498    0.7129 C   0  0  0  0  0  0  0  0  0  0  0  0
    7.3108    1.9059   -0.4196 C   0  0  0  0  0  0  0  0  0  0  0  0
    5.8595    1.7283    0.0303 C   0  0  0  0  0  0  0  0  0  0  0  0
    4.9116    1.1432   -1.0434 C   0  0  2  0  0  0  0  0  0  0  0  0
    3.8955    1.1307   -0.6036 H   0  0  0  0  0  0  0  0  0  0  0  0
    5.2679   -0.2019   -1.4352 N   0  0  0  0  0  0  0  0  0  0  0  0
    4.7894   -1.2726   -0.6975 C   0  0  0  0  0  0  0  0  0  0  0  0
    4.2168   -1.1114    0.3753 O   0  0  0  0  0  0  0  0  0  0  0  0
    5.0213   -2.5011   -1.2638 N   0  0  0  0  0  0  0  0  0  0  0  0
    4.6993   -3.7801   -0.6124 C   0  0  1  0  0  0  0  0  0  0  0  0
    5.4806   -3.9757    0.6942 C   0  0  0  0  0  0  0  0  0  0  0  0
    3.1855   -3.9728   -0.4145 C   0  0  0  0  0  0  0  0  0  0  0  0
    2.3913   -3.9974   -1.7226 C   0  0  0  0  0  0  0  0  0  0  0  0
    0.9823   -4.3278   -1.5442 N   0  0  0  0  0  0  0  0  0  0  0  0
    0.2240   -3.2914   -0.8693 C   0  0  0  0  0  0  0  0  0  0  0  0
    0.3502   -4.7291   -2.7848 C   0  0  0  0  0  0  0  0  0  0  0  0
    4.8540    2.0013   -2.3117 C   0  0  0  0  0  0  0  0  0  0  0  0
    5.0738    1.5745   -3.4150 O   0  0  0  0  0  0  0  0  0  0  0  0
    4.5360    3.2949   -2.1257 O   0  0  0  0  0  0  0  0  0  0  0  0
    9.2748    2.4657    0.3607 H   0  0  0  0  0  0  0  0  0  0  0  0
    8.2440    1.6154    1.5353 H   0  0  0  0  0  0  0  0  0  0  0  0
    7.9221    3.3175    1.1381 H   0  0  0  0  0  0  0  0  0  0  0  0
    7.6660    0.9507   -0.8413 H   0  0  0  0  0  0  0  0  0  0  0  0
    7.3587    2.6416   -1.2430 H   0  0  0  0  0  0  0  0  0  0  0  0
    5.4553    2.6925    0.3967 H   0  0  0  0  0  0  0  0  0  0  0  0
    5.8017    1.0446    0.8921 H   0  0  0  0  0  0  0  0  0  0  0  0
    5.4374   -0.3059   -2.4331 H   0  0  0  0  0  0  0  0  0  0  0  0
    5.6189   -2.5373   -2.0798 H   0  0  0  0  0  0  0  0  0  0  0  0
    5.0415   -4.5455   -1.3308 H   0  0  0  0  0  0  0  0  0  0  0  0
    5.1767   -3.2258    1.4380 H   0  0  0  0  0  0  0  0  0  0  0  0
    6.5635   -3.8737    0.5192 H   0  0  0  0  0  0  0  0  0  0  0  0
    5.2937   -4.9790    1.1085 H   0  0  0  0  0  0  0  0  0  0  0  0
    2.8265   -3.1759    0.2528 H   0  0  0  0  0  0  0  0  0  0  0  0
    3.0204   -4.9319    0.1040 H   0  0  0  0  0  0  0  0  0  0  0  0
    2.8276   -4.7693   -2.3812 H   0  0  0  0  0  0  0  0  0  0  0  0
    2.5201   -3.0282   -2.2597 H   0  0  0  0  0  0  0  0  0  0  0  0
    0.6601   -3.0612    0.1134 H   0  0  0  0  0  0  0  0  0  0  0  0
   -0.8098   -3.6331   -0.7008 H   0  0  0  0  0  0  0  0  0  0  0  0
    0.1747   -2.3381   -1.4477 H   0  0  0  0  0  0  0  0  0  0  0  0
    0.8894   -5.5799   -3.2318 H   0  0  0  0  0  0  0  0  0  0  0  0
    0.3119   -3.9156   -3.5485 H   0  0  0  0  0  0  0  0  0  0  0  0
   -0.6865   -5.0510   -2.5946 H   0  0  0  0  0  0  0  0  0  0  0  0
    4.3963    3.4786   -1.1850 H   0  0  0  0  0  0  0  0  0  0  0  0
  1  2  1  0
  1 20  1  0
  1 21  1  0
  1 22  1  0
  2  3  1  0
  2 23  1  0
  2 24  1  0
  3  4  1  0
  3 25  1  0
  3 26  1  0
  4  5  1  1
  4  6  1  0
  4 17  1  0
  6  7  1  0
  6 27  1  0
  7  8  2  0
  7  9  1  0
  9 10  1  0
  9 28  1  0
 10 11  1  0
 10 12  1  0
 10 29  1  6
 11 30  1  0
 11 31  1  0
 11 32  1  0
 12 13  1  0
 12 33  1  0
 12 34  1  0
 13 14  1  0
 13 35  1  0
 13 36  1  0
 14 15  1  0
 14 16  1  0
 15 37  1  0
 15 38  1  0
 15 39  1  0
 16 40  1  0
 16 41  1  0
 16 42  1  0
 17 18  2  0
 17 19  1  0
 19 43  1  0
M  END

