
     RDKit          3D

 62 65  0  0  0  0  0  0  0  0999 V2000
   14.3721    1.7847   -7.3328 C   0  0  0  0  0  0  0  0  0  0  0  0
   13.3589    1.1782   -6.3952 C   0  0  0  0  0  0  0  0  0  0  0  0
   12.4173    0.2390   -6.8378 C   0  0  0  0  0  0  0  0  0  0  0  0
   11.4808   -0.3105   -5.9606 C   0  0  0  0  0  0  0  0  0  0  0  0
   11.4504    0.0576   -4.6035 C   0  0  0  0  0  0  0  0  0  0  0  0
   10.4459   -0.5522   -3.7271 C   0  0  0  0  0  0  0  0  0  0  0  0
   10.2621   -0.3322   -2.4142 C   0  0  0  0  0  0  0  0  0  0  0  0
    8.9564   -1.1493   -1.5251 S   0  0  1  0  0  0  0  0  0  0  0  0
    8.3076   -0.1329   -0.6971 O   0  0  0  0  0  0  0  0  0  0  0  0
    8.2072   -1.9783   -2.4733 O   0  0  0  0  0  0  0  0  0  0  0  0
    9.6987   -2.2137   -0.4558 N   0  0  0  0  0  0  0  0  0  0  0  0
   10.3474   -1.6924    0.7467 C   0  0  0  0  0  0  0  0  0  0  0  0
   10.3538   -2.7693    1.8272 C   0  0  0  0  0  0  0  0  0  0  0  0
   10.9515   -4.0030    1.3220 N   0  0  0  0  0  0  0  0  0  0  0  0
   11.5436   -4.8771    2.2367 C   0  0  0  0  0  0  0  0  0  0  0  0
   12.0218   -6.1661    1.8835 C   0  0  0  0  0  0  0  0  0  0  0  0
   12.6336   -6.9281    2.8518 C   0  0  0  0  0  0  0  0  0  0  0  0
   12.7537   -6.3941    4.1662 C   0  0  0  0  0  0  0  0  0  0  0  0
   13.3043   -7.0968    5.2297 N   0  0  0  0  0  0  0  0  0  0  0  0
   13.5751   -6.3842    6.4820 C   0  0  0  0  0  0  0  0  0  0  0  0
   13.4133   -7.2951    7.6980 C   0  0  0  0  0  0  0  0  0  0  0  0
   14.2599   -8.5612    7.5568 C   0  0  0  0  0  0  0  0  0  0  0  0
   13.9135   -9.2653    6.2423 C   0  0  0  0  0  0  0  0  0  0  0  0
   14.0382   -8.3495    5.0069 C   0  0  2  0  0  0  0  0  0  0  0  0
   15.4964   -8.1112    4.5742 C   0  0  0  0  0  0  0  0  0  0  0  0
   12.2997   -5.1587    4.4141 N   0  0  0  0  0  0  0  0  0  0  0  0
   11.6987   -4.4360    3.4867 N   0  0  0  0  0  0  0  0  0  0  0  0
   10.3031   -4.5047    0.1196 C   0  0  0  0  0  0  0  0  0  0  0  0
   10.2912   -3.4390   -0.9773 C   0  0  0  0  0  0  0  0  0  0  0  0
   12.3981    1.0033   -4.1588 C   0  0  0  0  0  0  0  0  0  0  0  0
   13.3285    1.5479   -5.0362 C   0  0  0  0  0  0  0  0  0  0  0  0
   14.2940    1.3610   -8.3445 H   0  0  0  0  0  0  0  0  0  0  0  0
   15.4008    1.6166   -6.9727 H   0  0  0  0  0  0  0  0  0  0  0  0
   14.2362    2.8766   -7.4131 H   0  0  0  0  0  0  0  0  0  0  0  0
   12.4149   -0.0677   -7.8873 H   0  0  0  0  0  0  0  0  0  0  0  0
   10.7557   -1.0399   -6.3318 H   0  0  0  0  0  0  0  0  0  0  0  0
    9.7607   -1.2622   -4.2033 H   0  0  0  0  0  0  0  0  0  0  0  0
   10.8397    0.3633   -1.8007 H   0  0  0  0  0  0  0  0  0  0  0  0
    9.7835   -0.8179    1.0964 H   0  0  0  0  0  0  0  0  0  0  0  0
   11.3914   -1.3839    0.5327 H   0  0  0  0  0  0  0  0  0  0  0  0
    9.3134   -2.9505    2.1668 H   0  0  0  0  0  0  0  0  0  0  0  0
   10.9287   -2.4357    2.6984 H   0  0  0  0  0  0  0  0  0  0  0  0
   11.9324   -6.5597    0.8711 H   0  0  0  0  0  0  0  0  0  0  0  0
   13.0133   -7.9150    2.5911 H   0  0  0  0  0  0  0  0  0  0  0  0
   12.8897   -5.5313    6.5278 H   0  0  0  0  0  0  0  0  0  0  0  0
   14.6011   -5.9600    6.4698 H   0  0  0  0  0  0  0  0  0  0  0  0
   12.3493   -7.5725    7.8021 H   0  0  0  0  0  0  0  0  0  0  0  0
   13.6893   -6.7332    8.6058 H   0  0  0  0  0  0  0  0  0  0  0  0
   14.0938   -9.2441    8.4064 H   0  0  0  0  0  0  0  0  0  0  0  0
   15.3322   -8.2955    7.5787 H   0  0  0  0  0  0  0  0  0  0  0  0
   12.8705   -9.6221    6.2980 H   0  0  0  0  0  0  0  0  0  0  0  0
   14.5468  -10.1550    6.0901 H   0  0  0  0  0  0  0  0  0  0  0  0
   13.5336   -8.8849    4.1898 H   0  0  0  0  0  0  0  0  0  0  0  0
   16.0825   -7.6076    5.3582 H   0  0  0  0  0  0  0  0  0  0  0  0
   15.5385   -7.4809    3.6719 H   0  0  0  0  0  0  0  0  0  0  0  0
   15.9954   -9.0664    4.3443 H   0  0  0  0  0  0  0  0  0  0  0  0
    9.2580   -4.8154    0.3305 H   0  0  0  0  0  0  0  0  0  0  0  0
   10.8379   -5.3802   -0.2696 H   0  0  0  0  0  0  0  0  0  0  0  0
    9.6882   -3.7882   -1.8258 H   0  0  0  0  0  0  0  0  0  0  0  0
   11.3300   -3.2637   -1.3254 H   0  0  0  0  0  0  0  0  0  0  0  0
   12.4057    1.3182   -3.1128 H   0  0  0  0  0  0  0  0  0  0  0  0
   14.0512    2.2798   -4.6636 H   0  0  0  0  0  0  0  0  0  0  0  0
  1  2  1  0
  1 32  1  0
  1 33  1  0
  1 34  1  0
  2  3  2  0
  2 31  1  0
  3  4  1  0
  3 35  1  0
  4  5  2  0
  4 36  1  0
  5  6  1  0
  5 30  1  0
  6  7  2  0
  6 37  1  0
  8  7  1  6
  7 38  1  0
  8  9  2  0
  8 10  2  0
  8 11  1  0
 11 12  1  0
 11 29  1  0
 12 13  1  0
 12 39  1  0
 12 40  1  0
 13 14  1  0
 13 41  1  0
 13 42  1  0
 14 15  1  0
 14 28  1  0
 15 16  2  0
 15 27  1  0
 16 17  1  0
 16 43  1  0
 17 18  2  0
 17 44  1  0
 18 19  1  0
 18 26  1  0
 19 20  1  0
 19 24  1  0
 20 21  1  0
 20 45  1  0
 20 46  1  0
 21 22  1  0
 21 47  1  0
 21 48  1  0
 22 23  1  0
 22 49  1  0
 22 50  1  0
 23 24  1  0
 23 51  1  0
 23 52  1  0
 24 25  1  0
 24 53  1  6
 25 54  1  0
 25 55  1  0
 25 56  1  0
 26 27  2  0
 28 29  1  0
 28 57  1  0
 28 58  1  0
 29 59  1  0
 29 60  1  0
 30 31  2  0
 30 61  1  0
 31 62  1  0
M  END

