
     RDKit          3D

 53 56  0  0  0  0  0  0  0  0999 V2000
    2.2808    0.1924    1.7465 O   0  0  0  0  0  0  0  0  0  0  0  0
    3.1308    0.0750    0.8900 C   0  0  0  0  0  0  0  0  0  0  0  0
    3.9286   -1.2121    0.6900 C   0  0  0  0  0  0  0  0  0  0  0  0
    4.3903   -1.4131   -0.6377 O   0  0  0  0  0  0  0  0  0  0  0  0
    4.9436   -0.3287   -1.2531 C   0  0  0  0  0  0  0  0  0  0  0  0
    5.9030   -0.5143   -2.2458 C   0  0  0  0  0  0  0  0  0  0  0  0
    6.4436    0.5875   -2.9289 C   0  0  0  0  0  0  0  0  0  0  0  0
    7.4892    0.4681   -4.0080 C   0  0  0  0  0  0  0  0  0  0  0  0
    8.1898    1.4208   -4.3228 O   0  0  0  0  0  0  0  0  0  0  0  0
    7.6033   -0.7531   -4.6115 N   0  0  0  0  0  0  0  0  0  0  0  0
    8.5836   -1.0039   -5.6690 C   0  0  1  0  0  0  0  0  0  0  0  0
    8.9473   -2.4979   -5.7129 C   0  0  0  0  0  0  0  0  0  0  0  0
    7.8305   -3.3474   -6.3545 C   0  0  0  0  0  0  0  0  0  0  0  0
    7.4269   -2.8911   -7.6845 N   0  0  0  0  0  0  0  0  0  0  0  0
    8.3449   -3.2553   -8.7830 C   0  0  1  0  0  0  0  0  0  0  0  0
    8.4302   -4.7907   -8.9504 C   0  0  0  0  0  0  0  0  0  0  0  0
    7.1007   -5.4042   -9.4081 C   0  0  0  0  0  0  0  0  0  0  0  0
    6.6189   -4.7762  -10.7226 C   0  0  0  0  0  0  0  0  0  0  0  0
    6.5653   -3.2451  -10.6309 C   0  0  0  0  0  0  0  0  0  0  0  0
    7.9007   -2.6689  -10.1400 C   0  0  0  0  0  0  0  0  0  0  0  0
    6.9984   -1.4922   -7.5965 C   0  0  0  0  0  0  0  0  0  0  0  0
    8.0791   -0.5441   -7.0542 C   0  0  0  0  0  0  0  0  0  0  0  0
    6.0280    1.8794   -2.5738 C   0  0  0  0  0  0  0  0  0  0  0  0
    5.0678    2.0697   -1.5820 C   0  0  0  0  0  0  0  0  0  0  0  0
    4.5107    0.9697   -0.9192 C   0  0  0  0  0  0  0  0  0  0  0  0
    3.5128    1.0965    0.0551 N   0  0  0  0  0  0  0  0  0  0  0  0
    3.2807   -2.0593    0.9471 H   0  0  0  0  0  0  0  0  0  0  0  0
    4.7795   -1.1989    1.4012 H   0  0  0  0  0  0  0  0  0  0  0  0
    6.2208   -1.5393   -2.4464 H   0  0  0  0  0  0  0  0  0  0  0  0
    6.8982   -1.4545   -4.4265 H   0  0  0  0  0  0  0  0  0  0  0  0
    9.4654   -0.4040   -5.4003 H   0  0  0  0  0  0  0  0  0  0  0  0
    9.1721   -2.8621   -4.6961 H   0  0  0  0  0  0  0  0  0  0  0  0
    9.8741   -2.6111   -6.2990 H   0  0  0  0  0  0  0  0  0  0  0  0
    6.9314   -3.3289   -5.7078 H   0  0  0  0  0  0  0  0  0  0  0  0
    8.1381   -4.4010   -6.3899 H   0  0  0  0  0  0  0  0  0  0  0  0
    9.3757   -2.8834   -8.5896 H   0  0  0  0  0  0  0  0  0  0  0  0
    8.7813   -5.2766   -8.0270 H   0  0  0  0  0  0  0  0  0  0  0  0
    9.2109   -4.9957   -9.7043 H   0  0  0  0  0  0  0  0  0  0  0  0
    6.3419   -5.2401   -8.6246 H   0  0  0  0  0  0  0  0  0  0  0  0
    7.2103   -6.4958   -9.5243 H   0  0  0  0  0  0  0  0  0  0  0  0
    5.6304   -5.1786  -11.0018 H   0  0  0  0  0  0  0  0  0  0  0  0
    7.3114   -5.0645  -11.5358 H   0  0  0  0  0  0  0  0  0  0  0  0
    5.7585   -2.9497   -9.9388 H   0  0  0  0  0  0  0  0  0  0  0  0
    6.3111   -2.8129  -11.6137 H   0  0  0  0  0  0  0  0  0  0  0  0
    7.8685   -1.5689  -10.1119 H   0  0  0  0  0  0  0  0  0  0  0  0
    8.6912   -2.9189  -10.8690 H   0  0  0  0  0  0  0  0  0  0  0  0
    6.1228   -1.4595   -6.9215 H   0  0  0  0  0  0  0  0  0  0  0  0
    6.6297   -1.1426   -8.5694 H   0  0  0  0  0  0  0  0  0  0  0  0
    7.7013    0.4876   -6.9779 H   0  0  0  0  0  0  0  0  0  0  0  0
    8.9365   -0.5159   -7.7489 H   0  0  0  0  0  0  0  0  0  0  0  0
    6.4784    2.7273   -3.0917 H   0  0  0  0  0  0  0  0  0  0  0  0
    4.7381    3.0780   -1.3171 H   0  0  0  0  0  0  0  0  0  0  0  0
    3.0631    1.9952    0.2051 H   0  0  0  0  0  0  0  0  0  0  0  0
  1  2  2  0
  2  3  1  0
  2 26  1  0
  3  4  1  0
  3 27  1  0
  3 28  1  0
  4  5  1  0
  5  6  1  0
  5 25  2  0
  6  7  2  0
  6 29  1  0
  7  8  1  0
  7 23  1  0
  8  9  2  0
  8 10  1  0
 10 11  1  0
 10 30  1  0
 11 12  1  0
 11 22  1  0
 11 31  1  1
 12 13  1  0
 12 32  1  0
 12 33  1  0
 13 14  1  0
 13 34  1  0
 13 35  1  0
 14 15  1  0
 14 21  1  0
 15 16  1  0
 15 20  1  0
 15 36  1  1
 16 17  1  0
 16 37  1  0
 16 38  1  0
 17 18  1  0
 17 39  1  0
 17 40  1  0
 18 19  1  0
 18 41  1  0
 18 42  1  0
 19 20  1  0
 19 43  1  0
 19 44  1  0
 20 45  1  0
 20 46  1  0
 21 22  1  0
 21 47  1  0
 21 48  1  0
 22 49  1  0
 22 50  1  0
 23 24  2  0
 23 51  1  0
 24 25  1  0
 24 52  1  0
 25 26  1  0
 26 53  1  0
M  END

