
     RDKit          3D

 36 37  0  0  0  0  0  0  0  0999 V2000
    1.7351   -0.3269    0.8903 C   0  0  0  0  0  0  0  0  0  0  0  0
    3.0212   -0.3553    0.3136 O   0  0  0  0  0  0  0  0  0  0  0  0
    3.2161    0.2106   -0.9032 C   0  0  0  0  0  0  0  0  0  0  0  0
    2.2233    0.8569   -1.6517 C   0  0  0  0  0  0  0  0  0  0  0  0
    2.5448    1.4063   -2.9007 C   0  0  0  0  0  0  0  0  0  0  0  0
    3.8352    1.3291   -3.4318 C   0  0  0  0  0  0  0  0  0  0  0  0
    4.1810    1.9878   -4.7654 C   0  0  1  0  0  0  0  0  0  0  0  0
    5.0532    3.1614   -4.6383 N   0  0  0  0  0  0  0  0  0  0  0  0
    4.7478    1.0061   -5.7979 C   0  0  0  0  0  0  0  0  0  0  0  0
    5.7065    1.4242   -6.7348 C   0  0  0  0  0  0  0  0  0  0  0  0
    6.2079    0.5670   -7.7276 C   0  0  0  0  0  0  0  0  0  0  0  0
    7.2464    1.0392   -8.7165 C   0  0  0  0  0  0  0  0  0  0  0  0
    5.7239   -0.7464   -7.7838 C   0  0  0  0  0  0  0  0  0  0  0  0
    4.7670   -1.1546   -6.8569 C   0  0  0  0  0  0  0  0  0  0  0  0
    4.2566   -2.5422   -6.9264 N   0  0  0  0  0  0  0  0  0  0  0  0
    4.7138   -3.2710   -7.7931 O   0  0  0  0  0  0  0  0  0  0  0  0
    3.4082   -2.8760   -6.1146 O   0  0  0  0  0  0  0  0  0  0  0  0
    4.2722   -0.3089   -5.8655 C   0  0  0  0  0  0  0  0  0  0  0  0
    4.8181    0.6709   -2.6663 C   0  0  0  0  0  0  0  0  0  0  0  0
    4.5211    0.1229   -1.4253 C   0  0  0  0  0  0  0  0  0  0  0  0
    1.8134   -0.8438    1.8561 H   0  0  0  0  0  0  0  0  0  0  0  0
    0.9916   -0.8515    0.2634 H   0  0  0  0  0  0  0  0  0  0  0  0
    1.3851    0.7066    1.0658 H   0  0  0  0  0  0  0  0  0  0  0  0
    1.2015    0.9384   -1.2807 H   0  0  0  0  0  0  0  0  0  0  0  0
    1.7569    1.9068   -3.4722 H   0  0  0  0  0  0  0  0  0  0  0  0
    3.2317    2.3614   -5.1908 H   0  0  0  0  0  0  0  0  0  0  0  0
    5.9071    2.9067   -4.1376 H   0  0  0  0  0  0  0  0  0  0  0  0
    4.5917    3.8639   -4.0607 H   0  0  0  0  0  0  0  0  0  0  0  0
    6.0573    2.4562   -6.6780 H   0  0  0  0  0  0  0  0  0  0  0  0
    7.4762    2.1058   -8.5810 H   0  0  0  0  0  0  0  0  0  0  0  0
    6.9046    0.8938   -9.7543 H   0  0  0  0  0  0  0  0  0  0  0  0
    8.1870    0.4739   -8.6065 H   0  0  0  0  0  0  0  0  0  0  0  0
    6.0745   -1.4575   -8.5321 H   0  0  0  0  0  0  0  0  0  0  0  0
    3.5299   -0.6900   -5.1656 H   0  0  0  0  0  0  0  0  0  0  0  0
    5.8367    0.5756   -3.0550 H   0  0  0  0  0  0  0  0  0  0  0  0
    5.2811   -0.3913   -0.8333 H   0  0  0  0  0  0  0  0  0  0  0  0
  1  2  1  0
  1 21  1  0
  1 22  1  0
  1 23  1  0
  2  3  1  0
  3  4  2  0
  3 20  1  0
  4  5  1  0
  4 24  1  0
  5  6  2  0
  5 25  1  0
  6  7  1  0
  6 19  1  0
  7  8  1  0
  7  9  1  0
  7 26  1  6
  8 27  1  0
  8 28  1  0
  9 10  2  0
  9 18  1  0
 10 11  1  0
 10 29  1  0
 11 12  1  0
 11 13  2  0
 12 30  1  0
 12 31  1  0
 12 32  1  0
 13 14  1  0
 13 33  1  0
 14 15  1  0
 14 18  2  0
 15 16  2  0
 15 17  1  0
 18 34  1  0
 19 20  2  0
 19 35  1  0
 20 36  1  0
M  CHG  2  15   1  17  -1
M  END

