
     RDKit          3D

 38 38  0  0  0  0  0  0  0  0999 V2000
    3.9639   -1.8622    1.0157 C   0  0  0  0  0  0  0  0  0  0  0  0
    4.9019   -0.3059    0.9064 S   0  0  0  0  0  0  0  0  0  0  0  0
    3.5732    0.9339    1.1978 C   0  0  1  0  0  0  0  0  0  0  0  0
    2.8638    0.7361    2.5517 C   0  0  0  0  0  0  0  0  0  0  0  0
    3.4326    0.1624    3.4850 O   0  0  0  0  0  0  0  0  0  0  0  0
    1.5976    1.2108    2.6938 N   0  0  0  0  0  0  0  0  0  0  0  0
    0.8622    1.9767    1.6956 C   0  0  0  0  0  0  0  0  0  0  0  0
    0.9232    0.9258    3.9660 C   0  0  0  0  0  0  0  0  0  0  0  0
    1.3900    1.8184    5.1570 C   0  0  1  0  0  0  0  0  0  0  0  0
    0.3420    2.8504    5.5732 C   0  0  0  0  0  0  0  0  0  0  0  0
    1.8298    0.9613    6.3613 C   0  0  0  0  0  0  0  0  0  0  0  0
    1.3719    1.1052    7.4667 O   0  0  0  0  0  0  0  0  0  0  0  0
    2.7649    0.0459    6.0991 O   0  0  0  0  0  0  0  0  0  0  0  0
    4.2163    2.3097    1.1031 C   0  0  0  0  0  0  0  0  0  0  0  0
    4.0776    3.0816   -0.0606 C   0  0  0  0  0  0  0  0  0  0  0  0
    4.6882    4.3350   -0.1600 C   0  0  0  0  0  0  0  0  0  0  0  0
    5.4493    4.8293    0.9029 C   0  0  0  0  0  0  0  0  0  0  0  0
    5.6008    4.0622    2.0624 C   0  0  0  0  0  0  0  0  0  0  0  0
    4.9917    2.8090    2.1629 C   0  0  0  0  0  0  0  0  0  0  0  0
    4.6706   -2.6633    0.7544 H   0  0  0  0  0  0  0  0  0  0  0  0
    3.1287   -1.8866    0.2977 H   0  0  0  0  0  0  0  0  0  0  0  0
    3.5977   -2.0286    2.0387 H   0  0  0  0  0  0  0  0  0  0  0  0
    2.8415    0.8236    0.3844 H   0  0  0  0  0  0  0  0  0  0  0  0
    1.5383    2.4452    0.9728 H   0  0  0  0  0  0  0  0  0  0  0  0
    0.3097    2.7887    2.1914 H   0  0  0  0  0  0  0  0  0  0  0  0
    0.1330    1.3490    1.1524 H   0  0  0  0  0  0  0  0  0  0  0  0
    1.0768   -0.1383    4.1973 H   0  0  0  0  0  0  0  0  0  0  0  0
   -0.1554    1.0626    3.8026 H   0  0  0  0  0  0  0  0  0  0  0  0
    2.3003    2.3469    4.8233 H   0  0  0  0  0  0  0  0  0  0  0  0
   -0.5733    2.3545    5.9315 H   0  0  0  0  0  0  0  0  0  0  0  0
    0.0785    3.5080    4.7291 H   0  0  0  0  0  0  0  0  0  0  0  0
    0.7131    3.4747    6.3978 H   0  0  0  0  0  0  0  0  0  0  0  0
    3.0495    0.0712    5.1510 H   0  0  0  0  0  0  0  0  0  0  0  0
    3.4944    2.6935   -0.9008 H   0  0  0  0  0  0  0  0  0  0  0  0
    4.5715    4.9245   -1.0729 H   0  0  0  0  0  0  0  0  0  0  0  0
    5.9276    5.8090    0.8263 H   0  0  0  0  0  0  0  0  0  0  0  0
    6.2014    4.4392    2.8940 H   0  0  0  0  0  0  0  0  0  0  0  0
    5.1245    2.2031    3.0621 H   0  0  0  0  0  0  0  0  0  0  0  0
  1  2  1  0
  1 20  1  0
  1 21  1  0
  1 22  1  0
  2  3  1  0
  3  4  1  0
  3 14  1  0
  3 23  1  6
  4  5  2  0
  4  6  1  0
  6  7  1  0
  6  8  1  0
  7 24  1  0
  7 25  1  0
  7 26  1  0
  8  9  1  0
  8 27  1  0
  8 28  1  0
  9 10  1  0
  9 11  1  0
  9 29  1  6
 10 30  1  0
 10 31  1  0
 10 32  1  0
 11 12  2  0
 11 13  1  0
 13 33  1  0
 14 15  2  0
 14 19  1  0
 15 16  1  0
 15 34  1  0
 16 17  2  0
 16 35  1  0
 17 18  1  0
 17 36  1  0
 18 19  2  0
 18 37  1  0
 19 38  1  0
M  END

